2AOE_0Q4_B_301


 75 75  0  0  0  0  0  0  0  0999 V2000
   16.5058   24.0814   18.1062 C   0  0  0  0  0  0  0  0  0  0  0  0
   17.7729   24.4027   17.3388 C   0  0  0  0  0  0  0  0  0  0  0  0
   18.2669   23.5347   16.6113 O   0  0  0  0  0  0  0  0  0  0  0  0
   18.3220   25.5906   17.4886 N   0  0  0  0  0  0  0  0  0  0  0  0
   17.8680   26.2684   18.0396 H   0  0  0  0  0  0  0  0  0  0  0  0
   19.5923   25.9170   16.8506 C   0  0  0  0  0  0  0  0  0  0  0  0
   20.3770   26.8549   17.7611 C   0  0  0  0  0  0  0  0  0  0  0  0
   20.8994   27.8703   17.3001 O   0  0  0  0  0  0  0  0  0  0  0  0
   20.5418   26.4405   19.0245 N   0  0  0  0  0  0  0  0  0  0  0  0
   20.0594   25.6515   19.3622 H   0  0  0  0  0  0  0  0  0  0  0  0
   21.4530   27.1851   19.8896 C   0  0  0  0  0  0  0  0  0  0  0  0
   20.9797   27.1688   21.3240 C   0  0  0  0  0  0  0  0  0  0  0  0
   22.8803   26.6309   19.8446 C   0  0  0  0  0  0  0  0  0  0  0  0
   23.3965   26.1014   20.8308 O   0  0  0  0  0  0  0  0  0  0  0  0
   23.4306   26.7949   18.6708 N   0  0  0  0  0  0  0  0  0  0  0  0
   22.7648   26.9343   17.9591 H   0  0  0  0  0  0  0  0  0  0  0  0
   24.7795   26.8196   18.1742 C   0  0  0  0  0  0  0  0  0  0  0  0
   25.0893   27.8985   17.1604 C   0  0  0  0  0  0  0  0  0  0  0  0
   26.2732   28.0788   16.8279 O   0  0  0  0  0  0  0  0  0  0  0  0
   23.9225   28.6002   16.6467 N   0  0  0  0  0  0  0  0  0  0  0  0
   23.0251   28.3752   16.9833 H   0  0  0  0  0  0  0  0  0  0  0  0
   24.0305   29.3000   15.9627 H   0  0  0  0  0  0  0  0  0  0  0  0
   25.0603   25.4464   17.5349 C   0  0  0  0  0  0  0  0  0  0  0  0
   26.0509   24.6022   18.3106 C   0  0  0  0  0  0  0  0  0  0  0  0
   25.4221   23.6092   19.2743 C   0  0  0  0  0  0  0  0  0  0  0  0
   25.3184   22.2141   18.6599 C   0  0  0  0  0  0  0  0  0  0  0  0
   19.3142   26.5456   15.4867 C   0  0  0  0  0  0  0  0  0  0  0  0
   20.2229   26.1642   14.3265 C   0  0  0  0  0  0  0  0  0  0  0  0
   21.3303   27.1634   14.0682 C   0  0  0  0  0  0  0  0  0  0  0  0
   21.1609   27.9654   13.1226 O   0  0  0  0  0  0  0  0  0  0  0  0
   22.3010   27.2095   14.8270 O   0  0  0  0  0  0  0  0  0  0  0  0
   22.3830   26.5857   15.5213 H   0  0  0  0  0  0  0  0  0  0  0  0
   15.4071   23.7898   17.1904 N   0  0  0  0  0  0  0  0  0  0  0  0
   15.7723   23.1057   16.5278 H   0  0  0  0  0  0  0  0  0  0  0  0
   14.2068   23.3143   17.5855 C   0  0  0  0  0  0  0  0  0  0  0  0
   13.7890   22.0569   16.8142 C   0  0  0  0  0  0  0  0  0  0  0  0
   13.6285   20.0947   18.2382 C   0  0  0  0  0  0  0  0  0  0  0  0
   14.8025   19.8045   18.1604 O   0  0  0  0  0  0  0  0  0  0  0  0
   13.0500   21.1466   17.6650 N   0  0  0  0  0  0  0  0  0  0  0  0
   12.0923   21.3111   17.8235 H   0  0  0  0  0  0  0  0  0  0  0  0
   12.6545   19.2135   19.0200 C   0  0  0  0  0  0  0  0  0  0  0  0
   10.8268   18.6716   17.4843 C   0  0  0  0  0  0  0  0  0  0  0  0
   10.1455   19.6678   17.7334 O   0  0  0  0  0  0  0  0  0  0  0  0
   11.9902   18.3532   18.0577 N   0  0  0  0  0  0  0  0  0  0  0  0
   12.4155   17.4984   17.8174 H   0  0  0  0  0  0  0  0  0  0  0  0
   11.0158   17.8356   15.1389 N   0  0  0  0  0  0  0  0  0  0  0  0
   10.3653   17.6903   16.4277 C   0  0  0  0  0  0  0  0  0  0  0  0
   10.9037   18.7937   14.8075 H   0  0  0  0  0  0  0  0  0  0  0  0
   10.5923   17.1926   14.4699 H   0  0  0  0  0  0  0  0  0  0  0  0
   10.5447   16.2363   16.9137 C   0  0  0  0  0  0  0  0  0  0  0  0
    9.7763   15.7658   18.1201 C   0  0  0  0  0  0  0  0  0  0  0  0
    8.8550   14.5731   18.0165 C   0  0  0  0  0  0  0  0  0  0  0  0
    7.8502   14.3823   19.0064 N   0  0  0  0  0  0  0  0  0  0  0  0
    8.1155   13.7597   19.7214 H   0  0  0  0  0  0  0  0  0  0  0  0
    6.6390   14.8705   19.1576 C   0  0  0  0  0  0  0  0  0  0  0  0
    6.0824   14.9882   20.3536 N   0  0  0  0  0  0  0  0  0  0  0  0
    6.0110   15.2457   18.0355 N   0  0  0  0  0  0  0  0  0  0  0  0
    6.5752   14.7015   21.1563 H   0  0  0  0  0  0  0  0  0  0  0  0
    5.1759   15.3623   20.4401 H   0  0  0  0  0  0  0  0  0  0  0  0
    6.4570   15.1429   17.1639 H   0  0  0  0  0  0  0  0  0  0  0  0
    5.1034   15.6242   18.0824 H   0  0  0  0  0  0  0  0  0  0  0  0
   13.3819   18.4341   20.1170 C   0  0  0  0  0  0  0  0  0  0  0  0
   13.7103   19.3581   21.2753 C   0  0  0  0  0  0  0  0  0  0  0  0
   12.5499   17.2548   20.6227 C   0  0  0  0  0  0  0  0  0  0  0  0
   12.9220   22.2745   15.5753 C   0  0  0  0  0  0  0  0  0  0  0  0
   12.5126   21.0249   14.8022 C   0  0  0  0  0  0  0  0  0  0  0  0
   11.4670   21.3159   13.7462 C   0  0  0  0  0  0  0  0  0  0  0  0
   13.7172   20.3796   14.1256 C   0  0  0  0  0  0  0  0  0  0  0  0
   16.7476   22.8768   19.0114 C   0  0  0  0  0  0  0  0  0  0  0  0
   17.8983   23.0333   19.9852 C   0  0  0  0  0  0  0  0  0  0  0  0
   18.9618   22.1572   19.9732 C   0  0  0  0  0  0  0  0  0  0  0  0
   17.9390   24.0496   20.9179 C   0  0  0  0  0  0  0  0  0  0  0  0
   20.0194   22.2736   20.8663 C   0  0  0  0  0  0  0  0  0  0  0  0
   18.9834   24.1847   21.8087 C   0  0  0  0  0  0  0  0  0  0  0  0
   20.0460   23.3068   21.7868 C   0  0  0  0  0  0  0  0  0  0  0  0
 46 47  1  0  0  0
 47 42  1  0  0  0
 47 50  1  0  0  0
 42 43  2  0  0  0
 50 51  1  0  0  0
 51 52  1  0  0  0
 52 53  1  0  0  0
 53 55  1  0  0  0
 55 56  1  0  0  0
 55 57  2  0  0  0
 44 41  1  0  0  0
 41 37  1  0  0  0
 41 62  1  0  0  0
 37 38  2  0  0  0
 62 63  1  0  0  0
 62 64  1  0  0  0
 39 36  1  0  0  0
 36 35  1  0  0  0
 36 65  1  0  0  0
 65 66  1  0  0  0
 66 67  1  0  0  0
 66 68  1  0  0  0
 33  1  1  0  0  0
  1  2  1  0  0  0
  1 69  1  0  0  0
  2  3  2  0  0  0
 69 70  1  0  0  0
 70 71  2  0  0  0
 70 72  1  0  0  0
 71 73  1  0  0  0
 72 74  2  0  0  0
 73 75  2  0  0  0
 74 75  1  0  0  0
  4  6  1  0  0  0
  6  7  1  0  0  0
  6 27  1  0  0  0
  7  8  2  0  0  0
 27 28  1  0  0  0
 28 29  1  0  0  0
 29 30  2  0  0  0
 29 31  1  0  0  0
  9 11  1  0  0  0
 11 13  1  0  0  0
 11 12  1  0  0  0
 13 14  2  0  0  0
 15 17  1  0  0  0
 17 18  1  0  0  0
 17 23  1  0  0  0
 18 19  2  0  0  0
 23 24  1  0  0  0
 24 25  1  0  0  0
 25 26  1  0  0  0
 42 44  1  0  0  0
 37 39  1  0  0  0
 35 33  1  0  0  0
  2  4  1  0  0  0
  7  9  1  0  0  0
 13 15  1  0  0  0
 18 20  1  0  0  0
 46 48  1  0  0  0
 46 49  1  0  0  0
 53 54  1  0  0  0
 56 58  1  0  0  0
 56 59  1  0  0  0
 57 60  1  0  0  0
 57 61  1  0  0  0
 44 45  1  0  0  0
 39 40  1  0  0  0
 33 34  1  0  0  0
  4  5  1  0  0  0
 31 32  1  0  0  0
  9 10  1  0  0  0
 15 16  1  0  0  0
 20 21  1  0  0  0
 20 22  1  0  0  0
M  CHG 1  57   1
M  END
> <minimizedAffinity>
-9.11245

$$$$
2AOE_0Q4_B_301


 75 75  0  0  0  0  0  0  0  0999 V2000
   16.3650   24.1442   18.1377 C   0  0  0  0  0  0  0  0  0  0  0  0
   17.6579   24.4208   17.3964 C   0  0  0  0  0  0  0  0  0  0  0  0
   18.1286   23.5409   16.6678 O   0  0  0  0  0  0  0  0  0  0  0  0
   18.2527   25.5832   17.5694 N   0  0  0  0  0  0  0  0  0  0  0  0
   17.8172   26.2734   18.1201 H   0  0  0  0  0  0  0  0  0  0  0  0
   19.5468   25.8634   16.9576 C   0  0  0  0  0  0  0  0  0  0  0  0
   20.3210   26.8229   17.8545 C   0  0  0  0  0  0  0  0  0  0  0  0
   20.7612   27.8779   17.3967 O   0  0  0  0  0  0  0  0  0  0  0  0
   20.5716   26.3881   19.0967 N   0  0  0  0  0  0  0  0  0  0  0  0
   20.1521   25.5644   19.4357 H   0  0  0  0  0  0  0  0  0  0  0  0
   21.4807   27.1631   19.9370 C   0  0  0  0  0  0  0  0  0  0  0  0
   21.0707   27.0984   21.3893 C   0  0  0  0  0  0  0  0  0  0  0  0
   22.9307   26.6829   19.8215 C   0  0  0  0  0  0  0  0  0  0  0  0
   23.5414   26.2398   20.7962 O   0  0  0  0  0  0  0  0  0  0  0  0
   23.3901   26.8065   18.6044 N   0  0  0  0  0  0  0  0  0  0  0  0
   22.6709   26.8689   17.9350 H   0  0  0  0  0  0  0  0  0  0  0  0
   24.6988   26.8728   18.0131 C   0  0  0  0  0  0  0  0  0  0  0  0
   24.8845   27.9213   16.9387 C   0  0  0  0  0  0  0  0  0  0  0  0
   26.0346   28.1550   16.5297 O   0  0  0  0  0  0  0  0  0  0  0  0
   23.6501   28.5300   16.4664 N   0  0  0  0  0  0  0  0  0  0  0  0
   22.7885   28.2684   16.8645 H   0  0  0  0  0  0  0  0  0  0  0  0
   23.6765   29.2034   15.7487 H   0  0  0  0  0  0  0  0  0  0  0  0
   25.0021   25.4884   17.4092 C   0  0  0  0  0  0  0  0  0  0  0  0
   26.0419   24.7001   18.1794 C   0  0  0  0  0  0  0  0  0  0  0  0
   25.6389   23.2732   18.5133 C   0  0  0  0  0  0  0  0  0  0  0  0
   24.2619   23.2148   19.1728 C   0  0  0  0  0  0  0  0  0  0  0  0
   19.3198   26.4431   15.5629 C   0  0  0  0  0  0  0  0  0  0  0  0
   20.2247   25.9656   14.4357 C   0  0  0  0  0  0  0  0  0  0  0  0
   21.6134   26.5668   14.4754 C   0  0  0  0  0  0  0  0  0  0  0  0
   21.7364   27.7379   14.0519 O   0  0  0  0  0  0  0  0  0  0  0  0
   22.5396   25.9325   14.9855 O   0  0  0  0  0  0  0  0  0  0  0  0
   22.3972   25.0571   15.2878 H   0  0  0  0  0  0  0  0  0  0  0  0
   15.2789   23.8763   17.1998 N   0  0  0  0  0  0  0  0  0  0  0  0
   15.6836   23.2962   16.4650 H   0  0  0  0  0  0  0  0  0  0  0  0
   14.1198   23.2761   17.5453 C   0  0  0  0  0  0  0  0  0  0  0  0
   13.8746   21.9779   16.7675 C   0  0  0  0  0  0  0  0  0  0  0  0
   13.4088   20.2460   18.4067 C   0  0  0  0  0  0  0  0  0  0  0  0
   14.5581   20.1269   18.7723 O   0  0  0  0  0  0  0  0  0  0  0  0
   12.9722   21.1028   17.4875 N   0  0  0  0  0  0  0  0  0  0  0  0
   12.0084   21.1434   17.2911 H   0  0  0  0  0  0  0  0  0  0  0  0
   12.3084   19.3540   18.9808 C   0  0  0  0  0  0  0  0  0  0  0  0
   10.5586   19.0168   17.3024 C   0  0  0  0  0  0  0  0  0  0  0  0
    9.8346   19.9402   17.6793 O   0  0  0  0  0  0  0  0  0  0  0  0
   11.7101   18.6425   17.8657 N   0  0  0  0  0  0  0  0  0  0  0  0
   12.1732   17.8501   17.5095 H   0  0  0  0  0  0  0  0  0  0  0  0
    9.1095   17.2431   16.3076 N   0  0  0  0  0  0  0  0  0  0  0  0
   10.1706   18.2070   16.0835 C   0  0  0  0  0  0  0  0  0  0  0  0
    9.3681   16.6255   17.0772 H   0  0  0  0  0  0  0  0  0  0  0  0
    8.9673   16.6911   15.4618 H   0  0  0  0  0  0  0  0  0  0  0  0
    9.7630   19.1323   14.9171 C   0  0  0  0  0  0  0  0  0  0  0  0
   10.8140   19.5870   13.9396 C   0  0  0  0  0  0  0  0  0  0  0  0
   11.2844   18.6598   12.8436 C   0  0  0  0  0  0  0  0  0  0  0  0
   10.5421   17.4773   12.5666 N   0  0  0  0  0  0  0  0  0  0  0  0
    9.6599   17.6514   12.1657 H   0  0  0  0  0  0  0  0  0  0  0  0
   10.7980   16.1993   12.7388 C   0  0  0  0  0  0  0  0  0  0  0  0
   12.0394   15.7408   12.7894 N   0  0  0  0  0  0  0  0  0  0  0  0
    9.7326   15.3974   12.8662 N   0  0  0  0  0  0  0  0  0  0  0  0
   12.7976   16.3610   12.6917 H   0  0  0  0  0  0  0  0  0  0  0  0
   12.2040   14.7796   12.9249 H   0  0  0  0  0  0  0  0  0  0  0  0
    8.8244   15.7749   12.8231 H   0  0  0  0  0  0  0  0  0  0  0  0
    9.8578   14.4305   13.0030 H   0  0  0  0  0  0  0  0  0  0  0  0
   12.8667   18.4200   20.0560 C   0  0  0  0  0  0  0  0  0  0  0  0
   11.7986   18.1320   21.0948 C   0  0  0  0  0  0  0  0  0  0  0  0
   13.3695   17.1043   19.4600 C   0  0  0  0  0  0  0  0  0  0  0  0
   13.2896   22.1250   15.3640 C   0  0  0  0  0  0  0  0  0  0  0  0
   14.1098   21.5391   14.2190 C   0  0  0  0  0  0  0  0  0  0  0  0
   13.4667   21.7745   12.8684 C   0  0  0  0  0  0  0  0  0  0  0  0
   15.5161   22.1280   14.1947 C   0  0  0  0  0  0  0  0  0  0  0  0
   16.5507   22.9416   19.0587 C   0  0  0  0  0  0  0  0  0  0  0  0
   17.7726   23.0075   19.9529 C   0  0  0  0  0  0  0  0  0  0  0  0
   17.9122   24.0075   20.8906 C   0  0  0  0  0  0  0  0  0  0  0  0
   18.7911   22.0796   19.8755 C   0  0  0  0  0  0  0  0  0  0  0  0
   19.0304   24.0950   21.7101 C   0  0  0  0  0  0  0  0  0  0  0  0
   19.9061   22.1468   20.6847 C   0  0  0  0  0  0  0  0  0  0  0  0
   20.0357   23.1476   21.6238 C   0  0  0  0  0  0  0  0  0  0  0  0
 46 47  1  0  0  0
 47 42  1  0  0  0
 47 50  1  0  0  0
 42 43  2  0  0  0
 50 51  1  0  0  0
 51 52  1  0  0  0
 52 53  1  0  0  0
 53 55  1  0  0  0
 55 56  1  0  0  0
 55 57  2  0  0  0
 44 41  1  0  0  0
 41 37  1  0  0  0
 41 62  1  0  0  0
 37 38  2  0  0  0
 62 63  1  0  0  0
 62 64  1  0  0  0
 39 36  1  0  0  0
 36 35  1  0  0  0
 36 65  1  0  0  0
 65 66  1  0  0  0
 66 67  1  0  0  0
 66 68  1  0  0  0
 33  1  1  0  0  0
  1  2  1  0  0  0
  1 69  1  0  0  0
  2  3  2  0  0  0
 69 70  1  0  0  0
 70 71  2  0  0  0
 70 72  1  0  0  0
 71 73  1  0  0  0
 72 74  2  0  0  0
 73 75  2  0  0  0
 74 75  1  0  0  0
  4  6  1  0  0  0
  6  7  1  0  0  0
  6 27  1  0  0  0
  7  8  2  0  0  0
 27 28  1  0  0  0
 28 29  1  0  0  0
 29 30  2  0  0  0
 29 31  1  0  0  0
  9 11  1  0  0  0
 11 13  1  0  0  0
 11 12  1  0  0  0
 13 14  2  0  0  0
 15 17  1  0  0  0
 17 18  1  0  0  0
 17 23  1  0  0  0
 18 19  2  0  0  0
 23 24  1  0  0  0
 24 25  1  0  0  0
 25 26  1  0  0  0
 42 44  1  0  0  0
 37 39  1  0  0  0
 35 33  1  0  0  0
  2  4  1  0  0  0
  7  9  1  0  0  0
 13 15  1  0  0  0
 18 20  1  0  0  0
 46 48  1  0  0  0
 46 49  1  0  0  0
 53 54  1  0  0  0
 56 58  1  0  0  0
 56 59  1  0  0  0
 57 60  1  0  0  0
 57 61  1  0  0  0
 44 45  1  0  0  0
 39 40  1  0  0  0
 33 34  1  0  0  0
  4  5  1  0  0  0
 31 32  1  0  0  0
  9 10  1  0  0  0
 15 16  1  0  0  0
 20 21  1  0  0  0
 20 22  1  0  0  0
M  CHG 1  57   1
M  END
> <minimizedAffinity>
-9.01089

$$$$
2AOE_0Q4_B_301


 75 75  0  0  0  0  0  0  0  0999 V2000
   16.3454   24.2528   18.5970 C   0  0  0  0  0  0  0  0  0  0  0  0
   17.4597   24.4091   17.5814 C   0  0  0  0  0  0  0  0  0  0  0  0
   17.5785   23.5618   16.6899 O   0  0  0  0  0  0  0  0  0  0  0  0
   18.2822   25.4317   17.6937 N   0  0  0  0  0  0  0  0  0  0  0  0
   18.1209   26.1094   18.3894 H   0  0  0  0  0  0  0  0  0  0  0  0
   19.4283   25.5755   16.8030 C   0  0  0  0  0  0  0  0  0  0  0  0
   20.5040   26.3936   17.5086 C   0  0  0  0  0  0  0  0  0  0  0  0
   20.2282   27.4929   17.9903 O   0  0  0  0  0  0  0  0  0  0  0  0
   21.7453   25.8916   17.4611 N   0  0  0  0  0  0  0  0  0  0  0  0
   21.9082   24.9843   17.1154 H   0  0  0  0  0  0  0  0  0  0  0  0
   22.8514   26.7201   17.9334 C   0  0  0  0  0  0  0  0  0  0  0  0
   23.5905   26.0496   19.0673 C   0  0  0  0  0  0  0  0  0  0  0  0
   23.8561   27.0375   16.8214 C   0  0  0  0  0  0  0  0  0  0  0  0
   23.8649   26.4062   15.7628 O   0  0  0  0  0  0  0  0  0  0  0  0
   24.6514   28.0214   17.1487 N   0  0  0  0  0  0  0  0  0  0  0  0
   24.2813   28.5808   17.8693 H   0  0  0  0  0  0  0  0  0  0  0  0
   25.9396   28.4790   16.7039 C   0  0  0  0  0  0  0  0  0  0  0  0
   26.0236   28.9059   15.2552 C   0  0  0  0  0  0  0  0  0  0  0  0
   25.7730   30.0892   14.9694 O   0  0  0  0  0  0  0  0  0  0  0  0
   26.4372   27.8555   14.3370 N   0  0  0  0  0  0  0  0  0  0  0  0
   26.6104   26.9470   14.6743 H   0  0  0  0  0  0  0  0  0  0  0  0
   26.5439   28.0535   13.3785 H   0  0  0  0  0  0  0  0  0  0  0  0
   26.9420   27.3331   16.9396 C   0  0  0  0  0  0  0  0  0  0  0  0
   27.1707   27.0125   18.4026 C   0  0  0  0  0  0  0  0  0  0  0  0
   27.2919   25.5304   18.7170 C   0  0  0  0  0  0  0  0  0  0  0  0
   28.5664   24.9300   18.1257 C   0  0  0  0  0  0  0  0  0  0  0  0
   18.9672   26.2366   15.5057 C   0  0  0  0  0  0  0  0  0  0  0  0
   19.9802   26.3796   14.3785 C   0  0  0  0  0  0  0  0  0  0  0  0
   20.7479   27.6838   14.4135 C   0  0  0  0  0  0  0  0  0  0  0  0
   20.1960   28.6513   14.9837 O   0  0  0  0  0  0  0  0  0  0  0  0
   21.8953   27.7297   13.9644 O   0  0  0  0  0  0  0  0  0  0  0  0
   22.2648   26.9775   13.5453 H   0  0  0  0  0  0  0  0  0  0  0  0
   15.0621   24.0554   17.9297 N   0  0  0  0  0  0  0  0  0  0  0  0
   15.2860   23.7923   16.9700 H   0  0  0  0  0  0  0  0  0  0  0  0
   14.1285   23.1725   18.3444 C   0  0  0  0  0  0  0  0  0  0  0  0
   14.3071   21.7869   17.7129 C   0  0  0  0  0  0  0  0  0  0  0  0
   13.3083   19.7411   18.5618 C   0  0  0  0  0  0  0  0  0  0  0  0
   14.3529   19.2548   18.9373 O   0  0  0  0  0  0  0  0  0  0  0  0
   13.1689   20.9364   17.9948 N   0  0  0  0  0  0  0  0  0  0  0  0
   12.2663   21.2519   17.7601 H   0  0  0  0  0  0  0  0  0  0  0  0
   11.9953   18.9689   18.6882 C   0  0  0  0  0  0  0  0  0  0  0  0
   10.3484   19.5251   16.9646 C   0  0  0  0  0  0  0  0  0  0  0  0
    9.6524   20.2512   17.6766 O   0  0  0  0  0  0  0  0  0  0  0  0
   11.4364   18.8552   17.3532 N   0  0  0  0  0  0  0  0  0  0  0  0
   11.8784   18.2587   16.7066 H   0  0  0  0  0  0  0  0  0  0  0  0
    9.2548   18.1448   15.1942 N   0  0  0  0  0  0  0  0  0  0  0  0
   10.0007   19.3509   15.5014 C   0  0  0  0  0  0  0  0  0  0  0  0
    9.7665   17.3319   15.5372 H   0  0  0  0  0  0  0  0  0  0  0  0
    9.1327   18.0685   14.1844 H   0  0  0  0  0  0  0  0  0  0  0  0
    9.2127   20.5697   14.9759 C   0  0  0  0  0  0  0  0  0  0  0  0
    9.5836   21.1641   13.6432 C   0  0  0  0  0  0  0  0  0  0  0  0
    8.7732   20.8337   12.4118 C   0  0  0  0  0  0  0  0  0  0  0  0
    9.3489   20.0158   11.3991 N   0  0  0  0  0  0  0  0  0  0  0  0
    9.6929   20.5254   10.6302 H   0  0  0  0  0  0  0  0  0  0  0  0
    9.5134   18.7166   11.2843 C   0  0  0  0  0  0  0  0  0  0  0  0
    8.9577   17.8687   12.1365 N   0  0  0  0  0  0  0  0  0  0  0  0
   10.2663   18.3070   10.2549 N   0  0  0  0  0  0  0  0  0  0  0  0
    8.4104   18.2073   12.8815 H   0  0  0  0  0  0  0  0  0  0  0  0
    9.0919   16.8998   12.0250 H   0  0  0  0  0  0  0  0  0  0  0  0
   10.6631   18.9673    9.6419 H   0  0  0  0  0  0  0  0  0  0  0  0
   10.4228   17.3457   10.1113 H   0  0  0  0  0  0  0  0  0  0  0  0
   12.2207   17.6130   19.3598 C   0  0  0  0  0  0  0  0  0  0  0  0
   11.9422   17.7215   20.8476 C   0  0  0  0  0  0  0  0  0  0  0  0
   11.3363   16.5239   18.7513 C   0  0  0  0  0  0  0  0  0  0  0  0
   14.4978   21.7485   16.1977 C   0  0  0  0  0  0  0  0  0  0  0  0
   13.2322   21.6285   15.3545 C   0  0  0  0  0  0  0  0  0  0  0  0
   12.7733   22.9642   14.8084 C   0  0  0  0  0  0  0  0  0  0  0  0
   13.4415   20.6734   14.1844 C   0  0  0  0  0  0  0  0  0  0  0  0
   16.6394   23.0574   19.4991 C   0  0  0  0  0  0  0  0  0  0  0  0
   17.9506   23.1378   20.2548 C   0  0  0  0  0  0  0  0  0  0  0  0
   18.9380   22.1958   20.0642 C   0  0  0  0  0  0  0  0  0  0  0  0
   18.2184   24.1471   21.1571 C   0  0  0  0  0  0  0  0  0  0  0  0
   20.1412   22.2423   20.7571 C   0  0  0  0  0  0  0  0  0  0  0  0
   19.4093   24.2132   21.8499 C   0  0  0  0  0  0  0  0  0  0  0  0
   20.3941   23.2694   21.6497 C   0  0  0  0  0  0  0  0  0  0  0  0
 46 47  1  0  0  0
 47 42  1  0  0  0
 47 50  1  0  0  0
 42 43  2  0  0  0
 50 51  1  0  0  0
 51 52  1  0  0  0
 52 53  1  0  0  0
 53 55  1  0  0  0
 55 56  1  0  0  0
 55 57  2  0  0  0
 44 41  1  0  0  0
 41 37  1  0  0  0
 41 62  1  0  0  0
 37 38  2  0  0  0
 62 63  1  0  0  0
 62 64  1  0  0  0
 39 36  1  0  0  0
 36 35  1  0  0  0
 36 65  1  0  0  0
 65 66  1  0  0  0
 66 67  1  0  0  0
 66 68  1  0  0  0
 33  1  1  0  0  0
  1  2  1  0  0  0
  1 69  1  0  0  0
  2  3  2  0  0  0
 69 70  1  0  0  0
 70 71  2  0  0  0
 70 72  1  0  0  0
 71 73  1  0  0  0
 72 74  2  0  0  0
 73 75  2  0  0  0
 74 75  1  0  0  0
  4  6  1  0  0  0
  6  7  1  0  0  0
  6 27  1  0  0  0
  7  8  2  0  0  0
 27 28  1  0  0  0
 28 29  1  0  0  0
 29 30  2  0  0  0
 29 31  1  0  0  0
  9 11  1  0  0  0
 11 13  1  0  0  0
 11 12  1  0  0  0
 13 14  2  0  0  0
 15 17  1  0  0  0
 17 18  1  0  0  0
 17 23  1  0  0  0
 18 19  2  0  0  0
 23 24  1  0  0  0
 24 25  1  0  0  0
 25 26  1  0  0  0
 42 44  1  0  0  0
 37 39  1  0  0  0
 35 33  1  0  0  0
  2  4  1  0  0  0
  7  9  1  0  0  0
 13 15  1  0  0  0
 18 20  1  0  0  0
 46 48  1  0  0  0
 46 49  1  0  0  0
 53 54  1  0  0  0
 56 58  1  0  0  0
 56 59  1  0  0  0
 57 60  1  0  0  0
 57 61  1  0  0  0
 44 45  1  0  0  0
 39 40  1  0  0  0
 33 34  1  0  0  0
  4  5  1  0  0  0
 31 32  1  0  0  0
  9 10  1  0  0  0
 15 16  1  0  0  0
 20 21  1  0  0  0
 20 22  1  0  0  0
M  CHG 1  57   1
M  END
> <minimizedAffinity>
-8.61691

$$$$
2AOE_0Q4_B_301


 75 75  0  0  0  0  0  0  0  0999 V2000
   16.5507   23.5857   18.3116 C   0  0  0  0  0  0  0  0  0  0  0  0
   17.7290   24.0151   17.4602 C   0  0  0  0  0  0  0  0  0  0  0  0
   18.1990   23.2153   16.6439 O   0  0  0  0  0  0  0  0  0  0  0  0
   18.2311   25.2205   17.6326 N   0  0  0  0  0  0  0  0  0  0  0  0
   17.7947   25.8424   18.2588 H   0  0  0  0  0  0  0  0  0  0  0  0
   19.4237   25.6481   16.9100 C   0  0  0  0  0  0  0  0  0  0  0  0
   20.1758   26.6692   17.7562 C   0  0  0  0  0  0  0  0  0  0  0  0
   20.5478   27.7318   17.2573 O   0  0  0  0  0  0  0  0  0  0  0  0
   20.4863   26.2818   19.0006 N   0  0  0  0  0  0  0  0  0  0  0  0
   20.1197   25.4479   19.3742 H   0  0  0  0  0  0  0  0  0  0  0  0
   21.3806   27.1238   19.7907 C   0  0  0  0  0  0  0  0  0  0  0  0
   20.9977   27.1067   21.2518 C   0  0  0  0  0  0  0  0  0  0  0  0
   22.8449   26.6910   19.6690 C   0  0  0  0  0  0  0  0  0  0  0  0
   23.5028   26.3610   20.6578 O   0  0  0  0  0  0  0  0  0  0  0  0
   23.2617   26.7223   18.4309 N   0  0  0  0  0  0  0  0  0  0  0  0
   22.5205   26.6968   17.7834 H   0  0  0  0  0  0  0  0  0  0  0  0
   24.5479   26.7853   17.7919 C   0  0  0  0  0  0  0  0  0  0  0  0
   24.5906   27.5120   16.4660 C   0  0  0  0  0  0  0  0  0  0  0  0
   25.4964   27.2300   15.6631 O   0  0  0  0  0  0  0  0  0  0  0  0
   23.5087   28.4635   16.2615 N   0  0  0  0  0  0  0  0  0  0  0  0
   22.8411   28.6095   16.9702 H   0  0  0  0  0  0  0  0  0  0  0  0
   23.4444   28.9612   15.4145 H   0  0  0  0  0  0  0  0  0  0  0  0
   25.0266   25.3370   17.5765 C   0  0  0  0  0  0  0  0  0  0  0  0
   26.1659   24.9279   18.4877 C   0  0  0  0  0  0  0  0  0  0  0  0
   27.2237   25.9980   18.7022 C   0  0  0  0  0  0  0  0  0  0  0  0
   28.2517   26.0106   17.5720 C   0  0  0  0  0  0  0  0  0  0  0  0
   19.0040   26.2243   15.5591 C   0  0  0  0  0  0  0  0  0  0  0  0
   19.8353   25.8577   14.3377 C   0  0  0  0  0  0  0  0  0  0  0  0
   21.2269   26.4533   14.3489 C   0  0  0  0  0  0  0  0  0  0  0  0
   21.3394   27.6384   13.9631 O   0  0  0  0  0  0  0  0  0  0  0  0
   22.1682   25.7987   14.8024 O   0  0  0  0  0  0  0  0  0  0  0  0
   22.0332   24.9134   15.0784 H   0  0  0  0  0  0  0  0  0  0  0  0
   15.4808   23.0456   17.4782 N   0  0  0  0  0  0  0  0  0  0  0  0
   15.8146   22.1388   17.1513 H   0  0  0  0  0  0  0  0  0  0  0  0
   14.2208   22.8370   17.9163 C   0  0  0  0  0  0  0  0  0  0  0  0
   13.7791   21.3768   17.7648 C   0  0  0  0  0  0  0  0  0  0  0  0
   12.8586   20.5289   15.6822 C   0  0  0  0  0  0  0  0  0  0  0  0
   11.7083   20.5216   16.0638 O   0  0  0  0  0  0  0  0  0  0  0  0
   13.9084   20.9342   16.3915 N   0  0  0  0  0  0  0  0  0  0  0  0
   14.7987   20.9335   15.9711 H   0  0  0  0  0  0  0  0  0  0  0  0
   13.2242   20.0185   14.2886 C   0  0  0  0  0  0  0  0  0  0  0  0
   12.4114   17.9614   13.2398 C   0  0  0  0  0  0  0  0  0  0  0  0
   13.5146   17.5591   12.8659 O   0  0  0  0  0  0  0  0  0  0  0  0
   12.1694   19.1104   13.8760 N   0  0  0  0  0  0  0  0  0  0  0  0
   11.2356   19.3519   14.0736 H   0  0  0  0  0  0  0  0  0  0  0  0
   10.8677   16.8748   11.6052 N   0  0  0  0  0  0  0  0  0  0  0  0
   11.1812   17.1114   13.0020 C   0  0  0  0  0  0  0  0  0  0  0  0
   10.7820   17.7679   11.1199 H   0  0  0  0  0  0  0  0  0  0  0  0
    9.9872   16.3644   11.5361 H   0  0  0  0  0  0  0  0  0  0  0  0
   11.3072   15.7509   13.7203 C   0  0  0  0  0  0  0  0  0  0  0  0
   10.0678   15.0903   14.2629 C   0  0  0  0  0  0  0  0  0  0  0  0
    8.9855   15.9213   14.9112 C   0  0  0  0  0  0  0  0  0  0  0  0
    9.2561   16.5744   16.1466 N   0  0  0  0  0  0  0  0  0  0  0  0
    8.8288   16.1431   16.9215 H   0  0  0  0  0  0  0  0  0  0  0  0
    9.9622   17.6380   16.4605 C   0  0  0  0  0  0  0  0  0  0  0  0
   11.1739   17.5366   16.9852 N   0  0  0  0  0  0  0  0  0  0  0  0
    9.3865   18.8216   16.2112 N   0  0  0  0  0  0  0  0  0  0  0  0
   11.5644   16.6488   17.1544 H   0  0  0  0  0  0  0  0  0  0  0  0
   11.6842   18.3490   17.2062 H   0  0  0  0  0  0  0  0  0  0  0  0
    8.4837   18.8573   15.8202 H   0  0  0  0  0  0  0  0  0  0  0  0
    9.8663   19.6558   16.4189 H   0  0  0  0  0  0  0  0  0  0  0  0
   13.4266   21.1817   13.3158 C   0  0  0  0  0  0  0  0  0  0  0  0
   12.5310   22.3428   13.7064 C   0  0  0  0  0  0  0  0  0  0  0  0
   14.8830   21.6469   13.2822 C   0  0  0  0  0  0  0  0  0  0  0  0
   14.5258   20.3479   18.6119 C   0  0  0  0  0  0  0  0  0  0  0  0
   13.7404   19.7028   19.7494 C   0  0  0  0  0  0  0  0  0  0  0  0
   13.6269   18.2008   19.5937 C   0  0  0  0  0  0  0  0  0  0  0  0
   14.3842   20.0020   21.0989 C   0  0  0  0  0  0  0  0  0  0  0  0
   17.0019   22.5250   19.3118 C   0  0  0  0  0  0  0  0  0  0  0  0
   18.1423   22.9473   20.2162 C   0  0  0  0  0  0  0  0  0  0  0  0
   19.3627   22.3097   20.1637 C   0  0  0  0  0  0  0  0  0  0  0  0
   18.0177   23.9801   21.1230 C   0  0  0  0  0  0  0  0  0  0  0  0
   20.4166   22.6709   20.9935 C   0  0  0  0  0  0  0  0  0  0  0  0
   19.0547   24.3569   21.9509 C   0  0  0  0  0  0  0  0  0  0  0  0
   20.2741   23.7170   21.8886 C   0  0  0  0  0  0  0  0  0  0  0  0
 46 47  1  0  0  0
 47 42  1  0  0  0
 47 50  1  0  0  0
 42 43  2  0  0  0
 50 51  1  0  0  0
 51 52  1  0  0  0
 52 53  1  0  0  0
 53 55  1  0  0  0
 55 56  1  0  0  0
 55 57  2  0  0  0
 44 41  1  0  0  0
 41 37  1  0  0  0
 41 62  1  0  0  0
 37 38  2  0  0  0
 62 63  1  0  0  0
 62 64  1  0  0  0
 39 36  1  0  0  0
 36 35  1  0  0  0
 36 65  1  0  0  0
 65 66  1  0  0  0
 66 67  1  0  0  0
 66 68  1  0  0  0
 33  1  1  0  0  0
  1  2  1  0  0  0
  1 69  1  0  0  0
  2  3  2  0  0  0
 69 70  1  0  0  0
 70 71  2  0  0  0
 70 72  1  0  0  0
 71 73  1  0  0  0
 72 74  2  0  0  0
 73 75  2  0  0  0
 74 75  1  0  0  0
  4  6  1  0  0  0
  6  7  1  0  0  0
  6 27  1  0  0  0
  7  8  2  0  0  0
 27 28  1  0  0  0
 28 29  1  0  0  0
 29 30  2  0  0  0
 29 31  1  0  0  0
  9 11  1  0  0  0
 11 13  1  0  0  0
 11 12  1  0  0  0
 13 14  2  0  0  0
 15 17  1  0  0  0
 17 18  1  0  0  0
 17 23  1  0  0  0
 18 19  2  0  0  0
 23 24  1  0  0  0
 24 25  1  0  0  0
 25 26  1  0  0  0
 42 44  1  0  0  0
 37 39  1  0  0  0
 35 33  1  0  0  0
  2  4  1  0  0  0
  7  9  1  0  0  0
 13 15  1  0  0  0
 18 20  1  0  0  0
 46 48  1  0  0  0
 46 49  1  0  0  0
 53 54  1  0  0  0
 56 58  1  0  0  0
 56 59  1  0  0  0
 57 60  1  0  0  0
 57 61  1  0  0  0
 44 45  1  0  0  0
 39 40  1  0  0  0
 33 34  1  0  0  0
  4  5  1  0  0  0
 31 32  1  0  0  0
  9 10  1  0  0  0
 15 16  1  0  0  0
 20 21  1  0  0  0
 20 22  1  0  0  0
M  CHG 1  57   1
M  END
> <minimizedAffinity>
-8.56555

$$$$
2AOE_0Q4_B_301


 75 75  0  0  0  0  0  0  0  0999 V2000
   16.6095   22.6206   17.8029 C   0  0  0  0  0  0  0  0  0  0  0  0
   17.7302   23.2413   16.9929 C   0  0  0  0  0  0  0  0  0  0  0  0
   18.3549   22.5325   16.1966 O   0  0  0  0  0  0  0  0  0  0  0  0
   18.0194   24.5127   17.1793 N   0  0  0  0  0  0  0  0  0  0  0  0
   17.4640   25.0521   17.7874 H   0  0  0  0  0  0  0  0  0  0  0  0
   19.1500   25.1337   16.4983 C   0  0  0  0  0  0  0  0  0  0  0  0
   20.0058   25.8655   17.5262 C   0  0  0  0  0  0  0  0  0  0  0  0
   20.0889   27.0939   17.4994 O   0  0  0  0  0  0  0  0  0  0  0  0
   20.7200   25.0886   18.3516 N   0  0  0  0  0  0  0  0  0  0  0  0
   20.5786   24.1145   18.3738 H   0  0  0  0  0  0  0  0  0  0  0  0
   21.7131   25.7186   19.2176 C   0  0  0  0  0  0  0  0  0  0  0  0
   21.0520   26.4908   20.3348 C   0  0  0  0  0  0  0  0  0  0  0  0
   22.6748   24.6995   19.8366 C   0  0  0  0  0  0  0  0  0  0  0  0
   22.7941   23.5634   19.3733 O   0  0  0  0  0  0  0  0  0  0  0  0
   23.3106   25.1917   20.8666 N   0  0  0  0  0  0  0  0  0  0  0  0
   23.3163   26.1762   20.8702 H   0  0  0  0  0  0  0  0  0  0  0  0
   24.0037   24.6339   21.9958 C   0  0  0  0  0  0  0  0  0  0  0  0
   23.7967   25.3459   23.3141 C   0  0  0  0  0  0  0  0  0  0  0  0
   23.0324   26.3254   23.3464 O   0  0  0  0  0  0  0  0  0  0  0  0
   24.5120   24.7603   24.4379 N   0  0  0  0  0  0  0  0  0  0  0  0
   25.0952   23.9796   24.2973 H   0  0  0  0  0  0  0  0  0  0  0  0
   24.4129   25.1447   25.3388 H   0  0  0  0  0  0  0  0  0  0  0  0
   25.5077   24.6403   21.6622 C   0  0  0  0  0  0  0  0  0  0  0  0
   26.0395   23.2951   21.2114 C   0  0  0  0  0  0  0  0  0  0  0  0
   26.3135   23.1874   19.7203 C   0  0  0  0  0  0  0  0  0  0  0  0
   25.9062   21.8222   19.1684 C   0  0  0  0  0  0  0  0  0  0  0  0
   18.6210   26.0772   15.4201 C   0  0  0  0  0  0  0  0  0  0  0  0
   19.5125   26.3595   14.2189 C   0  0  0  0  0  0  0  0  0  0  0  0
   20.3255   27.6295   14.3508 C   0  0  0  0  0  0  0  0  0  0  0  0
   21.4208   27.6667   13.7465 O   0  0  0  0  0  0  0  0  0  0  0  0
   19.8598   28.5923   14.9644 O   0  0  0  0  0  0  0  0  0  0  0  0
   19.0347   28.5146   15.4014 H   0  0  0  0  0  0  0  0  0  0  0  0
   15.7070   21.8634   16.9409 N   0  0  0  0  0  0  0  0  0  0  0  0
   16.2232   21.6967   16.0770 H   0  0  0  0  0  0  0  0  0  0  0  0
   15.1661   20.6739   17.2809 C   0  0  0  0  0  0  0  0  0  0  0  0
   13.6480   20.7531   17.4801 C   0  0  0  0  0  0  0  0  0  0  0  0
   12.7116   20.5003   15.2524 C   0  0  0  0  0  0  0  0  0  0  0  0
   13.0717   21.5876   14.8564 O   0  0  0  0  0  0  0  0  0  0  0  0
   12.9497   19.9971   16.4606 N   0  0  0  0  0  0  0  0  0  0  0  0
   12.6427   19.0849   16.6677 H   0  0  0  0  0  0  0  0  0  0  0  0
   11.8839   19.5766   14.3591 C   0  0  0  0  0  0  0  0  0  0  0  0
   10.7145   17.5664   15.1233 C   0  0  0  0  0  0  0  0  0  0  0  0
   11.1924   16.8067   14.2787 O   0  0  0  0  0  0  0  0  0  0  0  0
   10.9461   18.8781   15.2195 N   0  0  0  0  0  0  0  0  0  0  0  0
   10.4601   19.3935   15.9032 H   0  0  0  0  0  0  0  0  0  0  0  0
    8.6226   16.3204   15.6777 N   0  0  0  0  0  0  0  0  0  0  0  0
    9.7875   17.0190   16.1879 C   0  0  0  0  0  0  0  0  0  0  0  0
    8.1113   16.9318   15.0411 H   0  0  0  0  0  0  0  0  0  0  0  0
    8.0173   16.0561   16.4549 H   0  0  0  0  0  0  0  0  0  0  0  0
   10.5487   16.0803   17.1482 C   0  0  0  0  0  0  0  0  0  0  0  0
    9.7773   15.3132   18.1891 C   0  0  0  0  0  0  0  0  0  0  0  0
    9.5450   13.8298   18.0227 C   0  0  0  0  0  0  0  0  0  0  0  0
    9.1019   13.3318   16.7650 N   0  0  0  0  0  0  0  0  0  0  0  0
    8.1284   13.4010   16.6353 H   0  0  0  0  0  0  0  0  0  0  0  0
    9.7316   12.7981   15.7419 C   0  0  0  0  0  0  0  0  0  0  0  0
   10.2122   11.5649   15.7892 N   0  0  0  0  0  0  0  0  0  0  0  0
    9.8489   13.5711   14.6542 N   0  0  0  0  0  0  0  0  0  0  0  0
   10.1067   11.0265   16.6067 H   0  0  0  0  0  0  0  0  0  0  0  0
   10.6750   11.1866   15.0070 H   0  0  0  0  0  0  0  0  0  0  0  0
    9.4787   14.4833   14.6563 H   0  0  0  0  0  0  0  0  0  0  0  0
   10.3055   13.2270   13.8527 H   0  0  0  0  0  0  0  0  0  0  0  0
   11.1977   20.3660   13.2428 C   0  0  0  0  0  0  0  0  0  0  0  0
   11.1534   19.5340   11.9744 C   0  0  0  0  0  0  0  0  0  0  0  0
    9.7786   20.7829   13.6317 C   0  0  0  0  0  0  0  0  0  0  0  0
   13.1098   20.2528   18.8194 C   0  0  0  0  0  0  0  0  0  0  0  0
   14.0466   19.3774   19.6460 C   0  0  0  0  0  0  0  0  0  0  0  0
   14.4078   20.0108   20.9732 C   0  0  0  0  0  0  0  0  0  0  0  0
   13.4252   18.0111   19.9150 C   0  0  0  0  0  0  0  0  0  0  0  0
   17.1974   21.6940   18.8636 C   0  0  0  0  0  0  0  0  0  0  0  0
   18.0417   22.3854   19.9152 C   0  0  0  0  0  0  0  0  0  0  0  0
   19.2570   21.8651   20.3037 C   0  0  0  0  0  0  0  0  0  0  0  0
   17.6419   23.5568   20.5255 C   0  0  0  0  0  0  0  0  0  0  0  0
   20.0400   22.4745   21.2760 C   0  0  0  0  0  0  0  0  0  0  0  0
   18.4085   24.1795   21.4885 C   0  0  0  0  0  0  0  0  0  0  0  0
   19.6255   23.6549   21.8680 C   0  0  0  0  0  0  0  0  0  0  0  0
 46 47  1  0  0  0
 47 42  1  0  0  0
 47 50  1  0  0  0
 42 43  2  0  0  0
 50 51  1  0  0  0
 51 52  1  0  0  0
 52 53  1  0  0  0
 53 55  1  0  0  0
 55 56  1  0  0  0
 55 57  2  0  0  0
 44 41  1  0  0  0
 41 37  1  0  0  0
 41 62  1  0  0  0
 37 38  2  0  0  0
 62 63  1  0  0  0
 62 64  1  0  0  0
 39 36  1  0  0  0
 36 35  1  0  0  0
 36 65  1  0  0  0
 65 66  1  0  0  0
 66 67  1  0  0  0
 66 68  1  0  0  0
 33  1  1  0  0  0
  1  2  1  0  0  0
  1 69  1  0  0  0
  2  3  2  0  0  0
 69 70  1  0  0  0
 70 71  2  0  0  0
 70 72  1  0  0  0
 71 73  1  0  0  0
 72 74  2  0  0  0
 73 75  2  0  0  0
 74 75  1  0  0  0
  4  6  1  0  0  0
  6  7  1  0  0  0
  6 27  1  0  0  0
  7  8  2  0  0  0
 27 28  1  0  0  0
 28 29  1  0  0  0
 29 30  2  0  0  0
 29 31  1  0  0  0
  9 11  1  0  0  0
 11 13  1  0  0  0
 11 12  1  0  0  0
 13 14  2  0  0  0
 15 17  1  0  0  0
 17 18  1  0  0  0
 17 23  1  0  0  0
 18 19  2  0  0  0
 23 24  1  0  0  0
 24 25  1  0  0  0
 25 26  1  0  0  0
 42 44  1  0  0  0
 37 39  1  0  0  0
 35 33  1  0  0  0
  2  4  1  0  0  0
  7  9  1  0  0  0
 13 15  1  0  0  0
 18 20  1  0  0  0
 46 48  1  0  0  0
 46 49  1  0  0  0
 53 54  1  0  0  0
 56 58  1  0  0  0
 56 59  1  0  0  0
 57 60  1  0  0  0
 57 61  1  0  0  0
 44 45  1  0  0  0
 39 40  1  0  0  0
 33 34  1  0  0  0
  4  5  1  0  0  0
 31 32  1  0  0  0
  9 10  1  0  0  0
 15 16  1  0  0  0
 20 21  1  0  0  0
 20 22  1  0  0  0
M  CHG 1  57   1
M  END
> <minimizedAffinity>
-8.56531

$$$$
2AOE_0Q4_B_301


 75 75  0  0  0  0  0  0  0  0999 V2000
   14.9100   21.5022   17.0378 C   0  0  0  0  0  0  0  0  0  0  0  0
   16.1646   22.2161   16.5754 C   0  0  0  0  0  0  0  0  0  0  0  0
   16.6459   21.9257   15.4750 O   0  0  0  0  0  0  0  0  0  0  0  0
   16.7171   23.1085   17.3711 N   0  0  0  0  0  0  0  0  0  0  0  0
   16.2728   23.3444   18.2174 H   0  0  0  0  0  0  0  0  0  0  0  0
   17.9772   23.7525   17.0176 C   0  0  0  0  0  0  0  0  0  0  0  0
   18.7816   23.9977   18.2893 C   0  0  0  0  0  0  0  0  0  0  0  0
   18.2209   23.9950   19.3857 O   0  0  0  0  0  0  0  0  0  0  0  0
   20.0707   24.3174   18.1129 N   0  0  0  0  0  0  0  0  0  0  0  0
   20.4882   24.2520   17.2237 H   0  0  0  0  0  0  0  0  0  0  0  0
   20.8429   24.7651   19.2688 C   0  0  0  0  0  0  0  0  0  0  0  0
   21.8028   23.6947   19.7321 C   0  0  0  0  0  0  0  0  0  0  0  0
   21.6425   26.0384   18.9760 C   0  0  0  0  0  0  0  0  0  0  0  0
   21.1882   27.1561   19.2290 O   0  0  0  0  0  0  0  0  0  0  0  0
   22.8090   25.7721   18.4508 N   0  0  0  0  0  0  0  0  0  0  0  0
   23.0999   24.8485   18.6286 H   0  0  0  0  0  0  0  0  0  0  0  0
   23.7676   26.5105   17.6745 C   0  0  0  0  0  0  0  0  0  0  0  0
   23.2900   26.9931   16.3228 C   0  0  0  0  0  0  0  0  0  0  0  0
   23.6001   26.3363   15.3143 O   0  0  0  0  0  0  0  0  0  0  0  0
   22.4645   28.1907   16.3641 N   0  0  0  0  0  0  0  0  0  0  0  0
   22.2817   28.6332   17.2243 H   0  0  0  0  0  0  0  0  0  0  0  0
   22.0887   28.5585   15.5317 H   0  0  0  0  0  0  0  0  0  0  0  0
   24.9931   25.6001   17.4687 C   0  0  0  0  0  0  0  0  0  0  0  0
   24.9456   24.3193   18.2769 C   0  0  0  0  0  0  0  0  0  0  0  0
   26.1787   24.0577   19.1262 C   0  0  0  0  0  0  0  0  0  0  0  0
   26.2569   22.5990   19.5739 C   0  0  0  0  0  0  0  0  0  0  0  0
   17.6773   25.0515   16.2724 C   0  0  0  0  0  0  0  0  0  0  0  0
   18.4497   25.3339   14.9914 C   0  0  0  0  0  0  0  0  0  0  0  0
   19.7070   26.1488   15.2072 C   0  0  0  0  0  0  0  0  0  0  0  0
   19.7570   26.8503   16.2423 O   0  0  0  0  0  0  0  0  0  0  0  0
   20.6503   26.0367   14.4212 O   0  0  0  0  0  0  0  0  0  0  0  0
   20.5636   25.4987   13.6589 H   0  0  0  0  0  0  0  0  0  0  0  0
   13.9661   21.3495   15.9347 N   0  0  0  0  0  0  0  0  0  0  0  0
   14.5325   21.1474   15.1108 H   0  0  0  0  0  0  0  0  0  0  0  0
   12.9650   20.4437   15.9234 C   0  0  0  0  0  0  0  0  0  0  0  0
   12.3082   20.3093   14.5446 C   0  0  0  0  0  0  0  0  0  0  0  0
   12.3067   18.0795   13.5794 C   0  0  0  0  0  0  0  0  0  0  0  0
   13.3482   18.2190   12.9757 O   0  0  0  0  0  0  0  0  0  0  0  0
   11.7387   18.9893   14.3663 N   0  0  0  0  0  0  0  0  0  0  0  0
   10.9076   18.7590   14.8411 H   0  0  0  0  0  0  0  0  0  0  0  0
   11.4991   16.7875   13.4589 C   0  0  0  0  0  0  0  0  0  0  0  0
   10.4302   15.7152   15.3824 C   0  0  0  0  0  0  0  0  0  0  0  0
   11.0122   14.6346   15.2714 O   0  0  0  0  0  0  0  0  0  0  0  0
   10.5617   16.7647   14.5672 N   0  0  0  0  0  0  0  0  0  0  0  0
    9.9988   17.5570   14.7245 H   0  0  0  0  0  0  0  0  0  0  0  0
    8.0731   15.8631   16.1936 N   0  0  0  0  0  0  0  0  0  0  0  0
    9.4801   15.9418   16.5393 C   0  0  0  0  0  0  0  0  0  0  0  0
    7.8722   16.5154   15.4356 H   0  0  0  0  0  0  0  0  0  0  0  0
    7.5088   16.1045   17.0083 H   0  0  0  0  0  0  0  0  0  0  0  0
    9.7661   14.9494   17.6865 C   0  0  0  0  0  0  0  0  0  0  0  0
    8.6204   14.4455   18.5234 C   0  0  0  0  0  0  0  0  0  0  0  0
    8.1159   13.0323   18.3489 C   0  0  0  0  0  0  0  0  0  0  0  0
    8.7871   12.1606   17.4458 N   0  0  0  0  0  0  0  0  0  0  0  0
    9.2201   11.3944   17.8871 H   0  0  0  0  0  0  0  0  0  0  0  0
    8.9450   12.1733   16.1408 C   0  0  0  0  0  0  0  0  0  0  0  0
    8.0037   12.6360   15.3322 N   0  0  0  0  0  0  0  0  0  0  0  0
   10.1117   11.6994   15.6841 N   0  0  0  0  0  0  0  0  0  0  0  0
    7.1584   12.9765   15.7049 H   0  0  0  0  0  0  0  0  0  0  0  0
    8.1492   12.6396   14.3586 H   0  0  0  0  0  0  0  0  0  0  0  0
   10.7878   11.3635   16.3161 H   0  0  0  0  0  0  0  0  0  0  0  0
   10.2931   11.6869   14.7166 H   0  0  0  0  0  0  0  0  0  0  0  0
   10.8141   16.6960   12.0941 C   0  0  0  0  0  0  0  0  0  0  0  0
   10.7408   15.2469   11.6496 C   0  0  0  0  0  0  0  0  0  0  0  0
    9.4070   17.2944   12.1236 C   0  0  0  0  0  0  0  0  0  0  0  0
   11.1892   21.2986   14.2239 C   0  0  0  0  0  0  0  0  0  0  0  0
    9.7618   20.7728   14.3368 C   0  0  0  0  0  0  0  0  0  0  0  0
    9.1275   21.1058   15.6710 C   0  0  0  0  0  0  0  0  0  0  0  0
    8.8803   21.3369   13.2277 C   0  0  0  0  0  0  0  0  0  0  0  0
   15.2773   20.1268   17.5877 C   0  0  0  0  0  0  0  0  0  0  0  0
   14.7233   19.8236   18.9654 C   0  0  0  0  0  0  0  0  0  0  0  0
   13.8945   18.7428   19.1746 C   0  0  0  0  0  0  0  0  0  0  0  0
   15.0203   20.6028   20.0650 C   0  0  0  0  0  0  0  0  0  0  0  0
   13.3641   18.4552   20.4258 C   0  0  0  0  0  0  0  0  0  0  0  0
   14.5079   20.3295   21.3162 C   0  0  0  0  0  0  0  0  0  0  0  0
   13.6834   19.2433   21.5179 C   0  0  0  0  0  0  0  0  0  0  0  0
 46 47  1  0  0  0
 47 42  1  0  0  0
 47 50  1  0  0  0
 42 43  2  0  0  0
 50 51  1  0  0  0
 51 52  1  0  0  0
 52 53  1  0  0  0
 53 55  1  0  0  0
 55 56  1  0  0  0
 55 57  2  0  0  0
 44 41  1  0  0  0
 41 37  1  0  0  0
 41 62  1  0  0  0
 37 38  2  0  0  0
 62 63  1  0  0  0
 62 64  1  0  0  0
 39 36  1  0  0  0
 36 35  1  0  0  0
 36 65  1  0  0  0
 65 66  1  0  0  0
 66 67  1  0  0  0
 66 68  1  0  0  0
 33  1  1  0  0  0
  1  2  1  0  0  0
  1 69  1  0  0  0
  2  3  2  0  0  0
 69 70  1  0  0  0
 70 71  2  0  0  0
 70 72  1  0  0  0
 71 73  1  0  0  0
 72 74  2  0  0  0
 73 75  2  0  0  0
 74 75  1  0  0  0
  4  6  1  0  0  0
  6  7  1  0  0  0
  6 27  1  0  0  0
  7  8  2  0  0  0
 27 28  1  0  0  0
 28 29  1  0  0  0
 29 30  2  0  0  0
 29 31  1  0  0  0
  9 11  1  0  0  0
 11 13  1  0  0  0
 11 12  1  0  0  0
 13 14  2  0  0  0
 15 17  1  0  0  0
 17 18  1  0  0  0
 17 23  1  0  0  0
 18 19  2  0  0  0
 23 24  1  0  0  0
 24 25  1  0  0  0
 25 26  1  0  0  0
 42 44  1  0  0  0
 37 39  1  0  0  0
 35 33  1  0  0  0
  2  4  1  0  0  0
  7  9  1  0  0  0
 13 15  1  0  0  0
 18 20  1  0  0  0
 46 48  1  0  0  0
 46 49  1  0  0  0
 53 54  1  0  0  0
 56 58  1  0  0  0
 56 59  1  0  0  0
 57 60  1  0  0  0
 57 61  1  0  0  0
 44 45  1  0  0  0
 39 40  1  0  0  0
 33 34  1  0  0  0
  4  5  1  0  0  0
 31 32  1  0  0  0
  9 10  1  0  0  0
 15 16  1  0  0  0
 20 21  1  0  0  0
 20 22  1  0  0  0
M  CHG 1  57   1
M  END
> <minimizedAffinity>
-8.24788

$$$$
2AOE_0Q4_B_301


 75 75  0  0  0  0  0  0  0  0999 V2000
   16.9310   24.2717   15.9062 C   0  0  0  0  0  0  0  0  0  0  0  0
   17.2723   24.8501   17.2651 C   0  0  0  0  0  0  0  0  0  0  0  0
   16.5923   25.7833   17.7048 O   0  0  0  0  0  0  0  0  0  0  0  0
   18.2983   24.3551   17.9263 N   0  0  0  0  0  0  0  0  0  0  0  0
   18.7818   23.5792   17.5608 H   0  0  0  0  0  0  0  0  0  0  0  0
   18.7290   24.9388   19.1917 C   0  0  0  0  0  0  0  0  0  0  0  0
   20.2496   25.0507   19.1931 C   0  0  0  0  0  0  0  0  0  0  0  0
   20.8498   25.3311   18.1551 O   0  0  0  0  0  0  0  0  0  0  0  0
   20.8588   24.7192   20.3394 N   0  0  0  0  0  0  0  0  0  0  0  0
   20.3366   24.5563   21.1579 H   0  0  0  0  0  0  0  0  0  0  0  0
   22.3148   24.6047   20.3477 C   0  0  0  0  0  0  0  0  0  0  0  0
   22.7776   23.4609   19.4765 C   0  0  0  0  0  0  0  0  0  0  0  0
   23.0015   25.8872   19.8679 C   0  0  0  0  0  0  0  0  0  0  0  0
   22.6767   26.9932   20.3047 O   0  0  0  0  0  0  0  0  0  0  0  0
   23.9285   25.6415   18.9802 N   0  0  0  0  0  0  0  0  0  0  0  0
   24.2426   24.7090   19.0121 H   0  0  0  0  0  0  0  0  0  0  0  0
   24.5975   26.4127   17.9681 C   0  0  0  0  0  0  0  0  0  0  0  0
   23.7551   26.8076   16.7755 C   0  0  0  0  0  0  0  0  0  0  0  0
   24.0285   26.3170   15.6668 O   0  0  0  0  0  0  0  0  0  0  0  0
   22.6624   27.7188   17.0808 N   0  0  0  0  0  0  0  0  0  0  0  0
   22.5379   28.0476   18.0003 H   0  0  0  0  0  0  0  0  0  0  0  0
   22.0475   28.0065   16.3677 H   0  0  0  0  0  0  0  0  0  0  0  0
   25.7957   25.5810   17.4722 C   0  0  0  0  0  0  0  0  0  0  0  0
   25.8812   24.2017   18.0935 C   0  0  0  0  0  0  0  0  0  0  0  0
   27.0388   24.0105   19.0597 C   0  0  0  0  0  0  0  0  0  0  0  0
   28.3427   24.5744   18.4974 C   0  0  0  0  0  0  0  0  0  0  0  0
   18.2196   24.0672   20.3378 C   0  0  0  0  0  0  0  0  0  0  0  0
   17.3166   22.8912   19.9929 C   0  0  0  0  0  0  0  0  0  0  0  0
   18.0554   21.7125   19.3961 C   0  0  0  0  0  0  0  0  0  0  0  0
   19.1006   21.3450   19.9780 O   0  0  0  0  0  0  0  0  0  0  0  0
   17.5748   21.1155   18.4303 O   0  0  0  0  0  0  0  0  0  0  0  0
   16.7892   21.4306   18.0283 H   0  0  0  0  0  0  0  0  0  0  0  0
   15.5849   23.7070   15.9084 N   0  0  0  0  0  0  0  0  0  0  0  0
   15.5235   23.1327   15.0676 H   0  0  0  0  0  0  0  0  0  0  0  0
   15.0915   22.9468   16.9093 C   0  0  0  0  0  0  0  0  0  0  0  0
   14.3796   21.6892   16.3972 C   0  0  0  0  0  0  0  0  0  0  0  0
   13.9892   20.0485   18.1463 C   0  0  0  0  0  0  0  0  0  0  0  0
   15.0748   19.5191   18.0465 O   0  0  0  0  0  0  0  0  0  0  0  0
   13.5670   21.0919   17.4372 N   0  0  0  0  0  0  0  0  0  0  0  0
   12.6770   21.4688   17.6244 H   0  0  0  0  0  0  0  0  0  0  0  0
   12.9458   19.5159   19.1281 C   0  0  0  0  0  0  0  0  0  0  0  0
   10.9778   18.6044   17.9930 C   0  0  0  0  0  0  0  0  0  0  0  0
   10.2681   19.6013   18.1384 O   0  0  0  0  0  0  0  0  0  0  0  0
   12.2237   18.4547   18.4500 N   0  0  0  0  0  0  0  0  0  0  0  0
   12.6717   17.5874   18.3214 H   0  0  0  0  0  0  0  0  0  0  0  0
   10.8792   17.3558   15.8327 N   0  0  0  0  0  0  0  0  0  0  0  0
   10.4526   17.4143   17.2183 C   0  0  0  0  0  0  0  0  0  0  0  0
   10.6276   18.2252   15.3624 H   0  0  0  0  0  0  0  0  0  0  0  0
   10.4195   16.5726   15.3682 H   0  0  0  0  0  0  0  0  0  0  0  0
   10.8408   16.0922   17.9139 C   0  0  0  0  0  0  0  0  0  0  0  0
   10.0374   14.8507   17.6307 C   0  0  0  0  0  0  0  0  0  0  0  0
    8.5874   14.7725   18.0470 C   0  0  0  0  0  0  0  0  0  0  0  0
    8.2331   14.0068   19.1934 N   0  0  0  0  0  0  0  0  0  0  0  0
    8.9996   13.7831   19.7693 H   0  0  0  0  0  0  0  0  0  0  0  0
    7.0879   13.5385   19.6377 C   0  0  0  0  0  0  0  0  0  0  0  0
    6.4817   14.0696   20.6886 N   0  0  0  0  0  0  0  0  0  0  0  0
    6.5729   12.5034   18.9613 N   0  0  0  0  0  0  0  0  0  0  0  0
    6.8912   14.8304   21.1607 H   0  0  0  0  0  0  0  0  0  0  0  0
    5.6216   13.7036   20.9978 H   0  0  0  0  0  0  0  0  0  0  0  0
    7.0527   12.1352   18.1845 H   0  0  0  0  0  0  0  0  0  0  0  0
    5.7145   12.1107   19.2410 H   0  0  0  0  0  0  0  0  0  0  0  0
   13.6047   19.0544   20.4293 C   0  0  0  0  0  0  0  0  0  0  0  0
   14.2800   20.2300   21.1110 C   0  0  0  0  0  0  0  0  0  0  0  0
   12.5924   18.4208   21.3847 C   0  0  0  0  0  0  0  0  0  0  0  0
   13.4572   21.8713   15.1931 C   0  0  0  0  0  0  0  0  0  0  0  0
   13.7479   21.0011   13.9744 C   0  0  0  0  0  0  0  0  0  0  0  0
   12.5241   20.7955   13.1065 C   0  0  0  0  0  0  0  0  0  0  0  0
   14.8524   21.6096   13.1172 C   0  0  0  0  0  0  0  0  0  0  0  0
   17.0224   25.3664   14.8468 C   0  0  0  0  0  0  0  0  0  0  0  0
   18.4198   25.8985   14.6003 C   0  0  0  0  0  0  0  0  0  0  0  0
   18.6265   27.2171   14.2580 C   0  0  0  0  0  0  0  0  0  0  0  0
   19.5401   25.1000   14.7084 C   0  0  0  0  0  0  0  0  0  0  0  0
   19.8974   27.7220   14.0135 C   0  0  0  0  0  0  0  0  0  0  0  0
   20.8103   25.5849   14.4752 C   0  0  0  0  0  0  0  0  0  0  0  0
   21.0089   26.9067   14.1380 C   0  0  0  0  0  0  0  0  0  0  0  0
 46 47  1  0  0  0
 47 42  1  0  0  0
 47 50  1  0  0  0
 42 43  2  0  0  0
 50 51  1  0  0  0
 51 52  1  0  0  0
 52 53  1  0  0  0
 53 55  1  0  0  0
 55 56  1  0  0  0
 55 57  2  0  0  0
 44 41  1  0  0  0
 41 37  1  0  0  0
 41 62  1  0  0  0
 37 38  2  0  0  0
 62 63  1  0  0  0
 62 64  1  0  0  0
 39 36  1  0  0  0
 36 35  1  0  0  0
 36 65  1  0  0  0
 65 66  1  0  0  0
 66 67  1  0  0  0
 66 68  1  0  0  0
 33  1  1  0  0  0
  1  2  1  0  0  0
  1 69  1  0  0  0
  2  3  2  0  0  0
 69 70  1  0  0  0
 70 71  2  0  0  0
 70 72  1  0  0  0
 71 73  1  0  0  0
 72 74  2  0  0  0
 73 75  2  0  0  0
 74 75  1  0  0  0
  4  6  1  0  0  0
  6  7  1  0  0  0
  6 27  1  0  0  0
  7  8  2  0  0  0
 27 28  1  0  0  0
 28 29  1  0  0  0
 29 30  2  0  0  0
 29 31  1  0  0  0
  9 11  1  0  0  0
 11 13  1  0  0  0
 11 12  1  0  0  0
 13 14  2  0  0  0
 15 17  1  0  0  0
 17 18  1  0  0  0
 17 23  1  0  0  0
 18 19  2  0  0  0
 23 24  1  0  0  0
 24 25  1  0  0  0
 25 26  1  0  0  0
 42 44  1  0  0  0
 37 39  1  0  0  0
 35 33  1  0  0  0
  2  4  1  0  0  0
  7  9  1  0  0  0
 13 15  1  0  0  0
 18 20  1  0  0  0
 46 48  1  0  0  0
 46 49  1  0  0  0
 53 54  1  0  0  0
 56 58  1  0  0  0
 56 59  1  0  0  0
 57 60  1  0  0  0
 57 61  1  0  0  0
 44 45  1  0  0  0
 39 40  1  0  0  0
 33 34  1  0  0  0
  4  5  1  0  0  0
 31 32  1  0  0  0
  9 10  1  0  0  0
 15 16  1  0  0  0
 20 21  1  0  0  0
 20 22  1  0  0  0
M  CHG 1  57   1
M  END
> <minimizedAffinity>
-8.20112

$$$$
2AOE_0Q4_B_301


 75 75  0  0  0  0  0  0  0  0999 V2000
   17.2135   24.3132   15.6383 C   0  0  0  0  0  0  0  0  0  0  0  0
   17.6450   24.5596   17.0704 C   0  0  0  0  0  0  0  0  0  0  0  0
   16.9715   25.3192   17.7747 O   0  0  0  0  0  0  0  0  0  0  0  0
   18.7383   23.9741   17.5137 N   0  0  0  0  0  0  0  0  0  0  0  0
   19.2168   23.3383   16.9341 H   0  0  0  0  0  0  0  0  0  0  0  0
   19.2510   24.2534   18.8504 C   0  0  0  0  0  0  0  0  0  0  0  0
   20.4877   25.1371   18.7316 C   0  0  0  0  0  0  0  0  0  0  0  0
   20.5448   26.0069   17.8618 O   0  0  0  0  0  0  0  0  0  0  0  0
   21.5088   24.8251   19.5410 N   0  0  0  0  0  0  0  0  0  0  0  0
   21.3974   24.1596   20.2579 H   0  0  0  0  0  0  0  0  0  0  0  0
   22.7907   25.4943   19.3364 C   0  0  0  0  0  0  0  0  0  0  0  0
   23.3055   26.0938   20.6238 C   0  0  0  0  0  0  0  0  0  0  0  0
   23.8593   24.5467   18.7825 C   0  0  0  0  0  0  0  0  0  0  0  0
   23.9705   23.3905   19.1955 O   0  0  0  0  0  0  0  0  0  0  0  0
   24.5877   25.1182   17.8605 N   0  0  0  0  0  0  0  0  0  0  0  0
   24.1439   25.9014   17.4618 H   0  0  0  0  0  0  0  0  0  0  0  0
   25.8848   24.8725   17.2914 C   0  0  0  0  0  0  0  0  0  0  0  0
   27.0602   25.0545   18.2259 C   0  0  0  0  0  0  0  0  0  0  0  0
   27.8255   26.0153   18.0373 O   0  0  0  0  0  0  0  0  0  0  0  0
   27.1413   24.0715   19.2958 N   0  0  0  0  0  0  0  0  0  0  0  0
   26.4771   23.3468   19.3499 H   0  0  0  0  0  0  0  0  0  0  0  0
   27.8604   24.1312   19.9656 H   0  0  0  0  0  0  0  0  0  0  0  0
   26.0521   25.8296   16.0959 C   0  0  0  0  0  0  0  0  0  0  0  0
   24.8471   26.7140   15.8477 C   0  0  0  0  0  0  0  0  0  0  0  0
   25.1476   28.2036   15.8171 C   0  0  0  0  0  0  0  0  0  0  0  0
   25.7214   28.6914   17.1464 C   0  0  0  0  0  0  0  0  0  0  0  0
   19.5594   22.9305   19.5487 C   0  0  0  0  0  0  0  0  0  0  0  0
   18.4351   22.2501   20.3169 C   0  0  0  0  0  0  0  0  0  0  0  0
   17.2523   21.8692   19.4524 C   0  0  0  0  0  0  0  0  0  0  0  0
   16.1479   22.3791   19.7463 O   0  0  0  0  0  0  0  0  0  0  0  0
   17.4237   21.1532   18.4634 O   0  0  0  0  0  0  0  0  0  0  0  0
   18.2709   20.7944   18.2859 H   0  0  0  0  0  0  0  0  0  0  0  0
   15.8341   23.8382   15.5888 N   0  0  0  0  0  0  0  0  0  0  0  0
   15.7510   23.3176   14.7157 H   0  0  0  0  0  0  0  0  0  0  0  0
   15.2749   23.0566   16.5373 C   0  0  0  0  0  0  0  0  0  0  0  0
   14.1019   22.2280   16.0007 C   0  0  0  0  0  0  0  0  0  0  0  0
   13.9926   20.4430   17.6456 C   0  0  0  0  0  0  0  0  0  0  0  0
   15.0863   19.9884   17.3892 O   0  0  0  0  0  0  0  0  0  0  0  0
   13.4413   21.5084   17.0705 N   0  0  0  0  0  0  0  0  0  0  0  0
   12.5593   21.8165   17.3807 H   0  0  0  0  0  0  0  0  0  0  0  0
   13.0932   19.7782   18.6874 C   0  0  0  0  0  0  0  0  0  0  0  0
   11.0268   19.0563   17.5915 C   0  0  0  0  0  0  0  0  0  0  0  0
   10.3905   20.0872   17.8176 O   0  0  0  0  0  0  0  0  0  0  0  0
   12.2769   18.8031   17.9872 N   0  0  0  0  0  0  0  0  0  0  0  0
   12.6614   17.9173   17.7957 H   0  0  0  0  0  0  0  0  0  0  0  0
   10.8981   17.8214   15.4249 N   0  0  0  0  0  0  0  0  0  0  0  0
   10.3945   17.9454   16.7800 C   0  0  0  0  0  0  0  0  0  0  0  0
   10.7993   18.7146   14.9424 H   0  0  0  0  0  0  0  0  0  0  0  0
   10.3663   17.1063   14.9287 H   0  0  0  0  0  0  0  0  0  0  0  0
   10.5515   16.5863   17.4947 C   0  0  0  0  0  0  0  0  0  0  0  0
    9.6159   15.4601   17.1434 C   0  0  0  0  0  0  0  0  0  0  0  0
    9.9841   14.4775   16.0566 C   0  0  0  0  0  0  0  0  0  0  0  0
    9.6293   14.7659   14.7087 N   0  0  0  0  0  0  0  0  0  0  0  0
    8.6930   15.0504   14.6006 H   0  0  0  0  0  0  0  0  0  0  0  0
   10.3008   14.7287   13.5791 C   0  0  0  0  0  0  0  0  0  0  0  0
    9.8688   14.0342   12.5374 N   0  0  0  0  0  0  0  0  0  0  0  0
   11.4368   15.4378   13.5457 N   0  0  0  0  0  0  0  0  0  0  0  0
    9.0286   13.5248   12.5996 H   0  0  0  0  0  0  0  0  0  0  0  0
   10.3879   14.0274   11.7009 H   0  0  0  0  0  0  0  0  0  0  0  0
   11.7259   15.9418   14.3404 H   0  0  0  0  0  0  0  0  0  0  0  0
   11.9825   15.4549   12.7265 H   0  0  0  0  0  0  0  0  0  0  0  0
   13.9243   19.1634   19.8150 C   0  0  0  0  0  0  0  0  0  0  0  0
   14.0700   20.1592   20.9508 C   0  0  0  0  0  0  0  0  0  0  0  0
   13.2977   17.8722   20.3432 C   0  0  0  0  0  0  0  0  0  0  0  0
   13.0037   22.9968   15.2682 C   0  0  0  0  0  0  0  0  0  0  0  0
   12.5233   22.4053   13.9467 C   0  0  0  0  0  0  0  0  0  0  0  0
   13.6005   21.6028   13.2476 C   0  0  0  0  0  0  0  0  0  0  0  0
   11.3100   21.5060   14.1575 C   0  0  0  0  0  0  0  0  0  0  0  0
   17.3359   25.6065   14.8375 C   0  0  0  0  0  0  0  0  0  0  0  0
   18.7526   26.1155   14.6631 C   0  0  0  0  0  0  0  0  0  0  0  0
   19.8075   25.2411   14.5172 C   0  0  0  0  0  0  0  0  0  0  0  0
   19.0521   27.4624   14.6389 C   0  0  0  0  0  0  0  0  0  0  0  0
   21.1154   25.6858   14.3708 C   0  0  0  0  0  0  0  0  0  0  0  0
   20.3437   27.9229   14.4886 C   0  0  0  0  0  0  0  0  0  0  0  0
   21.3928   27.0415   14.3382 C   0  0  0  0  0  0  0  0  0  0  0  0
 46 47  1  0  0  0
 47 42  1  0  0  0
 47 50  1  0  0  0
 42 43  2  0  0  0
 50 51  1  0  0  0
 51 52  1  0  0  0
 52 53  1  0  0  0
 53 55  1  0  0  0
 55 56  1  0  0  0
 55 57  2  0  0  0
 44 41  1  0  0  0
 41 37  1  0  0  0
 41 62  1  0  0  0
 37 38  2  0  0  0
 62 63  1  0  0  0
 62 64  1  0  0  0
 39 36  1  0  0  0
 36 35  1  0  0  0
 36 65  1  0  0  0
 65 66  1  0  0  0
 66 67  1  0  0  0
 66 68  1  0  0  0
 33  1  1  0  0  0
  1  2  1  0  0  0
  1 69  1  0  0  0
  2  3  2  0  0  0
 69 70  1  0  0  0
 70 71  2  0  0  0
 70 72  1  0  0  0
 71 73  1  0  0  0
 72 74  2  0  0  0
 73 75  2  0  0  0
 74 75  1  0  0  0
  4  6  1  0  0  0
  6  7  1  0  0  0
  6 27  1  0  0  0
  7  8  2  0  0  0
 27 28  1  0  0  0
 28 29  1  0  0  0
 29 30  2  0  0  0
 29 31  1  0  0  0
  9 11  1  0  0  0
 11 13  1  0  0  0
 11 12  1  0  0  0
 13 14  2  0  0  0
 15 17  1  0  0  0
 17 18  1  0  0  0
 17 23  1  0  0  0
 18 19  2  0  0  0
 23 24  1  0  0  0
 24 25  1  0  0  0
 25 26  1  0  0  0
 42 44  1  0  0  0
 37 39  1  0  0  0
 35 33  1  0  0  0
  2  4  1  0  0  0
  7  9  1  0  0  0
 13 15  1  0  0  0
 18 20  1  0  0  0
 46 48  1  0  0  0
 46 49  1  0  0  0
 53 54  1  0  0  0
 56 58  1  0  0  0
 56 59  1  0  0  0
 57 60  1  0  0  0
 57 61  1  0  0  0
 44 45  1  0  0  0
 39 40  1  0  0  0
 33 34  1  0  0  0
  4  5  1  0  0  0
 31 32  1  0  0  0
  9 10  1  0  0  0
 15 16  1  0  0  0
 20 21  1  0  0  0
 20 22  1  0  0  0
M  CHG 1  57   1
M  END
> <minimizedAffinity>
-8.16300

$$$$
2AOE_0Q4_B_301


 75 75  0  0  0  0  0  0  0  0999 V2000
   16.9989   24.2232   15.9039 C   0  0  0  0  0  0  0  0  0  0  0  0
   17.3386   24.3839   17.3723 C   0  0  0  0  0  0  0  0  0  0  0  0
   16.5789   25.0403   18.0927 O   0  0  0  0  0  0  0  0  0  0  0  0
   18.4459   23.8379   17.8313 N   0  0  0  0  0  0  0  0  0  0  0  0
   18.9963   23.2822   17.2334 H   0  0  0  0  0  0  0  0  0  0  0  0
   18.8690   24.0441   19.2118 C   0  0  0  0  0  0  0  0  0  0  0  0
   19.8988   25.1677   19.2514 C   0  0  0  0  0  0  0  0  0  0  0  0
   20.5814   25.4160   18.2570 O   0  0  0  0  0  0  0  0  0  0  0  0
   20.0730   25.7592   20.4409 N   0  0  0  0  0  0  0  0  0  0  0  0
   19.4663   25.5670   21.1920 H   0  0  0  0  0  0  0  0  0  0  0  0
   21.1828   26.6954   20.5985 C   0  0  0  0  0  0  0  0  0  0  0  0
   20.7124   28.0065   21.1829 C   0  0  0  0  0  0  0  0  0  0  0  0
   22.2922   26.1363   21.4947 C   0  0  0  0  0  0  0  0  0  0  0  0
   22.3017   26.3406   22.7103 O   0  0  0  0  0  0  0  0  0  0  0  0
   23.1709   25.4504   20.8130 N   0  0  0  0  0  0  0  0  0  0  0  0
   22.8187   25.1432   19.9465 H   0  0  0  0  0  0  0  0  0  0  0  0
   24.5311   25.0389   21.0306 C   0  0  0  0  0  0  0  0  0  0  0  0
   25.1585   25.4956   22.3289 C   0  0  0  0  0  0  0  0  0  0  0  0
   25.7524   26.5872   22.3498 O   0  0  0  0  0  0  0  0  0  0  0  0
   24.9564   24.5909   23.4507 N   0  0  0  0  0  0  0  0  0  0  0  0
   24.4677   23.7463   23.3200 H   0  0  0  0  0  0  0  0  0  0  0  0
   25.3084   24.8234   24.3402 H   0  0  0  0  0  0  0  0  0  0  0  0
   25.3701   25.5831   19.8588 C   0  0  0  0  0  0  0  0  0  0  0  0
   25.8281   24.5147   18.8870 C   0  0  0  0  0  0  0  0  0  0  0  0
   26.7432   23.4599   19.4871 C   0  0  0  0  0  0  0  0  0  0  0  0
   26.1487   22.0582   19.3604 C   0  0  0  0  0  0  0  0  0  0  0  0
   19.4325   22.7337   19.7578 C   0  0  0  0  0  0  0  0  0  0  0  0
   18.4497   21.7055   20.3004 C   0  0  0  0  0  0  0  0  0  0  0  0
   17.1979   21.5600   19.4618 C   0  0  0  0  0  0  0  0  0  0  0  0
   16.1489   22.0691   19.9163 O   0  0  0  0  0  0  0  0  0  0  0  0
   17.2652   21.0314   18.3500 O   0  0  0  0  0  0  0  0  0  0  0  0
   18.0747   20.6637   18.0542 H   0  0  0  0  0  0  0  0  0  0  0  0
   15.6560   23.6745   15.7413 N   0  0  0  0  0  0  0  0  0  0  0  0
   15.7195   23.0092   14.9707 H   0  0  0  0  0  0  0  0  0  0  0  0
   14.9818   23.0372   16.7223 C   0  0  0  0  0  0  0  0  0  0  0  0
   14.1238   21.8824   16.1925 C   0  0  0  0  0  0  0  0  0  0  0  0
   13.9377   20.1611   17.8973 C   0  0  0  0  0  0  0  0  0  0  0  0
   15.0259   19.6733   17.6820 O   0  0  0  0  0  0  0  0  0  0  0  0
   13.4237   21.2169   17.2721 N   0  0  0  0  0  0  0  0  0  0  0  0
   12.5424   21.5557   17.5511 H   0  0  0  0  0  0  0  0  0  0  0  0
   13.0007   19.5547   18.9416 C   0  0  0  0  0  0  0  0  0  0  0  0
   10.9691   18.8260   17.7868 C   0  0  0  0  0  0  0  0  0  0  0  0
   10.3565   19.8876   17.9150 O   0  0  0  0  0  0  0  0  0  0  0  0
   12.1889   18.5616   18.2618 N   0  0  0  0  0  0  0  0  0  0  0  0
   12.5532   17.6544   18.1460 H   0  0  0  0  0  0  0  0  0  0  0  0
   10.8482   17.5150   15.6649 N   0  0  0  0  0  0  0  0  0  0  0  0
   10.3421   17.6849   17.0141 C   0  0  0  0  0  0  0  0  0  0  0  0
   10.7470   18.3903   15.1510 H   0  0  0  0  0  0  0  0  0  0  0  0
   10.3197   16.7809   15.1935 H   0  0  0  0  0  0  0  0  0  0  0  0
   10.5028   16.3524   17.7765 C   0  0  0  0  0  0  0  0  0  0  0  0
    9.8840   15.1028   17.2085 C   0  0  0  0  0  0  0  0  0  0  0  0
    8.7957   14.3811   17.9679 C   0  0  0  0  0  0  0  0  0  0  0  0
    7.7546   15.1365   18.5775 N   0  0  0  0  0  0  0  0  0  0  0  0
    7.9484   16.1001   18.6330 H   0  0  0  0  0  0  0  0  0  0  0  0
    6.5862   14.8057   19.0812 C   0  0  0  0  0  0  0  0  0  0  0  0
    5.9282   13.7350   18.6632 N   0  0  0  0  0  0  0  0  0  0  0  0
    6.1102   15.6091   20.0416 N   0  0  0  0  0  0  0  0  0  0  0  0
    6.3101   13.1680   17.9548 H   0  0  0  0  0  0  0  0  0  0  0  0
    5.0572   13.5061   19.0610 H   0  0  0  0  0  0  0  0  0  0  0  0
    6.6281   16.3964   20.3262 H   0  0  0  0  0  0  0  0  0  0  0  0
    5.2424   15.4122   20.4627 H   0  0  0  0  0  0  0  0  0  0  0  0
   13.7920   18.9779   20.1169 C   0  0  0  0  0  0  0  0  0  0  0  0
   14.0286   20.0559   21.1585 C   0  0  0  0  0  0  0  0  0  0  0  0
   13.0699   17.7934   20.7608 C   0  0  0  0  0  0  0  0  0  0  0  0
   13.0590   22.2437   15.1584 C   0  0  0  0  0  0  0  0  0  0  0  0
   13.1642   21.5533   13.8022 C   0  0  0  0  0  0  0  0  0  0  0  0
   14.5963   21.4334   13.3248 C   0  0  0  0  0  0  0  0  0  0  0  0
   12.5510   20.1579   13.8483 C   0  0  0  0  0  0  0  0  0  0  0  0
   17.0828   25.5790   15.2081 C   0  0  0  0  0  0  0  0  0  0  0  0
   18.4824   26.0070   14.8149 C   0  0  0  0  0  0  0  0  0  0  0  0
   19.5408   25.1281   14.8920 C   0  0  0  0  0  0  0  0  0  0  0  0
   18.7619   27.2806   14.3630 C   0  0  0  0  0  0  0  0  0  0  0  0
   20.8339   25.5038   14.5505 C   0  0  0  0  0  0  0  0  0  0  0  0
   20.0383   27.6701   14.0137 C   0  0  0  0  0  0  0  0  0  0  0  0
   21.0909   26.7831   14.0891 C   0  0  0  0  0  0  0  0  0  0  0  0
 46 47  1  0  0  0
 47 42  1  0  0  0
 47 50  1  0  0  0
 42 43  2  0  0  0
 50 51  1  0  0  0
 51 52  1  0  0  0
 52 53  1  0  0  0
 53 55  1  0  0  0
 55 56  1  0  0  0
 55 57  2  0  0  0
 44 41  1  0  0  0
 41 37  1  0  0  0
 41 62  1  0  0  0
 37 38  2  0  0  0
 62 63  1  0  0  0
 62 64  1  0  0  0
 39 36  1  0  0  0
 36 35  1  0  0  0
 36 65  1  0  0  0
 65 66  1  0  0  0
 66 67  1  0  0  0
 66 68  1  0  0  0
 33  1  1  0  0  0
  1  2  1  0  0  0
  1 69  1  0  0  0
  2  3  2  0  0  0
 69 70  1  0  0  0
 70 71  2  0  0  0
 70 72  1  0  0  0
 71 73  1  0  0  0
 72 74  2  0  0  0
 73 75  2  0  0  0
 74 75  1  0  0  0
  4  6  1  0  0  0
  6  7  1  0  0  0
  6 27  1  0  0  0
  7  8  2  0  0  0
 27 28  1  0  0  0
 28 29  1  0  0  0
 29 30  2  0  0  0
 29 31  1  0  0  0
  9 11  1  0  0  0
 11 13  1  0  0  0
 11 12  1  0  0  0
 13 14  2  0  0  0
 15 17  1  0  0  0
 17 18  1  0  0  0
 17 23  1  0  0  0
 18 19  2  0  0  0
 23 24  1  0  0  0
 24 25  1  0  0  0
 25 26  1  0  0  0
 42 44  1  0  0  0
 37 39  1  0  0  0
 35 33  1  0  0  0
  2  4  1  0  0  0
  7  9  1  0  0  0
 13 15  1  0  0  0
 18 20  1  0  0  0
 46 48  1  0  0  0
 46 49  1  0  0  0
 53 54  1  0  0  0
 56 58  1  0  0  0
 56 59  1  0  0  0
 57 60  1  0  0  0
 57 61  1  0  0  0
 44 45  1  0  0  0
 39 40  1  0  0  0
 33 34  1  0  0  0
  4  5  1  0  0  0
 31 32  1  0  0  0
  9 10  1  0  0  0
 15 16  1  0  0  0
 20 21  1  0  0  0
 20 22  1  0  0  0
M  CHG 1  57   1
M  END
> <minimizedAffinity>
-8.10854

$$$$
2AOE_0Q4_B_301


 75 75  0  0  0  0  0  0  0  0999 V2000
   17.9785   23.7396   16.0456 C   0  0  0  0  0  0  0  0  0  0  0  0
   17.8976   24.3952   17.4100 C   0  0  0  0  0  0  0  0  0  0  0  0
   17.0897   25.3137   17.5843 O   0  0  0  0  0  0  0  0  0  0  0  0
   18.7075   23.9807   18.3624 N   0  0  0  0  0  0  0  0  0  0  0  0
   19.3007   23.2132   18.1944 H   0  0  0  0  0  0  0  0  0  0  0  0
   18.7388   24.6416   19.6623 C   0  0  0  0  0  0  0  0  0  0  0  0
   20.1652   24.6094   20.1998 C   0  0  0  0  0  0  0  0  0  0  0  0
   20.3712   24.6883   21.4113 O   0  0  0  0  0  0  0  0  0  0  0  0
   21.1372   24.6054   19.2778 N   0  0  0  0  0  0  0  0  0  0  0  0
   20.9254   24.4853   18.3239 H   0  0  0  0  0  0  0  0  0  0  0  0
   22.5180   24.7831   19.7191 C   0  0  0  0  0  0  0  0  0  0  0  0
   23.3659   23.5873   19.3549 C   0  0  0  0  0  0  0  0  0  0  0  0
   23.1638   26.0354   19.1181 C   0  0  0  0  0  0  0  0  0  0  0  0
   22.6229   27.1401   19.1985 O   0  0  0  0  0  0  0  0  0  0  0  0
   24.3068   25.7675   18.5443 N   0  0  0  0  0  0  0  0  0  0  0  0
   24.6998   24.9233   18.8640 H   0  0  0  0  0  0  0  0  0  0  0  0
   25.1255   26.4154   17.5560 C   0  0  0  0  0  0  0  0  0  0  0  0
   24.3843   27.0628   16.4074 C   0  0  0  0  0  0  0  0  0  0  0  0
   24.1452   26.3816   15.3957 O   0  0  0  0  0  0  0  0  0  0  0  0
   23.9916   28.4443   16.6416 N   0  0  0  0  0  0  0  0  0  0  0  0
   24.2360   28.8892   17.4852 H   0  0  0  0  0  0  0  0  0  0  0  0
   23.4815   28.9340   15.9566 H   0  0  0  0  0  0  0  0  0  0  0  0
   26.0873   25.3548   16.9874 C   0  0  0  0  0  0  0  0  0  0  0  0
   27.4286   25.9136   16.5580 C   0  0  0  0  0  0  0  0  0  0  0  0
   28.5824   25.5844   17.4910 C   0  0  0  0  0  0  0  0  0  0  0  0
   29.6240   26.7018   17.5173 C   0  0  0  0  0  0  0  0  0  0  0  0
   17.7595   23.9376   20.5993 C   0  0  0  0  0  0  0  0  0  0  0  0
   17.0776   22.6719   20.0988 C   0  0  0  0  0  0  0  0  0  0  0  0
   18.0385   21.6447   19.5393 C   0  0  0  0  0  0  0  0  0  0  0  0
   19.0490   21.3795   20.2283 O   0  0  0  0  0  0  0  0  0  0  0  0
   17.7627   21.0571   18.4911 O   0  0  0  0  0  0  0  0  0  0  0  0
   16.9936   21.2926   18.0104 H   0  0  0  0  0  0  0  0  0  0  0  0
   17.0672   22.6022   15.9642 N   0  0  0  0  0  0  0  0  0  0  0  0
   17.5426   21.8315   16.4336 H   0  0  0  0  0  0  0  0  0  0  0  0
   15.8094   22.6115   16.4551 C   0  0  0  0  0  0  0  0  0  0  0  0
   15.0022   21.3795   16.0293 C   0  0  0  0  0  0  0  0  0  0  0  0
   14.3859   20.0360   17.9577 C   0  0  0  0  0  0  0  0  0  0  0  0
   15.4462   19.4537   18.0310 O   0  0  0  0  0  0  0  0  0  0  0  0
   14.0782   20.9781   17.0703 N   0  0  0  0  0  0  0  0  0  0  0  0
   13.1974   21.4148   17.1224 H   0  0  0  0  0  0  0  0  0  0  0  0
   13.2403   19.6992   18.9118 C   0  0  0  0  0  0  0  0  0  0  0  0
   11.1881   18.8289   17.9001 C   0  0  0  0  0  0  0  0  0  0  0  0
   10.5114   19.8428   18.0814 O   0  0  0  0  0  0  0  0  0  0  0  0
   12.4551   18.6521   18.2836 N   0  0  0  0  0  0  0  0  0  0  0  0
   12.8745   17.7741   18.1339 H   0  0  0  0  0  0  0  0  0  0  0  0
    9.5733   16.9242   17.9037 N   0  0  0  0  0  0  0  0  0  0  0  0
   10.5907   17.6481   17.1646 C   0  0  0  0  0  0  0  0  0  0  0  0
    9.9525   16.6280   18.8031 H   0  0  0  0  0  0  0  0  0  0  0  0
    9.2840   16.1044   17.3701 H   0  0  0  0  0  0  0  0  0  0  0  0
   10.0005   18.0883   15.8079 C   0  0  0  0  0  0  0  0  0  0  0  0
   10.9308   18.5528   14.7191 C   0  0  0  0  0  0  0  0  0  0  0  0
   10.5747   18.3281   13.2683 C   0  0  0  0  0  0  0  0  0  0  0  0
   11.5438   17.7600   12.3941 N   0  0  0  0  0  0  0  0  0  0  0  0
   11.6468   18.2523   11.5477 H   0  0  0  0  0  0  0  0  0  0  0  0
   12.3289   16.7100   12.4900 C   0  0  0  0  0  0  0  0  0  0  0  0
   11.8389   15.4825   12.5752 N   0  0  0  0  0  0  0  0  0  0  0  0
   13.6455   16.9570   12.4885 N   0  0  0  0  0  0  0  0  0  0  0  0
   10.8648   15.3401   12.5733 H   0  0  0  0  0  0  0  0  0  0  0  0
   12.4489   14.7124   12.6404 H   0  0  0  0  0  0  0  0  0  0  0  0
   13.9725   17.8833   12.4236 H   0  0  0  0  0  0  0  0  0  0  0  0
   14.2861   16.2122   12.5522 H   0  0  0  0  0  0  0  0  0  0  0  0
   13.7745   19.3017   20.2891 C   0  0  0  0  0  0  0  0  0  0  0  0
   14.3547   20.5173   20.9881 C   0  0  0  0  0  0  0  0  0  0  0  0
   12.6845   18.6799   21.1631 C   0  0  0  0  0  0  0  0  0  0  0  0
   14.1695   21.5177   14.7560 C   0  0  0  0  0  0  0  0  0  0  0  0
   12.7942   22.1598   14.9077 C   0  0  0  0  0  0  0  0  0  0  0  0
   12.8728   23.6646   15.0584 C   0  0  0  0  0  0  0  0  0  0  0  0
   11.9044   21.8391   13.7116 C   0  0  0  0  0  0  0  0  0  0  0  0
   17.6197   24.7578   14.9669 C   0  0  0  0  0  0  0  0  0  0  0  0
   18.7352   25.7160   14.6000 C   0  0  0  0  0  0  0  0  0  0  0  0
   18.4578   26.9879   14.1483 C   0  0  0  0  0  0  0  0  0  0  0  0
   20.0666   25.3677   14.7019 C   0  0  0  0  0  0  0  0  0  0  0  0
   19.4642   27.8769   13.7928 C   0  0  0  0  0  0  0  0  0  0  0  0
   21.0798   26.2389   14.3593 C   0  0  0  0  0  0  0  0  0  0  0  0
   20.7938   27.5114   13.9129 C   0  0  0  0  0  0  0  0  0  0  0  0
 46 47  1  0  0  0
 47 42  1  0  0  0
 47 50  1  0  0  0
 42 43  2  0  0  0
 50 51  1  0  0  0
 51 52  1  0  0  0
 52 53  1  0  0  0
 53 55  1  0  0  0
 55 56  1  0  0  0
 55 57  2  0  0  0
 44 41  1  0  0  0
 41 37  1  0  0  0
 41 62  1  0  0  0
 37 38  2  0  0  0
 62 63  1  0  0  0
 62 64  1  0  0  0
 39 36  1  0  0  0
 36 35  1  0  0  0
 36 65  1  0  0  0
 65 66  1  0  0  0
 66 67  1  0  0  0
 66 68  1  0  0  0
 33  1  1  0  0  0
  1  2  1  0  0  0
  1 69  1  0  0  0
  2  3  2  0  0  0
 69 70  1  0  0  0
 70 71  2  0  0  0
 70 72  1  0  0  0
 71 73  1  0  0  0
 72 74  2  0  0  0
 73 75  2  0  0  0
 74 75  1  0  0  0
  4  6  1  0  0  0
  6  7  1  0  0  0
  6 27  1  0  0  0
  7  8  2  0  0  0
 27 28  1  0  0  0
 28 29  1  0  0  0
 29 30  2  0  0  0
 29 31  1  0  0  0
  9 11  1  0  0  0
 11 13  1  0  0  0
 11 12  1  0  0  0
 13 14  2  0  0  0
 15 17  1  0  0  0
 17 18  1  0  0  0
 17 23  1  0  0  0
 18 19  2  0  0  0
 23 24  1  0  0  0
 24 25  1  0  0  0
 25 26  1  0  0  0
 42 44  1  0  0  0
 37 39  1  0  0  0
 35 33  1  0  0  0
  2  4  1  0  0  0
  7  9  1  0  0  0
 13 15  1  0  0  0
 18 20  1  0  0  0
 46 48  1  0  0  0
 46 49  1  0  0  0
 53 54  1  0  0  0
 56 58  1  0  0  0
 56 59  1  0  0  0
 57 60  1  0  0  0
 57 61  1  0  0  0
 44 45  1  0  0  0
 39 40  1  0  0  0
 33 34  1  0  0  0
  4  5  1  0  0  0
 31 32  1  0  0  0
  9 10  1  0  0  0
 15 16  1  0  0  0
 20 21  1  0  0  0
 20 22  1  0  0  0
M  CHG 1  57   1
M  END
> <minimizedAffinity>
-8.04352

$$$$
