2AOE_0Q4_B_301
  RCSB PDB12061705013D
Coordinates from PDB:2AOE:B:301 Model:1 without hydrogens
 59 59  0  0  0  0            999 V2000
   23.5510   27.5770   17.1710   N 0  0  0  0  0  0  0  0  0  0  0  0
   22.6090   26.5720   17.6270   C 0  0  0  0  0  0  0  0  0  0  0  0
   21.1760   26.8060   17.1980   C 0  0  0  0  0  0  0  0  0  0  0  0
   20.6440   27.8970   17.4110   O 0  0  0  0  0  0  0  0  0  0  0  0
   22.7100   26.4570   19.1630   C 0  0  0  0  0  0  0  0  0  0  0  0
   22.8200   25.0930   19.7910   C 0  0  0  0  0  0  0  0  0  0  0  0
   23.7800   24.0720   19.2270   C 0  0  0  0  0  0  0  0  0  0  0  0
   24.9960   23.8050   19.9170   N 0  0  0  0  0  0  0  0  0  0  0  0
   26.2610   23.9280   19.5810   C 0  0  0  0  0  0  0  0  0  0  0  0
   26.6220   24.3990   18.3970   N 0  0  0  0  0  0  0  0  0  0  0  0
   27.1550   23.5570   20.5070   N 0  3  0  0  0  0  0  0  0  0  0  0
   20.5980   25.7510   16.6180   N 0  0  0  0  0  0  0  0  0  0  0  0
   19.2000   25.7360   16.2270   C 0  0  0  0  0  0  0  0  0  0  0  0
   18.5710   24.4920   16.8540   C 0  0  0  0  0  0  0  0  0  0  0  0
   18.7450   23.3960   16.3670   O 0  0  0  0  0  0  0  0  0  0  0  0
   19.0030   25.7430   14.7100   C 0  0  0  0  0  0  0  0  0  0  0  0
   17.5310   25.5780   14.3800   C 0  0  0  0  0  0  0  0  0  0  0  0
   19.5290   27.0310   14.0750   C 0  0  0  0  0  0  0  0  0  0  0  0
   17.8700   24.7490   17.9550   N 0  0  0  0  0  0  0  0  0  0  0  0
   17.2640   23.6930   18.7400   C 0  0  0  0  0  0  0  0  0  0  0  0
   15.7430   23.6690   18.5490   C 0  0  0  0  0  0  0  0  0  0  0  0
   17.7680   23.8870   20.1690   C 0  0  0  0  0  0  0  0  0  0  0  0
   19.2470   23.6050   20.4140   C 0  0  0  0  0  0  0  0  0  0  0  0
   19.6660   23.9140   21.8360   C 0  0  0  0  0  0  0  0  0  0  0  0
   19.5840   22.1480   20.1160   C 0  0  0  0  0  0  0  0  0  0  0  0
   15.3850   23.5820   17.2500   N 0  0  0  0  0  0  0  0  0  0  0  0
   14.1560   22.9440   16.7880   C 0  0  0  0  0  0  0  0  0  0  0  0
   14.0950   21.5010   17.2480   C 0  0  0  0  0  0  0  0  0  0  0  0
   15.1240   20.8180   17.2100   O 0  0  0  0  0  0  0  0  0  0  0  0
   14.0960   22.9980   15.2640   C 0  0  0  0  0  0  0  0  0  0  0  0
   13.2920   21.8870   14.6190   C 0  0  0  0  0  0  0  0  0  0  0  0
   11.9270   21.8080   14.7900   C 0  0  0  0  0  0  0  0  0  0  0  0
   13.8790   20.9140   13.8360   C 0  0  0  0  0  0  0  0  0  0  0  0
   11.1730   20.7900   14.2200   C 0  0  0  0  0  0  0  0  0  0  0  0
   13.1460   19.8990   13.2570   C 0  0  0  0  0  0  0  0  0  0  0  0
   11.7800   19.8300   13.4290   C 0  0  0  0  0  0  0  0  0  0  0  0
   12.9410   21.0120   17.6530   N 0  0  0  0  0  0  0  0  0  0  0  0
   12.8060   19.6050   18.0130   C 0  0  0  0  0  0  0  0  0  0  0  0
   11.3900   19.1440   17.6860   C 0  0  0  0  0  0  0  0  0  0  0  0
   10.4340   19.8940   17.8860   O 0  0  0  0  0  0  0  0  0  0  0  0
   13.1320   19.4400   19.4960   C 0  0  0  0  0  0  0  0  0  0  0  0
   13.1200   18.0330   20.0770   C 0  0  0  0  0  0  0  0  0  0  0  0
   11.7470   17.5670   20.5120   C 0  0  0  0  0  0  0  0  0  0  0  0
   10.8810   18.4510   20.6980   O 0  0  0  0  0  0  0  0  0  0  0  0
   11.5070   16.3600   20.5880   O 0  0  0  0  0  0  0  0  0  0  0  0
   11.2670   17.8700   17.2900   N 0  0  0  0  0  0  0  0  0  0  0  0
    9.9260   17.3060   17.1610   C 0  0  0  0  0  0  0  0  0  0  0  0
    9.9270   15.7770   17.2540   C 0  0  0  0  0  0  0  0  0  0  0  0
   10.9480   15.1200   17.0410   O 0  0  0  0  0  0  0  0  0  0  0  0
    9.2900   17.7040   15.8500   C 0  0  0  0  0  0  0  0  0  0  0  0
    8.7510   15.3070   17.5760   N 0  0  0  0  0  0  0  0  0  0  0  0
    8.0950   14.0340   17.4500   C 0  0  0  0  0  0  0  0  0  0  0  0
    8.8820   12.8360   17.9330   C 0  0  0  0  0  0  0  0  0  0  0  0
    8.4940   12.2430   18.9540   O 0  0  0  0  0  0  0  0  0  0  0  0
    7.7580   13.8350   15.9600   C 0  0  0  0  0  0  0  0  0  0  0  0
    6.2780   13.9310   15.6500   C 0  0  0  0  0  0  0  0  0  0  0  0
    5.5210   14.9580   16.4760   C 0  0  0  0  0  0  0  0  0  0  0  0
    4.2130   15.3710   15.8030   C 0  0  0  0  0  0  0  0  0  0  0  0
   10.0200   12.4820   17.0980   N 0  0  0  0  0  0  0  0  0  0  0  0
  1  2  1  0  0  0  0
  2  3  1  0  0  0  0
  2  5  1  0  0  0  0
  3  4  2  0  0  0  0
  5  6  1  0  0  0  0
  6  7  1  0  0  0  0
  7  8  1  0  0  0  0
  8  9  1  0  0  0  0
  9 10  1  0  0  0  0
  9 11  2  0  0  0  0
 12 13  1  0  0  0  0
 13 14  1  0  0  0  0
 13 16  1  0  0  0  0
 14 15  2  0  0  0  0
 16 17  1  0  0  0  0
 16 18  1  0  0  0  0
 19 20  1  0  0  0  0
 20 21  1  0  0  0  0
 20 22  1  0  0  0  0
 22 23  1  0  0  0  0
 23 24  1  0  0  0  0
 23 25  1  0  0  0  0
 26 27  1  0  0  0  0
 27 28  1  0  0  0  0
 27 30  1  0  0  0  0
 28 29  2  0  0  0  0
 30 31  1  0  0  0  0
 31 32  2  0  0  0  0
 31 33  1  0  0  0  0
 32 34  1  0  0  0  0
 33 35  2  0  0  0  0
 34 36  2  0  0  0  0
 35 36  1  0  0  0  0
 37 38  1  0  0  0  0
 38 39  1  0  0  0  0
 38 41  1  0  0  0  0
 39 40  2  0  0  0  0
 41 42  1  0  0  0  0
 42 43  1  0  0  0  0
 43 44  2  0  0  0  0
 43 45  1  0  0  0  0
 46 47  1  0  0  0  0
 47 48  1  0  0  0  0
 47 50  1  0  0  0  0
 48 49  2  0  0  0  0
 51 52  1  0  0  0  0
 52 53  1  0  0  0  0
 52 55  1  0  0  0  0
 53 54  2  0  0  0  0
 55 56  1  0  0  0  0
 56 57  1  0  0  0  0
 57 58  1  0  0  0  0
  3 12  1  0  0  0  0
 14 19  1  0  0  0  0
 21 26  1  0  0  0  0
 28 37  1  0  0  0  0
 39 46  1  0  0  0  0
 48 51  1  0  0  0  0
 53 59  1  0  0  0  0
M  CHG  1  11   1
A    1
N
A    2
CA
A    3
C
A    4
O
A    5
CB
A    6
CG
A    7
CD
A    8
NE
A    9
CZ
A   10
NH1
A   11
NH2
A   12
N1
A   13
CA1
A   14
C1
A   15
O1
A   16
CB1
A   17
CG1
A   18
CG2
A   19
N2
A   20
CA2
A   21
C2
A   22
CB2
A   23
CG3
A   24
CD1
A   25
CD2
A   26
N3
A   27
CA3
A   28
C3
A   29
O2
A   30
CB3
A   31
CG4
A   32
CD11
A   33
CD21
A   34
CE1
A   35
CE2
A   36
CZ1
A   37
N4
A   38
CA4
A   39
C4
A   40
O3
A   41
CB4
A   42
CG5
A   43
CD3
A   44
OE1
A   45
OE2
A   46
N5
A   47
CA5
A   48
C5
A   49
O4
A   50
CB5
A   51
N6
A   52
CA6
A   53
C6
A   54
O5
A   55
CB6
A   56
CG6
A   57
CD4
A   58
CE
A   59
N7
M  END
>  <InstanceId>
2AOE_0Q4_B_301

>  <ChemCompId>
0Q4

>  <PdbId>
2AOE

>  <ChainId>
B

>  <ResidueNumber>
301

>  <InsertionCode>


>  <Model>
1

>  <AltIds>


>  <MissingHeavyAtoms>
0

>  <ObservedFormula>
C40 N11 O8

>  <Name>
N-[(2R)-2-({N~5~-[amino(iminio)methyl]-L-ornithyl-L-valyl}amino)-4-methylpentyl]-L-phenylalanyl-L-alpha-glutamyl-L-alanyl-L-norleucinamide

>  <SystematicName>
[azanyl-[[(4S)-4-azanyl-5-[[(2S)-1-[[(2S)-1-[[(2S)-1-[[(2S)-1-[[(2S)-1-[[(2S)-1-azanyl-1-oxo-hexan-2-yl]amino]-1-oxo-propan-2-yl]amino]-5-hydroxy-1,5-dioxo-pentan-2-yl]amino]-1-oxo-3-phenyl-propan-2-yl]amino]-4-methyl-pentan-2-yl]amino]-3-methyl-1-oxo-butan-2-yl]amino]-5-oxo-pentyl]amino]methylidene]azanium

>  <Synonyms>
Inhibitor analogues of CA-p2

>  <Type>
peptide-like

>  <Formula>
C40 H70 N11 O8

>  <MolecularWeight>
833.053

>  <ModifiedDate>
2011-07-13

>  <Parent>


>  <OneLetterCode>


>  <SubcomponentList>
ARG VAL DC0 GLU ALA NLE NH2

>  <AmbiguousFlag>
N

>  <InChI>
InChI=1S/C40H69N11O8/c1-7-8-16-29(34(42)54)49-35(55)25(6)47-37(57)30(17-18-32(52)53)50-38(58)31(21-26-13-10-9-11-14-26)46-22-27(20-23(2)3)48-39(59)33(24(4)5)51-36(56)28(41)15-12-19-45-40(43)44/h9-11,13-14,23-25,27-31,33,46H,7-8,12,15-22,41H2,1-6H3,(H2,42,54)(H,47,57)(H,48,59)(H,49,55)(H,50,58)(H,51,56)(H,52,53)(H4,43,44,45)/p+1/t25-,27-,28-,29-,30-,31-,33-/m0/s1

>  <InChIKey>
SGWAZUZKMXHYMB-UQGDEETHSA-O

>  <SMILES>
CCCC[C@@H](C(=O)N)NC(=O)[C@H](C)NC(=O)[C@H](CCC(=O)O)NC(=O)[C@H](Cc1ccccc1)NC[C@H](CC(C)C)NC(=O)[C@H](C(C)C)NC(=O)[C@H](CCCNC(=[NH2+])N)N

$$$$
