3GC5_2MQ_A_400


 27 29  0  0  0  0  0  0  0  0999 V2000
   17.7681   17.0763   23.0755 C   0  0  0  0  0  0  0  0  0  0  0  0
   18.8656   17.4613   23.5121 O   0  0  0  0  0  0  0  0  0  0  0  0
   16.7531   16.7504   23.8536 N   0  0  0  0  0  0  0  0  0  0  0  0
   15.6190   16.2784   23.3559 C   0  0  0  0  0  0  0  0  0  0  0  0
   14.6233   16.0140   24.1742 N   0  0  0  0  0  0  0  0  0  0  0  0
   15.4604   16.0714   22.0849 N   0  0  0  0  0  0  0  0  0  0  0  0
   16.4153   16.3645   21.1310 C   0  0  0  0  0  0  0  0  0  0  0  0
   16.1493   16.3218   19.7530 C   0  0  0  0  0  0  0  0  0  0  0  0
   17.1469   16.7700   18.8810 C   0  0  0  0  0  0  0  0  0  0  0  0
   17.2135   16.8169   17.5305 N   0  0  0  0  0  0  0  0  0  0  0  0
   18.3502   17.3246   17.2056 C   0  0  0  0  0  0  0  0  0  0  0  0
   19.1230   17.5009   18.2530 N   0  0  0  0  0  0  0  0  0  0  0  0
   18.4153   17.1273   19.3313 C   0  0  0  0  0  0  0  0  0  0  0  0
   18.6690   17.2571   20.6952 C   0  0  0  0  0  0  0  0  0  0  0  0
   17.6266   16.9081   21.5744 C   0  0  0  0  0  0  0  0  0  0  0  0
   16.8406   16.8605   24.8280 H   0  0  0  0  0  0  0  0  0  0  0  0
   14.7275   16.1655   25.1414 H   0  0  0  0  0  0  0  0  0  0  0  0
   13.7740   15.6646   23.8194 H   0  0  0  0  0  0  0  0  0  0  0  0
   16.5147   16.5154   16.9059 H   0  0  0  0  0  0  0  0  0  0  0  0
   18.7959   17.5177   15.9771 N   0  0  0  0  0  0  0  0  0  0  0  0
   18.0042   17.8845   14.8280 C   0  0  0  0  0  0  0  0  0  0  0  0
   19.7624   17.3999   15.8315 H   0  0  0  0  0  0  0  0  0  0  0  0
   14.8265   15.8368   19.1083 C   0  0  0  0  0  0  0  0  0  0  0  0
   15.0643   14.4337   18.4144 C   0  0  0  0  0  0  0  0  0  0  0  0
   14.3667   13.4037   19.2074 N   0  0  0  0  0  0  0  0  0  0  0  0
   14.7345   13.4001   20.1588 H   0  0  0  0  0  0  0  0  0  0  0  0
   14.5154   12.4886   18.7819 H   0  0  0  0  0  0  0  0  0  0  0  0
  1  2  2  0  0  0
  1  3  1  0  0  0
  1 15  1  0  0  0
  3  4  1  0  0  0
  4  5  1  0  0  0
  4  6  2  0  0  0
  6  7  1  0  0  0
  7  8  2  0  0  0
  7 15  1  0  0  0
  8 23  1  0  0  0
  8  9  1  0  0  0
 23 24  1  0  0  0
 24 25  1  0  0  0
  9 10  1  0  0  0
  9 13  2  0  0  0
 10 11  1  0  0  0
 11 20  1  0  0  0
 11 12  2  0  0  0
 20 21  1  0  0  0
 12 13  1  0  0  0
 13 14  1  0  0  0
 14 15  2  0  0  0
  3 16  1  0  0  0
  5 17  1  0  0  0
  5 18  1  0  0  0
 25 26  1  0  0  0
 25 27  1  0  0  0
 10 19  1  0  0  0
 20 22  1  0  0  0
M  END
> <minimizedAffinity>
-9.74480

$$$$
3GC5_2MQ_A_400


 27 29  0  0  0  0  0  0  0  0999 V2000
   18.6847   17.1319   21.0041 C   0  0  0  0  0  0  0  0  0  0  0  0
   19.8772   17.4685   20.9138 O   0  0  0  0  0  0  0  0  0  0  0  0
   18.0906   16.8721   22.1536 N   0  0  0  0  0  0  0  0  0  0  0  0
   16.8355   16.4495   22.2078 C   0  0  0  0  0  0  0  0  0  0  0  0
   16.2785   16.2508   23.3830 N   0  0  0  0  0  0  0  0  0  0  0  0
   16.1387   16.2279   21.1360 N   0  0  0  0  0  0  0  0  0  0  0  0
   16.6019   16.4547   19.8547 C   0  0  0  0  0  0  0  0  0  0  0  0
   15.7684   16.4007   18.7260 C   0  0  0  0  0  0  0  0  0  0  0  0
   16.3112   16.7818   17.4945 C   0  0  0  0  0  0  0  0  0  0  0  0
   15.7931   16.8008   16.2448 N   0  0  0  0  0  0  0  0  0  0  0  0
   16.6986   17.2441   15.4454 C   0  0  0  0  0  0  0  0  0  0  0  0
   17.8524   17.3998   16.0536 N   0  0  0  0  0  0  0  0  0  0  0  0
   17.6627   17.0823   17.3444 C   0  0  0  0  0  0  0  0  0  0  0  0
   18.4822   17.2236   18.4623 C   0  0  0  0  0  0  0  0  0  0  0  0
   17.9060   16.9440   19.7158 C   0  0  0  0  0  0  0  0  0  0  0  0
   18.5922   16.9953   22.9918 H   0  0  0  0  0  0  0  0  0  0  0  0
   16.7937   16.4143   24.2059 H   0  0  0  0  0  0  0  0  0  0  0  0
   15.3465   15.9387   23.4396 H   0  0  0  0  0  0  0  0  0  0  0  0
   14.8829   16.5240   15.9915 H   0  0  0  0  0  0  0  0  0  0  0  0
   16.5805   17.3921   14.1381 N   0  0  0  0  0  0  0  0  0  0  0  0
   16.1633   16.3810   13.1972 C   0  0  0  0  0  0  0  0  0  0  0  0
   16.7984   18.2788   13.7698 H   0  0  0  0  0  0  0  0  0  0  0  0
   14.2796   15.9720   18.7288 C   0  0  0  0  0  0  0  0  0  0  0  0
   14.1683   14.4589   18.2763 C   0  0  0  0  0  0  0  0  0  0  0  0
   14.7660   13.6177   19.3306 N   0  0  0  0  0  0  0  0  0  0  0  0
   15.7424   13.8814   19.4632 H   0  0  0  0  0  0  0  0  0  0  0  0
   14.7131   12.6373   19.0542 H   0  0  0  0  0  0  0  0  0  0  0  0
  1  2  2  0  0  0
  1  3  1  0  0  0
  1 15  1  0  0  0
  3  4  1  0  0  0
  4  5  1  0  0  0
  4  6  2  0  0  0
  6  7  1  0  0  0
  7  8  2  0  0  0
  7 15  1  0  0  0
  8 23  1  0  0  0
  8  9  1  0  0  0
 23 24  1  0  0  0
 24 25  1  0  0  0
  9 10  1  0  0  0
  9 13  2  0  0  0
 10 11  1  0  0  0
 11 20  1  0  0  0
 11 12  2  0  0  0
 20 21  1  0  0  0
 12 13  1  0  0  0
 13 14  1  0  0  0
 14 15  2  0  0  0
  3 16  1  0  0  0
  5 17  1  0  0  0
  5 18  1  0  0  0
 25 26  1  0  0  0
 25 27  1  0  0  0
 10 19  1  0  0  0
 20 22  1  0  0  0
M  END
> <minimizedAffinity>
-8.60691

$$$$
3GC5_2MQ_A_400


 27 29  0  0  0  0  0  0  0  0999 V2000
   18.1664   17.8523   16.2961 C   0  0  0  0  0  0  0  0  0  0  0  0
   18.5183   18.2693   15.1800 O   0  0  0  0  0  0  0  0  0  0  0  0
   18.9421   17.8956   17.3630 N   0  0  0  0  0  0  0  0  0  0  0  0
   18.5596   17.3794   18.5223 C   0  0  0  0  0  0  0  0  0  0  0  0
   19.3537   17.4924   19.5651 N   0  0  0  0  0  0  0  0  0  0  0  0
   17.4237   16.7676   18.6601 N   0  0  0  0  0  0  0  0  0  0  0  0
   16.4899   16.6388   17.6506 C   0  0  0  0  0  0  0  0  0  0  0  0
   15.1916   16.1537   17.8754 C   0  0  0  0  0  0  0  0  0  0  0  0
   14.2856   16.1946   16.8104 C   0  0  0  0  0  0  0  0  0  0  0  0
   13.0044   15.7748   16.6963 N   0  0  0  0  0  0  0  0  0  0  0  0
   12.6019   16.0453   15.5046 C   0  0  0  0  0  0  0  0  0  0  0  0
   13.5771   16.5011   14.7519 N   0  0  0  0  0  0  0  0  0  0  0  0
   14.6705   16.5760   15.5276 C   0  0  0  0  0  0  0  0  0  0  0  0
   15.9257   17.1390   15.3060 C   0  0  0  0  0  0  0  0  0  0  0  0
   16.8024   17.1974   16.4057 C   0  0  0  0  0  0  0  0  0  0  0  0
   19.8270   18.3220   17.2961 H   0  0  0  0  0  0  0  0  0  0  0  0
   20.2190   17.9538   19.4772 H   0  0  0  0  0  0  0  0  0  0  0  0
   19.0827   17.1157   20.4333 H   0  0  0  0  0  0  0  0  0  0  0  0
   12.4734   15.3389   17.4014 H   0  0  0  0  0  0  0  0  0  0  0  0
   11.4108   15.7723   15.0028 N   0  0  0  0  0  0  0  0  0  0  0  0
   10.4258   16.7325   14.5674 C   0  0  0  0  0  0  0  0  0  0  0  0
   11.1719   14.8211   14.9176 H   0  0  0  0  0  0  0  0  0  0  0  0
   14.6632   15.5912   19.2188 C   0  0  0  0  0  0  0  0  0  0  0  0
   15.0373   14.0568   19.3288 C   0  0  0  0  0  0  0  0  0  0  0  0
   13.8508   13.2652   18.9519 N   0  0  0  0  0  0  0  0  0  0  0  0
   13.0781   13.4916   19.5781 H   0  0  0  0  0  0  0  0  0  0  0  0
   14.0679   12.2713   19.0253 H   0  0  0  0  0  0  0  0  0  0  0  0
  1  2  2  0  0  0
  1  3  1  0  0  0
  1 15  1  0  0  0
  3  4  1  0  0  0
  4  5  1  0  0  0
  4  6  2  0  0  0
  6  7  1  0  0  0
  7  8  2  0  0  0
  7 15  1  0  0  0
  8 23  1  0  0  0
  8  9  1  0  0  0
 23 24  1  0  0  0
 24 25  1  0  0  0
  9 10  1  0  0  0
  9 13  2  0  0  0
 10 11  1  0  0  0
 11 20  1  0  0  0
 11 12  2  0  0  0
 20 21  1  0  0  0
 12 13  1  0  0  0
 13 14  1  0  0  0
 14 15  2  0  0  0
  3 16  1  0  0  0
  5 17  1  0  0  0
  5 18  1  0  0  0
 25 26  1  0  0  0
 25 27  1  0  0  0
 10 19  1  0  0  0
 20 22  1  0  0  0
M  END
> <minimizedAffinity>
-7.97112

$$$$
3GC5_2MQ_A_400


 27 29  0  0  0  0  0  0  0  0999 V2000
   12.4156   14.6725   17.6771 C   0  0  0  0  0  0  0  0  0  0  0  0
   12.1890   13.9817   18.6846 O   0  0  0  0  0  0  0  0  0  0  0  0
   11.5435   14.8364   16.7003 N   0  0  0  0  0  0  0  0  0  0  0  0
   11.8440   15.5247   15.6081 C   0  0  0  0  0  0  0  0  0  0  0  0
   10.9206   15.6961   14.6868 N   0  0  0  0  0  0  0  0  0  0  0  0
   13.0216   16.0366   15.4213 N   0  0  0  0  0  0  0  0  0  0  0  0
   14.0477   15.9665   16.3432 C   0  0  0  0  0  0  0  0  0  0  0  0
   15.2401   16.6955   16.2079 C   0  0  0  0  0  0  0  0  0  0  0  0
   16.1530   16.6566   17.2670 C   0  0  0  0  0  0  0  0  0  0  0  0
   17.3807   17.2035   17.4233 N   0  0  0  0  0  0  0  0  0  0  0  0
   17.8153   16.8784   18.5899 C   0  0  0  0  0  0  0  0  0  0  0  0
   17.0153   16.0258   19.1884 N   0  0  0  0  0  0  0  0  0  0  0  0
   15.9688   15.8278   18.3707 C   0  0  0  0  0  0  0  0  0  0  0  0
   14.7575   15.1660   18.5615 C   0  0  0  0  0  0  0  0  0  0  0  0
   13.7938   15.2923   17.5433 C   0  0  0  0  0  0  0  0  0  0  0  0
   10.6474   14.4376   16.7849 H   0  0  0  0  0  0  0  0  0  0  0  0
   10.0221   15.3141   14.8133 H   0  0  0  0  0  0  0  0  0  0  0  0
   11.1282   16.2064   13.8708 H   0  0  0  0  0  0  0  0  0  0  0  0
   17.8577   17.7536   16.7608 H   0  0  0  0  0  0  0  0  0  0  0  0
   18.9864   17.2067   19.1054 N   0  0  0  0  0  0  0  0  0  0  0  0
   19.3635   17.1198   20.4954 C   0  0  0  0  0  0  0  0  0  0  0  0
   19.6683   17.5436   18.4803 H   0  0  0  0  0  0  0  0  0  0  0  0
   15.6276   17.5647   14.9853 C   0  0  0  0  0  0  0  0  0  0  0  0
   16.3509   16.6598   13.9061 C   0  0  0  0  0  0  0  0  0  0  0  0
   15.3155   15.9452   13.1356 N   0  0  0  0  0  0  0  0  0  0  0  0
   14.7564   15.3720   13.7675 H   0  0  0  0  0  0  0  0  0  0  0  0
   15.7614   15.3478   12.4394 H   0  0  0  0  0  0  0  0  0  0  0  0
  1  2  2  0  0  0
  1  3  1  0  0  0
  1 15  1  0  0  0
  3  4  1  0  0  0
  4  5  1  0  0  0
  4  6  2  0  0  0
  6  7  1  0  0  0
  7  8  2  0  0  0
  7 15  1  0  0  0
  8 23  1  0  0  0
  8  9  1  0  0  0
 23 24  1  0  0  0
 24 25  1  0  0  0
  9 10  1  0  0  0
  9 13  2  0  0  0
 10 11  1  0  0  0
 11 20  1  0  0  0
 11 12  2  0  0  0
 20 21  1  0  0  0
 12 13  1  0  0  0
 13 14  1  0  0  0
 14 15  2  0  0  0
  3 16  1  0  0  0
  5 17  1  0  0  0
  5 18  1  0  0  0
 25 26  1  0  0  0
 25 27  1  0  0  0
 10 19  1  0  0  0
 20 22  1  0  0  0
M  END
> <minimizedAffinity>
-7.96365

$$$$
3GC5_2MQ_A_400


 27 29  0  0  0  0  0  0  0  0999 V2000
   17.4791   17.5169   14.8453 C   0  0  0  0  0  0  0  0  0  0  0  0
   18.4966   18.1201   14.4654 O   0  0  0  0  0  0  0  0  0  0  0  0
   16.5212   17.1254   14.0263 N   0  0  0  0  0  0  0  0  0  0  0  0
   15.4173   16.5446   14.4746 C   0  0  0  0  0  0  0  0  0  0  0  0
   14.5160   16.1320   13.6096 N   0  0  0  0  0  0  0  0  0  0  0  0
   15.1999   16.3688   15.7416 N   0  0  0  0  0  0  0  0  0  0  0  0
   16.0985   16.7114   16.7329 C   0  0  0  0  0  0  0  0  0  0  0  0
   15.9307   16.3305   18.0739 C   0  0  0  0  0  0  0  0  0  0  0  0
   16.9689   16.6124   18.9678 C   0  0  0  0  0  0  0  0  0  0  0  0
   17.0931   16.4160   20.3007 N   0  0  0  0  0  0  0  0  0  0  0  0
   18.2518   16.8448   20.6597 C   0  0  0  0  0  0  0  0  0  0  0  0
   18.8749   17.4500   19.6744 N   0  0  0  0  0  0  0  0  0  0  0  0
   18.0827   17.3599   18.5939 C   0  0  0  0  0  0  0  0  0  0  0  0
   18.3060   17.6710   17.2542 C   0  0  0  0  0  0  0  0  0  0  0  0
   17.3092   17.2911   16.3358 C   0  0  0  0  0  0  0  0  0  0  0  0
   16.6292   17.2682   13.0582 H   0  0  0  0  0  0  0  0  0  0  0  0
   14.6658   16.2579   12.6447 H   0  0  0  0  0  0  0  0  0  0  0  0
   13.6917   15.6973   13.9271 H   0  0  0  0  0  0  0  0  0  0  0  0
   16.4156   16.0153   20.8921 H   0  0  0  0  0  0  0  0  0  0  0  0
   18.7380   16.8433   21.8880 N   0  0  0  0  0  0  0  0  0  0  0  0
   17.9733   16.8919   23.1105 C   0  0  0  0  0  0  0  0  0  0  0  0
   19.7177   16.8052   21.9780 H   0  0  0  0  0  0  0  0  0  0  0  0
   14.6930   15.5990   18.6514 C   0  0  0  0  0  0  0  0  0  0  0  0
   15.0824   14.1050   19.0018 C   0  0  0  0  0  0  0  0  0  0  0  0
   13.8452   13.3021   19.0345 N   0  0  0  0  0  0  0  0  0  0  0  0
   13.2119   13.6820   19.7381 H   0  0  0  0  0  0  0  0  0  0  0  0
   14.0730   12.3358   19.2685 H   0  0  0  0  0  0  0  0  0  0  0  0
  1  2  2  0  0  0
  1  3  1  0  0  0
  1 15  1  0  0  0
  3  4  1  0  0  0
  4  5  1  0  0  0
  4  6  2  0  0  0
  6  7  1  0  0  0
  7  8  2  0  0  0
  7 15  1  0  0  0
  8 23  1  0  0  0
  8  9  1  0  0  0
 23 24  1  0  0  0
 24 25  1  0  0  0
  9 10  1  0  0  0
  9 13  2  0  0  0
 10 11  1  0  0  0
 11 20  1  0  0  0
 11 12  2  0  0  0
 20 21  1  0  0  0
 12 13  1  0  0  0
 13 14  1  0  0  0
 14 15  2  0  0  0
  3 16  1  0  0  0
  5 17  1  0  0  0
  5 18  1  0  0  0
 25 26  1  0  0  0
 25 27  1  0  0  0
 10 19  1  0  0  0
 20 22  1  0  0  0
M  END
> <minimizedAffinity>
-7.95003

$$$$
3GC5_2MQ_A_400


 27 29  0  0  0  0  0  0  0  0999 V2000
   15.2761   16.0863   18.9602 C   0  0  0  0  0  0  0  0  0  0  0  0
   16.0810   16.2376   19.8944 O   0  0  0  0  0  0  0  0  0  0  0  0
   14.0793   15.5519   19.1148 N   0  0  0  0  0  0  0  0  0  0  0  0
   13.2726   15.3431   18.0841 C   0  0  0  0  0  0  0  0  0  0  0  0
   12.0721   14.8508   18.3019 N   0  0  0  0  0  0  0  0  0  0  0  0
   13.6308   15.6118   16.8663 N   0  0  0  0  0  0  0  0  0  0  0  0
   14.8425   16.1811   16.5269 C   0  0  0  0  0  0  0  0  0  0  0  0
   15.1262   16.6464   15.2329 C   0  0  0  0  0  0  0  0  0  0  0  0
   16.3307   17.3292   15.0338 C   0  0  0  0  0  0  0  0  0  0  0  0
   16.9009   17.8524   13.9241 N   0  0  0  0  0  0  0  0  0  0  0  0
   18.0193   18.3885   14.2665 C   0  0  0  0  0  0  0  0  0  0  0  0
   18.3140   18.1422   15.5226 N   0  0  0  0  0  0  0  0  0  0  0  0
   17.2903   17.4417   16.0367 C   0  0  0  0  0  0  0  0  0  0  0  0
   16.9919   17.0633   17.3441 C   0  0  0  0  0  0  0  0  0  0  0  0
   15.7336   16.4726   17.5663 C   0  0  0  0  0  0  0  0  0  0  0  0
   13.7782   15.3023   20.0183 H   0  0  0  0  0  0  0  0  0  0  0  0
   11.7850   14.6416   19.2201 H   0  0  0  0  0  0  0  0  0  0  0  0
   11.4608   14.6918   17.5467 H   0  0  0  0  0  0  0  0  0  0  0  0
   16.5259   17.8274   13.0141 H   0  0  0  0  0  0  0  0  0  0  0  0
   18.8771   18.9868   13.4595 N   0  0  0  0  0  0  0  0  0  0  0  0
   19.8628   18.3398   12.6279 C   0  0  0  0  0  0  0  0  0  0  0  0
   18.8403   19.9699   13.4219 H   0  0  0  0  0  0  0  0  0  0  0  0
   14.2033   16.4867   13.9987 C   0  0  0  0  0  0  0  0  0  0  0  0
   13.1977   17.7079   13.9339 C   0  0  0  0  0  0  0  0  0  0  0  0
   11.9965   17.3574   14.7153 N   0  0  0  0  0  0  0  0  0  0  0  0
   11.5682   16.5190   14.3227 H   0  0  0  0  0  0  0  0  0  0  0  0
   11.3300   18.1286   14.6786 H   0  0  0  0  0  0  0  0  0  0  0  0
  1  2  2  0  0  0
  1  3  1  0  0  0
  1 15  1  0  0  0
  3  4  1  0  0  0
  4  5  1  0  0  0
  4  6  2  0  0  0
  6  7  1  0  0  0
  7  8  2  0  0  0
  7 15  1  0  0  0
  8 23  1  0  0  0
  8  9  1  0  0  0
 23 24  1  0  0  0
 24 25  1  0  0  0
  9 10  1  0  0  0
  9 13  2  0  0  0
 10 11  1  0  0  0
 11 20  1  0  0  0
 11 12  2  0  0  0
 20 21  1  0  0  0
 12 13  1  0  0  0
 13 14  1  0  0  0
 14 15  2  0  0  0
  3 16  1  0  0  0
  5 17  1  0  0  0
  5 18  1  0  0  0
 25 26  1  0  0  0
 25 27  1  0  0  0
 10 19  1  0  0  0
 20 22  1  0  0  0
M  END
> <minimizedAffinity>
-7.75261

$$$$
3GC5_2MQ_A_400


 27 29  0  0  0  0  0  0  0  0999 V2000
   12.6145   15.1456   15.4954 C   0  0  0  0  0  0  0  0  0  0  0  0
   12.0703   15.1217   14.3788 O   0  0  0  0  0  0  0  0  0  0  0  0
   12.0952   14.5755   16.5665 N   0  0  0  0  0  0  0  0  0  0  0  0
   12.6692   14.6790   17.7567 C   0  0  0  0  0  0  0  0  0  0  0  0
   12.1332   14.0512   18.7812 N   0  0  0  0  0  0  0  0  0  0  0  0
   13.7456   15.3795   17.9413 N   0  0  0  0  0  0  0  0  0  0  0  0
   14.4229   16.0331   16.9305 C   0  0  0  0  0  0  0  0  0  0  0  0
   15.6879   16.6134   17.1167 C   0  0  0  0  0  0  0  0  0  0  0  0
   16.3421   17.1283   15.9927 C   0  0  0  0  0  0  0  0  0  0  0  0
   17.5233   17.7724   15.8497 N   0  0  0  0  0  0  0  0  0  0  0  0
   17.6824   18.0392   14.6011 C   0  0  0  0  0  0  0  0  0  0  0  0
   16.6146   17.7378   13.8980 N   0  0  0  0  0  0  0  0  0  0  0  0
   15.7265   17.1933   14.7453 C   0  0  0  0  0  0  0  0  0  0  0  0
   14.5115   16.5482   14.5238 C   0  0  0  0  0  0  0  0  0  0  0  0
   13.9025   15.9349   15.6348 C   0  0  0  0  0  0  0  0  0  0  0  0
   11.2607   14.0605   16.4792 H   0  0  0  0  0  0  0  0  0  0  0  0
   11.3165   13.5156   18.6578 H   0  0  0  0  0  0  0  0  0  0  0  0
   12.5490   14.1171   19.6711 H   0  0  0  0  0  0  0  0  0  0  0  0
   18.1509   17.9975   16.5740 H   0  0  0  0  0  0  0  0  0  0  0  0
   18.7060   18.6788   14.0643 N   0  0  0  0  0  0  0  0  0  0  0  0
   19.3940   18.3224   12.8473 C   0  0  0  0  0  0  0  0  0  0  0  0
   19.0311   19.4764   14.5412 H   0  0  0  0  0  0  0  0  0  0  0  0
   16.4391   16.7153   18.4680 C   0  0  0  0  0  0  0  0  0  0  0  0
   16.1544   15.4156   19.3260 C   0  0  0  0  0  0  0  0  0  0  0  0
   15.4508   15.8217   20.5575 N   0  0  0  0  0  0  0  0  0  0  0  0
   16.0318   16.4767   21.0808 H   0  0  0  0  0  0  0  0  0  0  0  0
   15.2658   14.9984   21.1306 H   0  0  0  0  0  0  0  0  0  0  0  0
  1  2  2  0  0  0
  1  3  1  0  0  0
  1 15  1  0  0  0
  3  4  1  0  0  0
  4  5  1  0  0  0
  4  6  2  0  0  0
  6  7  1  0  0  0
  7  8  2  0  0  0
  7 15  1  0  0  0
  8 23  1  0  0  0
  8  9  1  0  0  0
 23 24  1  0  0  0
 24 25  1  0  0  0
  9 10  1  0  0  0
  9 13  2  0  0  0
 10 11  1  0  0  0
 11 20  1  0  0  0
 11 12  2  0  0  0
 20 21  1  0  0  0
 12 13  1  0  0  0
 13 14  1  0  0  0
 14 15  2  0  0  0
  3 16  1  0  0  0
  5 17  1  0  0  0
  5 18  1  0  0  0
 25 26  1  0  0  0
 25 27  1  0  0  0
 10 19  1  0  0  0
 20 22  1  0  0  0
M  END
> <minimizedAffinity>
-7.32729

$$$$
3GC5_2MQ_A_400


 27 29  0  0  0  0  0  0  0  0999 V2000
   14.8412   16.9555   14.1108 C   0  0  0  0  0  0  0  0  0  0  0  0
   15.5153   17.4498   13.1917 O   0  0  0  0  0  0  0  0  0  0  0  0
   13.6097   16.5100   13.9469 N   0  0  0  0  0  0  0  0  0  0  0  0
   12.8950   16.0514   14.9646 C   0  0  0  0  0  0  0  0  0  0  0  0
   11.6897   15.5760   14.7359 N   0  0  0  0  0  0  0  0  0  0  0  0
   13.3496   16.0551   16.1798 N   0  0  0  0  0  0  0  0  0  0  0  0
   14.6177   16.4778   16.5273 C   0  0  0  0  0  0  0  0  0  0  0  0
   15.1567   16.2856   17.8095 C   0  0  0  0  0  0  0  0  0  0  0  0
   16.4976   16.6282   18.0124 C   0  0  0  0  0  0  0  0  0  0  0  0
   17.2808   16.6025   19.1153 N   0  0  0  0  0  0  0  0  0  0  0  0
   18.4530   17.0139   18.7806 C   0  0  0  0  0  0  0  0  0  0  0  0
   18.4814   17.4512   17.5423 N   0  0  0  0  0  0  0  0  0  0  0  0
   17.2549   17.2612   17.0299 C   0  0  0  0  0  0  0  0  0  0  0  0
   16.7658   17.3816   15.7308 C   0  0  0  0  0  0  0  0  0  0  0  0
   15.4505   16.9366   15.5000 C   0  0  0  0  0  0  0  0  0  0  0  0
   13.2121   16.5186   13.0463 H   0  0  0  0  0  0  0  0  0  0  0  0
   11.3302   15.5661   13.8195 H   0  0  0  0  0  0  0  0  0  0  0  0
   11.1474   15.2302   15.4813 H   0  0  0  0  0  0  0  0  0  0  0  0
   17.0025   16.3187   20.0161 H   0  0  0  0  0  0  0  0  0  0  0  0
   19.4919   17.1485   19.5854 N   0  0  0  0  0  0  0  0  0  0  0  0
   19.7653   16.3665   20.7667 C   0  0  0  0  0  0  0  0  0  0  0  0
   20.1429   17.8507   19.3569 H   0  0  0  0  0  0  0  0  0  0  0  0
   14.3949   15.7017   19.0257 C   0  0  0  0  0  0  0  0  0  0  0  0
   14.4102   14.1206   18.9448 C   0  0  0  0  0  0  0  0  0  0  0  0
   13.0818   13.6699   18.4882 N   0  0  0  0  0  0  0  0  0  0  0  0
   12.3701   13.9884   19.1458 H   0  0  0  0  0  0  0  0  0  0  0  0
   13.0670   12.6512   18.4382 H   0  0  0  0  0  0  0  0  0  0  0  0
  1  2  2  0  0  0
  1  3  1  0  0  0
  1 15  1  0  0  0
  3  4  1  0  0  0
  4  5  1  0  0  0
  4  6  2  0  0  0
  6  7  1  0  0  0
  7  8  2  0  0  0
  7 15  1  0  0  0
  8 23  1  0  0  0
  8  9  1  0  0  0
 23 24  1  0  0  0
 24 25  1  0  0  0
  9 10  1  0  0  0
  9 13  2  0  0  0
 10 11  1  0  0  0
 11 20  1  0  0  0
 11 12  2  0  0  0
 20 21  1  0  0  0
 12 13  1  0  0  0
 13 14  1  0  0  0
 14 15  2  0  0  0
  3 16  1  0  0  0
  5 17  1  0  0  0
  5 18  1  0  0  0
 25 26  1  0  0  0
 25 27  1  0  0  0
 10 19  1  0  0  0
 20 22  1  0  0  0
M  END
> <minimizedAffinity>
-7.29805

$$$$
3GC5_2MQ_A_400


 27 29  0  0  0  0  0  0  0  0999 V2000
   12.4097   14.7731   16.7054 C   0  0  0  0  0  0  0  0  0  0  0  0
   11.2977   14.7433   16.1521 O   0  0  0  0  0  0  0  0  0  0  0  0
   12.7378   13.9879   17.7142 N   0  0  0  0  0  0  0  0  0  0  0  0
   13.9093   14.0937   18.3251 C   0  0  0  0  0  0  0  0  0  0  0  0
   14.2024   13.2539   19.2945 N   0  0  0  0  0  0  0  0  0  0  0  0
   14.7770   14.9997   17.9941 N   0  0  0  0  0  0  0  0  0  0  0  0
   14.5991   15.8957   16.9581 C   0  0  0  0  0  0  0  0  0  0  0  0
   15.6280   16.7288   16.4904 C   0  0  0  0  0  0  0  0  0  0  0  0
   15.3781   17.4972   15.3487 C   0  0  0  0  0  0  0  0  0  0  0  0
   16.1304   18.4078   14.6888 N   0  0  0  0  0  0  0  0  0  0  0  0
   15.4481   18.8354   13.6853 C   0  0  0  0  0  0  0  0  0  0  0  0
   14.2189   18.3726   13.6983 N   0  0  0  0  0  0  0  0  0  0  0  0
   14.1192   17.5510   14.7557 C   0  0  0  0  0  0  0  0  0  0  0  0
   13.1147   16.6705   15.1521 C   0  0  0  0  0  0  0  0  0  0  0  0
   13.4031   15.8186   16.2349 C   0  0  0  0  0  0  0  0  0  0  0  0
   12.0965   13.3067   18.0205 H   0  0  0  0  0  0  0  0  0  0  0  0
   13.5548   12.5606   19.5577 H   0  0  0  0  0  0  0  0  0  0  0  0
   15.0692   13.3187   19.7567 H   0  0  0  0  0  0  0  0  0  0  0  0
   17.0403   18.6932   14.9336 H   0  0  0  0  0  0  0  0  0  0  0  0
   15.8344   19.7472   12.8110 N   0  0  0  0  0  0  0  0  0  0  0  0
   15.9682   21.1630   13.0545 C   0  0  0  0  0  0  0  0  0  0  0  0
   16.0523   19.4297   11.9049 H   0  0  0  0  0  0  0  0  0  0  0  0
   17.0370   16.8567   17.1220 C   0  0  0  0  0  0  0  0  0  0  0  0
   16.9193   16.7368   18.6963 C   0  0  0  0  0  0  0  0  0  0  0  0
   18.2822   16.6543   19.2550 N   0  0  0  0  0  0  0  0  0  0  0  0
   18.7596   15.8402   18.8681 H   0  0  0  0  0  0  0  0  0  0  0  0
   18.2289   16.5667   20.2699 H   0  0  0  0  0  0  0  0  0  0  0  0
  1  2  2  0  0  0
  1  3  1  0  0  0
  1 15  1  0  0  0
  3  4  1  0  0  0
  4  5  1  0  0  0
  4  6  2  0  0  0
  6  7  1  0  0  0
  7  8  2  0  0  0
  7 15  1  0  0  0
  8 23  1  0  0  0
  8  9  1  0  0  0
 23 24  1  0  0  0
 24 25  1  0  0  0
  9 10  1  0  0  0
  9 13  2  0  0  0
 10 11  1  0  0  0
 11 20  1  0  0  0
 11 12  2  0  0  0
 20 21  1  0  0  0
 12 13  1  0  0  0
 13 14  1  0  0  0
 14 15  2  0  0  0
  3 16  1  0  0  0
  5 17  1  0  0  0
  5 18  1  0  0  0
 25 26  1  0  0  0
 25 27  1  0  0  0
 10 19  1  0  0  0
 20 22  1  0  0  0
M  END
> <minimizedAffinity>
-7.07992

$$$$
3GC5_2MQ_A_400


 27 29  0  0  0  0  0  0  0  0999 V2000
   13.8716   15.2056   17.7904 C   0  0  0  0  0  0  0  0  0  0  0  0
   12.8349   14.6277   17.4229 O   0  0  0  0  0  0  0  0  0  0  0  0
   14.2479   15.2845   19.0529 N   0  0  0  0  0  0  0  0  0  0  0  0
   15.3243   15.9675   19.4161 C   0  0  0  0  0  0  0  0  0  0  0  0
   15.6795   15.9736   20.6829 N   0  0  0  0  0  0  0  0  0  0  0  0
   16.0396   16.6286   18.5590 N   0  0  0  0  0  0  0  0  0  0  0  0
   15.7928   16.6472   17.2002 C   0  0  0  0  0  0  0  0  0  0  0  0
   16.6910   17.2002   16.2734 C   0  0  0  0  0  0  0  0  0  0  0  0
   16.4057   17.0423   14.9132 C   0  0  0  0  0  0  0  0  0  0  0  0
   17.0354   17.4833   13.7999 N   0  0  0  0  0  0  0  0  0  0  0  0
   16.3760   17.0645   12.7776 C   0  0  0  0  0  0  0  0  0  0  0  0
   15.2539   16.4782   13.1275 N   0  0  0  0  0  0  0  0  0  0  0  0
   15.2134   16.4757   14.4697 C   0  0  0  0  0  0  0  0  0  0  0  0
   14.3538   15.8475   15.3685 C   0  0  0  0  0  0  0  0  0  0  0  0
   14.6969   15.9129   16.7321 C   0  0  0  0  0  0  0  0  0  0  0  0
   13.7160   14.8247   19.7420 H   0  0  0  0  0  0  0  0  0  0  0  0
   15.1474   15.4770   21.3458 H   0  0  0  0  0  0  0  0  0  0  0  0
   16.4776   16.4748   20.9679 H   0  0  0  0  0  0  0  0  0  0  0  0
   17.8545   18.0290   13.7762 H   0  0  0  0  0  0  0  0  0  0  0  0
   16.6653   17.3039   11.5111 N   0  0  0  0  0  0  0  0  0  0  0  0
   17.9843   17.3414   10.9275 C   0  0  0  0  0  0  0  0  0  0  0  0
   15.9070   17.4734   10.9065 H   0  0  0  0  0  0  0  0  0  0  0  0
   17.9943   17.9590   16.6287 C   0  0  0  0  0  0  0  0  0  0  0  0
   19.0782   16.9270   17.1454 C   0  0  0  0  0  0  0  0  0  0  0  0
   19.0752   16.9558   18.6204 N   0  0  0  0  0  0  0  0  0  0  0  0
   19.2952   17.8983   18.9425 H   0  0  0  0  0  0  0  0  0  0  0  0
   19.7748   16.3035   18.9746 H   0  0  0  0  0  0  0  0  0  0  0  0
  1  2  2  0  0  0
  1  3  1  0  0  0
  1 15  1  0  0  0
  3  4  1  0  0  0
  4  5  1  0  0  0
  4  6  2  0  0  0
  6  7  1  0  0  0
  7  8  2  0  0  0
  7 15  1  0  0  0
  8 23  1  0  0  0
  8  9  1  0  0  0
 23 24  1  0  0  0
 24 25  1  0  0  0
  9 10  1  0  0  0
  9 13  2  0  0  0
 10 11  1  0  0  0
 11 20  1  0  0  0
 11 12  2  0  0  0
 20 21  1  0  0  0
 12 13  1  0  0  0
 13 14  1  0  0  0
 14 15  2  0  0  0
  3 16  1  0  0  0
  5 17  1  0  0  0
  5 18  1  0  0  0
 25 26  1  0  0  0
 25 27  1  0  0  0
 10 19  1  0  0  0
 20 22  1  0  0  0
M  END
> <minimizedAffinity>
-6.86824

$$$$
