3BVA_2NC_B_200


 70 69  0  0  0  0  0  0  0  0999 V2000
   14.8141   23.1291   16.9210 C   0  0  0  0  0  0  0  0  0  0  0  0
   14.7203   21.7019   17.4466 C   0  0  0  0  0  0  0  0  0  0  0  0
   15.6672   20.9065   17.3964 O   0  0  0  0  0  0  0  0  0  0  0  0
   13.5267   21.3011   17.8733 N   0  0  0  0  0  0  0  0  0  0  0  0
   12.8036   21.9630   17.9638 H   0  0  0  0  0  0  0  0  0  0  0  0
   13.2575   19.9004   18.2126 C   0  0  0  0  0  0  0  0  0  0  0  0
   11.8925   19.5417   17.6280 C   0  0  0  0  0  0  0  0  0  0  0  0
   10.8380   19.9165   18.1368 O   0  0  0  0  0  0  0  0  0  0  0  0
   11.9469   18.7012   16.6157 N   0  0  0  0  0  0  0  0  0  0  0  0
   12.8243   18.3817   16.3040 H   0  0  0  0  0  0  0  0  0  0  0  0
   10.7533   18.2369   15.9521 C   0  0  0  0  0  0  0  0  0  0  0  0
   10.4915   16.8013   16.4044 C   0  0  0  0  0  0  0  0  0  0  0  0
   11.1504   15.8543   15.9835 O   0  0  0  0  0  0  0  0  0  0  0  0
    9.4417   16.6121   17.3373 N   0  0  0  0  0  0  0  0  0  0  0  0
    8.9260   17.3855   17.6617 H   0  0  0  0  0  0  0  0  0  0  0  0
    9.2279   15.7073   17.6610 H   0  0  0  0  0  0  0  0  0  0  0  0
   10.8797   18.3134   14.4437 C   0  0  0  0  0  0  0  0  0  0  0  0
    9.6583   18.8601   13.7223 C   0  0  0  0  0  0  0  0  0  0  0  0
    9.7406   20.3808   13.5388 C   0  0  0  0  0  0  0  0  0  0  0  0
    8.9685   21.0898   14.5768 N   0  0  0  0  0  0  0  0  0  0  0  0
    7.9924   21.1531   14.4651 H   0  0  0  0  0  0  0  0  0  0  0  0
    9.5046   21.6413   15.6400 C   0  0  0  0  0  0  0  0  0  0  0  0
   10.8177   21.8777   15.5675 N   0  0  0  0  0  0  0  0  0  0  0  0
    8.8052   21.9665   16.7213 N   0  0  0  0  0  0  0  0  0  0  0  0
   11.3186   21.6293   14.7572 H   0  0  0  0  0  0  0  0  0  0  0  0
   11.2843   22.3003   16.3244 H   0  0  0  0  0  0  0  0  0  0  0  0
    7.8383   21.7841   16.7554 H   0  0  0  0  0  0  0  0  0  0  0  0
    9.2536   22.3898   17.4887 H   0  0  0  0  0  0  0  0  0  0  0  0
   13.3719   19.6635   19.6964 C   0  0  0  0  0  0  0  0  0  0  0  0
   13.1528   18.2523   20.1333 C   0  0  0  0  0  0  0  0  0  0  0  0
   11.9169   17.9992   20.9371 C   0  0  0  0  0  0  0  0  0  0  0  0
   11.9204   18.2049   22.1446 O   0  0  0  0  0  0  0  0  0  0  0  0
   10.8211   17.6079   20.3450 N   0  0  0  0  0  0  0  0  0  0  0  0
   10.8181   17.4425   19.3745 H   0  0  0  0  0  0  0  0  0  0  0  0
    9.9978   17.4781   20.8690 H   0  0  0  0  0  0  0  0  0  0  0  0
   15.6208   23.9592   17.7687 N   0  0  0  0  0  0  0  0  0  0  0  0
   15.0517   24.7541   18.0596 H   0  0  0  0  0  0  0  0  0  0  0  0
   16.1409   23.3355   18.9524 C   0  0  0  0  0  0  0  0  0  0  0  0
   17.6155   23.4743   19.1026 C   0  0  0  0  0  0  0  0  0  0  0  0
   18.9903   24.2843   17.1696 C   0  0  0  0  0  0  0  0  0  0  0  0
   19.1971   23.1608   16.7901 O   0  0  0  0  0  0  0  0  0  0  0  0
   18.2023   24.5252   18.2766 N   0  0  0  0  0  0  0  0  0  0  0  0
   18.0252   25.4615   18.5240 H   0  0  0  0  0  0  0  0  0  0  0  0
   19.6481   25.4943   16.5792 C   0  0  0  0  0  0  0  0  0  0  0  0
   21.4273   26.5992   17.8503 C   0  0  0  0  0  0  0  0  0  0  0  0
   20.6717   27.5024   18.2159 O   0  0  0  0  0  0  0  0  0  0  0  0
   21.0166   25.5957   17.0945 N   0  0  0  0  0  0  0  0  0  0  0  0
   21.6585   24.8845   16.8675 H   0  0  0  0  0  0  0  0  0  0  0  0
   22.9102   26.6396   18.2973 C   0  0  0  0  0  0  0  0  0  0  0  0
   23.3722   24.7291   19.8642 C   0  0  0  0  0  0  0  0  0  0  0  0
   22.7764   25.3567   20.7409 O   0  0  0  0  0  0  0  0  0  0  0  0
   24.0204   23.4086   19.9708 C   0  0  0  0  0  0  0  0  0  0  0  0
   23.4623   25.3492   18.5755 N   0  0  0  0  0  0  0  0  0  0  0  0
   23.9234   24.8674   17.8513 H   0  0  0  0  0  0  0  0  0  0  0  0
   23.7050   27.4219   17.2411 C   0  0  0  0  0  0  0  0  0  0  0  0
   22.7407   28.1798   16.5231 O   0  0  0  0  0  0  0  0  0  0  0  0
   24.4286   26.4546   16.2631 C   0  0  0  0  0  0  0  0  0  0  0  0
   22.0873   27.5812   16.1287 H   0  0  0  0  0  0  0  0  0  0  0  0
   19.6205   25.4264   15.0307 C   0  0  0  0  0  0  0  0  0  0  0  0
   18.3333   26.0035   14.5219 C   0  0  0  0  0  0  0  0  0  0  0  0
   20.8346   26.0611   14.3698 C   0  0  0  0  0  0  0  0  0  0  0  0
   20.5872   27.3995   13.7504 C   0  0  0  0  0  0  0  0  0  0  0  0
   18.0621   23.6747   20.5644 C   0  0  0  0  0  0  0  0  0  0  0  0
   19.5391   23.8540   20.7886 C   0  0  0  0  0  0  0  0  0  0  0  0
   20.3352   22.6055   20.7755 C   0  0  0  0  0  0  0  0  0  0  0  0
   19.6874   21.4617   21.5644 C   0  0  0  0  0  0  0  0  0  0  0  0
   15.2191   23.1501   15.4340 C   0  0  0  0  0  0  0  0  0  0  0  0
   14.2714   22.3919   14.5848 C   0  0  0  0  0  0  0  0  0  0  0  0
   14.8897   21.3879   13.6429 C   0  0  0  0  0  0  0  0  0  0  0  0
   13.8447   20.3304   13.3074 C   0  0  0  0  0  0  0  0  0  0  0  0
 50 51  2  0  0  0
 50 52  1  0  0  0
 53 49  1  0  0  0
 49 45  1  0  0  0
 49 55  1  0  0  0
 45 46  2  0  0  0
 55 56  1  0  0  0
 55 57  1  0  0  0
 47 44  1  0  0  0
 44 40  1  0  0  0
 44 59  1  0  0  0
 40 41  2  0  0  0
 59 61  1  0  0  0
 59 60  1  0  0  0
 61 62  1  0  0  0
 42 39  1  0  0  0
 39 38  1  0  0  0
 39 63  1  0  0  0
 63 64  1  0  0  0
 64 65  1  0  0  0
 65 66  1  0  0  0
 36  1  1  0  0  0
  1  2  1  0  0  0
  1 67  1  0  0  0
  2  3  2  0  0  0
 67 68  1  0  0  0
 68 69  1  0  0  0
 69 70  1  0  0  0
  4  6  1  0  0  0
  6  7  1  0  0  0
  6 29  1  0  0  0
  7  8  2  0  0  0
 29 30  1  0  0  0
 30 31  1  0  0  0
 31 32  2  0  0  0
 31 33  1  0  0  0
  9 11  1  0  0  0
 11 12  1  0  0  0
 11 17  1  0  0  0
 12 13  2  0  0  0
 17 18  1  0  0  0
 18 19  1  0  0  0
 19 20  1  0  0  0
 20 22  1  0  0  0
 22 23  1  0  0  0
 22 24  2  0  0  0
 50 53  1  0  0  0
 45 47  1  0  0  0
 40 42  1  0  0  0
 38 36  1  0  0  0
  2  4  1  0  0  0
  7  9  1  0  0  0
 12 14  1  0  0  0
 53 54  1  0  0  0
 56 58  1  0  0  0
 47 48  1  0  0  0
 42 43  1  0  0  0
 36 37  1  0  0  0
  4  5  1  0  0  0
 33 34  1  0  0  0
 33 35  1  0  0  0
  9 10  1  0  0  0
 20 21  1  0  0  0
 23 25  1  0  0  0
 23 26  1  0  0  0
 24 27  1  0  0  0
 24 28  1  0  0  0
 14 15  1  0  0  0
 14 16  1  0  0  0
M  CHG 1  24   1
M  END
> <minimizedAffinity>
-8.69984

$$$$
3BVA_2NC_B_200


 70 69  0  0  0  0  0  0  0  0999 V2000
   17.2491   24.3692   18.8478 C   0  0  0  0  0  0  0  0  0  0  0  0
   18.2245   24.2765   17.6807 C   0  0  0  0  0  0  0  0  0  0  0  0
   18.7151   23.2052   17.3018 O   0  0  0  0  0  0  0  0  0  0  0  0
   18.6191   25.4256   17.1410 N   0  0  0  0  0  0  0  0  0  0  0  0
   18.1729   26.2601   17.4124 H   0  0  0  0  0  0  0  0  0  0  0  0
   19.7005   25.4842   16.1528 C   0  0  0  0  0  0  0  0  0  0  0  0
   20.7495   26.4620   16.6792 C   0  0  0  0  0  0  0  0  0  0  0  0
   20.5500   27.6737   16.7400 O   0  0  0  0  0  0  0  0  0  0  0  0
   21.9156   25.9085   16.9397 N   0  0  0  0  0  0  0  0  0  0  0  0
   22.0296   24.9409   16.7986 H   0  0  0  0  0  0  0  0  0  0  0  0
   23.0301   26.6841   17.4265 C   0  0  0  0  0  0  0  0  0  0  0  0
   23.9389   26.9986   16.2394 C   0  0  0  0  0  0  0  0  0  0  0  0
   24.8480   26.2473   15.8968 O   0  0  0  0  0  0  0  0  0  0  0  0
   23.6837   28.2095   15.5490 N   0  0  0  0  0  0  0  0  0  0  0  0
   22.9496   28.7972   15.8407 H   0  0  0  0  0  0  0  0  0  0  0  0
   24.2404   28.4632   14.7777 H   0  0  0  0  0  0  0  0  0  0  0  0
   23.7941   25.9545   18.5132 C   0  0  0  0  0  0  0  0  0  0  0  0
   24.3122   26.8357   19.6384 C   0  0  0  0  0  0  0  0  0  0  0  0
   23.4731   26.6807   20.9132 C   0  0  0  0  0  0  0  0  0  0  0  0
   22.4574   27.7452   21.0206 N   0  0  0  0  0  0  0  0  0  0  0  0
   22.7646   28.6598   21.2162 H   0  0  0  0  0  0  0  0  0  0  0  0
   21.1690   27.5461   20.8712 C   0  0  0  0  0  0  0  0  0  0  0  0
   20.8091   26.2939   20.5750 N   0  0  0  0  0  0  0  0  0  0  0  0
   20.2633   28.5069   21.0159 N   0  0  0  0  0  0  0  0  0  0  0  0
   21.4955   25.5958   20.4718 H   0  0  0  0  0  0  0  0  0  0  0  0
   19.8574   26.0694   20.4599 H   0  0  0  0  0  0  0  0  0  0  0  0
   20.5486   29.4235   21.2342 H   0  0  0  0  0  0  0  0  0  0  0  0
   19.3067   28.3024   20.9048 H   0  0  0  0  0  0  0  0  0  0  0  0
   19.1741   25.8266   14.7829 C   0  0  0  0  0  0  0  0  0  0  0  0
   20.2162   26.0044   13.7279 C   0  0  0  0  0  0  0  0  0  0  0  0
   20.4386   27.4063   13.2559 C   0  0  0  0  0  0  0  0  0  0  0  0
   21.5294   27.9396   13.4171 O   0  0  0  0  0  0  0  0  0  0  0  0
   19.4873   28.0429   12.6279 N   0  0  0  0  0  0  0  0  0  0  0  0
   18.6105   27.6144   12.4983 H   0  0  0  0  0  0  0  0  0  0  0  0
   19.6468   28.9515   12.2840 H   0  0  0  0  0  0  0  0  0  0  0  0
   15.9032   24.5919   18.4035 N   0  0  0  0  0  0  0  0  0  0  0  0
   15.8995   24.5446   17.3846 H   0  0  0  0  0  0  0  0  0  0  0  0
   14.9174   23.6684   18.8891 C   0  0  0  0  0  0  0  0  0  0  0  0
   14.6924   22.5053   17.9876 C   0  0  0  0  0  0  0  0  0  0  0  0
   13.9118   20.3141   18.9215 C   0  0  0  0  0  0  0  0  0  0  0  0
   15.0401   19.9079   19.0269 O   0  0  0  0  0  0  0  0  0  0  0  0
   13.6571   21.5854   18.4488 N   0  0  0  0  0  0  0  0  0  0  0  0
   12.7213   21.8901   18.4209 H   0  0  0  0  0  0  0  0  0  0  0  0
   12.6988   19.4677   19.1615 C   0  0  0  0  0  0  0  0  0  0  0  0
   10.9696   19.3072   17.4335 C   0  0  0  0  0  0  0  0  0  0  0  0
   10.2087   20.0502   18.0575 O   0  0  0  0  0  0  0  0  0  0  0  0
   12.1776   19.0005   17.8736 N   0  0  0  0  0  0  0  0  0  0  0  0
   12.7530   18.4330   17.3114 H   0  0  0  0  0  0  0  0  0  0  0  0
   10.4944   18.7161   16.0825 C   0  0  0  0  0  0  0  0  0  0  0  0
    9.9750   16.2799   16.4196 C   0  0  0  0  0  0  0  0  0  0  0  0
   11.1875   16.0710   16.4795 O   0  0  0  0  0  0  0  0  0  0  0  0
    8.8765   15.3006   16.5180 C   0  0  0  0  0  0  0  0  0  0  0  0
    9.5638   17.6383   16.2220 N   0  0  0  0  0  0  0  0  0  0  0  0
    8.6007   17.8383   16.1805 H   0  0  0  0  0  0  0  0  0  0  0  0
    9.9589   19.8689   15.2202 C   0  0  0  0  0  0  0  0  0  0  0  0
    8.7237   20.2462   15.8132 O   0  0  0  0  0  0  0  0  0  0  0  0
    9.7045   19.3978   13.7611 C   0  0  0  0  0  0  0  0  0  0  0  0
    8.1251   19.4830   15.8268 H   0  0  0  0  0  0  0  0  0  0  0  0
   13.0389   18.2867   20.1064 C   0  0  0  0  0  0  0  0  0  0  0  0
   12.5760   18.6023   21.4974 C   0  0  0  0  0  0  0  0  0  0  0  0
   12.5162   16.9442   19.6186 C   0  0  0  0  0  0  0  0  0  0  0  0
   11.1362   16.5999   20.0802 C   0  0  0  0  0  0  0  0  0  0  0  0
   14.3912   22.9132   16.5317 C   0  0  0  0  0  0  0  0  0  0  0  0
   15.3796   22.4520   15.4952 C   0  0  0  0  0  0  0  0  0  0  0  0
   14.8064   21.6517   14.3890 C   0  0  0  0  0  0  0  0  0  0  0  0
   13.6884   20.7040   14.8387 C   0  0  0  0  0  0  0  0  0  0  0  0
   17.4152   23.1760   19.8092 C   0  0  0  0  0  0  0  0  0  0  0  0
   18.3382   23.4817   20.9267 C   0  0  0  0  0  0  0  0  0  0  0  0
   19.6771   22.7867   20.8836 C   0  0  0  0  0  0  0  0  0  0  0  0
   19.5900   21.5144   21.7181 C   0  0  0  0  0  0  0  0  0  0  0  0
 50 51  2  0  0  0
 50 52  1  0  0  0
 53 49  1  0  0  0
 49 45  1  0  0  0
 49 55  1  0  0  0
 45 46  2  0  0  0
 55 56  1  0  0  0
 55 57  1  0  0  0
 47 44  1  0  0  0
 44 40  1  0  0  0
 44 59  1  0  0  0
 40 41  2  0  0  0
 59 61  1  0  0  0
 59 60  1  0  0  0
 61 62  1  0  0  0
 42 39  1  0  0  0
 39 38  1  0  0  0
 39 63  1  0  0  0
 63 64  1  0  0  0
 64 65  1  0  0  0
 65 66  1  0  0  0
 36  1  1  0  0  0
  1  2  1  0  0  0
  1 67  1  0  0  0
  2  3  2  0  0  0
 67 68  1  0  0  0
 68 69  1  0  0  0
 69 70  1  0  0  0
  4  6  1  0  0  0
  6  7  1  0  0  0
  6 29  1  0  0  0
  7  8  2  0  0  0
 29 30  1  0  0  0
 30 31  1  0  0  0
 31 32  2  0  0  0
 31 33  1  0  0  0
  9 11  1  0  0  0
 11 12  1  0  0  0
 11 17  1  0  0  0
 12 13  2  0  0  0
 17 18  1  0  0  0
 18 19  1  0  0  0
 19 20  1  0  0  0
 20 22  1  0  0  0
 22 23  1  0  0  0
 22 24  2  0  0  0
 50 53  1  0  0  0
 45 47  1  0  0  0
 40 42  1  0  0  0
 38 36  1  0  0  0
  2  4  1  0  0  0
  7  9  1  0  0  0
 12 14  1  0  0  0
 53 54  1  0  0  0
 56 58  1  0  0  0
 47 48  1  0  0  0
 42 43  1  0  0  0
 36 37  1  0  0  0
  4  5  1  0  0  0
 33 34  1  0  0  0
 33 35  1  0  0  0
  9 10  1  0  0  0
 20 21  1  0  0  0
 23 25  1  0  0  0
 23 26  1  0  0  0
 24 27  1  0  0  0
 24 28  1  0  0  0
 14 15  1  0  0  0
 14 16  1  0  0  0
M  CHG 1  24   1
M  END
> <minimizedAffinity>
-8.62858

$$$$
3BVA_2NC_B_200


 70 69  0  0  0  0  0  0  0  0999 V2000
   14.4140   22.8584   16.6977 C   0  0  0  0  0  0  0  0  0  0  0  0
   14.4017   21.5057   17.3993 C   0  0  0  0  0  0  0  0  0  0  0  0
   15.3967   20.7716   17.4552 O   0  0  0  0  0  0  0  0  0  0  0  0
   13.2297   21.0873   17.8668 N   0  0  0  0  0  0  0  0  0  0  0  0
   12.4659   21.7085   17.8690 H   0  0  0  0  0  0  0  0  0  0  0  0
   13.0432   19.7265   18.3793 C   0  0  0  0  0  0  0  0  0  0  0  0
   11.6558   19.2590   17.9435 C   0  0  0  0  0  0  0  0  0  0  0  0
   10.6259   19.8277   18.3005 O   0  0  0  0  0  0  0  0  0  0  0  0
   11.6590   18.1318   17.2627 N   0  0  0  0  0  0  0  0  0  0  0  0
   12.5172   17.6880   17.0737 H   0  0  0  0  0  0  0  0  0  0  0  0
   10.4371   17.5310   16.7870 C   0  0  0  0  0  0  0  0  0  0  0  0
   10.1888   16.2619   17.6005 C   0  0  0  0  0  0  0  0  0  0  0  0
   11.1061   15.6237   18.1099 O   0  0  0  0  0  0  0  0  0  0  0  0
    8.8396   15.8506   17.7376 N   0  0  0  0  0  0  0  0  0  0  0  0
    8.1197   16.3773   17.3209 H   0  0  0  0  0  0  0  0  0  0  0  0
    8.6223   15.0383   18.2495 H   0  0  0  0  0  0  0  0  0  0  0  0
   10.5007   17.2189   15.3053 C   0  0  0  0  0  0  0  0  0  0  0  0
   10.9207   18.3813   14.4200 C   0  0  0  0  0  0  0  0  0  0  0  0
   10.5907   18.1197   12.9450 C   0  0  0  0  0  0  0  0  0  0  0  0
   11.8046   17.7940   12.1724 N   0  0  0  0  0  0  0  0  0  0  0  0
   12.1173   18.4468   11.5050 H   0  0  0  0  0  0  0  0  0  0  0  0
   12.4925   16.6866   12.3213 C   0  0  0  0  0  0  0  0  0  0  0  0
   13.7782   16.8454   12.6483 N   0  0  0  0  0  0  0  0  0  0  0  0
   11.9630   15.4769   12.1774 N   0  0  0  0  0  0  0  0  0  0  0  0
   14.1520   17.7505   12.7503 H   0  0  0  0  0  0  0  0  0  0  0  0
   14.3518   16.0574   12.7872 H   0  0  0  0  0  0  0  0  0  0  0  0
   11.0134   15.3808   11.9360 H   0  0  0  0  0  0  0  0  0  0  0  0
   12.5202   14.6765   12.3120 H   0  0  0  0  0  0  0  0  0  0  0  0
   13.2733   19.6641   19.8673 C   0  0  0  0  0  0  0  0  0  0  0  0
   13.2461   18.2925   20.4576 C   0  0  0  0  0  0  0  0  0  0  0  0
   11.9260   17.8349   20.9920 C   0  0  0  0  0  0  0  0  0  0  0  0
   11.1074   18.6572   21.3846 O   0  0  0  0  0  0  0  0  0  0  0  0
   11.6267   16.5642   20.9934 N   0  0  0  0  0  0  0  0  0  0  0  0
   12.2845   15.9032   20.6779 H   0  0  0  0  0  0  0  0  0  0  0  0
   10.7431   16.2669   21.3098 H   0  0  0  0  0  0  0  0  0  0  0  0
   15.6374   23.5706   16.9310 N   0  0  0  0  0  0  0  0  0  0  0  0
   15.5944   24.4443   16.4063 H   0  0  0  0  0  0  0  0  0  0  0  0
   15.9280   23.8943   18.2990 C   0  0  0  0  0  0  0  0  0  0  0  0
   17.3841   23.9852   18.5954 C   0  0  0  0  0  0  0  0  0  0  0  0
   19.1202   24.6420   16.9110 C   0  0  0  0  0  0  0  0  0  0  0  0
   19.4490   23.4967   16.7393 O   0  0  0  0  0  0  0  0  0  0  0  0
   18.0981   24.9636   17.7807 N   0  0  0  0  0  0  0  0  0  0  0  0
   17.8348   25.9092   17.8561 H   0  0  0  0  0  0  0  0  0  0  0  0
   19.8452   25.8117   16.3180 C   0  0  0  0  0  0  0  0  0  0  0  0
   21.5568   26.8510   17.7295 C   0  0  0  0  0  0  0  0  0  0  0  0
   20.7793   27.7297   18.1090 O   0  0  0  0  0  0  0  0  0  0  0  0
   21.1878   25.8895   16.9011 N   0  0  0  0  0  0  0  0  0  0  0  0
   21.8439   25.1945   16.6651 H   0  0  0  0  0  0  0  0  0  0  0  0
   23.0172   26.8722   18.2464 C   0  0  0  0  0  0  0  0  0  0  0  0
   24.5015   27.2581   16.2548 C   0  0  0  0  0  0  0  0  0  0  0  0
   24.2327   26.1147   15.8835 O   0  0  0  0  0  0  0  0  0  0  0  0
   25.3891   28.2410   15.6059 C   0  0  0  0  0  0  0  0  0  0  0  0
   23.8892   27.7012   17.4723 N   0  0  0  0  0  0  0  0  0  0  0  0
   24.0765   28.6143   17.7893 H   0  0  0  0  0  0  0  0  0  0  0  0
   22.9900   27.2483   19.7354 C   0  0  0  0  0  0  0  0  0  0  0  0
   24.2321   27.8909   19.9886 O   0  0  0  0  0  0  0  0  0  0  0  0
   22.8783   25.9792   20.6257 C   0  0  0  0  0  0  0  0  0  0  0  0
   24.9590   27.2866   19.7710 H   0  0  0  0  0  0  0  0  0  0  0  0
   19.8954   25.6932   14.7732 C   0  0  0  0  0  0  0  0  0  0  0  0
   18.6304   26.2404   14.1824 C   0  0  0  0  0  0  0  0  0  0  0  0
   21.1356   26.3182   14.1527 C   0  0  0  0  0  0  0  0  0  0  0  0
   20.9977   27.7615   13.7864 C   0  0  0  0  0  0  0  0  0  0  0  0
   17.6867   24.2523   20.0832 C   0  0  0  0  0  0  0  0  0  0  0  0
   18.8504   23.4999   20.6694 C   0  0  0  0  0  0  0  0  0  0  0  0
   18.8042   22.0303   20.4938 C   0  0  0  0  0  0  0  0  0  0  0  0
   19.9462   21.2957   21.2055 C   0  0  0  0  0  0  0  0  0  0  0  0
   14.0294   22.7191   15.2117 C   0  0  0  0  0  0  0  0  0  0  0  0
   15.1420   22.1843   14.3930 C   0  0  0  0  0  0  0  0  0  0  0  0
   14.7439   21.4950   13.1109 C   0  0  0  0  0  0  0  0  0  0  0  0
   13.9709   20.2290   13.4610 C   0  0  0  0  0  0  0  0  0  0  0  0
 50 51  2  0  0  0
 50 52  1  0  0  0
 53 49  1  0  0  0
 49 45  1  0  0  0
 49 55  1  0  0  0
 45 46  2  0  0  0
 55 56  1  0  0  0
 55 57  1  0  0  0
 47 44  1  0  0  0
 44 40  1  0  0  0
 44 59  1  0  0  0
 40 41  2  0  0  0
 59 61  1  0  0  0
 59 60  1  0  0  0
 61 62  1  0  0  0
 42 39  1  0  0  0
 39 38  1  0  0  0
 39 63  1  0  0  0
 63 64  1  0  0  0
 64 65  1  0  0  0
 65 66  1  0  0  0
 36  1  1  0  0  0
  1  2  1  0  0  0
  1 67  1  0  0  0
  2  3  2  0  0  0
 67 68  1  0  0  0
 68 69  1  0  0  0
 69 70  1  0  0  0
  4  6  1  0  0  0
  6  7  1  0  0  0
  6 29  1  0  0  0
  7  8  2  0  0  0
 29 30  1  0  0  0
 30 31  1  0  0  0
 31 32  2  0  0  0
 31 33  1  0  0  0
  9 11  1  0  0  0
 11 12  1  0  0  0
 11 17  1  0  0  0
 12 13  2  0  0  0
 17 18  1  0  0  0
 18 19  1  0  0  0
 19 20  1  0  0  0
 20 22  1  0  0  0
 22 23  1  0  0  0
 22 24  2  0  0  0
 50 53  1  0  0  0
 45 47  1  0  0  0
 40 42  1  0  0  0
 38 36  1  0  0  0
  2  4  1  0  0  0
  7  9  1  0  0  0
 12 14  1  0  0  0
 53 54  1  0  0  0
 56 58  1  0  0  0
 47 48  1  0  0  0
 42 43  1  0  0  0
 36 37  1  0  0  0
  4  5  1  0  0  0
 33 34  1  0  0  0
 33 35  1  0  0  0
  9 10  1  0  0  0
 20 21  1  0  0  0
 23 25  1  0  0  0
 23 26  1  0  0  0
 24 27  1  0  0  0
 24 28  1  0  0  0
 14 15  1  0  0  0
 14 16  1  0  0  0
M  CHG 1  24   1
M  END
> <minimizedAffinity>
-8.41290

$$$$
3BVA_2NC_B_200


 70 69  0  0  0  0  0  0  0  0999 V2000
   15.0373   23.1424   17.2069 C   0  0  0  0  0  0  0  0  0  0  0  0
   14.8429   21.7263   17.7351 C   0  0  0  0  0  0  0  0  0  0  0  0
   15.7542   20.8890   17.7566 O   0  0  0  0  0  0  0  0  0  0  0  0
   13.6058   21.3836   18.0808 N   0  0  0  0  0  0  0  0  0  0  0  0
   12.9089   22.0781   18.1161 H   0  0  0  0  0  0  0  0  0  0  0  0
   13.2508   20.0000   18.4108 C   0  0  0  0  0  0  0  0  0  0  0  0
   11.9283   19.6876   17.7131 C   0  0  0  0  0  0  0  0  0  0  0  0
   10.8403   19.8288   18.2680 O   0  0  0  0  0  0  0  0  0  0  0  0
   12.0659   19.1412   16.5229 N   0  0  0  0  0  0  0  0  0  0  0  0
   12.9709   18.9877   16.1671 H   0  0  0  0  0  0  0  0  0  0  0  0
   10.9241   18.7619   15.7273 C   0  0  0  0  0  0  0  0  0  0  0  0
   10.6406   17.2831   15.9858 C   0  0  0  0  0  0  0  0  0  0  0  0
   11.1621   16.3927   15.3198 O   0  0  0  0  0  0  0  0  0  0  0  0
    9.7375   16.9850   17.0363 N   0  0  0  0  0  0  0  0  0  0  0  0
    9.3308   17.7145   17.5576 H   0  0  0  0  0  0  0  0  0  0  0  0
    9.5167   16.0485   17.2449 H   0  0  0  0  0  0  0  0  0  0  0  0
   11.1542   19.0177   14.2512 C   0  0  0  0  0  0  0  0  0  0  0  0
    9.9048   19.3560   13.4540 C   0  0  0  0  0  0  0  0  0  0  0  0
    9.5776   18.2686   12.4227 C   0  0  0  0  0  0  0  0  0  0  0  0
   10.6476   17.2553   12.3525 N   0  0  0  0  0  0  0  0  0  0  0  0
   11.5401   17.5009   12.6876 H   0  0  0  0  0  0  0  0  0  0  0  0
   10.4810   16.0463   11.8704 C   0  0  0  0  0  0  0  0  0  0  0  0
   10.9356   15.0513   12.6377 N   0  0  0  0  0  0  0  0  0  0  0  0
    9.8883   15.8029   10.7069 N   0  0  0  0  0  0  0  0  0  0  0  0
   11.3721   15.2523   13.4969 H   0  0  0  0  0  0  0  0  0  0  0  0
   10.8340   14.1172   12.3438 H   0  0  0  0  0  0  0  0  0  0  0  0
    9.5601   16.5498   10.1559 H   0  0  0  0  0  0  0  0  0  0  0  0
    9.7772   14.8756   10.3956 H   0  0  0  0  0  0  0  0  0  0  0  0
   13.2259   19.7805   19.9015 C   0  0  0  0  0  0  0  0  0  0  0  0
   13.2121   18.3508   20.3331 C   0  0  0  0  0  0  0  0  0  0  0  0
   12.0131   17.9132   21.1133 C   0  0  0  0  0  0  0  0  0  0  0  0
   11.0692   18.6791   21.2642 O   0  0  0  0  0  0  0  0  0  0  0  0
   11.9511   16.6993   21.5899 N   0  0  0  0  0  0  0  0  0  0  0  0
   12.7097   16.0836   21.4687 H   0  0  0  0  0  0  0  0  0  0  0  0
   11.1459   16.3997   22.0705 H   0  0  0  0  0  0  0  0  0  0  0  0
   15.7099   23.9802   18.1577 N   0  0  0  0  0  0  0  0  0  0  0  0
   15.0079   24.5697   18.6052 H   0  0  0  0  0  0  0  0  0  0  0  0
   16.4376   23.3020   19.1926 C   0  0  0  0  0  0  0  0  0  0  0  0
   17.9158   23.3981   19.0453 C   0  0  0  0  0  0  0  0  0  0  0  0
   19.1789   24.4753   17.1673 C   0  0  0  0  0  0  0  0  0  0  0  0
   19.5292   23.4084   16.7335 O   0  0  0  0  0  0  0  0  0  0  0  0
   18.3642   24.5562   18.2782 N   0  0  0  0  0  0  0  0  0  0  0  0
   18.0677   25.4483   18.5709 H   0  0  0  0  0  0  0  0  0  0  0  0
   19.6767   25.7882   16.6441 C   0  0  0  0  0  0  0  0  0  0  0  0
   21.5931   26.8329   17.7569 C   0  0  0  0  0  0  0  0  0  0  0  0
   20.8701   27.6272   18.3625 O   0  0  0  0  0  0  0  0  0  0  0  0
   21.1064   25.9124   16.9427 N   0  0  0  0  0  0  0  0  0  0  0  0
   21.7320   25.2821   16.5178 H   0  0  0  0  0  0  0  0  0  0  0  0
   23.1266   26.9134   17.9619 C   0  0  0  0  0  0  0  0  0  0  0  0
   24.2649   25.1890   19.3934 C   0  0  0  0  0  0  0  0  0  0  0  0
   24.1333   25.9543   20.3497 O   0  0  0  0  0  0  0  0  0  0  0  0
   24.8972   23.8567   19.3739 C   0  0  0  0  0  0  0  0  0  0  0  0
   23.7518   25.6379   18.1330 N   0  0  0  0  0  0  0  0  0  0  0  0
   23.8327   25.0437   17.3522 H   0  0  0  0  0  0  0  0  0  0  0  0
   23.7202   27.7265   16.8017 C   0  0  0  0  0  0  0  0  0  0  0  0
   22.6223   28.4148   16.2182 O   0  0  0  0  0  0  0  0  0  0  0  0
   24.3613   26.7900   15.7397 C   0  0  0  0  0  0  0  0  0  0  0  0
   21.9590   27.7725   15.9209 H   0  0  0  0  0  0  0  0  0  0  0  0
   19.3942   25.9098   15.1247 C   0  0  0  0  0  0  0  0  0  0  0  0
   17.9201   25.7959   14.8736 C   0  0  0  0  0  0  0  0  0  0  0  0
   19.9894   27.1578   14.4908 C   0  0  0  0  0  0  0  0  0  0  0  0
   19.6653   27.3449   13.0430 C   0  0  0  0  0  0  0  0  0  0  0  0
   18.6650   23.3657   20.3923 C   0  0  0  0  0  0  0  0  0  0  0  0
   20.0068   22.6849   20.3893 C   0  0  0  0  0  0  0  0  0  0  0  0
   21.1750   23.5930   20.4442 C   0  0  0  0  0  0  0  0  0  0  0  0
   20.8158   25.0228   20.8650 C   0  0  0  0  0  0  0  0  0  0  0  0
   15.6733   23.1313   15.8030 C   0  0  0  0  0  0  0  0  0  0  0  0
   14.7095   22.7228   14.7549 C   0  0  0  0  0  0  0  0  0  0  0  0
   14.7462   21.2672   14.3580 C   0  0  0  0  0  0  0  0  0  0  0  0
   14.7691   21.1800   12.8366 C   0  0  0  0  0  0  0  0  0  0  0  0
 50 51  2  0  0  0
 50 52  1  0  0  0
 53 49  1  0  0  0
 49 45  1  0  0  0
 49 55  1  0  0  0
 45 46  2  0  0  0
 55 56  1  0  0  0
 55 57  1  0  0  0
 47 44  1  0  0  0
 44 40  1  0  0  0
 44 59  1  0  0  0
 40 41  2  0  0  0
 59 61  1  0  0  0
 59 60  1  0  0  0
 61 62  1  0  0  0
 42 39  1  0  0  0
 39 38  1  0  0  0
 39 63  1  0  0  0
 63 64  1  0  0  0
 64 65  1  0  0  0
 65 66  1  0  0  0
 36  1  1  0  0  0
  1  2  1  0  0  0
  1 67  1  0  0  0
  2  3  2  0  0  0
 67 68  1  0  0  0
 68 69  1  0  0  0
 69 70  1  0  0  0
  4  6  1  0  0  0
  6  7  1  0  0  0
  6 29  1  0  0  0
  7  8  2  0  0  0
 29 30  1  0  0  0
 30 31  1  0  0  0
 31 32  2  0  0  0
 31 33  1  0  0  0
  9 11  1  0  0  0
 11 12  1  0  0  0
 11 17  1  0  0  0
 12 13  2  0  0  0
 17 18  1  0  0  0
 18 19  1  0  0  0
 19 20  1  0  0  0
 20 22  1  0  0  0
 22 23  1  0  0  0
 22 24  2  0  0  0
 50 53  1  0  0  0
 45 47  1  0  0  0
 40 42  1  0  0  0
 38 36  1  0  0  0
  2  4  1  0  0  0
  7  9  1  0  0  0
 12 14  1  0  0  0
 53 54  1  0  0  0
 56 58  1  0  0  0
 47 48  1  0  0  0
 42 43  1  0  0  0
 36 37  1  0  0  0
  4  5  1  0  0  0
 33 34  1  0  0  0
 33 35  1  0  0  0
  9 10  1  0  0  0
 20 21  1  0  0  0
 23 25  1  0  0  0
 23 26  1  0  0  0
 24 27  1  0  0  0
 24 28  1  0  0  0
 14 15  1  0  0  0
 14 16  1  0  0  0
M  CHG 1  24   1
M  END
> <minimizedAffinity>
-8.25484

$$$$
3BVA_2NC_B_200


 70 69  0  0  0  0  0  0  0  0999 V2000
   17.9406   22.3406   18.9426 C   0  0  0  0  0  0  0  0  0  0  0  0
   17.1369   21.2200   18.2942 C   0  0  0  0  0  0  0  0  0  0  0  0
   17.3698   20.8036   17.1521 O   0  0  0  0  0  0  0  0  0  0  0  0
   16.0869   20.7693   18.9736 N   0  0  0  0  0  0  0  0  0  0  0  0
   15.9543   21.0669   19.9027 H   0  0  0  0  0  0  0  0  0  0  0  0
   15.1210   19.8414   18.3776 C   0  0  0  0  0  0  0  0  0  0  0  0
   14.0538   20.6793   17.6758 C   0  0  0  0  0  0  0  0  0  0  0  0
   13.9050   21.8791   17.8991 O   0  0  0  0  0  0  0  0  0  0  0  0
   13.2381   19.9802   16.9144 N   0  0  0  0  0  0  0  0  0  0  0  0
   13.3691   19.0075   16.8373 H   0  0  0  0  0  0  0  0  0  0  0  0
   12.1574   20.6035   16.1904 C   0  0  0  0  0  0  0  0  0  0  0  0
   10.8503   19.9591   16.6490 C   0  0  0  0  0  0  0  0  0  0  0  0
   10.7009   18.7406   16.6841 O   0  0  0  0  0  0  0  0  0  0  0  0
    9.8089   20.8407   17.0315 N   0  0  0  0  0  0  0  0  0  0  0  0
    9.9502   21.8144   16.9956 H   0  0  0  0  0  0  0  0  0  0  0  0
    8.9441   20.4796   17.3331 H   0  0  0  0  0  0  0  0  0  0  0  0
   12.3297   20.4673   14.6908 C   0  0  0  0  0  0  0  0  0  0  0  0
   13.7220   20.0592   14.2372 C   0  0  0  0  0  0  0  0  0  0  0  0
   14.5287   21.2609   13.7293 C   0  0  0  0  0  0  0  0  0  0  0  0
   15.3148   21.8778   14.8146 N   0  0  0  0  0  0  0  0  0  0  0  0
   16.0959   21.3861   15.1573 H   0  0  0  0  0  0  0  0  0  0  0  0
   15.0355   23.0424   15.3507 C   0  0  0  0  0  0  0  0  0  0  0  0
   16.0412   23.6340   16.0019 N   0  0  0  0  0  0  0  0  0  0  0  0
   13.8443   23.6215   15.2517 N   0  0  0  0  0  0  0  0  0  0  0  0
   16.9169   23.1885   16.0643 H   0  0  0  0  0  0  0  0  0  0  0  0
   15.9064   24.5154   16.4193 H   0  0  0  0  0  0  0  0  0  0  0  0
   13.1159   23.1693   14.7676 H   0  0  0  0  0  0  0  0  0  0  0  0
   13.6896   24.5028   15.6623 H   0  0  0  0  0  0  0  0  0  0  0  0
   14.5735   18.8844   19.4049 C   0  0  0  0  0  0  0  0  0  0  0  0
   13.3862   19.3783   20.1644 C   0  0  0  0  0  0  0  0  0  0  0  0
   12.1644   18.5174   20.1032 C   0  0  0  0  0  0  0  0  0  0  0  0
   11.2321   18.7241   20.8704 O   0  0  0  0  0  0  0  0  0  0  0  0
   12.0706   17.5793   19.2001 N   0  0  0  0  0  0  0  0  0  0  0  0
   12.8198   17.4131   18.5834 H   0  0  0  0  0  0  0  0  0  0  0  0
   11.2507   17.0382   19.1357 H   0  0  0  0  0  0  0  0  0  0  0  0
   18.0677   23.4776   18.0769 N   0  0  0  0  0  0  0  0  0  0  0  0
   17.7639   24.3008   18.5968 H   0  0  0  0  0  0  0  0  0  0  0  0
   19.3846   23.7404   17.5697 C   0  0  0  0  0  0  0  0  0  0  0  0
   19.6723   25.1880   17.3751 C   0  0  0  0  0  0  0  0  0  0  0  0
   21.5441   26.7114   18.0521 C   0  0  0  0  0  0  0  0  0  0  0  0
   20.7796   27.5093   18.5296 O   0  0  0  0  0  0  0  0  0  0  0  0
   21.0850   25.5360   17.4934 N   0  0  0  0  0  0  0  0  0  0  0  0
   21.7499   24.8938   17.1545 H   0  0  0  0  0  0  0  0  0  0  0  0
   23.0146   26.9576   17.9018 C   0  0  0  0  0  0  0  0  0  0  0  0
   24.4318   25.8659   19.5755 C   0  0  0  0  0  0  0  0  0  0  0  0
   24.4585   26.8759   20.2823 O   0  0  0  0  0  0  0  0  0  0  0  0
   23.7506   25.8119   18.4442 N   0  0  0  0  0  0  0  0  0  0  0  0
   23.7368   24.9644   17.9434 H   0  0  0  0  0  0  0  0  0  0  0  0
   25.2211   24.6136   20.0327 C   0  0  0  0  0  0  0  0  0  0  0  0
   26.3081   24.4417   22.2927 C   0  0  0  0  0  0  0  0  0  0  0  0
   27.3785   24.7297   21.7553 O   0  0  0  0  0  0  0  0  0  0  0  0
   26.0545   24.1437   23.7147 C   0  0  0  0  0  0  0  0  0  0  0  0
   25.1567   24.3761   21.4422 N   0  0  0  0  0  0  0  0  0  0  0  0
   24.2849   24.1586   21.8445 H   0  0  0  0  0  0  0  0  0  0  0  0
   24.7431   23.4175   19.1960 C   0  0  0  0  0  0  0  0  0  0  0  0
   23.4381   23.1170   19.6720 O   0  0  0  0  0  0  0  0  0  0  0  0
   25.6647   22.1851   19.4138 C   0  0  0  0  0  0  0  0  0  0  0  0
   23.4782   22.9153   20.6199 H   0  0  0  0  0  0  0  0  0  0  0  0
   23.3724   27.2197   16.4163 C   0  0  0  0  0  0  0  0  0  0  0  0
   22.3895   28.1836   15.8217 C   0  0  0  0  0  0  0  0  0  0  0  0
   24.8116   27.6636   16.2039 C   0  0  0  0  0  0  0  0  0  0  0  0
   25.7295   26.6008   15.6900 C   0  0  0  0  0  0  0  0  0  0  0  0
   19.1269   25.7433   16.0443 C   0  0  0  0  0  0  0  0  0  0  0  0
   20.0259   25.5983   14.8465 C   0  0  0  0  0  0  0  0  0  0  0  0
   19.4353   26.0293   13.5588 C   0  0  0  0  0  0  0  0  0  0  0  0
   19.8518   27.4444   13.1411 C   0  0  0  0  0  0  0  0  0  0  0  0
   17.4065   22.6667   20.3511 C   0  0  0  0  0  0  0  0  0  0  0  0
   18.0041   23.9042   20.9039 C   0  0  0  0  0  0  0  0  0  0  0  0
   19.3237   23.7365   21.6167 C   0  0  0  0  0  0  0  0  0  0  0  0
   20.3185   24.7348   21.0363 C   0  0  0  0  0  0  0  0  0  0  0  0
 50 51  2  0  0  0
 50 52  1  0  0  0
 53 49  1  0  0  0
 49 45  1  0  0  0
 49 55  1  0  0  0
 45 46  2  0  0  0
 55 56  1  0  0  0
 55 57  1  0  0  0
 47 44  1  0  0  0
 44 40  1  0  0  0
 44 59  1  0  0  0
 40 41  2  0  0  0
 59 61  1  0  0  0
 59 60  1  0  0  0
 61 62  1  0  0  0
 42 39  1  0  0  0
 39 38  1  0  0  0
 39 63  1  0  0  0
 63 64  1  0  0  0
 64 65  1  0  0  0
 65 66  1  0  0  0
 36  1  1  0  0  0
  1  2  1  0  0  0
  1 67  1  0  0  0
  2  3  2  0  0  0
 67 68  1  0  0  0
 68 69  1  0  0  0
 69 70  1  0  0  0
  4  6  1  0  0  0
  6  7  1  0  0  0
  6 29  1  0  0  0
  7  8  2  0  0  0
 29 30  1  0  0  0
 30 31  1  0  0  0
 31 32  2  0  0  0
 31 33  1  0  0  0
  9 11  1  0  0  0
 11 12  1  0  0  0
 11 17  1  0  0  0
 12 13  2  0  0  0
 17 18  1  0  0  0
 18 19  1  0  0  0
 19 20  1  0  0  0
 20 22  1  0  0  0
 22 23  1  0  0  0
 22 24  2  0  0  0
 50 53  1  0  0  0
 45 47  1  0  0  0
 40 42  1  0  0  0
 38 36  1  0  0  0
  2  4  1  0  0  0
  7  9  1  0  0  0
 12 14  1  0  0  0
 53 54  1  0  0  0
 56 58  1  0  0  0
 47 48  1  0  0  0
 42 43  1  0  0  0
 36 37  1  0  0  0
  4  5  1  0  0  0
 33 34  1  0  0  0
 33 35  1  0  0  0
  9 10  1  0  0  0
 20 21  1  0  0  0
 23 25  1  0  0  0
 23 26  1  0  0  0
 24 27  1  0  0  0
 24 28  1  0  0  0
 14 15  1  0  0  0
 14 16  1  0  0  0
M  CHG 1  24   1
M  END
> <minimizedAffinity>
-8.11447

$$$$
3BVA_2NC_B_200


 70 69  0  0  0  0  0  0  0  0999 V2000
   17.9429   23.6673   19.3269 C   0  0  0  0  0  0  0  0  0  0  0  0
   16.5196   23.7410   18.7875 C   0  0  0  0  0  0  0  0  0  0  0  0
   15.7636   24.6926   19.0214 O   0  0  0  0  0  0  0  0  0  0  0  0
   16.0750   22.6739   18.1310 N   0  0  0  0  0  0  0  0  0  0  0  0
   16.7076   21.9553   17.9014 H   0  0  0  0  0  0  0  0  0  0  0  0
   14.6688   22.5378   17.7395 C   0  0  0  0  0  0  0  0  0  0  0  0
   14.2579   21.0904   18.0035 C   0  0  0  0  0  0  0  0  0  0  0  0
   15.0794   20.1959   18.1947 O   0  0  0  0  0  0  0  0  0  0  0  0
   12.9652   20.8696   17.8838 N   0  0  0  0  0  0  0  0  0  0  0  0
   12.3695   21.6195   17.6556 H   0  0  0  0  0  0  0  0  0  0  0  0
   12.4000   19.5570   18.0785 C   0  0  0  0  0  0  0  0  0  0  0  0
   11.1595   19.4427   17.1941 C   0  0  0  0  0  0  0  0  0  0  0  0
   11.0202   18.5336   16.3801 O   0  0  0  0  0  0  0  0  0  0  0  0
   10.1710   20.4451   17.3559 N   0  0  0  0  0  0  0  0  0  0  0  0
   10.3031   21.1648   18.0145 H   0  0  0  0  0  0  0  0  0  0  0  0
    9.3522   20.4217   16.8099 H   0  0  0  0  0  0  0  0  0  0  0  0
   12.0527   19.3014   19.5315 C   0  0  0  0  0  0  0  0  0  0  0  0
   12.5667   17.9861   20.0945 C   0  0  0  0  0  0  0  0  0  0  0  0
   11.9825   16.7813   19.3461 C   0  0  0  0  0  0  0  0  0  0  0  0
   10.5079   16.8249   19.3257 N   0  0  0  0  0  0  0  0  0  0  0  0
   10.0592   17.5410   19.8308 H   0  0  0  0  0  0  0  0  0  0  0  0
    9.7586   15.9665   18.6749 C   0  0  0  0  0  0  0  0  0  0  0  0
    9.3910   16.3378   17.4451 N   0  0  0  0  0  0  0  0  0  0  0  0
    9.3912   14.7939   19.1788 N   0  0  0  0  0  0  0  0  0  0  0  0
    9.6736   17.2112   17.0894 H   0  0  0  0  0  0  0  0  0  0  0  0
    8.8376   15.7378   16.8946 H   0  0  0  0  0  0  0  0  0  0  0  0
    9.6722   14.5386   20.0872 H   0  0  0  0  0  0  0  0  0  0  0  0
    8.8377   14.1799   18.6440 H   0  0  0  0  0  0  0  0  0  0  0  0
   14.4484   22.9896   16.3189 C   0  0  0  0  0  0  0  0  0  0  0  0
   15.1930   22.2138   15.2825 C   0  0  0  0  0  0  0  0  0  0  0  0
   14.3567   21.4022   14.3446 C   0  0  0  0  0  0  0  0  0  0  0  0
   13.2301   21.0538   14.6759 O   0  0  0  0  0  0  0  0  0  0  0  0
   14.8073   21.1083   13.1551 N   0  0  0  0  0  0  0  0  0  0  0  0
   15.7128   21.3882   12.8887 H   0  0  0  0  0  0  0  0  0  0  0  0
   14.2417   20.6067   12.5245 H   0  0  0  0  0  0  0  0  0  0  0  0
   18.8073   24.6163   18.6861 N   0  0  0  0  0  0  0  0  0  0  0  0
   19.6662   24.6747   19.2332 H   0  0  0  0  0  0  0  0  0  0  0  0
   19.1709   24.3227   17.3289 C   0  0  0  0  0  0  0  0  0  0  0  0
   19.8104   25.4654   16.6207 C   0  0  0  0  0  0  0  0  0  0  0  0
   21.6550   26.8404   17.6155 C   0  0  0  0  0  0  0  0  0  0  0  0
   20.8904   27.7137   17.9348 O   0  0  0  0  0  0  0  0  0  0  0  0
   21.2029   25.6940   16.9944 N   0  0  0  0  0  0  0  0  0  0  0  0
   21.8585   24.9882   16.7912 H   0  0  0  0  0  0  0  0  0  0  0  0
   23.1441   26.9554   17.7369 C   0  0  0  0  0  0  0  0  0  0  0  0
   23.9327   26.3265   19.9695 C   0  0  0  0  0  0  0  0  0  0  0  0
   23.8006   27.4769   20.3931 O   0  0  0  0  0  0  0  0  0  0  0  0
   23.6204   25.9887   18.7304 N   0  0  0  0  0  0  0  0  0  0  0  0
   23.7117   25.0457   18.4628 H   0  0  0  0  0  0  0  0  0  0  0  0
   24.4795   25.2369   20.9256 C   0  0  0  0  0  0  0  0  0  0  0  0
   24.6634   23.0319   19.7329 C   0  0  0  0  0  0  0  0  0  0  0  0
   23.4437   22.9102   19.8542 O   0  0  0  0  0  0  0  0  0  0  0  0
   25.6145   22.0929   19.1092 C   0  0  0  0  0  0  0  0  0  0  0  0
   25.2484   24.2264   20.2662 N   0  0  0  0  0  0  0  0  0  0  0  0
   26.2199   24.3573   20.1751 H   0  0  0  0  0  0  0  0  0  0  0  0
   25.2463   25.9375   22.0573 C   0  0  0  0  0  0  0  0  0  0  0  0
   26.3531   26.5722   21.4312 O   0  0  0  0  0  0  0  0  0  0  0  0
   25.7672   24.9050   23.0957 C   0  0  0  0  0  0  0  0  0  0  0  0
   26.8910   25.9070   20.9739 H   0  0  0  0  0  0  0  0  0  0  0  0
   23.8196   26.7425   16.3579 C   0  0  0  0  0  0  0  0  0  0  0  0
   23.8625   28.0414   15.6096 C   0  0  0  0  0  0  0  0  0  0  0  0
   25.1881   26.0841   16.4433 C   0  0  0  0  0  0  0  0  0  0  0  0
   26.2477   26.7221   15.6028 C   0  0  0  0  0  0  0  0  0  0  0  0
   19.7115   25.3623   15.0858 C   0  0  0  0  0  0  0  0  0  0  0  0
   18.9446   26.4571   14.3950 C   0  0  0  0  0  0  0  0  0  0  0  0
   19.5674   26.9794   13.1573 C   0  0  0  0  0  0  0  0  0  0  0  0
   20.8566   27.7694   13.4107 C   0  0  0  0  0  0  0  0  0  0  0  0
   17.9592   23.7267   20.8670 C   0  0  0  0  0  0  0  0  0  0  0  0
   19.3363   23.7626   21.4114 C   0  0  0  0  0  0  0  0  0  0  0  0
   20.1848   22.5451   21.1368 C   0  0  0  0  0  0  0  0  0  0  0  0
   19.5280   21.3379   21.7958 C   0  0  0  0  0  0  0  0  0  0  0  0
 50 51  2  0  0  0
 50 52  1  0  0  0
 53 49  1  0  0  0
 49 45  1  0  0  0
 49 55  1  0  0  0
 45 46  2  0  0  0
 55 56  1  0  0  0
 55 57  1  0  0  0
 47 44  1  0  0  0
 44 40  1  0  0  0
 44 59  1  0  0  0
 40 41  2  0  0  0
 59 61  1  0  0  0
 59 60  1  0  0  0
 61 62  1  0  0  0
 42 39  1  0  0  0
 39 38  1  0  0  0
 39 63  1  0  0  0
 63 64  1  0  0  0
 64 65  1  0  0  0
 65 66  1  0  0  0
 36  1  1  0  0  0
  1  2  1  0  0  0
  1 67  1  0  0  0
  2  3  2  0  0  0
 67 68  1  0  0  0
 68 69  1  0  0  0
 69 70  1  0  0  0
  4  6  1  0  0  0
  6  7  1  0  0  0
  6 29  1  0  0  0
  7  8  2  0  0  0
 29 30  1  0  0  0
 30 31  1  0  0  0
 31 32  2  0  0  0
 31 33  1  0  0  0
  9 11  1  0  0  0
 11 12  1  0  0  0
 11 17  1  0  0  0
 12 13  2  0  0  0
 17 18  1  0  0  0
 18 19  1  0  0  0
 19 20  1  0  0  0
 20 22  1  0  0  0
 22 23  1  0  0  0
 22 24  2  0  0  0
 50 53  1  0  0  0
 45 47  1  0  0  0
 40 42  1  0  0  0
 38 36  1  0  0  0
  2  4  1  0  0  0
  7  9  1  0  0  0
 12 14  1  0  0  0
 53 54  1  0  0  0
 56 58  1  0  0  0
 47 48  1  0  0  0
 42 43  1  0  0  0
 36 37  1  0  0  0
  4  5  1  0  0  0
 33 34  1  0  0  0
 33 35  1  0  0  0
  9 10  1  0  0  0
 20 21  1  0  0  0
 23 25  1  0  0  0
 23 26  1  0  0  0
 24 27  1  0  0  0
 24 28  1  0  0  0
 14 15  1  0  0  0
 14 16  1  0  0  0
M  CHG 1  24   1
M  END
> <minimizedAffinity>
-7.97225

$$$$
3BVA_2NC_B_200


 70 69  0  0  0  0  0  0  0  0999 V2000
   19.7243   24.7760   16.1167 C   0  0  0  0  0  0  0  0  0  0  0  0
   20.3318   25.5888   17.2536 C   0  0  0  0  0  0  0  0  0  0  0  0
   20.3952   26.8247   17.2333 O   0  0  0  0  0  0  0  0  0  0  0  0
   20.8986   24.9020   18.2406 N   0  0  0  0  0  0  0  0  0  0  0  0
   20.7842   23.9247   18.2710 H   0  0  0  0  0  0  0  0  0  0  0  0
   21.6895   25.5599   19.2852 C   0  0  0  0  0  0  0  0  0  0  0  0
   23.1388   25.1081   19.1153 C   0  0  0  0  0  0  0  0  0  0  0  0
   23.5978   24.1299   19.7018 O   0  0  0  0  0  0  0  0  0  0  0  0
   23.8741   25.9258   18.3909 N   0  0  0  0  0  0  0  0  0  0  0  0
   23.4596   26.7334   18.0097 H   0  0  0  0  0  0  0  0  0  0  0  0
   25.2712   25.6683   18.1417 C   0  0  0  0  0  0  0  0  0  0  0  0
   26.0882   26.6089   19.0259 C   0  0  0  0  0  0  0  0  0  0  0  0
   25.5944   27.6025   19.5524 O   0  0  0  0  0  0  0  0  0  0  0  0
   27.4545   26.2802   19.2083 N   0  0  0  0  0  0  0  0  0  0  0  0
   27.8299   25.4788   18.7769 H   0  0  0  0  0  0  0  0  0  0  0  0
   28.0284   26.8532   19.7666 H   0  0  0  0  0  0  0  0  0  0  0  0
   25.6280   25.8546   16.6805 C   0  0  0  0  0  0  0  0  0  0  0  0
   24.6116   26.6367   15.8643 C   0  0  0  0  0  0  0  0  0  0  0  0
   25.2176   27.9199   15.2819 C   0  0  0  0  0  0  0  0  0  0  0  0
   24.6909   29.1191   15.9609 N   0  0  0  0  0  0  0  0  0  0  0  0
   23.7140   29.2235   16.0241 H   0  0  0  0  0  0  0  0  0  0  0  0
   25.4463   30.0550   16.4857 C   0  0  0  0  0  0  0  0  0  0  0  0
   25.4930   31.2060   15.8087 N   0  0  0  0  0  0  0  0  0  0  0  0
   26.1162   29.8967   17.6216 N   0  0  0  0  0  0  0  0  0  0  0  0
   24.9893   31.3037   14.9685 H   0  0  0  0  0  0  0  0  0  0  0  0
   26.0310   31.9565   16.1501 H   0  0  0  0  0  0  0  0  0  0  0  0
   26.0690   29.0408   18.1058 H   0  0  0  0  0  0  0  0  0  0  0  0
   26.6599   30.6353   17.9795 H   0  0  0  0  0  0  0  0  0  0  0  0
   21.1195   25.2939   20.6546 C   0  0  0  0  0  0  0  0  0  0  0  0
   21.5371   26.2590   21.7151 C   0  0  0  0  0  0  0  0  0  0  0  0
   21.7476   27.6715   21.2699 C   0  0  0  0  0  0  0  0  0  0  0  0
   20.7835   28.4045   21.0864 O   0  0  0  0  0  0  0  0  0  0  0  0
   22.9585   28.1376   21.1258 N   0  0  0  0  0  0  0  0  0  0  0  0
   23.7335   27.5485   21.2733 H   0  0  0  0  0  0  0  0  0  0  0  0
   23.0968   29.0781   20.8697 H   0  0  0  0  0  0  0  0  0  0  0  0
   18.2903   24.7857   16.1593 N   0  0  0  0  0  0  0  0  0  0  0  0
   17.9645   23.8537   15.9030 H   0  0  0  0  0  0  0  0  0  0  0  0
   17.6988   25.1252   17.4224 C   0  0  0  0  0  0  0  0  0  0  0  0
   17.1496   23.9541   18.1594 C   0  0  0  0  0  0  0  0  0  0  0  0
   15.0246   22.8775   17.3796 C   0  0  0  0  0  0  0  0  0  0  0  0
   14.3577   23.5667   18.1072 O   0  0  0  0  0  0  0  0  0  0  0  0
   16.3957   23.0244   17.3239 N   0  0  0  0  0  0  0  0  0  0  0  0
   16.8950   22.4691   16.6824 H   0  0  0  0  0  0  0  0  0  0  0  0
   14.4720   21.7377   16.5790 C   0  0  0  0  0  0  0  0  0  0  0  0
   13.8194   20.0929   18.2733 C   0  0  0  0  0  0  0  0  0  0  0  0
   14.9935   19.8035   18.5143 O   0  0  0  0  0  0  0  0  0  0  0  0
   13.4857   21.0167   17.3889 N   0  0  0  0  0  0  0  0  0  0  0  0
   12.5321   21.2301   17.2687 H   0  0  0  0  0  0  0  0  0  0  0  0
   12.6952   19.3505   19.0384 C   0  0  0  0  0  0  0  0  0  0  0  0
   10.7077   18.8924   17.5693 C   0  0  0  0  0  0  0  0  0  0  0  0
   10.3592   20.0608   17.7449 O   0  0  0  0  0  0  0  0  0  0  0  0
   10.0288   17.8490   16.7784 C   0  0  0  0  0  0  0  0  0  0  0  0
   11.9183   18.4769   18.2137 N   0  0  0  0  0  0  0  0  0  0  0  0
   12.2283   17.5516   18.0835 H   0  0  0  0  0  0  0  0  0  0  0  0
   13.3287   18.6391   20.2434 C   0  0  0  0  0  0  0  0  0  0  0  0
   13.7744   17.3821   19.7524 O   0  0  0  0  0  0  0  0  0  0  0  0
   12.2785   18.4082   21.3657 C   0  0  0  0  0  0  0  0  0  0  0  0
   13.0214   16.8929   19.3856 H   0  0  0  0  0  0  0  0  0  0  0  0
   13.8594   22.2531   15.2515 C   0  0  0  0  0  0  0  0  0  0  0  0
   14.7635   21.9026   14.1075 C   0  0  0  0  0  0  0  0  0  0  0  0
   12.4305   21.7875   15.0169 C   0  0  0  0  0  0  0  0  0  0  0  0
   12.3006   20.5306   14.2172 C   0  0  0  0  0  0  0  0  0  0  0  0
   18.2216   23.1709   18.9430 C   0  0  0  0  0  0  0  0  0  0  0  0
   17.7667   21.8928   19.5937 C   0  0  0  0  0  0  0  0  0  0  0  0
   18.1565   21.7342   21.0133 C   0  0  0  0  0  0  0  0  0  0  0  0
   19.6377   21.3872   21.2030 C   0  0  0  0  0  0  0  0  0  0  0  0
   20.3257   25.1830   14.7572 C   0  0  0  0  0  0  0  0  0  0  0  0
   19.3669   25.9488   13.9275 C   0  0  0  0  0  0  0  0  0  0  0  0
   19.5292   27.4490   13.9490 C   0  0  0  0  0  0  0  0  0  0  0  0
   20.9011   27.7963   13.3831 C   0  0  0  0  0  0  0  0  0  0  0  0
 50 51  2  0  0  0
 50 52  1  0  0  0
 53 49  1  0  0  0
 49 45  1  0  0  0
 49 55  1  0  0  0
 45 46  2  0  0  0
 55 56  1  0  0  0
 55 57  1  0  0  0
 47 44  1  0  0  0
 44 40  1  0  0  0
 44 59  1  0  0  0
 40 41  2  0  0  0
 59 61  1  0  0  0
 59 60  1  0  0  0
 61 62  1  0  0  0
 42 39  1  0  0  0
 39 38  1  0  0  0
 39 63  1  0  0  0
 63 64  1  0  0  0
 64 65  1  0  0  0
 65 66  1  0  0  0
 36  1  1  0  0  0
  1  2  1  0  0  0
  1 67  1  0  0  0
  2  3  2  0  0  0
 67 68  1  0  0  0
 68 69  1  0  0  0
 69 70  1  0  0  0
  4  6  1  0  0  0
  6  7  1  0  0  0
  6 29  1  0  0  0
  7  8  2  0  0  0
 29 30  1  0  0  0
 30 31  1  0  0  0
 31 32  2  0  0  0
 31 33  1  0  0  0
  9 11  1  0  0  0
 11 12  1  0  0  0
 11 17  1  0  0  0
 12 13  2  0  0  0
 17 18  1  0  0  0
 18 19  1  0  0  0
 19 20  1  0  0  0
 20 22  1  0  0  0
 22 23  1  0  0  0
 22 24  2  0  0  0
 50 53  1  0  0  0
 45 47  1  0  0  0
 40 42  1  0  0  0
 38 36  1  0  0  0
  2  4  1  0  0  0
  7  9  1  0  0  0
 12 14  1  0  0  0
 53 54  1  0  0  0
 56 58  1  0  0  0
 47 48  1  0  0  0
 42 43  1  0  0  0
 36 37  1  0  0  0
  4  5  1  0  0  0
 33 34  1  0  0  0
 33 35  1  0  0  0
  9 10  1  0  0  0
 20 21  1  0  0  0
 23 25  1  0  0  0
 23 26  1  0  0  0
 24 27  1  0  0  0
 24 28  1  0  0  0
 14 15  1  0  0  0
 14 16  1  0  0  0
M  CHG 1  24   1
M  END
> <minimizedAffinity>
-7.93616

$$$$
3BVA_2NC_B_200


 70 69  0  0  0  0  0  0  0  0999 V2000
   17.3177   23.8049   19.7628 C   0  0  0  0  0  0  0  0  0  0  0  0
   18.2879   23.8786   18.5899 C   0  0  0  0  0  0  0  0  0  0  0  0
   18.7848   22.8723   18.0680 O   0  0  0  0  0  0  0  0  0  0  0  0
   18.6711   25.0932   18.2088 N   0  0  0  0  0  0  0  0  0  0  0  0
   18.2199   25.8797   18.5921 H   0  0  0  0  0  0  0  0  0  0  0  0
   19.7470   25.2935   17.2333 C   0  0  0  0  0  0  0  0  0  0  0  0
   20.8275   26.1354   17.9095 C   0  0  0  0  0  0  0  0  0  0  0  0
   20.6851   27.3361   18.1321 O   0  0  0  0  0  0  0  0  0  0  0  0
   21.9582   25.4924   18.1146 N   0  0  0  0  0  0  0  0  0  0  0  0
   22.0292   24.5484   17.8443 H   0  0  0  0  0  0  0  0  0  0  0  0
   23.0954   26.1362   18.7252 C   0  0  0  0  0  0  0  0  0  0  0  0
   22.6902   26.5721   20.1322 C   0  0  0  0  0  0  0  0  0  0  0  0
   22.4089   25.7613   21.0107 O   0  0  0  0  0  0  0  0  0  0  0  0
   22.6504   27.9674   20.3768 N   0  0  0  0  0  0  0  0  0  0  0  0
   22.8798   28.5999   19.6580 H   0  0  0  0  0  0  0  0  0  0  0  0
   22.3933   28.3042   21.2654 H   0  0  0  0  0  0  0  0  0  0  0  0
   23.5787   27.3199   17.9112 C   0  0  0  0  0  0  0  0  0  0  0  0
   23.7252   27.0593   16.4206 C   0  0  0  0  0  0  0  0  0  0  0  0
   24.9340   27.7974   15.8315 C   0  0  0  0  0  0  0  0  0  0  0  0
   26.1922   27.3590   16.4648 N   0  0  0  0  0  0  0  0  0  0  0  0
   26.2084   27.2637   17.4445 H   0  0  0  0  0  0  0  0  0  0  0  0
   27.2912   27.0886   15.8007 C   0  0  0  0  0  0  0  0  0  0  0  0
   27.2941   27.4554   14.5159 N   0  0  0  0  0  0  0  0  0  0  0  0
   28.3488   26.5043   16.3523 N   0  0  0  0  0  0  0  0  0  0  0  0
   26.5002   27.8872   14.1255 H   0  0  0  0  0  0  0  0  0  0  0  0
   28.0902   27.2939   13.9597 H   0  0  0  0  0  0  0  0  0  0  0  0
   28.3271   26.2414   17.3008 H   0  0  0  0  0  0  0  0  0  0  0  0
   29.1545   26.3342   15.8127 H   0  0  0  0  0  0  0  0  0  0  0  0
   19.2215   25.8839   15.9502 C   0  0  0  0  0  0  0  0  0  0  0  0
   20.2666   26.3233   14.9780 C   0  0  0  0  0  0  0  0  0  0  0  0
   20.1548   27.7320   14.4875 C   0  0  0  0  0  0  0  0  0  0  0  0
   20.5864   28.6529   15.1702 O   0  0  0  0  0  0  0  0  0  0  0  0
   19.6435   27.9757   13.3112 N   0  0  0  0  0  0  0  0  0  0  0  0
   19.2965   27.2356   12.7624 H   0  0  0  0  0  0  0  0  0  0  0  0
   19.6049   28.8994   12.9730 H   0  0  0  0  0  0  0  0  0  0  0  0
   16.1630   23.0120   19.4524 N   0  0  0  0  0  0  0  0  0  0  0  0
   15.5536   23.0153   20.2704 H   0  0  0  0  0  0  0  0  0  0  0  0
   15.3861   23.4430   18.3249 C   0  0  0  0  0  0  0  0  0  0  0  0
   14.9239   22.3265   17.4555 C   0  0  0  0  0  0  0  0  0  0  0  0
   14.1569   20.2338   18.6023 C   0  0  0  0  0  0  0  0  0  0  0  0
   15.2764   19.7926   18.6400 O   0  0  0  0  0  0  0  0  0  0  0  0
   13.9033   21.4796   18.0655 N   0  0  0  0  0  0  0  0  0  0  0  0
   12.9790   21.8173   18.0957 H   0  0  0  0  0  0  0  0  0  0  0  0
   12.9426   19.4521   19.0023 C   0  0  0  0  0  0  0  0  0  0  0  0
   11.0719   19.1652   17.4467 C   0  0  0  0  0  0  0  0  0  0  0  0
   10.3624   19.9508   18.0791 O   0  0  0  0  0  0  0  0  0  0  0  0
   12.3156   18.8924   17.8015 N   0  0  0  0  0  0  0  0  0  0  0  0
   12.8443   18.2862   17.2339 H   0  0  0  0  0  0  0  0  0  0  0  0
   10.4861   18.4773   16.1882 C   0  0  0  0  0  0  0  0  0  0  0  0
    9.9975   16.0975   16.8331 C   0  0  0  0  0  0  0  0  0  0  0  0
   11.2130   15.9033   16.8813 O   0  0  0  0  0  0  0  0  0  0  0  0
    8.9107   15.1321   17.0823 C   0  0  0  0  0  0  0  0  0  0  0  0
    9.5692   17.4199   16.4850 N   0  0  0  0  0  0  0  0  0  0  0  0
    8.6036   17.6087   16.4487 H   0  0  0  0  0  0  0  0  0  0  0  0
    9.8824   19.5657   15.2879 C   0  0  0  0  0  0  0  0  0  0  0  0
    8.6991   19.9934   15.9488 O   0  0  0  0  0  0  0  0  0  0  0  0
    9.5108   18.9884   13.8935 C   0  0  0  0  0  0  0  0  0  0  0  0
    8.1038   19.2368   16.0678 H   0  0  0  0  0  0  0  0  0  0  0  0
   13.3196   18.3472   20.0222 C   0  0  0  0  0  0  0  0  0  0  0  0
   13.4268   18.9410   21.3950 C   0  0  0  0  0  0  0  0  0  0  0  0
   12.3910   17.1429   19.9890 C   0  0  0  0  0  0  0  0  0  0  0  0
   11.9027   16.6868   21.3267 C   0  0  0  0  0  0  0  0  0  0  0  0
   14.4279   22.7964   16.0736 C   0  0  0  0  0  0  0  0  0  0  0  0
   15.1579   22.2393   14.8817 C   0  0  0  0  0  0  0  0  0  0  0  0
   14.3237   21.4596   13.9389 C   0  0  0  0  0  0  0  0  0  0  0  0
   13.5504   20.3186   14.6101 C   0  0  0  0  0  0  0  0  0  0  0  0
   18.0422   23.3975   21.0607 C   0  0  0  0  0  0  0  0  0  0  0  0
   19.4755   23.7708   21.0428 C   0  0  0  0  0  0  0  0  0  0  0  0
   20.4550   22.6278   21.1507 C   0  0  0  0  0  0  0  0  0  0  0  0
   19.7432   21.4374   21.7826 C   0  0  0  0  0  0  0  0  0  0  0  0
 50 51  2  0  0  0
 50 52  1  0  0  0
 53 49  1  0  0  0
 49 45  1  0  0  0
 49 55  1  0  0  0
 45 46  2  0  0  0
 55 56  1  0  0  0
 55 57  1  0  0  0
 47 44  1  0  0  0
 44 40  1  0  0  0
 44 59  1  0  0  0
 40 41  2  0  0  0
 59 61  1  0  0  0
 59 60  1  0  0  0
 61 62  1  0  0  0
 42 39  1  0  0  0
 39 38  1  0  0  0
 39 63  1  0  0  0
 63 64  1  0  0  0
 64 65  1  0  0  0
 65 66  1  0  0  0
 36  1  1  0  0  0
  1  2  1  0  0  0
  1 67  1  0  0  0
  2  3  2  0  0  0
 67 68  1  0  0  0
 68 69  1  0  0  0
 69 70  1  0  0  0
  4  6  1  0  0  0
  6  7  1  0  0  0
  6 29  1  0  0  0
  7  8  2  0  0  0
 29 30  1  0  0  0
 30 31  1  0  0  0
 31 32  2  0  0  0
 31 33  1  0  0  0
  9 11  1  0  0  0
 11 12  1  0  0  0
 11 17  1  0  0  0
 12 13  2  0  0  0
 17 18  1  0  0  0
 18 19  1  0  0  0
 19 20  1  0  0  0
 20 22  1  0  0  0
 22 23  1  0  0  0
 22 24  2  0  0  0
 50 53  1  0  0  0
 45 47  1  0  0  0
 40 42  1  0  0  0
 38 36  1  0  0  0
  2  4  1  0  0  0
  7  9  1  0  0  0
 12 14  1  0  0  0
 53 54  1  0  0  0
 56 58  1  0  0  0
 47 48  1  0  0  0
 42 43  1  0  0  0
 36 37  1  0  0  0
  4  5  1  0  0  0
 33 34  1  0  0  0
 33 35  1  0  0  0
  9 10  1  0  0  0
 20 21  1  0  0  0
 23 25  1  0  0  0
 23 26  1  0  0  0
 24 27  1  0  0  0
 24 28  1  0  0  0
 14 15  1  0  0  0
 14 16  1  0  0  0
M  CHG 1  24   1
M  END
> <minimizedAffinity>
-7.86477

$$$$
3BVA_2NC_B_200


 70 69  0  0  0  0  0  0  0  0999 V2000
   17.6242   23.2823   19.3028 C   0  0  0  0  0  0  0  0  0  0  0  0
   18.3876   23.6570   18.0383 C   0  0  0  0  0  0  0  0  0  0  0  0
   18.6990   22.8277   17.1739 O   0  0  0  0  0  0  0  0  0  0  0  0
   18.8080   24.9148   17.9465 N   0  0  0  0  0  0  0  0  0  0  0  0
   18.4989   25.5726   18.6106 H   0  0  0  0  0  0  0  0  0  0  0  0
   19.7194   25.3495   16.8836 C   0  0  0  0  0  0  0  0  0  0  0  0
   20.7637   26.2640   17.5212 C   0  0  0  0  0  0  0  0  0  0  0  0
   20.4592   27.2807   18.1418 O   0  0  0  0  0  0  0  0  0  0  0  0
   22.0075   25.9350   17.2407 N   0  0  0  0  0  0  0  0  0  0  0  0
   22.1797   25.1479   16.6748 H   0  0  0  0  0  0  0  0  0  0  0  0
   23.1241   26.6984   17.7416 C   0  0  0  0  0  0  0  0  0  0  0  0
   23.6440   27.5743   16.6030 C   0  0  0  0  0  0  0  0  0  0  0  0
   24.3916   28.5280   16.8028 O   0  0  0  0  0  0  0  0  0  0  0  0
   23.2167   27.2339   15.2955 N   0  0  0  0  0  0  0  0  0  0  0  0
   22.6172   26.4652   15.1580 H   0  0  0  0  0  0  0  0  0  0  0  0
   23.5194   27.7662   14.5245 H   0  0  0  0  0  0  0  0  0  0  0  0
   24.2231   25.8046   18.2805 C   0  0  0  0  0  0  0  0  0  0  0  0
   24.8073   26.2363   19.6159 C   0  0  0  0  0  0  0  0  0  0  0  0
   24.1277   25.5213   20.7906 C   0  0  0  0  0  0  0  0  0  0  0  0
   23.4348   26.4784   21.6740 N   0  0  0  0  0  0  0  0  0  0  0  0
   23.3308   26.2400   22.6235 H   0  0  0  0  0  0  0  0  0  0  0  0
   22.9489   27.6285   21.2702 C   0  0  0  0  0  0  0  0  0  0  0  0
   23.7874   28.6663   21.3419 N   0  0  0  0  0  0  0  0  0  0  0  0
   21.7141   27.7720   20.8023 N   0  0  0  0  0  0  0  0  0  0  0  0
   24.6989   28.5395   21.6917 H   0  0  0  0  0  0  0  0  0  0  0  0
   23.4937   29.5578   21.0448 H   0  0  0  0  0  0  0  0  0  0  0  0
   21.1113   26.9949   20.7575 H   0  0  0  0  0  0  0  0  0  0  0  0
   21.4017   28.6554   20.5004 H   0  0  0  0  0  0  0  0  0  0  0  0
   18.9676   25.9795   15.7395 C   0  0  0  0  0  0  0  0  0  0  0  0
   19.7692   26.2049   14.4998 C   0  0  0  0  0  0  0  0  0  0  0  0
   19.9815   27.6326   14.1071 C   0  0  0  0  0  0  0  0  0  0  0  0
   20.2917   28.4601   14.9553 O   0  0  0  0  0  0  0  0  0  0  0  0
   19.8859   27.9868   12.8542 N   0  0  0  0  0  0  0  0  0  0  0  0
   19.6366   27.3218   12.1723 H   0  0  0  0  0  0  0  0  0  0  0  0
   20.0630   28.9188   12.5912 H   0  0  0  0  0  0  0  0  0  0  0  0
   16.2080   23.4440   19.1401 N   0  0  0  0  0  0  0  0  0  0  0  0
   15.9403   24.3188   19.5911 H   0  0  0  0  0  0  0  0  0  0  0  0
   15.7286   23.4829   17.7876 C   0  0  0  0  0  0  0  0  0  0  0  0
   15.4029   22.1416   17.2300 C   0  0  0  0  0  0  0  0  0  0  0  0
   14.3502   20.2288   18.4611 C   0  0  0  0  0  0  0  0  0  0  0  0
   15.3899   19.6230   18.4965 O   0  0  0  0  0  0  0  0  0  0  0  0
   14.2782   21.4809   17.8852 N   0  0  0  0  0  0  0  0  0  0  0  0
   13.4171   21.9568   17.9183 H   0  0  0  0  0  0  0  0  0  0  0  0
   13.0397   19.6555   18.9074 C   0  0  0  0  0  0  0  0  0  0  0  0
   11.0079   19.3922   17.5641 C   0  0  0  0  0  0  0  0  0  0  0  0
   10.3374   20.0524   18.3609 O   0  0  0  0  0  0  0  0  0  0  0  0
   12.3010   19.1780   17.7349 N   0  0  0  0  0  0  0  0  0  0  0  0
   12.7898   18.6754   17.0437 H   0  0  0  0  0  0  0  0  0  0  0  0
   10.3106   18.7967   16.3153 C   0  0  0  0  0  0  0  0  0  0  0  0
    9.4395   20.7783   15.0374 C   0  0  0  0  0  0  0  0  0  0  0  0
    8.6473   20.9743   15.9601 O   0  0  0  0  0  0  0  0  0  0  0  0
    9.5883   21.5458   13.7868 C   0  0  0  0  0  0  0  0  0  0  0  0
   10.3297   19.6642   15.1776 N   0  0  0  0  0  0  0  0  0  0  0  0
   10.9817   19.4883   14.4612 H   0  0  0  0  0  0  0  0  0  0  0  0
   10.9300   17.4193   16.0353 C   0  0  0  0  0  0  0  0  0  0  0  0
   11.0364   17.3300   14.6209 O   0  0  0  0  0  0  0  0  0  0  0  0
   10.0069   16.2810   16.5530 C   0  0  0  0  0  0  0  0  0  0  0  0
   10.1572   17.4300   14.2235 H   0  0  0  0  0  0  0  0  0  0  0  0
   13.2661   18.5249   19.9436 C   0  0  0  0  0  0  0  0  0  0  0  0
   12.6577   18.9140   21.2579 C   0  0  0  0  0  0  0  0  0  0  0  0
   12.7889   17.1598   19.4722 C   0  0  0  0  0  0  0  0  0  0  0  0
   11.4819   16.7160   20.0476 C   0  0  0  0  0  0  0  0  0  0  0  0
   15.1596   22.1582   15.7077 C   0  0  0  0  0  0  0  0  0  0  0  0
   13.7850   21.7511   15.2508 C   0  0  0  0  0  0  0  0  0  0  0  0
   13.7527   20.7106   14.1978 C   0  0  0  0  0  0  0  0  0  0  0  0
   14.6647   21.0222   13.0055 C   0  0  0  0  0  0  0  0  0  0  0  0
   18.0534   21.8964   19.8230 C   0  0  0  0  0  0  0  0  0  0  0  0
   19.3609   21.9393   20.5177 C   0  0  0  0  0  0  0  0  0  0  0  0
   19.5648   23.0953   21.4662 C   0  0  0  0  0  0  0  0  0  0  0  0
   20.6775   23.9813   20.9185 C   0  0  0  0  0  0  0  0  0  0  0  0
 50 51  2  0  0  0
 50 52  1  0  0  0
 53 49  1  0  0  0
 49 45  1  0  0  0
 49 55  1  0  0  0
 45 46  2  0  0  0
 55 56  1  0  0  0
 55 57  1  0  0  0
 47 44  1  0  0  0
 44 40  1  0  0  0
 44 59  1  0  0  0
 40 41  2  0  0  0
 59 61  1  0  0  0
 59 60  1  0  0  0
 61 62  1  0  0  0
 42 39  1  0  0  0
 39 38  1  0  0  0
 39 63  1  0  0  0
 63 64  1  0  0  0
 64 65  1  0  0  0
 65 66  1  0  0  0
 36  1  1  0  0  0
  1  2  1  0  0  0
  1 67  1  0  0  0
  2  3  2  0  0  0
 67 68  1  0  0  0
 68 69  1  0  0  0
 69 70  1  0  0  0
  4  6  1  0  0  0
  6  7  1  0  0  0
  6 29  1  0  0  0
  7  8  2  0  0  0
 29 30  1  0  0  0
 30 31  1  0  0  0
 31 32  2  0  0  0
 31 33  1  0  0  0
  9 11  1  0  0  0
 11 12  1  0  0  0
 11 17  1  0  0  0
 12 13  2  0  0  0
 17 18  1  0  0  0
 18 19  1  0  0  0
 19 20  1  0  0  0
 20 22  1  0  0  0
 22 23  1  0  0  0
 22 24  2  0  0  0
 50 53  1  0  0  0
 45 47  1  0  0  0
 40 42  1  0  0  0
 38 36  1  0  0  0
  2  4  1  0  0  0
  7  9  1  0  0  0
 12 14  1  0  0  0
 53 54  1  0  0  0
 56 58  1  0  0  0
 47 48  1  0  0  0
 42 43  1  0  0  0
 36 37  1  0  0  0
  4  5  1  0  0  0
 33 34  1  0  0  0
 33 35  1  0  0  0
  9 10  1  0  0  0
 20 21  1  0  0  0
 23 25  1  0  0  0
 23 26  1  0  0  0
 24 27  1  0  0  0
 24 28  1  0  0  0
 14 15  1  0  0  0
 14 16  1  0  0  0
M  CHG 1  24   1
M  END
> <minimizedAffinity>
-7.81618

$$$$
3BVA_2NC_B_200


 70 69  0  0  0  0  0  0  0  0999 V2000
   17.3338   23.8150   18.3206 C   0  0  0  0  0  0  0  0  0  0  0  0
   18.1000   24.1077   19.6048 C   0  0  0  0  0  0  0  0  0  0  0  0
   17.5447   24.2161   20.7056 O   0  0  0  0  0  0  0  0  0  0  0  0
   19.4007   24.3526   19.4802 N   0  0  0  0  0  0  0  0  0  0  0  0
   19.8351   24.2012   18.6098 H   0  0  0  0  0  0  0  0  0  0  0  0
   20.2061   24.8419   20.6033 C   0  0  0  0  0  0  0  0  0  0  0  0
   21.1039   25.9575   20.0713 C   0  0  0  0  0  0  0  0  0  0  0  0
   21.0570   27.1062   20.5071 O   0  0  0  0  0  0  0  0  0  0  0  0
   21.8330   25.6092   19.0315 N   0  0  0  0  0  0  0  0  0  0  0  0
   21.7675   24.6897   18.6860 H   0  0  0  0  0  0  0  0  0  0  0  0
   22.7251   26.5409   18.3860 C   0  0  0  0  0  0  0  0  0  0  0  0
   22.1163   26.9176   17.0364 C   0  0  0  0  0  0  0  0  0  0  0  0
   21.3193   27.8442   16.9162 O   0  0  0  0  0  0  0  0  0  0  0  0
   22.5150   26.1389   15.9217 N   0  0  0  0  0  0  0  0  0  0  0  0
   23.1553   25.4005   16.0407 H   0  0  0  0  0  0  0  0  0  0  0  0
   22.1518   26.3362   15.0282 H   0  0  0  0  0  0  0  0  0  0  0  0
   24.1146   25.9621   18.2091 C   0  0  0  0  0  0  0  0  0  0  0  0
   24.4886   24.8713   19.1998 C   0  0  0  0  0  0  0  0  0  0  0  0
   25.6306   25.3115   20.1245 C   0  0  0  0  0  0  0  0  0  0  0  0
   25.1572   26.2637   21.1471 N   0  0  0  0  0  0  0  0  0  0  0  0
   24.4566   25.9632   21.7700 H   0  0  0  0  0  0  0  0  0  0  0  0
   25.6140   27.4870   21.2763 C   0  0  0  0  0  0  0  0  0  0  0  0
   24.8633   28.4446   20.7241 N   0  0  0  0  0  0  0  0  0  0  0  0
   26.7368   27.7794   21.9227 N   0  0  0  0  0  0  0  0  0  0  0  0
   24.0342   28.2075   20.2490 H   0  0  0  0  0  0  0  0  0  0  0  0
   25.1393   29.3871   20.7923 H   0  0  0  0  0  0  0  0  0  0  0  0
   27.2762   27.0595   22.3228 H   0  0  0  0  0  0  0  0  0  0  0  0
   27.0298   28.7159   22.0018 H   0  0  0  0  0  0  0  0  0  0  0  0
   20.9541   23.7181   21.2730 C   0  0  0  0  0  0  0  0  0  0  0  0
   20.8940   22.4043   20.5654 C   0  0  0  0  0  0  0  0  0  0  0  0
   19.8500   21.4474   21.0473 C   0  0  0  0  0  0  0  0  0  0  0  0
   19.1312   20.8701   20.2408 O   0  0  0  0  0  0  0  0  0  0  0  0
   19.7386   21.1896   22.3222 N   0  0  0  0  0  0  0  0  0  0  0  0
   20.3163   21.6535   22.9706 H   0  0  0  0  0  0  0  0  0  0  0  0
   19.0770   20.5312   22.6354 H   0  0  0  0  0  0  0  0  0  0  0  0
   16.1228   24.5794   18.2344 N   0  0  0  0  0  0  0  0  0  0  0  0
   16.0968   25.0197   17.3147 H   0  0  0  0  0  0  0  0  0  0  0  0
   14.9004   23.8463   18.4045 C   0  0  0  0  0  0  0  0  0  0  0  0
   14.8514   22.5773   17.6278 C   0  0  0  0  0  0  0  0  0  0  0  0
   14.0052   20.7560   19.1277 C   0  0  0  0  0  0  0  0  0  0  0  0
   15.0245   20.7505   19.7680 O   0  0  0  0  0  0  0  0  0  0  0  0
   13.8291   21.6396   18.0823 N   0  0  0  0  0  0  0  0  0  0  0  0
   12.9625   21.6374   17.6153 H   0  0  0  0  0  0  0  0  0  0  0  0
   12.9067   19.7526   19.3069 C   0  0  0  0  0  0  0  0  0  0  0  0
   11.3098   19.2594   17.5157 C   0  0  0  0  0  0  0  0  0  0  0  0
   10.3896   19.8192   18.1160 O   0  0  0  0  0  0  0  0  0  0  0  0
   12.5392   19.2049   17.9980 N   0  0  0  0  0  0  0  0  0  0  0  0
   13.2393   18.7773   17.4537 H   0  0  0  0  0  0  0  0  0  0  0  0
   11.0153   18.6009   16.1446 C   0  0  0  0  0  0  0  0  0  0  0  0
    9.9758   16.3251   16.3866 C   0  0  0  0  0  0  0  0  0  0  0  0
   11.1040   15.8761   16.5940 O   0  0  0  0  0  0  0  0  0  0  0  0
    8.6983   15.5898   16.3367 C   0  0  0  0  0  0  0  0  0  0  0  0
    9.8758   17.7357   16.1551 N   0  0  0  0  0  0  0  0  0  0  0  0
    8.9858   18.1258   15.9968 H   0  0  0  0  0  0  0  0  0  0  0  0
   10.9180   19.7154   15.0920 C   0  0  0  0  0  0  0  0  0  0  0  0
   11.4947   20.8638   15.6989 O   0  0  0  0  0  0  0  0  0  0  0  0
    9.4347   20.0137   14.7361 C   0  0  0  0  0  0  0  0  0  0  0  0
   11.0108   21.0772   16.5120 H   0  0  0  0  0  0  0  0  0  0  0  0
   13.3434   18.6396   20.2937 C   0  0  0  0  0  0  0  0  0  0  0  0
   12.7541   18.9037   21.6471 C   0  0  0  0  0  0  0  0  0  0  0  0
   13.0405   17.2330   19.8006 C   0  0  0  0  0  0  0  0  0  0  0  0
   11.6949   16.7064   20.1858 C   0  0  0  0  0  0  0  0  0  0  0  0
   14.6927   22.7983   16.1104 C   0  0  0  0  0  0  0  0  0  0  0  0
   15.0344   21.6271   15.2297 C   0  0  0  0  0  0  0  0  0  0  0  0
   14.6365   21.7678   13.8104 C   0  0  0  0  0  0  0  0  0  0  0  0
   14.1583   20.4553   13.1789 C   0  0  0  0  0  0  0  0  0  0  0  0
   18.2501   23.9287   17.0865 C   0  0  0  0  0  0  0  0  0  0  0  0
   17.8084   24.9945   16.1574 C   0  0  0  0  0  0  0  0  0  0  0  0
   18.9059   25.7198   15.4179 C   0  0  0  0  0  0  0  0  0  0  0  0
   18.3510   26.2099   14.0857 C   0  0  0  0  0  0  0  0  0  0  0  0
 50 51  2  0  0  0
 50 52  1  0  0  0
 53 49  1  0  0  0
 49 45  1  0  0  0
 49 55  1  0  0  0
 45 46  2  0  0  0
 55 56  1  0  0  0
 55 57  1  0  0  0
 47 44  1  0  0  0
 44 40  1  0  0  0
 44 59  1  0  0  0
 40 41  2  0  0  0
 59 61  1  0  0  0
 59 60  1  0  0  0
 61 62  1  0  0  0
 42 39  1  0  0  0
 39 38  1  0  0  0
 39 63  1  0  0  0
 63 64  1  0  0  0
 64 65  1  0  0  0
 65 66  1  0  0  0
 36  1  1  0  0  0
  1  2  1  0  0  0
  1 67  1  0  0  0
  2  3  2  0  0  0
 67 68  1  0  0  0
 68 69  1  0  0  0
 69 70  1  0  0  0
  4  6  1  0  0  0
  6  7  1  0  0  0
  6 29  1  0  0  0
  7  8  2  0  0  0
 29 30  1  0  0  0
 30 31  1  0  0  0
 31 32  2  0  0  0
 31 33  1  0  0  0
  9 11  1  0  0  0
 11 12  1  0  0  0
 11 17  1  0  0  0
 12 13  2  0  0  0
 17 18  1  0  0  0
 18 19  1  0  0  0
 19 20  1  0  0  0
 20 22  1  0  0  0
 22 23  1  0  0  0
 22 24  2  0  0  0
 50 53  1  0  0  0
 45 47  1  0  0  0
 40 42  1  0  0  0
 38 36  1  0  0  0
  2  4  1  0  0  0
  7  9  1  0  0  0
 12 14  1  0  0  0
 53 54  1  0  0  0
 56 58  1  0  0  0
 47 48  1  0  0  0
 42 43  1  0  0  0
 36 37  1  0  0  0
  4  5  1  0  0  0
 33 34  1  0  0  0
 33 35  1  0  0  0
  9 10  1  0  0  0
 20 21  1  0  0  0
 23 25  1  0  0  0
 23 26  1  0  0  0
 24 27  1  0  0  0
 24 28  1  0  0  0
 14 15  1  0  0  0
 14 16  1  0  0  0
M  CHG 1  24   1
M  END
> <minimizedAffinity>
-7.77479

$$$$
