6EOG_BKK_A_1001


 35 38  0  0  0  0  0  0  0  0999 V2000
  -13.9450    7.5110   -0.7698 C   0  0  0  0  0  0  0  0  0  0  0  0
  -15.3129    8.8385    0.7852 C   0  0  0  0  0  0  0  0  0  0  0  0
  -14.8280    8.0034   -1.8989 C   0  0  0  0  0  0  0  0  0  0  0  0
  -16.2024    8.3111   -1.3023 C   0  0  0  0  0  0  0  0  0  0  0  0
  -16.0498    9.3322   -0.3175 O   0  0  0  0  0  0  0  0  0  0  0  0
  -13.9219    8.5377    0.3221 C   0  0  0  0  0  0  0  0  0  0  0  0
  -13.2511    9.7133   -0.0913 O   0  0  0  0  0  0  0  0  0  0  0  0
  -14.9816    6.9894   -2.9194 O   0  0  0  0  0  0  0  0  0  0  0  0
  -13.7218   10.1070   -0.8425 H   0  0  0  0  0  0  0  0  0  0  0  0
  -15.3820    6.1965   -2.5297 H   0  0  0  0  0  0  0  0  0  0  0  0
  -11.6311    6.3923   -0.8541 C   0  0  0  0  0  0  0  0  0  0  0  0
  -10.5908    6.5306   -1.7387 C   0  0  0  0  0  0  0  0  0  0  0  0
  -12.6036    7.2280   -1.2587 N   0  0  0  0  0  0  0  0  0  0  0  0
  -10.9533    7.4331   -2.6953 N   0  0  0  0  0  0  0  0  0  0  0  0
  -12.1999    7.8824   -2.3739 N   0  0  0  0  0  0  0  0  0  0  0  0
   -8.1973    6.4490   -2.2997 C   0  0  0  0  0  0  0  0  0  0  0  0
   -8.1042    3.8266   -1.5104 C   0  0  0  0  0  0  0  0  0  0  0  0
   -6.9699    4.4021   -2.0309 C   0  0  0  0  0  0  0  0  0  0  0  0
   -7.0192    5.7904   -2.4128 C   0  0  0  0  0  0  0  0  0  0  0  0
   -9.3183    5.8173   -1.7850 C   0  0  0  0  0  0  0  0  0  0  0  0
   -9.2996    4.4740   -1.4709 C   0  0  0  0  0  0  0  0  0  0  0  0
   -5.9150    6.3719   -2.9271 F   0  0  0  0  0  0  0  0  0  0  0  0
   -5.8050    3.7737   -2.1386 F   0  0  0  0  0  0  0  0  0  0  0  0
   -8.0037    2.4972   -1.1890 F   0  0  0  0  0  0  0  0  0  0  0  0
  -15.3413    9.9033    1.8781 C   0  0  0  0  0  0  0  0  0  0  0  0
  -16.6412   10.0862    2.4325 O   0  0  0  0  0  0  0  0  0  0  0  0
  -17.2496   10.3845    1.7384 H   0  0  0  0  0  0  0  0  0  0  0  0
  -17.4077    8.8116   -2.4108 S   0  0  0  0  0  0  0  0  0  0  0  0
  -20.4406    5.7409   -0.7314 C   0  0  0  0  0  0  0  0  0  0  0  0
  -19.0854    5.7512   -0.4240 C   0  0  0  0  0  0  0  0  0  0  0  0
  -22.6024    6.7502   -2.0117 Cl  0  0  0  0  0  0  0  0  0  0  0  0
  -20.8617    6.7392   -1.6042 C   0  0  0  0  0  0  0  0  0  0  0  0
  -19.9638    7.6850   -2.1305 C   0  0  0  0  0  0  0  0  0  0  0  0
  -18.5745    7.6664   -1.8092 C   0  0  0  0  0  0  0  0  0  0  0  0
  -18.1885    6.6460   -0.9286 C   0  0  0  0  0  0  0  0  0  0  0  0
 30 29  2  0  0  0
 30 35  1  0  0  0
 29 32  1  0  0  0
 35 34  2  0  0  0
 32 31  1  0  0  0
 32 33  2  0  0  0
 34 33  1  0  0  0
 34 28  1  0  0  0
  8  3  1  0  0  0
 15 14  2  0  0  0
 15 13  1  0  0  0
 14 12  1  0  0  0
 28  4  1  0  0  0
  4  3  1  0  0  0
  4  5  1  0  0  0
  1  3  1  0  0  0
  1 13  1  0  0  0
  1  6  1  0  0  0
 13 11  1  0  0  0
  2  5  1  0  0  0
  2  6  1  0  0  0
  2 25  1  0  0  0
 12 11  2  0  0  0
 12 20  1  0  0  0
  6  7  1  0  0  0
 16 20  2  0  0  0
 16 19  1  0  0  0
 22 19  1  0  0  0
 26 25  1  0  0  0
 20 21  1  0  0  0
 19 18  2  0  0  0
 21 17  2  0  0  0
 18 17  1  0  0  0
 18 23  1  0  0  0
 17 24  1  0  0  0
 26 27  1  0  0  0
  7  9  1  0  0  0
  8 10  1  0  0  0
M  END
> <minimizedAffinity>
-7.98713

$$$$
6EOG_BKK_A_1001


 35 38  0  0  0  0  0  0  0  0999 V2000
  -13.9526    7.4995   -0.8104 C   0  0  0  0  0  0  0  0  0  0  0  0
  -15.3075    8.7967    0.7813 C   0  0  0  0  0  0  0  0  0  0  0  0
  -14.8480    8.0095   -1.9217 C   0  0  0  0  0  0  0  0  0  0  0  0
  -16.2169    8.3036   -1.3060 C   0  0  0  0  0  0  0  0  0  0  0  0
  -16.0565    9.3078   -0.3052 O   0  0  0  0  0  0  0  0  0  0  0  0
  -13.9206    8.5071    0.2989 C   0  0  0  0  0  0  0  0  0  0  0  0
  -13.2564    9.6912   -0.1006 O   0  0  0  0  0  0  0  0  0  0  0  0
  -15.0099    7.0131   -2.9582 O   0  0  0  0  0  0  0  0  0  0  0  0
  -13.7356   10.0969   -0.8400 H   0  0  0  0  0  0  0  0  0  0  0  0
  -15.4046    6.2126   -2.5783 H   0  0  0  0  0  0  0  0  0  0  0  0
  -11.6589    6.3483   -0.9734 C   0  0  0  0  0  0  0  0  0  0  0  0
  -10.6148    6.5307   -1.8454 C   0  0  0  0  0  0  0  0  0  0  0  0
  -12.6157    7.2281   -1.3177 N   0  0  0  0  0  0  0  0  0  0  0  0
  -10.9594    7.5056   -2.7352 N   0  0  0  0  0  0  0  0  0  0  0  0
  -12.1983    7.9531   -2.3830 N   0  0  0  0  0  0  0  0  0  0  0  0
   -9.2774    4.5026   -1.4605 C   0  0  0  0  0  0  0  0  0  0  0  0
   -7.0630    5.7781   -2.4497 C   0  0  0  0  0  0  0  0  0  0  0  0
   -6.9297    4.4979   -1.9677 C   0  0  0  0  0  0  0  0  0  0  0  0
   -8.1057    3.8235   -1.4797 C   0  0  0  0  0  0  0  0  0  0  0  0
   -9.3552    5.7998   -1.9419 C   0  0  0  0  0  0  0  0  0  0  0  0
   -8.2265    6.4761   -2.3568 C   0  0  0  0  0  0  0  0  0  0  0  0
   -7.9934    2.5664   -1.0013 F   0  0  0  0  0  0  0  0  0  0  0  0
   -5.7911    3.8149   -1.9891 F   0  0  0  0  0  0  0  0  0  0  0  0
   -5.9056    6.3771   -2.8766 F   0  0  0  0  0  0  0  0  0  0  0  0
  -15.3270    9.8422    1.8928 C   0  0  0  0  0  0  0  0  0  0  0  0
  -16.6409   10.1006    2.3800 O   0  0  0  0  0  0  0  0  0  0  0  0
  -17.1896   10.4501    1.6605 H   0  0  0  0  0  0  0  0  0  0  0  0
  -17.4344    8.8207   -2.3934 S   0  0  0  0  0  0  0  0  0  0  0  0
  -20.4457    5.7178   -0.7342 C   0  0  0  0  0  0  0  0  0  0  0  0
  -19.0938    5.7459   -0.4134 C   0  0  0  0  0  0  0  0  0  0  0  0
  -22.6069    6.6962   -2.0393 Cl  0  0  0  0  0  0  0  0  0  0  0  0
  -20.8703    6.7081   -1.6145 C   0  0  0  0  0  0  0  0  0  0  0  0
  -19.9790    7.6633   -2.1348 C   0  0  0  0  0  0  0  0  0  0  0  0
  -18.5929    7.6629   -1.7997 C   0  0  0  0  0  0  0  0  0  0  0  0
  -18.2031    6.6502   -0.9120 C   0  0  0  0  0  0  0  0  0  0  0  0
 30 29  2  0  0  0
 30 35  1  0  0  0
 29 32  1  0  0  0
 35 34  2  0  0  0
 32 31  1  0  0  0
 32 33  2  0  0  0
 34 33  1  0  0  0
 34 28  1  0  0  0
  8  3  1  0  0  0
 15 14  2  0  0  0
 15 13  1  0  0  0
 14 12  1  0  0  0
 28  4  1  0  0  0
  4  3  1  0  0  0
  4  5  1  0  0  0
  1  3  1  0  0  0
  1 13  1  0  0  0
  1  6  1  0  0  0
 13 11  1  0  0  0
  2  5  1  0  0  0
  2  6  1  0  0  0
  2 25  1  0  0  0
 12 11  2  0  0  0
 12 20  1  0  0  0
  6  7  1  0  0  0
 16 20  2  0  0  0
 16 19  1  0  0  0
 22 19  1  0  0  0
 26 25  1  0  0  0
 20 21  1  0  0  0
 19 18  2  0  0  0
 21 17  2  0  0  0
 18 17  1  0  0  0
 18 23  1  0  0  0
 17 24  1  0  0  0
 26 27  1  0  0  0
  7  9  1  0  0  0
  8 10  1  0  0  0
M  END
> <minimizedAffinity>
-7.98401

$$$$
6EOG_BKK_A_1001


 35 38  0  0  0  0  0  0  0  0999 V2000
  -13.9657    7.2873   -0.9791 C   0  0  0  0  0  0  0  0  0  0  0  0
  -15.0916    8.7253    0.6690 C   0  0  0  0  0  0  0  0  0  0  0  0
  -14.8796    7.8636   -2.0420 C   0  0  0  0  0  0  0  0  0  0  0  0
  -16.1736    8.2914   -1.3479 C   0  0  0  0  0  0  0  0  0  0  0  0
  -15.8583    9.2895   -0.3782 O   0  0  0  0  0  0  0  0  0  0  0  0
  -13.7707    8.3020    0.1068 C   0  0  0  0  0  0  0  0  0  0  0  0
  -13.0275    9.4140   -0.3557 O   0  0  0  0  0  0  0  0  0  0  0  0
  -15.1980    6.8730   -3.0473 O   0  0  0  0  0  0  0  0  0  0  0  0
  -13.5136    9.8527   -1.0714 H   0  0  0  0  0  0  0  0  0  0  0  0
  -15.6395    6.1176   -2.6285 H   0  0  0  0  0  0  0  0  0  0  0  0
  -11.8805    5.8339   -1.3692 C   0  0  0  0  0  0  0  0  0  0  0  0
  -10.8335    5.9704   -2.2462 C   0  0  0  0  0  0  0  0  0  0  0  0
  -12.6944    6.8864   -1.5635 N   0  0  0  0  0  0  0  0  0  0  0  0
  -11.0360    7.0958   -2.9901 N   0  0  0  0  0  0  0  0  0  0  0  0
  -12.1855    7.6750   -2.5401 N   0  0  0  0  0  0  0  0  0  0  0  0
   -8.6680    5.0265   -1.5606 C   0  0  0  0  0  0  0  0  0  0  0  0
   -8.5583    3.5910   -3.8922 C   0  0  0  0  0  0  0  0  0  0  0  0
   -7.4975    3.5214   -3.0211 C   0  0  0  0  0  0  0  0  0  0  0  0
   -7.5782    4.2536   -1.7830 C   0  0  0  0  0  0  0  0  0  0  0  0
   -9.7037    5.0765   -2.4801 C   0  0  0  0  0  0  0  0  0  0  0  0
   -9.6125    4.4271   -3.6939 C   0  0  0  0  0  0  0  0  0  0  0  0
   -6.5451    4.1980   -0.9161 F   0  0  0  0  0  0  0  0  0  0  0  0
   -6.4272    2.7607   -3.2193 F   0  0  0  0  0  0  0  0  0  0  0  0
   -8.4132    2.8939   -5.0642 F   0  0  0  0  0  0  0  0  0  0  0  0
  -14.9441    9.7826    1.7596 C   0  0  0  0  0  0  0  0  0  0  0  0
  -16.1278    9.9370    2.5378 O   0  0  0  0  0  0  0  0  0  0  0  0
  -16.8552   10.2278    1.9657 H   0  0  0  0  0  0  0  0  0  0  0  0
  -17.4054    8.9050   -2.3670 S   0  0  0  0  0  0  0  0  0  0  0  0
  -20.4611    5.7987   -0.7976 C   0  0  0  0  0  0  0  0  0  0  0  0
  -19.1092    5.7986   -0.4759 C   0  0  0  0  0  0  0  0  0  0  0  0
  -22.6075    6.8442   -2.0748 Cl  0  0  0  0  0  0  0  0  0  0  0  0
  -20.8712    6.8196   -1.6494 C   0  0  0  0  0  0  0  0  0  0  0  0
  -19.9662    7.7766   -2.1421 C   0  0  0  0  0  0  0  0  0  0  0  0
  -18.5805    7.7472   -1.8068 C   0  0  0  0  0  0  0  0  0  0  0  0
  -18.2055    6.7041   -0.9482 C   0  0  0  0  0  0  0  0  0  0  0  0
 30 29  2  0  0  0
 30 35  1  0  0  0
 29 32  1  0  0  0
 35 34  2  0  0  0
 32 31  1  0  0  0
 32 33  2  0  0  0
 34 33  1  0  0  0
 34 28  1  0  0  0
  8  3  1  0  0  0
 15 14  2  0  0  0
 15 13  1  0  0  0
 14 12  1  0  0  0
 28  4  1  0  0  0
  4  3  1  0  0  0
  4  5  1  0  0  0
  1  3  1  0  0  0
  1 13  1  0  0  0
  1  6  1  0  0  0
 13 11  1  0  0  0
  2  5  1  0  0  0
  2  6  1  0  0  0
  2 25  1  0  0  0
 12 11  2  0  0  0
 12 20  1  0  0  0
  6  7  1  0  0  0
 16 20  2  0  0  0
 16 19  1  0  0  0
 22 19  1  0  0  0
 26 25  1  0  0  0
 20 21  1  0  0  0
 19 18  2  0  0  0
 21 17  2  0  0  0
 18 17  1  0  0  0
 18 23  1  0  0  0
 17 24  1  0  0  0
 26 27  1  0  0  0
  7  9  1  0  0  0
  8 10  1  0  0  0
M  END
> <minimizedAffinity>
-7.79483

$$$$
6EOG_BKK_A_1001


 35 38  0  0  0  0  0  0  0  0999 V2000
  -14.3949    7.3329   -1.3355 C   0  0  0  0  0  0  0  0  0  0  0  0
  -15.5111    8.7614    0.3273 C   0  0  0  0  0  0  0  0  0  0  0  0
  -15.2076    8.0246   -2.4117 C   0  0  0  0  0  0  0  0  0  0  0  0
  -16.5064    8.5066   -1.7635 C   0  0  0  0  0  0  0  0  0  0  0  0
  -16.1789    9.4300   -0.7262 O   0  0  0  0  0  0  0  0  0  0  0  0
  -14.1926    8.2754   -0.1878 C   0  0  0  0  0  0  0  0  0  0  0  0
  -13.3518    9.3546   -0.5503 O   0  0  0  0  0  0  0  0  0  0  0  0
  -15.5356    7.1106   -3.4842 O   0  0  0  0  0  0  0  0  0  0  0  0
  -13.7668    9.8617   -1.2655 H   0  0  0  0  0  0  0  0  0  0  0  0
  -16.0495    6.3679   -3.1302 H   0  0  0  0  0  0  0  0  0  0  0  0
  -12.3190    5.8357   -1.5844 C   0  0  0  0  0  0  0  0  0  0  0  0
  -11.2650    5.8887   -2.4620 C   0  0  0  0  0  0  0  0  0  0  0  0
  -13.1230    6.8738   -1.8740 N   0  0  0  0  0  0  0  0  0  0  0  0
  -11.4533    6.9478   -3.3009 N   0  0  0  0  0  0  0  0  0  0  0  0
  -12.6010    7.5720   -2.9107 N   0  0  0  0  0  0  0  0  0  0  0  0
   -9.1435    4.9466   -1.6485 C   0  0  0  0  0  0  0  0  0  0  0  0
   -8.9642    3.4061   -3.9076 C   0  0  0  0  0  0  0  0  0  0  0  0
   -7.9399    3.3610   -2.9923 C   0  0  0  0  0  0  0  0  0  0  0  0
   -8.0580    4.1494   -1.7922 C   0  0  0  0  0  0  0  0  0  0  0  0
  -10.1410    4.9695   -2.6103 C   0  0  0  0  0  0  0  0  0  0  0  0
  -10.0121    4.2648   -3.7893 C   0  0  0  0  0  0  0  0  0  0  0  0
   -7.0611    4.1186   -0.8828 F   0  0  0  0  0  0  0  0  0  0  0  0
   -6.8746    2.5773   -3.1131 F   0  0  0  0  0  0  0  0  0  0  0  0
   -8.7837    2.6548   -5.0406 F   0  0  0  0  0  0  0  0  0  0  0  0
  -15.3535    9.7496    1.4796 C   0  0  0  0  0  0  0  0  0  0  0  0
  -16.5000    9.7942    2.3248 O   0  0  0  0  0  0  0  0  0  0  0  0
  -17.2690   10.0869    1.8112 H   0  0  0  0  0  0  0  0  0  0  0  0
  -17.6358    9.2554   -2.8104 S   0  0  0  0  0  0  0  0  0  0  0  0
  -21.1718    6.5566   -1.5214 C   0  0  0  0  0  0  0  0  0  0  0  0
  -21.2850    7.6309   -2.3956 C   0  0  0  0  0  0  0  0  0  0  0  0
  -19.7188    4.9395    0.0925 Cl  0  0  0  0  0  0  0  0  0  0  0  0
  -19.8916    6.3194   -1.0309 C   0  0  0  0  0  0  0  0  0  0  0  0
  -18.7989    7.1222   -1.4040 C   0  0  0  0  0  0  0  0  0  0  0  0
  -18.9438    8.2273   -2.2935 C   0  0  0  0  0  0  0  0  0  0  0  0
  -20.2476    8.4352   -2.7652 C   0  0  0  0  0  0  0  0  0  0  0  0
 30 29  2  0  0  0
 30 35  1  0  0  0
 29 32  1  0  0  0
 35 34  2  0  0  0
 32 31  1  0  0  0
 32 33  2  0  0  0
 34 33  1  0  0  0
 34 28  1  0  0  0
  8  3  1  0  0  0
 15 14  2  0  0  0
 15 13  1  0  0  0
 14 12  1  0  0  0
 28  4  1  0  0  0
  4  3  1  0  0  0
  4  5  1  0  0  0
  1  3  1  0  0  0
  1 13  1  0  0  0
  1  6  1  0  0  0
 13 11  1  0  0  0
  2  5  1  0  0  0
  2  6  1  0  0  0
  2 25  1  0  0  0
 12 11  2  0  0  0
 12 20  1  0  0  0
  6  7  1  0  0  0
 16 20  2  0  0  0
 16 19  1  0  0  0
 22 19  1  0  0  0
 26 25  1  0  0  0
 20 21  1  0  0  0
 19 18  2  0  0  0
 21 17  2  0  0  0
 18 17  1  0  0  0
 18 23  1  0  0  0
 17 24  1  0  0  0
 26 27  1  0  0  0
  7  9  1  0  0  0
  8 10  1  0  0  0
M  END
> <minimizedAffinity>
-7.58672

$$$$
6EOG_BKK_A_1001


 35 38  0  0  0  0  0  0  0  0999 V2000
  -13.3341    8.4314   -0.5395 C   0  0  0  0  0  0  0  0  0  0  0  0
  -11.4492    8.6163    1.0304 C   0  0  0  0  0  0  0  0  0  0  0  0
  -12.7608    7.1077   -1.0045 C   0  0  0  0  0  0  0  0  0  0  0  0
  -11.2492    7.1600   -0.7769 C   0  0  0  0  0  0  0  0  0  0  0  0
  -11.0075    7.3365    0.6182 O   0  0  0  0  0  0  0  0  0  0  0  0
  -12.9381    8.6666    0.8869 C   0  0  0  0  0  0  0  0  0  0  0  0
  -13.5707    7.7453    1.7551 O   0  0  0  0  0  0  0  0  0  0  0  0
  -13.0108    6.8989   -2.4142 O   0  0  0  0  0  0  0  0  0  0  0  0
  -13.2935    6.8440    1.5276 H   0  0  0  0  0  0  0  0  0  0  0  0
  -12.6023    7.6154   -2.9246 H   0  0  0  0  0  0  0  0  0  0  0  0
  -15.6790    7.5045   -1.0445 C   0  0  0  0  0  0  0  0  0  0  0  0
  -16.9178    8.0919   -0.9784 C   0  0  0  0  0  0  0  0  0  0  0  0
  -14.7811    8.4427   -0.6959 N   0  0  0  0  0  0  0  0  0  0  0  0
  -16.7636    9.3812   -0.5601 N   0  0  0  0  0  0  0  0  0  0  0  0
  -15.4259    9.5993   -0.4112 N   0  0  0  0  0  0  0  0  0  0  0  0
  -19.1546    8.1671   -1.9988 C   0  0  0  0  0  0  0  0  0  0  0  0
  -19.8108    5.8305   -0.7265 C   0  0  0  0  0  0  0  0  0  0  0  0
  -20.7667    6.4623   -1.4855 C   0  0  0  0  0  0  0  0  0  0  0  0
  -20.4029    7.6728   -2.1770 C   0  0  0  0  0  0  0  0  0  0  0  0
  -18.2324    7.5006   -1.2076 C   0  0  0  0  0  0  0  0  0  0  0  0
  -18.5858    6.3738   -0.4944 C   0  0  0  0  0  0  0  0  0  0  0  0
  -21.3293    8.3075   -2.9259 F   0  0  0  0  0  0  0  0  0  0  0  0
  -21.9910    5.9856   -1.6787 F   0  0  0  0  0  0  0  0  0  0  0  0
  -20.2227    4.6978   -0.0723 F   0  0  0  0  0  0  0  0  0  0  0  0
  -10.9998    8.8208    2.4744 C   0  0  0  0  0  0  0  0  0  0  0  0
   -9.9854    7.9011    2.8689 O   0  0  0  0  0  0  0  0  0  0  0  0
  -10.3293    6.9960    2.8108 H   0  0  0  0  0  0  0  0  0  0  0  0
  -10.3620    5.7942   -1.3057 S   0  0  0  0  0  0  0  0  0  0  0  0
   -6.7883    8.2738   -2.8960 C   0  0  0  0  0  0  0  0  0  0  0  0
   -6.8043    6.8866   -2.8149 C   0  0  0  0  0  0  0  0  0  0  0  0
   -7.9520   10.6951   -2.5572 Cl  0  0  0  0  0  0  0  0  0  0  0  0
   -7.9459    8.9100   -2.4587 C   0  0  0  0  0  0  0  0  0  0  0  0
   -9.0466    8.1836   -1.9704 C   0  0  0  0  0  0  0  0  0  0  0  0
   -9.0332    6.7601   -1.8856 C   0  0  0  0  0  0  0  0  0  0  0  0
   -7.8503    6.1557   -2.3338 C   0  0  0  0  0  0  0  0  0  0  0  0
 30 29  2  0  0  0
 30 35  1  0  0  0
 29 32  1  0  0  0
 35 34  2  0  0  0
 32 31  1  0  0  0
 32 33  2  0  0  0
 34 33  1  0  0  0
 34 28  1  0  0  0
  8  3  1  0  0  0
 15 14  2  0  0  0
 15 13  1  0  0  0
 14 12  1  0  0  0
 28  4  1  0  0  0
  4  3  1  0  0  0
  4  5  1  0  0  0
  1  3  1  0  0  0
  1 13  1  0  0  0
  1  6  1  0  0  0
 13 11  1  0  0  0
  2  5  1  0  0  0
  2  6  1  0  0  0
  2 25  1  0  0  0
 12 11  2  0  0  0
 12 20  1  0  0  0
  6  7  1  0  0  0
 16 20  2  0  0  0
 16 19  1  0  0  0
 22 19  1  0  0  0
 26 25  1  0  0  0
 20 21  1  0  0  0
 19 18  2  0  0  0
 21 17  2  0  0  0
 18 17  1  0  0  0
 18 23  1  0  0  0
 17 24  1  0  0  0
 26 27  1  0  0  0
  7  9  1  0  0  0
  8 10  1  0  0  0
M  END
> <minimizedAffinity>
-7.40259

$$$$
6EOG_BKK_A_1001


 35 38  0  0  0  0  0  0  0  0999 V2000
  -17.3954    7.6509   -1.8132 C   0  0  0  0  0  0  0  0  0  0  0  0
  -19.4126    6.4759   -1.0373 C   0  0  0  0  0  0  0  0  0  0  0  0
  -18.1745    8.9487   -1.7367 C   0  0  0  0  0  0  0  0  0  0  0  0
  -19.6507    8.6077   -1.9461 C   0  0  0  0  0  0  0  0  0  0  0  0
  -20.0635    7.7254   -0.9035 O   0  0  0  0  0  0  0  0  0  0  0  0
  -17.9481    6.6840   -0.8100 C   0  0  0  0  0  0  0  0  0  0  0  0
  -17.6879    7.1114    0.5139 O   0  0  0  0  0  0  0  0  0  0  0  0
  -17.7587    9.8670   -2.7746 O   0  0  0  0  0  0  0  0  0  0  0  0
  -18.1237    7.9638    0.6700 H   0  0  0  0  0  0  0  0  0  0  0  0
  -17.9069    9.4617   -3.6433 H   0  0  0  0  0  0  0  0  0  0  0  0
  -15.2528    8.1816   -0.4940 C   0  0  0  0  0  0  0  0  0  0  0  0
  -13.9414    8.2602   -0.8916 C   0  0  0  0  0  0  0  0  0  0  0  0
  -15.9780    7.8939   -1.5891 N   0  0  0  0  0  0  0  0  0  0  0  0
  -13.8772    7.9896   -2.2271 N   0  0  0  0  0  0  0  0  0  0  0  0
  -15.1546    7.7878   -2.6593 N   0  0  0  0  0  0  0  0  0  0  0  0
  -11.5090    8.5746   -0.7065 C   0  0  0  0  0  0  0  0  0  0  0  0
  -11.7348    8.6968    2.0217 C   0  0  0  0  0  0  0  0  0  0  0  0
  -10.4833    8.7617    1.4572 C   0  0  0  0  0  0  0  0  0  0  0  0
  -10.3769    8.7295    0.0208 C   0  0  0  0  0  0  0  0  0  0  0  0
  -12.7463    8.4958   -0.0875 C   0  0  0  0  0  0  0  0  0  0  0  0
  -12.8562    8.4665    1.2874 C   0  0  0  0  0  0  0  0  0  0  0  0
   -9.1558    8.7908   -0.5510 F   0  0  0  0  0  0  0  0  0  0  0  0
   -9.3653    8.9241    2.1551 F   0  0  0  0  0  0  0  0  0  0  0  0
  -11.7709    8.7062    3.3925 F   0  0  0  0  0  0  0  0  0  0  0  0
  -20.0263    5.5199   -0.0182 C   0  0  0  0  0  0  0  0  0  0  0  0
  -21.3585    5.1414   -0.3537 O   0  0  0  0  0  0  0  0  0  0  0  0
  -21.9239    5.9294   -0.3708 H   0  0  0  0  0  0  0  0  0  0  0  0
  -20.7308    9.9359   -1.9828 S   0  0  0  0  0  0  0  0  0  0  0  0
  -24.2859    7.2409   -3.2267 C   0  0  0  0  0  0  0  0  0  0  0  0
  -23.1308    7.4105   -3.9805 C   0  0  0  0  0  0  0  0  0  0  0  0
  -25.8000    7.7436   -1.0390 Cl  0  0  0  0  0  0  0  0  0  0  0  0
  -24.3258    7.9487   -2.0294 C   0  0  0  0  0  0  0  0  0  0  0  0
  -23.2618    8.7749   -1.6258 C   0  0  0  0  0  0  0  0  0  0  0  0
  -22.0919    8.9420   -2.4239 C   0  0  0  0  0  0  0  0  0  0  0  0
  -22.0891    8.2145   -3.6224 C   0  0  0  0  0  0  0  0  0  0  0  0
 30 29  2  0  0  0
 30 35  1  0  0  0
 29 32  1  0  0  0
 35 34  2  0  0  0
 32 31  1  0  0  0
 32 33  2  0  0  0
 34 33  1  0  0  0
 34 28  1  0  0  0
  8  3  1  0  0  0
 15 14  2  0  0  0
 15 13  1  0  0  0
 14 12  1  0  0  0
 28  4  1  0  0  0
  4  3  1  0  0  0
  4  5  1  0  0  0
  1  3  1  0  0  0
  1 13  1  0  0  0
  1  6  1  0  0  0
 13 11  1  0  0  0
  2  5  1  0  0  0
  2  6  1  0  0  0
  2 25  1  0  0  0
 12 11  2  0  0  0
 12 20  1  0  0  0
  6  7  1  0  0  0
 16 20  2  0  0  0
 16 19  1  0  0  0
 22 19  1  0  0  0
 26 25  1  0  0  0
 20 21  1  0  0  0
 19 18  2  0  0  0
 21 17  2  0  0  0
 18 17  1  0  0  0
 18 23  1  0  0  0
 17 24  1  0  0  0
 26 27  1  0  0  0
  7  9  1  0  0  0
  8 10  1  0  0  0
M  END
> <minimizedAffinity>
-7.19846

$$$$
6EOG_BKK_A_1001


 35 38  0  0  0  0  0  0  0  0999 V2000
  -13.4285    8.5275   -2.1745 C   0  0  0  0  0  0  0  0  0  0  0  0
  -11.9099   10.1194   -3.2751 C   0  0  0  0  0  0  0  0  0  0  0  0
  -12.4350    8.4349   -1.0338 C   0  0  0  0  0  0  0  0  0  0  0  0
  -11.0503    8.7364   -1.6092 C   0  0  0  0  0  0  0  0  0  0  0  0
  -11.0610   10.0590   -2.1445 O   0  0  0  0  0  0  0  0  0  0  0  0
  -13.3146    9.8757   -2.8197 C   0  0  0  0  0  0  0  0  0  0  0  0
  -13.7598   10.9008   -1.9514 O   0  0  0  0  0  0  0  0  0  0  0  0
  -12.4207    7.1056   -0.4628 O   0  0  0  0  0  0  0  0  0  0  0  0
  -13.2024   10.9169   -1.1577 H   0  0  0  0  0  0  0  0  0  0  0  0
  -12.1757    6.4626   -1.1466 H   0  0  0  0  0  0  0  0  0  0  0  0
  -15.8854    7.7736   -2.2653 C   0  0  0  0  0  0  0  0  0  0  0  0
  -16.8604    7.7481   -1.2996 C   0  0  0  0  0  0  0  0  0  0  0  0
  -14.7804    8.2834   -1.6935 N   0  0  0  0  0  0  0  0  0  0  0  0
  -16.3282    8.2185   -0.1348 N   0  0  0  0  0  0  0  0  0  0  0  0
  -15.0381    8.5743   -0.3960 N   0  0  0  0  0  0  0  0  0  0  0  0
  -19.1580    7.9079   -2.1630 C   0  0  0  0  0  0  0  0  0  0  0  0
  -19.8773    5.7449   -0.6421 C   0  0  0  0  0  0  0  0  0  0  0  0
  -20.8418    6.3815   -1.3860 C   0  0  0  0  0  0  0  0  0  0  0  0
  -20.4480    7.4974   -2.2077 C   0  0  0  0  0  0  0  0  0  0  0  0
  -18.2270    7.2422   -1.3816 C   0  0  0  0  0  0  0  0  0  0  0  0
  -18.6030    6.2103   -0.5466 C   0  0  0  0  0  0  0  0  0  0  0  0
  -21.3821    8.1356   -2.9440 F   0  0  0  0  0  0  0  0  0  0  0  0
  -22.1078    5.9854   -1.4490 F   0  0  0  0  0  0  0  0  0  0  0  0
  -20.3164    4.7066    0.1389 F   0  0  0  0  0  0  0  0  0  0  0  0
  -11.7389   11.4955   -3.9125 C   0  0  0  0  0  0  0  0  0  0  0  0
  -11.5378   12.5255   -2.9486 O   0  0  0  0  0  0  0  0  0  0  0  0
  -12.3139   12.5823   -2.3695 H   0  0  0  0  0  0  0  0  0  0  0  0
   -9.7387    8.6118   -0.5154 S   0  0  0  0  0  0  0  0  0  0  0  0
   -7.5505    5.3492   -2.9681 C   0  0  0  0  0  0  0  0  0  0  0  0
   -6.9679    6.5419   -2.5565 C   0  0  0  0  0  0  0  0  0  0  0  0
   -9.6497    3.6446   -3.1062 Cl  0  0  0  0  0  0  0  0  0  0  0  0
   -8.8786    5.1736   -2.5925 C   0  0  0  0  0  0  0  0  0  0  0  0
   -9.5689    6.1468   -1.8482 C   0  0  0  0  0  0  0  0  0  0  0  0
   -8.9519    7.3688   -1.4485 C   0  0  0  0  0  0  0  0  0  0  0  0
   -7.6149    7.5097   -1.8463 C   0  0  0  0  0  0  0  0  0  0  0  0
 30 29  2  0  0  0
 30 35  1  0  0  0
 29 32  1  0  0  0
 35 34  2  0  0  0
 32 31  1  0  0  0
 32 33  2  0  0  0
 34 33  1  0  0  0
 34 28  1  0  0  0
  8  3  1  0  0  0
 15 14  2  0  0  0
 15 13  1  0  0  0
 14 12  1  0  0  0
 28  4  1  0  0  0
  4  3  1  0  0  0
  4  5  1  0  0  0
  1  3  1  0  0  0
  1 13  1  0  0  0
  1  6  1  0  0  0
 13 11  1  0  0  0
  2  5  1  0  0  0
  2  6  1  0  0  0
  2 25  1  0  0  0
 12 11  2  0  0  0
 12 20  1  0  0  0
  6  7  1  0  0  0
 16 20  2  0  0  0
 16 19  1  0  0  0
 22 19  1  0  0  0
 26 25  1  0  0  0
 20 21  1  0  0  0
 19 18  2  0  0  0
 21 17  2  0  0  0
 18 17  1  0  0  0
 18 23  1  0  0  0
 17 24  1  0  0  0
 26 27  1  0  0  0
  7  9  1  0  0  0
  8 10  1  0  0  0
M  END
> <minimizedAffinity>
-7.16169

$$$$
6EOG_BKK_A_1001


 35 38  0  0  0  0  0  0  0  0999 V2000
  -17.2675    8.0082   -1.4102 C   0  0  0  0  0  0  0  0  0  0  0  0
  -19.1513    6.4663   -1.0563 C   0  0  0  0  0  0  0  0  0  0  0  0
  -18.2401    9.1613   -1.2643 C   0  0  0  0  0  0  0  0  0  0  0  0
  -19.6158    8.6559   -1.7019 C   0  0  0  0  0  0  0  0  0  0  0  0
  -19.9968    7.5812   -0.8442 O   0  0  0  0  0  0  0  0  0  0  0  0
  -17.7686    6.8372   -0.6200 C   0  0  0  0  0  0  0  0  0  0  0  0
  -17.7194    7.0960    0.7706 O   0  0  0  0  0  0  0  0  0  0  0  0
  -17.8623   10.2711   -2.1123 O   0  0  0  0  0  0  0  0  0  0  0  0
  -18.2949    7.8482    0.9801 H   0  0  0  0  0  0  0  0  0  0  0  0
  -17.8534    9.9821   -3.0382 H   0  0  0  0  0  0  0  0  0  0  0  0
  -14.7065    7.9100   -1.1991 C   0  0  0  0  0  0  0  0  0  0  0  0
  -13.8185    8.7405   -0.5623 C   0  0  0  0  0  0  0  0  0  0  0  0
  -15.9360    8.4074   -0.9784 N   0  0  0  0  0  0  0  0  0  0  0  0
  -14.5177    9.7574    0.0192 N   0  0  0  0  0  0  0  0  0  0  0  0
  -15.8397    9.5278   -0.2233 N   0  0  0  0  0  0  0  0  0  0  0  0
  -11.6999    8.7163    0.6871 C   0  0  0  0  0  0  0  0  0  0  0  0
  -10.3102    8.6977   -1.6745 C   0  0  0  0  0  0  0  0  0  0  0  0
   -9.6087    8.7504   -0.4938 C   0  0  0  0  0  0  0  0  0  0  0  0
  -10.3466    8.7268    0.7434 C   0  0  0  0  0  0  0  0  0  0  0  0
  -12.3605    8.6817   -0.5306 C   0  0  0  0  0  0  0  0  0  0  0  0
  -11.6679    8.7629   -1.7210 C   0  0  0  0  0  0  0  0  0  0  0  0
   -9.6744    8.7792    1.9126 F   0  0  0  0  0  0  0  0  0  0  0  0
   -8.2827    8.7504   -0.4213 F   0  0  0  0  0  0  0  0  0  0  0  0
   -9.5555    8.7488   -2.8184 F   0  0  0  0  0  0  0  0  0  0  0  0
  -19.7158    5.2953   -0.2568 C   0  0  0  0  0  0  0  0  0  0  0  0
  -21.1335    5.1942   -0.3585 O   0  0  0  0  0  0  0  0  0  0  0  0
  -21.5415    5.9977    0.0003 H   0  0  0  0  0  0  0  0  0  0  0  0
  -20.8769    9.8143   -1.7015 S   0  0  0  0  0  0  0  0  0  0  0  0
  -23.8191    7.1046   -4.0359 C   0  0  0  0  0  0  0  0  0  0  0  0
  -24.0193    7.5347   -2.7297 C   0  0  0  0  0  0  0  0  0  0  0  0
  -22.3649    7.0093   -6.3179 Cl  0  0  0  0  0  0  0  0  0  0  0  0
  -22.6434    7.5454   -4.6353 C   0  0  0  0  0  0  0  0  0  0  0  0
  -21.7311    8.3684   -3.9512 C   0  0  0  0  0  0  0  0  0  0  0  0
  -21.9536    8.7859   -2.6060 C   0  0  0  0  0  0  0  0  0  0  0  0
  -23.1473    8.3210   -2.0361 C   0  0  0  0  0  0  0  0  0  0  0  0
 30 29  2  0  0  0
 30 35  1  0  0  0
 29 32  1  0  0  0
 35 34  2  0  0  0
 32 31  1  0  0  0
 32 33  2  0  0  0
 34 33  1  0  0  0
 34 28  1  0  0  0
  8  3  1  0  0  0
 15 14  2  0  0  0
 15 13  1  0  0  0
 14 12  1  0  0  0
 28  4  1  0  0  0
  4  3  1  0  0  0
  4  5  1  0  0  0
  1  3  1  0  0  0
  1 13  1  0  0  0
  1  6  1  0  0  0
 13 11  1  0  0  0
  2  5  1  0  0  0
  2  6  1  0  0  0
  2 25  1  0  0  0
 12 11  2  0  0  0
 12 20  1  0  0  0
  6  7  1  0  0  0
 16 20  2  0  0  0
 16 19  1  0  0  0
 22 19  1  0  0  0
 26 25  1  0  0  0
 20 21  1  0  0  0
 19 18  2  0  0  0
 21 17  2  0  0  0
 18 17  1  0  0  0
 18 23  1  0  0  0
 17 24  1  0  0  0
 26 27  1  0  0  0
  7  9  1  0  0  0
  8 10  1  0  0  0
M  END
> <minimizedAffinity>
-7.08273

$$$$
6EOG_BKK_A_1001


 35 38  0  0  0  0  0  0  0  0999 V2000
  -13.6162    7.2657   -0.4776 C   0  0  0  0  0  0  0  0  0  0  0  0
  -14.9461    8.7863    0.9262 C   0  0  0  0  0  0  0  0  0  0  0  0
  -14.3681    7.7913   -1.6839 C   0  0  0  0  0  0  0  0  0  0  0  0
  -15.7419    8.2563   -1.1982 C   0  0  0  0  0  0  0  0  0  0  0  0
  -15.5547    9.3002   -0.2436 O   0  0  0  0  0  0  0  0  0  0  0  0
  -13.5641    8.3322    0.5744 C   0  0  0  0  0  0  0  0  0  0  0  0
  -12.7534    9.4181    0.1664 O   0  0  0  0  0  0  0  0  0  0  0  0
  -14.5533    6.7531   -2.6745 O   0  0  0  0  0  0  0  0  0  0  0  0
  -13.1312    9.8222   -0.6304 H   0  0  0  0  0  0  0  0  0  0  0  0
  -15.0558    6.0205   -2.2850 H   0  0  0  0  0  0  0  0  0  0  0  0
  -11.3269    7.3647   -1.6447 C   0  0  0  0  0  0  0  0  0  0  0  0
  -10.2476    6.5184   -1.5933 C   0  0  0  0  0  0  0  0  0  0  0  0
  -12.2799    6.8330   -0.8593 N   0  0  0  0  0  0  0  0  0  0  0  0
  -10.5450    5.4885   -0.7495 N   0  0  0  0  0  0  0  0  0  0  0  0
  -11.8239    5.6789   -0.3164 N   0  0  0  0  0  0  0  0  0  0  0  0
   -8.2886    5.5301   -2.7049 C   0  0  0  0  0  0  0  0  0  0  0  0
   -7.0848    7.9910   -2.7659 C   0  0  0  0  0  0  0  0  0  0  0  0
   -6.3923    6.9031   -3.2413 C   0  0  0  0  0  0  0  0  0  0  0  0
   -7.0455    5.6190   -3.2354 C   0  0  0  0  0  0  0  0  0  0  0  0
   -8.9373    6.6553   -2.2215 C   0  0  0  0  0  0  0  0  0  0  0  0
   -8.3011    7.8783   -2.1680 C   0  0  0  0  0  0  0  0  0  0  0  0
   -6.3802    4.5392   -3.6972 F   0  0  0  0  0  0  0  0  0  0  0  0
   -5.1780    6.9751   -3.7739 F   0  0  0  0  0  0  0  0  0  0  0  0
   -6.4028    9.1807   -2.7734 F   0  0  0  0  0  0  0  0  0  0  0  0
  -14.9415    9.8958    1.9741 C   0  0  0  0  0  0  0  0  0  0  0  0
  -15.9144   10.9031    1.7111 O   0  0  0  0  0  0  0  0  0  0  0  0
  -15.7210   11.3249    0.8593 H   0  0  0  0  0  0  0  0  0  0  0  0
  -16.8144    8.8221   -2.4072 S   0  0  0  0  0  0  0  0  0  0  0  0
  -20.2258    6.0930   -0.8699 C   0  0  0  0  0  0  0  0  0  0  0  0
  -18.8931    5.9659   -0.4970 C   0  0  0  0  0  0  0  0  0  0  0  0
  -22.2074    7.3102   -2.2565 Cl  0  0  0  0  0  0  0  0  0  0  0  0
  -20.4989    7.1229   -1.7647 C   0  0  0  0  0  0  0  0  0  0  0  0
  -19.4837    7.9671   -2.2489 C   0  0  0  0  0  0  0  0  0  0  0  0
  -18.1209    7.8078   -1.8603 C   0  0  0  0  0  0  0  0  0  0  0  0
  -17.8853    6.7596   -0.9595 C   0  0  0  0  0  0  0  0  0  0  0  0
 30 29  2  0  0  0
 30 35  1  0  0  0
 29 32  1  0  0  0
 35 34  2  0  0  0
 32 31  1  0  0  0
 32 33  2  0  0  0
 34 33  1  0  0  0
 34 28  1  0  0  0
  8  3  1  0  0  0
 15 14  2  0  0  0
 15 13  1  0  0  0
 14 12  1  0  0  0
 28  4  1  0  0  0
  4  3  1  0  0  0
  4  5  1  0  0  0
  1  3  1  0  0  0
  1 13  1  0  0  0
  1  6  1  0  0  0
 13 11  1  0  0  0
  2  5  1  0  0  0
  2  6  1  0  0  0
  2 25  1  0  0  0
 12 11  2  0  0  0
 12 20  1  0  0  0
  6  7  1  0  0  0
 16 20  2  0  0  0
 16 19  1  0  0  0
 22 19  1  0  0  0
 26 25  1  0  0  0
 20 21  1  0  0  0
 19 18  2  0  0  0
 21 17  2  0  0  0
 18 17  1  0  0  0
 18 23  1  0  0  0
 17 24  1  0  0  0
 26 27  1  0  0  0
  7  9  1  0  0  0
  8 10  1  0  0  0
M  END
> <minimizedAffinity>
-6.90324

$$$$
6EOG_BKK_A_1001


 35 38  0  0  0  0  0  0  0  0999 V2000
  -14.3471    7.0656   -1.0132 C   0  0  0  0  0  0  0  0  0  0  0  0
  -15.2454    8.8379    0.4372 C   0  0  0  0  0  0  0  0  0  0  0  0
  -15.0236    7.7436   -2.1877 C   0  0  0  0  0  0  0  0  0  0  0  0
  -16.2383    8.4962   -1.6423 C   0  0  0  0  0  0  0  0  0  0  0  0
  -15.7829    9.4732   -0.7075 O   0  0  0  0  0  0  0  0  0  0  0  0
  -14.0139    8.0940    0.0251 C   0  0  0  0  0  0  0  0  0  0  0  0
  -13.0068    8.9777   -0.4308 O   0  0  0  0  0  0  0  0  0  0  0  0
  -15.4775    6.7718   -3.1587 O   0  0  0  0  0  0  0  0  0  0  0  0
  -13.3253    9.4553   -1.2126 H   0  0  0  0  0  0  0  0  0  0  0  0
  -16.1081    6.1658   -2.7392 H   0  0  0  0  0  0  0  0  0  0  0  0
  -12.8244    5.7299   -2.5976 C   0  0  0  0  0  0  0  0  0  0  0  0
  -11.5394    5.2722   -2.4454 C   0  0  0  0  0  0  0  0  0  0  0  0
  -13.1569    6.3526   -1.4532 N   0  0  0  0  0  0  0  0  0  0  0  0
  -11.0892    5.6478   -1.2137 N   0  0  0  0  0  0  0  0  0  0  0  0
  -12.1132    6.2987   -0.5915 N   0  0  0  0  0  0  0  0  0  0  0  0
  -11.1808    4.2760   -4.6656 C   0  0  0  0  0  0  0  0  0  0  0  0
   -8.6869    3.4480   -3.8885 C   0  0  0  0  0  0  0  0  0  0  0  0
   -9.1365    3.1089   -5.1423 C   0  0  0  0  0  0  0  0  0  0  0  0
  -10.4356    3.5762   -5.5541 C   0  0  0  0  0  0  0  0  0  0  0  0
  -10.6882    4.5767   -3.4056 C   0  0  0  0  0  0  0  0  0  0  0  0
   -9.4715    4.0857   -2.9790 C   0  0  0  0  0  0  0  0  0  0  0  0
  -10.8940    3.2516   -6.7814 F   0  0  0  0  0  0  0  0  0  0  0  0
   -8.4145    2.4329   -6.0285 F   0  0  0  0  0  0  0  0  0  0  0  0
   -7.4551    2.9536   -3.5437 F   0  0  0  0  0  0  0  0  0  0  0  0
  -14.9492    9.9185    1.4733 C   0  0  0  0  0  0  0  0  0  0  0  0
  -14.6303   11.1744    0.8804 O   0  0  0  0  0  0  0  0  0  0  0  0
  -13.8309   11.0826    0.3387 H   0  0  0  0  0  0  0  0  0  0  0  0
  -17.2187    9.2833   -2.8049 S   0  0  0  0  0  0  0  0  0  0  0  0
  -21.0363    6.8845   -1.7465 C   0  0  0  0  0  0  0  0  0  0  0  0
  -21.0041    7.9530   -2.6344 C   0  0  0  0  0  0  0  0  0  0  0  0
  -19.8297    5.1801   -0.0229 Cl  0  0  0  0  0  0  0  0  0  0  0  0
  -19.8156    6.5548   -1.1658 C   0  0  0  0  0  0  0  0  0  0  0  0
  -18.6401    7.2653   -1.4676 C   0  0  0  0  0  0  0  0  0  0  0  0
  -18.6360    8.3668   -2.3732 C   0  0  0  0  0  0  0  0  0  0  0  0
  -19.8837    8.6693   -2.9365 C   0  0  0  0  0  0  0  0  0  0  0  0
 30 29  2  0  0  0
 30 35  1  0  0  0
 29 32  1  0  0  0
 35 34  2  0  0  0
 32 31  1  0  0  0
 32 33  2  0  0  0
 34 33  1  0  0  0
 34 28  1  0  0  0
  8  3  1  0  0  0
 15 14  2  0  0  0
 15 13  1  0  0  0
 14 12  1  0  0  0
 28  4  1  0  0  0
  4  3  1  0  0  0
  4  5  1  0  0  0
  1  3  1  0  0  0
  1 13  1  0  0  0
  1  6  1  0  0  0
 13 11  1  0  0  0
  2  5  1  0  0  0
  2  6  1  0  0  0
  2 25  1  0  0  0
 12 11  2  0  0  0
 12 20  1  0  0  0
  6  7  1  0  0  0
 16 20  2  0  0  0
 16 19  1  0  0  0
 22 19  1  0  0  0
 26 25  1  0  0  0
 20 21  1  0  0  0
 19 18  2  0  0  0
 21 17  2  0  0  0
 18 17  1  0  0  0
 18 23  1  0  0  0
 17 24  1  0  0  0
 26 27  1  0  0  0
  7  9  1  0  0  0
  8 10  1  0  0  0
M  END
> <minimizedAffinity>
-6.60950

$$$$
