5OH7_HYN_A_202
  RCSB PDB10131806123D
Coordinates from PDB:5OH7:A:202 Model:1 without hydrogens
  7  7  0  0  0  0            999 V2000
   21.3620   15.0440   -7.2390   O 0  0  0  0  0  0  0  0  0  0  0  0
   22.4660   15.6960   -7.3290   C 0  0  0  0  0  0  0  0  0  0  0  0
   22.7810   16.8650   -6.4780   C 0  0  0  0  0  0  0  0  0  0  0  0
   24.1200   17.1340   -6.9370   N 0  0  0  0  0  0  0  0  0  0  0  0
   23.4080   15.3090   -8.2140   N 0  0  0  0  0  0  0  0  0  0  0  0
   24.4070   16.2250   -7.9000   C 0  0  0  0  0  0  0  0  0  0  0  0
   25.5300   16.2640   -8.4550   O 0  0  0  0  0  0  0  0  0  0  0  0
  1  2  2  0  0  0  0
  2  3  1  0  0  0  0
  2  5  1  0  0  0  0
  3  4  1  0  0  0  0
  4  6  1  0  0  0  0
  5  6  1  0  0  0  0
  6  7  2  0  0  0  0
A    1
O
A    2
C
A    3
C1
A    4
N
A    5
N1
A    6
C2
A    7
O1
M  END
>  <InstanceId>
5OH7_HYN_A_202

>  <ChemCompId>
HYN

>  <PdbId>
5OH7

>  <ChainId>
A

>  <ResidueNumber>
202

>  <InsertionCode>


>  <Model>
1

>  <AltIds>


>  <MissingHeavyAtoms>
0

>  <ObservedFormula>
C3 N2 O2

>  <Name>
imidazolidine-2,4-dione

>  <SystematicName>
imidazolidine-2,4-dione

>  <Synonyms>
Hydantoin

>  <Type>
NON-POLYMER

>  <Formula>
C3 H4 N2 O2

>  <MolecularWeight>
100.076

>  <ModifiedDate>
2011-06-04

>  <Parent>


>  <OneLetterCode>


>  <SubcomponentList>


>  <AmbiguousFlag>
N

>  <InChI>
InChI=1S/C3H4N2O2/c6-2-1-4-3(7)5-2/h1H2,(H2,4,5,6,7)

>  <InChIKey>
WJRBRSLFGCUECM-UHFFFAOYSA-N

>  <SMILES>
C1C(=O)NC(=O)N1

$$$$
