1BXR_ANP_A_1083
  RCSB PDB12061702073D
Coordinates from PDB:1BXR:A:1083 Model:1 without hydrogens
 31 33  0  0  0  0            999 V2000
   20.7420   29.4160   71.6650   P 0  0  0  0  0  0  0  0  0  0  0  0
   21.5970   29.0350   70.4450   O 0  0  0  0  0  0  0  0  0  0  0  0
   21.4680   30.4410   72.4470   O 0  0  0  0  0  0  0  0  0  0  0  0
   20.5270   28.1650   72.6600   O 0  0  0  0  0  0  0  0  0  0  0  0
   17.9740   29.1110   70.7120   P 0  0  0  0  0  0  0  0  0  0  0  0
   18.3140   28.3020   69.4830   O 0  0  0  0  0  0  0  0  0  0  0  0
   17.4090   28.2610   71.8170   O 0  0  0  0  0  0  0  0  0  0  0  0
   19.2880   29.9350   71.2370   N 0  0  0  0  0  0  0  0  0  0  0  0
   16.2510   31.3200   71.0760   P 0  0  0  0  0  0  0  0  0  0  0  0
   15.2010   30.8060   72.0270   O 0  0  0  0  0  0  0  0  0  0  0  0
   17.3890   31.9090   71.8580   O 0  0  0  0  0  0  0  0  0  0  0  0
   16.8310   30.1010   70.2470   O 0  0  0  0  0  0  0  0  0  0  0  0
   15.6130   32.4080   70.0710   O 0  0  0  0  0  0  0  0  0  0  0  0
   16.4020   32.8080   68.9130   C 0  0  0  0  0  0  0  0  0  0  0  0
   16.2000   34.2750   68.5030   C 0  0  0  0  0  0  0  0  0  0  0  0
   14.8860   34.4730   67.9180   O 0  0  0  0  0  0  0  0  0  0  0  0
   16.3140   35.3230   69.6070   C 0  0  0  0  0  0  0  0  0  0  0  0
   17.6850   35.6840   69.8610   O 0  0  0  0  0  0  0  0  0  0  0  0
   15.3520   36.4310   69.1340   C 0  0  0  0  0  0  0  0  0  0  0  0
   16.0400   37.5370   68.5280   O 0  0  0  0  0  0  0  0  0  0  0  0
   14.4090   35.7560   68.1460   C 0  0  0  0  0  0  0  0  0  0  0  0
   13.0470   35.6550   68.6980   N 0  0  0  0  0  0  0  0  0  0  0  0
   12.5860   34.7950   69.6380   C 0  0  0  0  0  0  0  0  0  0  0  0
   11.2790   34.9230   69.8850   N 0  0  0  0  0  0  0  0  0  0  0  0
   10.8660   35.9480   69.0720   C 0  0  0  0  0  0  0  0  0  0  0  0
    9.5790   36.5350   68.9260   C 0  0  0  0  0  0  0  0  0  0  0  0
    8.5250   36.2230   69.5420   N 0  0  0  0  0  0  0  0  0  0  0  0
    9.6240   37.5490   68.0120   N 0  0  0  0  0  0  0  0  0  0  0  0
   10.7340   37.9740   67.3150   C 0  0  0  0  0  0  0  0  0  0  0  0
   11.9220   37.4480   67.4500   N 0  0  0  0  0  0  0  0  0  0  0  0
   11.9430   36.4300   68.3430   C 0  0  0  0  0  0  0  0  0  0  0  0
  1  2  2  0  0  0  0
  1  3  1  0  0  0  0
  1  4  1  0  0  0  0
  1  8  1  0  0  0  0
  5  6  2  0  0  0  0
  5  7  1  0  0  0  0
  5  8  1  0  0  0  0
  5 12  1  0  0  0  0
  9 10  2  0  0  0  0
  9 11  1  0  0  0  0
  9 12  1  0  0  0  0
  9 13  1  0  0  0  0
 13 14  1  0  0  0  0
 14 15  1  0  0  0  0
 15 16  1  0  0  0  0
 15 17  1  0  0  0  0
 16 21  1  0  0  0  0
 17 18  1  0  0  0  0
 17 19  1  0  0  0  0
 19 20  1  0  0  0  0
 19 21  1  0  0  0  0
 21 22  1  0  0  0  0
 22 23  1  0  0  0  0
 22 31  1  0  0  0  0
 23 24  2  0  0  0  0
 24 25  1  0  0  0  0
 25 26  1  0  0  0  0
 25 31  2  0  0  0  0
 26 27  1  0  0  0  0
 26 28  2  0  0  0  0
 28 29  1  0  0  0  0
 29 30  2  0  0  0  0
 30 31  1  0  0  0  0
A    1
PG
A    2
O1G
A    3
O2G
A    4
O3G
A    5
PB
A    6
O1B
A    7
O2B
A    8
N3B
A    9
PA
A   10
O1A
A   11
O2A
A   12
O3A
A   13
O5'
A   14
C5'
A   15
C4'
A   16
O4'
A   17
C3'
A   18
O3'
A   19
C2'
A   20
O2'
A   21
C1'
A   22
N9
A   23
C8
A   24
N7
A   25
C5
A   26
C6
A   27
N6
A   28
N1
A   29
C2
A   30
N3
A   31
C4
M  END
>  <InstanceId>
1BXR_ANP_A_1083

>  <ChemCompId>
ANP

>  <PdbId>
1BXR

>  <ChainId>
A

>  <ResidueNumber>
1083

>  <InsertionCode>


>  <Model>
1

>  <AltIds>


>  <MissingHeavyAtoms>
0

>  <ObservedFormula>
C10 N6 O12 P3

>  <Name>
PHOSPHOAMINOPHOSPHONIC ACID-ADENYLATE ESTER

>  <SystematicName>
[[[[(2R,3S,4R,5R)-5-(6-aminopurin-9-yl)-3,4-dihydroxy-oxolan-2-yl]methoxy-hydroxy-phosphoryl]oxy-hydroxy-phosphoryl]amino]phosphonic acid

>  <Synonyms>


>  <Type>
NON-POLYMER

>  <Formula>
C10 H17 N6 O12 P3

>  <MolecularWeight>
506.196

>  <ModifiedDate>
2011-06-04

>  <Parent>


>  <OneLetterCode>


>  <SubcomponentList>


>  <AmbiguousFlag>
N

>  <InChI>
InChI=1S/C10H17N6O12P3/c11-8-5-9(13-2-12-8)16(3-14-5)10-7(18)6(17)4(27-10)1-26-31(24,25)28-30(22,23)15-29(19,20)21/h2-4,6-7,10,17-18H,1H2,(H,24,25)(H2,11,12,13)(H4,15,19,20,21,22,23)/t4-,6-,7-,10-/m1/s1

>  <InChIKey>
PVKSNHVPLWYQGJ-KQYNXXCUSA-N

>  <SMILES>
c1nc(c2c(n1)n(cn2)[C@H]3[C@@H]([C@@H]([C@H](O3)CO[P@](=O)(O)O[P@@](=O)(NP(=O)(O)O)O)O)O)N

$$$$
