1K1Y_ACR_A_660


 58 61  0  0  0  0  0  0  0  0999 V2000
   -0.5328   53.3119   92.8433 C   0  0  0  0  0  0  0  0  0  0  0  0
   -0.8993   53.7082   91.3782 C   0  0  0  0  0  0  0  0  0  0  0  0
   -0.6209   55.2157   91.1543 C   0  0  0  0  0  0  0  0  0  0  0  0
   -1.5037   56.0128   92.1713 C   0  0  0  0  0  0  0  0  0  0  0  0
   -1.0143   55.5986   93.6017 C   0  0  0  0  0  0  0  0  0  0  0  0
   -0.1593   52.8811   90.4925 O   0  0  0  0  0  0  0  0  0  0  0  0
   -0.9878   55.5065   89.8167 O   0  0  0  0  0  0  0  0  0  0  0  0
   -1.2081   54.1555   93.7868 O   0  0  0  0  0  0  0  0  0  0  0  0
    0.7896   53.0061   90.6502 H   0  0  0  0  0  0  0  0  0  0  0  0
   -1.9174   55.2672   89.6771 H   0  0  0  0  0  0  0  0  0  0  0  0
   -1.8180   56.2919   94.7272 C   0  0  0  0  0  0  0  0  0  0  0  0
   -3.1599   56.5032   94.3556 O   0  0  0  0  0  0  0  0  0  0  0  0
   -3.1927   57.0803   93.5766 H   0  0  0  0  0  0  0  0  0  0  0  0
   -1.2896   57.4271   92.0905 O   0  0  0  0  0  0  0  0  0  0  0  0
   -2.1925   58.3496   91.6439 C   0  0  0  0  0  0  0  0  0  0  0  0
   -1.7672   59.3946   90.5665 C   0  0  0  0  0  0  0  0  0  0  0  0
   -0.6611   60.3393   91.0788 C   0  0  0  0  0  0  0  0  0  0  0  0
   -1.1682   61.0579   92.3596 C   0  0  0  0  0  0  0  0  0  0  0  0
   -1.4703   59.9366   93.4517 C   0  0  0  0  0  0  0  0  0  0  0  0
   -1.9827   60.4814   94.7730 C   0  0  0  0  0  0  0  0  0  0  0  0
   -1.4016   58.6930   89.3864 O   0  0  0  0  0  0  0  0  0  0  0  0
   -0.3556   61.2716   90.0373 O   0  0  0  0  0  0  0  0  0  0  0  0
   -2.5097   58.9872   92.9115 O   0  0  0  0  0  0  0  0  0  0  0  0
   -0.6557   58.1035   89.5787 H   0  0  0  0  0  0  0  0  0  0  0  0
   -1.1563   61.7651   89.8000 H   0  0  0  0  0  0  0  0  0  0  0  0
   -0.1310   62.0126   92.8457 N   0  0  0  0  0  0  0  0  0  0  0  0
   -0.0580   61.9034   93.8572 H   0  0  0  0  0  0  0  0  0  0  0  0
   -0.3772   63.4699   92.5587 C   0  0  0  0  0  0  0  0  0  0  0  0
    0.9949   64.1637   92.0388 C   0  0  0  0  0  0  0  0  0  0  0  0
    1.9810   64.3069   93.2581 C   0  0  0  0  0  0  0  0  0  0  0  0
    1.3505   65.2607   94.3337 C   0  0  0  0  0  0  0  0  0  0  0  0
   -0.1241   64.9431   94.6827 C   0  0  0  0  0  0  0  0  0  0  0  0
   -0.8890   64.1403   93.8638 C   0  0  0  0  0  0  0  0  0  0  0  0
    1.5278   63.3509   91.0329 O   0  0  0  0  0  0  0  0  0  0  0  0
    3.1943   64.8886   92.8263 O   0  0  0  0  0  0  0  0  0  0  0  0
    2.2942   65.2753   95.4405 O   0  0  0  0  0  0  0  0  0  0  0  0
    1.6876   62.4619   91.3864 H   0  0  0  0  0  0  0  0  0  0  0  0
    3.0175   65.7672   92.4551 H   0  0  0  0  0  0  0  0  0  0  0  0
    2.4067   64.3742   95.7814 H   0  0  0  0  0  0  0  0  0  0  0  0
   -0.7349   65.5598   95.9396 C   0  0  0  0  0  0  0  0  0  0  0  0
   -0.1034   64.9540   97.0809 O   0  0  0  0  0  0  0  0  0  0  0  0
   -0.2502   63.9954   97.0608 H   0  0  0  0  0  0  0  0  0  0  0  0
    0.8406   53.4014   93.0444 O   0  0  0  0  0  0  0  0  0  0  0  0
    3.8497   51.0315   94.9424 C   0  0  0  0  0  0  0  0  0  0  0  0
    3.2440   50.5374   93.5863 C   0  0  0  0  0  0  0  0  0  0  0  0
    2.5844   51.7031   92.8446 C   0  0  0  0  0  0  0  0  0  0  0  0
    1.4789   52.2977   93.7353 C   0  0  0  0  0  0  0  0  0  0  0  0
    2.1218   52.8162   95.0984 C   0  0  0  0  0  0  0  0  0  0  0  0
    4.8839   51.9415   94.7103 O   0  0  0  0  0  0  0  0  0  0  0  0
    4.2926   49.9501   92.7950 O   0  0  0  0  0  0  0  0  0  0  0  0
    2.0330   51.2135   91.5996 O   0  0  0  0  0  0  0  0  0  0  0  0
    2.7995   51.6793   95.7837 O   0  0  0  0  0  0  0  0  0  0  0  0
    4.5348   52.7144   94.2395 H   0  0  0  0  0  0  0  0  0  0  0  0
    4.9792   50.6137   92.6243 H   0  0  0  0  0  0  0  0  0  0  0  0
    1.3817   50.5191   91.7853 H   0  0  0  0  0  0  0  0  0  0  0  0
    1.0925   53.4185   96.0680 C   0  0  0  0  0  0  0  0  0  0  0  0
   -0.1229   52.6634   96.1104 O   0  0  0  0  0  0  0  0  0  0  0  0
   -0.5325   52.6603   95.2311 H   0  0  0  0  0  0  0  0  0  0  0  0
 28 29  1  0  0  0
 28 33  1  0  0  0
 28 26  1  0  0  0
 29 30  1  0  0  0
 29 34  1  0  0  0
 30 31  1  0  0  0
 30 35  1  0  0  0
 31 32  1  0  0  0
 31 36  1  0  0  0
 32 40  1  0  0  0
 32 33  2  0  0  0
 40 41  1  0  0  0
 15 16  1  0  0  0
 15 23  1  0  0  0
 15 14  1  0  0  0
 16 17  1  0  0  0
 16 21  1  0  0  0
 17 18  1  0  0  0
 17 22  1  0  0  0
 18 19  1  0  0  0
 18 26  1  0  0  0
 19 20  1  0  0  0
 19 23  1  0  0  0
  1  2  1  0  0  0
  1  8  1  0  0  0
  1 43  1  0  0  0
  2  3  1  0  0  0
  2  6  1  0  0  0
  3  4  1  0  0  0
  3  7  1  0  0  0
  4  5  1  0  0  0
  4 14  1  0  0  0
  5 11  1  0  0  0
  5  8  1  0  0  0
 11 12  1  0  0  0
 44 45  1  0  0  0
 44 49  1  0  0  0
 44 52  1  0  0  0
 45 46  1  0  0  0
 45 50  1  0  0  0
 46 47  1  0  0  0
 46 51  1  0  0  0
 47 48  1  0  0  0
 47 43  1  0  0  0
 48 56  1  0  0  0
 48 52  1  0  0  0
 56 57  1  0  0  0
 34 37  1  0  0  0
 35 38  1  0  0  0
 36 39  1  0  0  0
 41 42  1  0  0  0
 26 27  1  0  0  0
 21 24  1  0  0  0
 22 25  1  0  0  0
  6  9  1  0  0  0
  7 10  1  0  0  0
 12 13  1  0  0  0
 49 53  1  0  0  0
 50 54  1  0  0  0
 51 55  1  0  0  0
 57 58  1  0  0  0
M  END
> <minimizedAffinity>
-11.41189

$$$$
1K1Y_ACR_A_660


 58 61  0  0  0  0  0  0  0  0999 V2000
    3.5145   50.5879   95.1136 C   0  0  0  0  0  0  0  0  0  0  0  0
    3.3087   50.3491   93.5843 C   0  0  0  0  0  0  0  0  0  0  0  0
    2.6199   51.5813   92.9461 C   0  0  0  0  0  0  0  0  0  0  0  0
    1.2394   51.7696   93.6586 C   0  0  0  0  0  0  0  0  0  0  0  0
    1.5557   52.0701   95.1641 C   0  0  0  0  0  0  0  0  0  0  0  0
    4.5729   50.0699   93.0011 O   0  0  0  0  0  0  0  0  0  0  0  0
    2.4525   51.2904   91.5692 O   0  0  0  0  0  0  0  0  0  0  0  0
    2.2759   50.9332   95.7498 O   0  0  0  0  0  0  0  0  0  0  0  0
    5.1703   50.8195   93.1498 H   0  0  0  0  0  0  0  0  0  0  0  0
    1.9374   50.4744   91.4714 H   0  0  0  0  0  0  0  0  0  0  0  0
    0.2760   52.2566   96.0132 C   0  0  0  0  0  0  0  0  0  0  0  0
   -0.0116   53.6180   96.2309 O   0  0  0  0  0  0  0  0  0  0  0  0
    0.7213   54.0299   96.7147 H   0  0  0  0  0  0  0  0  0  0  0  0
    0.5300   52.9193   93.1818 O   0  0  0  0  0  0  0  0  0  0  0  0
   -0.7087   52.9143   92.6060 C   0  0  0  0  0  0  0  0  0  0  0  0
   -0.8802   53.3833   91.1280 C   0  0  0  0  0  0  0  0  0  0  0  0
   -0.5135   54.8699   90.9445 C   0  0  0  0  0  0  0  0  0  0  0  0
   -1.3999   55.7261   91.8907 C   0  0  0  0  0  0  0  0  0  0  0  0
   -1.0845   55.2721   93.3858 C   0  0  0  0  0  0  0  0  0  0  0  0
   -1.8809   56.0189   94.4408 C   0  0  0  0  0  0  0  0  0  0  0  0
   -0.1259   52.5139   90.2952 O   0  0  0  0  0  0  0  0  0  0  0  0
   -0.7238   55.2131   89.5714 O   0  0  0  0  0  0  0  0  0  0  0  0
   -1.3918   53.8031   93.5319 O   0  0  0  0  0  0  0  0  0  0  0  0
    0.8106   52.5602   90.5435 H   0  0  0  0  0  0  0  0  0  0  0  0
   -1.6501   55.0486   89.3352 H   0  0  0  0  0  0  0  0  0  0  0  0
   -1.0946   57.1726   91.6951 N   0  0  0  0  0  0  0  0  0  0  0  0
   -0.5754   57.4936   92.5123 H   0  0  0  0  0  0  0  0  0  0  0  0
   -2.2773   58.0867   91.5152 C   0  0  0  0  0  0  0  0  0  0  0  0
   -2.1075   58.9359   90.1424 C   0  0  0  0  0  0  0  0  0  0  0  0
   -0.9804   60.0151   90.3531 C   0  0  0  0  0  0  0  0  0  0  0  0
   -1.4197   61.0203   91.4759 C   0  0  0  0  0  0  0  0  0  0  0  0
   -1.9668   60.3462   92.7579 C   0  0  0  0  0  0  0  0  0  0  0  0
   -2.3567   59.0240   92.7521 C   0  0  0  0  0  0  0  0  0  0  0  0
   -1.7800   58.0356   89.1232 O   0  0  0  0  0  0  0  0  0  0  0  0
   -0.7971   60.7541   89.1626 O   0  0  0  0  0  0  0  0  0  0  0  0
   -0.2963   61.9286   91.6452 O   0  0  0  0  0  0  0  0  0  0  0  0
   -0.9642   57.5655   89.3568 H   0  0  0  0  0  0  0  0  0  0  0  0
   -1.6257   61.2008   88.9285 H   0  0  0  0  0  0  0  0  0  0  0  0
    0.4913   61.4243   91.9028 H   0  0  0  0  0  0  0  0  0  0  0  0
   -2.0988   61.1790   94.0315 C   0  0  0  0  0  0  0  0  0  0  0  0
   -2.0126   62.5666   93.6633 O   0  0  0  0  0  0  0  0  0  0  0  0
   -1.1616   62.7335   93.2287 H   0  0  0  0  0  0  0  0  0  0  0  0
    4.4422   51.6016   95.3291 O   0  0  0  0  0  0  0  0  0  0  0  0
    7.7200   52.1358   98.0207 C   0  0  0  0  0  0  0  0  0  0  0  0
    7.4598   50.7133   97.4215 C   0  0  0  0  0  0  0  0  0  0  0  0
    6.6027   50.8195   96.1573 C   0  0  0  0  0  0  0  0  0  0  0  0
    5.2684   51.4974   96.5164 C   0  0  0  0  0  0  0  0  0  0  0  0
    5.5563   52.9521   97.1005 C   0  0  0  0  0  0  0  0  0  0  0  0
    8.4788   52.9051   97.1352 O   0  0  0  0  0  0  0  0  0  0  0  0
    8.7251   50.0903   97.1358 O   0  0  0  0  0  0  0  0  0  0  0  0
    6.3784   49.4904   95.6311 O   0  0  0  0  0  0  0  0  0  0  0  0
    6.4297   52.8331   98.3023 O   0  0  0  0  0  0  0  0  0  0  0  0
    7.9917   53.0154   96.3036 H   0  0  0  0  0  0  0  0  0  0  0  0
    9.2143   50.6306   96.4957 H   0  0  0  0  0  0  0  0  0  0  0  0
    5.9293   48.9496   96.2995 H   0  0  0  0  0  0  0  0  0  0  0  0
    4.2818   53.7103   97.5047 C   0  0  0  0  0  0  0  0  0  0  0  0
    3.2504   52.8333   97.9698 O   0  0  0  0  0  0  0  0  0  0  0  0
    3.0011   52.2219   97.2592 H   0  0  0  0  0  0  0  0  0  0  0  0
 28 29  1  0  0  0
 28 33  1  0  0  0
 28 26  1  0  0  0
 29 30  1  0  0  0
 29 34  1  0  0  0
 30 31  1  0  0  0
 30 35  1  0  0  0
 31 32  1  0  0  0
 31 36  1  0  0  0
 32 40  1  0  0  0
 32 33  2  0  0  0
 40 41  1  0  0  0
 15 16  1  0  0  0
 15 23  1  0  0  0
 15 14  1  0  0  0
 16 17  1  0  0  0
 16 21  1  0  0  0
 17 18  1  0  0  0
 17 22  1  0  0  0
 18 19  1  0  0  0
 18 26  1  0  0  0
 19 20  1  0  0  0
 19 23  1  0  0  0
  1  2  1  0  0  0
  1  8  1  0  0  0
  1 43  1  0  0  0
  2  3  1  0  0  0
  2  6  1  0  0  0
  3  4  1  0  0  0
  3  7  1  0  0  0
  4  5  1  0  0  0
  4 14  1  0  0  0
  5 11  1  0  0  0
  5  8  1  0  0  0
 11 12  1  0  0  0
 44 45  1  0  0  0
 44 49  1  0  0  0
 44 52  1  0  0  0
 45 46  1  0  0  0
 45 50  1  0  0  0
 46 47  1  0  0  0
 46 51  1  0  0  0
 47 48  1  0  0  0
 47 43  1  0  0  0
 48 56  1  0  0  0
 48 52  1  0  0  0
 56 57  1  0  0  0
 34 37  1  0  0  0
 35 38  1  0  0  0
 36 39  1  0  0  0
 41 42  1  0  0  0
 26 27  1  0  0  0
 21 24  1  0  0  0
 22 25  1  0  0  0
  6  9  1  0  0  0
  7 10  1  0  0  0
 12 13  1  0  0  0
 49 53  1  0  0  0
 50 54  1  0  0  0
 51 55  1  0  0  0
 57 58  1  0  0  0
M  END
> <minimizedAffinity>
-10.97929

$$$$
1K1Y_ACR_A_660


 58 61  0  0  0  0  0  0  0  0999 V2000
   -2.1655   57.7164   91.6164 C   0  0  0  0  0  0  0  0  0  0  0  0
   -2.1598   58.7145   90.4157 C   0  0  0  0  0  0  0  0  0  0  0  0
   -1.2365   59.9171   90.7339 C   0  0  0  0  0  0  0  0  0  0  0  0
   -1.7973   60.6133   92.0184 C   0  0  0  0  0  0  0  0  0  0  0  0
   -1.6968   59.5583   93.1733 C   0  0  0  0  0  0  0  0  0  0  0  0
   -1.7544   58.0108   89.2509 O   0  0  0  0  0  0  0  0  0  0  0  0
   -1.2908   60.7838   89.6140 O   0  0  0  0  0  0  0  0  0  0  0  0
   -2.5122   58.3851   92.8373 O   0  0  0  0  0  0  0  0  0  0  0  0
   -0.8683   57.6411   89.3885 H   0  0  0  0  0  0  0  0  0  0  0  0
   -2.2109   61.0441   89.4509 H   0  0  0  0  0  0  0  0  0  0  0  0
   -2.2436   60.0960   94.5169 C   0  0  0  0  0  0  0  0  0  0  0  0
   -2.0034   59.1975   95.5745 O   0  0  0  0  0  0  0  0  0  0  0  0
   -2.4522   58.3570   95.3930 H   0  0  0  0  0  0  0  0  0  0  0  0
   -0.9877   61.7175   92.4399 O   0  0  0  0  0  0  0  0  0  0  0  0
   -0.9219   62.9399   91.8339 C   0  0  0  0  0  0  0  0  0  0  0  0
    0.4554   63.4993   91.3607 C   0  0  0  0  0  0  0  0  0  0  0  0
    1.4199   63.7406   92.5395 C   0  0  0  0  0  0  0  0  0  0  0  0
    0.7521   64.7224   93.5417 C   0  0  0  0  0  0  0  0  0  0  0  0
   -0.5852   64.0339   94.0696 C   0  0  0  0  0  0  0  0  0  0  0  0
   -1.3640   64.8760   95.0643 C   0  0  0  0  0  0  0  0  0  0  0  0
    0.9807   62.6162   90.3796 O   0  0  0  0  0  0  0  0  0  0  0  0
    2.6396   64.2728   92.0137 O   0  0  0  0  0  0  0  0  0  0  0  0
   -1.4913   63.7505   92.8981 O   0  0  0  0  0  0  0  0  0  0  0  0
    1.1045   61.7366   90.7694 H   0  0  0  0  0  0  0  0  0  0  0  0
    2.4540   65.0975   91.5379 H   0  0  0  0  0  0  0  0  0  0  0  0
    1.6877   65.0070   94.6674 N   0  0  0  0  0  0  0  0  0  0  0  0
    2.5968   65.2357   94.2654 H   0  0  0  0  0  0  0  0  0  0  0  0
    1.8930   63.8961   95.6627 C   0  0  0  0  0  0  0  0  0  0  0  0
    2.0471   64.5198   97.1533 C   0  0  0  0  0  0  0  0  0  0  0  0
    3.4515   65.2234   97.2629 C   0  0  0  0  0  0  0  0  0  0  0  0
    4.5886   64.1567   97.0801 C   0  0  0  0  0  0  0  0  0  0  0  0
    4.3907   63.2140   95.8680 C   0  0  0  0  0  0  0  0  0  0  0  0
    3.1642   63.1042   95.2484 C   0  0  0  0  0  0  0  0  0  0  0  0
    0.9972   65.4236   97.3467 O   0  0  0  0  0  0  0  0  0  0  0  0
    3.6011   65.7953   98.5464 O   0  0  0  0  0  0  0  0  0  0  0  0
    5.8346   64.9056   97.1276 O   0  0  0  0  0  0  0  0  0  0  0  0
    1.0338   66.1124   96.6647 H   0  0  0  0  0  0  0  0  0  0  0  0
    3.5404   65.0995   99.2195 H   0  0  0  0  0  0  0  0  0  0  0  0
    5.8430   65.5648   96.4161 H   0  0  0  0  0  0  0  0  0  0  0  0
    5.5729   62.3775   95.3822 C   0  0  0  0  0  0  0  0  0  0  0  0
    6.4238   62.1168   96.5119 O   0  0  0  0  0  0  0  0  0  0  0  0
    6.7277   62.9574   96.8887 H   0  0  0  0  0  0  0  0  0  0  0  0
   -0.9192   57.1150   91.7574 O   0  0  0  0  0  0  0  0  0  0  0  0
    0.4584   53.0912   92.1875 C   0  0  0  0  0  0  0  0  0  0  0  0
   -0.6885   53.3909   91.1653 C   0  0  0  0  0  0  0  0  0  0  0  0
   -0.6991   54.8781   90.8019 C   0  0  0  0  0  0  0  0  0  0  0  0
   -0.9022   55.7026   92.0856 C   0  0  0  0  0  0  0  0  0  0  0  0
    0.2890   55.4005   93.1004 C   0  0  0  0  0  0  0  0  0  0  0  0
    1.7049   53.3276   91.6029 O   0  0  0  0  0  0  0  0  0  0  0  0
   -0.4939   52.5757   89.9956 O   0  0  0  0  0  0  0  0  0  0  0  0
   -1.7701   55.1220   89.8600 O   0  0  0  0  0  0  0  0  0  0  0  0
    0.3137   53.9421   93.4064 O   0  0  0  0  0  0  0  0  0  0  0  0
    1.7698   54.2607   91.3458 H   0  0  0  0  0  0  0  0  0  0  0  0
    0.3644   52.7846   89.5950 H   0  0  0  0  0  0  0  0  0  0  0  0
   -2.6163   54.8655   90.2590 H   0  0  0  0  0  0  0  0  0  0  0  0
    0.1704   56.1688   94.4264 C   0  0  0  0  0  0  0  0  0  0  0  0
   -1.1872   56.4825   94.7547 O   0  0  0  0  0  0  0  0  0  0  0  0
   -1.5635   57.0512   94.0649 H   0  0  0  0  0  0  0  0  0  0  0  0
 28 29  1  0  0  0
 28 33  1  0  0  0
 28 26  1  0  0  0
 29 30  1  0  0  0
 29 34  1  0  0  0
 30 31  1  0  0  0
 30 35  1  0  0  0
 31 32  1  0  0  0
 31 36  1  0  0  0
 32 40  1  0  0  0
 32 33  2  0  0  0
 40 41  1  0  0  0
 15 16  1  0  0  0
 15 23  1  0  0  0
 15 14  1  0  0  0
 16 17  1  0  0  0
 16 21  1  0  0  0
 17 18  1  0  0  0
 17 22  1  0  0  0
 18 19  1  0  0  0
 18 26  1  0  0  0
 19 20  1  0  0  0
 19 23  1  0  0  0
  1  2  1  0  0  0
  1  8  1  0  0  0
  1 43  1  0  0  0
  2  3  1  0  0  0
  2  6  1  0  0  0
  3  4  1  0  0  0
  3  7  1  0  0  0
  4  5  1  0  0  0
  4 14  1  0  0  0
  5 11  1  0  0  0
  5  8  1  0  0  0
 11 12  1  0  0  0
 44 45  1  0  0  0
 44 49  1  0  0  0
 44 52  1  0  0  0
 45 46  1  0  0  0
 45 50  1  0  0  0
 46 47  1  0  0  0
 46 51  1  0  0  0
 47 48  1  0  0  0
 47 43  1  0  0  0
 48 56  1  0  0  0
 48 52  1  0  0  0
 56 57  1  0  0  0
 34 37  1  0  0  0
 35 38  1  0  0  0
 36 39  1  0  0  0
 41 42  1  0  0  0
 26 27  1  0  0  0
 21 24  1  0  0  0
 22 25  1  0  0  0
  6  9  1  0  0  0
  7 10  1  0  0  0
 12 13  1  0  0  0
 49 53  1  0  0  0
 50 54  1  0  0  0
 51 55  1  0  0  0
 57 58  1  0  0  0
M  END
> <minimizedAffinity>
-10.59166

$$$$
1K1Y_ACR_A_660


 58 61  0  0  0  0  0  0  0  0999 V2000
    1.5974   64.0810   93.9855 C   0  0  0  0  0  0  0  0  0  0  0  0
    0.0591   64.2850   94.1589 C   0  0  0  0  0  0  0  0  0  0  0  0
   -0.6528   62.9101   94.2104 C   0  0  0  0  0  0  0  0  0  0  0  0
   -0.3495   62.1729   92.8638 C   0  0  0  0  0  0  0  0  0  0  0  0
    1.2022   61.9557   92.8179 C   0  0  0  0  0  0  0  0  0  0  0  0
   -0.1606   65.0556   95.3312 O   0  0  0  0  0  0  0  0  0  0  0  0
   -2.0385   63.1706   94.3533 O   0  0  0  0  0  0  0  0  0  0  0  0
    1.8800   63.2573   92.8455 O   0  0  0  0  0  0  0  0  0  0  0  0
    0.2081   64.5899   96.0981 H   0  0  0  0  0  0  0  0  0  0  0  0
   -2.3403   63.7271   93.6184 H   0  0  0  0  0  0  0  0  0  0  0  0
    1.6645   61.2536   91.5192 C   0  0  0  0  0  0  0  0  0  0  0  0
    2.8161   60.4710   91.7312 O   0  0  0  0  0  0  0  0  0  0  0  0
    3.5432   61.0397   92.0293 H   0  0  0  0  0  0  0  0  0  0  0  0
   -0.9192   60.8592   92.8188 O   0  0  0  0  0  0  0  0  0  0  0  0
   -2.2494   60.5598   92.9012 C   0  0  0  0  0  0  0  0  0  0  0  0
   -2.7576   59.5758   93.9999 C   0  0  0  0  0  0  0  0  0  0  0  0
   -2.1817   58.1566   93.8194 C   0  0  0  0  0  0  0  0  0  0  0  0
   -2.5645   57.6353   92.4067 C   0  0  0  0  0  0  0  0  0  0  0  0
   -1.9137   58.6229   91.3378 C   0  0  0  0  0  0  0  0  0  0  0  0
   -2.2012   58.2496   89.8945 C   0  0  0  0  0  0  0  0  0  0  0  0
   -2.4673   60.1400   95.2710 O   0  0  0  0  0  0  0  0  0  0  0  0
   -2.7194   57.3244   94.8518 O   0  0  0  0  0  0  0  0  0  0  0  0
   -2.4418   60.0166   91.5663 O   0  0  0  0  0  0  0  0  0  0  0  0
   -1.5088   60.2592   95.3606 H   0  0  0  0  0  0  0  0  0  0  0  0
   -3.6875   57.3202   94.7923 H   0  0  0  0  0  0  0  0  0  0  0  0
   -2.0573   56.2444   92.2283 N   0  0  0  0  0  0  0  0  0  0  0  0
   -2.3140   55.7114   93.0592 H   0  0  0  0  0  0  0  0  0  0  0  0
   -0.5726   56.0951   92.0284 C   0  0  0  0  0  0  0  0  0  0  0  0
   -0.2866   55.0499   90.8199 C   0  0  0  0  0  0  0  0  0  0  0  0
   -0.6242   53.5956   91.3204 C   0  0  0  0  0  0  0  0  0  0  0  0
    0.3299   53.2142   92.5071 C   0  0  0  0  0  0  0  0  0  0  0  0
    0.4522   54.3015   93.6027 C   0  0  0  0  0  0  0  0  0  0  0  0
    0.0476   55.5973   93.3634 C   0  0  0  0  0  0  0  0  0  0  0  0
   -1.0866   55.4245   89.7354 O   0  0  0  0  0  0  0  0  0  0  0  0
   -0.4048   52.6678   90.2774 O   0  0  0  0  0  0  0  0  0  0  0  0
   -0.1003   51.8948   92.9426 O   0  0  0  0  0  0  0  0  0  0  0  0
   -2.0189   55.4159   90.0032 H   0  0  0  0  0  0  0  0  0  0  0  0
    0.5253   52.7024   90.0043 H   0  0  0  0  0  0  0  0  0  0  0  0
   -1.0273   51.9341   93.2256 H   0  0  0  0  0  0  0  0  0  0  0  0
    1.0597   53.9247   94.9526 C   0  0  0  0  0  0  0  0  0  0  0  0
    2.0713   52.9292   94.7197 O   0  0  0  0  0  0  0  0  0  0  0  0
    1.6712   52.1552   94.2934 H   0  0  0  0  0  0  0  0  0  0  0  0
    2.1439   63.4971   95.1236 O   0  0  0  0  0  0  0  0  0  0  0  0
    5.3387   64.3869   97.8208 C   0  0  0  0  0  0  0  0  0  0  0  0
    4.0116   65.2103   97.9252 C   0  0  0  0  0  0  0  0  0  0  0  0
    2.8636   64.4526   97.2530 C   0  0  0  0  0  0  0  0  0  0  0  0
    3.2244   64.2107   95.7764 C   0  0  0  0  0  0  0  0  0  0  0  0
    4.5636   63.3505   95.6948 C   0  0  0  0  0  0  0  0  0  0  0  0
    5.2277   63.1927   98.5370 O   0  0  0  0  0  0  0  0  0  0  0  0
    3.7243   65.4554   99.3137 O   0  0  0  0  0  0  0  0  0  0  0  0
    1.6548   65.2401   97.3640 O   0  0  0  0  0  0  0  0  0  0  0  0
    5.6583   64.0810   96.3943 O   0  0  0  0  0  0  0  0  0  0  0  0
    4.5124   62.6558   98.1616 H   0  0  0  0  0  0  0  0  0  0  0  0
    3.6219   64.6094   99.7770 H   0  0  0  0  0  0  0  0  0  0  0  0
    1.7887   66.1001   96.9358 H   0  0  0  0  0  0  0  0  0  0  0  0
    5.0187   63.0653   94.2546 C   0  0  0  0  0  0  0  0  0  0  0  0
    4.3654   61.9220   93.6931 O   0  0  0  0  0  0  0  0  0  0  0  0
    4.5822   61.1356   94.2179 H   0  0  0  0  0  0  0  0  0  0  0  0
 28 29  1  0  0  0
 28 33  1  0  0  0
 28 26  1  0  0  0
 29 30  1  0  0  0
 29 34  1  0  0  0
 30 31  1  0  0  0
 30 35  1  0  0  0
 31 32  1  0  0  0
 31 36  1  0  0  0
 32 40  1  0  0  0
 32 33  2  0  0  0
 40 41  1  0  0  0
 15 16  1  0  0  0
 15 23  1  0  0  0
 15 14  1  0  0  0
 16 17  1  0  0  0
 16 21  1  0  0  0
 17 18  1  0  0  0
 17 22  1  0  0  0
 18 19  1  0  0  0
 18 26  1  0  0  0
 19 20  1  0  0  0
 19 23  1  0  0  0
  1  2  1  0  0  0
  1  8  1  0  0  0
  1 43  1  0  0  0
  2  3  1  0  0  0
  2  6  1  0  0  0
  3  4  1  0  0  0
  3  7  1  0  0  0
  4  5  1  0  0  0
  4 14  1  0  0  0
  5 11  1  0  0  0
  5  8  1  0  0  0
 11 12  1  0  0  0
 44 45  1  0  0  0
 44 49  1  0  0  0
 44 52  1  0  0  0
 45 46  1  0  0  0
 45 50  1  0  0  0
 46 47  1  0  0  0
 46 51  1  0  0  0
 47 48  1  0  0  0
 47 43  1  0  0  0
 48 56  1  0  0  0
 48 52  1  0  0  0
 56 57  1  0  0  0
 34 37  1  0  0  0
 35 38  1  0  0  0
 36 39  1  0  0  0
 41 42  1  0  0  0
 26 27  1  0  0  0
 21 24  1  0  0  0
 22 25  1  0  0  0
  6  9  1  0  0  0
  7 10  1  0  0  0
 12 13  1  0  0  0
 49 53  1  0  0  0
 50 54  1  0  0  0
 51 55  1  0  0  0
 57 58  1  0  0  0
M  END
> <minimizedAffinity>
-9.94862

$$$$
1K1Y_ACR_A_660


 58 61  0  0  0  0  0  0  0  0999 V2000
   -0.0397   53.2968   93.0798 C   0  0  0  0  0  0  0  0  0  0  0  0
   -0.3935   53.4925   91.5717 C   0  0  0  0  0  0  0  0  0  0  0  0
   -0.3217   54.9957   91.2039 C   0  0  0  0  0  0  0  0  0  0  0  0
   -1.3523   55.7506   92.1077 C   0  0  0  0  0  0  0  0  0  0  0  0
   -0.8730   55.5517   93.5868 C   0  0  0  0  0  0  0  0  0  0  0  0
    0.4944   52.7000   90.7973 O   0  0  0  0  0  0  0  0  0  0  0  0
   -0.6666   55.0998   89.8333 O   0  0  0  0  0  0  0  0  0  0  0  0
   -0.8685   54.1205   93.9120 O   0  0  0  0  0  0  0  0  0  0  0  0
    1.4082   52.9761   90.9696 H   0  0  0  0  0  0  0  0  0  0  0  0
   -1.5459   54.7157   89.6911 H   0  0  0  0  0  0  0  0  0  0  0  0
   -1.8156   56.2262   94.6114 C   0  0  0  0  0  0  0  0  0  0  0  0
   -1.2981   57.4547   95.0660 O   0  0  0  0  0  0  0  0  0  0  0  0
   -0.4479   57.3037   95.5080 H   0  0  0  0  0  0  0  0  0  0  0  0
   -1.3372   57.1664   91.8897 O   0  0  0  0  0  0  0  0  0  0  0  0
   -2.3580   57.9071   91.3652 C   0  0  0  0  0  0  0  0  0  0  0  0
   -2.0931   58.8392   90.1426 C   0  0  0  0  0  0  0  0  0  0  0  0
   -1.0978   59.9683   90.4784 C   0  0  0  0  0  0  0  0  0  0  0  0
   -1.6544   60.7890   91.6745 C   0  0  0  0  0  0  0  0  0  0  0  0
   -1.7874   59.7984   92.9163 C   0  0  0  0  0  0  0  0  0  0  0  0
   -2.3270   60.4529   94.1755 C   0  0  0  0  0  0  0  0  0  0  0  0
   -1.6761   58.0322   89.0502 O   0  0  0  0  0  0  0  0  0  0  0  0
   -0.9369   60.7804   89.3114 O   0  0  0  0  0  0  0  0  0  0  0  0
   -2.7168   58.6687   92.5506 O   0  0  0  0  0  0  0  0  0  0  0  0
   -0.8587   57.5663   89.2860 H   0  0  0  0  0  0  0  0  0  0  0  0
   -1.7981   61.1394   89.0461 H   0  0  0  0  0  0  0  0  0  0  0  0
   -0.7294   61.9163   91.9860 N   0  0  0  0  0  0  0  0  0  0  0  0
    0.0390   61.8817   91.3161 H   0  0  0  0  0  0  0  0  0  0  0  0
   -0.1324   61.9284   93.3681 C   0  0  0  0  0  0  0  0  0  0  0  0
   -0.3568   63.3853   94.0474 C   0  0  0  0  0  0  0  0  0  0  0  0
    0.6002   64.4212   93.3470 C   0  0  0  0  0  0  0  0  0  0  0  0
    2.0939   64.0099   93.6000 C   0  0  0  0  0  0  0  0  0  0  0  0
    2.3976   62.5146   93.3372 C   0  0  0  0  0  0  0  0  0  0  0  0
    1.3793   61.5902   93.2451 C   0  0  0  0  0  0  0  0  0  0  0  0
   -1.7028   63.7286   93.8827 O   0  0  0  0  0  0  0  0  0  0  0  0
    0.4074   65.7046   93.9060 O   0  0  0  0  0  0  0  0  0  0  0  0
    2.8929   64.9770   92.8638 O   0  0  0  0  0  0  0  0  0  0  0  0
   -1.9211   63.7366   92.9377 H   0  0  0  0  0  0  0  0  0  0  0  0
    0.6075   65.6774   94.8547 H   0  0  0  0  0  0  0  0  0  0  0  0
    2.6637   64.9359   91.9222 H   0  0  0  0  0  0  0  0  0  0  0  0
    3.8528   62.0677   93.2106 C   0  0  0  0  0  0  0  0  0  0  0  0
    4.5142   62.3579   94.4543 O   0  0  0  0  0  0  0  0  0  0  0  0
    4.4601   63.3093   94.6350 H   0  0  0  0  0  0  0  0  0  0  0  0
    1.2970   53.6038   93.3116 O   0  0  0  0  0  0  0  0  0  0  0  0
    1.9664   50.8518   96.5135 C   0  0  0  0  0  0  0  0  0  0  0  0
    1.9987   52.3867   96.8186 C   0  0  0  0  0  0  0  0  0  0  0  0
    1.2762   53.1619   95.7136 C   0  0  0  0  0  0  0  0  0  0  0  0
    1.9674   52.8724   94.3692 C   0  0  0  0  0  0  0  0  0  0  0  0
    1.9006   51.3088   94.0678 C   0  0  0  0  0  0  0  0  0  0  0  0
    0.6525   50.3780   96.5417 O   0  0  0  0  0  0  0  0  0  0  0  0
    1.3837   52.6197   98.0985 O   0  0  0  0  0  0  0  0  0  0  0  0
    1.3266   54.5745   96.0233 O   0  0  0  0  0  0  0  0  0  0  0  0
    2.5668   50.5676   95.1760 O   0  0  0  0  0  0  0  0  0  0  0  0
    0.1313   50.8295   95.8595 H   0  0  0  0  0  0  0  0  0  0  0  0
    0.4648   52.3096   98.0769 H   0  0  0  0  0  0  0  0  0  0  0  0
    2.2518   54.8589   96.0863 H   0  0  0  0  0  0  0  0  0  0  0  0
    2.5795   50.9127   92.7470 C   0  0  0  0  0  0  0  0  0  0  0  0
    3.1307   52.0400   92.0581 O   0  0  0  0  0  0  0  0  0  0  0  0
    2.4202   52.6612   91.8344 H   0  0  0  0  0  0  0  0  0  0  0  0
 28 29  1  0  0  0
 28 33  1  0  0  0
 28 26  1  0  0  0
 29 30  1  0  0  0
 29 34  1  0  0  0
 30 31  1  0  0  0
 30 35  1  0  0  0
 31 32  1  0  0  0
 31 36  1  0  0  0
 32 40  1  0  0  0
 32 33  2  0  0  0
 40 41  1  0  0  0
 15 16  1  0  0  0
 15 23  1  0  0  0
 15 14  1  0  0  0
 16 17  1  0  0  0
 16 21  1  0  0  0
 17 18  1  0  0  0
 17 22  1  0  0  0
 18 19  1  0  0  0
 18 26  1  0  0  0
 19 20  1  0  0  0
 19 23  1  0  0  0
  1  2  1  0  0  0
  1  8  1  0  0  0
  1 43  1  0  0  0
  2  3  1  0  0  0
  2  6  1  0  0  0
  3  4  1  0  0  0
  3  7  1  0  0  0
  4  5  1  0  0  0
  4 14  1  0  0  0
  5 11  1  0  0  0
  5  8  1  0  0  0
 11 12  1  0  0  0
 44 45  1  0  0  0
 44 49  1  0  0  0
 44 52  1  0  0  0
 45 46  1  0  0  0
 45 50  1  0  0  0
 46 47  1  0  0  0
 46 51  1  0  0  0
 47 48  1  0  0  0
 47 43  1  0  0  0
 48 56  1  0  0  0
 48 52  1  0  0  0
 56 57  1  0  0  0
 34 37  1  0  0  0
 35 38  1  0  0  0
 36 39  1  0  0  0
 41 42  1  0  0  0
 26 27  1  0  0  0
 21 24  1  0  0  0
 22 25  1  0  0  0
  6  9  1  0  0  0
  7 10  1  0  0  0
 12 13  1  0  0  0
 49 53  1  0  0  0
 50 54  1  0  0  0
 51 55  1  0  0  0
 57 58  1  0  0  0
M  END
> <minimizedAffinity>
-9.87915

$$$$
1K1Y_ACR_A_660


 58 61  0  0  0  0  0  0  0  0999 V2000
   -0.0998   57.1718   93.7328 C   0  0  0  0  0  0  0  0  0  0  0  0
   -0.2782   57.2384   95.2825 C   0  0  0  0  0  0  0  0  0  0  0  0
   -1.7033   57.7381   95.6284 C   0  0  0  0  0  0  0  0  0  0  0  0
   -1.8678   59.1615   94.9995 C   0  0  0  0  0  0  0  0  0  0  0  0
   -1.7417   58.9772   93.4480 C   0  0  0  0  0  0  0  0  0  0  0  0
   -0.0075   55.9522   95.8197 O   0  0  0  0  0  0  0  0  0  0  0  0
   -1.7889   57.7875   97.0421 O   0  0  0  0  0  0  0  0  0  0  0  0
   -0.4176   58.4321   93.1255 O   0  0  0  0  0  0  0  0  0  0  0  0
   -0.6202   55.3058   95.4354 H   0  0  0  0  0  0  0  0  0  0  0  0
   -1.0899   58.3639   97.3884 H   0  0  0  0  0  0  0  0  0  0  0  0
   -1.8584   60.3153   92.6804 C   0  0  0  0  0  0  0  0  0  0  0  0
   -3.2021   60.6925   92.4913 O   0  0  0  0  0  0  0  0  0  0  0  0
   -3.6572   60.0153   91.9667 H   0  0  0  0  0  0  0  0  0  0  0  0
   -3.1756   59.7061   95.2130 O   0  0  0  0  0  0  0  0  0  0  0  0
   -3.5102   60.6423   96.1497 C   0  0  0  0  0  0  0  0  0  0  0  0
   -3.7048   62.1309   95.7254 C   0  0  0  0  0  0  0  0  0  0  0  0
   -2.4022   62.7558   95.1861 C   0  0  0  0  0  0  0  0  0  0  0  0
   -1.3020   62.6433   96.2775 C   0  0  0  0  0  0  0  0  0  0  0  0
   -1.0760   61.0933   96.5735 C   0  0  0  0  0  0  0  0  0  0  0  0
   -0.0236   60.8121   97.6311 C   0  0  0  0  0  0  0  0  0  0  0  0
   -4.7803   62.1923   94.7990 O   0  0  0  0  0  0  0  0  0  0  0  0
   -2.6709   64.1197   94.8473 O   0  0  0  0  0  0  0  0  0  0  0  0
   -2.3735   60.4849   97.0425 O   0  0  0  0  0  0  0  0  0  0  0  0
   -4.5655   61.6579   94.0185 H   0  0  0  0  0  0  0  0  0  0  0  0
   -2.9872   64.5919   95.6333 H   0  0  0  0  0  0  0  0  0  0  0  0
   -0.0455   63.2846   95.7943 N   0  0  0  0  0  0  0  0  0  0  0  0
   -0.2815   63.8597   94.9856 H   0  0  0  0  0  0  0  0  0  0  0  0
    1.0655   62.3540   95.3864 C   0  0  0  0  0  0  0  0  0  0  0  0
    2.4940   62.9769   95.8400 C   0  0  0  0  0  0  0  0  0  0  0  0
    2.8301   64.1999   94.9068 C   0  0  0  0  0  0  0  0  0  0  0  0
    2.9832   63.7033   93.4255 C   0  0  0  0  0  0  0  0  0  0  0  0
    1.8451   62.7704   92.9442 C   0  0  0  0  0  0  0  0  0  0  0  0
    0.9965   62.1643   93.8456 C   0  0  0  0  0  0  0  0  0  0  0  0
    2.3839   63.3615   97.1803 O   0  0  0  0  0  0  0  0  0  0  0  0
    4.0606   64.7751   95.2965 O   0  0  0  0  0  0  0  0  0  0  0  0
    3.2217   64.9019   92.6369 O   0  0  0  0  0  0  0  0  0  0  0  0
    1.6659   64.0071   97.2735 H   0  0  0  0  0  0  0  0  0  0  0  0
    4.7655   64.1132   95.2199 H   0  0  0  0  0  0  0  0  0  0  0  0
    2.4717   65.5090   92.7364 H   0  0  0  0  0  0  0  0  0  0  0  0
    1.6919   62.5036   91.4480 C   0  0  0  0  0  0  0  0  0  0  0  0
    1.9435   61.1060   91.2201 O   0  0  0  0  0  0  0  0  0  0  0  0
    2.8393   60.8856   91.5198 H   0  0  0  0  0  0  0  0  0  0  0  0
   -0.9105   56.1805   93.1900 O   0  0  0  0  0  0  0  0  0  0  0  0
   -0.3119   52.8685   90.5546 C   0  0  0  0  0  0  0  0  0  0  0  0
    0.7077   53.0996   91.7196 C   0  0  0  0  0  0  0  0  0  0  0  0
    0.0832   53.9833   92.8027 C   0  0  0  0  0  0  0  0  0  0  0  0
   -0.3208   55.3292   92.1748 C   0  0  0  0  0  0  0  0  0  0  0  0
   -1.3768   55.0716   91.0092 C   0  0  0  0  0  0  0  0  0  0  0  0
   -1.4183   52.1488   91.0123 O   0  0  0  0  0  0  0  0  0  0  0  0
    1.0972   51.8229   92.2570 O   0  0  0  0  0  0  0  0  0  0  0  0
    1.0500   54.1799   93.8611 O   0  0  0  0  0  0  0  0  0  0  0  0
   -0.7690   54.1724   89.9878 O   0  0  0  0  0  0  0  0  0  0  0  0
   -1.8680   52.6546   91.7072 H   0  0  0  0  0  0  0  0  0  0  0  0
    0.3136   51.3615   92.5946 H   0  0  0  0  0  0  0  0  0  0  0  0
    1.8453   54.6006   93.4986 H   0  0  0  0  0  0  0  0  0  0  0  0
   -1.8350   56.3591   90.3057 C   0  0  0  0  0  0  0  0  0  0  0  0
   -2.8906   57.0198   91.0118 O   0  0  0  0  0  0  0  0  0  0  0  0
   -3.6629   56.4349   91.0599 H   0  0  0  0  0  0  0  0  0  0  0  0
 28 29  1  0  0  0
 28 33  1  0  0  0
 28 26  1  0  0  0
 29 30  1  0  0  0
 29 34  1  0  0  0
 30 31  1  0  0  0
 30 35  1  0  0  0
 31 32  1  0  0  0
 31 36  1  0  0  0
 32 40  1  0  0  0
 32 33  2  0  0  0
 40 41  1  0  0  0
 15 16  1  0  0  0
 15 23  1  0  0  0
 15 14  1  0  0  0
 16 17  1  0  0  0
 16 21  1  0  0  0
 17 18  1  0  0  0
 17 22  1  0  0  0
 18 19  1  0  0  0
 18 26  1  0  0  0
 19 20  1  0  0  0
 19 23  1  0  0  0
  1  2  1  0  0  0
  1  8  1  0  0  0
  1 43  1  0  0  0
  2  3  1  0  0  0
  2  6  1  0  0  0
  3  4  1  0  0  0
  3  7  1  0  0  0
  4  5  1  0  0  0
  4 14  1  0  0  0
  5 11  1  0  0  0
  5  8  1  0  0  0
 11 12  1  0  0  0
 44 45  1  0  0  0
 44 49  1  0  0  0
 44 52  1  0  0  0
 45 46  1  0  0  0
 45 50  1  0  0  0
 46 47  1  0  0  0
 46 51  1  0  0  0
 47 48  1  0  0  0
 47 43  1  0  0  0
 48 56  1  0  0  0
 48 52  1  0  0  0
 56 57  1  0  0  0
 34 37  1  0  0  0
 35 38  1  0  0  0
 36 39  1  0  0  0
 41 42  1  0  0  0
 26 27  1  0  0  0
 21 24  1  0  0  0
 22 25  1  0  0  0
  6  9  1  0  0  0
  7 10  1  0  0  0
 12 13  1  0  0  0
 49 53  1  0  0  0
 50 54  1  0  0  0
 51 55  1  0  0  0
 57 58  1  0  0  0
M  END
> <minimizedAffinity>
-9.59681

$$$$
1K1Y_ACR_A_660


 58 61  0  0  0  0  0  0  0  0999 V2000
   -1.0382   54.2907   92.7345 C   0  0  0  0  0  0  0  0  0  0  0  0
   -1.3556   55.0910   91.4319 C   0  0  0  0  0  0  0  0  0  0  0  0
   -0.9929   56.5842   91.6288 C   0  0  0  0  0  0  0  0  0  0  0  0
   -1.8506   57.1229   92.8217 C   0  0  0  0  0  0  0  0  0  0  0  0
   -1.4109   56.3080   94.0864 C   0  0  0  0  0  0  0  0  0  0  0  0
   -0.6444   54.4958   90.3566 O   0  0  0  0  0  0  0  0  0  0  0  0
   -1.3186   57.2485   90.4201 O   0  0  0  0  0  0  0  0  0  0  0  0
   -1.6849   54.8823   93.8701 O   0  0  0  0  0  0  0  0  0  0  0  0
    0.3067   54.5193   90.5456 H   0  0  0  0  0  0  0  0  0  0  0  0
   -2.2569   57.1092   90.2173 H   0  0  0  0  0  0  0  0  0  0  0  0
   -2.1973   56.7129   95.3557 C   0  0  0  0  0  0  0  0  0  0  0  0
   -1.5712   56.2465   96.5279 O   0  0  0  0  0  0  0  0  0  0  0  0
   -1.5290   55.2776   96.5083 H   0  0  0  0  0  0  0  0  0  0  0  0
   -1.5597   58.4913   93.1306 O   0  0  0  0  0  0  0  0  0  0  0  0
   -1.1941   58.9760   94.3542 C   0  0  0  0  0  0  0  0  0  0  0  0
   -1.8790   60.2593   94.9179 C   0  0  0  0  0  0  0  0  0  0  0  0
   -1.5906   61.5004   94.0491 C   0  0  0  0  0  0  0  0  0  0  0  0
   -0.0528   61.7030   93.9578 C   0  0  0  0  0  0  0  0  0  0  0  0
    0.5625   60.4047   93.2671 C   0  0  0  0  0  0  0  0  0  0  0  0
    2.0717   60.4451   93.1067 C   0  0  0  0  0  0  0  0  0  0  0  0
   -3.2661   59.9927   95.0699 O   0  0  0  0  0  0  0  0  0  0  0  0
   -2.2354   62.6255   94.6538 O   0  0  0  0  0  0  0  0  0  0  0  0
    0.2204   59.1935   94.0974 O   0  0  0  0  0  0  0  0  0  0  0  0
   -3.6497   59.7730   94.2065 H   0  0  0  0  0  0  0  0  0  0  0  0
   -1.9004   62.7436   95.5564 H   0  0  0  0  0  0  0  0  0  0  0  0
    0.2477   62.9267   93.1603 N   0  0  0  0  0  0  0  0  0  0  0  0
    0.9668   62.6843   92.4788 H   0  0  0  0  0  0  0  0  0  0  0  0
    0.7329   64.1248   93.9322 C   0  0  0  0  0  0  0  0  0  0  0  0
    1.9544   64.8325   93.1313 C   0  0  0  0  0  0  0  0  0  0  0  0
    3.2313   63.9187   93.2494 C   0  0  0  0  0  0  0  0  0  0  0  0
    3.6593   63.8070   94.7556 C   0  0  0  0  0  0  0  0  0  0  0  0
    2.4976   63.4847   95.7271 C   0  0  0  0  0  0  0  0  0  0  0  0
    1.1845   63.6434   95.3390 C   0  0  0  0  0  0  0  0  0  0  0  0
    1.5534   64.9947   91.8012 O   0  0  0  0  0  0  0  0  0  0  0  0
    4.3048   64.5027   92.5399 O   0  0  0  0  0  0  0  0  0  0  0  0
    4.7937   62.8967   94.7704 O   0  0  0  0  0  0  0  0  0  0  0  0
    1.3306   64.1297   91.4229 H   0  0  0  0  0  0  0  0  0  0  0  0
    4.5026   65.3757   92.9137 H   0  0  0  0  0  0  0  0  0  0  0  0
    4.5239   62.0379   94.4091 H   0  0  0  0  0  0  0  0  0  0  0  0
    2.8275   63.0139   97.1423 C   0  0  0  0  0  0  0  0  0  0  0  0
    4.1089   63.5589   97.5021 O   0  0  0  0  0  0  0  0  0  0  0  0
    4.7792   63.2523   96.8716 H   0  0  0  0  0  0  0  0  0  0  0  0
    0.3340   54.2443   92.9570 O   0  0  0  0  0  0  0  0  0  0  0  0
    3.1969   51.2184   93.9168 C   0  0  0  0  0  0  0  0  0  0  0  0
    2.2919   51.0276   92.6540 C   0  0  0  0  0  0  0  0  0  0  0  0
    1.7138   52.3733   92.2082 C   0  0  0  0  0  0  0  0  0  0  0  0
    0.8929   52.9700   93.3654 C   0  0  0  0  0  0  0  0  0  0  0  0
    1.8392   53.1785   94.6307 C   0  0  0  0  0  0  0  0  0  0  0  0
    4.3101   52.0021   93.6034 O   0  0  0  0  0  0  0  0  0  0  0  0
    3.0761   50.4306   91.6056 O   0  0  0  0  0  0  0  0  0  0  0  0
    0.8816   52.1622   91.0435 O   0  0  0  0  0  0  0  0  0  0  0  0
    2.4298   51.8671   95.0218 O   0  0  0  0  0  0  0  0  0  0  0  0
    4.0161   52.8790   93.3109 H   0  0  0  0  0  0  0  0  0  0  0  0
    3.8220   51.0116   91.3889 H   0  0  0  0  0  0  0  0  0  0  0  0
    0.1674   51.5440   91.2641 H   0  0  0  0  0  0  0  0  0  0  0  0
    1.1072   53.7600   95.8507 C   0  0  0  0  0  0  0  0  0  0  0  0
   -0.2577   53.3341   95.9212 O   0  0  0  0  0  0  0  0  0  0  0  0
   -0.7335   53.6420   95.1340 H   0  0  0  0  0  0  0  0  0  0  0  0
 28 29  1  0  0  0
 28 33  1  0  0  0
 28 26  1  0  0  0
 29 30  1  0  0  0
 29 34  1  0  0  0
 30 31  1  0  0  0
 30 35  1  0  0  0
 31 32  1  0  0  0
 31 36  1  0  0  0
 32 40  1  0  0  0
 32 33  2  0  0  0
 40 41  1  0  0  0
 15 16  1  0  0  0
 15 23  1  0  0  0
 15 14  1  0  0  0
 16 17  1  0  0  0
 16 21  1  0  0  0
 17 18  1  0  0  0
 17 22  1  0  0  0
 18 19  1  0  0  0
 18 26  1  0  0  0
 19 20  1  0  0  0
 19 23  1  0  0  0
  1  2  1  0  0  0
  1  8  1  0  0  0
  1 43  1  0  0  0
  2  3  1  0  0  0
  2  6  1  0  0  0
  3  4  1  0  0  0
  3  7  1  0  0  0
  4  5  1  0  0  0
  4 14  1  0  0  0
  5 11  1  0  0  0
  5  8  1  0  0  0
 11 12  1  0  0  0
 44 45  1  0  0  0
 44 49  1  0  0  0
 44 52  1  0  0  0
 45 46  1  0  0  0
 45 50  1  0  0  0
 46 47  1  0  0  0
 46 51  1  0  0  0
 47 48  1  0  0  0
 47 43  1  0  0  0
 48 56  1  0  0  0
 48 52  1  0  0  0
 56 57  1  0  0  0
 34 37  1  0  0  0
 35 38  1  0  0  0
 36 39  1  0  0  0
 41 42  1  0  0  0
 26 27  1  0  0  0
 21 24  1  0  0  0
 22 25  1  0  0  0
  6  9  1  0  0  0
  7 10  1  0  0  0
 12 13  1  0  0  0
 49 53  1  0  0  0
 50 54  1  0  0  0
 51 55  1  0  0  0
 57 58  1  0  0  0
M  END
> <minimizedAffinity>
-9.53418

$$$$
1K1Y_ACR_A_660


 58 61  0  0  0  0  0  0  0  0999 V2000
   -0.7611   56.1671   94.5613 C   0  0  0  0  0  0  0  0  0  0  0  0
   -0.8378   56.5767   96.0661 C   0  0  0  0  0  0  0  0  0  0  0  0
   -2.1248   57.3999   96.3236 C   0  0  0  0  0  0  0  0  0  0  0  0
   -2.0585   58.6724   95.4153 C   0  0  0  0  0  0  0  0  0  0  0  0
   -2.0549   58.1593   93.9342 C   0  0  0  0  0  0  0  0  0  0  0  0
   -0.7798   55.3972   96.8544 O   0  0  0  0  0  0  0  0  0  0  0  0
   -2.1212   57.7479   97.6974 O   0  0  0  0  0  0  0  0  0  0  0  0
   -0.8741   57.3167   93.7106 O   0  0  0  0  0  0  0  0  0  0  0  0
   -1.5216   54.8167   96.6229 H   0  0  0  0  0  0  0  0  0  0  0  0
   -1.3097   58.2370   97.9049 H   0  0  0  0  0  0  0  0  0  0  0  0
   -1.9651   59.3128   92.9072 C   0  0  0  0  0  0  0  0  0  0  0  0
   -3.2012   59.9695   92.7512 O   0  0  0  0  0  0  0  0  0  0  0  0
   -3.8628   59.3398   92.4246 H   0  0  0  0  0  0  0  0  0  0  0  0
   -3.2293   59.4896   95.5322 O   0  0  0  0  0  0  0  0  0  0  0  0
   -3.3619   60.5896   96.3312 C   0  0  0  0  0  0  0  0  0  0  0  0
   -3.4657   62.0078   95.6898 C   0  0  0  0  0  0  0  0  0  0  0  0
   -2.1835   62.3943   94.9250 C   0  0  0  0  0  0  0  0  0  0  0  0
   -0.9772   62.3289   95.9021 C   0  0  0  0  0  0  0  0  0  0  0  0
   -0.8633   60.8272   96.4246 C   0  0  0  0  0  0  0  0  0  0  0  0
    0.2760   60.5962   97.4012 C   0  0  0  0  0  0  0  0  0  0  0  0
   -4.6328   62.0456   94.8805 O   0  0  0  0  0  0  0  0  0  0  0  0
   -2.3621   63.7115   94.3956 O   0  0  0  0  0  0  0  0  0  0  0  0
   -2.1472   60.4456   97.1171 O   0  0  0  0  0  0  0  0  0  0  0  0
   -4.5628   61.3775   94.1808 H   0  0  0  0  0  0  0  0  0  0  0  0
   -2.5377   64.3307   95.1213 H   0  0  0  0  0  0  0  0  0  0  0  0
    0.2676   62.7451   95.1944 N   0  0  0  0  0  0  0  0  0  0  0  0
    0.0214   63.4948   94.5481 H   0  0  0  0  0  0  0  0  0  0  0  0
    0.9779   61.6761   94.4073 C   0  0  0  0  0  0  0  0  0  0  0  0
    2.5707   61.9869   94.3778 C   0  0  0  0  0  0  0  0  0  0  0  0
    2.8271   63.2163   93.4278 C   0  0  0  0  0  0  0  0  0  0  0  0
    2.3930   62.8484   91.9647 C   0  0  0  0  0  0  0  0  0  0  0  0
    0.9979   62.1851   91.8605 C   0  0  0  0  0  0  0  0  0  0  0  0
    0.3807   61.6542   92.9728 C   0  0  0  0  0  0  0  0  0  0  0  0
    2.9768   62.2514   95.6899 O   0  0  0  0  0  0  0  0  0  0  0  0
    4.2065   63.5219   93.4027 O   0  0  0  0  0  0  0  0  0  0  0  0
    2.6008   64.0570   91.1826 O   0  0  0  0  0  0  0  0  0  0  0  0
    2.4718   63.0021   96.0396 H   0  0  0  0  0  0  0  0  0  0  0  0
    4.7015   62.7558   93.0724 H   0  0  0  0  0  0  0  0  0  0  0  0
    2.0605   64.7752   91.5476 H   0  0  0  0  0  0  0  0  0  0  0  0
    0.3217   62.0983   90.4936 C   0  0  0  0  0  0  0  0  0  0  0  0
    0.9725   61.0578   89.7437 O   0  0  0  0  0  0  0  0  0  0  0  0
    1.9148   61.2681   89.6496 H   0  0  0  0  0  0  0  0  0  0  0  0
   -1.7697   55.2614   94.2497 O   0  0  0  0  0  0  0  0  0  0  0  0
    0.3541   53.0336   91.2833 C   0  0  0  0  0  0  0  0  0  0  0  0
   -0.7977   53.9904   90.8274 C   0  0  0  0  0  0  0  0  0  0  0  0
   -1.0878   55.0269   91.9162 C   0  0  0  0  0  0  0  0  0  0  0  0
   -1.4870   54.2924   93.2086 C   0  0  0  0  0  0  0  0  0  0  0  0
   -0.2910   53.3439   93.6671 C   0  0  0  0  0  0  0  0  0  0  0  0
    1.5475   53.7447   91.4302 O   0  0  0  0  0  0  0  0  0  0  0  0
   -0.4121   54.6293   89.5970 O   0  0  0  0  0  0  0  0  0  0  0  0
   -2.1567   55.8919   91.4660 O   0  0  0  0  0  0  0  0  0  0  0  0
    0.0090   52.3725   92.5772 O   0  0  0  0  0  0  0  0  0  0  0  0
    1.4365   54.4252   92.1124 H   0  0  0  0  0  0  0  0  0  0  0  0
    0.4005   55.1396   89.7385 H   0  0  0  0  0  0  0  0  0  0  0  0
   -2.9481   55.3609   91.2854 H   0  0  0  0  0  0  0  0  0  0  0  0
   -0.5977   52.5513   94.9478 C   0  0  0  0  0  0  0  0  0  0  0  0
    0.3180   52.8510   96.0065 O   0  0  0  0  0  0  0  0  0  0  0  0
    1.2172   52.6096   95.7343 H   0  0  0  0  0  0  0  0  0  0  0  0
 28 29  1  0  0  0
 28 33  1  0  0  0
 28 26  1  0  0  0
 29 30  1  0  0  0
 29 34  1  0  0  0
 30 31  1  0  0  0
 30 35  1  0  0  0
 31 32  1  0  0  0
 31 36  1  0  0  0
 32 40  1  0  0  0
 32 33  2  0  0  0
 40 41  1  0  0  0
 15 16  1  0  0  0
 15 23  1  0  0  0
 15 14  1  0  0  0
 16 17  1  0  0  0
 16 21  1  0  0  0
 17 18  1  0  0  0
 17 22  1  0  0  0
 18 19  1  0  0  0
 18 26  1  0  0  0
 19 20  1  0  0  0
 19 23  1  0  0  0
  1  2  1  0  0  0
  1  8  1  0  0  0
  1 43  1  0  0  0
  2  3  1  0  0  0
  2  6  1  0  0  0
  3  4  1  0  0  0
  3  7  1  0  0  0
  4  5  1  0  0  0
  4 14  1  0  0  0
  5 11  1  0  0  0
  5  8  1  0  0  0
 11 12  1  0  0  0
 44 45  1  0  0  0
 44 49  1  0  0  0
 44 52  1  0  0  0
 45 46  1  0  0  0
 45 50  1  0  0  0
 46 47  1  0  0  0
 46 51  1  0  0  0
 47 48  1  0  0  0
 47 43  1  0  0  0
 48 56  1  0  0  0
 48 52  1  0  0  0
 56 57  1  0  0  0
 34 37  1  0  0  0
 35 38  1  0  0  0
 36 39  1  0  0  0
 41 42  1  0  0  0
 26 27  1  0  0  0
 21 24  1  0  0  0
 22 25  1  0  0  0
  6  9  1  0  0  0
  7 10  1  0  0  0
 12 13  1  0  0  0
 49 53  1  0  0  0
 50 54  1  0  0  0
 51 55  1  0  0  0
 57 58  1  0  0  0
M  END
> <minimizedAffinity>
-9.40429

$$$$
1K1Y_ACR_A_660


 58 61  0  0  0  0  0  0  0  0999 V2000
   -0.1901   53.2645   95.0948 C   0  0  0  0  0  0  0  0  0  0  0  0
   -0.8977   53.3191   93.7040 C   0  0  0  0  0  0  0  0  0  0  0  0
   -0.7399   54.7314   93.0870 C   0  0  0  0  0  0  0  0  0  0  0  0
   -1.3987   55.7517   94.0738 C   0  0  0  0  0  0  0  0  0  0  0  0
   -0.5788   55.6702   95.4073 C   0  0  0  0  0  0  0  0  0  0  0  0
   -0.3465   52.3014   92.8813 O   0  0  0  0  0  0  0  0  0  0  0  0
   -1.4144   54.7125   91.8408 O   0  0  0  0  0  0  0  0  0  0  0  0
   -0.6658   54.3107   95.9534 O   0  0  0  0  0  0  0  0  0  0  0  0
    0.6074   52.4471   92.7822 H   0  0  0  0  0  0  0  0  0  0  0  0
   -2.3407   54.4595   91.9783 H   0  0  0  0  0  0  0  0  0  0  0  0
   -1.1316   56.6134   96.5019 C   0  0  0  0  0  0  0  0  0  0  0  0
   -2.5131   56.8389   96.3467 O   0  0  0  0  0  0  0  0  0  0  0  0
   -2.6775   57.2608   95.4888 H   0  0  0  0  0  0  0  0  0  0  0  0
   -1.2669   57.1069   93.6281 O   0  0  0  0  0  0  0  0  0  0  0  0
   -2.2350   57.8435   93.0069 C   0  0  0  0  0  0  0  0  0  0  0  0
   -1.8944   58.6350   91.7064 C   0  0  0  0  0  0  0  0  0  0  0  0
   -0.8470   59.7390   91.9563 C   0  0  0  0  0  0  0  0  0  0  0  0
   -1.3839   60.7018   93.0513 C   0  0  0  0  0  0  0  0  0  0  0  0
   -1.5963   59.8473   94.3801 C   0  0  0  0  0  0  0  0  0  0  0  0
   -2.1265   60.6503   95.5545 C   0  0  0  0  0  0  0  0  0  0  0  0
   -1.4984   57.7034   90.7096 O   0  0  0  0  0  0  0  0  0  0  0  0
   -0.6180   60.4221   90.7201 O   0  0  0  0  0  0  0  0  0  0  0  0
   -2.5772   58.7363   94.1022 O   0  0  0  0  0  0  0  0  0  0  0  0
   -0.7125   57.2216   91.0113 H   0  0  0  0  0  0  0  0  0  0  0  0
   -1.4527   60.7969   90.3983 H   0  0  0  0  0  0  0  0  0  0  0  0
   -0.4063   61.8053   93.2753 N   0  0  0  0  0  0  0  0  0  0  0  0
   -0.2319   61.8668   94.2784 H   0  0  0  0  0  0  0  0  0  0  0  0
   -0.8199   63.1718   92.7974 C   0  0  0  0  0  0  0  0  0  0  0  0
    0.4159   63.8734   92.0131 C   0  0  0  0  0  0  0  0  0  0  0  0
    1.5092   64.2916   93.0663 C   0  0  0  0  0  0  0  0  0  0  0  0
    0.9100   65.3588   94.0492 C   0  0  0  0  0  0  0  0  0  0  0  0
   -0.4815   64.9909   94.6199 C   0  0  0  0  0  0  0  0  0  0  0  0
   -1.2499   64.0074   94.0349 C   0  0  0  0  0  0  0  0  0  0  0  0
    0.9126   62.9488   91.0885 O   0  0  0  0  0  0  0  0  0  0  0  0
    2.6079   64.8853   92.4051 O   0  0  0  0  0  0  0  0  0  0  0  0
    1.9615   65.6287   95.0172 O   0  0  0  0  0  0  0  0  0  0  0  0
    1.1936   62.1454   91.5537 H   0  0  0  0  0  0  0  0  0  0  0  0
    2.3092   65.6742   91.9262 H   0  0  0  0  0  0  0  0  0  0  0  0
    2.1955   64.8077   95.4778 H   0  0  0  0  0  0  0  0  0  0  0  0
   -1.0096   65.7582   95.8305 C   0  0  0  0  0  0  0  0  0  0  0  0
   -1.7008   64.8246   96.6785 O   0  0  0  0  0  0  0  0  0  0  0  0
   -2.4289   64.4167   96.1842 H   0  0  0  0  0  0  0  0  0  0  0  0
    1.1880   53.3801   94.9463 O   0  0  0  0  0  0  0  0  0  0  0  0
    2.3897   50.2462   97.5937 C   0  0  0  0  0  0  0  0  0  0  0  0
    2.3167   51.7106   98.1419 C   0  0  0  0  0  0  0  0  0  0  0  0
    1.4297   52.5710   97.2381 C   0  0  0  0  0  0  0  0  0  0  0  0
    2.0152   52.5648   95.8147 C   0  0  0  0  0  0  0  0  0  0  0  0
    2.0568   51.0682   95.2681 C   0  0  0  0  0  0  0  0  0  0  0  0
    1.1304   49.6438   97.6466 O   0  0  0  0  0  0  0  0  0  0  0  0
    1.8056   51.6789   99.4867 O   0  0  0  0  0  0  0  0  0  0  0  0
    1.3856   53.9162   97.7695 O   0  0  0  0  0  0  0  0  0  0  0  0
    2.8853   50.2350   96.1849 O   0  0  0  0  0  0  0  0  0  0  0  0
    0.5106   50.1408   97.0901 H   0  0  0  0  0  0  0  0  0  0  0  0
    0.9193   51.2849   99.4865 H   0  0  0  0  0  0  0  0  0  0  0  0
    2.2844   54.2792   97.8056 H   0  0  0  0  0  0  0  0  0  0  0  0
    2.6416   50.9523   93.8514 C   0  0  0  0  0  0  0  0  0  0  0  0
    1.7625   50.2665   92.9535 O   0  0  0  0  0  0  0  0  0  0  0  0
    1.6156   49.3623   93.2725 H   0  0  0  0  0  0  0  0  0  0  0  0
 28 29  1  0  0  0
 28 33  1  0  0  0
 28 26  1  0  0  0
 29 30  1  0  0  0
 29 34  1  0  0  0
 30 31  1  0  0  0
 30 35  1  0  0  0
 31 32  1  0  0  0
 31 36  1  0  0  0
 32 40  1  0  0  0
 32 33  2  0  0  0
 40 41  1  0  0  0
 15 16  1  0  0  0
 15 23  1  0  0  0
 15 14  1  0  0  0
 16 17  1  0  0  0
 16 21  1  0  0  0
 17 18  1  0  0  0
 17 22  1  0  0  0
 18 19  1  0  0  0
 18 26  1  0  0  0
 19 20  1  0  0  0
 19 23  1  0  0  0
  1  2  1  0  0  0
  1  8  1  0  0  0
  1 43  1  0  0  0
  2  3  1  0  0  0
  2  6  1  0  0  0
  3  4  1  0  0  0
  3  7  1  0  0  0
  4  5  1  0  0  0
  4 14  1  0  0  0
  5 11  1  0  0  0
  5  8  1  0  0  0
 11 12  1  0  0  0
 44 45  1  0  0  0
 44 49  1  0  0  0
 44 52  1  0  0  0
 45 46  1  0  0  0
 45 50  1  0  0  0
 46 47  1  0  0  0
 46 51  1  0  0  0
 47 48  1  0  0  0
 47 43  1  0  0  0
 48 56  1  0  0  0
 48 52  1  0  0  0
 56 57  1  0  0  0
 34 37  1  0  0  0
 35 38  1  0  0  0
 36 39  1  0  0  0
 41 42  1  0  0  0
 26 27  1  0  0  0
 21 24  1  0  0  0
 22 25  1  0  0  0
  6  9  1  0  0  0
  7 10  1  0  0  0
 12 13  1  0  0  0
 49 53  1  0  0  0
 50 54  1  0  0  0
 51 55  1  0  0  0
 57 58  1  0  0  0
M  END
> <minimizedAffinity>
-9.38146

$$$$
1K1Y_ACR_A_660


 58 61  0  0  0  0  0  0  0  0999 V2000
    2.0744   63.7872   94.4132 C   0  0  0  0  0  0  0  0  0  0  0  0
    0.5642   64.1662   94.2969 C   0  0  0  0  0  0  0  0  0  0  0  0
   -0.2944   62.8820   94.1806 C   0  0  0  0  0  0  0  0  0  0  0  0
    0.1755   62.1169   92.8989 C   0  0  0  0  0  0  0  0  0  0  0  0
    1.6730   61.7231   93.1426 C   0  0  0  0  0  0  0  0  0  0  0  0
    0.2129   64.9552   95.4240 O   0  0  0  0  0  0  0  0  0  0  0  0
   -1.6437   63.2996   94.0645 O   0  0  0  0  0  0  0  0  0  0  0  0
    2.4750   62.9382   93.3284 O   0  0  0  0  0  0  0  0  0  0  0  0
    0.3738   64.4491   96.2357 H   0  0  0  0  0  0  0  0  0  0  0  0
   -1.7353   63.8882   93.2989 H   0  0  0  0  0  0  0  0  0  0  0  0
    2.2927   60.9744   91.9389 C   0  0  0  0  0  0  0  0  0  0  0  0
    1.4626   61.0364   90.8028 O   0  0  0  0  0  0  0  0  0  0  0  0
    0.6116   60.6151   91.0008 H   0  0  0  0  0  0  0  0  0  0  0  0
   -0.5192   60.8773   92.7162 O   0  0  0  0  0  0  0  0  0  0  0  0
   -1.8632   60.6830   92.8638 C   0  0  0  0  0  0  0  0  0  0  0  0
   -2.3928   59.7361   93.9848 C   0  0  0  0  0  0  0  0  0  0  0  0
   -1.9401   58.2770   93.7740 C   0  0  0  0  0  0  0  0  0  0  0  0
   -2.4317   57.7951   92.3811 C   0  0  0  0  0  0  0  0  0  0  0  0
   -1.7585   58.7341   91.2829 C   0  0  0  0  0  0  0  0  0  0  0  0
   -2.1450   58.3923   89.8550 C   0  0  0  0  0  0  0  0  0  0  0  0
   -1.9968   60.2690   95.2408 O   0  0  0  0  0  0  0  0  0  0  0  0
   -2.4902   57.4842   94.8304 O   0  0  0  0  0  0  0  0  0  0  0  0
   -2.1631   60.1638   91.5392 O   0  0  0  0  0  0  0  0  0  0  0  0
   -1.0286   60.3119   95.2831 H   0  0  0  0  0  0  0  0  0  0  0  0
   -3.4575   57.5565   94.8189 H   0  0  0  0  0  0  0  0  0  0  0  0
   -2.0451   56.3696   92.1759 N   0  0  0  0  0  0  0  0  0  0  0  0
   -2.3717   55.8398   92.9841 H   0  0  0  0  0  0  0  0  0  0  0  0
   -0.5744   56.0932   92.0104 C   0  0  0  0  0  0  0  0  0  0  0  0
   -0.3516   55.0200   90.8133 C   0  0  0  0  0  0  0  0  0  0  0  0
   -0.8229   53.6029   91.3123 C   0  0  0  0  0  0  0  0  0  0  0  0
    0.0686   53.1492   92.5220 C   0  0  0  0  0  0  0  0  0  0  0  0
    0.2586   54.2289   93.6153 C   0  0  0  0  0  0  0  0  0  0  0  0
   -0.0288   55.5529   93.3613 C   0  0  0  0  0  0  0  0  0  0  0  0
   -1.0925   55.4545   89.7093 O   0  0  0  0  0  0  0  0  0  0  0  0
   -0.6601   52.6533   90.2786 O   0  0  0  0  0  0  0  0  0  0  0  0
   -0.4820   51.8739   92.9534 O   0  0  0  0  0  0  0  0  0  0  0  0
   -2.0278   55.5269   89.9558 H   0  0  0  0  0  0  0  0  0  0  0  0
    0.2754   52.6069   90.0265 H   0  0  0  0  0  0  0  0  0  0  0  0
   -1.4083   51.9935   93.2150 H   0  0  0  0  0  0  0  0  0  0  0  0
    0.8016   53.8102   94.9803 C   0  0  0  0  0  0  0  0  0  0  0  0
    1.4744   54.9440   95.5551 O   0  0  0  0  0  0  0  0  0  0  0  0
    2.1944   55.2242   94.9687 H   0  0  0  0  0  0  0  0  0  0  0  0
    2.3246   63.1428   95.6202 O   0  0  0  0  0  0  0  0  0  0  0  0
    5.4703   60.6229   97.0443 C   0  0  0  0  0  0  0  0  0  0  0  0
    5.8214   61.7782   96.0483 C   0  0  0  0  0  0  0  0  0  0  0  0
    4.7095   62.8307   96.0445 C   0  0  0  0  0  0  0  0  0  0  0  0
    3.3882   62.1571   95.6330 C   0  0  0  0  0  0  0  0  0  0  0  0
    3.0384   61.0021   96.6741 C   0  0  0  0  0  0  0  0  0  0  0  0
    5.4281   61.1063   98.3543 O   0  0  0  0  0  0  0  0  0  0  0  0
    7.0799   62.3591   96.4346 O   0  0  0  0  0  0  0  0  0  0  0  0
    5.0624   63.8808   95.1137 O   0  0  0  0  0  0  0  0  0  0  0  0
    4.1520   60.0118   96.6992 O   0  0  0  0  0  0  0  0  0  0  0  0
    4.7376   61.7837   98.4269 H   0  0  0  0  0  0  0  0  0  0  0  0
    7.0098   62.7132   97.3349 H   0  0  0  0  0  0  0  0  0  0  0  0
    5.1734   63.5031   94.2271 H   0  0  0  0  0  0  0  0  0  0  0  0
    1.7370   60.2550   96.3418 C   0  0  0  0  0  0  0  0  0  0  0  0
    0.5741   60.9628   96.7845 O   0  0  0  0  0  0  0  0  0  0  0  0
    0.6036   61.0619   97.7490 H   0  0  0  0  0  0  0  0  0  0  0  0
 28 29  1  0  0  0
 28 33  1  0  0  0
 28 26  1  0  0  0
 29 30  1  0  0  0
 29 34  1  0  0  0
 30 31  1  0  0  0
 30 35  1  0  0  0
 31 32  1  0  0  0
 31 36  1  0  0  0
 32 40  1  0  0  0
 32 33  2  0  0  0
 40 41  1  0  0  0
 15 16  1  0  0  0
 15 23  1  0  0  0
 15 14  1  0  0  0
 16 17  1  0  0  0
 16 21  1  0  0  0
 17 18  1  0  0  0
 17 22  1  0  0  0
 18 19  1  0  0  0
 18 26  1  0  0  0
 19 20  1  0  0  0
 19 23  1  0  0  0
  1  2  1  0  0  0
  1  8  1  0  0  0
  1 43  1  0  0  0
  2  3  1  0  0  0
  2  6  1  0  0  0
  3  4  1  0  0  0
  3  7  1  0  0  0
  4  5  1  0  0  0
  4 14  1  0  0  0
  5 11  1  0  0  0
  5  8  1  0  0  0
 11 12  1  0  0  0
 44 45  1  0  0  0
 44 49  1  0  0  0
 44 52  1  0  0  0
 45 46  1  0  0  0
 45 50  1  0  0  0
 46 47  1  0  0  0
 46 51  1  0  0  0
 47 48  1  0  0  0
 47 43  1  0  0  0
 48 56  1  0  0  0
 48 52  1  0  0  0
 56 57  1  0  0  0
 34 37  1  0  0  0
 35 38  1  0  0  0
 36 39  1  0  0  0
 41 42  1  0  0  0
 26 27  1  0  0  0
 21 24  1  0  0  0
 22 25  1  0  0  0
  6  9  1  0  0  0
  7 10  1  0  0  0
 12 13  1  0  0  0
 49 53  1  0  0  0
 50 54  1  0  0  0
 51 55  1  0  0  0
 57 58  1  0  0  0
M  END
> <minimizedAffinity>
-9.38000

$$$$
