1K1Y_ACR_A_660
  RCSB PDB12061703023D
Coordinates from PDB:1K1Y:A:660 Model:1 without hydrogens
 44 47  0  0  0  0            999 V2000
   -2.3020   58.4640   91.4770   C 0  0  0  0  0  0  0  0  0  0  0  0
   -1.8660   59.5760   90.3780   C 0  0  0  0  0  0  0  0  0  0  0  0
   -0.8760   60.5950   91.0570   C 0  0  0  0  0  0  0  0  0  0  0  0
   -1.6140   61.3480   92.2200   C 0  0  0  0  0  0  0  0  0  0  0  0
   -2.4050   60.4240   93.1780   C 0  0  0  0  0  0  0  0  0  0  0  0
   -2.8700   60.9790   94.5230   C 0  0  0  0  0  0  0  0  0  0  0  0
   -2.7130   59.1290   92.8200   C 0  0  0  0  0  0  0  0  0  0  0  0
   -1.2660   58.9040   89.3080   O 0  0  0  0  0  0  0  0  0  0  0  0
   -0.4630   61.5620   90.1130   O 0  0  0  0  0  0  0  0  0  0  0  0
   -0.6090   62.2080   92.8250   O 0  0  0  0  0  0  0  0  0  0  0  0
   -3.9460   61.9000   94.2730   O 0  0  0  0  0  0  0  0  0  0  0  0
   -0.7920   53.2100   92.2520   C 0  0  0  0  0  0  0  0  0  0  0  0
   -1.0570   53.8110   90.8370   C 0  0  0  0  0  0  0  0  0  0  0  0
   -0.6710   55.3020   90.7580   C 0  0  0  0  0  0  0  0  0  0  0  0
   -1.4690   56.0850   91.8370   C 0  0  0  0  0  0  0  0  0  0  0  0
   -1.0590   55.4950   93.2600   C 0  0  0  0  0  0  0  0  0  0  0  0
   -1.7620   56.1580   94.4310   C 0  0  0  0  0  0  0  0  0  0  0  0
   -1.1460   57.5380   91.7470   N 0  0  0  0  0  0  0  0  0  0  0  0
   -0.3830   53.0070   89.8790   O 0  0  0  0  0  0  0  0  0  0  0  0
   -0.9700   55.7690   89.4390   O 0  0  0  0  0  0  0  0  0  0  0  0
   -1.3880   54.0240   93.2990   O 0  0  0  0  0  0  0  0  0  0  0  0
    3.2500   50.7820   94.9360   C 0  0  0  0  0  0  0  0  0  0  0  0
    3.0790   50.4450   93.4210   C 0  0  0  0  0  0  0  0  0  0  0  0
    2.4910   51.6670   92.6720   C 0  0  0  0  0  0  0  0  0  0  0  0
    1.1030   51.9910   93.3180   C 0  0  0  0  0  0  0  0  0  0  0  0
    1.3890   52.3810   94.8090   C 0  0  0  0  0  0  0  0  0  0  0  0
    0.0970   52.7070   95.5950   C 0  0  0  0  0  0  0  0  0  0  0  0
    4.3410   50.0470   92.9060   O 0  0  0  0  0  0  0  0  0  0  0  0
    2.3500   51.2870   91.3140   O 0  0  0  0  0  0  0  0  0  0  0  0
    0.4840   53.1440   92.7350   O 0  0  0  0  0  0  0  0  0  0  0  0
    2.0160   51.2480   95.5000   O 0  0  0  0  0  0  0  0  0  0  0  0
    0.3750   53.0740   96.9260   O 0  0  0  0  0  0  0  0  0  0  0  0
    7.3020   52.4550   98.0040   C 0  0  0  0  0  0  0  0  0  0  0  0
    7.0760   50.9960   97.4840   C 0  0  0  0  0  0  0  0  0  0  0  0
    6.3180   51.0190   96.1540   C 0  0  0  0  0  0  0  0  0  0  0  0
    4.9660   51.7240   96.3640   C 0  0  0  0  0  0  0  0  0  0  0  0
    5.2210   53.2140   96.8690   C 0  0  0  0  0  0  0  0  0  0  0  0
    3.9260   54.0020   97.1230   C 0  0  0  0  0  0  0  0  0  0  0  0
    8.1320   53.1600   97.1290   O 0  0  0  0  0  0  0  0  0  0  0  0
    8.3540   50.3510   97.3380   O 0  0  0  0  0  0  0  0  0  0  0  0
    6.1230   49.6580   95.7030   O 0  0  0  0  0  0  0  0  0  0  0  0
    4.2330   51.7500   95.1130   O 0  0  0  0  0  0  0  0  0  0  0  0
    6.0000   53.1740   98.1390   O 0  0  0  0  0  0  0  0  0  0  0  0
    3.1700   53.4700   98.2160   O 0  0  0  0  0  0  0  0  0  0  0  0
  1  2  1  0  0  0  0
  1  7  1  0  0  0  0
  1 18  1  0  0  0  0
  2  3  1  0  0  0  0
  2  8  1  0  0  0  0
  3  4  1  0  0  0  0
  3  9  1  0  0  0  0
  4  5  1  0  0  0  0
  4 10  1  0  0  0  0
  5  6  1  0  0  0  0
  5  7  2  0  0  0  0
  6 11  1  0  0  0  0
 12 13  1  0  0  0  0
 12 21  1  0  0  0  0
 12 30  1  0  0  0  0
 13 14  1  0  0  0  0
 13 19  1  0  0  0  0
 14 15  1  0  0  0  0
 14 20  1  0  0  0  0
 15 16  1  0  0  0  0
 15 18  1  0  0  0  0
 16 17  1  0  0  0  0
 16 21  1  0  0  0  0
 22 23  1  0  0  0  0
 22 31  1  0  0  0  0
 22 42  1  0  0  0  0
 23 24  1  0  0  0  0
 23 28  1  0  0  0  0
 24 25  1  0  0  0  0
 24 29  1  0  0  0  0
 25 26  1  0  0  0  0
 25 30  1  0  0  0  0
 26 27  1  0  0  0  0
 26 31  1  0  0  0  0
 27 32  1  0  0  0  0
 33 34  1  0  0  0  0
 33 39  1  0  0  0  0
 33 43  1  0  0  0  0
 34 35  1  0  0  0  0
 34 40  1  0  0  0  0
 35 36  1  0  0  0  0
 35 41  1  0  0  0  0
 36 37  1  0  0  0  0
 36 42  1  0  0  0  0
 37 38  1  0  0  0  0
 37 43  1  0  0  0  0
 38 44  1  0  0  0  0
A    1
C1A
A    2
C2A
A    3
C3A
A    4
C4A
A    5
C5A
A    6
C6A
A    7
C7A
A    8
O2A
A    9
O3A
A   10
O4A
A   11
O6A
A   12
C1B
A   13
C2B
A   14
C3B
A   15
C4B
A   16
C5B
A   17
C6B
A   18
N4B
A   19
O2B
A   20
O3B
A   21
O5B
A   22
C1C
A   23
C2C
A   24
C3C
A   25
C4C
A   26
C5C
A   27
C6C
A   28
O2C
A   29
O3C
A   30
O4C
A   31
O5C
A   32
O6C
A   33
C1D
A   34
C2D
A   35
C3D
A   36
C4D
A   37
C5D
A   38
C6D
A   39
O1D
A   40
O2D
A   41
O3D
A   42
O4D
A   43
O5D
A   44
O6D
M  END
>  <InstanceId>
1K1Y_ACR_A_660

>  <ChemCompId>
ACR

>  <PdbId>
1K1Y

>  <ChainId>
A

>  <ResidueNumber>
660

>  <InsertionCode>


>  <Model>
1

>  <AltIds>


>  <MissingHeavyAtoms>
0

>  <ObservedFormula>
C25 N O18

>  <Name>
ALPHA-ACARBOSE

>  <SystematicName>
(2S,3R,4R,5S,6R)-5-[(2R,3R,4R,5S,6R)-5-[(2R,3R,4S,5S,6R)-3,4-dihydroxy-6-methyl-5-[[(1S,4R,5S,6S)-4,5,6-trihydroxy-3-(hydroxymethyl)cyclohex-2-en-1-yl]amino]oxan-2-yl]oxy-3,4-dihydroxy-6-(hydroxymethyl)oxan-2-yl]oxy-6-(hydroxymethyl)oxane-2,3,4-triol

>  <Synonyms>
1,4-DEOXY-4-((5-HYDROXYMETHYL-2,3,4-TRIHYDROXYCYCLOHEX-5,6-ENYL)AMINO)FRUCTOSE

>  <Type>
SACCHARIDE

>  <Formula>
C25 H43 N O18

>  <MolecularWeight>
645.605

>  <ModifiedDate>
2011-06-04

>  <Parent>


>  <OneLetterCode>


>  <SubcomponentList>


>  <AmbiguousFlag>
N

>  <InChI>
InChI=1S/C25H43NO18/c1-6-11(26-8-2-7(3-27)12(30)15(33)13(8)31)14(32)19(37)24(40-6)43-22-10(5-29)42-25(20(38)17(22)35)44-21-9(4-28)41-23(39)18(36)16(21)34/h2,6,8-39H,3-5H2,1H3/t6-,8+,9-,10-,11-,12-,13+,14+,15+,16-,17-,18-,19-,20-,21-,22-,23+,24-,25-/m1/s1

>  <InChIKey>
XUFXOAAUWZOOIT-WVJZLWNXSA-N

>  <SMILES>
C[C@@H]1[C@H]([C@@H]([C@H]([C@H](O1)O[C@@H]2[C@H](O[C@@H]([C@@H]([C@H]2O)O)O[C@@H]3[C@H](O[C@@H]([C@@H]([C@H]3O)O)O)CO)CO)O)O)N[C@H]4C=C([C@H]([C@@H]([C@H]4O)O)O)CO

$$$$
