3LE9_727_A_485


 29 32  0  0  0  0  0  0  0  0999 V2000
    6.1134    9.9349   25.1426 N   0  0  0  0  0  0  0  0  0  0  0  0
    5.7408    9.1408   26.1996 C   0  0  0  0  0  0  0  0  0  0  0  0
    6.7296    7.9395   26.2553 C   0  0  0  0  0  0  0  0  0  0  0  0
    7.6635    8.3105   25.1575 N   0  0  0  0  0  0  0  0  0  0  0  0
    7.3133    9.4665   24.5441 C   0  0  0  0  0  0  0  0  0  0  0  0
    7.9867   10.0308   23.6911 O   0  0  0  0  0  0  0  0  0  0  0  0
    4.6939    9.2248   26.9290 O   0  0  0  0  0  0  0  0  0  0  0  0
    5.6132   10.7267   24.8390 H   0  0  0  0  0  0  0  0  0  0  0  0
    8.4497    7.7746   24.9047 H   0  0  0  0  0  0  0  0  0  0  0  0
    7.5339    7.8607   27.5659 C   0  0  0  0  0  0  0  0  0  0  0  0
    6.8664    7.6705   28.8436 C   0  0  0  0  0  0  0  0  0  0  0  0
    7.6580    7.5665   30.0275 C   0  0  0  0  0  0  0  0  0  0  0  0
    9.0721    7.6606   29.9581 C   0  0  0  0  0  0  0  0  0  0  0  0
    9.7275    7.8517   28.7291 C   0  0  0  0  0  0  0  0  0  0  0  0
    8.9661    7.9607   27.5403 C   0  0  0  0  0  0  0  0  0  0  0  0
    5.8478    6.6684   25.9843 C   0  0  0  0  0  0  0  0  0  0  0  0
    6.2318    6.2217   24.6603 N   0  0  0  0  0  0  0  0  0  0  0  0
    7.2205    5.2530   24.4802 N   0  0  0  0  0  0  0  0  0  0  0  0
    5.5900    6.5970   23.5271 C   0  0  0  0  0  0  0  0  0  0  0  0
    6.2051    5.7945   22.4883 C   0  0  0  0  0  0  0  0  0  0  0  0
    7.1738    5.0225   23.1238 C   0  0  0  0  0  0  0  0  0  0  0  0
    8.0085    4.1311   22.4397 C   0  0  0  0  0  0  0  0  0  0  0  0
    7.8131    4.0537   21.1041 C   0  0  0  0  0  0  0  0  0  0  0  0
    6.8041    4.8481   20.4640 C   0  0  0  0  0  0  0  0  0  0  0  0
    5.9909    5.7296   21.1532 C   0  0  0  0  0  0  0  0  0  0  0  0
    4.6997    7.4345   23.4265 O   0  0  0  0  0  0  0  0  0  0  0  0
    7.8053    4.8381   25.1549 H   0  0  0  0  0  0  0  0  0  0  0  0
    6.5517    4.8207   19.1606 O   0  0  0  0  0  0  0  0  0  0  0  0
    5.1488    4.5605   18.7891 C   0  0  0  0  0  0  0  0  0  0  0  0
 17 18  1  0  0  0
 17 19  1  0  0  0
 17 16  1  0  0  0
 18 21  1  0  0  0
 19 20  1  0  0  0
 19 26  2  0  0  0
  1  2  1  0  0  0
  1  5  1  0  0  0
  2  3  1  0  0  0
  2  7  2  0  0  0
  3  4  1  0  0  0
  3 10  1  0  0  0
  3 16  1  0  0  0
  4  5  1  0  0  0
  5  6  2  0  0  0
 10 11  2  0  0  0
 10 15  1  0  0  0
 20 21  2  0  0  0
 20 25  1  0  0  0
 21 22  1  0  0  0
 22 23  2  0  0  0
 23 24  1  0  0  0
 24 25  2  0  0  0
 24 28  1  0  0  0
 28 29  1  0  0  0
 11 12  1  0  0  0
 12 13  2  0  0  0
 13 14  1  0  0  0
 14 15  2  0  0  0
 18 27  1  0  0  0
  1  8  1  0  0  0
  4  9  1  0  0  0
M  END
> <minimizedAffinity>
-9.46394

$$$$
3LE9_727_A_485


 29 32  0  0  0  0  0  0  0  0999 V2000
    5.9628   10.0573   25.1219 N   0  0  0  0  0  0  0  0  0  0  0  0
    5.6409    9.2279   26.1684 C   0  0  0  0  0  0  0  0  0  0  0  0
    6.6354    8.0304   26.1410 C   0  0  0  0  0  0  0  0  0  0  0  0
    7.5178    8.4410   25.0150 N   0  0  0  0  0  0  0  0  0  0  0  0
    7.1363    9.6142   24.4555 C   0  0  0  0  0  0  0  0  0  0  0  0
    7.7687   10.2089   23.5918 O   0  0  0  0  0  0  0  0  0  0  0  0
    4.6275    9.2833   26.9462 O   0  0  0  0  0  0  0  0  0  0  0  0
    5.4467   10.8559   24.8666 H   0  0  0  0  0  0  0  0  0  0  0  0
    8.2937    7.9173   24.7101 H   0  0  0  0  0  0  0  0  0  0  0  0
    7.4981    7.9137   27.4111 C   0  0  0  0  0  0  0  0  0  0  0  0
    6.8856    7.7489   28.7195 C   0  0  0  0  0  0  0  0  0  0  0  0
    7.7284    7.6079   29.8636 C   0  0  0  0  0  0  0  0  0  0  0  0
    9.1402    7.6415   29.7258 C   0  0  0  0  0  0  0  0  0  0  0  0
    9.7429    7.8076   28.4666 C   0  0  0  0  0  0  0  0  0  0  0  0
    8.9303    7.9522   27.3161 C   0  0  0  0  0  0  0  0  0  0  0  0
    5.7469    6.7642   25.8690 C   0  0  0  0  0  0  0  0  0  0  0  0
    6.0084    6.4131   24.4876 N   0  0  0  0  0  0  0  0  0  0  0  0
    5.3631    7.0691   23.4381 N   0  0  0  0  0  0  0  0  0  0  0  0
    6.9706    5.5383   24.1058 C   0  0  0  0  0  0  0  0  0  0  0  0
    6.9739    5.6235   22.6586 C   0  0  0  0  0  0  0  0  0  0  0  0
    5.9866    6.5473   22.3271 C   0  0  0  0  0  0  0  0  0  0  0  0
    5.6668    6.8809   21.0058 C   0  0  0  0  0  0  0  0  0  0  0  0
    6.3884    6.2509   20.0518 C   0  0  0  0  0  0  0  0  0  0  0  0
    7.4099    5.3085   20.4085 C   0  0  0  0  0  0  0  0  0  0  0  0
    7.7101    4.9843   21.7193 C   0  0  0  0  0  0  0  0  0  0  0  0
    7.6626    4.8375   24.8367 O   0  0  0  0  0  0  0  0  0  0  0  0
    4.6420    7.7380   23.4815 H   0  0  0  0  0  0  0  0  0  0  0  0
    8.1611    4.6571   19.5284 O   0  0  0  0  0  0  0  0  0  0  0  0
    9.1671    5.4723   18.8231 C   0  0  0  0  0  0  0  0  0  0  0  0
 17 18  1  0  0  0
 17 19  1  0  0  0
 17 16  1  0  0  0
 18 21  1  0  0  0
 19 20  1  0  0  0
 19 26  2  0  0  0
  1  2  1  0  0  0
  1  5  1  0  0  0
  2  3  1  0  0  0
  2  7  2  0  0  0
  3  4  1  0  0  0
  3 10  1  0  0  0
  3 16  1  0  0  0
  4  5  1  0  0  0
  5  6  2  0  0  0
 10 11  2  0  0  0
 10 15  1  0  0  0
 20 21  2  0  0  0
 20 25  1  0  0  0
 21 22  1  0  0  0
 22 23  2  0  0  0
 23 24  1  0  0  0
 24 25  2  0  0  0
 24 28  1  0  0  0
 28 29  1  0  0  0
 11 12  1  0  0  0
 12 13  2  0  0  0
 13 14  1  0  0  0
 14 15  2  0  0  0
 18 27  1  0  0  0
  1  8  1  0  0  0
  4  9  1  0  0  0
M  END
> <minimizedAffinity>
-8.97154

$$$$
3LE9_727_A_485


 29 32  0  0  0  0  0  0  0  0999 V2000
    5.0605    6.5693   22.8471 N   0  0  0  0  0  0  0  0  0  0  0  0
    5.2722    7.8335   22.3534 C   0  0  0  0  0  0  0  0  0  0  0  0
    6.7261    8.2459   22.7274 C   0  0  0  0  0  0  0  0  0  0  0  0
    7.2015    6.9929   23.3748 N   0  0  0  0  0  0  0  0  0  0  0  0
    6.2464    6.0332   23.4161 C   0  0  0  0  0  0  0  0  0  0  0  0
    6.4333    4.8844   23.7969 O   0  0  0  0  0  0  0  0  0  0  0  0
    4.4259    8.6360   21.8292 O   0  0  0  0  0  0  0  0  0  0  0  0
    4.1980    6.0959   22.8113 H   0  0  0  0  0  0  0  0  0  0  0  0
    8.1105    6.8746   23.7338 H   0  0  0  0  0  0  0  0  0  0  0  0
    7.6222    8.5276   21.5074 C   0  0  0  0  0  0  0  0  0  0  0  0
    8.5918    7.5461   21.0482 C   0  0  0  0  0  0  0  0  0  0  0  0
    9.3741    7.8379   19.8898 C   0  0  0  0  0  0  0  0  0  0  0  0
    9.2160    9.0715   19.2068 C   0  0  0  0  0  0  0  0  0  0  0  0
    8.2867   10.0306   19.6462 C   0  0  0  0  0  0  0  0  0  0  0  0
    7.5000    9.7676   20.7937 C   0  0  0  0  0  0  0  0  0  0  0  0
    6.5696    9.4789   23.6875 C   0  0  0  0  0  0  0  0  0  0  0  0
    6.9466    8.9843   24.9964 N   0  0  0  0  0  0  0  0  0  0  0  0
    8.2635    8.6202   25.2823 N   0  0  0  0  0  0  0  0  0  0  0  0
    6.1064    8.9611   26.0596 C   0  0  0  0  0  0  0  0  0  0  0  0
    6.9460    8.5481   27.1668 C   0  0  0  0  0  0  0  0  0  0  0  0
    8.2167    8.3537   26.6322 C   0  0  0  0  0  0  0  0  0  0  0  0
    9.3068    7.9185   27.3948 C   0  0  0  0  0  0  0  0  0  0  0  0
    9.0550    7.7010   28.7052 C   0  0  0  0  0  0  0  0  0  0  0  0
    7.7428    7.9152   29.2445 C   0  0  0  0  0  0  0  0  0  0  0  0
    6.6736    8.3396   28.4764 C   0  0  0  0  0  0  0  0  0  0  0  0
    4.9087    9.2250   26.0592 O   0  0  0  0  0  0  0  0  0  0  0  0
    9.0335    8.5673   24.6712 H   0  0  0  0  0  0  0  0  0  0  0  0
    7.4232    7.7284   30.5198 O   0  0  0  0  0  0  0  0  0  0  0  0
    7.4480    6.3292   30.9841 C   0  0  0  0  0  0  0  0  0  0  0  0
 17 18  1  0  0  0
 17 19  1  0  0  0
 17 16  1  0  0  0
 18 21  1  0  0  0
 19 20  1  0  0  0
 19 26  2  0  0  0
  1  2  1  0  0  0
  1  5  1  0  0  0
  2  3  1  0  0  0
  2  7  2  0  0  0
  3  4  1  0  0  0
  3 10  1  0  0  0
  3 16  1  0  0  0
  4  5  1  0  0  0
  5  6  2  0  0  0
 10 11  2  0  0  0
 10 15  1  0  0  0
 20 21  2  0  0  0
 20 25  1  0  0  0
 21 22  1  0  0  0
 22 23  2  0  0  0
 23 24  1  0  0  0
 24 25  2  0  0  0
 24 28  1  0  0  0
 28 29  1  0  0  0
 11 12  1  0  0  0
 12 13  2  0  0  0
 13 14  1  0  0  0
 14 15  2  0  0  0
 18 27  1  0  0  0
  1  8  1  0  0  0
  4  9  1  0  0  0
M  END
> <minimizedAffinity>
-8.67696

$$$$
3LE9_727_A_485


 29 32  0  0  0  0  0  0  0  0999 V2000
    7.4171   10.4200   23.2486 N   0  0  0  0  0  0  0  0  0  0  0  0
    7.0616    9.4117   22.3863 C   0  0  0  0  0  0  0  0  0  0  0  0
    5.5370    9.1544   22.5683 C   0  0  0  0  0  0  0  0  0  0  0  0
    5.2011   10.2208   23.5507 N   0  0  0  0  0  0  0  0  0  0  0  0
    6.2812   10.9532   23.9141 C   0  0  0  0  0  0  0  0  0  0  0  0
    6.2360   11.9524   24.6205 O   0  0  0  0  0  0  0  0  0  0  0  0
    7.8197    8.6711   21.6709 O   0  0  0  0  0  0  0  0  0  0  0  0
    8.3402   10.7329   23.3874 H   0  0  0  0  0  0  0  0  0  0  0  0
    4.2933   10.3769   23.8983 H   0  0  0  0  0  0  0  0  0  0  0  0
    4.7118    9.3985   21.2914 C   0  0  0  0  0  0  0  0  0  0  0  0
    4.8511    8.5310   20.1329 C   0  0  0  0  0  0  0  0  0  0  0  0
    4.0372    8.7754   18.9854 C   0  0  0  0  0  0  0  0  0  0  0  0
    3.1174    9.8557   18.9726 C   0  0  0  0  0  0  0  0  0  0  0  0
    2.9796   10.7051   20.0844 C   0  0  0  0  0  0  0  0  0  0  0  0
    3.7765   10.4864   21.2342 C   0  0  0  0  0  0  0  0  0  0  0  0
    5.4300    7.6847   23.1116 C   0  0  0  0  0  0  0  0  0  0  0  0
    6.0814    7.7157   24.4058 N   0  0  0  0  0  0  0  0  0  0  0  0
    7.4620    7.5487   24.5268 N   0  0  0  0  0  0  0  0  0  0  0  0
    5.4436    8.0333   25.5586 C   0  0  0  0  0  0  0  0  0  0  0  0
    6.5031    8.0918   26.5462 C   0  0  0  0  0  0  0  0  0  0  0  0
    7.6783    7.7846   25.8658 C   0  0  0  0  0  0  0  0  0  0  0  0
    8.9268    7.7113   26.4944 C   0  0  0  0  0  0  0  0  0  0  0  0
    8.9300    7.9680   27.8218 C   0  0  0  0  0  0  0  0  0  0  0  0
    7.7126    8.2931   28.5081 C   0  0  0  0  0  0  0  0  0  0  0  0
    6.4849    8.3554   27.8740 C   0  0  0  0  0  0  0  0  0  0  0  0
    4.2403    8.2161   25.7097 O   0  0  0  0  0  0  0  0  0  0  0  0
    8.1174    7.3195   23.8289 H   0  0  0  0  0  0  0  0  0  0  0  0
    7.6397    8.5621   29.8064 O   0  0  0  0  0  0  0  0  0  0  0  0
    8.1135    7.4939   30.7056 C   0  0  0  0  0  0  0  0  0  0  0  0
 17 18  1  0  0  0
 17 19  1  0  0  0
 17 16  1  0  0  0
 18 21  1  0  0  0
 19 20  1  0  0  0
 19 26  2  0  0  0
  1  2  1  0  0  0
  1  5  1  0  0  0
  2  3  1  0  0  0
  2  7  2  0  0  0
  3  4  1  0  0  0
  3 10  1  0  0  0
  3 16  1  0  0  0
  4  5  1  0  0  0
  5  6  2  0  0  0
 10 11  2  0  0  0
 10 15  1  0  0  0
 20 21  2  0  0  0
 20 25  1  0  0  0
 21 22  1  0  0  0
 22 23  2  0  0  0
 23 24  1  0  0  0
 24 25  2  0  0  0
 24 28  1  0  0  0
 28 29  1  0  0  0
 11 12  1  0  0  0
 12 13  2  0  0  0
 13 14  1  0  0  0
 14 15  2  0  0  0
 18 27  1  0  0  0
  1  8  1  0  0  0
  4  9  1  0  0  0
M  END
> <minimizedAffinity>
-8.39135

$$$$
3LE9_727_A_485


 29 32  0  0  0  0  0  0  0  0999 V2000
    6.3961    9.0496   20.8847 N   0  0  0  0  0  0  0  0  0  0  0  0
    6.9989    8.8673   22.1054 C   0  0  0  0  0  0  0  0  0  0  0  0
    5.9001    8.4059   23.1070 C   0  0  0  0  0  0  0  0  0  0  0  0
    4.7298    8.3057   22.1930 N   0  0  0  0  0  0  0  0  0  0  0  0
    5.0324    8.6542   20.9194 C   0  0  0  0  0  0  0  0  0  0  0  0
    4.2668    8.5450   19.9698 O   0  0  0  0  0  0  0  0  0  0  0  0
    8.1915    9.1654   22.4574 O   0  0  0  0  0  0  0  0  0  0  0  0
    6.8507    9.4081   20.0884 H   0  0  0  0  0  0  0  0  0  0  0  0
    3.8339    8.0177   22.4823 H   0  0  0  0  0  0  0  0  0  0  0  0
    6.1595    7.0137   23.7116 C   0  0  0  0  0  0  0  0  0  0  0  0
    5.3794    6.5301   24.8394 C   0  0  0  0  0  0  0  0  0  0  0  0
    5.6320    5.2174   25.3414 C   0  0  0  0  0  0  0  0  0  0  0  0
    6.6372    4.4044   24.7566 C   0  0  0  0  0  0  0  0  0  0  0  0
    7.4022    4.8645   23.6706 C   0  0  0  0  0  0  0  0  0  0  0  0
    7.1739    6.1634   23.1550 C   0  0  0  0  0  0  0  0  0  0  0  0
    5.8162    9.5491   24.1806 C   0  0  0  0  0  0  0  0  0  0  0  0
    6.5014    9.0216   25.3435 N   0  0  0  0  0  0  0  0  0  0  0  0
    7.8517    8.6712   25.2924 N   0  0  0  0  0  0  0  0  0  0  0  0
    5.9420    8.9522   26.5759 C   0  0  0  0  0  0  0  0  0  0  0  0
    7.0270    8.5202   27.4347 C   0  0  0  0  0  0  0  0  0  0  0  0
    8.1334    8.3633   26.6044 C   0  0  0  0  0  0  0  0  0  0  0  0
    9.3788    7.9236   27.0679 C   0  0  0  0  0  0  0  0  0  0  0  0
    9.4517    7.6625   28.3924 C   0  0  0  0  0  0  0  0  0  0  0  0
    8.3059    7.8383   29.2380 C   0  0  0  0  0  0  0  0  0  0  0  0
    7.0795    8.2677   28.7637 C   0  0  0  0  0  0  0  0  0  0  0  0
    4.7770    9.1959   26.8720 O   0  0  0  0  0  0  0  0  0  0  0  0
    8.4525    8.6497   24.5128 H   0  0  0  0  0  0  0  0  0  0  0  0
    8.3041    7.6078   30.5457 O   0  0  0  0  0  0  0  0  0  0  0  0
    7.5049    6.4499   30.9870 C   0  0  0  0  0  0  0  0  0  0  0  0
 17 18  1  0  0  0
 17 19  1  0  0  0
 17 16  1  0  0  0
 18 21  1  0  0  0
 19 20  1  0  0  0
 19 26  2  0  0  0
  1  2  1  0  0  0
  1  5  1  0  0  0
  2  3  1  0  0  0
  2  7  2  0  0  0
  3  4  1  0  0  0
  3 10  1  0  0  0
  3 16  1  0  0  0
  4  5  1  0  0  0
  5  6  2  0  0  0
 10 11  2  0  0  0
 10 15  1  0  0  0
 20 21  2  0  0  0
 20 25  1  0  0  0
 21 22  1  0  0  0
 22 23  2  0  0  0
 23 24  1  0  0  0
 24 25  2  0  0  0
 24 28  1  0  0  0
 28 29  1  0  0  0
 11 12  1  0  0  0
 12 13  2  0  0  0
 13 14  1  0  0  0
 14 15  2  0  0  0
 18 27  1  0  0  0
  1  8  1  0  0  0
  4  9  1  0  0  0
M  END
> <minimizedAffinity>
-7.98711

$$$$
3LE9_727_A_485


 29 32  0  0  0  0  0  0  0  0999 V2000
    5.1098    6.6728   22.0688 N   0  0  0  0  0  0  0  0  0  0  0  0
    5.2381    7.9299   21.5304 C   0  0  0  0  0  0  0  0  0  0  0  0
    6.5531    8.5478   22.0895 C   0  0  0  0  0  0  0  0  0  0  0  0
    7.0726    7.3997   22.8815 N   0  0  0  0  0  0  0  0  0  0  0  0
    6.2491    6.3249   22.8424 C   0  0  0  0  0  0  0  0  0  0  0  0
    6.5148    5.2296   23.3213 O   0  0  0  0  0  0  0  0  0  0  0  0
    4.3916    8.5885   20.8342 O   0  0  0  0  0  0  0  0  0  0  0  0
    4.3289    6.0882   21.9356 H   0  0  0  0  0  0  0  0  0  0  0  0
    7.9218    7.4193   23.3792 H   0  0  0  0  0  0  0  0  0  0  0  0
    7.5875    8.8895   21.0013 C   0  0  0  0  0  0  0  0  0  0  0  0
    8.6873    7.9861   20.7037 C   0  0  0  0  0  0  0  0  0  0  0  0
    9.5997    8.3292   19.6603 C   0  0  0  0  0  0  0  0  0  0  0  0
    9.4420    9.5388   18.9354 C   0  0  0  0  0  0  0  0  0  0  0  0
    8.3866   10.4230   19.2195 C   0  0  0  0  0  0  0  0  0  0  0  0
    7.4690   10.1080   20.2509 C   0  0  0  0  0  0  0  0  0  0  0  0
    6.0968    9.7918   22.9326 C   0  0  0  0  0  0  0  0  0  0  0  0
    6.3535    9.4246   24.3107 N   0  0  0  0  0  0  0  0  0  0  0  0
    5.3095    9.1267   25.1882 N   0  0  0  0  0  0  0  0  0  0  0  0
    7.5951    9.2154   24.8120 C   0  0  0  0  0  0  0  0  0  0  0  0
    7.3577    8.7217   26.1542 C   0  0  0  0  0  0  0  0  0  0  0  0
    5.9751    8.7016   26.3159 C   0  0  0  0  0  0  0  0  0  0  0  0
    5.3518    8.3073   27.5055 C   0  0  0  0  0  0  0  0  0  0  0  0
    6.1816    7.9323   28.5048 C   0  0  0  0  0  0  0  0  0  0  0  0
    7.6045    7.9484   28.3206 C   0  0  0  0  0  0  0  0  0  0  0  0
    8.2060    8.3470   27.1405 C   0  0  0  0  0  0  0  0  0  0  0  0
    8.6634    9.4143   24.2434 O   0  0  0  0  0  0  0  0  0  0  0  0
    4.3395    9.2018   25.0380 H   0  0  0  0  0  0  0  0  0  0  0  0
    8.4793    7.5891   29.2527 O   0  0  0  0  0  0  0  0  0  0  0  0
    7.8992    7.1520   30.5358 C   0  0  0  0  0  0  0  0  0  0  0  0
 17 18  1  0  0  0
 17 19  1  0  0  0
 17 16  1  0  0  0
 18 21  1  0  0  0
 19 20  1  0  0  0
 19 26  2  0  0  0
  1  2  1  0  0  0
  1  5  1  0  0  0
  2  3  1  0  0  0
  2  7  2  0  0  0
  3  4  1  0  0  0
  3 10  1  0  0  0
  3 16  1  0  0  0
  4  5  1  0  0  0
  5  6  2  0  0  0
 10 11  2  0  0  0
 10 15  1  0  0  0
 20 21  2  0  0  0
 20 25  1  0  0  0
 21 22  1  0  0  0
 22 23  2  0  0  0
 23 24  1  0  0  0
 24 25  2  0  0  0
 24 28  1  0  0  0
 28 29  1  0  0  0
 11 12  1  0  0  0
 12 13  2  0  0  0
 13 14  1  0  0  0
 14 15  2  0  0  0
 18 27  1  0  0  0
  1  8  1  0  0  0
  4  9  1  0  0  0
M  END
> <minimizedAffinity>
-7.72008

$$$$
3LE9_727_A_485


 29 32  0  0  0  0  0  0  0  0999 V2000
    5.2553   10.2624   23.9970 N   0  0  0  0  0  0  0  0  0  0  0  0
    5.2456    9.0496   24.6416 C   0  0  0  0  0  0  0  0  0  0  0  0
    6.7255    8.5972   24.8126 C   0  0  0  0  0  0  0  0  0  0  0  0
    7.4334    9.7813   24.2542 N   0  0  0  0  0  0  0  0  0  0  0  0
    6.5812   10.7372   23.8124 C   0  0  0  0  0  0  0  0  0  0  0  0
    6.9250   11.8440   23.4170 O   0  0  0  0  0  0  0  0  0  0  0  0
    4.2452    8.3038   24.9210 O   0  0  0  0  0  0  0  0  0  0  0  0
    4.4475   10.7409   23.7010 H   0  0  0  0  0  0  0  0  0  0  0  0
    8.4137    9.8612   24.2107 H   0  0  0  0  0  0  0  0  0  0  0  0
    7.1547    8.4279   26.2816 C   0  0  0  0  0  0  0  0  0  0  0  0
    8.5138    8.0414   26.6246 C   0  0  0  0  0  0  0  0  0  0  0  0
    8.8742    7.9334   28.0021 C   0  0  0  0  0  0  0  0  0  0  0  0
    7.9168    8.1865   29.0183 C   0  0  0  0  0  0  0  0  0  0  0  0
    6.5982    8.5539   28.6980 C   0  0  0  0  0  0  0  0  0  0  0  0
    6.2138    8.6658   27.3398 C   0  0  0  0  0  0  0  0  0  0  0  0
    6.8530    7.2798   23.9671 C   0  0  0  0  0  0  0  0  0  0  0  0
    7.0080    7.7274   22.5976 N   0  0  0  0  0  0  0  0  0  0  0  0
    8.2234    8.2329   22.1331 N   0  0  0  0  0  0  0  0  0  0  0  0
    6.0553    7.5732   21.6461 C   0  0  0  0  0  0  0  0  0  0  0  0
    6.6997    8.0115   20.4238 C   0  0  0  0  0  0  0  0  0  0  0  0
    7.9866    8.3990   20.7871 C   0  0  0  0  0  0  0  0  0  0  0  0
    8.9145    8.9142   19.8744 C   0  0  0  0  0  0  0  0  0  0  0  0
    8.4869    9.0089   18.5953 C   0  0  0  0  0  0  0  0  0  0  0  0
    7.1611    8.5963   18.2335 C   0  0  0  0  0  0  0  0  0  0  0  0
    6.2531    8.0949   19.1486 C   0  0  0  0  0  0  0  0  0  0  0  0
    4.9110    7.1624   21.8078 O   0  0  0  0  0  0  0  0  0  0  0  0
    9.0450    8.4230   22.6412 H   0  0  0  0  0  0  0  0  0  0  0  0
    6.6748    8.6545   16.9993 O   0  0  0  0  0  0  0  0  0  0  0  0
    7.1236    7.5866   16.0870 C   0  0  0  0  0  0  0  0  0  0  0  0
 17 18  1  0  0  0
 17 19  1  0  0  0
 17 16  1  0  0  0
 18 21  1  0  0  0
 19 20  1  0  0  0
 19 26  2  0  0  0
  1  2  1  0  0  0
  1  5  1  0  0  0
  2  3  1  0  0  0
  2  7  2  0  0  0
  3  4  1  0  0  0
  3 10  1  0  0  0
  3 16  1  0  0  0
  4  5  1  0  0  0
  5  6  2  0  0  0
 10 11  2  0  0  0
 10 15  1  0  0  0
 20 21  2  0  0  0
 20 25  1  0  0  0
 21 22  1  0  0  0
 22 23  2  0  0  0
 23 24  1  0  0  0
 24 25  2  0  0  0
 24 28  1  0  0  0
 28 29  1  0  0  0
 11 12  1  0  0  0
 12 13  2  0  0  0
 13 14  1  0  0  0
 14 15  2  0  0  0
 18 27  1  0  0  0
  1  8  1  0  0  0
  4  9  1  0  0  0
M  END
> <minimizedAffinity>
-7.57416

$$$$
3LE9_727_A_485


 29 32  0  0  0  0  0  0  0  0999 V2000
    7.3437   10.3388   23.1211 N   0  0  0  0  0  0  0  0  0  0  0  0
    6.8768    9.2758   22.3871 C   0  0  0  0  0  0  0  0  0  0  0  0
    5.3300    9.2311   22.5578 C   0  0  0  0  0  0  0  0  0  0  0  0
    5.1166   10.4507   23.3837 N   0  0  0  0  0  0  0  0  0  0  0  0
    6.2744   11.0886   23.6796 C   0  0  0  0  0  0  0  0  0  0  0  0
    6.3445   12.1705   24.2489 O   0  0  0  0  0  0  0  0  0  0  0  0
    7.5461    8.3609   21.7954 O   0  0  0  0  0  0  0  0  0  0  0  0
    8.2966   10.5533   23.2442 H   0  0  0  0  0  0  0  0  0  0  0  0
    4.2309   10.7600   23.6824 H   0  0  0  0  0  0  0  0  0  0  0  0
    4.5568    9.4024   21.2372 C   0  0  0  0  0  0  0  0  0  0  0  0
    3.5816   10.4684   21.0736 C   0  0  0  0  0  0  0  0  0  0  0  0
    2.9170   10.6095   19.8177 C   0  0  0  0  0  0  0  0  0  0  0  0
    3.1952    9.7150   18.7520 C   0  0  0  0  0  0  0  0  0  0  0  0
    4.1308    8.6764   18.9014 C   0  0  0  0  0  0  0  0  0  0  0  0
    4.8022    8.5126   20.1373 C   0  0  0  0  0  0  0  0  0  0  0  0
    5.0356    7.8699   23.2838 C   0  0  0  0  0  0  0  0  0  0  0  0
    5.6007    8.0228   24.6095 N   0  0  0  0  0  0  0  0  0  0  0  0
    4.9947    8.8389   25.5662 N   0  0  0  0  0  0  0  0  0  0  0  0
    6.6572    7.3044   25.0615 C   0  0  0  0  0  0  0  0  0  0  0  0
    6.7633    7.6705   26.4601 C   0  0  0  0  0  0  0  0  0  0  0  0
    5.7481    8.5943   26.6923 C   0  0  0  0  0  0  0  0  0  0  0  0
    5.5441    9.2077   27.9338 C   0  0  0  0  0  0  0  0  0  0  0  0
    6.3981    8.8408   28.9155 C   0  0  0  0  0  0  0  0  0  0  0  0
    7.4337    7.8798   28.6644 C   0  0  0  0  0  0  0  0  0  0  0  0
    7.6267    7.2868   27.4297 C   0  0  0  0  0  0  0  0  0  0  0  0
    7.3558    6.5325   24.4132 O   0  0  0  0  0  0  0  0  0  0  0  0
    4.2216    9.4394   25.4618 H   0  0  0  0  0  0  0  0  0  0  0  0
    8.3036    7.4677   29.5791 O   0  0  0  0  0  0  0  0  0  0  0  0
    7.7213    6.7900   30.7520 C   0  0  0  0  0  0  0  0  0  0  0  0
 17 18  1  0  0  0
 17 19  1  0  0  0
 17 16  1  0  0  0
 18 21  1  0  0  0
 19 20  1  0  0  0
 19 26  2  0  0  0
  1  2  1  0  0  0
  1  5  1  0  0  0
  2  3  1  0  0  0
  2  7  2  0  0  0
  3  4  1  0  0  0
  3 10  1  0  0  0
  3 16  1  0  0  0
  4  5  1  0  0  0
  5  6  2  0  0  0
 10 11  2  0  0  0
 10 15  1  0  0  0
 20 21  2  0  0  0
 20 25  1  0  0  0
 21 22  1  0  0  0
 22 23  2  0  0  0
 23 24  1  0  0  0
 24 25  2  0  0  0
 24 28  1  0  0  0
 28 29  1  0  0  0
 11 12  1  0  0  0
 12 13  2  0  0  0
 13 14  1  0  0  0
 14 15  2  0  0  0
 18 27  1  0  0  0
  1  8  1  0  0  0
  4  9  1  0  0  0
M  END
> <minimizedAffinity>
-7.31171

$$$$
3LE9_727_A_485


 29 32  0  0  0  0  0  0  0  0999 V2000
    6.8582    7.2651   26.4043 N   0  0  0  0  0  0  0  0  0  0  0  0
    5.8674    7.0185   25.4856 C   0  0  0  0  0  0  0  0  0  0  0  0
    6.2036    7.8338   24.2026 C   0  0  0  0  0  0  0  0  0  0  0  0
    7.5144    8.4200   24.5940 N   0  0  0  0  0  0  0  0  0  0  0  0
    7.8891    8.0680   25.8473 C   0  0  0  0  0  0  0  0  0  0  0  0
    8.9750    8.3335   26.3470 O   0  0  0  0  0  0  0  0  0  0  0  0
    4.7674    6.3875   25.6502 O   0  0  0  0  0  0  0  0  0  0  0  0
    6.8544    6.9287   27.3295 H   0  0  0  0  0  0  0  0  0  0  0  0
    8.0506    9.0001   24.0064 H   0  0  0  0  0  0  0  0  0  0  0  0
    6.4205    6.9599   22.9536 C   0  0  0  0  0  0  0  0  0  0  0  0
    5.5067    5.8760   22.6305 C   0  0  0  0  0  0  0  0  0  0  0  0
    5.7285    5.1172   21.4414 C   0  0  0  0  0  0  0  0  0  0  0  0
    6.8306    5.4090   20.5967 C   0  0  0  0  0  0  0  0  0  0  0  0
    7.7244    6.4500   20.9031 C   0  0  0  0  0  0  0  0  0  0  0  0
    7.5289    7.2163   22.0776 C   0  0  0  0  0  0  0  0  0  0  0  0
    5.0276    8.8636   24.0500 C   0  0  0  0  0  0  0  0  0  0  0  0
    5.5435    9.8933   23.1705 N   0  0  0  0  0  0  0  0  0  0  0  0
    5.3606    9.8250   21.7884 N   0  0  0  0  0  0  0  0  0  0  0  0
    6.1122   11.0412   23.6130 C   0  0  0  0  0  0  0  0  0  0  0  0
    6.3232   11.8201   22.4087 C   0  0  0  0  0  0  0  0  0  0  0  0
    5.8610   11.0330   21.3576 C   0  0  0  0  0  0  0  0  0  0  0  0
    5.9235   11.4354   20.0184 C   0  0  0  0  0  0  0  0  0  0  0  0
    6.4600   12.6568   19.7985 C   0  0  0  0  0  0  0  0  0  0  0  0
    6.9231   13.4613   20.8925 C   0  0  0  0  0  0  0  0  0  0  0  0
    6.8604   13.0469   22.2107 C   0  0  0  0  0  0  0  0  0  0  0  0
    6.3851   11.3297   24.7733 O   0  0  0  0  0  0  0  0  0  0  0  0
    4.9710    9.0950   21.2549 H   0  0  0  0  0  0  0  0  0  0  0  0
    7.4548   14.6702   20.7539 O   0  0  0  0  0  0  0  0  0  0  0  0
    6.9739   15.6901   21.7040 C   0  0  0  0  0  0  0  0  0  0  0  0
 17 18  1  0  0  0
 17 19  1  0  0  0
 17 16  1  0  0  0
 18 21  1  0  0  0
 19 20  1  0  0  0
 19 26  2  0  0  0
  1  2  1  0  0  0
  1  5  1  0  0  0
  2  3  1  0  0  0
  2  7  2  0  0  0
  3  4  1  0  0  0
  3 10  1  0  0  0
  3 16  1  0  0  0
  4  5  1  0  0  0
  5  6  2  0  0  0
 10 11  2  0  0  0
 10 15  1  0  0  0
 20 21  2  0  0  0
 20 25  1  0  0  0
 21 22  1  0  0  0
 22 23  2  0  0  0
 23 24  1  0  0  0
 24 25  2  0  0  0
 24 28  1  0  0  0
 28 29  1  0  0  0
 11 12  1  0  0  0
 12 13  2  0  0  0
 13 14  1  0  0  0
 14 15  2  0  0  0
 18 27  1  0  0  0
  1  8  1  0  0  0
  4  9  1  0  0  0
M  END
> <minimizedAffinity>
-7.04614

$$$$
3LE9_727_A_485


 29 32  0  0  0  0  0  0  0  0999 V2000
    3.6769   10.2480   18.7358 N   0  0  0  0  0  0  0  0  0  0  0  0
    4.8143   10.6801   19.3731 C   0  0  0  0  0  0  0  0  0  0  0  0
    5.0285    9.7711   20.6187 C   0  0  0  0  0  0  0  0  0  0  0  0
    3.9099    8.8055   20.4407 N   0  0  0  0  0  0  0  0  0  0  0  0
    3.1581    9.0753   19.3466 C   0  0  0  0  0  0  0  0  0  0  0  0
    2.2554    8.3594   18.9316 O   0  0  0  0  0  0  0  0  0  0  0  0
    5.5112   11.7260   19.1371 O   0  0  0  0  0  0  0  0  0  0  0  0
    3.2733   10.6935   17.9562 H   0  0  0  0  0  0  0  0  0  0  0  0
    3.7356    8.0531   21.0512 H   0  0  0  0  0  0  0  0  0  0  0  0
    6.3523    8.9851   20.5906 C   0  0  0  0  0  0  0  0  0  0  0  0
    6.3812    7.5575   20.8648 C   0  0  0  0  0  0  0  0  0  0  0  0
    7.6279    6.8652   20.7903 C   0  0  0  0  0  0  0  0  0  0  0  0
    8.8202    7.5630   20.4667 C   0  0  0  0  0  0  0  0  0  0  0  0
    8.8050    8.9445   20.2068 C   0  0  0  0  0  0  0  0  0  0  0  0
    7.5825    9.6556   20.2764 C   0  0  0  0  0  0  0  0  0  0  0  0
    4.8957   10.7301   21.8553 C   0  0  0  0  0  0  0  0  0  0  0  0
    5.3965    9.9639   22.9787 N   0  0  0  0  0  0  0  0  0  0  0  0
    4.7109    8.8461   23.4573 N   0  0  0  0  0  0  0  0  0  0  0  0
    6.6033   10.1811   23.5559 C   0  0  0  0  0  0  0  0  0  0  0  0
    6.7415    9.0974   24.5088 C   0  0  0  0  0  0  0  0  0  0  0  0
    5.5751    8.3445   24.4042 C   0  0  0  0  0  0  0  0  0  0  0  0
    5.3211    7.2177   25.1949 C   0  0  0  0  0  0  0  0  0  0  0  0
    6.2923    6.8900   26.0765 C   0  0  0  0  0  0  0  0  0  0  0  0
    7.4937    7.6694   26.1663 C   0  0  0  0  0  0  0  0  0  0  0  0
    7.7275    8.7846   25.3821 C   0  0  0  0  0  0  0  0  0  0  0  0
    7.3811   11.0986   23.3163 O   0  0  0  0  0  0  0  0  0  0  0  0
    3.8293    8.5023   23.1854 H   0  0  0  0  0  0  0  0  0  0  0  0
    8.4910    7.4051   27.0022 O   0  0  0  0  0  0  0  0  0  0  0  0
    8.3994    8.0476   28.3261 C   0  0  0  0  0  0  0  0  0  0  0  0
 17 18  1  0  0  0
 17 19  1  0  0  0
 17 16  1  0  0  0
 18 21  1  0  0  0
 19 20  1  0  0  0
 19 26  2  0  0  0
  1  2  1  0  0  0
  1  5  1  0  0  0
  2  3  1  0  0  0
  2  7  2  0  0  0
  3  4  1  0  0  0
  3 10  1  0  0  0
  3 16  1  0  0  0
  4  5  1  0  0  0
  5  6  2  0  0  0
 10 11  2  0  0  0
 10 15  1  0  0  0
 20 21  2  0  0  0
 20 25  1  0  0  0
 21 22  1  0  0  0
 22 23  2  0  0  0
 23 24  1  0  0  0
 24 25  2  0  0  0
 24 28  1  0  0  0
 28 29  1  0  0  0
 11 12  1  0  0  0
 12 13  2  0  0  0
 13 14  1  0  0  0
 14 15  2  0  0  0
 18 27  1  0  0  0
  1  8  1  0  0  0
  4  9  1  0  0  0
M  END
> <minimizedAffinity>
-6.81629

$$$$
