4BAK_M67_B_1287
  RCSB PDB12061711483D
Coordinates from PDB:4BAK:B:1287 Model:1 without hydrogens
 34 36  0  0  0  0            999 V2000
   12.2020  -14.9350   19.4280   C 0  0  0  0  0  0  0  0  0  0  0  0
   12.0870  -15.8450   20.6530   C 0  0  0  0  0  0  0  0  0  0  0  0
   13.0710  -17.0160   20.5520   C 0  0  0  0  0  0  0  0  0  0  0  0
   14.4570  -16.5260   20.6160   N 0  0  0  0  0  0  0  0  0  0  0  0
   15.0830  -16.2070   21.7670   C 0  0  0  0  0  0  0  0  0  0  0  0
   14.5200  -16.3220   22.8490   O 0  0  0  0  0  0  0  0  0  0  0  0
   16.5080  -15.7250   21.6520   C 0  0  0  0  0  0  0  0  0  0  0  0
   17.0910  -15.4080   22.9770   N 0  0  0  0  0  0  0  0  0  0  0  0
   18.3430  -14.6140   22.9310   C 0  0  0  0  0  0  0  0  0  0  0  0
   18.8730  -14.3340   24.3520   C 0  0  0  0  0  0  0  0  0  0  0  0
   19.1140  -15.6620   25.0910   C 0  0  0  0  0  0  0  0  0  0  0  0
   19.6460  -15.3870   26.5060   C 0  0  0  0  0  0  0  0  0  0  0  0
   20.9690  -14.6080   26.4450   C 0  0  0  0  0  0  0  0  0  0  0  0
   20.7810  -13.2760   25.7050   C 0  0  0  0  0  0  0  0  0  0  0  0
   20.1910  -13.5270   24.3030   C 0  0  0  0  0  0  0  0  0  0  0  0
   18.0160  -13.3180   22.2410   C 0  0  0  0  0  0  0  0  0  0  0  0
   16.9410  -12.7670   22.4860   O 0  0  0  0  0  0  0  0  0  0  0  0
   18.8320  -12.7660   21.3190   N 0  0  0  0  0  0  0  0  0  0  0  0
   20.1090  -13.0610   20.6390   C 0  0  0  0  0  0  0  0  0  0  0  0
   19.7980  -12.0240   19.5530   C 0  0  0  0  0  0  0  0  0  0  0  0
   18.6350  -11.5930   20.4600   C 0  0  0  0  0  0  0  0  0  0  0  0
   17.2470  -11.7400   19.8720   C 0  0  0  0  0  0  0  0  0  0  0  0
   16.9370  -12.8030   19.3720   O 0  0  0  0  0  0  0  0  0  0  0  0
   16.3190  -10.7780   20.0260   N 0  0  0  0  0  0  0  0  0  0  0  0
   14.9780  -11.0060   19.4760   C 0  0  0  0  0  0  0  0  0  0  0  0
   13.9980  -10.9420   20.6110   C 0  0  0  0  0  0  0  0  0  0  0  0
   13.7170  -12.0860   21.3400   C 0  0  0  0  0  0  0  0  0  0  0  0
   12.8140  -12.0210   22.3880   C 0  0  0  0  0  0  0  0  0  0  0  0
   12.2070  -10.7950   22.7170   C 0  0  0  0  0  0  0  0  0  0  0  0
   12.4930   -9.6410   21.9700   C 0  0  0  0  0  0  0  0  0  0  0  0
   13.4110   -9.7240   20.9350   C 0  0  0  0  0  0  0  0  0  0  0  0
   11.2070  -10.7410   23.8140   C 0  0  0  0  0  0  0  0  0  0  0  0
   10.5160  -11.8100   24.1380   N 0  0  0  0  0  0  0  0  0  0  0  0
   10.9460   -9.5540   24.4550   N 0  0  0  0  0  0  0  0  0  0  0  0
  1  2  1  0  0  0  0
  2  3  1  0  0  0  0
  3  4  1  0  0  0  0
  4  5  1  0  0  0  0
  5  6  2  0  0  0  0
  5  7  1  0  0  0  0
  7  8  1  0  0  0  0
  8  9  1  0  0  0  0
  9 10  1  0  0  0  0
  9 16  1  0  0  0  0
 10 11  1  0  0  0  0
 10 15  1  0  0  0  0
 11 12  1  0  0  0  0
 12 13  1  0  0  0  0
 13 14  1  0  0  0  0
 14 15  1  0  0  0  0
 16 17  2  0  0  0  0
 16 18  1  0  0  0  0
 18 19  1  0  0  0  0
 18 21  1  0  0  0  0
 19 20  1  0  0  0  0
 20 21  1  0  0  0  0
 21 22  1  0  0  0  0
 22 23  2  0  0  0  0
 22 24  1  0  0  0  0
 24 25  1  0  0  0  0
 25 26  1  0  0  0  0
 26 27  1  0  0  0  0
 26 31  2  0  0  0  0
 27 28  2  0  0  0  0
 28 29  1  0  0  0  0
 29 30  2  0  0  0  0
 29 32  1  0  0  0  0
 30 31  1  0  0  0  0
 32 33  2  0  0  0  0
 32 34  1  0  0  0  0
A    1
C1
A    2
C2
A    3
C3
A    4
N4
A    5
C5
A    6
O6
A    7
C7
A    8
N8
A    9
C9
A   10
C11
A   11
C12
A   12
C13
A   13
C14
A   14
C15
A   15
C16
A   16
C17
A   17
O18
A   18
N19
A   19
C20
A   20
C21
A   21
C22
A   22
C24
A   23
O25
A   24
N26
A   25
C27
A   26
C28
A   27
C29
A   28
C30
A   29
C31
A   30
C32
A   31
C33
A   32
C34
A   33
N35
A   34
N36
M  END
>  <InstanceId>
4BAK_M67_B_1287

>  <ChemCompId>
M67

>  <PdbId>
4BAK

>  <ChainId>
B

>  <ResidueNumber>
1287

>  <InsertionCode>


>  <Model>
1

>  <AltIds>


>  <MissingHeavyAtoms>
0

>  <ObservedFormula>
C25 N6 O3

>  <Name>
(2S)-N-(4-CARBAMIMIDOYLBENZYL)-1-[(2R)-2-CYCLOHEXYL-2-{[2-OXO-2-(PROPYLAMINO)ETHYL]AMINO}ACETYL]AZETIDINE-2-CARBOXAMIDE

>  <SystematicName>
(2S)-N-[(4-carbamimidoylphenyl)methyl]-1-[(2R)-2-cyclohexyl-2-[[2-oxidanylidene-2-(propylamino)ethyl]amino]ethanoyl]azetidine-2-carboxamide

>  <Synonyms>


>  <Type>
non-polymer

>  <Formula>
C25 H38 N6 O3

>  <MolecularWeight>
470.608

>  <ModifiedDate>
2014-09-05

>  <Parent>


>  <OneLetterCode>


>  <SubcomponentList>


>  <AmbiguousFlag>
N

>  <InChI>
InChI=1S/C25H38N6O3/c1-2-13-28-21(32)16-29-22(18-6-4-3-5-7-18)25(34)31-14-12-20(31)24(33)30-15-17-8-10-19(11-9-17)23(26)27/h8-11,18,20,22,29H,2-7,12-16H2,1H3,(H3,26,27)(H,28,32)(H,30,33)/t20-,22+/m0/s1

>  <InChIKey>
YEOMROVWVBLQCS-RBBKRZOGSA-N

>  <SMILES>
[H]/N=C(/c1ccc(cc1)CNC(=O)[C@@H]2CCN2C(=O)[C@@H](C3CCCCC3)NCC(=O)NCCC)\N

$$$$
