1PFU_MPJ_A_553
  RCSB PDB12061703393D
Coordinates from PDB:1PFU:A:553 Model:1 without hydrogens
  9  8  0  0  0  0            999 V2000
   14.6630    8.9880   19.4450   N 0  0  0  0  0  0  0  0  0  0  0  0
   14.3030   10.3730   19.8510   C 0  0  0  0  0  0  0  0  0  0  0  0
   12.8200   10.5350   20.2230   C 0  0  0  0  0  0  0  0  0  0  0  0
   11.8650   10.0490   19.1580   C 0  0  0  0  0  0  0  0  0  0  0  0
   10.1910   10.3110   19.7740   S 0  0  0  0  0  0  0  0  0  0  0  0
    9.2260    9.9980   18.2650   C 0  0  0  0  0  0  0  0  0  0  0  0
   15.1360    9.8070   22.4350   O 0  0  0  0  0  0  0  0  0  0  0  0
   14.8870   12.5660   21.4470   O 0  0  0  0  0  0  0  0  0  0  0  0
   15.3000   10.9980   21.1990   P 0  0  0  0  0  0  0  0  0  0  0  0
  1  2  1  0  0  0  0
  2  3  1  0  0  0  0
  2  9  1  0  0  0  0
  3  4  1  0  0  0  0
  4  5  1  0  0  0  0
  5  6  1  0  0  0  0
  7  9  2  0  0  0  0
  8  9  1  0  0  0  0
A    1
N
A    2
CA
A    3
CB
A    4
CG
A    5
SD
A    6
CE
A    7
O1
A    8
O2
A    9
P
M  END
>  <InstanceId>
1PFU_MPJ_A_553

>  <ChemCompId>
MPJ

>  <PdbId>
1PFU

>  <ChainId>
A

>  <ResidueNumber>
553

>  <InsertionCode>


>  <Model>
1

>  <AltIds>


>  <MissingHeavyAtoms>
0

>  <ObservedFormula>
C4 N O2 P S

>  <Name>
(1-AMINO-3-METHYLSULFANYL-PROPYL)-PHOSPHINIC ACID

>  <SystematicName>
[(1R)-1-amino-3-methylsulfanyl-propyl]phosphinic acid

>  <Synonyms>
METHIONINE PHOSPHINATE

>  <Type>
L-PEPTIDE LINKING

>  <Formula>
C4 H12 N O2 P S

>  <MolecularWeight>
169.182

>  <ModifiedDate>
2011-06-04

>  <Parent>


>  <OneLetterCode>
X

>  <SubcomponentList>


>  <AmbiguousFlag>
N

>  <InChI>
InChI=1S/C4H12NO2PS/c1-9-3-2-4(5)8(6)7/h4,8H,2-3,5H2,1H3,(H,6,7)/t4-/m1/s1

>  <InChIKey>
CZRBNMUARBZMHQ-SCSAIBSYSA-N

>  <SMILES>
CSCC[C@H](N)[P@H](=O)O

$$$$
