4D1J_DGJ_A_600
  RCSB PDB12061712083D
Coordinates from PDB:4D1J:A:600 Model:1 without hydrogens
 11 11  0  0  0  0            999 V2000
   64.0640   28.8140   33.2550   C 0  0  0  0  0  0  0  0  0  0  0  0
   62.8040   27.9600   33.3220   C 0  0  0  0  0  0  0  0  0  0  0  0
   62.0920   27.8680   32.0360   O 0  0  0  0  0  0  0  0  0  0  0  0
   61.8360   28.5690   34.3460   C 0  0  0  0  0  0  0  0  0  0  0  0
   60.6510   27.7810   34.5220   O 0  0  0  0  0  0  0  0  0  0  0  0
   62.5420   28.7350   35.6850   C 0  0  0  0  0  0  0  0  0  0  0  0
   62.9970   27.4590   36.1680   O 0  0  0  0  0  0  0  0  0  0  0  0
   63.6950   29.7050   35.5130   C 0  0  0  0  0  0  0  0  0  0  0  0
   64.6740   29.0830   34.5730   N 0  0  0  0  0  0  0  0  0  0  0  0
   64.4120   30.0010   36.8250   C 0  0  0  0  0  0  0  0  0  0  0  0
   63.6360   30.7150   37.7600   O 0  0  0  0  0  0  0  0  0  0  0  0
  9  1  1  0  0  0  0
  2  1  1  0  0  0  0
  4  2  1  0  0  0  0
  2  3  1  0  0  0  0
  6  4  1  0  0  0  0
  5  4  1  0  0  0  0
  7  6  1  0  0  0  0
  6  8  1  0  0  0  0
 10  8  1  0  0  0  0
  8  9  1  0  0  0  0
 10 11  1  0  0  0  0
A    1
C1
A    2
C2
A    3
O2
A    4
C3
A    5
O3
A    6
C4
A    7
O4
A    8
C5
A    9
N5
A   10
C6
A   11
O6
M  END
>  <InstanceId>
4D1J_DGJ_A_600

>  <ChemCompId>
DGJ

>  <PdbId>
4D1J

>  <ChainId>
A

>  <ResidueNumber>
600

>  <InsertionCode>


>  <Model>
1

>  <AltIds>


>  <MissingHeavyAtoms>
0

>  <ObservedFormula>
C6 N O4

>  <Name>
(2R,3S,4R,5S)-2-(hydroxymethyl)piperidine-3,4,5-triol

>  <SystematicName>
(2R,3S,4R,5S)-2-(hydroxymethyl)piperidine-3,4,5-triol

>  <Synonyms>
1-deoxygalactonojirimycin

>  <Type>
NON-POLYMER

>  <Formula>
C6 H13 N O4

>  <MolecularWeight>
163.172

>  <ModifiedDate>
2011-12-02

>  <Parent>


>  <OneLetterCode>


>  <SubcomponentList>


>  <AmbiguousFlag>
N

>  <InChI>
InChI=1S/C6H13NO4/c8-2-3-5(10)6(11)4(9)1-7-3/h3-11H,1-2H2/t3-,4+,5+,6-/m1/s1

>  <InChIKey>
LXBIFEVIBLOUGU-DPYQTVNSSA-N

>  <SMILES>
C1[C@@H]([C@H]([C@H]([C@H](N1)CO)O)O)O

$$$$
