5ZA7_HMX_U_301
  RCSB PDB12151803133D
Coordinates from PDB:5ZA7:U:301 Model:1 without hydrogens
 21 22  0  0  0  0            999 V2000
  -28.0790  -16.9650   -1.6940   C 0  0  0  0  0  0  0  0  0  0  0  0
  -27.6890  -16.0440   -3.8200   N 0  0  0  0  0  0  0  0  0  0  0  0
  -27.3790  -16.0810   -2.4990   C 0  0  0  0  0  0  0  0  0  0  0  0
  -29.0150  -17.7610   -2.1930   N 0  0  0  0  0  0  0  0  0  0  0  0
  -28.6300  -16.8560   -4.3460   C 0  0  0  0  0  0  0  0  0  0  0  0
  -29.3260  -17.7060   -3.5030   C 0  0  0  0  0  0  0  0  0  0  0  0
  -30.3760  -18.6580   -3.9390   C 0  0  0  0  0  0  0  0  0  0  0  0
  -26.2510  -14.9130   -0.5770   C 0  0  0  0  0  0  0  0  0  0  0  0
  -25.9090  -13.4460   -0.3290   C 0  0  0  0  0  0  0  0  0  0  0  0
  -27.0010  -12.5110   -0.8330   C 0  0  0  0  0  0  0  0  0  0  0  0
  -27.2480  -12.6040   -2.3370   C 0  0  0  0  0  0  0  0  0  0  0  0
  -26.0440  -13.0530   -3.1730   C 0  0  0  0  0  0  0  0  0  0  0  0
  -25.5550  -14.4830   -2.9650   C 0  0  0  0  0  0  0  0  0  0  0  0
  -32.0460  -20.1360   -3.0790   C 0  0  0  0  0  0  0  0  0  0  0  0
  -30.5200  -18.8660   -5.1340   O 0  0  0  0  0  0  0  0  0  0  0  0
  -31.0750  -19.2330   -2.9420   N 0  0  0  0  0  0  0  0  0  0  0  0
  -32.6620  -20.5940   -1.9890   N 0  0  0  0  0  0  0  0  0  0  0  0
  -32.4030  -20.5850   -4.2770   N 0  0  0  0  0  0  0  0  0  0  0  0
  -27.8050  -17.1750    0.0560  Cl 0  0  0  0  0  0  0  0  0  0  0  0
  -28.8880  -16.7610   -5.6850   N 0  0  0  0  0  0  0  0  0  0  0  0
  -26.4050  -15.1890   -2.0130   N 0  0  0  0  0  0  0  0  0  0  0  0
 20  5  1  0  0  0  0
 15  7  2  0  0  0  0
  5  2  2  0  0  0  0
  5  6  1  0  0  0  0
 18 14  1  0  0  0  0
  7  6  1  0  0  0  0
  7 16  1  0  0  0  0
  2  3  1  0  0  0  0
  6  4  2  0  0  0  0
 12 13  1  0  0  0  0
 12 11  1  0  0  0  0
 14 16  2  0  0  0  0
 14 17  1  0  0  0  0
 13 21  1  0  0  0  0
  3 21  1  0  0  0  0
  3  1  2  0  0  0  0
 11 10  1  0  0  0  0
  4  1  1  0  0  0  0
 21  8  1  0  0  0  0
  1 19  1  0  0  0  0
 10  9  1  0  0  0  0
  8  9  1  0  0  0  0
A    1
C1
A    2
N1
A    3
C2
A    4
N2
A    5
C3
A    6
C4
A    7
C5
A    8
C6
A    9
C7
A   10
C8
A   11
C9
A   12
C10
A   13
C11
A   14
C12
A   15
O1
A   16
N5
A   17
N7
A   18
N6
A   19
CL1
A   20
N3
A   21
N4
M  END
>  <InstanceId>
5ZA7_HMX_U_301

>  <ChemCompId>
HMX

>  <PdbId>
5ZA7

>  <ChainId>
U

>  <ResidueNumber>
301

>  <InsertionCode>


>  <Model>
1

>  <AltIds>


>  <MissingHeavyAtoms>
0

>  <ObservedFormula>
C12 N7 O Cl

>  <Name>
3-azanyl-5-(azepan-1-yl)-N-[bis(azanyl)methylidene]-6-chloranyl-pyrazine-2-carboxamide

>  <SystematicName>
3-azanyl-5-(azepan-1-yl)-~{N}-[bis(azanyl)methylidene]-6-chloranyl-pyrazine-2-carboxamide

>  <Synonyms>
HMA

>  <Type>
NON-POLYMER

>  <Formula>
C12 H18 Cl N7 O

>  <MolecularWeight>
311.771

>  <ModifiedDate>
2018-12-14

>  <Parent>


>  <OneLetterCode>


>  <SubcomponentList>


>  <AmbiguousFlag>
N

>  <InChI>
InChI=1S/C12H18ClN7O/c13-8-10(20-5-3-1-2-4-6-20)18-9(14)7(17-8)11(21)19-12(15)16/h1-6H2,(H2,14,18)(H4,15,16,19,21)

>  <InChIKey>
RQQJJXVETXFINY-UHFFFAOYSA-N

>  <SMILES>
C1CCCN(CC1)c2c(nc(c(n2)N)C(=O)N=C(N)N)Cl

$$$$
