2BVS_2CE_H_1246


 45 46  0  0  0  0  0  0  0  0999 V2000
   14.5879  -13.5628   16.4732 C   0  0  0  0  0  0  0  0  0  0  0  0
   13.9930  -12.8703   17.6854 C   0  0  0  0  0  0  0  0  0  0  0  0
   14.1645  -11.6705   17.8215 O   0  0  0  0  0  0  0  0  0  0  0  0
   13.2194  -13.5577   18.5966 N   0  0  0  0  0  0  0  0  0  0  0  0
   13.1145  -14.5291   18.4765 H   0  0  0  0  0  0  0  0  0  0  0  0
   12.5469  -12.9282   19.7296 C   0  0  0  0  0  0  0  0  0  0  0  0
   13.1843  -13.2693   21.0801 C   0  0  0  0  0  0  0  0  0  0  0  0
   12.4368  -12.7557   22.1828 O   0  0  0  0  0  0  0  0  0  0  0  0
   13.1747  -11.8163   22.9626 C   0  0  0  0  0  0  0  0  0  0  0  0
   14.6722  -11.8166   22.6143 C   0  0  0  0  0  0  0  0  0  0  0  0
   15.4513  -11.3683   23.7183 O   0  0  0  0  0  0  0  0  0  0  0  0
   16.3367  -12.3802   24.1879 C   0  0  0  0  0  0  0  0  0  0  0  0
   17.7766  -11.9100   24.1087 C   0  0  0  0  0  0  0  0  0  0  0  0
   18.0965  -10.8633   24.6360 O   0  0  0  0  0  0  0  0  0  0  0  0
   18.7277  -12.6484   23.4225 N   0  0  0  0  0  0  0  0  0  0  0  0
   18.4757  -13.4975   22.9927 H   0  0  0  0  0  0  0  0  0  0  0  0
   19.6554  -12.3238   23.3648 H   0  0  0  0  0  0  0  0  0  0  0  0
   12.9930  -14.1521   14.5973 C   0  0  0  0  0  0  0  0  0  0  0  0
   13.0385  -15.3101   14.9524 O   0  0  0  0  0  0  0  0  0  0  0  0
   13.7484  -13.2111   15.2994 N   0  0  0  0  0  0  0  0  0  0  0  0
   13.7236  -12.2725   15.0033 H   0  0  0  0  0  0  0  0  0  0  0  0
   12.1034  -13.8152   13.4103 C   0  0  0  0  0  0  0  0  0  0  0  0
   10.3984  -14.3605   13.6896 S   0  0  0  0  0  0  0  0  0  0  0  0
    8.5035  -12.8740   17.5960 C   0  0  0  0  0  0  0  0  0  0  0  0
    7.8217  -13.7753   16.7569 C   0  0  0  0  0  0  0  0  0  0  0  0
    8.4121  -14.2268   15.5582 C   0  0  0  0  0  0  0  0  0  0  0  0
    9.6957  -13.7755   15.1918 C   0  0  0  0  0  0  0  0  0  0  0  0
   10.3752  -12.8660   16.0391 C   0  0  0  0  0  0  0  0  0  0  0  0
    9.7833  -12.4162   17.2360 C   0  0  0  0  0  0  0  0  0  0  0  0
    7.7733  -12.3379   19.0557 Cl  0  0  0  0  0  0  0  0  0  0  0  0
   16.0428  -13.0840   16.2361 C   0  0  0  0  0  0  0  0  0  0  0  0
   16.3367  -12.3040   14.9492 C   0  0  0  0  0  0  0  0  0  0  0  0
   15.8523  -10.9805   14.8097 C   0  0  0  0  0  0  0  0  0  0  0  0
   16.1136  -10.2397   13.6248 C   0  0  0  0  0  0  0  0  0  0  0  0
   16.8660  -10.8188   12.5547 C   0  0  0  0  0  0  0  0  0  0  0  0
   17.3435  -12.1440   12.7079 C   0  0  0  0  0  0  0  0  0  0  0  0
   17.0825  -12.8819   13.8925 C   0  0  0  0  0  0  0  0  0  0  0  0
   17.1734  -10.1240   11.3184 N   0  0  0  0  0  0  0  0  0  0  0  0
   17.4302  -10.6998   10.5623 H   0  0  0  0  0  0  0  0  0  0  0  0
   17.1562   -8.7386   11.0473 C   0  0  0  0  0  0  0  0  0  0  0  0
   16.0459   -8.0791   10.8837 N   0  0  0  0  0  0  0  0  0  0  0  0
   18.3648   -8.0609   10.9521 N   0  0  0  0  0  0  0  0  0  0  0  0
   15.1818   -8.5463   10.9483 H   0  0  0  0  0  0  0  0  0  0  0  0
   19.2125   -8.5467   11.0735 H   0  0  0  0  0  0  0  0  0  0  0  0
   18.3739   -7.0947   10.7632 H   0  0  0  0  0  0  0  0  0  0  0  0
 24 25  2  0  0  0
 24 29  1  0  0  0
 24 30  1  0  0  0
 25 26  1  0  0  0
 26 27  2  0  0  0
 27 28  1  0  0  0
 27 23  1  0  0  0
 28 29  2  0  0  0
 23 22  1  0  0  0
 22 18  1  0  0  0
 18 19  2  0  0  0
 18 20  1  0  0  0
 20  1  1  0  0  0
  1 31  1  0  0  0
  1  2  1  0  0  0
 31 32  1  0  0  0
 32 33  2  0  0  0
 32 37  1  0  0  0
 33 34  1  0  0  0
 34 35  2  0  0  0
 35 36  1  0  0  0
 35 38  1  0  0  0
 36 37  2  0  0  0
 38 40  1  0  0  0
 40 41  2  0  0  0
 40 42  1  0  0  0
  2  3  2  0  0  0
  2  4  1  0  0  0
  4  6  1  0  0  0
  6  7  1  0  0  0
  7  8  1  0  0  0
  8  9  1  0  0  0
  9 10  1  0  0  0
 10 11  1  0  0  0
 11 12  1  0  0  0
 12 13  1  0  0  0
 13 14  2  0  0  0
 13 15  1  0  0  0
 20 21  1  0  0  0
 38 39  1  0  0  0
 41 43  1  0  0  0
 42 44  1  0  0  0
 42 45  1  0  0  0
  4  5  1  0  0  0
 15 16  1  0  0  0
 15 17  1  0  0  0
M  END
> <minimizedAffinity>
-8.04845

$$$$
2BVS_2CE_H_1246


 45 46  0  0  0  0  0  0  0  0999 V2000
   11.8932  -12.8810   14.4360 C   0  0  0  0  0  0  0  0  0  0  0  0
   12.0120  -12.1681   15.7703 C   0  0  0  0  0  0  0  0  0  0  0  0
   12.3872  -11.0078   15.7869 O   0  0  0  0  0  0  0  0  0  0  0  0
   11.6501  -12.7860   16.9487 N   0  0  0  0  0  0  0  0  0  0  0  0
   11.3716  -13.7296   16.9110 H   0  0  0  0  0  0  0  0  0  0  0  0
   11.6560  -12.1221   18.2491 C   0  0  0  0  0  0  0  0  0  0  0  0
   10.3589  -12.3223   19.0391 C   0  0  0  0  0  0  0  0  0  0  0  0
   10.5958  -12.7570   20.3782 O   0  0  0  0  0  0  0  0  0  0  0  0
   11.9728  -12.6936   20.7457 C   0  0  0  0  0  0  0  0  0  0  0  0
   12.3919  -13.8681   21.6450 C   0  0  0  0  0  0  0  0  0  0  0  0
   13.7119  -13.6806   22.1443 O   0  0  0  0  0  0  0  0  0  0  0  0
   13.7454  -12.7422   23.2150 C   0  0  0  0  0  0  0  0  0  0  0  0
   14.7218  -11.6213   22.9138 C   0  0  0  0  0  0  0  0  0  0  0  0
   14.9149  -11.2864   21.7621 O   0  0  0  0  0  0  0  0  0  0  0  0
   15.4141  -10.9894   23.9347 N   0  0  0  0  0  0  0  0  0  0  0  0
   15.2627  -11.2556   24.8704 H   0  0  0  0  0  0  0  0  0  0  0  0
   16.0572  -10.2743   23.7242 H   0  0  0  0  0  0  0  0  0  0  0  0
   14.1305  -14.0245   14.7476 C   0  0  0  0  0  0  0  0  0  0  0  0
   13.7472  -14.4319   15.8230 O   0  0  0  0  0  0  0  0  0  0  0  0
   13.2665  -13.2306   13.9910 N   0  0  0  0  0  0  0  0  0  0  0  0
   13.5816  -12.8872   13.1239 H   0  0  0  0  0  0  0  0  0  0  0  0
   15.5303  -14.4210   14.3039 C   0  0  0  0  0  0  0  0  0  0  0  0
   16.7505  -13.1678   14.7764 S   0  0  0  0  0  0  0  0  0  0  0  0
   16.8444   -9.5031   12.0156 C   0  0  0  0  0  0  0  0  0  0  0  0
   17.7364  -10.5755   11.8270 C   0  0  0  0  0  0  0  0  0  0  0  0
   17.7001  -11.6978   12.6805 C   0  0  0  0  0  0  0  0  0  0  0  0
   16.7648  -11.7521   13.7331 C   0  0  0  0  0  0  0  0  0  0  0  0
   15.8720  -10.6682   13.9194 C   0  0  0  0  0  0  0  0  0  0  0  0
   15.9103   -9.5479   13.0656 C   0  0  0  0  0  0  0  0  0  0  0  0
   16.8973   -8.1458   10.9638 Cl  0  0  0  0  0  0  0  0  0  0  0  0
   11.0488  -14.1721   14.5854 C   0  0  0  0  0  0  0  0  0  0  0  0
    9.7762  -14.2946   13.7390 C   0  0  0  0  0  0  0  0  0  0  0  0
    9.8618  -14.1793   12.3301 C   0  0  0  0  0  0  0  0  0  0  0  0
    8.6940  -14.2898   11.5267 C   0  0  0  0  0  0  0  0  0  0  0  0
    7.4155  -14.5157   12.1273 C   0  0  0  0  0  0  0  0  0  0  0  0
    7.3449  -14.6279   13.5380 C   0  0  0  0  0  0  0  0  0  0  0  0
    8.5124  -14.5184   14.3386 C   0  0  0  0  0  0  0  0  0  0  0  0
    6.1823  -14.6411   11.3728 N   0  0  0  0  0  0  0  0  0  0  0  0
    6.2699  -14.5327   10.3982 H   0  0  0  0  0  0  0  0  0  0  0  0
    4.8746  -14.8968   11.8395 C   0  0  0  0  0  0  0  0  0  0  0  0
    4.0913  -13.9458   12.2595 N   0  0  0  0  0  0  0  0  0  0  0  0
    4.4126  -16.2066   11.8499 N   0  0  0  0  0  0  0  0  0  0  0  0
    4.4053  -13.0127   12.2579 H   0  0  0  0  0  0  0  0  0  0  0  0
    4.9940  -16.9362   11.5352 H   0  0  0  0  0  0  0  0  0  0  0  0
    3.5038  -16.4055   12.1720 H   0  0  0  0  0  0  0  0  0  0  0  0
 24 25  2  0  0  0
 24 29  1  0  0  0
 24 30  1  0  0  0
 25 26  1  0  0  0
 26 27  2  0  0  0
 27 28  1  0  0  0
 27 23  1  0  0  0
 28 29  2  0  0  0
 23 22  1  0  0  0
 22 18  1  0  0  0
 18 19  2  0  0  0
 18 20  1  0  0  0
 20  1  1  0  0  0
  1 31  1  0  0  0
  1  2  1  0  0  0
 31 32  1  0  0  0
 32 33  2  0  0  0
 32 37  1  0  0  0
 33 34  1  0  0  0
 34 35  2  0  0  0
 35 36  1  0  0  0
 35 38  1  0  0  0
 36 37  2  0  0  0
 38 40  1  0  0  0
 40 41  2  0  0  0
 40 42  1  0  0  0
  2  3  2  0  0  0
  2  4  1  0  0  0
  4  6  1  0  0  0
  6  7  1  0  0  0
  7  8  1  0  0  0
  8  9  1  0  0  0
  9 10  1  0  0  0
 10 11  1  0  0  0
 11 12  1  0  0  0
 12 13  1  0  0  0
 13 14  2  0  0  0
 13 15  1  0  0  0
 20 21  1  0  0  0
 38 39  1  0  0  0
 41 43  1  0  0  0
 42 44  1  0  0  0
 42 45  1  0  0  0
  4  5  1  0  0  0
 15 16  1  0  0  0
 15 17  1  0  0  0
M  END
> <minimizedAffinity>
-8.02289

$$$$
2BVS_2CE_H_1246


 45 46  0  0  0  0  0  0  0  0999 V2000
   14.4902  -12.8819   16.9788 C   0  0  0  0  0  0  0  0  0  0  0  0
   14.3604  -11.7822   18.0164 C   0  0  0  0  0  0  0  0  0  0  0  0
   15.3367  -11.0991   18.2761 O   0  0  0  0  0  0  0  0  0  0  0  0
   13.1529  -11.5065   18.6225 N   0  0  0  0  0  0  0  0  0  0  0  0
   12.3854  -12.0863   18.4123 H   0  0  0  0  0  0  0  0  0  0  0  0
   12.9465  -10.4046   19.5580 C   0  0  0  0  0  0  0  0  0  0  0  0
   13.2229  -10.7858   21.0157 C   0  0  0  0  0  0  0  0  0  0  0  0
   12.0452  -11.2089   21.7031 O   0  0  0  0  0  0  0  0  0  0  0  0
   11.9267  -12.6286   21.7763 C   0  0  0  0  0  0  0  0  0  0  0  0
   11.2536  -13.2237   20.5287 C   0  0  0  0  0  0  0  0  0  0  0  0
   10.1917  -12.3899   20.0770 O   0  0  0  0  0  0  0  0  0  0  0  0
    9.8142  -12.6912   18.7373 C   0  0  0  0  0  0  0  0  0  0  0  0
    8.3263  -12.4739   18.5390 C   0  0  0  0  0  0  0  0  0  0  0  0
    7.6015  -12.3608   19.5074 O   0  0  0  0  0  0  0  0  0  0  0  0
    7.7794  -12.4255   17.2665 N   0  0  0  0  0  0  0  0  0  0  0  0
    8.3606  -12.5164   16.4771 H   0  0  0  0  0  0  0  0  0  0  0  0
    6.8096  -12.3002   17.1519 H   0  0  0  0  0  0  0  0  0  0  0  0
   12.4010  -13.2948   15.6095 C   0  0  0  0  0  0  0  0  0  0  0  0
   12.1528  -14.2474   16.3166 O   0  0  0  0  0  0  0  0  0  0  0  0
   13.5601  -12.5602   15.8663 N   0  0  0  0  0  0  0  0  0  0  0  0
   13.7705  -11.7948   15.2839 H   0  0  0  0  0  0  0  0  0  0  0  0
   11.4172  -12.9708   14.4956 C   0  0  0  0  0  0  0  0  0  0  0  0
    9.9504  -14.0307   14.5837 S   0  0  0  0  0  0  0  0  0  0  0  0
    7.6234  -14.4372   10.6492 C   0  0  0  0  0  0  0  0  0  0  0  0
    6.9716  -14.5507   11.8917 C   0  0  0  0  0  0  0  0  0  0  0  0
    7.6951  -14.4242   13.0958 C   0  0  0  0  0  0  0  0  0  0  0  0
    9.0828  -14.1819   13.0615 C   0  0  0  0  0  0  0  0  0  0  0  0
    9.7332  -14.0719   11.8079 C   0  0  0  0  0  0  0  0  0  0  0  0
    9.0084  -14.1988   10.6062 C   0  0  0  0  0  0  0  0  0  0  0  0
    6.7271  -14.5878    9.1914 Cl  0  0  0  0  0  0  0  0  0  0  0  0
   15.9423  -12.9502   16.4414 C   0  0  0  0  0  0  0  0  0  0  0  0
   16.2560  -12.2092   15.1362 C   0  0  0  0  0  0  0  0  0  0  0  0
   16.6248  -12.9483   13.9858 C   0  0  0  0  0  0  0  0  0  0  0  0
   16.9196  -12.2809   12.7656 C   0  0  0  0  0  0  0  0  0  0  0  0
   16.8517  -10.8545   12.6807 C   0  0  0  0  0  0  0  0  0  0  0  0
   16.4823  -10.1281   13.8398 C   0  0  0  0  0  0  0  0  0  0  0  0
   16.1871  -10.7964   15.0572 C   0  0  0  0  0  0  0  0  0  0  0  0
   17.1363  -10.1054   11.4709 N   0  0  0  0  0  0  0  0  0  0  0  0
   17.5287  -10.6263   10.7334 H   0  0  0  0  0  0  0  0  0  0  0  0
   16.9297   -8.7348   11.2026 C   0  0  0  0  0  0  0  0  0  0  0  0
   15.7393   -8.2100   11.1585 N   0  0  0  0  0  0  0  0  0  0  0  0
   18.0345   -7.9235   10.9783 N   0  0  0  0  0  0  0  0  0  0  0  0
   14.9470   -8.7729   11.3154 H   0  0  0  0  0  0  0  0  0  0  0  0
   18.9409   -8.3067   11.0085 H   0  0  0  0  0  0  0  0  0  0  0  0
   17.9113   -6.9653   10.7892 H   0  0  0  0  0  0  0  0  0  0  0  0
 24 25  2  0  0  0
 24 29  1  0  0  0
 24 30  1  0  0  0
 25 26  1  0  0  0
 26 27  2  0  0  0
 27 28  1  0  0  0
 27 23  1  0  0  0
 28 29  2  0  0  0
 23 22  1  0  0  0
 22 18  1  0  0  0
 18 19  2  0  0  0
 18 20  1  0  0  0
 20  1  1  0  0  0
  1 31  1  0  0  0
  1  2  1  0  0  0
 31 32  1  0  0  0
 32 33  2  0  0  0
 32 37  1  0  0  0
 33 34  1  0  0  0
 34 35  2  0  0  0
 35 36  1  0  0  0
 35 38  1  0  0  0
 36 37  2  0  0  0
 38 40  1  0  0  0
 40 41  2  0  0  0
 40 42  1  0  0  0
  2  3  2  0  0  0
  2  4  1  0  0  0
  4  6  1  0  0  0
  6  7  1  0  0  0
  7  8  1  0  0  0
  8  9  1  0  0  0
  9 10  1  0  0  0
 10 11  1  0  0  0
 11 12  1  0  0  0
 12 13  1  0  0  0
 13 14  2  0  0  0
 13 15  1  0  0  0
 20 21  1  0  0  0
 38 39  1  0  0  0
 41 43  1  0  0  0
 42 44  1  0  0  0
 42 45  1  0  0  0
  4  5  1  0  0  0
 15 16  1  0  0  0
 15 17  1  0  0  0
M  END
> <minimizedAffinity>
-7.99545

$$$$
2BVS_2CE_H_1246


 45 46  0  0  0  0  0  0  0  0999 V2000
   11.9312  -13.1430   15.9487 C   0  0  0  0  0  0  0  0  0  0  0  0
   11.9363  -12.2791   17.1963 C   0  0  0  0  0  0  0  0  0  0  0  0
   12.5349  -11.2168   17.1749 O   0  0  0  0  0  0  0  0  0  0  0  0
   11.2330  -12.6444   18.3248 N   0  0  0  0  0  0  0  0  0  0  0  0
   10.7764  -13.5166   18.3246 H   0  0  0  0  0  0  0  0  0  0  0  0
   11.1262  -11.8125   19.5200 C   0  0  0  0  0  0  0  0  0  0  0  0
   11.8414  -12.4050   20.7382 C   0  0  0  0  0  0  0  0  0  0  0  0
   10.9745  -13.1985   21.5488 O   0  0  0  0  0  0  0  0  0  0  0  0
   11.6824  -14.0895   22.4092 C   0  0  0  0  0  0  0  0  0  0  0  0
   11.7680  -13.5639   23.8514 C   0  0  0  0  0  0  0  0  0  0  0  0
   13.0664  -13.7779   24.3946 O   0  0  0  0  0  0  0  0  0  0  0  0
   14.0865  -13.5948   23.4177 C   0  0  0  0  0  0  0  0  0  0  0  0
   15.0672  -12.5265   23.8620 C   0  0  0  0  0  0  0  0  0  0  0  0
   16.2200  -12.8297   24.0966 O   0  0  0  0  0  0  0  0  0  0  0  0
   14.6592  -11.2122   24.0258 N   0  0  0  0  0  0  0  0  0  0  0  0
   13.7265  -10.9592   23.8376 H   0  0  0  0  0  0  0  0  0  0  0  0
   15.3020  -10.5316   24.3304 H   0  0  0  0  0  0  0  0  0  0  0  0
   14.0539  -13.6378   14.6606 C   0  0  0  0  0  0  0  0  0  0  0  0
   13.5946  -13.0339   13.7154 O   0  0  0  0  0  0  0  0  0  0  0  0
   13.2809  -13.7489   15.8179 N   0  0  0  0  0  0  0  0  0  0  0  0
   13.6469  -14.2514   16.5813 H   0  0  0  0  0  0  0  0  0  0  0  0
   15.4494  -14.2238   14.5095 C   0  0  0  0  0  0  0  0  0  0  0  0
   16.7246  -12.9954   14.8936 S   0  0  0  0  0  0  0  0  0  0  0  0
   16.8449   -9.4543   11.9770 C   0  0  0  0  0  0  0  0  0  0  0  0
   16.0062   -9.4341   13.1073 C   0  0  0  0  0  0  0  0  0  0  0  0
   15.9760  -10.5270   13.9982 C   0  0  0  0  0  0  0  0  0  0  0  0
   16.7904  -11.6522   13.7605 C   0  0  0  0  0  0  0  0  0  0  0  0
   17.6298  -11.6676   12.6195 C   0  0  0  0  0  0  0  0  0  0  0  0
   17.6581  -10.5746   11.7307 C   0  0  0  0  0  0  0  0  0  0  0  0
   16.8747   -8.1127   10.9044 Cl  0  0  0  0  0  0  0  0  0  0  0  0
   10.8663  -14.2626   16.0700 C   0  0  0  0  0  0  0  0  0  0  0  0
    9.8925  -14.4511   14.9008 C   0  0  0  0  0  0  0  0  0  0  0  0
   10.1938  -13.8755   13.6424 C   0  0  0  0  0  0  0  0  0  0  0  0
    9.3046  -14.0383   12.5451 C   0  0  0  0  0  0  0  0  0  0  0  0
    8.0917  -14.7821   12.6946 C   0  0  0  0  0  0  0  0  0  0  0  0
    7.8029  -15.3515   13.9595 C   0  0  0  0  0  0  0  0  0  0  0  0
    8.6928  -15.1888   15.0539 C   0  0  0  0  0  0  0  0  0  0  0  0
    7.1382  -14.9917   11.6210 N   0  0  0  0  0  0  0  0  0  0  0  0
    7.5134  -14.9660   10.7112 H   0  0  0  0  0  0  0  0  0  0  0  0
    5.7484  -15.2275   11.6976 C   0  0  0  0  0  0  0  0  0  0  0  0
    5.2178  -16.3607   11.3390 N   0  0  0  0  0  0  0  0  0  0  0  0
    4.9236  -14.2150   12.1707 N   0  0  0  0  0  0  0  0  0  0  0  0
    5.7901  -17.0874   11.0017 H   0  0  0  0  0  0  0  0  0  0  0  0
    5.3109  -13.3526   12.4455 H   0  0  0  0  0  0  0  0  0  0  0  0
    3.9517  -14.3597   12.2312 H   0  0  0  0  0  0  0  0  0  0  0  0
 24 25  2  0  0  0
 24 29  1  0  0  0
 24 30  1  0  0  0
 25 26  1  0  0  0
 26 27  2  0  0  0
 27 28  1  0  0  0
 27 23  1  0  0  0
 28 29  2  0  0  0
 23 22  1  0  0  0
 22 18  1  0  0  0
 18 19  2  0  0  0
 18 20  1  0  0  0
 20  1  1  0  0  0
  1 31  1  0  0  0
  1  2  1  0  0  0
 31 32  1  0  0  0
 32 33  2  0  0  0
 32 37  1  0  0  0
 33 34  1  0  0  0
 34 35  2  0  0  0
 35 36  1  0  0  0
 35 38  1  0  0  0
 36 37  2  0  0  0
 38 40  1  0  0  0
 40 41  2  0  0  0
 40 42  1  0  0  0
  2  3  2  0  0  0
  2  4  1  0  0  0
  4  6  1  0  0  0
  6  7  1  0  0  0
  7  8  1  0  0  0
  8  9  1  0  0  0
  9 10  1  0  0  0
 10 11  1  0  0  0
 11 12  1  0  0  0
 12 13  1  0  0  0
 13 14  2  0  0  0
 13 15  1  0  0  0
 20 21  1  0  0  0
 38 39  1  0  0  0
 41 43  1  0  0  0
 42 44  1  0  0  0
 42 45  1  0  0  0
  4  5  1  0  0  0
 15 16  1  0  0  0
 15 17  1  0  0  0
M  END
> <minimizedAffinity>
-7.96215

$$$$
2BVS_2CE_H_1246


 45 46  0  0  0  0  0  0  0  0999 V2000
   14.4298  -14.0261   16.0588 C   0  0  0  0  0  0  0  0  0  0  0  0
   14.3828  -14.9717   17.2447 C   0  0  0  0  0  0  0  0  0  0  0  0
   15.3960  -15.5736   17.5587 O   0  0  0  0  0  0  0  0  0  0  0  0
   13.2398  -15.1164   18.0022 N   0  0  0  0  0  0  0  0  0  0  0  0
   12.4293  -14.6369   17.7150 H   0  0  0  0  0  0  0  0  0  0  0  0
   13.1617  -15.9396   19.2057 C   0  0  0  0  0  0  0  0  0  0  0  0
   13.6036  -15.2038   20.4745 C   0  0  0  0  0  0  0  0  0  0  0  0
   12.6721  -14.1994   20.8768 O   0  0  0  0  0  0  0  0  0  0  0  0
   13.2721  -13.1697   21.6608 C   0  0  0  0  0  0  0  0  0  0  0  0
   12.3307  -11.9725   21.8715 C   0  0  0  0  0  0  0  0  0  0  0  0
   12.6931  -10.8856   21.0265 O   0  0  0  0  0  0  0  0  0  0  0  0
   11.6707  -10.5848   20.0817 C   0  0  0  0  0  0  0  0  0  0  0  0
   11.7880  -11.4803   18.8633 C   0  0  0  0  0  0  0  0  0  0  0  0
   12.5982  -11.2141   17.9980 O   0  0  0  0  0  0  0  0  0  0  0  0
   10.9664  -12.5863   18.7134 N   0  0  0  0  0  0  0  0  0  0  0  0
   10.3075  -12.8081   19.4105 H   0  0  0  0  0  0  0  0  0  0  0  0
   11.0415  -13.1501   17.9099 H   0  0  0  0  0  0  0  0  0  0  0  0
   12.4495  -13.0316   14.8344 C   0  0  0  0  0  0  0  0  0  0  0  0
   12.9352  -13.4075   13.7895 O   0  0  0  0  0  0  0  0  0  0  0  0
   13.1392  -13.2919   16.0199 N   0  0  0  0  0  0  0  0  0  0  0  0
   12.7529  -12.9746   16.8681 H   0  0  0  0  0  0  0  0  0  0  0  0
   11.1135  -12.3073   14.7682 C   0  0  0  0  0  0  0  0  0  0  0  0
    9.7312  -13.4510   15.0210 S   0  0  0  0  0  0  0  0  0  0  0  0
    7.6449  -14.8389   11.1763 C   0  0  0  0  0  0  0  0  0  0  0  0
    6.9524  -14.7940   12.4010 C   0  0  0  0  0  0  0  0  0  0  0  0
    7.6019  -14.3660   13.5775 C   0  0  0  0  0  0  0  0  0  0  0  0
    8.9559  -13.9783   13.5332 C   0  0  0  0  0  0  0  0  0  0  0  0
    9.6480  -14.0287   12.2983 C   0  0  0  0  0  0  0  0  0  0  0  0
    8.9971  -14.4568   11.1242 C   0  0  0  0  0  0  0  0  0  0  0  0
    6.8381  -15.3569    9.7509 Cl  0  0  0  0  0  0  0  0  0  0  0  0
   15.5980  -13.0195   16.2152 C   0  0  0  0  0  0  0  0  0  0  0  0
   16.0764  -12.2808   14.9597 C   0  0  0  0  0  0  0  0  0  0  0  0
   15.5647  -10.9922   14.6710 C   0  0  0  0  0  0  0  0  0  0  0  0
   15.9950  -10.2899   13.5122 C   0  0  0  0  0  0  0  0  0  0  0  0
   16.9479  -10.8735   12.6188 C   0  0  0  0  0  0  0  0  0  0  0  0
   17.4505  -12.1636   12.9198 C   0  0  0  0  0  0  0  0  0  0  0  0
   17.0204  -12.8629   14.0782 C   0  0  0  0  0  0  0  0  0  0  0  0
   17.4347  -10.2169   11.4198 N   0  0  0  0  0  0  0  0  0  0  0  0
   17.7917  -10.8159   10.7249 H   0  0  0  0  0  0  0  0  0  0  0  0
   17.4683   -8.8401   11.1095 C   0  0  0  0  0  0  0  0  0  0  0  0
   18.5869   -8.1899   10.9666 N   0  0  0  0  0  0  0  0  0  0  0  0
   16.2671   -8.1605   10.9528 N   0  0  0  0  0  0  0  0  0  0  0  0
   19.4459   -8.6586   11.0747 H   0  0  0  0  0  0  0  0  0  0  0  0
   15.4133   -8.6393   11.0579 H   0  0  0  0  0  0  0  0  0  0  0  0
   16.2695   -7.2000   10.7367 H   0  0  0  0  0  0  0  0  0  0  0  0
 24 25  2  0  0  0
 24 29  1  0  0  0
 24 30  1  0  0  0
 25 26  1  0  0  0
 26 27  2  0  0  0
 27 28  1  0  0  0
 27 23  1  0  0  0
 28 29  2  0  0  0
 23 22  1  0  0  0
 22 18  1  0  0  0
 18 19  2  0  0  0
 18 20  1  0  0  0
 20  1  1  0  0  0
  1 31  1  0  0  0
  1  2  1  0  0  0
 31 32  1  0  0  0
 32 33  2  0  0  0
 32 37  1  0  0  0
 33 34  1  0  0  0
 34 35  2  0  0  0
 35 36  1  0  0  0
 35 38  1  0  0  0
 36 37  2  0  0  0
 38 40  1  0  0  0
 40 41  2  0  0  0
 40 42  1  0  0  0
  2  3  2  0  0  0
  2  4  1  0  0  0
  4  6  1  0  0  0
  6  7  1  0  0  0
  7  8  1  0  0  0
  8  9  1  0  0  0
  9 10  1  0  0  0
 10 11  1  0  0  0
 11 12  1  0  0  0
 12 13  1  0  0  0
 13 14  2  0  0  0
 13 15  1  0  0  0
 20 21  1  0  0  0
 38 39  1  0  0  0
 41 43  1  0  0  0
 42 44  1  0  0  0
 42 45  1  0  0  0
  4  5  1  0  0  0
 15 16  1  0  0  0
 15 17  1  0  0  0
M  END
> <minimizedAffinity>
-7.81425

$$$$
2BVS_2CE_H_1246


 45 46  0  0  0  0  0  0  0  0999 V2000
   12.4851  -15.6037   14.6595 C   0  0  0  0  0  0  0  0  0  0  0  0
   11.8612  -15.8475   13.2978 C   0  0  0  0  0  0  0  0  0  0  0  0
   11.5505  -16.9853   12.9874 O   0  0  0  0  0  0  0  0  0  0  0  0
   11.5886  -14.8057   12.4366 N   0  0  0  0  0  0  0  0  0  0  0  0
   11.8691  -13.8999   12.7011 H   0  0  0  0  0  0  0  0  0  0  0  0
   10.9078  -14.9682   11.1551 C   0  0  0  0  0  0  0  0  0  0  0  0
    9.4770  -14.4213   11.1539 C   0  0  0  0  0  0  0  0  0  0  0  0
    8.4965  -15.4551   11.0612 O   0  0  0  0  0  0  0  0  0  0  0  0
    7.5025  -15.3686   12.0807 C   0  0  0  0  0  0  0  0  0  0  0  0
    7.9518  -16.0330   13.3924 C   0  0  0  0  0  0  0  0  0  0  0  0
    7.4820  -15.3017   14.5199 O   0  0  0  0  0  0  0  0  0  0  0  0
    7.7143  -13.9037   14.3794 C   0  0  0  0  0  0  0  0  0  0  0  0
    7.7154  -13.2226   15.7346 C   0  0  0  0  0  0  0  0  0  0  0  0
    7.4077  -12.0503   15.8178 O   0  0  0  0  0  0  0  0  0  0  0  0
    8.0852  -13.9150   16.8767 N   0  0  0  0  0  0  0  0  0  0  0  0
    8.3358  -14.8652   16.8168 H   0  0  0  0  0  0  0  0  0  0  0  0
    8.0974  -13.4567   17.7479 H   0  0  0  0  0  0  0  0  0  0  0  0
   15.0133  -15.6162   14.5245 C   0  0  0  0  0  0  0  0  0  0  0  0
   15.0002  -16.7949   14.8069 O   0  0  0  0  0  0  0  0  0  0  0  0
   13.7952  -14.9393   14.4396 N   0  0  0  0  0  0  0  0  0  0  0  0
   13.8050  -13.9787   14.2243 H   0  0  0  0  0  0  0  0  0  0  0  0
   16.3666  -14.9677   14.2767 C   0  0  0  0  0  0  0  0  0  0  0  0
   16.4972  -13.3718   15.1244 S   0  0  0  0  0  0  0  0  0  0  0  0
   16.8275   -9.8022   12.2592 C   0  0  0  0  0  0  0  0  0  0  0  0
   17.6563  -10.9301   12.1103 C   0  0  0  0  0  0  0  0  0  0  0  0
   17.5475  -12.0226   12.9957 C   0  0  0  0  0  0  0  0  0  0  0  0
   16.6026  -11.9909   14.0406 C   0  0  0  0  0  0  0  0  0  0  0  0
   15.7738  -10.8515   14.1870 C   0  0  0  0  0  0  0  0  0  0  0  0
   15.8844   -9.7611   13.3013 C   0  0  0  0  0  0  0  0  0  0  0  0
   16.9682   -8.4820   11.1690 Cl  0  0  0  0  0  0  0  0  0  0  0  0
   11.5736  -14.6887   15.5164 C   0  0  0  0  0  0  0  0  0  0  0  0
   12.1885  -14.0278   16.7557 C   0  0  0  0  0  0  0  0  0  0  0  0
   12.7119  -14.8393   17.7917 C   0  0  0  0  0  0  0  0  0  0  0  0
   13.2866  -14.2468   18.9493 C   0  0  0  0  0  0  0  0  0  0  0  0
   13.3426  -12.8241   19.0878 C   0  0  0  0  0  0  0  0  0  0  0  0
   12.8144  -12.0248   18.0439 C   0  0  0  0  0  0  0  0  0  0  0  0
   12.2419  -12.6184   16.8881 C   0  0  0  0  0  0  0  0  0  0  0  0
   13.9150  -12.1490   20.2377 N   0  0  0  0  0  0  0  0  0  0  0  0
   14.6045  -12.6551   20.7254 H   0  0  0  0  0  0  0  0  0  0  0  0
   13.6224  -10.8686   20.7557 C   0  0  0  0  0  0  0  0  0  0  0  0
   14.3149   -9.8156   20.4303 N   0  0  0  0  0  0  0  0  0  0  0  0
   12.5611  -10.7322   21.6413 N   0  0  0  0  0  0  0  0  0  0  0  0
   15.0699   -9.8972   19.8038 H   0  0  0  0  0  0  0  0  0  0  0  0
   12.0285  -11.5200   21.8964 H   0  0  0  0  0  0  0  0  0  0  0  0
   12.3414   -9.8478   22.0138 H   0  0  0  0  0  0  0  0  0  0  0  0
 24 25  2  0  0  0
 24 29  1  0  0  0
 24 30  1  0  0  0
 25 26  1  0  0  0
 26 27  2  0  0  0
 27 28  1  0  0  0
 27 23  1  0  0  0
 28 29  2  0  0  0
 23 22  1  0  0  0
 22 18  1  0  0  0
 18 19  2  0  0  0
 18 20  1  0  0  0
 20  1  1  0  0  0
  1 31  1  0  0  0
  1  2  1  0  0  0
 31 32  1  0  0  0
 32 33  2  0  0  0
 32 37  1  0  0  0
 33 34  1  0  0  0
 34 35  2  0  0  0
 35 36  1  0  0  0
 35 38  1  0  0  0
 36 37  2  0  0  0
 38 40  1  0  0  0
 40 41  2  0  0  0
 40 42  1  0  0  0
  2  3  2  0  0  0
  2  4  1  0  0  0
  4  6  1  0  0  0
  6  7  1  0  0  0
  7  8  1  0  0  0
  8  9  1  0  0  0
  9 10  1  0  0  0
 10 11  1  0  0  0
 11 12  1  0  0  0
 12 13  1  0  0  0
 13 14  2  0  0  0
 13 15  1  0  0  0
 20 21  1  0  0  0
 38 39  1  0  0  0
 41 43  1  0  0  0
 42 44  1  0  0  0
 42 45  1  0  0  0
  4  5  1  0  0  0
 15 16  1  0  0  0
 15 17  1  0  0  0
M  END
> <minimizedAffinity>
-7.79259

$$$$
2BVS_2CE_H_1246


 45 46  0  0  0  0  0  0  0  0999 V2000
   12.4330  -13.7287   16.6529 C   0  0  0  0  0  0  0  0  0  0  0  0
   13.1467  -14.1683   15.3880 C   0  0  0  0  0  0  0  0  0  0  0  0
   12.9616  -13.5409   14.3587 O   0  0  0  0  0  0  0  0  0  0  0  0
   14.0382  -15.2202   15.3959 N   0  0  0  0  0  0  0  0  0  0  0  0
   14.1533  -15.7243   16.2337 H   0  0  0  0  0  0  0  0  0  0  0  0
   14.8215  -15.6299   14.2337 C   0  0  0  0  0  0  0  0  0  0  0  0
   16.2864  -15.1874   14.3020 C   0  0  0  0  0  0  0  0  0  0  0  0
   16.4897  -13.8832   13.7577 O   0  0  0  0  0  0  0  0  0  0  0  0
   16.7766  -12.9051   14.7557 C   0  0  0  0  0  0  0  0  0  0  0  0
   15.9645  -11.6145   14.5592 C   0  0  0  0  0  0  0  0  0  0  0  0
   16.0175  -11.1815   13.2040 O   0  0  0  0  0  0  0  0  0  0  0  0
   16.1782   -9.7700   13.1043 C   0  0  0  0  0  0  0  0  0  0  0  0
   16.8923   -9.4024   11.8177 C   0  0  0  0  0  0  0  0  0  0  0  0
   17.9347   -9.9560   11.5300 O   0  0  0  0  0  0  0  0  0  0  0  0
   16.3822   -8.4259   10.9768 N   0  0  0  0  0  0  0  0  0  0  0  0
   15.5380   -7.9730   11.2035 H   0  0  0  0  0  0  0  0  0  0  0  0
   16.8641   -8.1852   10.1527 H   0  0  0  0  0  0  0  0  0  0  0  0
    9.9560  -13.3708   16.2702 C   0  0  0  0  0  0  0  0  0  0  0  0
   10.1765  -12.1924   16.0919 O   0  0  0  0  0  0  0  0  0  0  0  0
   11.0308  -14.2110   16.5668 N   0  0  0  0  0  0  0  0  0  0  0  0
   10.8513  -15.1658   16.7260 H   0  0  0  0  0  0  0  0  0  0  0  0
    8.5151  -13.8426   16.1481 C   0  0  0  0  0  0  0  0  0  0  0  0
    8.3670  -15.2069   14.9651 S   0  0  0  0  0  0  0  0  0  0  0  0
    7.9515  -13.8693   10.5949 C   0  0  0  0  0  0  0  0  0  0  0  0
    6.8190  -14.2021   11.3617 C   0  0  0  0  0  0  0  0  0  0  0  0
    6.9565  -14.6121   12.7042 C   0  0  0  0  0  0  0  0  0  0  0  0
    8.2361  -14.6911   13.2889 C   0  0  0  0  0  0  0  0  0  0  0  0
    9.3720  -14.3578   12.5109 C   0  0  0  0  0  0  0  0  0  0  0  0
    9.2322  -13.9487   11.1698 C   0  0  0  0  0  0  0  0  0  0  0  0
    7.7670  -13.3659    8.9627 Cl  0  0  0  0  0  0  0  0  0  0  0  0
   13.1188  -14.3393   17.9015 C   0  0  0  0  0  0  0  0  0  0  0  0
   13.0272  -13.5602   19.2188 C   0  0  0  0  0  0  0  0  0  0  0  0
   11.9402  -13.7971   20.0951 C   0  0  0  0  0  0  0  0  0  0  0  0
   11.8362  -13.0856   21.3216 C   0  0  0  0  0  0  0  0  0  0  0  0
   12.8243  -12.1183   21.6885 C   0  0  0  0  0  0  0  0  0  0  0  0
   13.9057  -11.8911   20.8016 C   0  0  0  0  0  0  0  0  0  0  0  0
   14.0084  -12.6035   19.5778 C   0  0  0  0  0  0  0  0  0  0  0  0
   12.7857  -11.3563   22.9228 N   0  0  0  0  0  0  0  0  0  0  0  0
   12.1352  -10.6177   22.9437 H   0  0  0  0  0  0  0  0  0  0  0  0
   13.5498  -11.5250   24.0980 C   0  0  0  0  0  0  0  0  0  0  0  0
   13.0781  -12.1305   25.1492 N   0  0  0  0  0  0  0  0  0  0  0  0
   14.8460  -11.0268   24.1299 N   0  0  0  0  0  0  0  0  0  0  0  0
   12.1611  -12.4887   25.1410 H   0  0  0  0  0  0  0  0  0  0  0  0
   15.2160  -10.5665   23.3422 H   0  0  0  0  0  0  0  0  0  0  0  0
   15.3947  -11.1341   24.9403 H   0  0  0  0  0  0  0  0  0  0  0  0
 24 25  2  0  0  0
 24 29  1  0  0  0
 24 30  1  0  0  0
 25 26  1  0  0  0
 26 27  2  0  0  0
 27 28  1  0  0  0
 27 23  1  0  0  0
 28 29  2  0  0  0
 23 22  1  0  0  0
 22 18  1  0  0  0
 18 19  2  0  0  0
 18 20  1  0  0  0
 20  1  1  0  0  0
  1 31  1  0  0  0
  1  2  1  0  0  0
 31 32  1  0  0  0
 32 33  2  0  0  0
 32 37  1  0  0  0
 33 34  1  0  0  0
 34 35  2  0  0  0
 35 36  1  0  0  0
 35 38  1  0  0  0
 36 37  2  0  0  0
 38 40  1  0  0  0
 40 41  2  0  0  0
 40 42  1  0  0  0
  2  3  2  0  0  0
  2  4  1  0  0  0
  4  6  1  0  0  0
  6  7  1  0  0  0
  7  8  1  0  0  0
  8  9  1  0  0  0
  9 10  1  0  0  0
 10 11  1  0  0  0
 11 12  1  0  0  0
 12 13  1  0  0  0
 13 14  2  0  0  0
 13 15  1  0  0  0
 20 21  1  0  0  0
 38 39  1  0  0  0
 41 43  1  0  0  0
 42 44  1  0  0  0
 42 45  1  0  0  0
  4  5  1  0  0  0
 15 16  1  0  0  0
 15 17  1  0  0  0
M  END
> <minimizedAffinity>
-7.75567

$$$$
2BVS_2CE_H_1246


 45 46  0  0  0  0  0  0  0  0999 V2000
   11.2086  -12.8444   17.2678 C   0  0  0  0  0  0  0  0  0  0  0  0
   12.1265  -12.3742   16.1546 C   0  0  0  0  0  0  0  0  0  0  0  0
   12.6011  -11.2525   16.2168 O   0  0  0  0  0  0  0  0  0  0  0  0
   12.4763  -13.2074   15.1131 N   0  0  0  0  0  0  0  0  0  0  0  0
   12.0626  -14.0998   15.0741 H   0  0  0  0  0  0  0  0  0  0  0  0
   13.4250  -12.8427   14.0647 C   0  0  0  0  0  0  0  0  0  0  0  0
   14.8483  -13.3413   14.3333 C   0  0  0  0  0  0  0  0  0  0  0  0
   15.5975  -12.4421   15.1511 O   0  0  0  0  0  0  0  0  0  0  0  0
   15.9914  -11.2597   14.4569 C   0  0  0  0  0  0  0  0  0  0  0  0
   16.9234  -11.5612   13.2719 C   0  0  0  0  0  0  0  0  0  0  0  0
   17.5844  -10.3799   12.8312 O   0  0  0  0  0  0  0  0  0  0  0  0
   17.5199  -10.2328   11.4161 C   0  0  0  0  0  0  0  0  0  0  0  0
   17.3661   -8.7725   11.0364 C   0  0  0  0  0  0  0  0  0  0  0  0
   18.3434   -8.1325   10.7032 O   0  0  0  0  0  0  0  0  0  0  0  0
   16.1276   -8.1526   11.0867 N   0  0  0  0  0  0  0  0  0  0  0  0
   15.3312   -8.6650   11.3558 H   0  0  0  0  0  0  0  0  0  0  0  0
   16.0442   -7.1998   10.8533 H   0  0  0  0  0  0  0  0  0  0  0  0
    8.8614  -13.5021   16.5836 C   0  0  0  0  0  0  0  0  0  0  0  0
    8.4602  -12.4493   17.0304 O   0  0  0  0  0  0  0  0  0  0  0  0
   10.2258  -13.7847   16.6710 N   0  0  0  0  0  0  0  0  0  0  0  0
   10.5511  -14.6456   16.3215 H   0  0  0  0  0  0  0  0  0  0  0  0
    7.8379  -14.4337   15.9527 C   0  0  0  0  0  0  0  0  0  0  0  0
    8.5861  -15.4510   14.6534 S   0  0  0  0  0  0  0  0  0  0  0  0
    7.9925  -13.8342   10.3997 C   0  0  0  0  0  0  0  0  0  0  0  0
    9.2738  -13.8961   10.9792 C   0  0  0  0  0  0  0  0  0  0  0  0
    9.4465  -14.3947   12.2872 C   0  0  0  0  0  0  0  0  0  0  0  0
    8.3307  -14.8365   13.0256 C   0  0  0  0  0  0  0  0  0  0  0  0
    7.0435  -14.7685   12.4379 C   0  0  0  0  0  0  0  0  0  0  0  0
    6.8734  -14.2699   11.1310 C   0  0  0  0  0  0  0  0  0  0  0  0
    7.7993  -13.2298    8.8032 Cl  0  0  0  0  0  0  0  0  0  0  0  0
   12.0219  -13.5700   18.3698 C   0  0  0  0  0  0  0  0  0  0  0  0
   13.1479  -14.5102   17.9235 C   0  0  0  0  0  0  0  0  0  0  0  0
   12.8263  -15.7961   17.4248 C   0  0  0  0  0  0  0  0  0  0  0  0
   13.8550  -16.6835   17.0056 C   0  0  0  0  0  0  0  0  0  0  0  0
   15.2293  -16.2939   17.0833 C   0  0  0  0  0  0  0  0  0  0  0  0
   15.5362  -15.0048   17.5850 C   0  0  0  0  0  0  0  0  0  0  0  0
   14.5074  -14.1196   18.0022 C   0  0  0  0  0  0  0  0  0  0  0  0
   16.3315  -17.1437   16.6727 N   0  0  0  0  0  0  0  0  0  0  0  0
   16.3079  -17.4435   15.7353 H   0  0  0  0  0  0  0  0  0  0  0  0
   17.4329  -17.6011   17.4282 C   0  0  0  0  0  0  0  0  0  0  0  0
   17.2876  -18.3736   18.4657 N   0  0  0  0  0  0  0  0  0  0  0  0
   18.7113  -17.2117   17.0496 N   0  0  0  0  0  0  0  0  0  0  0  0
   16.3875  -18.6576   18.7458 H   0  0  0  0  0  0  0  0  0  0  0  0
   18.8365  -16.6277   16.2670 H   0  0  0  0  0  0  0  0  0  0  0  0
   19.4923  -17.5198   17.5638 H   0  0  0  0  0  0  0  0  0  0  0  0
 24 25  2  0  0  0
 24 29  1  0  0  0
 24 30  1  0  0  0
 25 26  1  0  0  0
 26 27  2  0  0  0
 27 28  1  0  0  0
 27 23  1  0  0  0
 28 29  2  0  0  0
 23 22  1  0  0  0
 22 18  1  0  0  0
 18 19  2  0  0  0
 18 20  1  0  0  0
 20  1  1  0  0  0
  1 31  1  0  0  0
  1  2  1  0  0  0
 31 32  1  0  0  0
 32 33  2  0  0  0
 32 37  1  0  0  0
 33 34  1  0  0  0
 34 35  2  0  0  0
 35 36  1  0  0  0
 35 38  1  0  0  0
 36 37  2  0  0  0
 38 40  1  0  0  0
 40 41  2  0  0  0
 40 42  1  0  0  0
  2  3  2  0  0  0
  2  4  1  0  0  0
  4  6  1  0  0  0
  6  7  1  0  0  0
  7  8  1  0  0  0
  8  9  1  0  0  0
  9 10  1  0  0  0
 10 11  1  0  0  0
 11 12  1  0  0  0
 12 13  1  0  0  0
 13 14  2  0  0  0
 13 15  1  0  0  0
 20 21  1  0  0  0
 38 39  1  0  0  0
 41 43  1  0  0  0
 42 44  1  0  0  0
 42 45  1  0  0  0
  4  5  1  0  0  0
 15 16  1  0  0  0
 15 17  1  0  0  0
M  END
> <minimizedAffinity>
-7.73919

$$$$
2BVS_2CE_H_1246


 45 46  0  0  0  0  0  0  0  0999 V2000
   11.7180  -13.3318   17.6255 C   0  0  0  0  0  0  0  0  0  0  0  0
   12.8476  -14.3161   17.3848 C   0  0  0  0  0  0  0  0  0  0  0  0
   12.9487  -15.2871   18.1158 O   0  0  0  0  0  0  0  0  0  0  0  0
   13.7188  -14.1637   16.3268 N   0  0  0  0  0  0  0  0  0  0  0  0
   13.6298  -13.3603   15.7649 H   0  0  0  0  0  0  0  0  0  0  0  0
   14.7656  -15.1249   15.9917 C   0  0  0  0  0  0  0  0  0  0  0  0
   16.1800  -14.5985   16.2541 C   0  0  0  0  0  0  0  0  0  0  0  0
   16.2411  -13.1721   16.2554 O   0  0  0  0  0  0  0  0  0  0  0  0
   16.5629  -12.6304   14.9755 C   0  0  0  0  0  0  0  0  0  0  0  0
   15.4702  -11.6853   14.4498 C   0  0  0  0  0  0  0  0  0  0  0  0
   15.8517  -11.1090   13.2051 O   0  0  0  0  0  0  0  0  0  0  0  0
   17.1623  -10.5542   13.2574 C   0  0  0  0  0  0  0  0  0  0  0  0
   17.9321  -10.8800   11.9918 C   0  0  0  0  0  0  0  0  0  0  0  0
   18.0764  -10.0260   11.1400 O   0  0  0  0  0  0  0  0  0  0  0  0
   18.4537  -12.1472   11.7846 N   0  0  0  0  0  0  0  0  0  0  0  0
   18.3407  -12.8443   12.4706 H   0  0  0  0  0  0  0  0  0  0  0  0
   18.9374  -12.3503   10.9515 H   0  0  0  0  0  0  0  0  0  0  0  0
   11.3321  -11.8061   19.6088 C   0  0  0  0  0  0  0  0  0  0  0  0
   10.1616  -12.1205   19.5945 O   0  0  0  0  0  0  0  0  0  0  0  0
   12.1811  -12.3600   18.6488 N   0  0  0  0  0  0  0  0  0  0  0  0
   13.1292  -12.0946   18.6503 H   0  0  0  0  0  0  0  0  0  0  0  0
   11.7851  -10.8311   20.6849 C   0  0  0  0  0  0  0  0  0  0  0  0
   12.6841  -11.6819   22.0080 S   0  0  0  0  0  0  0  0  0  0  0  0
   11.9223  -16.2035   22.1957 C   0  0  0  0  0  0  0  0  0  0  0  0
   13.0913  -15.6895   21.6036 C   0  0  0  0  0  0  0  0  0  0  0  0
   13.3169  -14.2983   21.5506 C   0  0  0  0  0  0  0  0  0  0  0  0
   12.3676  -13.4097   22.0936 C   0  0  0  0  0  0  0  0  0  0  0  0
   11.1918  -13.9332   22.6852 C   0  0  0  0  0  0  0  0  0  0  0  0
   10.9685  -15.3235   22.7368 C   0  0  0  0  0  0  0  0  0  0  0  0
   11.6649  -17.9009   22.2577 Cl  0  0  0  0  0  0  0  0  0  0  0  0
   11.3653  -12.5818   16.3158 C   0  0  0  0  0  0  0  0  0  0  0  0
   10.1402  -13.0599   15.5274 C   0  0  0  0  0  0  0  0  0  0  0  0
    8.8596  -13.0093   16.1300 C   0  0  0  0  0  0  0  0  0  0  0  0
    7.7107  -13.4476   15.4165 C   0  0  0  0  0  0  0  0  0  0  0  0
    7.8294  -13.9487   14.0818 C   0  0  0  0  0  0  0  0  0  0  0  0
    9.1169  -13.9943   13.4920 C   0  0  0  0  0  0  0  0  0  0  0  0
   10.2630  -13.5552   14.2058 C   0  0  0  0  0  0  0  0  0  0  0  0
    6.7032  -14.4111   13.2922 N   0  0  0  0  0  0  0  0  0  0  0  0
    5.8145  -14.1772   13.6455 H   0  0  0  0  0  0  0  0  0  0  0  0
    6.7023  -15.1490   12.0887 C   0  0  0  0  0  0  0  0  0  0  0  0
    7.0022  -16.4152   12.0529 N   0  0  0  0  0  0  0  0  0  0  0  0
    6.3708  -14.4996   10.9064 N   0  0  0  0  0  0  0  0  0  0  0  0
    7.2391  -16.8886   12.8830 H   0  0  0  0  0  0  0  0  0  0  0  0
    6.1418  -13.5422   10.9183 H   0  0  0  0  0  0  0  0  0  0  0  0
    6.3649  -14.9967   10.0567 H   0  0  0  0  0  0  0  0  0  0  0  0
 24 25  2  0  0  0
 24 29  1  0  0  0
 24 30  1  0  0  0
 25 26  1  0  0  0
 26 27  2  0  0  0
 27 28  1  0  0  0
 27 23  1  0  0  0
 28 29  2  0  0  0
 23 22  1  0  0  0
 22 18  1  0  0  0
 18 19  2  0  0  0
 18 20  1  0  0  0
 20  1  1  0  0  0
  1 31  1  0  0  0
  1  2  1  0  0  0
 31 32  1  0  0  0
 32 33  2  0  0  0
 32 37  1  0  0  0
 33 34  1  0  0  0
 34 35  2  0  0  0
 35 36  1  0  0  0
 35 38  1  0  0  0
 36 37  2  0  0  0
 38 40  1  0  0  0
 40 41  2  0  0  0
 40 42  1  0  0  0
  2  3  2  0  0  0
  2  4  1  0  0  0
  4  6  1  0  0  0
  6  7  1  0  0  0
  7  8  1  0  0  0
  8  9  1  0  0  0
  9 10  1  0  0  0
 10 11  1  0  0  0
 11 12  1  0  0  0
 12 13  1  0  0  0
 13 14  2  0  0  0
 13 15  1  0  0  0
 20 21  1  0  0  0
 38 39  1  0  0  0
 41 43  1  0  0  0
 42 44  1  0  0  0
 42 45  1  0  0  0
  4  5  1  0  0  0
 15 16  1  0  0  0
 15 17  1  0  0  0
M  END
> <minimizedAffinity>
-7.73810

$$$$
2BVS_2CE_H_1246


 45 46  0  0  0  0  0  0  0  0999 V2000
   12.0622  -12.9102   16.1834 C   0  0  0  0  0  0  0  0  0  0  0  0
   12.1887  -12.0895   17.4535 C   0  0  0  0  0  0  0  0  0  0  0  0
   11.1747  -11.7610   18.0461 O   0  0  0  0  0  0  0  0  0  0  0  0
   13.4220  -11.7617   17.9761 N   0  0  0  0  0  0  0  0  0  0  0  0
   14.2245  -12.0194   17.4674 H   0  0  0  0  0  0  0  0  0  0  0  0
   13.6066  -11.0545   19.2401 C   0  0  0  0  0  0  0  0  0  0  0  0
   13.8605  -11.9887   20.4272 C   0  0  0  0  0  0  0  0  0  0  0  0
   14.5314  -11.3344   21.5043 O   0  0  0  0  0  0  0  0  0  0  0  0
   14.5509  -12.1131   22.6994 C   0  0  0  0  0  0  0  0  0  0  0  0
   13.8102  -13.4506   22.5371 C   0  0  0  0  0  0  0  0  0  0  0  0
   13.1305  -13.8046   23.7369 O   0  0  0  0  0  0  0  0  0  0  0  0
   11.9010  -13.0997   23.8773 C   0  0  0  0  0  0  0  0  0  0  0  0
   10.7261  -14.0052   23.5611 C   0  0  0  0  0  0  0  0  0  0  0  0
   10.2815  -14.0396   22.4310 O   0  0  0  0  0  0  0  0  0  0  0  0
   10.1382  -14.7770   24.5507 N   0  0  0  0  0  0  0  0  0  0  0  0
   10.4931  -14.7542   25.4687 H   0  0  0  0  0  0  0  0  0  0  0  0
    9.3657  -15.3482   24.3357 H   0  0  0  0  0  0  0  0  0  0  0  0
   14.0414  -13.5645   14.7465 C   0  0  0  0  0  0  0  0  0  0  0  0
   13.5428  -12.9582   13.8229 O   0  0  0  0  0  0  0  0  0  0  0  0
   13.3595  -13.5994   15.9642 N   0  0  0  0  0  0  0  0  0  0  0  0
   13.7563  -14.1034   16.7111 H   0  0  0  0  0  0  0  0  0  0  0  0
   15.3837  -14.2371   14.5029 C   0  0  0  0  0  0  0  0  0  0  0  0
   16.7570  -13.0936   14.8015 S   0  0  0  0  0  0  0  0  0  0  0  0
   16.8276   -9.4627   11.9958 C   0  0  0  0  0  0  0  0  0  0  0  0
   17.6496  -10.5800   11.7560 C   0  0  0  0  0  0  0  0  0  0  0  0
   17.6210  -11.6914   12.6238 C   0  0  0  0  0  0  0  0  0  0  0  0
   16.7641  -11.6897   13.7424 C   0  0  0  0  0  0  0  0  0  0  0  0
   15.9417  -10.5610   13.9799 C   0  0  0  0  0  0  0  0  0  0  0  0
   15.9721   -9.4516   13.1116 C   0  0  0  0  0  0  0  0  0  0  0  0
   16.8696   -8.1191   10.9261 Cl  0  0  0  0  0  0  0  0  0  0  0  0
   10.9315  -13.9604   16.3280 C   0  0  0  0  0  0  0  0  0  0  0  0
    9.9620  -14.1317   15.1526 C   0  0  0  0  0  0  0  0  0  0  0  0
    8.6086  -14.4620   15.4073 C   0  0  0  0  0  0  0  0  0  0  0  0
    7.6930  -14.6254   14.3319 C   0  0  0  0  0  0  0  0  0  0  0  0
    8.1237  -14.4623   12.9775 C   0  0  0  0  0  0  0  0  0  0  0  0
    9.4808  -14.1329   12.7378 C   0  0  0  0  0  0  0  0  0  0  0  0
   10.3934  -13.9690   13.8131 C   0  0  0  0  0  0  0  0  0  0  0  0
    7.2474  -14.6111   11.8305 N   0  0  0  0  0  0  0  0  0  0  0  0
    7.6529  -14.4009   10.9583 H   0  0  0  0  0  0  0  0  0  0  0  0
    5.8952  -15.0148   11.7891 C   0  0  0  0  0  0  0  0  0  0  0  0
    5.5382  -16.1974   11.3787 N   0  0  0  0  0  0  0  0  0  0  0  0
    4.9170  -14.1183   12.1997 N   0  0  0  0  0  0  0  0  0  0  0  0
    6.2207  -16.8432   11.0847 H   0  0  0  0  0  0  0  0  0  0  0  0
    5.1722  -13.2204   12.5125 H   0  0  0  0  0  0  0  0  0  0  0  0
    3.9684  -14.3808   12.1779 H   0  0  0  0  0  0  0  0  0  0  0  0
 24 25  2  0  0  0
 24 29  1  0  0  0
 24 30  1  0  0  0
 25 26  1  0  0  0
 26 27  2  0  0  0
 27 28  1  0  0  0
 27 23  1  0  0  0
 28 29  2  0  0  0
 23 22  1  0  0  0
 22 18  1  0  0  0
 18 19  2  0  0  0
 18 20  1  0  0  0
 20  1  1  0  0  0
  1 31  1  0  0  0
  1  2  1  0  0  0
 31 32  1  0  0  0
 32 33  2  0  0  0
 32 37  1  0  0  0
 33 34  1  0  0  0
 34 35  2  0  0  0
 35 36  1  0  0  0
 35 38  1  0  0  0
 36 37  2  0  0  0
 38 40  1  0  0  0
 40 41  2  0  0  0
 40 42  1  0  0  0
  2  3  2  0  0  0
  2  4  1  0  0  0
  4  6  1  0  0  0
  6  7  1  0  0  0
  7  8  1  0  0  0
  8  9  1  0  0  0
  9 10  1  0  0  0
 10 11  1  0  0  0
 11 12  1  0  0  0
 12 13  1  0  0  0
 13 14  2  0  0  0
 13 15  1  0  0  0
 20 21  1  0  0  0
 38 39  1  0  0  0
 41 43  1  0  0  0
 42 44  1  0  0  0
 42 45  1  0  0  0
  4  5  1  0  0  0
 15 16  1  0  0  0
 15 17  1  0  0  0
M  END
> <minimizedAffinity>
-7.73563

$$$$
