2HL4_BO1_A_264


 29 30  0  0  0  0  0  0  0  0999 V2000
   -2.7303    3.5691   11.9369 C   0  0  0  0  0  0  0  0  0  0  0  0
   -1.3400    4.0263   11.4913 C   0  0  0  0  0  0  0  0  0  0  0  0
   -1.0569    3.4868   10.0866 C   0  0  0  0  0  0  0  0  0  0  0  0
   -1.1063    1.9742   10.1267 C   0  0  0  0  0  0  0  0  0  0  0  0
   -2.5184    1.5289   10.5911 C   0  0  0  0  0  0  0  0  0  0  0  0
   -2.8032    2.0940   11.9114 O   0  0  0  0  0  0  0  0  0  0  0  0
   -1.3274    5.4580   11.5114 O   0  0  0  0  0  0  0  0  0  0  0  0
    0.2403    3.9198    9.6774 O   0  0  0  0  0  0  0  0  0  0  0  0
   -0.8433    1.4449    8.8226 O   0  0  0  0  0  0  0  0  0  0  0  0
   -2.0182    5.7958   10.9201 H   0  0  0  0  0  0  0  0  0  0  0  0
    0.9034    3.5922   10.3050 H   0  0  0  0  0  0  0  0  0  0  0  0
   -1.5111    1.7725    8.2000 H   0  0  0  0  0  0  0  0  0  0  0  0
   -2.6602    0.0364   10.6880 C   0  0  0  0  0  0  0  0  0  0  0  0
   -3.1684   -0.4977    9.4708 O   0  0  0  0  0  0  0  0  0  0  0  0
   -4.0419   -0.1166    9.2903 H   0  0  0  0  0  0  0  0  0  0  0  0
   -3.0212    4.0430   13.2419 N   0  0  0  0  0  0  0  0  0  0  0  0
   -2.5841    4.8803   13.5195 H   0  0  0  0  0  0  0  0  0  0  0  0
   -5.5015    2.1569   16.0979 C   0  0  0  0  0  0  0  0  0  0  0  0
   -6.0795    3.0574   15.1676 C   0  0  0  0  0  0  0  0  0  0  0  0
   -5.2812    3.6881   14.2189 C   0  0  0  0  0  0  0  0  0  0  0  0
   -3.8649    3.4374   14.1661 C   0  0  0  0  0  0  0  0  0  0  0  0
   -3.3124    2.5326   15.1086 C   0  0  0  0  0  0  0  0  0  0  0  0
   -4.1125    1.9072   16.0508 C   0  0  0  0  0  0  0  0  0  0  0  0
   -6.4806    1.3506   17.3107 S   0  0  0  0  0  0  0  0  0  0  0  0
   -6.3137    2.1040   18.5215 O   0  0  0  0  0  0  0  0  0  0  0  0
   -7.8025    1.2030   16.7692 O   0  0  0  0  0  0  0  0  0  0  0  0
   -5.8743   -0.1065   17.5687 N   0  0  0  0  0  0  0  0  0  0  0  0
   -6.4340   -0.5879   18.2726 H   0  0  0  0  0  0  0  0  0  0  0  0
   -4.9130   -0.0211   17.8988 H   0  0  0  0  0  0  0  0  0  0  0  0
 24 25  2  0  0  0
 24 26  2  0  0  0
 24 27  1  0  0  0
 24 18  1  0  0  0
 18 19  1  0  0  0
 18 23  2  0  0  0
 19 20  2  0  0  0
 20 21  1  0  0  0
 21 22  2  0  0  0
 21 16  1  0  0  0
 22 23  1  0  0  0
 16  1  1  0  0  0
  1  2  1  0  0  0
  1  6  1  0  0  0
  2  3  1  0  0  0
  2  7  1  0  0  0
  3  4  1  0  0  0
  3  8  1  0  0  0
  4  5  1  0  0  0
  4  9  1  0  0  0
  5 13  1  0  0  0
  5  6  1  0  0  0
 13 14  1  0  0  0
 27 28  1  0  0  0
 27 29  1  0  0  0
 16 17  1  0  0  0
  7 10  1  0  0  0
  8 11  1  0  0  0
  9 12  1  0  0  0
 14 15  1  0  0  0
M  END
> <minimizedAffinity>
-8.36852

$$$$
2HL4_BO1_A_264


 29 30  0  0  0  0  0  0  0  0999 V2000
   -2.4309    3.0744   11.8267 C   0  0  0  0  0  0  0  0  0  0  0  0
   -2.4128    2.4766   10.4187 C   0  0  0  0  0  0  0  0  0  0  0  0
   -0.9657    2.1843   10.0124 C   0  0  0  0  0  0  0  0  0  0  0  0
   -0.1851    3.4815   10.0244 C   0  0  0  0  0  0  0  0  0  0  0  0
   -0.2236    4.0790   11.4559 C   0  0  0  0  0  0  0  0  0  0  0  0
   -1.6133    4.3043   11.8580 O   0  0  0  0  0  0  0  0  0  0  0  0
   -3.1977    1.2792   10.4460 O   0  0  0  0  0  0  0  0  0  0  0  0
   -0.9578    1.6247    8.6993 O   0  0  0  0  0  0  0  0  0  0  0  0
    1.1736    3.2342    9.6463 O   0  0  0  0  0  0  0  0  0  0  0  0
   -2.8261    0.6639   11.0973 H   0  0  0  0  0  0  0  0  0  0  0  0
   -1.3630    2.2504    8.0787 H   0  0  0  0  0  0  0  0  0  0  0  0
    1.5750    2.6111   10.2720 H   0  0  0  0  0  0  0  0  0  0  0  0
    0.5059    5.3878   11.5649 C   0  0  0  0  0  0  0  0  0  0  0  0
    1.8647    5.1740   11.9293 O   0  0  0  0  0  0  0  0  0  0  0  0
    1.9024    4.7281   12.7900 H   0  0  0  0  0  0  0  0  0  0  0  0
   -3.7584    3.3684   12.2312 N   0  0  0  0  0  0  0  0  0  0  0  0
   -4.2734    3.9811   11.6579 H   0  0  0  0  0  0  0  0  0  0  0  0
   -5.6478    1.7800   15.6623 C   0  0  0  0  0  0  0  0  0  0  0  0
   -6.0378    3.0579   15.1876 C   0  0  0  0  0  0  0  0  0  0  0  0
   -5.4293    3.5985   14.0595 C   0  0  0  0  0  0  0  0  0  0  0  0
   -4.4013    2.8737   13.3602 C   0  0  0  0  0  0  0  0  0  0  0  0
   -4.0299    1.5977   13.8566 C   0  0  0  0  0  0  0  0  0  0  0  0
   -4.6397    1.0642   14.9801 C   0  0  0  0  0  0  0  0  0  0  0  0
   -6.3919    1.0735   17.0860 S   0  0  0  0  0  0  0  0  0  0  0  0
   -7.8015    1.0279   16.8167 O   0  0  0  0  0  0  0  0  0  0  0  0
   -5.7051   -0.1561   17.3662 O   0  0  0  0  0  0  0  0  0  0  0  0
   -6.1746    2.0666   18.3205 N   0  0  0  0  0  0  0  0  0  0  0  0
   -6.6025    1.6686   19.1564 H   0  0  0  0  0  0  0  0  0  0  0  0
   -6.6070    2.9668   18.1129 H   0  0  0  0  0  0  0  0  0  0  0  0
 24 25  2  0  0  0
 24 26  2  0  0  0
 24 27  1  0  0  0
 24 18  1  0  0  0
 18 19  1  0  0  0
 18 23  2  0  0  0
 19 20  2  0  0  0
 20 21  1  0  0  0
 21 22  2  0  0  0
 21 16  1  0  0  0
 22 23  1  0  0  0
 16  1  1  0  0  0
  1  2  1  0  0  0
  1  6  1  0  0  0
  2  3  1  0  0  0
  2  7  1  0  0  0
  3  4  1  0  0  0
  3  8  1  0  0  0
  4  5  1  0  0  0
  4  9  1  0  0  0
  5 13  1  0  0  0
  5  6  1  0  0  0
 13 14  1  0  0  0
 27 28  1  0  0  0
 27 29  1  0  0  0
 16 17  1  0  0  0
  7 10  1  0  0  0
  8 11  1  0  0  0
  9 12  1  0  0  0
 14 15  1  0  0  0
M  END
> <minimizedAffinity>
-7.97629

$$$$
2HL4_BO1_A_264


 29 30  0  0  0  0  0  0  0  0999 V2000
   -2.9205    4.1814   12.0343 C   0  0  0  0  0  0  0  0  0  0  0  0
   -3.4340    4.4365   10.6160 C   0  0  0  0  0  0  0  0  0  0  0  0
   -2.4161    3.8998    9.6059 C   0  0  0  0  0  0  0  0  0  0  0  0
   -1.1013    4.6226    9.8086 C   0  0  0  0  0  0  0  0  0  0  0  0
   -0.6015    4.3624   11.2544 C   0  0  0  0  0  0  0  0  0  0  0  0
   -1.6048    4.8286   12.2134 O   0  0  0  0  0  0  0  0  0  0  0  0
   -4.6961    3.7726   10.4860 O   0  0  0  0  0  0  0  0  0  0  0  0
   -2.9037    4.1392    8.2859 O   0  0  0  0  0  0  0  0  0  0  0  0
   -0.1315    4.1380    8.8733 O   0  0  0  0  0  0  0  0  0  0  0  0
   -4.5818    2.8246   10.6566 H   0  0  0  0  0  0  0  0  0  0  0  0
   -3.0365    5.0916    8.1581 H   0  0  0  0  0  0  0  0  0  0  0  0
    0.0001    3.1864    9.0079 H   0  0  0  0  0  0  0  0  0  0  0  0
    0.6914    5.0625   11.5627 C   0  0  0  0  0  0  0  0  0  0  0  0
    1.7965    4.1956   11.3338 O   0  0  0  0  0  0  0  0  0  0  0  0
    1.7224    3.4184   11.9096 H   0  0  0  0  0  0  0  0  0  0  0  0
   -3.8361    4.6775   12.9975 N   0  0  0  0  0  0  0  0  0  0  0  0
   -4.0251    5.6435   12.9764 H   0  0  0  0  0  0  0  0  0  0  0  0
   -5.7369    2.3599   15.9777 C   0  0  0  0  0  0  0  0  0  0  0  0
   -6.5005    3.3019   15.2428 C   0  0  0  0  0  0  0  0  0  0  0  0
   -5.8946    4.0740   14.2570 C   0  0  0  0  0  0  0  0  0  0  0  0
   -4.4920    3.9294   13.9685 C   0  0  0  0  0  0  0  0  0  0  0  0
   -3.7514    2.9802   14.7188 C   0  0  0  0  0  0  0  0  0  0  0  0
   -4.3603    2.2137   15.6989 C   0  0  0  0  0  0  0  0  0  0  0  0
   -6.4706    1.3756   17.2316 S   0  0  0  0  0  0  0  0  0  0  0  0
   -6.2443    2.0717   18.4669 O   0  0  0  0  0  0  0  0  0  0  0  0
   -7.8234    1.1061   16.8319 O   0  0  0  0  0  0  0  0  0  0  0  0
   -5.6822   -0.0132   17.3159 N   0  0  0  0  0  0  0  0  0  0  0  0
   -6.0981   -0.5968   18.0417 H   0  0  0  0  0  0  0  0  0  0  0  0
   -4.7035    0.1647   17.5419 H   0  0  0  0  0  0  0  0  0  0  0  0
 24 25  2  0  0  0
 24 26  2  0  0  0
 24 27  1  0  0  0
 24 18  1  0  0  0
 18 19  1  0  0  0
 18 23  2  0  0  0
 19 20  2  0  0  0
 20 21  1  0  0  0
 21 22  2  0  0  0
 21 16  1  0  0  0
 22 23  1  0  0  0
 16  1  1  0  0  0
  1  2  1  0  0  0
  1  6  1  0  0  0
  2  3  1  0  0  0
  2  7  1  0  0  0
  3  4  1  0  0  0
  3  8  1  0  0  0
  4  5  1  0  0  0
  4  9  1  0  0  0
  5 13  1  0  0  0
  5  6  1  0  0  0
 13 14  1  0  0  0
 27 28  1  0  0  0
 27 29  1  0  0  0
 16 17  1  0  0  0
  7 10  1  0  0  0
  8 11  1  0  0  0
  9 12  1  0  0  0
 14 15  1  0  0  0
M  END
> <minimizedAffinity>
-7.91876

$$$$
2HL4_BO1_A_264


 29 30  0  0  0  0  0  0  0  0999 V2000
   -2.7624    4.9658   12.4347 C   0  0  0  0  0  0  0  0  0  0  0  0
   -2.6728    3.5740   11.8060 C   0  0  0  0  0  0  0  0  0  0  0  0
   -2.6236    3.7104   10.2817 C   0  0  0  0  0  0  0  0  0  0  0  0
   -3.8876    4.3997    9.8134 C   0  0  0  0  0  0  0  0  0  0  0  0
   -3.9677    5.8038   10.4691 C   0  0  0  0  0  0  0  0  0  0  0  0
   -3.9589    5.6674   11.9269 O   0  0  0  0  0  0  0  0  0  0  0  0
   -1.4893    2.9457   12.3109 O   0  0  0  0  0  0  0  0  0  0  0  0
   -2.5375    2.4083    9.7032 O   0  0  0  0  0  0  0  0  0  0  0  0
   -3.8658    4.5384    8.3886 O   0  0  0  0  0  0  0  0  0  0  0  0
   -0.7156    3.4863   12.0871 H   0  0  0  0  0  0  0  0  0  0  0  0
   -3.3086    1.8840    9.9707 H   0  0  0  0  0  0  0  0  0  0  0  0
   -3.0953    5.0663    8.1268 H   0  0  0  0  0  0  0  0  0  0  0  0
   -5.2070    6.5608   10.0843 C   0  0  0  0  0  0  0  0  0  0  0  0
   -6.1441    5.6972    9.4509 O   0  0  0  0  0  0  0  0  0  0  0  0
   -5.7487    5.3250    8.6472 H   0  0  0  0  0  0  0  0  0  0  0  0
   -2.8212    4.8758   13.8492 N   0  0  0  0  0  0  0  0  0  0  0  0
   -2.1863    5.4305   14.3576 H   0  0  0  0  0  0  0  0  0  0  0  0
   -5.3797    2.3967   16.1238 C   0  0  0  0  0  0  0  0  0  0  0  0
   -5.9287    3.5034   15.4279 C   0  0  0  0  0  0  0  0  0  0  0  0
   -5.1044    4.3314   14.6729 C   0  0  0  0  0  0  0  0  0  0  0  0
   -3.6901    4.0789   14.5857 C   0  0  0  0  0  0  0  0  0  0  0  0
   -3.1670    2.9654   15.2919 C   0  0  0  0  0  0  0  0  0  0  0  0
   -3.9928    2.1442   16.0419 C   0  0  0  0  0  0  0  0  0  0  0  0
   -6.3921    1.3376   17.0897 S   0  0  0  0  0  0  0  0  0  0  0  0
   -6.3871    1.8847   18.4172 O   0  0  0  0  0  0  0  0  0  0  0  0
   -7.6481    1.2010   16.4068 O   0  0  0  0  0  0  0  0  0  0  0  0
   -5.6984   -0.1013   17.1647 N   0  0  0  0  0  0  0  0  0  0  0  0
   -6.2764   -0.7287   17.7239 H   0  0  0  0  0  0  0  0  0  0  0  0
   -4.7779   -0.0129   17.5952 H   0  0  0  0  0  0  0  0  0  0  0  0
 24 25  2  0  0  0
 24 26  2  0  0  0
 24 27  1  0  0  0
 24 18  1  0  0  0
 18 19  1  0  0  0
 18 23  2  0  0  0
 19 20  2  0  0  0
 20 21  1  0  0  0
 21 22  2  0  0  0
 21 16  1  0  0  0
 22 23  1  0  0  0
 16  1  1  0  0  0
  1  2  1  0  0  0
  1  6  1  0  0  0
  2  3  1  0  0  0
  2  7  1  0  0  0
  3  4  1  0  0  0
  3  8  1  0  0  0
  4  5  1  0  0  0
  4  9  1  0  0  0
  5 13  1  0  0  0
  5  6  1  0  0  0
 13 14  1  0  0  0
 27 28  1  0  0  0
 27 29  1  0  0  0
 16 17  1  0  0  0
  7 10  1  0  0  0
  8 11  1  0  0  0
  9 12  1  0  0  0
 14 15  1  0  0  0
M  END
> <minimizedAffinity>
-7.91508

$$$$
2HL4_BO1_A_264


 29 30  0  0  0  0  0  0  0  0999 V2000
   -3.6089    4.1028   11.5389 C   0  0  0  0  0  0  0  0  0  0  0  0
   -3.9915    5.0828   10.4282 C   0  0  0  0  0  0  0  0  0  0  0  0
   -3.5358    4.5203    9.0790 C   0  0  0  0  0  0  0  0  0  0  0  0
   -2.0322    4.3453    9.1071 C   0  0  0  0  0  0  0  0  0  0  0  0
   -1.6616    3.3582   10.2457 C   0  0  0  0  0  0  0  0  0  0  0  0
   -2.1491    3.8770   11.5250 O   0  0  0  0  0  0  0  0  0  0  0  0
   -5.4130    5.2505   10.4688 O   0  0  0  0  0  0  0  0  0  0  0  0
   -3.8987    5.4389    8.0484 O   0  0  0  0  0  0  0  0  0  0  0  0
   -1.5808    3.8203    7.8539 O   0  0  0  0  0  0  0  0  0  0  0  0
   -5.8437    4.3900   10.3464 H   0  0  0  0  0  0  0  0  0  0  0  0
   -3.4775    6.2963    8.2164 H   0  0  0  0  0  0  0  0  0  0  0  0
   -2.0019    2.9615    7.6926 H   0  0  0  0  0  0  0  0  0  0  0  0
   -0.1809    3.1376   10.3716 C   0  0  0  0  0  0  0  0  0  0  0  0
    0.3015    2.3512    9.2882 O   0  0  0  0  0  0  0  0  0  0  0  0
   -0.1399    1.4875    9.2939 H   0  0  0  0  0  0  0  0  0  0  0  0
   -4.0072    4.5991   12.8067 N   0  0  0  0  0  0  0  0  0  0  0  0
   -3.9468    5.5723   12.9431 H   0  0  0  0  0  0  0  0  0  0  0  0
   -5.5272    2.3317   16.0338 C   0  0  0  0  0  0  0  0  0  0  0  0
   -4.1552    2.2176   15.6944 C   0  0  0  0  0  0  0  0  0  0  0  0
   -3.6346    2.9556   14.6364 C   0  0  0  0  0  0  0  0  0  0  0  0
   -4.4747    3.8420   13.8748 C   0  0  0  0  0  0  0  0  0  0  0  0
   -5.8434    3.9370   14.2352 C   0  0  0  0  0  0  0  0  0  0  0  0
   -6.3561    3.1999   15.2900 C   0  0  0  0  0  0  0  0  0  0  0  0
   -6.2153    1.4095   17.3587 S   0  0  0  0  0  0  0  0  0  0  0  0
   -5.4355    0.2076   17.4537 O   0  0  0  0  0  0  0  0  0  0  0  0
   -6.2814    2.2783   18.5002 O   0  0  0  0  0  0  0  0  0  0  0  0
   -7.7042    0.9814   16.9623 N   0  0  0  0  0  0  0  0  0  0  0  0
   -8.1176    0.4437   17.7242 H   0  0  0  0  0  0  0  0  0  0  0  0
   -7.6803    0.4106   16.1173 H   0  0  0  0  0  0  0  0  0  0  0  0
 24 25  2  0  0  0
 24 26  2  0  0  0
 24 27  1  0  0  0
 24 18  1  0  0  0
 18 19  1  0  0  0
 18 23  2  0  0  0
 19 20  2  0  0  0
 20 21  1  0  0  0
 21 22  2  0  0  0
 21 16  1  0  0  0
 22 23  1  0  0  0
 16  1  1  0  0  0
  1  2  1  0  0  0
  1  6  1  0  0  0
  2  3  1  0  0  0
  2  7  1  0  0  0
  3  4  1  0  0  0
  3  8  1  0  0  0
  4  5  1  0  0  0
  4  9  1  0  0  0
  5 13  1  0  0  0
  5  6  1  0  0  0
 13 14  1  0  0  0
 27 28  1  0  0  0
 27 29  1  0  0  0
 16 17  1  0  0  0
  7 10  1  0  0  0
  8 11  1  0  0  0
  9 12  1  0  0  0
 14 15  1  0  0  0
M  END
> <minimizedAffinity>
-7.63684

$$$$
2HL4_BO1_A_264


 29 30  0  0  0  0  0  0  0  0999 V2000
   -4.7237    4.7897   13.6513 C   0  0  0  0  0  0  0  0  0  0  0  0
   -3.3162    4.9194   14.2366 C   0  0  0  0  0  0  0  0  0  0  0  0
   -2.7761    3.5253   14.5672 C   0  0  0  0  0  0  0  0  0  0  0  0
   -3.6919    2.8766   15.5835 C   0  0  0  0  0  0  0  0  0  0  0  0
   -5.1161    2.7637   14.9779 C   0  0  0  0  0  0  0  0  0  0  0  0
   -5.6032    4.0956   14.6139 O   0  0  0  0  0  0  0  0  0  0  0  0
   -2.4997    5.5759   13.2606 O   0  0  0  0  0  0  0  0  0  0  0  0
   -1.4623    3.6548   15.1100 O   0  0  0  0  0  0  0  0  0  0  0  0
   -3.2066    1.5698   15.9101 O   0  0  0  0  0  0  0  0  0  0  0  0
   -2.4963    5.0579   12.4405 H   0  0  0  0  0  0  0  0  0  0  0  0
   -1.4955    4.2026   15.9098 H   0  0  0  0  0  0  0  0  0  0  0  0
   -3.1790    1.0253   15.1079 H   0  0  0  0  0  0  0  0  0  0  0  0
   -6.1092    2.1525   15.9251 C   0  0  0  0  0  0  0  0  0  0  0  0
   -5.8374    0.7679   16.1097 O   0  0  0  0  0  0  0  0  0  0  0  0
   -5.9023    0.3092   15.2575 H   0  0  0  0  0  0  0  0  0  0  0  0
   -5.2598    6.0665   13.3434 N   0  0  0  0  0  0  0  0  0  0  0  0
   -5.2571    6.7365   14.0647 H   0  0  0  0  0  0  0  0  0  0  0  0
   -6.7936    7.2096    9.5742 C   0  0  0  0  0  0  0  0  0  0  0  0
   -7.4715    7.6204   10.7499 C   0  0  0  0  0  0  0  0  0  0  0  0
   -6.9830    7.2558   12.0003 C   0  0  0  0  0  0  0  0  0  0  0  0
   -5.7888    6.4615   12.1200 C   0  0  0  0  0  0  0  0  0  0  0  0
   -5.1305    6.0637   10.9280 C   0  0  0  0  0  0  0  0  0  0  0  0
   -5.6213    6.4302    9.6856 C   0  0  0  0  0  0  0  0  0  0  0  0
   -7.3879    7.6480    7.9823 S   0  0  0  0  0  0  0  0  0  0  0  0
   -6.7364    8.8809    7.6404 O   0  0  0  0  0  0  0  0  0  0  0  0
   -7.2023    6.5112    7.1247 O   0  0  0  0  0  0  0  0  0  0  0  0
   -8.9546    7.9504    8.0889 N   0  0  0  0  0  0  0  0  0  0  0  0
   -9.3146    8.2071    7.1696 H   0  0  0  0  0  0  0  0  0  0  0  0
   -9.1088    8.7193    8.7412 H   0  0  0  0  0  0  0  0  0  0  0  0
 24 25  2  0  0  0
 24 26  2  0  0  0
 24 27  1  0  0  0
 24 18  1  0  0  0
 18 19  1  0  0  0
 18 23  2  0  0  0
 19 20  2  0  0  0
 20 21  1  0  0  0
 21 22  2  0  0  0
 21 16  1  0  0  0
 22 23  1  0  0  0
 16  1  1  0  0  0
  1  2  1  0  0  0
  1  6  1  0  0  0
  2  3  1  0  0  0
  2  7  1  0  0  0
  3  4  1  0  0  0
  3  8  1  0  0  0
  4  5  1  0  0  0
  4  9  1  0  0  0
  5 13  1  0  0  0
  5  6  1  0  0  0
 13 14  1  0  0  0
 27 28  1  0  0  0
 27 29  1  0  0  0
 16 17  1  0  0  0
  7 10  1  0  0  0
  8 11  1  0  0  0
  9 12  1  0  0  0
 14 15  1  0  0  0
M  END
> <minimizedAffinity>
-7.33685

$$$$
2HL4_BO1_A_264


 29 30  0  0  0  0  0  0  0  0999 V2000
   -5.0297    6.2598   12.4008 C   0  0  0  0  0  0  0  0  0  0  0  0
   -3.9148    7.2858   12.1895 C   0  0  0  0  0  0  0  0  0  0  0  0
   -4.5361    8.6500   11.8775 C   0  0  0  0  0  0  0  0  0  0  0  0
   -5.3639    8.5310   10.6154 C   0  0  0  0  0  0  0  0  0  0  0  0
   -6.4815    7.4791   10.8437 C   0  0  0  0  0  0  0  0  0  0  0  0
   -5.8806    6.1910   11.1953 O   0  0  0  0  0  0  0  0  0  0  0  0
   -3.1346    7.3314   13.3893 O   0  0  0  0  0  0  0  0  0  0  0  0
   -3.4899    9.6017   11.6844 O   0  0  0  0  0  0  0  0  0  0  0  0
   -5.9557    9.7964   10.3016 O   0  0  0  0  0  0  0  0  0  0  0  0
   -3.7037    7.5750   14.1361 H   0  0  0  0  0  0  0  0  0  0  0  0
   -2.9220    9.3139   10.9525 H   0  0  0  0  0  0  0  0  0  0  0  0
   -6.5252   10.0777   11.0347 H   0  0  0  0  0  0  0  0  0  0  0  0
   -7.3457    7.2695    9.6329 C   0  0  0  0  0  0  0  0  0  0  0  0
   -6.9645    6.0831    8.9457 O   0  0  0  0  0  0  0  0  0  0  0  0
   -6.0420    6.1595    8.6559 H   0  0  0  0  0  0  0  0  0  0  0  0
   -4.4880    4.9791   12.6814 N   0  0  0  0  0  0  0  0  0  0  0  0
   -3.7376    4.6799   12.1188 H   0  0  0  0  0  0  0  0  0  0  0  0
   -5.7083    2.2610   15.6795 C   0  0  0  0  0  0  0  0  0  0  0  0
   -6.3966    3.4930   15.5417 C   0  0  0  0  0  0  0  0  0  0  0  0
   -6.0117    4.4013   14.5609 C   0  0  0  0  0  0  0  0  0  0  0  0
   -4.9161    4.1065   13.6753 C   0  0  0  0  0  0  0  0  0  0  0  0
   -4.2445    2.8672   13.8352 C   0  0  0  0  0  0  0  0  0  0  0  0
   -4.6327    1.9665   14.8134 C   0  0  0  0  0  0  0  0  0  0  0  0
   -6.1658    1.0973   16.9108 S   0  0  0  0  0  0  0  0  0  0  0  0
   -7.5962    0.9912   16.8456 O   0  0  0  0  0  0  0  0  0  0  0  0
   -5.3783   -0.0850   16.7005 O   0  0  0  0  0  0  0  0  0  0  0  0
   -5.7976    1.7015   18.3449 N   0  0  0  0  0  0  0  0  0  0  0  0
   -6.0583    1.0351   19.0717 H   0  0  0  0  0  0  0  0  0  0  0  0
   -6.3053    2.5748   18.4864 H   0  0  0  0  0  0  0  0  0  0  0  0
 24 25  2  0  0  0
 24 26  2  0  0  0
 24 27  1  0  0  0
 24 18  1  0  0  0
 18 19  1  0  0  0
 18 23  2  0  0  0
 19 20  2  0  0  0
 20 21  1  0  0  0
 21 22  2  0  0  0
 21 16  1  0  0  0
 22 23  1  0  0  0
 16  1  1  0  0  0
  1  2  1  0  0  0
  1  6  1  0  0  0
  2  3  1  0  0  0
  2  7  1  0  0  0
  3  4  1  0  0  0
  3  8  1  0  0  0
  4  5  1  0  0  0
  4  9  1  0  0  0
  5 13  1  0  0  0
  5  6  1  0  0  0
 13 14  1  0  0  0
 27 28  1  0  0  0
 27 29  1  0  0  0
 16 17  1  0  0  0
  7 10  1  0  0  0
  8 11  1  0  0  0
  9 12  1  0  0  0
 14 15  1  0  0  0
M  END
> <minimizedAffinity>
-7.11391

$$$$
2HL4_BO1_A_264


 29 30  0  0  0  0  0  0  0  0999 V2000
   -4.5211    5.0172   11.7666 C   0  0  0  0  0  0  0  0  0  0  0  0
   -5.0543    6.3343   11.1998 C   0  0  0  0  0  0  0  0  0  0  0  0
   -5.2631    6.1870    9.6901 C   0  0  0  0  0  0  0  0  0  0  0  0
   -3.9341    5.8563    9.0446 C   0  0  0  0  0  0  0  0  0  0  0  0
   -3.4032    4.5249    9.6390 C   0  0  0  0  0  0  0  0  0  0  0  0
   -3.2584    4.6568   11.0900 O   0  0  0  0  0  0  0  0  0  0  0  0
   -6.2855    6.6275   11.8695 O   0  0  0  0  0  0  0  0  0  0  0  0
   -5.7629    7.4186    9.1697 O   0  0  0  0  0  0  0  0  0  0  0  0
   -4.1032    5.7142    7.6300 O   0  0  0  0  0  0  0  0  0  0  0  0
   -6.9120    5.9008   11.7270 H   0  0  0  0  0  0  0  0  0  0  0  0
   -5.1289    8.1290    9.3553 H   0  0  0  0  0  0  0  0  0  0  0  0
   -4.7350    5.0005    7.4500 H   0  0  0  0  0  0  0  0  0  0  0  0
   -2.0692    4.1227    9.0772 C   0  0  0  0  0  0  0  0  0  0  0  0
   -1.8136    2.7462    9.3325 O   0  0  0  0  0  0  0  0  0  0  0  0
   -1.8036    2.5914   10.2900 H   0  0  0  0  0  0  0  0  0  0  0  0
   -4.3050    5.1222   13.1647 N   0  0  0  0  0  0  0  0  0  0  0  0
   -3.8158    5.9156   13.4815 H   0  0  0  0  0  0  0  0  0  0  0  0
   -5.6569    2.4012   16.1032 C   0  0  0  0  0  0  0  0  0  0  0  0
   -4.3776    2.2116   15.5218 C   0  0  0  0  0  0  0  0  0  0  0  0
   -3.9133    3.0961   14.5536 C   0  0  0  0  0  0  0  0  0  0  0  0
   -4.7185    4.2112   14.1300 C   0  0  0  0  0  0  0  0  0  0  0  0
   -5.9944    4.3774   14.7275 C   0  0  0  0  0  0  0  0  0  0  0  0
   -6.4512    3.4937   15.6914 C   0  0  0  0  0  0  0  0  0  0  0  0
   -6.2734    1.2996   17.3221 S   0  0  0  0  0  0  0  0  0  0  0  0
   -7.6271    1.0057   16.9441 O   0  0  0  0  0  0  0  0  0  0  0  0
   -5.3396    0.2143   17.4343 O   0  0  0  0  0  0  0  0  0  0  0  0
   -6.3262    2.0680   18.7235 N   0  0  0  0  0  0  0  0  0  0  0  0
   -6.6832    1.4392   19.4429 H   0  0  0  0  0  0  0  0  0  0  0  0
   -6.9412    2.8779   18.6443 H   0  0  0  0  0  0  0  0  0  0  0  0
 24 25  2  0  0  0
 24 26  2  0  0  0
 24 27  1  0  0  0
 24 18  1  0  0  0
 18 19  1  0  0  0
 18 23  2  0  0  0
 19 20  2  0  0  0
 20 21  1  0  0  0
 21 22  2  0  0  0
 21 16  1  0  0  0
 22 23  1  0  0  0
 16  1  1  0  0  0
  1  2  1  0  0  0
  1  6  1  0  0  0
  2  3  1  0  0  0
  2  7  1  0  0  0
  3  4  1  0  0  0
  3  8  1  0  0  0
  4  5  1  0  0  0
  4  9  1  0  0  0
  5 13  1  0  0  0
  5  6  1  0  0  0
 13 14  1  0  0  0
 27 28  1  0  0  0
 27 29  1  0  0  0
 16 17  1  0  0  0
  7 10  1  0  0  0
  8 11  1  0  0  0
  9 12  1  0  0  0
 14 15  1  0  0  0
M  END
> <minimizedAffinity>
-7.08291

$$$$
2HL4_BO1_A_264


 29 30  0  0  0  0  0  0  0  0999 V2000
   -3.3833    4.4076    9.5988 C   0  0  0  0  0  0  0  0  0  0  0  0
   -2.7160    5.5283   10.3982 C   0  0  0  0  0  0  0  0  0  0  0  0
   -1.5261    6.0754    9.6050 C   0  0  0  0  0  0  0  0  0  0  0  0
   -0.5353    4.9534    9.3775 C   0  0  0  0  0  0  0  0  0  0  0  0
   -1.2316    3.8217    8.5761 C   0  0  0  0  0  0  0  0  0  0  0  0
   -2.4002    3.3419    9.3162 O   0  0  0  0  0  0  0  0  0  0  0  0
   -3.7002    6.5431   10.6264 O   0  0  0  0  0  0  0  0  0  0  0  0
   -0.9110    7.1218   10.3561 O   0  0  0  0  0  0  0  0  0  0  0  0
    0.5890    5.4410    8.6371 O   0  0  0  0  0  0  0  0  0  0  0  0
   -4.0353    6.8658    9.7753 H   0  0  0  0  0  0  0  0  0  0  0  0
   -0.6153    6.7746   11.2122 H   0  0  0  0  0  0  0  0  0  0  0  0
    0.2883    5.7836    7.7808 H   0  0  0  0  0  0  0  0  0  0  0  0
   -0.3326    2.6455    8.3207 C   0  0  0  0  0  0  0  0  0  0  0  0
    0.3207    2.7791    7.0636 O   0  0  0  0  0  0  0  0  0  0  0  0
   -0.3427    2.8187    6.3570 H   0  0  0  0  0  0  0  0  0  0  0  0
   -4.4855    3.8692   10.3112 N   0  0  0  0  0  0  0  0  0  0  0  0
   -5.3757    3.9822    9.9063 H   0  0  0  0  0  0  0  0  0  0  0  0
   -4.3424    1.9147   14.0563 C   0  0  0  0  0  0  0  0  0  0  0  0
   -4.0945    1.1678   12.8769 C   0  0  0  0  0  0  0  0  0  0  0  0
   -4.1358    1.7919   11.6343 C   0  0  0  0  0  0  0  0  0  0  0  0
   -4.4281    3.1971   11.5268 C   0  0  0  0  0  0  0  0  0  0  0  0
   -4.6726    3.9205   12.7223 C   0  0  0  0  0  0  0  0  0  0  0  0
   -4.6297    3.2937   13.9568 C   0  0  0  0  0  0  0  0  0  0  0  0
   -4.3039    1.1552   15.6378 S   0  0  0  0  0  0  0  0  0  0  0  0
   -4.7260   -0.2024   15.4372 O   0  0  0  0  0  0  0  0  0  0  0  0
   -3.0044    1.3954   16.1999 O   0  0  0  0  0  0  0  0  0  0  0  0
   -5.3957    1.8611   16.5688 N   0  0  0  0  0  0  0  0  0  0  0  0
   -5.3849    1.4294   17.4929 H   0  0  0  0  0  0  0  0  0  0  0  0
   -6.3203    1.7502   16.1526 H   0  0  0  0  0  0  0  0  0  0  0  0
 24 25  2  0  0  0
 24 26  2  0  0  0
 24 27  1  0  0  0
 24 18  1  0  0  0
 18 19  1  0  0  0
 18 23  2  0  0  0
 19 20  2  0  0  0
 20 21  1  0  0  0
 21 22  2  0  0  0
 21 16  1  0  0  0
 22 23  1  0  0  0
 16  1  1  0  0  0
  1  2  1  0  0  0
  1  6  1  0  0  0
  2  3  1  0  0  0
  2  7  1  0  0  0
  3  4  1  0  0  0
  3  8  1  0  0  0
  4  5  1  0  0  0
  4  9  1  0  0  0
  5 13  1  0  0  0
  5  6  1  0  0  0
 13 14  1  0  0  0
 27 28  1  0  0  0
 27 29  1  0  0  0
 16 17  1  0  0  0
  7 10  1  0  0  0
  8 11  1  0  0  0
  9 12  1  0  0  0
 14 15  1  0  0  0
M  END
> <minimizedAffinity>
-7.04831

$$$$
2HL4_BO1_A_264


 29 30  0  0  0  0  0  0  0  0999 V2000
   -5.0184    1.9192   12.4701 C   0  0  0  0  0  0  0  0  0  0  0  0
   -4.1925    1.1778   13.5230 C   0  0  0  0  0  0  0  0  0  0  0  0
   -4.9432    1.1940   14.8574 C   0  0  0  0  0  0  0  0  0  0  0  0
   -5.1421    2.6321   15.2869 C   0  0  0  0  0  0  0  0  0  0  0  0
   -5.9710    3.3711   14.2031 C   0  0  0  0  0  0  0  0  0  0  0  0
   -5.2724    3.3036   12.9181 O   0  0  0  0  0  0  0  0  0  0  0  0
   -3.9930   -0.1604   13.0542 O   0  0  0  0  0  0  0  0  0  0  0  0
   -4.1675    0.4984   15.8332 O   0  0  0  0  0  0  0  0  0  0  0  0
   -5.8424    2.6738   16.5350 O   0  0  0  0  0  0  0  0  0  0  0  0
   -4.8536   -0.5857   12.9146 H   0  0  0  0  0  0  0  0  0  0  0  0
   -3.3035    0.9293   15.9265 H   0  0  0  0  0  0  0  0  0  0  0  0
   -6.7068    2.2452   16.4352 H   0  0  0  0  0  0  0  0  0  0  0  0
   -6.2011    4.8198   14.5274 C   0  0  0  0  0  0  0  0  0  0  0  0
   -6.8452    5.4788   13.4430 O   0  0  0  0  0  0  0  0  0  0  0  0
   -6.2845    5.4254   12.6532 H   0  0  0  0  0  0  0  0  0  0  0  0
   -4.3455    1.9331   11.2214 N   0  0  0  0  0  0  0  0  0  0  0  0
   -4.8133    1.5225   10.4587 H   0  0  0  0  0  0  0  0  0  0  0  0
   -0.4850    3.4714   10.4491 C   0  0  0  0  0  0  0  0  0  0  0  0
   -1.5610    4.3729   10.6496 C   0  0  0  0  0  0  0  0  0  0  0  0
   -2.8392    3.8875   10.9060 C   0  0  0  0  0  0  0  0  0  0  0  0
   -3.0882    2.4715   10.9723 C   0  0  0  0  0  0  0  0  0  0  0  0
   -1.9942    1.5919   10.7676 C   0  0  0  0  0  0  0  0  0  0  0  0
   -0.7235    2.0811   10.5131 C   0  0  0  0  0  0  0  0  0  0  0  0
    1.1374    4.0523   10.1177 S   0  0  0  0  0  0  0  0  0  0  0  0
    1.7095    3.1229    9.1847 O   0  0  0  0  0  0  0  0  0  0  0  0
    1.0315    5.4327    9.7360 O   0  0  0  0  0  0  0  0  0  0  0  0
    1.9951    3.9645   11.4645 N   0  0  0  0  0  0  0  0  0  0  0  0
    2.9420    4.2995   11.2869 H   0  0  0  0  0  0  0  0  0  0  0  0
    2.0310    2.9959   11.7821 H   0  0  0  0  0  0  0  0  0  0  0  0
 24 25  2  0  0  0
 24 26  2  0  0  0
 24 27  1  0  0  0
 24 18  1  0  0  0
 18 19  1  0  0  0
 18 23  2  0  0  0
 19 20  2  0  0  0
 20 21  1  0  0  0
 21 22  2  0  0  0
 21 16  1  0  0  0
 22 23  1  0  0  0
 16  1  1  0  0  0
  1  2  1  0  0  0
  1  6  1  0  0  0
  2  3  1  0  0  0
  2  7  1  0  0  0
  3  4  1  0  0  0
  3  8  1  0  0  0
  4  5  1  0  0  0
  4  9  1  0  0  0
  5 13  1  0  0  0
  5  6  1  0  0  0
 13 14  1  0  0  0
 27 28  1  0  0  0
 27 29  1  0  0  0
 16 17  1  0  0  0
  7 10  1  0  0  0
  8 11  1  0  0  0
  9 12  1  0  0  0
 14 15  1  0  0  0
M  END
> <minimizedAffinity>
-6.97913

$$$$
