3TFU_PL8_A_501


 33 34  0  0  0  0  0  0  0  0999 V2000
   14.7089   -6.9947  -34.1252 C   0  0  0  0  0  0  0  0  0  0  0  0
   15.6880   -8.0406  -31.7954 O   0  0  0  0  0  0  0  0  0  0  0  0
   16.4004   -4.1030  -32.6486 C   0  0  0  0  0  0  0  0  0  0  0  0
   15.6653   -4.9113  -33.5300 N   0  0  0  0  0  0  0  0  0  0  0  0
   15.4390   -6.1995  -33.2413 C   0  0  0  0  0  0  0  0  0  0  0  0
   16.9037   -4.6362  -31.4693 C   0  0  0  0  0  0  0  0  0  0  0  0
   15.9359   -6.7303  -32.0577 C   0  0  0  0  0  0  0  0  0  0  0  0
   16.6694   -5.9613  -31.1555 C   0  0  0  0  0  0  0  0  0  0  0  0
   15.1946   -8.5550  -32.4036 H   0  0  0  0  0  0  0  0  0  0  0  0
   17.2062   -6.3907  -29.9406 C   0  0  0  0  0  0  0  0  0  0  0  0
   17.4057   -7.8352  -29.7899 N   0  0  0  0  0  0  0  0  0  0  0  0
   16.6655   -8.4673  -29.9372 H   0  0  0  0  0  0  0  0  0  0  0  0
   17.7895  -10.3663  -29.0940 O   0  0  0  0  0  0  0  0  0  0  0  0
   20.9780   -7.8797  -29.1399 C   0  0  0  0  0  0  0  0  0  0  0  0
   19.7155   -7.4120  -29.4849 C   0  0  0  0  0  0  0  0  0  0  0  0
   20.0335  -10.0817  -28.7677 N   0  0  0  0  0  0  0  0  0  0  0  0
   21.1403   -9.2164  -28.7887 C   0  0  0  0  0  0  0  0  0  0  0  0
   18.6183   -8.2668  -29.4479 C   0  0  0  0  0  0  0  0  0  0  0  0
   18.7589   -9.6073  -29.1089 C   0  0  0  0  0  0  0  0  0  0  0  0
   20.1534  -11.0250  -28.5125 H   0  0  0  0  0  0  0  0  0  0  0  0
   22.3962   -9.6992  -28.4349 C   0  0  0  0  0  0  0  0  0  0  0  0
   22.2825  -10.7002  -27.2892 C   0  0  0  0  0  0  0  0  0  0  0  0
   22.7667  -12.9963  -26.6951 O   0  0  0  0  0  0  0  0  0  0  0  0
   22.6133  -12.1049  -27.8099 C   0  0  0  0  0  0  0  0  0  0  0  0
   22.9760  -13.8863  -27.0191 H   0  0  0  0  0  0  0  0  0  0  0  0
   17.6230   -3.8615  -30.5590 C   0  0  0  0  0  0  0  0  0  0  0  0
   16.7626   -3.0602  -29.7402 O   0  0  0  0  0  0  0  0  0  0  0  0
   15.3635   -0.9528  -30.5081 O   0  0  0  0  0  0  0  0  0  0  0  0
   17.8731   -1.1657  -31.0859 O   0  0  0  0  0  0  0  0  0  0  0  0
   17.1394   -0.7330  -28.6864 O   0  0  0  0  0  0  0  0  0  0  0  0
   16.7796   -1.4469  -29.9438 P   0  0  0  0  0  0  0  0  0  0  0  0
   18.7458   -1.4543  -30.7760 H   0  0  0  0  0  0  0  0  0  0  0  0
   17.9987   -1.0513  -28.3684 H   0  0  0  0  0  0  0  0  0  0  0  0
  2  7  1  0  0  0
 29 31  1  0  0  0
 30 31  1  0  0  0
 14 15  1  0  0  0
 15 18  2  0  0  0
  3  4  1  0  0  0
 24 22  1  0  0  0
 24 23  1  0  0  0
 21 17  1  0  0  0
 21 22  1  0  0  0
 10  8  1  0  0  0
 26  6  1  0  0  0
 26 27  1  0  0  0
 11 10  1  0  0  0
 16 19  1  0  0  0
 27 31  1  0  0  0
  5  1  1  0  0  0
  5  4  2  0  0  0
 17 14  2  0  0  0
 17 16  1  0  0  0
  6  3  2  0  0  0
  7  5  1  0  0  0
 18 11  1  0  0  0
  8  7  2  0  0  0
  8  6  1  0  0  0
 19 18  1  0  0  0
 19 13  2  0  0  0
 31 28  2  0  0  0
 23 25  1  0  0  0
  2  9  1  0  0  0
 29 32  1  0  0  0
 30 33  1  0  0  0
 11 12  1  0  0  0
 16 20  1  0  0  0
M  END
> <minimizedAffinity>
-9.96783

$$$$
3TFU_PL8_A_501


 33 34  0  0  0  0  0  0  0  0999 V2000
   22.3790  -11.5786  -27.7353 C   0  0  0  0  0  0  0  0  0  0  0  0
   20.3797   -9.8391  -28.4117 O   0  0  0  0  0  0  0  0  0  0  0  0
   24.2273   -8.4584  -28.2372 C   0  0  0  0  0  0  0  0  0  0  0  0
   23.9286   -9.8013  -27.9580 N   0  0  0  0  0  0  0  0  0  0  0  0
   22.6653  -10.2424  -28.0168 C   0  0  0  0  0  0  0  0  0  0  0  0
   23.2110   -7.5737  -28.5735 C   0  0  0  0  0  0  0  0  0  0  0  0
   21.6502   -9.3589  -28.3609 C   0  0  0  0  0  0  0  0  0  0  0  0
   21.9048   -8.0184  -28.6466 C   0  0  0  0  0  0  0  0  0  0  0  0
   20.2115  -10.7406  -28.2192 H   0  0  0  0  0  0  0  0  0  0  0  0
   20.9648   -7.0516  -29.0077 C   0  0  0  0  0  0  0  0  0  0  0  0
   19.8061   -7.5222  -29.7725 N   0  0  0  0  0  0  0  0  0  0  0  0
   19.6506   -8.4836  -29.9172 H   0  0  0  0  0  0  0  0  0  0  0  0
   17.4892   -7.0306  -28.5773 O   0  0  0  0  0  0  0  0  0  0  0  0
   18.4330   -4.9105  -31.8889 C   0  0  0  0  0  0  0  0  0  0  0  0
   19.3087   -5.8696  -31.3937 C   0  0  0  0  0  0  0  0  0  0  0  0
   16.8982   -5.4136  -30.0804 N   0  0  0  0  0  0  0  0  0  0  0  0
   17.2307   -4.6755  -31.2288 C   0  0  0  0  0  0  0  0  0  0  0  0
   18.9701   -6.6105  -30.2657 C   0  0  0  0  0  0  0  0  0  0  0  0
   17.7789   -6.3861  -29.5858 C   0  0  0  0  0  0  0  0  0  0  0  0
   16.0434   -5.2473  -29.6211 H   0  0  0  0  0  0  0  0  0  0  0  0
   16.3404   -3.7232  -31.7146 C   0  0  0  0  0  0  0  0  0  0  0  0
   16.9878   -2.3418  -31.7285 C   0  0  0  0  0  0  0  0  0  0  0  0
   18.3101   -2.0915  -29.7166 O   0  0  0  0  0  0  0  0  0  0  0  0
   17.0326   -1.7897  -30.2978 C   0  0  0  0  0  0  0  0  0  0  0  0
   18.3436   -1.7443  -28.8114 H   0  0  0  0  0  0  0  0  0  0  0  0
   23.4691   -6.2366  -28.8758 C   0  0  0  0  0  0  0  0  0  0  0  0
   24.4016   -5.6506  -27.9593 O   0  0  0  0  0  0  0  0  0  0  0  0
   23.4019   -4.5044  -25.7972 O   0  0  0  0  0  0  0  0  0  0  0  0
   22.8408   -3.6115  -28.1563 O   0  0  0  0  0  0  0  0  0  0  0  0
   25.1777   -3.3106  -27.1909 O   0  0  0  0  0  0  0  0  0  0  0  0
   24.0129   -4.2376  -27.2544 P   0  0  0  0  0  0  0  0  0  0  0  0
   23.1779   -3.4370  -29.0489 H   0  0  0  0  0  0  0  0  0  0  0  0
   25.5262   -3.1676  -28.0848 H   0  0  0  0  0  0  0  0  0  0  0  0
  2  7  1  0  0  0
 29 31  1  0  0  0
 30 31  1  0  0  0
 14 15  1  0  0  0
 15 18  2  0  0  0
  3  4  1  0  0  0
 24 22  1  0  0  0
 24 23  1  0  0  0
 21 17  1  0  0  0
 21 22  1  0  0  0
 10  8  1  0  0  0
 26  6  1  0  0  0
 26 27  1  0  0  0
 11 10  1  0  0  0
 16 19  1  0  0  0
 27 31  1  0  0  0
  5  1  1  0  0  0
  5  4  2  0  0  0
 17 14  2  0  0  0
 17 16  1  0  0  0
  6  3  2  0  0  0
  7  5  1  0  0  0
 18 11  1  0  0  0
  8  7  2  0  0  0
  8  6  1  0  0  0
 19 18  1  0  0  0
 19 13  2  0  0  0
 31 28  2  0  0  0
 23 25  1  0  0  0
  2  9  1  0  0  0
 29 32  1  0  0  0
 30 33  1  0  0  0
 11 12  1  0  0  0
 16 20  1  0  0  0
M  END
> <minimizedAffinity>
-9.92051

$$$$
3TFU_PL8_A_501


 33 34  0  0  0  0  0  0  0  0999 V2000
   22.5287  -11.6520  -27.7702 C   0  0  0  0  0  0  0  0  0  0  0  0
   20.5779   -9.9229  -28.5980 O   0  0  0  0  0  0  0  0  0  0  0  0
   24.3926   -8.5210  -28.1259 C   0  0  0  0  0  0  0  0  0  0  0  0
   24.0808   -9.8658  -27.8713 N   0  0  0  0  0  0  0  0  0  0  0  0
   22.8283  -10.3139  -28.0279 C   0  0  0  0  0  0  0  0  0  0  0  0
   23.4004   -7.6417  -28.5391 C   0  0  0  0  0  0  0  0  0  0  0  0
   21.8379   -9.4357  -28.4489 C   0  0  0  0  0  0  0  0  0  0  0  0
   22.1063   -8.0935  -28.7132 C   0  0  0  0  0  0  0  0  0  0  0  0
   20.4004  -10.8255  -28.4197 H   0  0  0  0  0  0  0  0  0  0  0  0
   21.1916   -7.1316  -29.1453 C   0  0  0  0  0  0  0  0  0  0  0  0
   19.7725   -7.4728  -29.0076 N   0  0  0  0  0  0  0  0  0  0  0  0
   19.4557   -8.0328  -28.2625 H   0  0  0  0  0  0  0  0  0  0  0  0
   17.1665   -7.9156  -28.7827 O   0  0  0  0  0  0  0  0  0  0  0  0
   18.4833   -5.7398  -31.9266 C   0  0  0  0  0  0  0  0  0  0  0  0
   19.3810   -6.2372  -30.9893 C   0  0  0  0  0  0  0  0  0  0  0  0
   16.6627   -6.7456  -30.6801 N   0  0  0  0  0  0  0  0  0  0  0  0
   17.1228   -5.9863  -31.7692 C   0  0  0  0  0  0  0  0  0  0  0  0
   18.9247   -7.0024  -29.9205 C   0  0  0  0  0  0  0  0  0  0  0  0
   17.5698   -7.2532  -29.7391 C   0  0  0  0  0  0  0  0  0  0  0  0
   15.6996   -6.9219  -30.5774 H   0  0  0  0  0  0  0  0  0  0  0  0
   16.2115   -5.5007  -32.7015 C   0  0  0  0  0  0  0  0  0  0  0  0
   16.0700   -6.4724  -33.8693 C   0  0  0  0  0  0  0  0  0  0  0  0
   14.8871   -8.3145  -32.8366 O   0  0  0  0  0  0  0  0  0  0  0  0
   14.7339   -7.2168  -33.7490 C   0  0  0  0  0  0  0  0  0  0  0  0
   14.0447   -8.7887  -32.7569 H   0  0  0  0  0  0  0  0  0  0  0  0
   23.6735   -6.3027  -28.8197 C   0  0  0  0  0  0  0  0  0  0  0  0
   24.4400   -5.6831  -27.7799 O   0  0  0  0  0  0  0  0  0  0  0  0
   25.2243   -3.2471  -27.1175 O   0  0  0  0  0  0  0  0  0  0  0  0
   23.4312   -4.4897  -25.7327 O   0  0  0  0  0  0  0  0  0  0  0  0
   22.8880   -3.6398  -28.0706 O   0  0  0  0  0  0  0  0  0  0  0  0
   23.9637   -4.2304  -27.2255 P   0  0  0  0  0  0  0  0  0  0  0  0
   22.6649   -5.0837  -25.7614 H   0  0  0  0  0  0  0  0  0  0  0  0
   22.1397   -4.2551  -28.1181 H   0  0  0  0  0  0  0  0  0  0  0  0
  2  7  1  0  0  0
 29 31  1  0  0  0
 30 31  1  0  0  0
 14 15  1  0  0  0
 15 18  2  0  0  0
  3  4  1  0  0  0
 24 22  1  0  0  0
 24 23  1  0  0  0
 21 17  1  0  0  0
 21 22  1  0  0  0
 10  8  1  0  0  0
 26  6  1  0  0  0
 26 27  1  0  0  0
 11 10  1  0  0  0
 16 19  1  0  0  0
 27 31  1  0  0  0
  5  1  1  0  0  0
  5  4  2  0  0  0
 17 14  2  0  0  0
 17 16  1  0  0  0
  6  3  2  0  0  0
  7  5  1  0  0  0
 18 11  1  0  0  0
  8  7  2  0  0  0
  8  6  1  0  0  0
 19 18  1  0  0  0
 19 13  2  0  0  0
 31 28  2  0  0  0
 23 25  1  0  0  0
  2  9  1  0  0  0
 29 32  1  0  0  0
 30 33  1  0  0  0
 11 12  1  0  0  0
 16 20  1  0  0  0
M  END
> <minimizedAffinity>
-9.53392

$$$$
3TFU_PL8_A_501


 33 34  0  0  0  0  0  0  0  0999 V2000
   23.9106   -3.7222  -28.3977 C   0  0  0  0  0  0  0  0  0  0  0  0
   21.4150   -3.9577  -29.4918 O   0  0  0  0  0  0  0  0  0  0  0  0
   23.2621   -7.3077  -28.0406 C   0  0  0  0  0  0  0  0  0  0  0  0
   23.8900   -6.0536  -27.9808 N   0  0  0  0  0  0  0  0  0  0  0  0
   23.2768   -4.9636  -28.4601 C   0  0  0  0  0  0  0  0  0  0  0  0
   21.9980   -7.4281  -28.6028 C   0  0  0  0  0  0  0  0  0  0  0  0
   22.0090   -5.0834  -29.0152 C   0  0  0  0  0  0  0  0  0  0  0  0
   21.3508   -6.3098  -29.0924 C   0  0  0  0  0  0  0  0  0  0  0  0
   21.8598   -3.1347  -29.4385 H   0  0  0  0  0  0  0  0  0  0  0  0
   20.0797   -6.5399  -29.6215 C   0  0  0  0  0  0  0  0  0  0  0  0
   19.0011   -5.6804  -29.1246 N   0  0  0  0  0  0  0  0  0  0  0  0
   18.9480   -5.4323  -28.1733 H   0  0  0  0  0  0  0  0  0  0  0  0
   18.7192   -3.0847  -29.5947 O   0  0  0  0  0  0  0  0  0  0  0  0
   16.3740   -5.6740  -31.6313 C   0  0  0  0  0  0  0  0  0  0  0  0
   17.3050   -6.1414  -30.7113 C   0  0  0  0  0  0  0  0  0  0  0  0
   17.0724   -3.4030  -31.1472 N   0  0  0  0  0  0  0  0  0  0  0  0
   16.2619   -4.3053  -31.8564 C   0  0  0  0  0  0  0  0  0  0  0  0
   18.0952   -5.2452  -29.9984 C   0  0  0  0  0  0  0  0  0  0  0  0
   18.0062   -3.8751  -30.2138 C   0  0  0  0  0  0  0  0  0  0  0  0
   16.9843   -2.4354  -31.3062 H   0  0  0  0  0  0  0  0  0  0  0  0
   15.3310   -3.8205  -32.7696 C   0  0  0  0  0  0  0  0  0  0  0  0
   15.5726   -2.3398  -33.0467 C   0  0  0  0  0  0  0  0  0  0  0  0
   14.7896   -1.2003  -31.0598 O   0  0  0  0  0  0  0  0  0  0  0  0
   14.4421   -1.5161  -32.4165 C   0  0  0  0  0  0  0  0  0  0  0  0
   14.0776   -0.6793  -30.6566 H   0  0  0  0  0  0  0  0  0  0  0  0
   21.3332   -8.6530  -28.6642 C   0  0  0  0  0  0  0  0  0  0  0  0
   21.8288   -9.5807  -27.6913 O   0  0  0  0  0  0  0  0  0  0  0  0
   22.6612  -11.9863  -26.9781 O   0  0  0  0  0  0  0  0  0  0  0  0
   23.9361  -10.6103  -28.7552 O   0  0  0  0  0  0  0  0  0  0  0  0
   21.6521  -11.5996  -29.2917 O   0  0  0  0  0  0  0  0  0  0  0  0
   22.4712  -10.9812  -28.2115 P   0  0  0  0  0  0  0  0  0  0  0  0
   23.8578  -10.0006  -29.5056 H   0  0  0  0  0  0  0  0  0  0  0  0
   21.5537  -10.9704  -30.0234 H   0  0  0  0  0  0  0  0  0  0  0  0
  2  7  1  0  0  0
 29 31  1  0  0  0
 30 31  1  0  0  0
 14 15  1  0  0  0
 15 18  2  0  0  0
  3  4  1  0  0  0
 24 22  1  0  0  0
 24 23  1  0  0  0
 21 17  1  0  0  0
 21 22  1  0  0  0
 10  8  1  0  0  0
 26  6  1  0  0  0
 26 27  1  0  0  0
 11 10  1  0  0  0
 16 19  1  0  0  0
 27 31  1  0  0  0
  5  1  1  0  0  0
  5  4  2  0  0  0
 17 14  2  0  0  0
 17 16  1  0  0  0
  6  3  2  0  0  0
  7  5  1  0  0  0
 18 11  1  0  0  0
  8  7  2  0  0  0
  8  6  1  0  0  0
 19 18  1  0  0  0
 19 13  2  0  0  0
 31 28  2  0  0  0
 23 25  1  0  0  0
  2  9  1  0  0  0
 29 32  1  0  0  0
 30 33  1  0  0  0
 11 12  1  0  0  0
 16 20  1  0  0  0
M  END
> <minimizedAffinity>
-9.47961

$$$$
3TFU_PL8_A_501


 33 34  0  0  0  0  0  0  0  0999 V2000
   14.9964   -7.7737  -33.3069 C   0  0  0  0  0  0  0  0  0  0  0  0
   16.5127   -8.1405  -31.0603 O   0  0  0  0  0  0  0  0  0  0  0  0
   16.1420   -4.3687  -32.6019 C   0  0  0  0  0  0  0  0  0  0  0  0
   15.5039   -5.4623  -33.2080 N   0  0  0  0  0  0  0  0  0  0  0  0
   15.6331   -6.6931  -32.6956 C   0  0  0  0  0  0  0  0  0  0  0  0
   16.9177   -4.5563  -31.4655 C   0  0  0  0  0  0  0  0  0  0  0  0
   16.4027   -6.8790  -31.5543 C   0  0  0  0  0  0  0  0  0  0  0  0
   17.0514   -5.8195  -30.9218 C   0  0  0  0  0  0  0  0  0  0  0  0
   16.0755   -8.8506  -31.4875 H   0  0  0  0  0  0  0  0  0  0  0  0
   17.8398   -5.8939  -29.7722 C   0  0  0  0  0  0  0  0  0  0  0  0
   19.2802   -5.6920  -29.9549 N   0  0  0  0  0  0  0  0  0  0  0  0
   19.6289   -4.8649  -30.3595 H   0  0  0  0  0  0  0  0  0  0  0  0
   21.7615   -5.1298  -29.2030 O   0  0  0  0  0  0  0  0  0  0  0  0
   20.5340   -8.9801  -29.0594 C   0  0  0  0  0  0  0  0  0  0  0  0
   19.6692   -7.9811  -29.4906 C   0  0  0  0  0  0  0  0  0  0  0  0
   22.2562   -7.3076  -28.7179 N   0  0  0  0  0  0  0  0  0  0  0  0
   21.8255   -8.6440  -28.6650 C   0  0  0  0  0  0  0  0  0  0  0  0
   20.1030   -6.6608  -29.5574 C   0  0  0  0  0  0  0  0  0  0  0  0
   21.3854   -6.3015  -29.1600 C   0  0  0  0  0  0  0  0  0  0  0  0
   23.1730   -7.0768  -28.4434 H   0  0  0  0  0  0  0  0  0  0  0  0
   22.7056   -9.6326  -28.2364 C   0  0  0  0  0  0  0  0  0  0  0  0
   21.9497  -10.7537  -27.5296 C   0  0  0  0  0  0  0  0  0  0  0  0
   22.7841  -12.8729  -26.7101 O   0  0  0  0  0  0  0  0  0  0  0  0
   22.5787  -12.1021  -27.9036 C   0  0  0  0  0  0  0  0  0  0  0  0
   23.1819  -13.7269  -26.9412 H   0  0  0  0  0  0  0  0  0  0  0  0
   17.5525   -3.4928  -30.8236 C   0  0  0  0  0  0  0  0  0  0  0  0
   16.7043   -2.8715  -29.8503 O   0  0  0  0  0  0  0  0  0  0  0  0
   15.3984   -0.6418  -30.4080 O   0  0  0  0  0  0  0  0  0  0  0  0
   17.9718   -0.7617  -30.6088 O   0  0  0  0  0  0  0  0  0  0  0  0
   16.8588   -0.7979  -28.3190 O   0  0  0  0  0  0  0  0  0  0  0  0
   16.7179   -1.2497  -29.7319 P   0  0  0  0  0  0  0  0  0  0  0  0
   18.7906   -1.1133  -30.2258 H   0  0  0  0  0  0  0  0  0  0  0  0
   17.6638   -1.1801  -27.9361 H   0  0  0  0  0  0  0  0  0  0  0  0
  2  7  1  0  0  0
 29 31  1  0  0  0
 30 31  1  0  0  0
 14 15  1  0  0  0
 15 18  2  0  0  0
  3  4  1  0  0  0
 24 22  1  0  0  0
 24 23  1  0  0  0
 21 17  1  0  0  0
 21 22  1  0  0  0
 10  8  1  0  0  0
 26  6  1  0  0  0
 26 27  1  0  0  0
 11 10  1  0  0  0
 16 19  1  0  0  0
 27 31  1  0  0  0
  5  1  1  0  0  0
  5  4  2  0  0  0
 17 14  2  0  0  0
 17 16  1  0  0  0
  6  3  2  0  0  0
  7  5  1  0  0  0
 18 11  1  0  0  0
  8  7  2  0  0  0
  8  6  1  0  0  0
 19 18  1  0  0  0
 19 13  2  0  0  0
 31 28  2  0  0  0
 23 25  1  0  0  0
  2  9  1  0  0  0
 29 32  1  0  0  0
 30 33  1  0  0  0
 11 12  1  0  0  0
 16 20  1  0  0  0
M  END
> <minimizedAffinity>
-9.21969

$$$$
3TFU_PL8_A_501


 33 34  0  0  0  0  0  0  0  0999 V2000
   16.1466   -0.2197  -29.1559 C   0  0  0  0  0  0  0  0  0  0  0  0
   18.2324   -1.9562  -29.4947 O   0  0  0  0  0  0  0  0  0  0  0  0
   15.1031   -2.0864  -32.1274 C   0  0  0  0  0  0  0  0  0  0  0  0
   15.1159   -1.1681  -31.0658 N   0  0  0  0  0  0  0  0  0  0  0  0
   16.1448   -1.1349  -30.2089 C   0  0  0  0  0  0  0  0  0  0  0  0
   16.1588   -2.9729  -32.2949 C   0  0  0  0  0  0  0  0  0  0  0  0
   17.2043   -2.0166  -30.3816 C   0  0  0  0  0  0  0  0  0  0  0  0
   17.2305   -2.9427  -31.4233 C   0  0  0  0  0  0  0  0  0  0  0  0
   18.2120   -1.3327  -28.7956 H   0  0  0  0  0  0  0  0  0  0  0  0
   18.2435   -3.8650  -31.6910 C   0  0  0  0  0  0  0  0  0  0  0  0
   19.3971   -3.8477  -30.7865 N   0  0  0  0  0  0  0  0  0  0  0  0
   19.8407   -3.0022  -30.5468 H   0  0  0  0  0  0  0  0  0  0  0  0
   21.6452   -3.9726  -29.3835 O   0  0  0  0  0  0  0  0  0  0  0  0
   19.5419   -7.3790  -29.9531 C   0  0  0  0  0  0  0  0  0  0  0  0
   19.0890   -6.1755  -30.4805 C   0  0  0  0  0  0  0  0  0  0  0  0
   21.4568   -6.2209  -29.0195 N   0  0  0  0  0  0  0  0  0  0  0  0
   20.7217   -7.4022  -29.2154 C   0  0  0  0  0  0  0  0  0  0  0  0
   19.8270   -5.0100  -30.2989 C   0  0  0  0  0  0  0  0  0  0  0  0
   21.0030   -5.0086  -29.5582 C   0  0  0  0  0  0  0  0  0  0  0  0
   22.2939   -6.2446  -28.5019 H   0  0  0  0  0  0  0  0  0  0  0  0
   21.1920   -8.5995  -28.6857 C   0  0  0  0  0  0  0  0  0  0  0  0
   20.1561   -9.7061  -28.8588 C   0  0  0  0  0  0  0  0  0  0  0  0
   20.8168  -11.2607  -30.5924 O   0  0  0  0  0  0  0  0  0  0  0  0
   20.8727  -11.0246  -29.1775 C   0  0  0  0  0  0  0  0  0  0  0  0
   21.2688  -12.0937  -30.7993 H   0  0  0  0  0  0  0  0  0  0  0  0
   16.1921   -3.8877  -33.3475 C   0  0  0  0  0  0  0  0  0  0  0  0
   15.1576   -4.8726  -33.2341 O   0  0  0  0  0  0  0  0  0  0  0  0
   16.7311   -6.7217  -34.2795 O   0  0  0  0  0  0  0  0  0  0  0  0
   14.2774   -7.2537  -33.6682 O   0  0  0  0  0  0  0  0  0  0  0  0
   16.0041   -6.8720  -31.8362 O   0  0  0  0  0  0  0  0  0  0  0  0
   15.5814   -6.4422  -33.1989 P   0  0  0  0  0  0  0  0  0  0  0  0
   13.5589   -7.1061  -33.0336 H   0  0  0  0  0  0  0  0  0  0  0  0
   15.2906   -6.6913  -31.2044 H   0  0  0  0  0  0  0  0  0  0  0  0
  2  7  1  0  0  0
 29 31  1  0  0  0
 30 31  1  0  0  0
 14 15  1  0  0  0
 15 18  2  0  0  0
  3  4  1  0  0  0
 24 22  1  0  0  0
 24 23  1  0  0  0
 21 17  1  0  0  0
 21 22  1  0  0  0
 10  8  1  0  0  0
 26  6  1  0  0  0
 26 27  1  0  0  0
 11 10  1  0  0  0
 16 19  1  0  0  0
 27 31  1  0  0  0
  5  1  1  0  0  0
  5  4  2  0  0  0
 17 14  2  0  0  0
 17 16  1  0  0  0
  6  3  2  0  0  0
  7  5  1  0  0  0
 18 11  1  0  0  0
  8  7  2  0  0  0
  8  6  1  0  0  0
 19 18  1  0  0  0
 19 13  2  0  0  0
 31 28  2  0  0  0
 23 25  1  0  0  0
  2  9  1  0  0  0
 29 32  1  0  0  0
 30 33  1  0  0  0
 11 12  1  0  0  0
 16 20  1  0  0  0
M  END
> <minimizedAffinity>
-9.12704

$$$$
3TFU_PL8_A_501


 33 34  0  0  0  0  0  0  0  0999 V2000
   16.2324   -0.3004  -29.1518 C   0  0  0  0  0  0  0  0  0  0  0  0
   18.3304   -2.0179  -29.5109 O   0  0  0  0  0  0  0  0  0  0  0  0
   15.1843   -2.1656  -32.1226 C   0  0  0  0  0  0  0  0  0  0  0  0
   15.1966   -1.2509  -31.0579 N   0  0  0  0  0  0  0  0  0  0  0  0
   16.2311   -1.2120  -30.2080 C   0  0  0  0  0  0  0  0  0  0  0  0
   16.2463   -3.0425  -32.3004 C   0  0  0  0  0  0  0  0  0  0  0  0
   17.2967   -2.0840  -30.3910 C   0  0  0  0  0  0  0  0  0  0  0  0
   17.3237   -3.0062  -31.4361 C   0  0  0  0  0  0  0  0  0  0  0  0
   18.3095   -1.3970  -28.8095 H   0  0  0  0  0  0  0  0  0  0  0  0
   18.3426   -3.9190  -31.7140 C   0  0  0  0  0  0  0  0  0  0  0  0
   18.6006   -4.9392  -30.6934 N   0  0  0  0  0  0  0  0  0  0  0  0
   17.8792   -5.5249  -30.3683 H   0  0  0  0  0  0  0  0  0  0  0  0
   19.2645   -6.9659  -29.1155 O   0  0  0  0  0  0  0  0  0  0  0  0
   22.1157   -4.2655  -30.0801 C   0  0  0  0  0  0  0  0  0  0  0  0
   20.8223   -4.1292  -30.5704 C   0  0  0  0  0  0  0  0  0  0  0  0
   21.4374   -6.2847  -28.9216 N   0  0  0  0  0  0  0  0  0  0  0  0
   22.4271   -5.3472  -29.2619 C   0  0  0  0  0  0  0  0  0  0  0  0
   19.8401   -5.0499  -30.2190 C   0  0  0  0  0  0  0  0  0  0  0  0
   20.1311   -6.1424  -29.4107 C   0  0  0  0  0  0  0  0  0  0  0  0
   21.6621   -7.0446  -28.3373 H   0  0  0  0  0  0  0  0  0  0  0  0
   23.7153   -5.4950  -28.7579 C   0  0  0  0  0  0  0  0  0  0  0  0
   23.7260   -5.2921  -27.2458 C   0  0  0  0  0  0  0  0  0  0  0  0
   25.1993   -3.3727  -27.1789 O   0  0  0  0  0  0  0  0  0  0  0  0
   23.8485   -3.7943  -26.9372 C   0  0  0  0  0  0  0  0  0  0  0  0
   25.2821   -2.4259  -26.9852 H   0  0  0  0  0  0  0  0  0  0  0  0
   16.2801   -3.9534  -33.3565 C   0  0  0  0  0  0  0  0  0  0  0  0
   15.2728   -4.9637  -33.2249 O   0  0  0  0  0  0  0  0  0  0  0  0
   14.4835   -7.4780  -33.4337 O   0  0  0  0  0  0  0  0  0  0  0  0
   16.2097   -6.7699  -31.6460 O   0  0  0  0  0  0  0  0  0  0  0  0
   16.8524   -6.8051  -34.1096 O   0  0  0  0  0  0  0  0  0  0  0  0
   15.7391   -6.5203  -33.1611 P   0  0  0  0  0  0  0  0  0  0  0  0
   16.9715   -6.2035  -31.4466 H   0  0  0  0  0  0  0  0  0  0  0  0
   17.5968   -6.2123  -33.9217 H   0  0  0  0  0  0  0  0  0  0  0  0
  2  7  1  0  0  0
 29 31  1  0  0  0
 30 31  1  0  0  0
 14 15  1  0  0  0
 15 18  2  0  0  0
  3  4  1  0  0  0
 24 22  1  0  0  0
 24 23  1  0  0  0
 21 17  1  0  0  0
 21 22  1  0  0  0
 10  8  1  0  0  0
 26  6  1  0  0  0
 26 27  1  0  0  0
 11 10  1  0  0  0
 16 19  1  0  0  0
 27 31  1  0  0  0
  5  1  1  0  0  0
  5  4  2  0  0  0
 17 14  2  0  0  0
 17 16  1  0  0  0
  6  3  2  0  0  0
  7  5  1  0  0  0
 18 11  1  0  0  0
  8  7  2  0  0  0
  8  6  1  0  0  0
 19 18  1  0  0  0
 19 13  2  0  0  0
 31 28  2  0  0  0
 23 25  1  0  0  0
  2  9  1  0  0  0
 29 32  1  0  0  0
 30 33  1  0  0  0
 11 12  1  0  0  0
 16 20  1  0  0  0
M  END
> <minimizedAffinity>
-9.01304

$$$$
3TFU_PL8_A_501


 33 34  0  0  0  0  0  0  0  0999 V2000
   24.0980   -3.7831  -28.1691 C   0  0  0  0  0  0  0  0  0  0  0  0
   21.6038   -4.0115  -29.2680 O   0  0  0  0  0  0  0  0  0  0  0  0
   23.4673   -7.3775  -27.8760 C   0  0  0  0  0  0  0  0  0  0  0  0
   24.0890   -6.1216  -27.7938 N   0  0  0  0  0  0  0  0  0  0  0  0
   23.4704   -5.0263  -28.2538 C   0  0  0  0  0  0  0  0  0  0  0  0
   22.2040   -7.4943  -28.4406 C   0  0  0  0  0  0  0  0  0  0  0  0
   22.2034   -5.1425  -28.8113 C   0  0  0  0  0  0  0  0  0  0  0  0
   21.5513   -6.3707  -28.9105 C   0  0  0  0  0  0  0  0  0  0  0  0
   22.0445   -3.1874  -29.2000 H   0  0  0  0  0  0  0  0  0  0  0  0
   20.2815   -6.5976  -29.4439 C   0  0  0  0  0  0  0  0  0  0  0  0
   19.3509   -5.4652  -29.4171 N   0  0  0  0  0  0  0  0  0  0  0  0
   19.3561   -4.8222  -28.6717 H   0  0  0  0  0  0  0  0  0  0  0  0
   20.1617   -4.4702  -31.7390 O   0  0  0  0  0  0  0  0  0  0  0  0
   16.3003   -5.6164  -31.3810 C   0  0  0  0  0  0  0  0  0  0  0  0
   17.1757   -5.7470  -30.3093 C   0  0  0  0  0  0  0  0  0  0  0  0
   18.1058   -4.6947  -32.7115 N   0  0  0  0  0  0  0  0  0  0  0  0
   16.7657   -5.0978  -32.5856 C   0  0  0  0  0  0  0  0  0  0  0  0
   18.4982   -5.3323  -30.4314 C   0  0  0  0  0  0  0  0  0  0  0  0
   18.9863   -4.8201  -31.6276 C   0  0  0  0  0  0  0  0  0  0  0  0
   18.4278   -4.3228  -33.5643 H   0  0  0  0  0  0  0  0  0  0  0  0
   15.9012   -4.9548  -33.6662 C   0  0  0  0  0  0  0  0  0  0  0  0
   15.1162   -6.2422  -33.8988 C   0  0  0  0  0  0  0  0  0  0  0  0
   13.5048   -4.4745  -34.2699 O   0  0  0  0  0  0  0  0  0  0  0  0
   13.7013   -5.8925  -34.3777 C   0  0  0  0  0  0  0  0  0  0  0  0
   12.6112   -4.2480  -34.5716 H   0  0  0  0  0  0  0  0  0  0  0  0
   21.5453   -8.7212  -28.5239 C   0  0  0  0  0  0  0  0  0  0  0  0
   22.0332   -9.6578  -27.5557 O   0  0  0  0  0  0  0  0  0  0  0  0
   22.6698  -12.1038  -26.7810 O   0  0  0  0  0  0  0  0  0  0  0  0
   23.7949  -11.0264  -28.8427 O   0  0  0  0  0  0  0  0  0  0  0  0
   21.3499  -11.7312  -28.9351 O   0  0  0  0  0  0  0  0  0  0  0  0
   22.4047  -11.1618  -28.0500 P   0  0  0  0  0  0  0  0  0  0  0  0
   23.6699  -10.4601  -29.6202 H   0  0  0  0  0  0  0  0  0  0  0  0
   21.2108  -11.1418  -29.6928 H   0  0  0  0  0  0  0  0  0  0  0  0
  2  7  1  0  0  0
 29 31  1  0  0  0
 30 31  1  0  0  0
 14 15  1  0  0  0
 15 18  2  0  0  0
  3  4  1  0  0  0
 24 22  1  0  0  0
 24 23  1  0  0  0
 21 17  1  0  0  0
 21 22  1  0  0  0
 10  8  1  0  0  0
 26  6  1  0  0  0
 26 27  1  0  0  0
 11 10  1  0  0  0
 16 19  1  0  0  0
 27 31  1  0  0  0
  5  1  1  0  0  0
  5  4  2  0  0  0
 17 14  2  0  0  0
 17 16  1  0  0  0
  6  3  2  0  0  0
  7  5  1  0  0  0
 18 11  1  0  0  0
  8  7  2  0  0  0
  8  6  1  0  0  0
 19 18  1  0  0  0
 19 13  2  0  0  0
 31 28  2  0  0  0
 23 25  1  0  0  0
  2  9  1  0  0  0
 29 32  1  0  0  0
 30 33  1  0  0  0
 11 12  1  0  0  0
 16 20  1  0  0  0
M  END
> <minimizedAffinity>
-8.93506

$$$$
3TFU_PL8_A_501


 33 34  0  0  0  0  0  0  0  0999 V2000
   14.3056   -4.6730  -34.1878 C   0  0  0  0  0  0  0  0  0  0  0  0
   16.0013   -6.1229  -32.6056 O   0  0  0  0  0  0  0  0  0  0  0  0
   15.7212   -2.0829  -32.0219 C   0  0  0  0  0  0  0  0  0  0  0  0
   14.9624   -2.7235  -33.0140 N   0  0  0  0  0  0  0  0  0  0  0  0
   15.0628   -4.0465  -33.1975 C   0  0  0  0  0  0  0  0  0  0  0  0
   16.5875   -2.8182  -31.2236 C   0  0  0  0  0  0  0  0  0  0  0  0
   15.9236   -4.7826  -32.3934 C   0  0  0  0  0  0  0  0  0  0  0  0
   16.6935   -4.1850  -31.3966 C   0  0  0  0  0  0  0  0  0  0  0  0
   15.4826   -6.5218  -33.2763 H   0  0  0  0  0  0  0  0  0  0  0  0
   17.5805   -4.8289  -30.5323 C   0  0  0  0  0  0  0  0  0  0  0  0
   18.8507   -5.2735  -31.1137 N   0  0  0  0  0  0  0  0  0  0  0  0
   19.0703   -5.0867  -32.0551 H   0  0  0  0  0  0  0  0  0  0  0  0
   20.9174   -4.0323  -30.0062 O   0  0  0  0  0  0  0  0  0  0  0  0
   20.3833   -7.9615  -29.2134 C   0  0  0  0  0  0  0  0  0  0  0  0
   19.4988   -7.2845  -30.0447 C   0  0  0  0  0  0  0  0  0  0  0  0
   21.6412   -5.9092  -28.9215 N   0  0  0  0  0  0  0  0  0  0  0  0
   21.4507   -7.2734  -28.6444 C   0  0  0  0  0  0  0  0  0  0  0  0
   19.6986   -5.9375  -30.3305 C   0  0  0  0  0  0  0  0  0  0  0  0
   20.7526   -5.2288  -29.7661 C   0  0  0  0  0  0  0  0  0  0  0  0
   22.4017   -5.4291  -28.5210 H   0  0  0  0  0  0  0  0  0  0  0  0
   22.3486   -7.9375  -27.8148 C   0  0  0  0  0  0  0  0  0  0  0  0
   23.7596   -7.8733  -28.3915 C   0  0  0  0  0  0  0  0  0  0  0  0
   23.8201  -10.2466  -28.8634 O   0  0  0  0  0  0  0  0  0  0  0  0
   24.4757   -9.2039  -28.1260 C   0  0  0  0  0  0  0  0  0  0  0  0
   24.2693  -11.0905  -28.6989 H   0  0  0  0  0  0  0  0  0  0  0  0
   17.3447   -2.2218  -30.2151 C   0  0  0  0  0  0  0  0  0  0  0  0
   17.0917   -0.8150  -30.1164 O   0  0  0  0  0  0  0  0  0  0  0  0
   16.7562    1.1148  -28.3411 O   0  0  0  0  0  0  0  0  0  0  0  0
   16.3483   -1.3578  -27.7110 O   0  0  0  0  0  0  0  0  0  0  0  0
   14.7431   -0.1488  -29.2747 O   0  0  0  0  0  0  0  0  0  0  0  0
   16.1757   -0.2761  -28.8855 P   0  0  0  0  0  0  0  0  0  0  0  0
   16.0055   -2.2151  -28.0082 H   0  0  0  0  0  0  0  0  0  0  0  0
   14.4191   -1.0035  -29.5995 H   0  0  0  0  0  0  0  0  0  0  0  0
  2  7  1  0  0  0
 29 31  1  0  0  0
 30 31  1  0  0  0
 14 15  1  0  0  0
 15 18  2  0  0  0
  3  4  1  0  0  0
 24 22  1  0  0  0
 24 23  1  0  0  0
 21 17  1  0  0  0
 21 22  1  0  0  0
 10  8  1  0  0  0
 26  6  1  0  0  0
 26 27  1  0  0  0
 11 10  1  0  0  0
 16 19  1  0  0  0
 27 31  1  0  0  0
  5  1  1  0  0  0
  5  4  2  0  0  0
 17 14  2  0  0  0
 17 16  1  0  0  0
  6  3  2  0  0  0
  7  5  1  0  0  0
 18 11  1  0  0  0
  8  7  2  0  0  0
  8  6  1  0  0  0
 19 18  1  0  0  0
 19 13  2  0  0  0
 31 28  2  0  0  0
 23 25  1  0  0  0
  2  9  1  0  0  0
 29 32  1  0  0  0
 30 33  1  0  0  0
 11 12  1  0  0  0
 16 20  1  0  0  0
M  END
> <minimizedAffinity>
-8.66118

$$$$
3TFU_PL8_A_501


 33 34  0  0  0  0  0  0  0  0999 V2000
   24.9696   -2.5167  -27.1968 C   0  0  0  0  0  0  0  0  0  0  0  0
   23.7571   -2.8812  -29.6212 O   0  0  0  0  0  0  0  0  0  0  0  0
   23.4427   -5.8193  -26.7912 C   0  0  0  0  0  0  0  0  0  0  0  0
   24.1574   -4.6395  -26.5309 N   0  0  0  0  0  0  0  0  0  0  0  0
   24.2551   -3.6846  -27.4651 C   0  0  0  0  0  0  0  0  0  0  0  0
   22.8333   -6.0073  -28.0248 C   0  0  0  0  0  0  0  0  0  0  0  0
   23.6387   -3.8698  -28.6960 C   0  0  0  0  0  0  0  0  0  0  0  0
   22.9189   -5.0259  -28.9937 C   0  0  0  0  0  0  0  0  0  0  0  0
   24.2415   -2.1052  -29.4183 H   0  0  0  0  0  0  0  0  0  0  0  0
   22.2583   -5.3096  -30.1903 C   0  0  0  0  0  0  0  0  0  0  0  0
   21.2379   -4.3470  -30.6160 N   0  0  0  0  0  0  0  0  0  0  0  0
   21.4501   -3.3899  -30.7063 H   0  0  0  0  0  0  0  0  0  0  0  0
   20.1166   -3.9260  -32.9832 O   0  0  0  0  0  0  0  0  0  0  0  0
   18.0465   -6.0337  -30.2220 C   0  0  0  0  0  0  0  0  0  0  0  0
   19.3157   -5.5479  -29.9306 C   0  0  0  0  0  0  0  0  0  0  0  0
   18.2109   -5.0637  -32.4382 N   0  0  0  0  0  0  0  0  0  0  0  0
   17.4957   -5.7994  -31.4783 C   0  0  0  0  0  0  0  0  0  0  0  0
   20.0154   -4.8059  -30.8771 C   0  0  0  0  0  0  0  0  0  0  0  0
   19.4882   -4.5677  -32.1408 C   0  0  0  0  0  0  0  0  0  0  0  0
   17.8136   -4.8958  -33.3232 H   0  0  0  0  0  0  0  0  0  0  0  0
   16.2241   -6.2736  -31.7841 C   0  0  0  0  0  0  0  0  0  0  0  0
   16.1549   -6.7218  -33.2408 C   0  0  0  0  0  0  0  0  0  0  0  0
   15.0506   -8.6411  -32.2631 O   0  0  0  0  0  0  0  0  0  0  0  0
   15.0379   -7.7617  -33.3977 C   0  0  0  0  0  0  0  0  0  0  0  0
   14.3458   -9.3009  -32.3574 H   0  0  0  0  0  0  0  0  0  0  0  0
   22.0990   -7.1571  -28.3156 C   0  0  0  0  0  0  0  0  0  0  0  0
   22.5580   -8.2894  -27.5673 O   0  0  0  0  0  0  0  0  0  0  0  0
   25.1183   -8.7239  -28.0616 O   0  0  0  0  0  0  0  0  0  0  0  0
   23.3132   -9.2521  -29.8335 O   0  0  0  0  0  0  0  0  0  0  0  0
   23.5127  -10.6828  -27.7367 O   0  0  0  0  0  0  0  0  0  0  0  0
   23.6336   -9.2930  -28.2603 P   0  0  0  0  0  0  0  0  0  0  0  0
   22.4181   -9.5913  -29.9901 H   0  0  0  0  0  0  0  0  0  0  0  0
   22.6060  -11.0008  -27.8700 H   0  0  0  0  0  0  0  0  0  0  0  0
  2  7  1  0  0  0
 29 31  1  0  0  0
 30 31  1  0  0  0
 14 15  1  0  0  0
 15 18  2  0  0  0
  3  4  1  0  0  0
 24 22  1  0  0  0
 24 23  1  0  0  0
 21 17  1  0  0  0
 21 22  1  0  0  0
 10  8  1  0  0  0
 26  6  1  0  0  0
 26 27  1  0  0  0
 11 10  1  0  0  0
 16 19  1  0  0  0
 27 31  1  0  0  0
  5  1  1  0  0  0
  5  4  2  0  0  0
 17 14  2  0  0  0
 17 16  1  0  0  0
  6  3  2  0  0  0
  7  5  1  0  0  0
 18 11  1  0  0  0
  8  7  2  0  0  0
  8  6  1  0  0  0
 19 18  1  0  0  0
 19 13  2  0  0  0
 31 28  2  0  0  0
 23 25  1  0  0  0
  2  9  1  0  0  0
 29 32  1  0  0  0
 30 33  1  0  0  0
 11 12  1  0  0  0
 16 20  1  0  0  0
M  END
> <minimizedAffinity>
-8.53987

$$$$
