4L51_HSX_A_501


 19 19  0  0  0  0  0  0  0  0999 V2000
  -35.6451  -18.8648   -3.8529 C   0  0  0  0  0  0  0  0  0  0  0  0
  -36.7500  -19.6026   -4.5048 O   0  0  0  0  0  0  0  0  0  0  0  0
  -34.5031  -19.0759   -4.7464 C   0  0  0  0  0  0  0  0  0  0  0  0
  -34.5106  -18.5617   -6.1023 O   0  0  0  0  0  0  0  0  0  0  0  0
  -34.5905  -20.4786   -4.9333 C   0  0  0  0  0  0  0  0  0  0  0  0
  -33.8362  -20.6157   -6.0775 O   0  0  0  0  0  0  0  0  0  0  0  0
  -36.1527  -20.7402   -4.9898 C   0  0  0  0  0  0  0  0  0  0  0  0
  -35.7956  -17.3783   -3.6909 O   0  0  0  0  0  0  0  0  0  0  0  0
  -35.2492  -18.9548   -6.5931 H   0  0  0  0  0  0  0  0  0  0  0  0
  -34.1466  -19.9860   -6.7468 H   0  0  0  0  0  0  0  0  0  0  0  0
  -35.8679  -16.9635   -4.5647 H   0  0  0  0  0  0  0  0  0  0  0  0
  -36.5608  -21.6920   -3.8329 C   0  0  0  0  0  0  0  0  0  0  0  0
  -37.9496  -21.8407   -3.8588 O   0  0  0  0  0  0  0  0  0  0  0  0
  -38.6829  -22.9979   -4.6041 P   0  0  0  0  0  0  0  0  0  0  0  0
  -37.7169  -24.2156   -4.8689 O   0  0  0  0  0  0  0  0  0  0  0  0
  -39.1230  -22.4216   -6.0069 O   0  0  0  0  0  0  0  0  0  0  0  0
  -39.8993  -23.3540   -3.8294 O   0  0  0  0  0  0  0  0  0  0  0  0
  -38.3351  -22.1857   -6.5212 H   0  0  0  0  0  0  0  0  0  0  0  0
  -39.6395  -23.7095   -2.9650 H   0  0  0  0  0  0  0  0  0  0  0  0
  2  1  1  0  0  0
  1  8  1  0  0  0
  1  3  1  0  0  0
  2  7  1  0  0  0
  5  3  1  0  0  0
  3  4  1  0  0  0
  7  5  1  0  0  0
  5  6  1  0  0  0
 12  7  1  0  0  0
 13 12  1  0  0  0
 14 13  1  0  0  0
 15 14  2  0  0  0
 17 14  1  0  0  0
 14 16  1  0  0  0
  4  9  1  0  0  0
  6 10  1  0  0  0
 16 18  1  0  0  0
 17 19  1  0  0  0
  8 11  1  0  0  0
M  END
> <minimizedAffinity>
-7.66707

$$$$
4L51_HSX_A_501


 19 19  0  0  0  0  0  0  0  0999 V2000
  -38.9546  -20.0161   -3.5080 C   0  0  0  0  0  0  0  0  0  0  0  0
  -37.5713  -20.2712   -3.0480 O   0  0  0  0  0  0  0  0  0  0  0  0
  -39.5748  -21.3437   -3.5172 C   0  0  0  0  0  0  0  0  0  0  0  0
  -39.7508  -22.0944   -2.2890 O   0  0  0  0  0  0  0  0  0  0  0  0
  -38.5760  -22.0791   -4.2040 C   0  0  0  0  0  0  0  0  0  0  0  0
  -38.9248  -23.3596   -3.8355 O   0  0  0  0  0  0  0  0  0  0  0  0
  -37.2258  -21.4494   -3.6632 C   0  0  0  0  0  0  0  0  0  0  0  0
  -39.8263  -19.1400   -2.6529 O   0  0  0  0  0  0  0  0  0  0  0  0
  -38.8850  -22.2592   -1.8839 H   0  0  0  0  0  0  0  0  0  0  0  0
  -39.0257  -23.4025   -2.8717 H   0  0  0  0  0  0  0  0  0  0  0  0
  -39.9434  -19.5514   -1.7823 H   0  0  0  0  0  0  0  0  0  0  0  0
  -36.4306  -20.8343   -4.8465 C   0  0  0  0  0  0  0  0  0  0  0  0
  -35.2226  -20.3384   -4.3501 O   0  0  0  0  0  0  0  0  0  0  0  0
  -34.0993  -19.7357   -5.2487 P   0  0  0  0  0  0  0  0  0  0  0  0
  -32.9842  -19.0334   -4.3831 O   0  0  0  0  0  0  0  0  0  0  0  0
  -34.7834  -18.6262   -6.1402 O   0  0  0  0  0  0  0  0  0  0  0  0
  -33.5835  -20.8112   -6.1340 O   0  0  0  0  0  0  0  0  0  0  0  0
  -35.1239  -17.9185   -5.5709 H   0  0  0  0  0  0  0  0  0  0  0  0
  -33.1609  -21.4984   -5.5955 H   0  0  0  0  0  0  0  0  0  0  0  0
  2  1  1  0  0  0
  1  8  1  0  0  0
  1  3  1  0  0  0
  2  7  1  0  0  0
  5  3  1  0  0  0
  3  4  1  0  0  0
  7  5  1  0  0  0
  5  6  1  0  0  0
 12  7  1  0  0  0
 13 12  1  0  0  0
 14 13  1  0  0  0
 15 14  2  0  0  0
 17 14  1  0  0  0
 14 16  1  0  0  0
  4  9  1  0  0  0
  6 10  1  0  0  0
 16 18  1  0  0  0
 17 19  1  0  0  0
  8 11  1  0  0  0
M  END
> <minimizedAffinity>
-7.62056

$$$$
4L51_HSX_A_501


 19 19  0  0  0  0  0  0  0  0999 V2000
  -38.7420  -22.4664   -5.5303 C   0  0  0  0  0  0  0  0  0  0  0  0
  -38.4023  -21.0464   -5.2890 O   0  0  0  0  0  0  0  0  0  0  0  0
  -39.4917  -22.8589   -4.3340 C   0  0  0  0  0  0  0  0  0  0  0  0
  -40.7674  -22.2463   -4.0175 O   0  0  0  0  0  0  0  0  0  0  0  0
  -38.6325  -22.3531   -3.3260 C   0  0  0  0  0  0  0  0  0  0  0  0
  -39.5068  -22.3150   -2.2624 O   0  0  0  0  0  0  0  0  0  0  0  0
  -38.1000  -20.9972   -3.9503 C   0  0  0  0  0  0  0  0  0  0  0  0
  -39.6163  -22.7864   -6.7101 O   0  0  0  0  0  0  0  0  0  0  0  0
  -40.6466  -21.2913   -3.8976 H   0  0  0  0  0  0  0  0  0  0  0  0
  -40.3182  -21.8543   -2.5272 H   0  0  0  0  0  0  0  0  0  0  0  0
  -40.4789  -22.3570   -6.5992 H   0  0  0  0  0  0  0  0  0  0  0  0
  -36.5548  -21.0623   -4.0892 C   0  0  0  0  0  0  0  0  0  0  0  0
  -36.1663  -20.1537   -5.0766 O   0  0  0  0  0  0  0  0  0  0  0  0
  -34.7699  -19.4599   -5.1139 P   0  0  0  0  0  0  0  0  0  0  0  0
  -33.6402  -20.4092   -4.5585 O   0  0  0  0  0  0  0  0  0  0  0  0
  -34.8625  -18.2111   -4.1517 O   0  0  0  0  0  0  0  0  0  0  0  0
  -34.5246  -18.9808   -6.4984 O   0  0  0  0  0  0  0  0  0  0  0  0
  -35.0228  -18.5135   -3.2440 H   0  0  0  0  0  0  0  0  0  0  0  0
  -34.4660  -19.7411   -7.0980 H   0  0  0  0  0  0  0  0  0  0  0  0
  2  1  1  0  0  0
  1  8  1  0  0  0
  1  3  1  0  0  0
  2  7  1  0  0  0
  5  3  1  0  0  0
  3  4  1  0  0  0
  7  5  1  0  0  0
  5  6  1  0  0  0
 12  7  1  0  0  0
 13 12  1  0  0  0
 14 13  1  0  0  0
 15 14  2  0  0  0
 17 14  1  0  0  0
 14 16  1  0  0  0
  4  9  1  0  0  0
  6 10  1  0  0  0
 16 18  1  0  0  0
 17 19  1  0  0  0
  8 11  1  0  0  0
M  END
> <minimizedAffinity>
-7.45188

$$$$
4L51_HSX_A_501


 19 19  0  0  0  0  0  0  0  0999 V2000
  -34.9880  -20.7248   -5.1470 C   0  0  0  0  0  0  0  0  0  0  0  0
  -35.5321  -21.0880   -3.8196 O   0  0  0  0  0  0  0  0  0  0  0  0
  -34.3952  -19.4014   -4.9363 C   0  0  0  0  0  0  0  0  0  0  0  0
  -33.2700  -19.2212   -4.0393 O   0  0  0  0  0  0  0  0  0  0  0  0
  -35.4584  -18.7596   -4.2522 C   0  0  0  0  0  0  0  0  0  0  0  0
  -34.7749  -17.7123   -3.6752 O   0  0  0  0  0  0  0  0  0  0  0  0
  -36.0464  -19.9106   -3.3349 C   0  0  0  0  0  0  0  0  0  0  0  0
  -33.9054  -21.5945   -5.7218 O   0  0  0  0  0  0  0  0  0  0  0  0
  -33.5238  -19.4935   -3.1436 H   0  0  0  0  0  0  0  0  0  0  0  0
  -33.9940  -18.0524   -3.2111 H   0  0  0  0  0  0  0  0  0  0  0  0
  -33.1301  -21.5731   -5.1393 H   0  0  0  0  0  0  0  0  0  0  0  0
  -37.5304  -20.1672   -3.7129 C   0  0  0  0  0  0  0  0  0  0  0  0
  -37.8406  -21.4908   -3.3914 O   0  0  0  0  0  0  0  0  0  0  0  0
  -38.3827  -22.5282   -4.4221 P   0  0  0  0  0  0  0  0  0  0  0  0
  -39.5760  -23.3662   -3.8224 O   0  0  0  0  0  0  0  0  0  0  0  0
  -37.1970  -23.5279   -4.7198 O   0  0  0  0  0  0  0  0  0  0  0  0
  -38.7259  -21.8056   -5.6738 O   0  0  0  0  0  0  0  0  0  0  0  0
  -36.9650  -24.0052   -3.9079 H   0  0  0  0  0  0  0  0  0  0  0  0
  -39.4540  -21.1883   -5.5014 H   0  0  0  0  0  0  0  0  0  0  0  0
  2  1  1  0  0  0
  1  8  1  0  0  0
  1  3  1  0  0  0
  2  7  1  0  0  0
  5  3  1  0  0  0
  3  4  1  0  0  0
  7  5  1  0  0  0
  5  6  1  0  0  0
 12  7  1  0  0  0
 13 12  1  0  0  0
 14 13  1  0  0  0
 15 14  2  0  0  0
 17 14  1  0  0  0
 14 16  1  0  0  0
  4  9  1  0  0  0
  6 10  1  0  0  0
 16 18  1  0  0  0
 17 19  1  0  0  0
  8 11  1  0  0  0
M  END
> <minimizedAffinity>
-7.17547

$$$$
4L51_HSX_A_501


 19 19  0  0  0  0  0  0  0  0999 V2000
  -35.1690  -19.4005   -5.0613 C   0  0  0  0  0  0  0  0  0  0  0  0
  -36.0760  -20.4388   -5.5991 O   0  0  0  0  0  0  0  0  0  0  0  0
  -34.4898  -20.0667   -3.9468 C   0  0  0  0  0  0  0  0  0  0  0  0
  -33.6187  -21.2034   -4.1751 O   0  0  0  0  0  0  0  0  0  0  0  0
  -35.6043  -20.6426   -3.2860 C   0  0  0  0  0  0  0  0  0  0  0  0
  -34.9665  -21.6031   -2.5325 O   0  0  0  0  0  0  0  0  0  0  0  0
  -36.5465  -21.0838   -4.4817 C   0  0  0  0  0  0  0  0  0  0  0  0
  -34.0924  -18.8735   -5.9679 O   0  0  0  0  0  0  0  0  0  0  0  0
  -34.1255  -21.9219   -4.5848 H   0  0  0  0  0  0  0  0  0  0  0  0
  -34.3793  -22.1239   -3.1024 H   0  0  0  0  0  0  0  0  0  0  0  0
  -33.4958  -19.5970   -6.2159 H   0  0  0  0  0  0  0  0  0  0  0  0
  -37.9040  -20.3379   -4.3740 C   0  0  0  0  0  0  0  0  0  0  0  0
  -38.9204  -21.2263   -4.7337 O   0  0  0  0  0  0  0  0  0  0  0  0
  -39.3845  -22.4183   -3.8415 P   0  0  0  0  0  0  0  0  0  0  0  0
  -38.9903  -22.1950   -2.3313 O   0  0  0  0  0  0  0  0  0  0  0  0
  -38.6083  -23.6938   -4.3558 O   0  0  0  0  0  0  0  0  0  0  0  0
  -40.8397  -22.6233   -4.0580 O   0  0  0  0  0  0  0  0  0  0  0  0
  -37.6561  -23.5698   -4.2187 H   0  0  0  0  0  0  0  0  0  0  0  0
  -41.3261  -21.8446   -3.7451 H   0  0  0  0  0  0  0  0  0  0  0  0
  2  1  1  0  0  0
  1  8  1  0  0  0
  1  3  1  0  0  0
  2  7  1  0  0  0
  5  3  1  0  0  0
  3  4  1  0  0  0
  7  5  1  0  0  0
  5  6  1  0  0  0
 12  7  1  0  0  0
 13 12  1  0  0  0
 14 13  1  0  0  0
 15 14  2  0  0  0
 17 14  1  0  0  0
 14 16  1  0  0  0
  4  9  1  0  0  0
  6 10  1  0  0  0
 16 18  1  0  0  0
 17 19  1  0  0  0
  8 11  1  0  0  0
M  END
> <minimizedAffinity>
-7.16779

$$$$
4L51_HSX_A_501


 19 19  0  0  0  0  0  0  0  0999 V2000
  -38.8361  -20.7277   -3.8047 C   0  0  0  0  0  0  0  0  0  0  0  0
  -37.5537  -20.8818   -3.0822 O   0  0  0  0  0  0  0  0  0  0  0  0
  -39.2431  -22.1039   -4.1005 C   0  0  0  0  0  0  0  0  0  0  0  0
  -39.5558  -23.0358   -3.0343 O   0  0  0  0  0  0  0  0  0  0  0  0
  -38.0296  -22.6134   -4.6279 C   0  0  0  0  0  0  0  0  0  0  0  0
  -38.2578  -23.9649   -4.4924 O   0  0  0  0  0  0  0  0  0  0  0  0
  -36.9236  -21.9129   -3.7346 C   0  0  0  0  0  0  0  0  0  0  0  0
  -39.9811  -20.0888   -3.0703 O   0  0  0  0  0  0  0  0  0  0  0  0
  -38.7764  -23.1538   -2.4691 H   0  0  0  0  0  0  0  0  0  0  0  0
  -38.5460  -24.1548   -3.5859 H   0  0  0  0  0  0  0  0  0  0  0  0
  -40.2127  -20.6298   -2.2992 H   0  0  0  0  0  0  0  0  0  0  0  0
  -36.0009  -21.0483   -4.6358 C   0  0  0  0  0  0  0  0  0  0  0  0
  -35.0448  -20.4359   -3.8220 O   0  0  0  0  0  0  0  0  0  0  0  0
  -34.8277  -18.8930   -3.7514 P   0  0  0  0  0  0  0  0  0  0  0  0
  -33.3261  -18.5369   -3.4287 O   0  0  0  0  0  0  0  0  0  0  0  0
  -35.7126  -18.3688   -2.5531 O   0  0  0  0  0  0  0  0  0  0  0  0
  -35.3287  -18.2938   -5.0149 O   0  0  0  0  0  0  0  0  0  0  0  0
  -35.3934  -18.7547   -1.7224 H   0  0  0  0  0  0  0  0  0  0  0  0
  -34.7912  -18.6098   -5.7580 H   0  0  0  0  0  0  0  0  0  0  0  0
  2  1  1  0  0  0
  1  8  1  0  0  0
  1  3  1  0  0  0
  2  7  1  0  0  0
  5  3  1  0  0  0
  3  4  1  0  0  0
  7  5  1  0  0  0
  5  6  1  0  0  0
 12  7  1  0  0  0
 13 12  1  0  0  0
 14 13  1  0  0  0
 15 14  2  0  0  0
 17 14  1  0  0  0
 14 16  1  0  0  0
  4  9  1  0  0  0
  6 10  1  0  0  0
 16 18  1  0  0  0
 17 19  1  0  0  0
  8 11  1  0  0  0
M  END
> <minimizedAffinity>
-6.87511

$$$$
4L51_HSX_A_501


 19 19  0  0  0  0  0  0  0  0999 V2000
  -37.3723  -18.5529   -3.4621 C   0  0  0  0  0  0  0  0  0  0  0  0
  -36.6971  -19.7147   -2.8421 O   0  0  0  0  0  0  0  0  0  0  0  0
  -38.7769  -18.9623   -3.5438 C   0  0  0  0  0  0  0  0  0  0  0  0
  -39.5524  -19.2145   -2.3447 O   0  0  0  0  0  0  0  0  0  0  0  0
  -38.6261  -20.2544   -4.1076 C   0  0  0  0  0  0  0  0  0  0  0  0
  -39.8472  -20.8022   -3.7822 O   0  0  0  0  0  0  0  0  0  0  0  0
  -37.3119  -20.8026   -3.4116 C   0  0  0  0  0  0  0  0  0  0  0  0
  -37.3471  -17.2484   -2.7163 O   0  0  0  0  0  0  0  0  0  0  0  0
  -39.1426  -19.9346   -1.8401 H   0  0  0  0  0  0  0  0  0  0  0  0
  -40.0198  -20.6690   -2.8370 H   0  0  0  0  0  0  0  0  0  0  0  0
  -37.8008  -17.3536   -1.8654 H   0  0  0  0  0  0  0  0  0  0  0  0
  -36.2379  -21.0989   -4.4931 C   0  0  0  0  0  0  0  0  0  0  0  0
  -34.9862  -20.7697   -3.9674 O   0  0  0  0  0  0  0  0  0  0  0  0
  -33.9886  -19.7882   -4.6559 P   0  0  0  0  0  0  0  0  0  0  0  0
  -34.5589  -19.2541   -6.0253 O   0  0  0  0  0  0  0  0  0  0  0  0
  -32.6846  -20.6208   -4.9720 O   0  0  0  0  0  0  0  0  0  0  0  0
  -33.6485  -18.7143   -3.6875 O   0  0  0  0  0  0  0  0  0  0  0  0
  -32.8961  -21.3254   -5.6042 H   0  0  0  0  0  0  0  0  0  0  0  0
  -34.4437  -18.1965   -3.4865 H   0  0  0  0  0  0  0  0  0  0  0  0
  2  1  1  0  0  0
  1  8  1  0  0  0
  1  3  1  0  0  0
  2  7  1  0  0  0
  5  3  1  0  0  0
  3  4  1  0  0  0
  7  5  1  0  0  0
  5  6  1  0  0  0
 12  7  1  0  0  0
 13 12  1  0  0  0
 14 13  1  0  0  0
 15 14  2  0  0  0
 17 14  1  0  0  0
 14 16  1  0  0  0
  4  9  1  0  0  0
  6 10  1  0  0  0
 16 18  1  0  0  0
 17 19  1  0  0  0
  8 11  1  0  0  0
M  END
> <minimizedAffinity>
-6.17938

$$$$
4L51_HSX_A_501


 19 19  0  0  0  0  0  0  0  0999 V2000
  -36.0531  -19.6421   -3.3171 C   0  0  0  0  0  0  0  0  0  0  0  0
  -37.0196  -19.2179   -4.3544 O   0  0  0  0  0  0  0  0  0  0  0  0
  -35.8742  -21.0751   -3.5650 C   0  0  0  0  0  0  0  0  0  0  0  0
  -35.2862  -21.5514   -4.8021 O   0  0  0  0  0  0  0  0  0  0  0  0
  -37.2289  -21.4785   -3.6760 C   0  0  0  0  0  0  0  0  0  0  0  0
  -37.0687  -22.6801   -4.3298 O   0  0  0  0  0  0  0  0  0  0  0  0
  -37.9089  -20.2617   -4.4303 C   0  0  0  0  0  0  0  0  0  0  0  0
  -34.6823  -19.0265   -3.3437 O   0  0  0  0  0  0  0  0  0  0  0  0
  -35.8324  -21.2654   -5.5509 H   0  0  0  0  0  0  0  0  0  0  0  0
  -36.5033  -22.5522   -5.1076 H   0  0  0  0  0  0  0  0  0  0  0  0
  -34.2422  -19.2534   -4.1778 H   0  0  0  0  0  0  0  0  0  0  0  0
  -39.0171  -19.6491   -3.5318 C   0  0  0  0  0  0  0  0  0  0  0  0
  -39.7609  -20.6954   -2.9809 O   0  0  0  0  0  0  0  0  0  0  0  0
  -41.1348  -20.5003   -2.2690 P   0  0  0  0  0  0  0  0  0  0  0  0
  -42.3242  -20.4956   -3.3040 O   0  0  0  0  0  0  0  0  0  0  0  0
  -41.0888  -19.0775   -1.5853 O   0  0  0  0  0  0  0  0  0  0  0  0
  -41.2630  -21.5360   -1.2119 O   0  0  0  0  0  0  0  0  0  0  0  0
  -41.0051  -18.3934   -2.2678 H   0  0  0  0  0  0  0  0  0  0  0  0
  -41.2921  -22.4146   -1.6219 H   0  0  0  0  0  0  0  0  0  0  0  0
  2  1  1  0  0  0
  1  8  1  0  0  0
  1  3  1  0  0  0
  2  7  1  0  0  0
  5  3  1  0  0  0
  3  4  1  0  0  0
  7  5  1  0  0  0
  5  6  1  0  0  0
 12  7  1  0  0  0
 13 12  1  0  0  0
 14 13  1  0  0  0
 15 14  2  0  0  0
 17 14  1  0  0  0
 14 16  1  0  0  0
  4  9  1  0  0  0
  6 10  1  0  0  0
 16 18  1  0  0  0
 17 19  1  0  0  0
  8 11  1  0  0  0
M  END
> <minimizedAffinity>
-6.11605

$$$$
4L51_HSX_A_501


 19 19  0  0  0  0  0  0  0  0999 V2000
  -39.1696  -21.0668   -3.8525 C   0  0  0  0  0  0  0  0  0  0  0  0
  -38.1905  -20.9991   -2.7449 O   0  0  0  0  0  0  0  0  0  0  0  0
  -38.8938  -22.3569   -4.4902 C   0  0  0  0  0  0  0  0  0  0  0  0
  -39.0940  -23.6019   -3.7741 O   0  0  0  0  0  0  0  0  0  0  0  0
  -37.4834  -22.2775   -4.6103 C   0  0  0  0  0  0  0  0  0  0  0  0
  -37.1818  -23.6103   -4.7831 O   0  0  0  0  0  0  0  0  0  0  0  0
  -37.0465  -21.5429   -3.2756 C   0  0  0  0  0  0  0  0  0  0  0  0
  -40.6299  -21.0660   -3.4971 O   0  0  0  0  0  0  0  0  0  0  0  0
  -38.5244  -23.6186   -2.9891 H   0  0  0  0  0  0  0  0  0  0  0  0
  -37.6116  -24.1319   -4.0873 H   0  0  0  0  0  0  0  0  0  0  0  0
  -40.8324  -21.8481   -2.9602 H   0  0  0  0  0  0  0  0  0  0  0  0
  -36.3330  -20.2096   -3.6276 C   0  0  0  0  0  0  0  0  0  0  0  0
  -35.7998  -20.3257   -4.9136 O   0  0  0  0  0  0  0  0  0  0  0  0
  -34.2704  -20.3637   -5.2168 P   0  0  0  0  0  0  0  0  0  0  0  0
  -33.8674  -19.2735   -6.2822 O   0  0  0  0  0  0  0  0  0  0  0  0
  -33.9716  -21.7813   -5.8452 O   0  0  0  0  0  0  0  0  0  0  0  0
  -33.5373  -20.2456   -3.9303 O   0  0  0  0  0  0  0  0  0  0  0  0
  -34.4463  -21.8685   -6.6866 H   0  0  0  0  0  0  0  0  0  0  0  0
  -33.7144  -19.3774   -3.5357 H   0  0  0  0  0  0  0  0  0  0  0  0
  2  1  1  0  0  0
  1  8  1  0  0  0
  1  3  1  0  0  0
  2  7  1  0  0  0
  5  3  1  0  0  0
  3  4  1  0  0  0
  7  5  1  0  0  0
  5  6  1  0  0  0
 12  7  1  0  0  0
 13 12  1  0  0  0
 14 13  1  0  0  0
 15 14  2  0  0  0
 17 14  1  0  0  0
 14 16  1  0  0  0
  4  9  1  0  0  0
  6 10  1  0  0  0
 16 18  1  0  0  0
 17 19  1  0  0  0
  8 11  1  0  0  0
M  END
> <minimizedAffinity>
-6.09944

$$$$
4L51_HSX_A_501


 19 19  0  0  0  0  0  0  0  0999 V2000
  -38.2601  -19.9109   -3.4829 C   0  0  0  0  0  0  0  0  0  0  0  0
  -38.9499  -20.6283   -4.5782 O   0  0  0  0  0  0  0  0  0  0  0  0
  -36.8374  -20.1295   -3.7578 C   0  0  0  0  0  0  0  0  0  0  0  0
  -36.2196  -19.6036   -4.9597 O   0  0  0  0  0  0  0  0  0  0  0  0
  -36.8407  -21.5292   -3.9833 C   0  0  0  0  0  0  0  0  0  0  0  0
  -35.6475  -21.6665   -4.6573 O   0  0  0  0  0  0  0  0  0  0  0  0
  -38.2059  -21.7695   -4.7517 C   0  0  0  0  0  0  0  0  0  0  0  0
  -38.4563  -18.4240   -3.3873 O   0  0  0  0  0  0  0  0  0  0  0  0
  -36.6548  -19.9826   -5.7393 H   0  0  0  0  0  0  0  0  0  0  0  0
  -35.6122  -21.0269   -5.3858 H   0  0  0  0  0  0  0  0  0  0  0  0
  -38.1173  -18.0007   -4.1916 H   0  0  0  0  0  0  0  0  0  0  0  0
  -39.1057  -22.7257   -3.9229 C   0  0  0  0  0  0  0  0  0  0  0  0
  -40.1478  -23.1652   -4.7429 O   0  0  0  0  0  0  0  0  0  0  0  0
  -41.6567  -23.0348   -4.3706 P   0  0  0  0  0  0  0  0  0  0  0  0
  -42.5525  -22.8473   -5.6545 O   0  0  0  0  0  0  0  0  0  0  0  0
  -41.7927  -21.7269   -3.4962 O   0  0  0  0  0  0  0  0  0  0  0  0
  -42.0349  -24.2074   -3.5408 O   0  0  0  0  0  0  0  0  0  0  0  0
  -41.5478  -20.9545   -4.0295 H   0  0  0  0  0  0  0  0  0  0  0  0
  -41.9546  -25.0169   -4.0693 H   0  0  0  0  0  0  0  0  0  0  0  0
  2  1  1  0  0  0
  1  8  1  0  0  0
  1  3  1  0  0  0
  2  7  1  0  0  0
  5  3  1  0  0  0
  3  4  1  0  0  0
  7  5  1  0  0  0
  5  6  1  0  0  0
 12  7  1  0  0  0
 13 12  1  0  0  0
 14 13  1  0  0  0
 15 14  2  0  0  0
 17 14  1  0  0  0
 14 16  1  0  0  0
  4  9  1  0  0  0
  6 10  1  0  0  0
 16 18  1  0  0  0
 17 19  1  0  0  0
  8 11  1  0  0  0
M  END
> <minimizedAffinity>
-6.06119

$$$$
