1TOM_MIN_H_1
  RCSB PDB12061704083D
Coordinates from PDB:1TOM:H:1 Model:1 without hydrogens
 28 30  0  0  0  0            999 V2000
   16.6180  -16.8730   23.8320   N 0  0  0  0  0  0  0  0  0  0  0  0
   17.9320  -16.2260   23.7760   C 0  0  0  0  0  0  0  0  0  0  0  0
   17.8220  -14.8100   23.2150   C 0  0  0  0  0  0  0  0  0  0  0  0
   16.9480  -14.0710   23.6920   O 0  0  0  0  0  0  0  0  0  0  0  0
   18.5320  -16.1970   25.2170   C 0  0  0  0  0  0  0  0  0  0  0  0
   19.8880  -15.5410   25.3810   C 0  0  0  0  0  0  0  0  0  0  0  0
   21.0020  -16.1550   24.8590   C 0  0  0  0  0  0  0  0  0  0  0  0
   19.9680  -14.3310   26.0350   C 0  0  0  0  0  0  0  0  0  0  0  0
   22.2210  -15.5290   24.9600   C 0  0  0  0  0  0  0  0  0  0  0  0
   21.1840  -13.7160   26.1340   C 0  0  0  0  0  0  0  0  0  0  0  0
   22.3090  -14.3140   25.6040   C 0  0  0  0  0  0  0  0  0  0  0  0
   15.8190  -17.0230   22.6010   C 0  0  0  0  0  0  0  0  0  0  0  0
   18.6620  -14.3740   22.2720   N 0  0  0  0  0  0  0  0  0  0  0  0
   18.5150  -13.0970   21.5690   C 0  0  0  0  0  0  0  0  0  0  0  0
   17.1170  -13.0170   20.9440   C 0  0  0  0  0  0  0  0  0  0  0  0
   16.7290  -13.9670   20.2610   O 0  0  0  0  0  0  0  0  0  0  0  0
   19.5800  -13.0850   20.5050   C 0  0  0  0  0  0  0  0  0  0  0  0
   20.5550  -14.1330   20.9450   C 0  0  0  0  0  0  0  0  0  0  0  0
   19.7010  -15.1760   21.6260   C 0  0  0  0  0  0  0  0  0  0  0  0
   16.3250  -11.9530   21.1710   N 0  0  0  0  0  0  0  0  0  0  0  0
   14.9980  -11.8090   20.5710   C 0  0  0  0  0  0  0  0  0  0  0  0
   13.9200  -11.8380   21.5900   C 0  0  0  0  0  0  0  0  0  0  0  0
   12.6590  -11.3000   20.9420   C 0  0  0  0  0  0  0  0  0  0  0  0
   11.5480  -11.3550   21.9740   C 0  0  0  0  0  0  0  0  0  0  0  0
   11.3220  -12.7910   22.5040   C 0  0  0  0  0  0  0  0  0  0  0  0
   12.5960  -13.2860   23.1240   C 0  0  0  0  0  0  0  0  0  0  0  0
   13.7450  -13.2510   22.1460   C 0  0  0  0  0  0  0  0  0  0  0  0
   10.3160  -12.8040   23.5250   N 0  0  0  0  0  0  0  0  0  0  0  0
 28 25  1  0  0  0  0
 25 26  1  0  0  0  0
 25 24  1  0  0  0  0
 26 27  1  0  0  0  0
 27 22  1  0  0  0  0
 22 23  1  0  0  0  0
 22 21  1  0  0  0  0
 23 24  1  0  0  0  0
 21 20  1  0  0  0  0
 20 15  1  0  0  0  0
 15 16  2  0  0  0  0
 15 14  1  0  0  0  0
 14 17  1  0  0  0  0
 14 13  1  0  0  0  0
 17 18  1  0  0  0  0
 18 19  1  0  0  0  0
 19 13  1  0  0  0  0
 13  3  1  0  0  0  0
  3  4  2  0  0  0  0
  3  2  1  0  0  0  0
 12  1  1  0  0  0  0
  1  2  1  0  0  0  0
  2  5  1  0  0  0  0
  5  6  1  0  0  0  0
  6  7  2  0  0  0  0
  6  8  1  0  0  0  0
  7  9  1  0  0  0  0
  9 11  2  0  0  0  0
 11 10  1  0  0  0  0
 10  8  2  0  0  0  0
A    1
N13
A    2
C15
A    3
C13
A    4
O13
A    5
C16
A    6
C17
A    7
C18
A    8
C22
A    9
C19
A   10
C21
A   11
C20
A   12
C14
A   13
N9
A   14
C9
A   15
C8
A   16
O8
A   17
C10
A   18
C11
A   19
C12
A   20
N7
A   21
C7
A   22
C4
A   23
C5
A   24
C6
A   25
C1
A   26
C2
A   27
C3
A   28
N1
M  END
>  <InstanceId>
1TOM_MIN_H_1

>  <ChemCompId>
MIN

>  <PdbId>
1TOM

>  <ChainId>
H

>  <ResidueNumber>
1

>  <InsertionCode>


>  <Model>
1

>  <AltIds>


>  <MissingHeavyAtoms>
0

>  <ObservedFormula>
C22 N4 O2

>  <Name>
METHYL-PHE-PRO-AMINO-CYCLOHEXYLGLYCINE

>  <SystematicName>
(2S)-N-[(4-azanylcyclohexyl)methyl]-1-[(2R)-2-(methylamino)-3-phenyl-propanoyl]pyrrolidine-2-carboxamide

>  <Synonyms>


>  <Type>
peptide-like

>  <Formula>
C22 H34 N4 O2

>  <MolecularWeight>
386.531

>  <ModifiedDate>
2011-06-04

>  <Parent>


>  <OneLetterCode>


>  <SubcomponentList>
ZAE PRO CHN

>  <AmbiguousFlag>
N

>  <InChI>
InChI=1S/C22H34N4O2/c1-24-19(14-16-6-3-2-4-7-16)22(28)26-13-5-8-20(26)21(27)25-15-17-9-11-18(23)12-10-17/h2-4,6-7,17-20,24H,5,8-15,23H2,1H3,(H,25,27)/t17-,18-,19-,20+/m1/s1

>  <InChIKey>
MDSVGJAUFNXYRR-WTGUMLROSA-N

>  <SMILES>
CN[C@H](Cc1ccccc1)C(=O)N2CCC[C@H]2C(=O)NCC3CCC(CC3)N

$$$$
