1TOM_MIN_H_1


 32 34  0  0  0  0  0  0  0  0999 V2000
   17.9362  -14.6575   22.9797 C   0  0  0  0  0  0  0  0  0  0  0  0
   17.0513  -13.9450   23.4765 O   0  0  0  0  0  0  0  0  0  0  0  0
   18.7779  -14.1794   22.0589 N   0  0  0  0  0  0  0  0  0  0  0  0
   18.6222  -12.8798   21.4008 C   0  0  0  0  0  0  0  0  0  0  0  0
   19.6942  -12.8188   20.3455 C   0  0  0  0  0  0  0  0  0  0  0  0
   20.6772  -13.8717   20.7548 C   0  0  0  0  0  0  0  0  0  0  0  0
   19.8297  -14.9471   21.3921 C   0  0  0  0  0  0  0  0  0  0  0  0
   17.2277  -12.7919   20.7690 C   0  0  0  0  0  0  0  0  0  0  0  0
   16.9433  -13.5884   19.8722 O   0  0  0  0  0  0  0  0  0  0  0  0
   16.3299  -11.8932   21.2130 N   0  0  0  0  0  0  0  0  0  0  0  0
   16.5789  -11.3120   21.9676 H   0  0  0  0  0  0  0  0  0  0  0  0
   14.9993  -11.7424   20.6227 C   0  0  0  0  0  0  0  0  0  0  0  0
   13.9300  -11.7477   21.6511 C   0  0  0  0  0  0  0  0  0  0  0  0
   12.6741  -11.1866   21.0127 C   0  0  0  0  0  0  0  0  0  0  0  0
   11.5714  -11.2171   22.0545 C   0  0  0  0  0  0  0  0  0  0  0  0
   11.3218  -12.6471   22.5903 C   0  0  0  0  0  0  0  0  0  0  0  0
   12.5913  -13.1655   23.2004 C   0  0  0  0  0  0  0  0  0  0  0  0
   13.7321  -13.1556   22.2124 C   0  0  0  0  0  0  0  0  0  0  0  0
   10.3248  -12.6378   23.6201 N   0  0  0  0  0  0  0  0  0  0  0  0
   10.6406  -12.0529   24.3937 H   0  0  0  0  0  0  0  0  0  0  0  0
   10.1717  -13.5894   23.9537 H   0  0  0  0  0  0  0  0  0  0  0  0
   18.0574  -16.0914   23.4907 C   0  0  0  0  0  0  0  0  0  0  0  0
   16.7669  -16.7834   23.4262 N   0  0  0  0  0  0  0  0  0  0  0  0
   16.1374  -17.0452   22.1180 C   0  0  0  0  0  0  0  0  0  0  0  0
   16.8949  -17.6887   23.8783 H   0  0  0  0  0  0  0  0  0  0  0  0
   18.5526  -16.1031   24.9712 C   0  0  0  0  0  0  0  0  0  0  0  0
   19.8806  -15.4304   25.2543 C   0  0  0  0  0  0  0  0  0  0  0  0
   21.0243  -15.9235   24.6719 C   0  0  0  0  0  0  0  0  0  0  0  0
   19.9056  -14.3252   26.0765 C   0  0  0  0  0  0  0  0  0  0  0  0
   22.2173  -15.2762   24.8856 C   0  0  0  0  0  0  0  0  0  0  0  0
   21.0961  -13.6886   26.2867 C   0  0  0  0  0  0  0  0  0  0  0  0
   22.2503  -14.1643   25.6988 C   0  0  0  0  0  0  0  0  0  0  0  0
 19 16  1  0  0  0
 16 17  1  0  0  0
 16 15  1  0  0  0
 17 18  1  0  0  0
 18 13  1  0  0  0
 13 14  1  0  0  0
 13 12  1  0  0  0
 14 15  1  0  0  0
 12 10  1  0  0  0
 10  8  1  0  0  0
  8  9  2  0  0  0
  8  4  1  0  0  0
  4  5  1  0  0  0
  4  3  1  0  0  0
  5  6  1  0  0  0
  6  7  1  0  0  0
  7  3  1  0  0  0
  3  1  1  0  0  0
  1  2  2  0  0  0
  1 22  1  0  0  0
 24 23  1  0  0  0
 23 22  1  0  0  0
 22 26  1  0  0  0
 26 27  1  0  0  0
 27 28  2  0  0  0
 27 29  1  0  0  0
 28 30  1  0  0  0
 30 32  2  0  0  0
 32 31  1  0  0  0
 31 29  2  0  0  0
 23 25  1  0  0  0
 10 11  1  0  0  0
 19 20  1  0  0  0
 19 21  1  0  0  0
M  END
> <minimizedAffinity>
-9.11227

$$$$
1TOM_MIN_H_1


 32 34  0  0  0  0  0  0  0  0999 V2000
   17.8259  -14.5946   22.8974 C   0  0  0  0  0  0  0  0  0  0  0  0
   16.8097  -13.9610   23.2187 O   0  0  0  0  0  0  0  0  0  0  0  0
   18.7561  -14.0594   22.1017 N   0  0  0  0  0  0  0  0  0  0  0  0
   18.5869  -12.7990   21.3740 C   0  0  0  0  0  0  0  0  0  0  0  0
   19.8041  -12.6592   20.4992 C   0  0  0  0  0  0  0  0  0  0  0  0
   20.8029  -13.5984   21.1015 C   0  0  0  0  0  0  0  0  0  0  0  0
   19.9688  -14.7358   21.6413 C   0  0  0  0  0  0  0  0  0  0  0  0
   17.3101  -12.8665   20.5275 C   0  0  0  0  0  0  0  0  0  0  0  0
   17.3702  -13.4151   19.4253 O   0  0  0  0  0  0  0  0  0  0  0  0
   16.1497  -12.3729   20.9974 N   0  0  0  0  0  0  0  0  0  0  0  0
   16.1332  -11.9915   21.9048 H   0  0  0  0  0  0  0  0  0  0  0  0
   14.9112  -12.3787   20.2178 C   0  0  0  0  0  0  0  0  0  0  0  0
   14.1235  -13.6175   20.4330 C   0  0  0  0  0  0  0  0  0  0  0  0
   12.6705  -13.2166   20.5988 C   0  0  0  0  0  0  0  0  0  0  0  0
   11.8591  -14.4843   20.7909 C   0  0  0  0  0  0  0  0  0  0  0  0
   12.0256  -15.4626   19.6038 C   0  0  0  0  0  0  0  0  0  0  0  0
   13.4768  -15.8214   19.4700 C   0  0  0  0  0  0  0  0  0  0  0  0
   14.3407  -14.5984   19.2811 C   0  0  0  0  0  0  0  0  0  0  0  0
   11.3044  -16.6783   19.8414 N   0  0  0  0  0  0  0  0  0  0  0  0
   11.6635  -17.1276   20.6838 H   0  0  0  0  0  0  0  0  0  0  0  0
   11.4224  -17.3049   19.0452 H   0  0  0  0  0  0  0  0  0  0  0  0
   17.9975  -15.9957   23.4800 C   0  0  0  0  0  0  0  0  0  0  0  0
   16.7557  -16.7667   23.3699 N   0  0  0  0  0  0  0  0  0  0  0  0
   16.3662  -17.3524   22.0732 C   0  0  0  0  0  0  0  0  0  0  0  0
   16.8284  -17.5389   24.0324 H   0  0  0  0  0  0  0  0  0  0  0  0
   18.3989  -15.9150   24.9865 C   0  0  0  0  0  0  0  0  0  0  0  0
   19.7829  -15.3831   25.2988 C   0  0  0  0  0  0  0  0  0  0  0  0
   20.8862  -16.0612   24.8369 C   0  0  0  0  0  0  0  0  0  0  0  0
   19.9008  -14.2179   26.0244 C   0  0  0  0  0  0  0  0  0  0  0  0
   22.1374  -15.5447   25.0734 C   0  0  0  0  0  0  0  0  0  0  0  0
   21.1483  -13.7120   26.2581 C   0  0  0  0  0  0  0  0  0  0  0  0
   22.2645  -14.3746   25.7900 C   0  0  0  0  0  0  0  0  0  0  0  0
 19 16  1  0  0  0
 16 17  1  0  0  0
 16 15  1  0  0  0
 17 18  1  0  0  0
 18 13  1  0  0  0
 13 14  1  0  0  0
 13 12  1  0  0  0
 14 15  1  0  0  0
 12 10  1  0  0  0
 10  8  1  0  0  0
  8  9  2  0  0  0
  8  4  1  0  0  0
  4  5  1  0  0  0
  4  3  1  0  0  0
  5  6  1  0  0  0
  6  7  1  0  0  0
  7  3  1  0  0  0
  3  1  1  0  0  0
  1  2  2  0  0  0
  1 22  1  0  0  0
 24 23  1  0  0  0
 23 22  1  0  0  0
 22 26  1  0  0  0
 26 27  1  0  0  0
 27 28  2  0  0  0
 27 29  1  0  0  0
 28 30  1  0  0  0
 30 32  2  0  0  0
 32 31  1  0  0  0
 31 29  2  0  0  0
 23 25  1  0  0  0
 10 11  1  0  0  0
 19 20  1  0  0  0
 19 21  1  0  0  0
M  END
> <minimizedAffinity>
-7.86407

$$$$
1TOM_MIN_H_1


 32 34  0  0  0  0  0  0  0  0999 V2000
   15.0938  -13.4245   21.6240 C   0  0  0  0  0  0  0  0  0  0  0  0
   15.0879  -14.6541   21.7838 O   0  0  0  0  0  0  0  0  0  0  0  0
   14.1073  -12.6575   22.0968 N   0  0  0  0  0  0  0  0  0  0  0  0
   12.8528  -13.1796   22.6449 C   0  0  0  0  0  0  0  0  0  0  0  0
   11.9863  -11.9781   22.9131 C   0  0  0  0  0  0  0  0  0  0  0  0
   12.9447  -10.8276   22.9349 C   0  0  0  0  0  0  0  0  0  0  0  0
   14.0077  -11.2074   21.9315 C   0  0  0  0  0  0  0  0  0  0  0  0
   12.1954  -14.1093   21.6177 C   0  0  0  0  0  0  0  0  0  0  0  0
   11.6696  -13.6016   20.6251 O   0  0  0  0  0  0  0  0  0  0  0  0
   12.2293  -15.4445   21.7819 N   0  0  0  0  0  0  0  0  0  0  0  0
   12.7065  -15.8113   22.5610 H   0  0  0  0  0  0  0  0  0  0  0  0
   11.5875  -16.3749   20.8523 C   0  0  0  0  0  0  0  0  0  0  0  0
   12.5739  -17.2434   20.1638 C   0  0  0  0  0  0  0  0  0  0  0  0
   13.1847  -16.4396   19.0323 C   0  0  0  0  0  0  0  0  0  0  0  0
   14.2143  -17.3165   18.3442 C   0  0  0  0  0  0  0  0  0  0  0  0
   15.3085  -17.8013   19.3249 C   0  0  0  0  0  0  0  0  0  0  0  0
   14.6587  -18.5794   20.4316 C   0  0  0  0  0  0  0  0  0  0  0  0
   13.6168  -17.7609   21.1543 C   0  0  0  0  0  0  0  0  0  0  0  0
   16.2284  -18.6813   18.6660 N   0  0  0  0  0  0  0  0  0  0  0  0
   15.7261  -19.4960   18.3132 H   0  0  0  0  0  0  0  0  0  0  0  0
   16.9435  -18.9832   19.3278 H   0  0  0  0  0  0  0  0  0  0  0  0
   16.2930  -12.8122   20.9037 C   0  0  0  0  0  0  0  0  0  0  0  0
   15.8842  -12.1791   19.6465 N   0  0  0  0  0  0  0  0  0  0  0  0
   15.1878  -12.9724   18.6160 C   0  0  0  0  0  0  0  0  0  0  0  0
   15.2648  -11.4071   19.8929 H   0  0  0  0  0  0  0  0  0  0  0  0
   17.3558  -13.9100   20.5832 C   0  0  0  0  0  0  0  0  0  0  0  0
   18.5536  -13.9939   21.5073 C   0  0  0  0  0  0  0  0  0  0  0  0
   18.3570  -14.2370   22.8462 C   0  0  0  0  0  0  0  0  0  0  0  0
   19.8162  -13.8430   20.9769 C   0  0  0  0  0  0  0  0  0  0  0  0
   19.4485  -14.3691   23.6704 C   0  0  0  0  0  0  0  0  0  0  0  0
   20.8966  -13.9728   21.8031 C   0  0  0  0  0  0  0  0  0  0  0  0
   20.7154  -14.2293   23.1468 C   0  0  0  0  0  0  0  0  0  0  0  0
 19 16  1  0  0  0
 16 17  1  0  0  0
 16 15  1  0  0  0
 17 18  1  0  0  0
 18 13  1  0  0  0
 13 14  1  0  0  0
 13 12  1  0  0  0
 14 15  1  0  0  0
 12 10  1  0  0  0
 10  8  1  0  0  0
  8  9  2  0  0  0
  8  4  1  0  0  0
  4  5  1  0  0  0
  4  3  1  0  0  0
  5  6  1  0  0  0
  6  7  1  0  0  0
  7  3  1  0  0  0
  3  1  1  0  0  0
  1  2  2  0  0  0
  1 22  1  0  0  0
 24 23  1  0  0  0
 23 22  1  0  0  0
 22 26  1  0  0  0
 26 27  1  0  0  0
 27 28  2  0  0  0
 27 29  1  0  0  0
 28 30  1  0  0  0
 30 32  2  0  0  0
 32 31  1  0  0  0
 31 29  2  0  0  0
 23 25  1  0  0  0
 10 11  1  0  0  0
 19 20  1  0  0  0
 19 21  1  0  0  0
M  END
> <minimizedAffinity>
-7.71632

$$$$
1TOM_MIN_H_1


 32 34  0  0  0  0  0  0  0  0999 V2000
   17.2943  -13.4529   20.0110 C   0  0  0  0  0  0  0  0  0  0  0  0
   17.4114  -12.7110   19.0244 O   0  0  0  0  0  0  0  0  0  0  0  0
   16.3776  -14.4242   20.0453 N   0  0  0  0  0  0  0  0  0  0  0  0
   15.3089  -14.5791   19.0551 C   0  0  0  0  0  0  0  0  0  0  0  0
   14.4343  -15.6953   19.5609 C   0  0  0  0  0  0  0  0  0  0  0  0
   15.2898  -16.4131   20.5586 C   0  0  0  0  0  0  0  0  0  0  0  0
   16.1407  -15.3265   21.1721 C   0  0  0  0  0  0  0  0  0  0  0  0
   14.5178  -13.2698   18.9497 C   0  0  0  0  0  0  0  0  0  0  0  0
   14.5156  -12.6759   17.8695 O   0  0  0  0  0  0  0  0  0  0  0  0
   13.8151  -12.8074   20.0001 N   0  0  0  0  0  0  0  0  0  0  0  0
   13.7998  -13.3403   20.8277 H   0  0  0  0  0  0  0  0  0  0  0  0
   13.0729  -11.5466   19.9654 C   0  0  0  0  0  0  0  0  0  0  0  0
   12.2562  -11.3474   21.1879 C   0  0  0  0  0  0  0  0  0  0  0  0
   11.7191  -12.7016   21.6088 C   0  0  0  0  0  0  0  0  0  0  0  0
   10.9066  -12.5047   22.8751 C   0  0  0  0  0  0  0  0  0  0  0  0
   11.7479  -11.8722   24.0092 C   0  0  0  0  0  0  0  0  0  0  0  0
   12.2676  -10.5430   23.5449 C   0  0  0  0  0  0  0  0  0  0  0  0
   13.0829  -10.6710   22.2812 C   0  0  0  0  0  0  0  0  0  0  0  0
   10.9406  -11.6344   25.1695 N   0  0  0  0  0  0  0  0  0  0  0  0
   10.1840  -10.9930   24.9317 H   0  0  0  0  0  0  0  0  0  0  0  0
   11.5155  -11.2240   25.9054 H   0  0  0  0  0  0  0  0  0  0  0  0
   18.2661  -13.2441   21.1702 C   0  0  0  0  0  0  0  0  0  0  0  0
   19.4318  -12.4637   20.7452 N   0  0  0  0  0  0  0  0  0  0  0  0
   20.5648  -13.1361   20.0817 C   0  0  0  0  0  0  0  0  0  0  0  0
   19.0907  -11.7529   20.0980 H   0  0  0  0  0  0  0  0  0  0  0  0
   18.7633  -14.6181   21.7199 C   0  0  0  0  0  0  0  0  0  0  0  0
   19.1497  -14.6705   23.1841 C   0  0  0  0  0  0  0  0  0  0  0  0
   20.4105  -14.2743   23.5637 C   0  0  0  0  0  0  0  0  0  0  0  0
   18.2175  -15.0974   24.1043 C   0  0  0  0  0  0  0  0  0  0  0  0
   20.7375  -14.2692   24.8982 C   0  0  0  0  0  0  0  0  0  0  0  0
   18.5509  -15.0924   25.4293 C   0  0  0  0  0  0  0  0  0  0  0  0
   19.8082  -14.6854   25.8266 C   0  0  0  0  0  0  0  0  0  0  0  0
 19 16  1  0  0  0
 16 17  1  0  0  0
 16 15  1  0  0  0
 17 18  1  0  0  0
 18 13  1  0  0  0
 13 14  1  0  0  0
 13 12  1  0  0  0
 14 15  1  0  0  0
 12 10  1  0  0  0
 10  8  1  0  0  0
  8  9  2  0  0  0
  8  4  1  0  0  0
  4  5  1  0  0  0
  4  3  1  0  0  0
  5  6  1  0  0  0
  6  7  1  0  0  0
  7  3  1  0  0  0
  3  1  1  0  0  0
  1  2  2  0  0  0
  1 22  1  0  0  0
 24 23  1  0  0  0
 23 22  1  0  0  0
 22 26  1  0  0  0
 26 27  1  0  0  0
 27 28  2  0  0  0
 27 29  1  0  0  0
 28 30  1  0  0  0
 30 32  2  0  0  0
 32 31  1  0  0  0
 31 29  2  0  0  0
 23 25  1  0  0  0
 10 11  1  0  0  0
 19 20  1  0  0  0
 19 21  1  0  0  0
M  END
> <minimizedAffinity>
-7.54335

$$$$
1TOM_MIN_H_1


 32 34  0  0  0  0  0  0  0  0999 V2000
   17.1933  -14.6585   22.6507 C   0  0  0  0  0  0  0  0  0  0  0  0
   16.2201  -13.9791   23.0095 O   0  0  0  0  0  0  0  0  0  0  0  0
   18.2148  -14.1121   21.9850 N   0  0  0  0  0  0  0  0  0  0  0  0
   18.2041  -12.7534   21.4370 C   0  0  0  0  0  0  0  0  0  0  0  0
   19.4803  -12.6138   20.6507 C   0  0  0  0  0  0  0  0  0  0  0  0
   20.3522  -13.7194   21.1606 C   0  0  0  0  0  0  0  0  0  0  0  0
   19.3880  -14.8336   21.4921 C   0  0  0  0  0  0  0  0  0  0  0  0
   16.9808  -12.5795   20.5288 C   0  0  0  0  0  0  0  0  0  0  0  0
   17.0299  -13.0474   19.3894 O   0  0  0  0  0  0  0  0  0  0  0  0
   15.8723  -11.9662   20.9827 N   0  0  0  0  0  0  0  0  0  0  0  0
   15.8551  -11.6550   21.9166 H   0  0  0  0  0  0  0  0  0  0  0  0
   14.6913  -11.7417   20.1481 C   0  0  0  0  0  0  0  0  0  0  0  0
   13.4420  -11.7103   20.9479 C   0  0  0  0  0  0  0  0  0  0  0  0
   12.9826  -13.1425   21.1409 C   0  0  0  0  0  0  0  0  0  0  0  0
   11.7203  -13.1147   21.9826 C   0  0  0  0  0  0  0  0  0  0  0  0
   11.9512  -12.4245   23.3480 C   0  0  0  0  0  0  0  0  0  0  0  0
   12.4154  -11.0175   23.1086 C   0  0  0  0  0  0  0  0  0  0  0  0
   13.6692  -10.9768   22.2695 C   0  0  0  0  0  0  0  0  0  0  0  0
   10.7293  -12.3509   24.0939 N   0  0  0  0  0  0  0  0  0  0  0  0
   10.0428  -11.8087   23.5692 H   0  0  0  0  0  0  0  0  0  0  0  0
   10.9054  -11.8991   24.9912 H   0  0  0  0  0  0  0  0  0  0  0  0
   17.2027  -16.1362   23.0354 C   0  0  0  0  0  0  0  0  0  0  0  0
   18.4858  -16.5158   23.6337 N   0  0  0  0  0  0  0  0  0  0  0  0
   18.5847  -16.7248   25.0907 C   0  0  0  0  0  0  0  0  0  0  0  0
   18.7710  -17.3891   23.1905 H   0  0  0  0  0  0  0  0  0  0  0  0
   16.9587  -17.0290   21.7781 C   0  0  0  0  0  0  0  0  0  0  0  0
   15.6494  -16.8311   21.0415 C   0  0  0  0  0  0  0  0  0  0  0  0
   14.4690  -17.1666   21.6617 C   0  0  0  0  0  0  0  0  0  0  0  0
   15.6737  -16.2997   19.7706 C   0  0  0  0  0  0  0  0  0  0  0  0
   13.2810  -16.9323   21.0122 C   0  0  0  0  0  0  0  0  0  0  0  0
   14.4885  -16.0722   19.1300 C   0  0  0  0  0  0  0  0  0  0  0  0
   13.2952  -16.3921   19.7447 C   0  0  0  0  0  0  0  0  0  0  0  0
 19 16  1  0  0  0
 16 17  1  0  0  0
 16 15  1  0  0  0
 17 18  1  0  0  0
 18 13  1  0  0  0
 13 14  1  0  0  0
 13 12  1  0  0  0
 14 15  1  0  0  0
 12 10  1  0  0  0
 10  8  1  0  0  0
  8  9  2  0  0  0
  8  4  1  0  0  0
  4  5  1  0  0  0
  4  3  1  0  0  0
  5  6  1  0  0  0
  6  7  1  0  0  0
  7  3  1  0  0  0
  3  1  1  0  0  0
  1  2  2  0  0  0
  1 22  1  0  0  0
 24 23  1  0  0  0
 23 22  1  0  0  0
 22 26  1  0  0  0
 26 27  1  0  0  0
 27 28  2  0  0  0
 27 29  1  0  0  0
 28 30  1  0  0  0
 30 32  2  0  0  0
 32 31  1  0  0  0
 31 29  2  0  0  0
 23 25  1  0  0  0
 10 11  1  0  0  0
 19 20  1  0  0  0
 19 21  1  0  0  0
M  END
> <minimizedAffinity>
-7.22651

$$$$
1TOM_MIN_H_1


 32 34  0  0  0  0  0  0  0  0999 V2000
   14.2350  -14.1648   20.6602 C   0  0  0  0  0  0  0  0  0  0  0  0
   14.8976  -13.9407   21.6841 O   0  0  0  0  0  0  0  0  0  0  0  0
   13.4219  -15.2216   20.5760 N   0  0  0  0  0  0  0  0  0  0  0  0
   13.3850  -16.3087   21.5575 C   0  0  0  0  0  0  0  0  0  0  0  0
   12.4467  -17.3429   20.9949 C   0  0  0  0  0  0  0  0  0  0  0  0
   11.6565  -16.6025   19.9605 C   0  0  0  0  0  0  0  0  0  0  0  0
   12.6270  -15.5879   19.4039 C   0  0  0  0  0  0  0  0  0  0  0  0
   14.7946  -16.8866   21.7316 C   0  0  0  0  0  0  0  0  0  0  0  0
   15.3065  -17.4719   20.7751 O   0  0  0  0  0  0  0  0  0  0  0  0
   15.4647  -16.7218   22.8869 N   0  0  0  0  0  0  0  0  0  0  0  0
   15.0408  -16.2013   23.6071 H   0  0  0  0  0  0  0  0  0  0  0  0
   16.7962  -17.2828   23.1191 C   0  0  0  0  0  0  0  0  0  0  0  0
   17.8582  -16.2502   23.0340 C   0  0  0  0  0  0  0  0  0  0  0  0
   18.4785  -16.1129   24.4109 C   0  0  0  0  0  0  0  0  0  0  0  0
   19.5840  -15.0775   24.3199 C   0  0  0  0  0  0  0  0  0  0  0  0
   20.6548  -15.4657   23.2726 C   0  0  0  0  0  0  0  0  0  0  0  0
   19.9953  -15.6022   21.9314 C   0  0  0  0  0  0  0  0  0  0  0  0
   18.8789  -16.6176   21.9572 C   0  0  0  0  0  0  0  0  0  0  0  0
   21.6495  -14.4400   23.1579 N   0  0  0  0  0  0  0  0  0  0  0  0
   21.2078  -13.5696   22.8618 H   0  0  0  0  0  0  0  0  0  0  0  0
   22.3475  -14.7189   22.4684 H   0  0  0  0  0  0  0  0  0  0  0  0
   14.3489  -13.1636   19.5128 C   0  0  0  0  0  0  0  0  0  0  0  0
   15.6341  -12.4602   19.5544 N   0  0  0  0  0  0  0  0  0  0  0  0
   16.8159  -13.0478   18.8953 C   0  0  0  0  0  0  0  0  0  0  0  0
   15.4835  -11.5455   19.1288 H   0  0  0  0  0  0  0  0  0  0  0  0
   13.2026  -12.1069   19.5947 C   0  0  0  0  0  0  0  0  0  0  0  0
   12.7944  -11.6455   20.9790 C   0  0  0  0  0  0  0  0  0  0  0  0
   11.6856  -12.1988   21.5749 C   0  0  0  0  0  0  0  0  0  0  0  0
   13.5591  -10.6930   21.6163 C   0  0  0  0  0  0  0  0  0  0  0  0
   11.3522  -11.8190   22.8526 C   0  0  0  0  0  0  0  0  0  0  0  0
   13.2197  -10.3183   22.8856 C   0  0  0  0  0  0  0  0  0  0  0  0
   12.1170  -10.8740   23.5014 C   0  0  0  0  0  0  0  0  0  0  0  0
 19 16  1  0  0  0
 16 17  1  0  0  0
 16 15  1  0  0  0
 17 18  1  0  0  0
 18 13  1  0  0  0
 13 14  1  0  0  0
 13 12  1  0  0  0
 14 15  1  0  0  0
 12 10  1  0  0  0
 10  8  1  0  0  0
  8  9  2  0  0  0
  8  4  1  0  0  0
  4  5  1  0  0  0
  4  3  1  0  0  0
  5  6  1  0  0  0
  6  7  1  0  0  0
  7  3  1  0  0  0
  3  1  1  0  0  0
  1  2  2  0  0  0
  1 22  1  0  0  0
 24 23  1  0  0  0
 23 22  1  0  0  0
 22 26  1  0  0  0
 26 27  1  0  0  0
 27 28  2  0  0  0
 27 29  1  0  0  0
 28 30  1  0  0  0
 30 32  2  0  0  0
 32 31  1  0  0  0
 31 29  2  0  0  0
 23 25  1  0  0  0
 10 11  1  0  0  0
 19 20  1  0  0  0
 19 21  1  0  0  0
M  END
> <minimizedAffinity>
-7.13440

$$$$
1TOM_MIN_H_1


 32 34  0  0  0  0  0  0  0  0999 V2000
   18.1159  -14.7441   22.9645 C   0  0  0  0  0  0  0  0  0  0  0  0
   17.2266  -14.0916   23.5310 O   0  0  0  0  0  0  0  0  0  0  0  0
   18.8751  -14.2007   22.0090 N   0  0  0  0  0  0  0  0  0  0  0  0
   18.6134  -12.8960   21.3958 C   0  0  0  0  0  0  0  0  0  0  0  0
   19.6157  -12.7535   20.2816 C   0  0  0  0  0  0  0  0  0  0  0  0
   20.6745  -13.7620   20.6046 C   0  0  0  0  0  0  0  0  0  0  0  0
   19.9234  -14.8955   21.2617 C   0  0  0  0  0  0  0  0  0  0  0  0
   17.1809  -12.8677   20.8493 C   0  0  0  0  0  0  0  0  0  0  0  0
   16.9285  -13.5316   19.8419 O   0  0  0  0  0  0  0  0  0  0  0  0
   16.2210  -12.1662   21.4797 N   0  0  0  0  0  0  0  0  0  0  0  0
   16.4525  -11.6935   22.3117 H   0  0  0  0  0  0  0  0  0  0  0  0
   14.8477  -12.0757   20.9821 C   0  0  0  0  0  0  0  0  0  0  0  0
   13.8597  -11.9929   22.0858 C   0  0  0  0  0  0  0  0  0  0  0  0
   13.6111  -10.5247   22.3723 C   0  0  0  0  0  0  0  0  0  0  0  0
   12.5798  -10.4373   23.4819 C   0  0  0  0  0  0  0  0  0  0  0  0
   11.2611  -11.1527   23.1030 C   0  0  0  0  0  0  0  0  0  0  0  0
   11.5565  -12.5961   22.8168 C   0  0  0  0  0  0  0  0  0  0  0  0
   12.5833  -12.7508   21.7215 C   0  0  0  0  0  0  0  0  0  0  0  0
   10.3303  -11.1142   24.1924 N   0  0  0  0  0  0  0  0  0  0  0  0
   10.7339  -11.5867   25.0013 H   0  0  0  0  0  0  0  0  0  0  0  0
    9.4676  -11.5849   23.9192 H   0  0  0  0  0  0  0  0  0  0  0  0
   18.3413  -16.1811   23.4294 C   0  0  0  0  0  0  0  0  0  0  0  0
   17.2783  -17.0645   22.9416 N   0  0  0  0  0  0  0  0  0  0  0  0
   17.6251  -18.3039   22.2204 C   0  0  0  0  0  0  0  0  0  0  0  0
   16.7280  -17.3407   23.7548 H   0  0  0  0  0  0  0  0  0  0  0  0
   18.3684  -16.2524   24.9887 C   0  0  0  0  0  0  0  0  0  0  0  0
   18.9897  -17.4884   25.6070 C   0  0  0  0  0  0  0  0  0  0  0  0
   20.3240  -17.7480   25.4004 C   0  0  0  0  0  0  0  0  0  0  0  0
   18.2028  -18.3141   26.3798 C   0  0  0  0  0  0  0  0  0  0  0  0
   20.8963  -18.8385   26.0097 C   0  0  0  0  0  0  0  0  0  0  0  0
   18.7783  -19.3982   26.9801 C   0  0  0  0  0  0  0  0  0  0  0  0
   20.1192  -19.6646   26.7923 C   0  0  0  0  0  0  0  0  0  0  0  0
 19 16  1  0  0  0
 16 17  1  0  0  0
 16 15  1  0  0  0
 17 18  1  0  0  0
 18 13  1  0  0  0
 13 14  1  0  0  0
 13 12  1  0  0  0
 14 15  1  0  0  0
 12 10  1  0  0  0
 10  8  1  0  0  0
  8  9  2  0  0  0
  8  4  1  0  0  0
  4  5  1  0  0  0
  4  3  1  0  0  0
  5  6  1  0  0  0
  6  7  1  0  0  0
  7  3  1  0  0  0
  3  1  1  0  0  0
  1  2  2  0  0  0
  1 22  1  0  0  0
 24 23  1  0  0  0
 23 22  1  0  0  0
 22 26  1  0  0  0
 26 27  1  0  0  0
 27 28  2  0  0  0
 27 29  1  0  0  0
 28 30  1  0  0  0
 30 32  2  0  0  0
 32 31  1  0  0  0
 31 29  2  0  0  0
 23 25  1  0  0  0
 10 11  1  0  0  0
 19 20  1  0  0  0
 19 21  1  0  0  0
M  END
> <minimizedAffinity>
-7.12311

$$$$
1TOM_MIN_H_1


 32 34  0  0  0  0  0  0  0  0999 V2000
   17.3907  -16.1007   22.2559 C   0  0  0  0  0  0  0  0  0  0  0  0
   17.1258  -16.1517   21.0456 O   0  0  0  0  0  0  0  0  0  0  0  0
   16.9778  -17.0519   23.0983 N   0  0  0  0  0  0  0  0  0  0  0  0
   16.0233  -18.1050   22.7427 C   0  0  0  0  0  0  0  0  0  0  0  0
   15.7365  -18.8518   24.0181 C   0  0  0  0  0  0  0  0  0  0  0  0
   16.8702  -18.4850   24.9251 C   0  0  0  0  0  0  0  0  0  0  0  0
   17.2106  -17.0642   24.5425 C   0  0  0  0  0  0  0  0  0  0  0  0
   14.7457  -17.4675   22.1834 C   0  0  0  0  0  0  0  0  0  0  0  0
   14.1342  -18.0687   21.2979 O   0  0  0  0  0  0  0  0  0  0  0  0
   14.2886  -16.3023   22.6775 N   0  0  0  0  0  0  0  0  0  0  0  0
   14.7775  -15.8821   23.4216 H   0  0  0  0  0  0  0  0  0  0  0  0
   13.0962  -15.6326   22.1566 C   0  0  0  0  0  0  0  0  0  0  0  0
   13.4092  -14.2959   21.5941 C   0  0  0  0  0  0  0  0  0  0  0  0
   12.8483  -14.2457   20.1861 C   0  0  0  0  0  0  0  0  0  0  0  0
   13.1426  -12.8695   19.6189 C   0  0  0  0  0  0  0  0  0  0  0  0
   12.5371  -11.7435   20.4905 C   0  0  0  0  0  0  0  0  0  0  0  0
   13.1099  -11.8393   21.8744 C   0  0  0  0  0  0  0  0  0  0  0  0
   12.8542  -13.1918   22.4936 C   0  0  0  0  0  0  0  0  0  0  0  0
   12.8868  -10.4542   19.9710 N   0  0  0  0  0  0  0  0  0  0  0  0
   13.9017  -10.3520   19.9696 H   0  0  0  0  0  0  0  0  0  0  0  0
   12.4728   -9.7282   20.5558 H   0  0  0  0  0  0  0  0  0  0  0  0
   18.2443  -14.9319   22.7428 C   0  0  0  0  0  0  0  0  0  0  0  0
   18.1600  -13.7980   21.8178 N   0  0  0  0  0  0  0  0  0  0  0  0
   16.9764  -12.9178   21.8391 C   0  0  0  0  0  0  0  0  0  0  0  0
   18.9706  -13.2067   22.0016 H   0  0  0  0  0  0  0  0  0  0  0  0
   19.7401  -15.3620   22.8647 C   0  0  0  0  0  0  0  0  0  0  0  0
   20.4914  -14.8866   24.0917 C   0  0  0  0  0  0  0  0  0  0  0  0
   21.8659  -14.8580   24.0721 C   0  0  0  0  0  0  0  0  0  0  0  0
   19.7745  -14.4748   25.1938 C   0  0  0  0  0  0  0  0  0  0  0  0
   22.5414  -14.3725   25.1657 C   0  0  0  0  0  0  0  0  0  0  0  0
   20.4533  -13.9959   26.2786 C   0  0  0  0  0  0  0  0  0  0  0  0
   21.8324  -13.9494   26.2688 C   0  0  0  0  0  0  0  0  0  0  0  0
 19 16  1  0  0  0
 16 17  1  0  0  0
 16 15  1  0  0  0
 17 18  1  0  0  0
 18 13  1  0  0  0
 13 14  1  0  0  0
 13 12  1  0  0  0
 14 15  1  0  0  0
 12 10  1  0  0  0
 10  8  1  0  0  0
  8  9  2  0  0  0
  8  4  1  0  0  0
  4  5  1  0  0  0
  4  3  1  0  0  0
  5  6  1  0  0  0
  6  7  1  0  0  0
  7  3  1  0  0  0
  3  1  1  0  0  0
  1  2  2  0  0  0
  1 22  1  0  0  0
 24 23  1  0  0  0
 23 22  1  0  0  0
 22 26  1  0  0  0
 26 27  1  0  0  0
 27 28  2  0  0  0
 27 29  1  0  0  0
 28 30  1  0  0  0
 30 32  2  0  0  0
 32 31  1  0  0  0
 31 29  2  0  0  0
 23 25  1  0  0  0
 10 11  1  0  0  0
 19 20  1  0  0  0
 19 21  1  0  0  0
M  END
> <minimizedAffinity>
-7.09336

$$$$
1TOM_MIN_H_1


 32 34  0  0  0  0  0  0  0  0999 V2000
   14.8511  -13.5313   21.6345 C   0  0  0  0  0  0  0  0  0  0  0  0
   14.3612  -13.6394   22.7685 O   0  0  0  0  0  0  0  0  0  0  0  0
   14.5104  -14.3653   20.6479 N   0  0  0  0  0  0  0  0  0  0  0  0
   13.7182  -15.5828   20.8394 C   0  0  0  0  0  0  0  0  0  0  0  0
   13.7040  -16.2816   19.5061 C   0  0  0  0  0  0  0  0  0  0  0  0
   14.0935  -15.2182   18.5263 C   0  0  0  0  0  0  0  0  0  0  0  0
   15.0554  -14.3398   19.2905 C   0  0  0  0  0  0  0  0  0  0  0  0
   14.3810  -16.4593   21.9090 C   0  0  0  0  0  0  0  0  0  0  0  0
   13.6556  -17.0285   22.7271 O   0  0  0  0  0  0  0  0  0  0  0  0
   15.7158  -16.6296   21.9245 N   0  0  0  0  0  0  0  0  0  0  0  0
   16.2535  -16.2005   21.2202 H   0  0  0  0  0  0  0  0  0  0  0  0
   16.4026  -17.4251   22.9429 C   0  0  0  0  0  0  0  0  0  0  0  0
   17.8401  -17.0735   23.0482 C   0  0  0  0  0  0  0  0  0  0  0  0
   18.2943  -17.4084   24.4557 C   0  0  0  0  0  0  0  0  0  0  0  0
   19.7714  -17.0760   24.5573 C   0  0  0  0  0  0  0  0  0  0  0  0
   20.6109  -17.8486   23.5122 C   0  0  0  0  0  0  0  0  0  0  0  0
   20.1196  -17.4967   22.1384 C   0  0  0  0  0  0  0  0  0  0  0  0
   18.6502  -17.8000   21.9747 C   0  0  0  0  0  0  0  0  0  0  0  0
   21.9904  -17.4659   23.5843 N   0  0  0  0  0  0  0  0  0  0  0  0
   22.0766  -16.4674   23.3945 H   0  0  0  0  0  0  0  0  0  0  0  0
   22.5255  -17.9909   22.8926 H   0  0  0  0  0  0  0  0  0  0  0  0
   15.8273  -12.3819   21.3942 C   0  0  0  0  0  0  0  0  0  0  0  0
   15.1405  -11.2193   20.8240 N   0  0  0  0  0  0  0  0  0  0  0  0
   14.0298  -10.5868   21.5606 C   0  0  0  0  0  0  0  0  0  0  0  0
   15.8485  -10.4988   20.6823 H   0  0  0  0  0  0  0  0  0  0  0  0
   16.9569  -12.8219   20.4105 C   0  0  0  0  0  0  0  0  0  0  0  0
   18.2889  -13.2030   21.0240 C   0  0  0  0  0  0  0  0  0  0  0  0
   18.3528  -13.5050   22.3639 C   0  0  0  0  0  0  0  0  0  0  0  0
   19.4037  -13.2564   20.2161 C   0  0  0  0  0  0  0  0  0  0  0  0
   19.5512  -13.9054   22.9038 C   0  0  0  0  0  0  0  0  0  0  0  0
   20.5924  -13.6526   20.7607 C   0  0  0  0  0  0  0  0  0  0  0  0
   20.6694  -13.9710   22.1012 C   0  0  0  0  0  0  0  0  0  0  0  0
 19 16  1  0  0  0
 16 17  1  0  0  0
 16 15  1  0  0  0
 17 18  1  0  0  0
 18 13  1  0  0  0
 13 14  1  0  0  0
 13 12  1  0  0  0
 14 15  1  0  0  0
 12 10  1  0  0  0
 10  8  1  0  0  0
  8  9  2  0  0  0
  8  4  1  0  0  0
  4  5  1  0  0  0
  4  3  1  0  0  0
  5  6  1  0  0  0
  6  7  1  0  0  0
  7  3  1  0  0  0
  3  1  1  0  0  0
  1  2  2  0  0  0
  1 22  1  0  0  0
 24 23  1  0  0  0
 23 22  1  0  0  0
 22 26  1  0  0  0
 26 27  1  0  0  0
 27 28  2  0  0  0
 27 29  1  0  0  0
 28 30  1  0  0  0
 30 32  2  0  0  0
 32 31  1  0  0  0
 31 29  2  0  0  0
 23 25  1  0  0  0
 10 11  1  0  0  0
 19 20  1  0  0  0
 19 21  1  0  0  0
M  END
> <minimizedAffinity>
-7.00333

$$$$
1TOM_MIN_H_1


 32 34  0  0  0  0  0  0  0  0999 V2000
   12.9863  -14.7009   20.5805 C   0  0  0  0  0  0  0  0  0  0  0  0
   13.0185  -14.7740   19.3431 O   0  0  0  0  0  0  0  0  0  0  0  0
   13.1054  -13.5289   21.2108 N   0  0  0  0  0  0  0  0  0  0  0  0
   13.4878  -12.2778   20.5513 C   0  0  0  0  0  0  0  0  0  0  0  0
   13.6422  -11.2606   21.6504 C   0  0  0  0  0  0  0  0  0  0  0  0
   12.9066  -11.8553   22.8114 C   0  0  0  0  0  0  0  0  0  0  0  0
   13.1128  -13.3440   22.6619 C   0  0  0  0  0  0  0  0  0  0  0  0
   14.8112  -12.4794   19.8034 C   0  0  0  0  0  0  0  0  0  0  0  0
   14.8008  -12.4120   18.5725 O   0  0  0  0  0  0  0  0  0  0  0  0
   15.9561  -12.6851   20.4800 N   0  0  0  0  0  0  0  0  0  0  0  0
   15.9293  -12.6778   21.4641 H   0  0  0  0  0  0  0  0  0  0  0  0
   17.2392  -12.9190   19.8163 C   0  0  0  0  0  0  0  0  0  0  0  0
   18.3670  -12.9504   20.7798 C   0  0  0  0  0  0  0  0  0  0  0  0
   18.0099  -13.9367   21.8749 C   0  0  0  0  0  0  0  0  0  0  0  0
   19.1740  -13.9915   22.8467 C   0  0  0  0  0  0  0  0  0  0  0  0
   20.4917  -14.4024   22.1475 C   0  0  0  0  0  0  0  0  0  0  0  0
   20.7984  -13.4078   21.0662 C   0  0  0  0  0  0  0  0  0  0  0  0
   19.6723  -13.3024   20.0667 C   0  0  0  0  0  0  0  0  0  0  0  0
   21.5867  -14.3802   23.0723 N   0  0  0  0  0  0  0  0  0  0  0  0
   21.6983  -13.4372   23.4445 H   0  0  0  0  0  0  0  0  0  0  0  0
   22.4424  -14.6600   22.5928 H   0  0  0  0  0  0  0  0  0  0  0  0
   12.7618  -15.9957   21.3583 C   0  0  0  0  0  0  0  0  0  0  0  0
   13.8556  -16.9439   21.1279 N   0  0  0  0  0  0  0  0  0  0  0  0
   14.6908  -17.3920   22.2583 C   0  0  0  0  0  0  0  0  0  0  0  0
   13.4393  -17.7805   20.7190 H   0  0  0  0  0  0  0  0  0  0  0  0
   11.4223  -16.6689   20.9226 C   0  0  0  0  0  0  0  0  0  0  0  0
   11.5291  -17.9413   20.1068 C   0  0  0  0  0  0  0  0  0  0  0  0
   11.7266  -17.8573   18.7487 C   0  0  0  0  0  0  0  0  0  0  0  0
   11.4446  -19.1556   20.7522 C   0  0  0  0  0  0  0  0  0  0  0  0
   11.8800  -19.0130   18.0215 C   0  0  0  0  0  0  0  0  0  0  0  0
   11.5952  -20.3004   20.0220 C   0  0  0  0  0  0  0  0  0  0  0  0
   11.8065  -20.2318   18.6601 C   0  0  0  0  0  0  0  0  0  0  0  0
 19 16  1  0  0  0
 16 17  1  0  0  0
 16 15  1  0  0  0
 17 18  1  0  0  0
 18 13  1  0  0  0
 13 14  1  0  0  0
 13 12  1  0  0  0
 14 15  1  0  0  0
 12 10  1  0  0  0
 10  8  1  0  0  0
  8  9  2  0  0  0
  8  4  1  0  0  0
  4  5  1  0  0  0
  4  3  1  0  0  0
  5  6  1  0  0  0
  6  7  1  0  0  0
  7  3  1  0  0  0
  3  1  1  0  0  0
  1  2  2  0  0  0
  1 22  1  0  0  0
 24 23  1  0  0  0
 23 22  1  0  0  0
 22 26  1  0  0  0
 26 27  1  0  0  0
 27 28  2  0  0  0
 27 29  1  0  0  0
 28 30  1  0  0  0
 30 32  2  0  0  0
 32 31  1  0  0  0
 31 29  2  0  0  0
 23 25  1  0  0  0
 10 11  1  0  0  0
 19 20  1  0  0  0
 19 21  1  0  0  0
M  END
> <minimizedAffinity>
-6.92935

$$$$
