4YES_45S_B_704


 30 32  0  0  0  0  0  0  0  0999 V2000
    5.6340   21.1883   51.6207 C   0  0  0  0  0  0  0  0  0  0  0  0
    6.2491   20.2960   52.1941 O   0  0  0  0  0  0  0  0  0  0  0  0
    6.2290   22.2926   51.0407 N   0  0  0  0  0  0  0  0  0  0  0  0
    5.6954   22.9136   50.4939 H   0  0  0  0  0  0  0  0  0  0  0  0
    4.4617   19.7313   49.4332 C   0  0  0  0  0  0  0  0  0  0  0  0
    5.5782   20.1553   49.1767 O   0  0  0  0  0  0  0  0  0  0  0  0
    3.7558   20.0864   50.5696 N   0  0  0  0  0  0  0  0  0  0  0  0
    4.1417   21.1965   51.4177 C   0  0  0  0  0  0  0  0  0  0  0  0
    3.4220   20.9099   52.7157 C   0  0  0  0  0  0  0  0  0  0  0  0
    2.1505   20.2098   52.2874 C   0  0  0  0  0  0  0  0  0  0  0  0
    2.5835   19.4072   51.0865 C   0  0  0  0  0  0  0  0  0  0  0  0
    3.8856   18.8223   48.4783 C   0  0  0  0  0  0  0  0  0  0  0  0
    2.8354   18.9308   47.5872 C   0  0  0  0  0  0  0  0  0  0  0  0
    2.7426   17.7117   46.8712 C   0  0  0  0  0  0  0  0  0  0  0  0
    3.7566   16.8976   47.3273 C   0  0  0  0  0  0  0  0  0  0  0  0
    4.4256   17.5832   48.2997 N   0  0  0  0  0  0  0  0  0  0  0  0
    4.1539   15.5338   46.9639 C   0  0  0  0  0  0  0  0  0  0  0  0
    5.1942   17.2306   48.8039 H   0  0  0  0  0  0  0  0  0  0  0  0
    7.6365   22.5284   51.2422 C   0  0  0  0  0  0  0  0  0  0  0  0
    8.4689   22.5690   50.0004 C   0  0  0  0  0  0  0  0  0  0  0  0
    9.2314   21.4926   49.5817 C   0  0  0  0  0  0  0  0  0  0  0  0
   10.0263   21.5679   48.4572 C   0  0  0  0  0  0  0  0  0  0  0  0
   10.0808   22.7504   47.7329 C   0  0  0  0  0  0  0  0  0  0  0  0
    9.2979   23.8143   48.1302 C   0  0  0  0  0  0  0  0  0  0  0  0
    9.3317   25.2687   47.1614 Cl  0  0  0  0  0  0  0  0  0  0  0  0
    8.5077   23.7402   49.2590 C   0  0  0  0  0  0  0  0  0  0  0  0
    9.2356   20.1918   50.3262 C   0  0  0  0  0  0  0  0  0  0  0  0
    8.2270   19.2547   49.7544 N   0  0  0  0  0  0  0  0  0  0  0  0
    7.2973   19.6671   49.8320 H   0  0  0  0  0  0  0  0  0  0  0  0
    8.2520   18.3737   50.2677 H   0  0  0  0  0  0  0  0  0  0  0  0
 10 11  1  0  0  0
 10  9  1  0  0  0
 11  7  1  0  0  0
  7  5  1  0  0  0
  7  8  1  0  0  0
  8  9  1  0  0  0
  8  1  1  0  0  0
  1  2  2  0  0  0
  1  3  1  0  0  0
 19 20  1  0  0  0
 19  3  1  0  0  0
  5 12  1  0  0  0
  5  6  2  0  0  0
 12 13  2  0  0  0
 12 16  1  0  0  0
 20 21  2  0  0  0
 20 26  1  0  0  0
 21 22  1  0  0  0
 21 27  1  0  0  0
 22 23  2  0  0  0
 23 24  1  0  0  0
 24 25  1  0  0  0
 24 26  2  0  0  0
 27 28  1  0  0  0
 13 14  1  0  0  0
 14 15  2  0  0  0
 15 17  1  0  0  0
 15 16  1  0  0  0
 16 18  1  0  0  0
  3  4  1  0  0  0
 28 29  1  0  0  0
 28 30  1  0  0  0
M  END
> <minimizedAffinity>
-9.84365

$$$$
4YES_45S_B_704


 30 32  0  0  0  0  0  0  0  0999 V2000
    6.2495   21.1659   52.5835 C   0  0  0  0  0  0  0  0  0  0  0  0
    5.8930   22.1069   53.2841 O   0  0  0  0  0  0  0  0  0  0  0  0
    7.1995   21.2584   51.5839 N   0  0  0  0  0  0  0  0  0  0  0  0
    7.5285   20.4459   51.1357 H   0  0  0  0  0  0  0  0  0  0  0  0
    4.3275   20.1096   50.7200 C   0  0  0  0  0  0  0  0  0  0  0  0
    4.2081   21.3127   50.8941 O   0  0  0  0  0  0  0  0  0  0  0  0
    5.1567   19.3089   51.4864 N   0  0  0  0  0  0  0  0  0  0  0  0
    5.7439   19.7553   52.7339 C   0  0  0  0  0  0  0  0  0  0  0  0
    6.8912   18.7935   52.9428 C   0  0  0  0  0  0  0  0  0  0  0  0
    6.4060   17.4991   52.3269 C   0  0  0  0  0  0  0  0  0  0  0  0
    5.5769   17.9612   51.1551 C   0  0  0  0  0  0  0  0  0  0  0  0
    3.5470   19.5344   49.6570 C   0  0  0  0  0  0  0  0  0  0  0  0
    2.1884   19.3731   49.4651 C   0  0  0  0  0  0  0  0  0  0  0  0
    1.9955   18.7606   48.2021 C   0  0  0  0  0  0  0  0  0  0  0  0
    3.2432   18.5860   47.6435 C   0  0  0  0  0  0  0  0  0  0  0  0
    4.1615   19.0507   48.5401 N   0  0  0  0  0  0  0  0  0  0  0  0
    3.6700   18.0090   46.3650 C   0  0  0  0  0  0  0  0  0  0  0  0
    5.1358   19.0384   48.3994 H   0  0  0  0  0  0  0  0  0  0  0  0
    7.7049   22.5532   51.2027 C   0  0  0  0  0  0  0  0  0  0  0  0
    8.5220   22.5844   49.9504 C   0  0  0  0  0  0  0  0  0  0  0  0
    9.2798   21.5051   49.5309 C   0  0  0  0  0  0  0  0  0  0  0  0
   10.0608   21.5718   48.3961 C   0  0  0  0  0  0  0  0  0  0  0  0
   10.1059   22.7487   47.6621 C   0  0  0  0  0  0  0  0  0  0  0  0
    9.3275   23.8154   48.0605 C   0  0  0  0  0  0  0  0  0  0  0  0
    9.3487   25.2621   47.0801 Cl  0  0  0  0  0  0  0  0  0  0  0  0
    8.5512   23.7498   49.1995 C   0  0  0  0  0  0  0  0  0  0  0  0
    9.2938   20.2101   50.2853 C   0  0  0  0  0  0  0  0  0  0  0  0
    8.4234   19.2016   49.6162 N   0  0  0  0  0  0  0  0  0  0  0  0
    7.4641   19.5466   49.5865 H   0  0  0  0  0  0  0  0  0  0  0  0
    8.4539   18.3261   50.1387 H   0  0  0  0  0  0  0  0  0  0  0  0
 10 11  1  0  0  0
 10  9  1  0  0  0
 11  7  1  0  0  0
  7  5  1  0  0  0
  7  8  1  0  0  0
  8  9  1  0  0  0
  8  1  1  0  0  0
  1  2  2  0  0  0
  1  3  1  0  0  0
 19 20  1  0  0  0
 19  3  1  0  0  0
  5 12  1  0  0  0
  5  6  2  0  0  0
 12 13  2  0  0  0
 12 16  1  0  0  0
 20 21  2  0  0  0
 20 26  1  0  0  0
 21 22  1  0  0  0
 21 27  1  0  0  0
 22 23  2  0  0  0
 23 24  1  0  0  0
 24 25  1  0  0  0
 24 26  2  0  0  0
 27 28  1  0  0  0
 13 14  1  0  0  0
 14 15  2  0  0  0
 15 17  1  0  0  0
 15 16  1  0  0  0
 16 18  1  0  0  0
  3  4  1  0  0  0
 28 29  1  0  0  0
 28 30  1  0  0  0
M  END
> <minimizedAffinity>
-8.50298

$$$$
4YES_45S_B_704


 30 32  0  0  0  0  0  0  0  0999 V2000
    5.2311   21.2160   51.7337 C   0  0  0  0  0  0  0  0  0  0  0  0
    6.0700   22.0822   51.5117 O   0  0  0  0  0  0  0  0  0  0  0  0
    5.4613   20.0914   52.5034 N   0  0  0  0  0  0  0  0  0  0  0  0
    4.7168   19.4931   52.7423 H   0  0  0  0  0  0  0  0  0  0  0  0
    4.4396   19.6866   49.4280 C   0  0  0  0  0  0  0  0  0  0  0  0
    5.6024   20.0568   49.3755 O   0  0  0  0  0  0  0  0  0  0  0  0
    3.5440   20.1263   50.3874 N   0  0  0  0  0  0  0  0  0  0  0  0
    3.8081   21.2658   51.2431 C   0  0  0  0  0  0  0  0  0  0  0  0
    2.8390   21.0744   52.3872 C   0  0  0  0  0  0  0  0  0  0  0  0
    1.6442   20.3976   51.7512 C   0  0  0  0  0  0  0  0  0  0  0  0
    2.2647   19.5173   50.6958 C   0  0  0  0  0  0  0  0  0  0  0  0
    4.0186   18.7487   48.4213 C   0  0  0  0  0  0  0  0  0  0  0  0
    3.2104   18.8608   47.3066 C   0  0  0  0  0  0  0  0  0  0  0  0
    3.1780   17.5993   46.6621 C   0  0  0  0  0  0  0  0  0  0  0  0
    3.9891   16.7544   47.3881 C   0  0  0  0  0  0  0  0  0  0  0  0
    4.4771   17.4649   48.4465 N   0  0  0  0  0  0  0  0  0  0  0  0
    4.3401   15.3422   47.2081 C   0  0  0  0  0  0  0  0  0  0  0  0
    5.0787   17.0997   49.1349 H   0  0  0  0  0  0  0  0  0  0  0  0
    6.7993   19.8011   52.9536 C   0  0  0  0  0  0  0  0  0  0  0  0
    7.4040   18.5444   52.4135 C   0  0  0  0  0  0  0  0  0  0  0  0
    8.3332   18.5484   51.3879 C   0  0  0  0  0  0  0  0  0  0  0  0
    8.8443   17.3744   50.8753 C   0  0  0  0  0  0  0  0  0  0  0  0
    8.4106   16.1577   51.3826 C   0  0  0  0  0  0  0  0  0  0  0  0
    7.5082   16.1518   52.4257 C   0  0  0  0  0  0  0  0  0  0  0  0
    7.0307   14.6085   53.0930 Cl  0  0  0  0  0  0  0  0  0  0  0  0
    6.9926   17.3267   52.9337 C   0  0  0  0  0  0  0  0  0  0  0  0
    8.8316   19.8244   50.7798 C   0  0  0  0  0  0  0  0  0  0  0  0
    8.4293   19.9174   49.3474 N   0  0  0  0  0  0  0  0  0  0  0  0
    8.8312   19.1356   48.8300 H   0  0  0  0  0  0  0  0  0  0  0  0
    8.7692   20.7954   48.9551 H   0  0  0  0  0  0  0  0  0  0  0  0
 10 11  1  0  0  0
 10  9  1  0  0  0
 11  7  1  0  0  0
  7  5  1  0  0  0
  7  8  1  0  0  0
  8  9  1  0  0  0
  8  1  1  0  0  0
  1  2  2  0  0  0
  1  3  1  0  0  0
 19 20  1  0  0  0
 19  3  1  0  0  0
  5 12  1  0  0  0
  5  6  2  0  0  0
 12 13  2  0  0  0
 12 16  1  0  0  0
 20 21  2  0  0  0
 20 26  1  0  0  0
 21 22  1  0  0  0
 21 27  1  0  0  0
 22 23  2  0  0  0
 23 24  1  0  0  0
 24 25  1  0  0  0
 24 26  2  0  0  0
 27 28  1  0  0  0
 13 14  1  0  0  0
 14 15  2  0  0  0
 15 17  1  0  0  0
 15 16  1  0  0  0
 16 18  1  0  0  0
  3  4  1  0  0  0
 28 29  1  0  0  0
 28 30  1  0  0  0
M  END
> <minimizedAffinity>
-7.85438

$$$$
4YES_45S_B_704


 30 32  0  0  0  0  0  0  0  0999 V2000
    3.9602   20.3672   51.6912 C   0  0  0  0  0  0  0  0  0  0  0  0
    3.3871   21.3949   51.3467 O   0  0  0  0  0  0  0  0  0  0  0  0
    3.5778   19.0973   51.3024 N   0  0  0  0  0  0  0  0  0  0  0  0
    4.1456   18.3215   51.5148 H   0  0  0  0  0  0  0  0  0  0  0  0
    6.5544   20.7856   50.5177 C   0  0  0  0  0  0  0  0  0  0  0  0
    5.7683   20.2490   49.7521 O   0  0  0  0  0  0  0  0  0  0  0  0
    6.2923   20.9823   51.8625 N   0  0  0  0  0  0  0  0  0  0  0  0
    5.1960   20.3311   52.5512 C   0  0  0  0  0  0  0  0  0  0  0  0
    5.0120   21.1764   53.7908 C   0  0  0  0  0  0  0  0  0  0  0  0
    6.4053   21.6734   54.1103 C   0  0  0  0  0  0  0  0  0  0  0  0
    7.0268   21.8634   52.7496 C   0  0  0  0  0  0  0  0  0  0  0  0
    7.8059   21.2171   49.9539 C   0  0  0  0  0  0  0  0  0  0  0  0
    9.0125   20.5801   49.7374 C   0  0  0  0  0  0  0  0  0  0  0  0
    9.8881   21.5035   49.1143 C   0  0  0  0  0  0  0  0  0  0  0  0
    9.1837   22.6755   48.9438 C   0  0  0  0  0  0  0  0  0  0  0  0
    7.9366   22.4828   49.4641 N   0  0  0  0  0  0  0  0  0  0  0  0
    9.5617   23.9678   48.3634 C   0  0  0  0  0  0  0  0  0  0  0  0
    7.2274   23.1653   49.4830 H   0  0  0  0  0  0  0  0  0  0  0  0
    2.3416   18.9172   50.5836 C   0  0  0  0  0  0  0  0  0  0  0  0
    2.4781   18.6819   49.1130 C   0  0  0  0  0  0  0  0  0  0  0  0
    3.3535   17.7471   48.5883 C   0  0  0  0  0  0  0  0  0  0  0  0
    3.4952   17.5784   47.2269 C   0  0  0  0  0  0  0  0  0  0  0  0
    2.7592   18.3704   46.3568 C   0  0  0  0  0  0  0  0  0  0  0  0
    1.8632   19.2809   46.8771 C   0  0  0  0  0  0  0  0  0  0  0  0
    0.8981   20.2170   45.7605 Cl  0  0  0  0  0  0  0  0  0  0  0  0
    1.7268   19.4534   48.2394 C   0  0  0  0  0  0  0  0  0  0  0  0
    4.1933   16.8716   49.4685 C   0  0  0  0  0  0  0  0  0  0  0  0
    5.6003   17.3622   49.5106 N   0  0  0  0  0  0  0  0  0  0  0  0
    5.9944   17.3458   48.5700 H   0  0  0  0  0  0  0  0  0  0  0  0
    6.1523   16.7597   50.1211 H   0  0  0  0  0  0  0  0  0  0  0  0
 10 11  1  0  0  0
 10  9  1  0  0  0
 11  7  1  0  0  0
  7  5  1  0  0  0
  7  8  1  0  0  0
  8  9  1  0  0  0
  8  1  1  0  0  0
  1  2  2  0  0  0
  1  3  1  0  0  0
 19 20  1  0  0  0
 19  3  1  0  0  0
  5 12  1  0  0  0
  5  6  2  0  0  0
 12 13  2  0  0  0
 12 16  1  0  0  0
 20 21  2  0  0  0
 20 26  1  0  0  0
 21 22  1  0  0  0
 21 27  1  0  0  0
 22 23  2  0  0  0
 23 24  1  0  0  0
 24 25  1  0  0  0
 24 26  2  0  0  0
 27 28  1  0  0  0
 13 14  1  0  0  0
 14 15  2  0  0  0
 15 17  1  0  0  0
 15 16  1  0  0  0
 16 18  1  0  0  0
  3  4  1  0  0  0
 28 29  1  0  0  0
 28 30  1  0  0  0
M  END
> <minimizedAffinity>
-7.79407

$$$$
4YES_45S_B_704


 30 32  0  0  0  0  0  0  0  0999 V2000
    7.1837   17.7392   50.8330 C   0  0  0  0  0  0  0  0  0  0  0  0
    7.7629   17.2828   49.8534 O   0  0  0  0  0  0  0  0  0  0  0  0
    7.5903   18.8676   51.5195 N   0  0  0  0  0  0  0  0  0  0  0  0
    7.0199   19.2519   52.2240 H   0  0  0  0  0  0  0  0  0  0  0  0
    4.6262   18.5607   49.8001 C   0  0  0  0  0  0  0  0  0  0  0  0
    5.4701   19.4413   49.7332 O   0  0  0  0  0  0  0  0  0  0  0  0
    4.8194   17.3725   50.4835 N   0  0  0  0  0  0  0  0  0  0  0  0
    5.9145   17.1704   51.4109 C   0  0  0  0  0  0  0  0  0  0  0  0
    6.0031   15.6655   51.5226 C   0  0  0  0  0  0  0  0  0  0  0  0
    4.5749   15.1965   51.3483 C   0  0  0  0  0  0  0  0  0  0  0  0
    4.0051   16.1794   50.3567 C   0  0  0  0  0  0  0  0  0  0  0  0
    3.3813   18.8122   49.1240 C   0  0  0  0  0  0  0  0  0  0  0  0
    2.1420   19.2414   49.5582 C   0  0  0  0  0  0  0  0  0  0  0  0
    1.2931   19.3389   48.4280 C   0  0  0  0  0  0  0  0  0  0  0  0
    2.0450   18.9896   47.3273 C   0  0  0  0  0  0  0  0  0  0  0  0
    3.2951   18.6683   47.7710 N   0  0  0  0  0  0  0  0  0  0  0  0
    1.7107   18.9035   45.9022 C   0  0  0  0  0  0  0  0  0  0  0  0
    4.0347   18.3727   47.1922 H   0  0  0  0  0  0  0  0  0  0  0  0
    8.8557   19.4774   51.1966 C   0  0  0  0  0  0  0  0  0  0  0  0
    8.7783   20.8387   50.5821 C   0  0  0  0  0  0  0  0  0  0  0  0
    8.0057   21.8534   51.1194 C   0  0  0  0  0  0  0  0  0  0  0  0
    7.9144   23.0877   50.5108 C   0  0  0  0  0  0  0  0  0  0  0  0
    8.5963   23.3203   49.3247 C   0  0  0  0  0  0  0  0  0  0  0  0
    9.3917   22.3210   48.8038 C   0  0  0  0  0  0  0  0  0  0  0  0
   10.2947   22.6624   47.3468 Cl  0  0  0  0  0  0  0  0  0  0  0  0
    9.4774   21.0844   49.4101 C   0  0  0  0  0  0  0  0  0  0  0  0
    7.2280   21.6660   52.3869 C   0  0  0  0  0  0  0  0  0  0  0  0
    5.7689   21.5633   52.0989 N   0  0  0  0  0  0  0  0  0  0  0  0
    5.4499   22.4214   51.6492 H   0  0  0  0  0  0  0  0  0  0  0  0
    5.2589   21.4269   52.9716 H   0  0  0  0  0  0  0  0  0  0  0  0
 10 11  1  0  0  0
 10  9  1  0  0  0
 11  7  1  0  0  0
  7  5  1  0  0  0
  7  8  1  0  0  0
  8  9  1  0  0  0
  8  1  1  0  0  0
  1  2  2  0  0  0
  1  3  1  0  0  0
 19 20  1  0  0  0
 19  3  1  0  0  0
  5 12  1  0  0  0
  5  6  2  0  0  0
 12 13  2  0  0  0
 12 16  1  0  0  0
 20 21  2  0  0  0
 20 26  1  0  0  0
 21 22  1  0  0  0
 21 27  1  0  0  0
 22 23  2  0  0  0
 23 24  1  0  0  0
 24 25  1  0  0  0
 24 26  2  0  0  0
 27 28  1  0  0  0
 13 14  1  0  0  0
 14 15  2  0  0  0
 15 17  1  0  0  0
 15 16  1  0  0  0
 16 18  1  0  0  0
  3  4  1  0  0  0
 28 29  1  0  0  0
 28 30  1  0  0  0
M  END
> <minimizedAffinity>
-7.60688

$$$$
4YES_45S_B_704


 30 32  0  0  0  0  0  0  0  0999 V2000
    2.8062   18.7143   50.7155 C   0  0  0  0  0  0  0  0  0  0  0  0
    2.0502   18.8965   51.6635 O   0  0  0  0  0  0  0  0  0  0  0  0
    3.7361   19.6372   50.2755 N   0  0  0  0  0  0  0  0  0  0  0  0
    4.3936   19.3888   49.5861 H   0  0  0  0  0  0  0  0  0  0  0  0
    1.4264   18.5141   48.1979 C   0  0  0  0  0  0  0  0  0  0  0  0
    0.8604   19.2497   48.9920 O   0  0  0  0  0  0  0  0  0  0  0  0
    2.4973   17.7063   48.5395 N   0  0  0  0  0  0  0  0  0  0  0  0
    2.8723   17.4410   49.9140 C   0  0  0  0  0  0  0  0  0  0  0  0
    4.2984   16.9533   49.7981 C   0  0  0  0  0  0  0  0  0  0  0  0
    4.3391   16.2419   48.4630 C   0  0  0  0  0  0  0  0  0  0  0  0
    3.3963   17.0516   47.6090 C   0  0  0  0  0  0  0  0  0  0  0  0
    0.9213   18.5142   46.8506 C   0  0  0  0  0  0  0  0  0  0  0  0
    0.9869   19.4304   45.8187 C   0  0  0  0  0  0  0  0  0  0  0  0
    0.3278   18.8714   44.6959 C   0  0  0  0  0  0  0  0  0  0  0  0
   -0.1026   17.6153   45.0648 C   0  0  0  0  0  0  0  0  0  0  0  0
    0.2578   17.4255   46.3675 N   0  0  0  0  0  0  0  0  0  0  0  0
   -0.8366   16.5789   44.3320 C   0  0  0  0  0  0  0  0  0  0  0  0
    0.0648   16.6124   46.8879 H   0  0  0  0  0  0  0  0  0  0  0  0
    3.7362   20.9661   50.8336 C   0  0  0  0  0  0  0  0  0  0  0  0
    4.7804   21.2308   51.8710 C   0  0  0  0  0  0  0  0  0  0  0  0
    6.1196   21.3807   51.5557 C   0  0  0  0  0  0  0  0  0  0  0  0
    7.0713   21.5798   52.5338 C   0  0  0  0  0  0  0  0  0  0  0  0
    6.6882   21.6160   53.8671 C   0  0  0  0  0  0  0  0  0  0  0  0
    5.3504   21.4981   54.1817 C   0  0  0  0  0  0  0  0  0  0  0  0
    4.8861   21.6166   55.8626 Cl  0  0  0  0  0  0  0  0  0  0  0  0
    4.3997   21.2926   53.2029 C   0  0  0  0  0  0  0  0  0  0  0  0
    6.6065   21.3334   50.1389 C   0  0  0  0  0  0  0  0  0  0  0  0
    6.8530   19.9260   49.7137 N   0  0  0  0  0  0  0  0  0  0  0  0
    7.5654   19.5095   50.3131 H   0  0  0  0  0  0  0  0  0  0  0  0
    7.1741   19.9146   48.7456 H   0  0  0  0  0  0  0  0  0  0  0  0
 10 11  1  0  0  0
 10  9  1  0  0  0
 11  7  1  0  0  0
  7  5  1  0  0  0
  7  8  1  0  0  0
  8  9  1  0  0  0
  8  1  1  0  0  0
  1  2  2  0  0  0
  1  3  1  0  0  0
 19 20  1  0  0  0
 19  3  1  0  0  0
  5 12  1  0  0  0
  5  6  2  0  0  0
 12 13  2  0  0  0
 12 16  1  0  0  0
 20 21  2  0  0  0
 20 26  1  0  0  0
 21 22  1  0  0  0
 21 27  1  0  0  0
 22 23  2  0  0  0
 23 24  1  0  0  0
 24 25  1  0  0  0
 24 26  2  0  0  0
 27 28  1  0  0  0
 13 14  1  0  0  0
 14 15  2  0  0  0
 15 17  1  0  0  0
 15 16  1  0  0  0
 16 18  1  0  0  0
  3  4  1  0  0  0
 28 29  1  0  0  0
 28 30  1  0  0  0
M  END
> <minimizedAffinity>
-7.18463

$$$$
4YES_45S_B_704


 30 32  0  0  0  0  0  0  0  0999 V2000
    3.7362   20.4304   51.3105 C   0  0  0  0  0  0  0  0  0  0  0  0
    3.2222   21.5030   51.0128 O   0  0  0  0  0  0  0  0  0  0  0  0
    3.3837   19.2180   50.7486 N   0  0  0  0  0  0  0  0  0  0  0  0
    3.9114   18.4097   50.9418 H   0  0  0  0  0  0  0  0  0  0  0  0
    6.4693   20.6684   50.4411 C   0  0  0  0  0  0  0  0  0  0  0  0
    5.7340   20.2165   49.5767 O   0  0  0  0  0  0  0  0  0  0  0  0
    6.0753   20.8513   51.7554 N   0  0  0  0  0  0  0  0  0  0  0  0
    4.8623   20.2730   52.2981 C   0  0  0  0  0  0  0  0  0  0  0  0
    4.6074   21.0986   53.5385 C   0  0  0  0  0  0  0  0  0  0  0  0
    5.9907   21.4735   54.0244 C   0  0  0  0  0  0  0  0  0  0  0  0
    6.7725   21.6474   52.7467 C   0  0  0  0  0  0  0  0  0  0  0  0
    7.8052   21.0119   50.0320 C   0  0  0  0  0  0  0  0  0  0  0  0
    9.0148   20.3488   50.1074 C   0  0  0  0  0  0  0  0  0  0  0  0
   10.0015   21.1708   49.5090 C   0  0  0  0  0  0  0  0  0  0  0  0
    9.3628   22.3065   49.0605 C   0  0  0  0  0  0  0  0  0  0  0  0
    8.0440   22.1928   49.3937 N   0  0  0  0  0  0  0  0  0  0  0  0
    9.8608   23.5003   48.3700 C   0  0  0  0  0  0  0  0  0  0  0  0
    7.3580   22.8717   49.1994 H   0  0  0  0  0  0  0  0  0  0  0  0
    2.2376   19.1458   49.8776 C   0  0  0  0  0  0  0  0  0  0  0  0
    2.4486   18.4112   48.5921 C   0  0  0  0  0  0  0  0  0  0  0  0
    1.5874   18.5349   47.5158 C   0  0  0  0  0  0  0  0  0  0  0  0
    1.7771   17.8135   46.3558 C   0  0  0  0  0  0  0  0  0  0  0  0
    2.8432   16.9300   46.2635 C   0  0  0  0  0  0  0  0  0  0  0  0
    3.7207   16.8281   47.3228 C   0  0  0  0  0  0  0  0  0  0  0  0
    5.0943   15.7604   47.1548 Cl  0  0  0  0  0  0  0  0  0  0  0  0
    3.5266   17.5456   48.4854 C   0  0  0  0  0  0  0  0  0  0  0  0
    0.4052   19.4555   47.5532 C   0  0  0  0  0  0  0  0  0  0  0  0
   -0.8367   18.7040   47.8924 N   0  0  0  0  0  0  0  0  0  0  0  0
   -1.0066   17.9904   47.1837 H   0  0  0  0  0  0  0  0  0  0  0  0
   -1.6267   19.3485   47.9221 H   0  0  0  0  0  0  0  0  0  0  0  0
 10 11  1  0  0  0
 10  9  1  0  0  0
 11  7  1  0  0  0
  7  5  1  0  0  0
  7  8  1  0  0  0
  8  9  1  0  0  0
  8  1  1  0  0  0
  1  2  2  0  0  0
  1  3  1  0  0  0
 19 20  1  0  0  0
 19  3  1  0  0  0
  5 12  1  0  0  0
  5  6  2  0  0  0
 12 13  2  0  0  0
 12 16  1  0  0  0
 20 21  2  0  0  0
 20 26  1  0  0  0
 21 22  1  0  0  0
 21 27  1  0  0  0
 22 23  2  0  0  0
 23 24  1  0  0  0
 24 25  1  0  0  0
 24 26  2  0  0  0
 27 28  1  0  0  0
 13 14  1  0  0  0
 14 15  2  0  0  0
 15 17  1  0  0  0
 15 16  1  0  0  0
 16 18  1  0  0  0
  3  4  1  0  0  0
 28 29  1  0  0  0
 28 30  1  0  0  0
M  END
> <minimizedAffinity>
-7.12064

$$$$
4YES_45S_B_704


 30 32  0  0  0  0  0  0  0  0999 V2000
    5.6049   20.6281   51.8536 C   0  0  0  0  0  0  0  0  0  0  0  0
    4.8753   20.8944   52.8023 O   0  0  0  0  0  0  0  0  0  0  0  0
    5.1722   20.0298   50.6853 N   0  0  0  0  0  0  0  0  0  0  0  0
    5.7800   19.9486   49.9151 H   0  0  0  0  0  0  0  0  0  0  0  0
    7.5645   18.5676   52.2971 C   0  0  0  0  0  0  0  0  0  0  0  0
    6.5341   18.3861   52.9274 O   0  0  0  0  0  0  0  0  0  0  0  0
    7.8394   19.7369   51.6093 N   0  0  0  0  0  0  0  0  0  0  0  0
    7.0741   20.9538   51.7941 C   0  0  0  0  0  0  0  0  0  0  0  0
    7.3955   21.7589   50.5557 C   0  0  0  0  0  0  0  0  0  0  0  0
    8.8161   21.3635   50.2154 C   0  0  0  0  0  0  0  0  0  0  0  0
    8.8761   19.9094   50.6103 C   0  0  0  0  0  0  0  0  0  0  0  0
    8.5159   17.4882   52.2979 C   0  0  0  0  0  0  0  0  0  0  0  0
    9.7037   17.2783   52.9714 C   0  0  0  0  0  0  0  0  0  0  0  0
   10.1997   16.0054   52.5955 C   0  0  0  0  0  0  0  0  0  0  0  0
    9.2871   15.4594   51.7191 C   0  0  0  0  0  0  0  0  0  0  0  0
    8.2871   16.3726   51.5483 N   0  0  0  0  0  0  0  0  0  0  0  0
    9.2620   14.1788   51.0056 C   0  0  0  0  0  0  0  0  0  0  0  0
    7.5062   16.2432   50.9629 H   0  0  0  0  0  0  0  0  0  0  0  0
    3.8245   19.5256   50.6031 C   0  0  0  0  0  0  0  0  0  0  0  0
    3.4447   18.9081   49.2950 C   0  0  0  0  0  0  0  0  0  0  0  0
    3.9390   17.6838   48.8801 C   0  0  0  0  0  0  0  0  0  0  0  0
    3.6098   17.1543   47.6500 C   0  0  0  0  0  0  0  0  0  0  0  0
    2.7781   17.8656   46.7967 C   0  0  0  0  0  0  0  0  0  0  0  0
    2.2592   19.0714   47.2204 C   0  0  0  0  0  0  0  0  0  0  0  0
    1.1592   19.9144   46.1555 Cl  0  0  0  0  0  0  0  0  0  0  0  0
    2.5941   19.6034   48.4488 C   0  0  0  0  0  0  0  0  0  0  0  0
    4.8568   16.8707   49.7420 C   0  0  0  0  0  0  0  0  0  0  0  0
    6.2815   17.1461   49.4003 N   0  0  0  0  0  0  0  0  0  0  0  0
    6.4513   16.8984   48.4255 H   0  0  0  0  0  0  0  0  0  0  0  0
    6.8891   16.5913   50.0030 H   0  0  0  0  0  0  0  0  0  0  0  0
 10 11  1  0  0  0
 10  9  1  0  0  0
 11  7  1  0  0  0
  7  5  1  0  0  0
  7  8  1  0  0  0
  8  9  1  0  0  0
  8  1  1  0  0  0
  1  2  2  0  0  0
  1  3  1  0  0  0
 19 20  1  0  0  0
 19  3  1  0  0  0
  5 12  1  0  0  0
  5  6  2  0  0  0
 12 13  2  0  0  0
 12 16  1  0  0  0
 20 21  2  0  0  0
 20 26  1  0  0  0
 21 22  1  0  0  0
 21 27  1  0  0  0
 22 23  2  0  0  0
 23 24  1  0  0  0
 24 25  1  0  0  0
 24 26  2  0  0  0
 27 28  1  0  0  0
 13 14  1  0  0  0
 14 15  2  0  0  0
 15 17  1  0  0  0
 15 16  1  0  0  0
 16 18  1  0  0  0
  3  4  1  0  0  0
 28 29  1  0  0  0
 28 30  1  0  0  0
M  END
> <minimizedAffinity>
-6.95032

$$$$
4YES_45S_B_704


 30 32  0  0  0  0  0  0  0  0999 V2000
    4.4351   16.0057   49.5293 C   0  0  0  0  0  0  0  0  0  0  0  0
    4.1391   15.5141   50.6128 O   0  0  0  0  0  0  0  0  0  0  0  0
    5.3944   16.9856   49.3574 N   0  0  0  0  0  0  0  0  0  0  0  0
    5.6703   17.2562   48.4519 H   0  0  0  0  0  0  0  0  0  0  0  0
    2.3104   17.5469   48.3491 C   0  0  0  0  0  0  0  0  0  0  0  0
    2.2962   17.5762   49.5702 O   0  0  0  0  0  0  0  0  0  0  0  0
    3.1280   16.7024   47.6181 N   0  0  0  0  0  0  0  0  0  0  0  0
    3.8347   15.5859   48.2135 C   0  0  0  0  0  0  0  0  0  0  0  0
    4.9168   15.2800   47.2033 C   0  0  0  0  0  0  0  0  0  0  0  0
    4.2913   15.6349   45.8717 C   0  0  0  0  0  0  0  0  0  0  0  0
    3.4191   16.8197   46.2025 C   0  0  0  0  0  0  0  0  0  0  0  0
    1.4146   18.4487   47.6751 C   0  0  0  0  0  0  0  0  0  0  0  0
    1.5645   19.2930   46.5919 C   0  0  0  0  0  0  0  0  0  0  0  0
    0.3178   19.9224   46.3530 C   0  0  0  0  0  0  0  0  0  0  0  0
   -0.5695   19.4263   47.2834 C   0  0  0  0  0  0  0  0  0  0  0  0
    0.1145   18.5481   48.0734 N   0  0  0  0  0  0  0  0  0  0  0  0
   -1.9886   19.7037   47.5260 C   0  0  0  0  0  0  0  0  0  0  0  0
   -0.2780   18.0533   48.8286 H   0  0  0  0  0  0  0  0  0  0  0  0
    5.9880   17.6084   50.5138 C   0  0  0  0  0  0  0  0  0  0  0  0
    5.5020   18.9881   50.8251 C   0  0  0  0  0  0  0  0  0  0  0  0
    6.2614   20.1175   50.5737 C   0  0  0  0  0  0  0  0  0  0  0  0
    5.8112   21.3770   50.9101 C   0  0  0  0  0  0  0  0  0  0  0  0
    4.5777   21.5223   51.5292 C   0  0  0  0  0  0  0  0  0  0  0  0
    3.8055   20.4015   51.7524 C   0  0  0  0  0  0  0  0  0  0  0  0
    2.2266   20.6185   52.4700 Cl  0  0  0  0  0  0  0  0  0  0  0  0
    4.2595   19.1411   51.4212 C   0  0  0  0  0  0  0  0  0  0  0  0
    7.6103   20.0330   49.9258 C   0  0  0  0  0  0  0  0  0  0  0  0
    8.0943   21.3888   49.5388 N   0  0  0  0  0  0  0  0  0  0  0  0
    7.4429   21.8053   48.8735 H   0  0  0  0  0  0  0  0  0  0  0  0
    9.0160   21.3109   49.1089 H   0  0  0  0  0  0  0  0  0  0  0  0
 10 11  1  0  0  0
 10  9  1  0  0  0
 11  7  1  0  0  0
  7  5  1  0  0  0
  7  8  1  0  0  0
  8  9  1  0  0  0
  8  1  1  0  0  0
  1  2  2  0  0  0
  1  3  1  0  0  0
 19 20  1  0  0  0
 19  3  1  0  0  0
  5 12  1  0  0  0
  5  6  2  0  0  0
 12 13  2  0  0  0
 12 16  1  0  0  0
 20 21  2  0  0  0
 20 26  1  0  0  0
 21 22  1  0  0  0
 21 27  1  0  0  0
 22 23  2  0  0  0
 23 24  1  0  0  0
 24 25  1  0  0  0
 24 26  2  0  0  0
 27 28  1  0  0  0
 13 14  1  0  0  0
 14 15  2  0  0  0
 15 17  1  0  0  0
 15 16  1  0  0  0
 16 18  1  0  0  0
  3  4  1  0  0  0
 28 29  1  0  0  0
 28 30  1  0  0  0
M  END
> <minimizedAffinity>
-6.92606

$$$$
4YES_45S_B_704


 30 32  0  0  0  0  0  0  0  0999 V2000
    5.7840   16.6858   50.2514 C   0  0  0  0  0  0  0  0  0  0  0  0
    5.2116   16.5752   51.3300 O   0  0  0  0  0  0  0  0  0  0  0  0
    5.1426   16.6727   49.0272 N   0  0  0  0  0  0  0  0  0  0  0  0
    5.6404   16.8833   48.2043 H   0  0  0  0  0  0  0  0  0  0  0  0
    6.8702   19.3508   50.2551 C   0  0  0  0  0  0  0  0  0  0  0  0
    5.7420   19.2989   49.7900 O   0  0  0  0  0  0  0  0  0  0  0  0
    7.6216   18.2277   50.5552 N   0  0  0  0  0  0  0  0  0  0  0  0
    7.2664   16.9004   50.0942 C   0  0  0  0  0  0  0  0  0  0  0  0
    8.0413   15.9910   51.0201 C   0  0  0  0  0  0  0  0  0  0  0  0
    9.2970   16.7723   51.3410 C   0  0  0  0  0  0  0  0  0  0  0  0
    8.8177   18.2017   51.3744 C   0  0  0  0  0  0  0  0  0  0  0  0
    7.4101   20.6647   50.4843 C   0  0  0  0  0  0  0  0  0  0  0  0
    7.3686   21.5265   51.5632 C   0  0  0  0  0  0  0  0  0  0  0  0
    8.1125   22.6843   51.2260 C   0  0  0  0  0  0  0  0  0  0  0  0
    8.6107   22.4882   49.9563 C   0  0  0  0  0  0  0  0  0  0  0  0
    8.1682   21.2705   49.5267 N   0  0  0  0  0  0  0  0  0  0  0  0
    9.4417   23.3312   49.0910 C   0  0  0  0  0  0  0  0  0  0  0  0
    8.3693   20.8822   48.6446 H   0  0  0  0  0  0  0  0  0  0  0  0
    3.7397   16.3486   48.9643 C   0  0  0  0  0  0  0  0  0  0  0  0
    2.8417   17.4528   48.5049 C   0  0  0  0  0  0  0  0  0  0  0  0
    2.1856   18.2927   49.3878 C   0  0  0  0  0  0  0  0  0  0  0  0
    1.3272   19.2761   48.9425 C   0  0  0  0  0  0  0  0  0  0  0  0
    1.0985   19.4229   47.5816 C   0  0  0  0  0  0  0  0  0  0  0  0
    1.7750   18.6077   46.6982 C   0  0  0  0  0  0  0  0  0  0  0  0
    1.5224   18.8588   44.9871 Cl  0  0  0  0  0  0  0  0  0  0  0  0
    2.6288   17.6200   47.1449 C   0  0  0  0  0  0  0  0  0  0  0  0
    2.3707   18.1784   50.8707 C   0  0  0  0  0  0  0  0  0  0  0  0
    3.3921   19.1525   51.3504 N   0  0  0  0  0  0  0  0  0  0  0  0
    4.2857   18.9585   50.8984 H   0  0  0  0  0  0  0  0  0  0  0  0
    3.4965   19.0656   52.3613 H   0  0  0  0  0  0  0  0  0  0  0  0
 10 11  1  0  0  0
 10  9  1  0  0  0
 11  7  1  0  0  0
  7  5  1  0  0  0
  7  8  1  0  0  0
  8  9  1  0  0  0
  8  1  1  0  0  0
  1  2  2  0  0  0
  1  3  1  0  0  0
 19 20  1  0  0  0
 19  3  1  0  0  0
  5 12  1  0  0  0
  5  6  2  0  0  0
 12 13  2  0  0  0
 12 16  1  0  0  0
 20 21  2  0  0  0
 20 26  1  0  0  0
 21 22  1  0  0  0
 21 27  1  0  0  0
 22 23  2  0  0  0
 23 24  1  0  0  0
 24 25  1  0  0  0
 24 26  2  0  0  0
 27 28  1  0  0  0
 13 14  1  0  0  0
 14 15  2  0  0  0
 15 17  1  0  0  0
 15 16  1  0  0  0
 16 18  1  0  0  0
  3  4  1  0  0  0
 28 29  1  0  0  0
 28 30  1  0  0  0
M  END
> <minimizedAffinity>
-6.89854

$$$$
