5F74_AMP_A_301


 29 31  0  0  0  0  0  0  0  0999 V2000
   13.6845   44.1913    8.5015 C   0  0  0  0  0  0  0  0  0  0  0  0
   13.4074   43.7869    7.1730 O   0  0  0  0  0  0  0  0  0  0  0  0
   12.2734   44.3215    9.2250 C   0  0  0  0  0  0  0  0  0  0  0  0
   12.1835   45.4734   10.0396 O   0  0  0  0  0  0  0  0  0  0  0  0
   11.2310   44.4093    8.0148 C   0  0  0  0  0  0  0  0  0  0  0  0
   10.7581   45.7455    7.8678 O   0  0  0  0  0  0  0  0  0  0  0  0
   12.1427   44.1879    6.7172 C   0  0  0  0  0  0  0  0  0  0  0  0
   12.3368   46.2643    9.4993 H   0  0  0  0  0  0  0  0  0  0  0  0
   11.5115   46.3428    7.7392 H   0  0  0  0  0  0  0  0  0  0  0  0
   11.5432   43.2197    5.6676 N   0  0  0  0  0  0  0  0  0  0  0  0
   11.5717   43.3498    4.2256 C   0  0  0  0  0  0  0  0  0  0  0  0
   10.9456   42.3351    3.5816 N   0  0  0  0  0  0  0  0  0  0  0  0
   10.4681   41.4860    4.6170 C   0  0  0  0  0  0  0  0  0  0  0  0
    9.7253   40.2618    4.5896 C   0  0  0  0  0  0  0  0  0  0  0  0
    9.3231   39.6638    3.3959 N   0  0  0  0  0  0  0  0  0  0  0  0
    9.3866   39.6177    5.7814 N   0  0  0  0  0  0  0  0  0  0  0  0
    9.8010   40.2460    6.9449 C   0  0  0  0  0  0  0  0  0  0  0  0
   10.4984   41.3845    7.1257 N   0  0  0  0  0  0  0  0  0  0  0  0
   10.8328   42.0171    5.9157 C   0  0  0  0  0  0  0  0  0  0  0  0
    9.5428   40.0872    2.5347 H   0  0  0  0  0  0  0  0  0  0  0  0
    8.8194   38.8181    3.4143 H   0  0  0  0  0  0  0  0  0  0  0  0
   14.6332   43.0772    9.1683 C   0  0  0  0  0  0  0  0  0  0  0  0
   14.1013   42.7382   10.3684 O   0  0  0  0  0  0  0  0  0  0  0  0
   13.5519   41.0812   10.6463 P   0  0  0  0  0  0  0  0  0  0  0  0
   14.7782   40.2922   10.2638 O   0  0  0  0  0  0  0  0  0  0  0  0
   13.1908   41.1084   12.1056 O   0  0  0  0  0  0  0  0  0  0  0  0
   12.4393   41.0365    9.6189 O   0  0  0  0  0  0  0  0  0  0  0  0
   12.8696   40.2338   12.3755 H   0  0  0  0  0  0  0  0  0  0  0  0
   12.0158   40.1641    9.6386 H   0  0  0  0  0  0  0  0  0  0  0  0
 24 25  2  0  0  0
 24 26  1  0  0  0
 24 27  1  0  0  0
 24 23  1  0  0  0
 23 22  1  0  0  0
 22  1  1  0  0  0
  1  2  1  0  0  0
  1  3  1  0  0  0
  2  7  1  0  0  0
  3  4  1  0  0  0
  3  5  1  0  0  0
  5  6  1  0  0  0
  5  7  1  0  0  0
  7 10  1  0  0  0
 10 11  1  0  0  0
 10 19  1  0  0  0
 11 12  2  0  0  0
 12 13  1  0  0  0
 13 14  1  0  0  0
 13 19  2  0  0  0
 14 15  1  0  0  0
 14 16  2  0  0  0
 16 17  1  0  0  0
 17 18  2  0  0  0
 18 19  1  0  0  0
 26 28  1  0  0  0
 27 29  1  0  0  0
  4  8  1  0  0  0
  6  9  1  0  0  0
 15 20  1  0  0  0
 15 21  1  0  0  0
M  END
> <minimizedAffinity>
-8.57504

$$$$
5F74_AMP_A_301


 29 31  0  0  0  0  0  0  0  0999 V2000
   15.3834   43.7705    8.4422 C   0  0  0  0  0  0  0  0  0  0  0  0
   15.7746   42.7090    7.5906 O   0  0  0  0  0  0  0  0  0  0  0  0
   15.3313   45.0716    7.5278 C   0  0  0  0  0  0  0  0  0  0  0  0
   15.8913   46.2048    8.1609 O   0  0  0  0  0  0  0  0  0  0  0  0
   16.1910   44.6679    6.2407 C   0  0  0  0  0  0  0  0  0  0  0  0
   17.4630   45.3092    6.2768 O   0  0  0  0  0  0  0  0  0  0  0  0
   16.5400   43.1253    6.4911 C   0  0  0  0  0  0  0  0  0  0  0  0
   16.8138   46.0203    8.3972 H   0  0  0  0  0  0  0  0  0  0  0  0
   17.9182   45.0784    7.1017 H   0  0  0  0  0  0  0  0  0  0  0  0
   16.3608   42.2159    5.2504 N   0  0  0  0  0  0  0  0  0  0  0  0
   15.7315   42.5520    3.9902 C   0  0  0  0  0  0  0  0  0  0  0  0
   15.7236   41.5278    3.1029 N   0  0  0  0  0  0  0  0  0  0  0  0
   16.3633   40.4540    3.7803 C   0  0  0  0  0  0  0  0  0  0  0  0
   16.6552   39.1081    3.3872 C   0  0  0  0  0  0  0  0  0  0  0  0
   16.3103   38.6097    2.1315 N   0  0  0  0  0  0  0  0  0  0  0  0
   17.3149   38.2461    4.2659 N   0  0  0  0  0  0  0  0  0  0  0  0
   17.6364   38.7781    5.5043 C   0  0  0  0  0  0  0  0  0  0  0  0
   17.4300   40.0100    6.0096 N   0  0  0  0  0  0  0  0  0  0  0  0
   16.7679   40.8641    5.1106 C   0  0  0  0  0  0  0  0  0  0  0  0
   15.8443   39.1866    1.4839 H   0  0  0  0  0  0  0  0  0  0  0  0
   16.5328   37.6809    1.8925 H   0  0  0  0  0  0  0  0  0  0  0  0
   13.9565   43.3914    9.0793 C   0  0  0  0  0  0  0  0  0  0  0  0
   14.1780   42.7839   10.2709 O   0  0  0  0  0  0  0  0  0  0  0  0
   13.5525   41.1549   10.5532 P   0  0  0  0  0  0  0  0  0  0  0  0
   13.2233   41.2124   12.0233 O   0  0  0  0  0  0  0  0  0  0  0  0
   12.3911   41.0926    9.6002 O   0  0  0  0  0  0  0  0  0  0  0  0
   14.8076   40.3711   10.2280 O   0  0  0  0  0  0  0  0  0  0  0  0
   11.9623   40.2253    9.6694 H   0  0  0  0  0  0  0  0  0  0  0  0
   14.6337   39.4230   10.3360 H   0  0  0  0  0  0  0  0  0  0  0  0
 24 25  2  0  0  0
 24 26  1  0  0  0
 24 27  1  0  0  0
 24 23  1  0  0  0
 23 22  1  0  0  0
 22  1  1  0  0  0
  1  2  1  0  0  0
  1  3  1  0  0  0
  2  7  1  0  0  0
  3  4  1  0  0  0
  3  5  1  0  0  0
  5  6  1  0  0  0
  5  7  1  0  0  0
  7 10  1  0  0  0
 10 11  1  0  0  0
 10 19  1  0  0  0
 11 12  2  0  0  0
 12 13  1  0  0  0
 13 14  1  0  0  0
 13 19  2  0  0  0
 14 15  1  0  0  0
 14 16  2  0  0  0
 16 17  1  0  0  0
 17 18  2  0  0  0
 18 19  1  0  0  0
 26 28  1  0  0  0
 27 29  1  0  0  0
  4  8  1  0  0  0
  6  9  1  0  0  0
 15 20  1  0  0  0
 15 21  1  0  0  0
M  END
> <minimizedAffinity>
-8.28506

$$$$
5F74_AMP_A_301


 29 31  0  0  0  0  0  0  0  0999 V2000
   15.5952   43.9946    8.8901 C   0  0  0  0  0  0  0  0  0  0  0  0
   16.6224   43.6050    7.9967 O   0  0  0  0  0  0  0  0  0  0  0  0
   14.2546   44.0227    8.0336 C   0  0  0  0  0  0  0  0  0  0  0  0
   13.4484   45.1479    8.3209 O   0  0  0  0  0  0  0  0  0  0  0  0
   14.7699   44.0752    6.5202 C   0  0  0  0  0  0  0  0  0  0  0  0
   14.5915   45.3834    5.9841 O   0  0  0  0  0  0  0  0  0  0  0  0
   16.3592   43.9392    6.6599 C   0  0  0  0  0  0  0  0  0  0  0  0
   13.9519   45.9589    8.1481 H   0  0  0  0  0  0  0  0  0  0  0  0
   15.0513   46.0280    6.5445 H   0  0  0  0  0  0  0  0  0  0  0  0
   17.0120   42.9610    5.6521 N   0  0  0  0  0  0  0  0  0  0  0  0
   17.5645   43.2704    4.3498 C   0  0  0  0  0  0  0  0  0  0  0  0
   18.0558   42.1859    3.7026 N   0  0  0  0  0  0  0  0  0  0  0  0
   17.8266   41.0981    4.5887 C   0  0  0  0  0  0  0  0  0  0  0  0
   18.1083   39.6978    4.4837 C   0  0  0  0  0  0  0  0  0  0  0  0
   18.7228   39.1460    3.3603 N   0  0  0  0  0  0  0  0  0  0  0  0
   17.7768   38.8333    5.5291 N   0  0  0  0  0  0  0  0  0  0  0  0
   17.1643   39.4199    6.6250 C   0  0  0  0  0  0  0  0  0  0  0  0
   16.8406   40.7057    6.8643 N   0  0  0  0  0  0  0  0  0  0  0  0
   17.1842   41.5610    5.8030 C   0  0  0  0  0  0  0  0  0  0  0  0
   18.9719   39.7228    2.6023 H   0  0  0  0  0  0  0  0  0  0  0  0
   18.9076   38.1797    3.3250 H   0  0  0  0  0  0  0  0  0  0  0  0
   15.5532   42.9248   10.0900 C   0  0  0  0  0  0  0  0  0  0  0  0
   14.2616   42.7780   10.4750 O   0  0  0  0  0  0  0  0  0  0  0  0
   13.5762   41.1572   10.6417 P   0  0  0  0  0  0  0  0  0  0  0  0
   14.7413   40.2962   10.2247 O   0  0  0  0  0  0  0  0  0  0  0  0
   13.1942   41.1234   12.0956 O   0  0  0  0  0  0  0  0  0  0  0  0
   12.4809   41.2666    9.6007 O   0  0  0  0  0  0  0  0  0  0  0  0
   12.7993   40.2629   12.3062 H   0  0  0  0  0  0  0  0  0  0  0  0
   11.9883   40.4319    9.5606 H   0  0  0  0  0  0  0  0  0  0  0  0
 24 25  2  0  0  0
 24 26  1  0  0  0
 24 27  1  0  0  0
 24 23  1  0  0  0
 23 22  1  0  0  0
 22  1  1  0  0  0
  1  2  1  0  0  0
  1  3  1  0  0  0
  2  7  1  0  0  0
  3  4  1  0  0  0
  3  5  1  0  0  0
  5  6  1  0  0  0
  5  7  1  0  0  0
  7 10  1  0  0  0
 10 11  1  0  0  0
 10 19  1  0  0  0
 11 12  2  0  0  0
 12 13  1  0  0  0
 13 14  1  0  0  0
 13 19  2  0  0  0
 14 15  1  0  0  0
 14 16  2  0  0  0
 16 17  1  0  0  0
 17 18  2  0  0  0
 18 19  1  0  0  0
 26 28  1  0  0  0
 27 29  1  0  0  0
  4  8  1  0  0  0
  6  9  1  0  0  0
 15 20  1  0  0  0
 15 21  1  0  0  0
M  END
> <minimizedAffinity>
-8.22262

$$$$
5F74_AMP_A_301


 29 31  0  0  0  0  0  0  0  0999 V2000
   15.3717   43.9793    8.5686 C   0  0  0  0  0  0  0  0  0  0  0  0
   16.2172   42.9142    8.1741 O   0  0  0  0  0  0  0  0  0  0  0  0
   15.2462   44.9336    7.3017 C   0  0  0  0  0  0  0  0  0  0  0  0
   15.3289   46.3034    7.6415 O   0  0  0  0  0  0  0  0  0  0  0  0
   16.4837   44.5099    6.3809 C   0  0  0  0  0  0  0  0  0  0  0  0
   17.5070   45.4995    6.4449 O   0  0  0  0  0  0  0  0  0  0  0  0
   17.1186   43.2613    7.1567 C   0  0  0  0  0  0  0  0  0  0  0  0
   16.1738   46.4759    8.0857 H   0  0  0  0  0  0  0  0  0  0  0  0
   17.7727   45.6306    7.3685 H   0  0  0  0  0  0  0  0  0  0  0  0
   17.4962   42.0646    6.2491 N   0  0  0  0  0  0  0  0  0  0  0  0
   17.1484   40.6708    6.4322 C   0  0  0  0  0  0  0  0  0  0  0  0
   17.6421   39.8616    5.4637 N   0  0  0  0  0  0  0  0  0  0  0  0
   18.3559   40.7294    4.5928 C   0  0  0  0  0  0  0  0  0  0  0  0
   19.1040   40.4865    3.3959 C   0  0  0  0  0  0  0  0  0  0  0  0
   19.2485   39.2088    2.8568 N   0  0  0  0  0  0  0  0  0  0  0  0
   19.7119   41.5461    2.7192 N   0  0  0  0  0  0  0  0  0  0  0  0
   19.5481   42.7984    3.2893 C   0  0  0  0  0  0  0  0  0  0  0  0
   18.8800   43.1771    4.3964 N   0  0  0  0  0  0  0  0  0  0  0  0
   18.2727   42.0984    5.0624 C   0  0  0  0  0  0  0  0  0  0  0  0
   18.8347   38.4358    3.3046 H   0  0  0  0  0  0  0  0  0  0  0  0
   19.7644   39.0795    2.0283 H   0  0  0  0  0  0  0  0  0  0  0  0
   13.9640   43.3489    9.0236 C   0  0  0  0  0  0  0  0  0  0  0  0
   14.1277   42.8028   10.2536 O   0  0  0  0  0  0  0  0  0  0  0  0
   13.5568   41.1592   10.5653 P   0  0  0  0  0  0  0  0  0  0  0  0
   13.2549   41.2231   12.0409 O   0  0  0  0  0  0  0  0  0  0  0  0
   12.3794   41.0520    9.6363 O   0  0  0  0  0  0  0  0  0  0  0  0
   14.8281   40.4095   10.2234 O   0  0  0  0  0  0  0  0  0  0  0  0
   11.9781   40.1732    9.7230 H   0  0  0  0  0  0  0  0  0  0  0  0
   14.6848   39.4578   10.3447 H   0  0  0  0  0  0  0  0  0  0  0  0
 24 25  2  0  0  0
 24 26  1  0  0  0
 24 27  1  0  0  0
 24 23  1  0  0  0
 23 22  1  0  0  0
 22  1  1  0  0  0
  1  2  1  0  0  0
  1  3  1  0  0  0
  2  7  1  0  0  0
  3  4  1  0  0  0
  3  5  1  0  0  0
  5  6  1  0  0  0
  5  7  1  0  0  0
  7 10  1  0  0  0
 10 11  1  0  0  0
 10 19  1  0  0  0
 11 12  2  0  0  0
 12 13  1  0  0  0
 13 14  1  0  0  0
 13 19  2  0  0  0
 14 15  1  0  0  0
 14 16  2  0  0  0
 16 17  1  0  0  0
 17 18  2  0  0  0
 18 19  1  0  0  0
 26 28  1  0  0  0
 27 29  1  0  0  0
  4  8  1  0  0  0
  6  9  1  0  0  0
 15 20  1  0  0  0
 15 21  1  0  0  0
M  END
> <minimizedAffinity>
-7.79236

$$$$
5F74_AMP_A_301


 29 31  0  0  0  0  0  0  0  0999 V2000
   15.6768   44.1430    9.0782 C   0  0  0  0  0  0  0  0  0  0  0  0
   16.9370   44.0626    8.4375 O   0  0  0  0  0  0  0  0  0  0  0  0
   14.5917   44.1539    7.9146 C   0  0  0  0  0  0  0  0  0  0  0  0
   13.5587   45.0918    8.1422 O   0  0  0  0  0  0  0  0  0  0  0  0
   15.4321   44.5521    6.6131 C   0  0  0  0  0  0  0  0  0  0  0  0
   15.1619   45.9022    6.2461 O   0  0  0  0  0  0  0  0  0  0  0  0
   16.9427   44.6010    7.1421 C   0  0  0  0  0  0  0  0  0  0  0  0
   13.9408   45.9793    8.2275 H   0  0  0  0  0  0  0  0  0  0  0  0
   15.3583   46.4864    6.9951 H   0  0  0  0  0  0  0  0  0  0  0  0
   17.9734   43.9195    6.2085 N   0  0  0  0  0  0  0  0  0  0  0  0
   18.6051   42.6278    6.3807 C   0  0  0  0  0  0  0  0  0  0  0  0
   19.4748   42.3179    5.3888 N   0  0  0  0  0  0  0  0  0  0  0  0
   19.4416   43.4368    4.5124 C   0  0  0  0  0  0  0  0  0  0  0  0
   20.1371   43.7234    3.2936 C   0  0  0  0  0  0  0  0  0  0  0  0
   21.0515   42.8324    2.7331 N   0  0  0  0  0  0  0  0  0  0  0  0
   19.9052   44.9227    2.6167 N   0  0  0  0  0  0  0  0  0  0  0  0
   18.9932   45.7820    3.2083 C   0  0  0  0  0  0  0  0  0  0  0  0
   18.2695   45.6504    4.3372 N   0  0  0  0  0  0  0  0  0  0  0  0
   18.5138   44.4368    5.0031 C   0  0  0  0  0  0  0  0  0  0  0  0
   21.2421   41.9764    3.1804 H   0  0  0  0  0  0  0  0  0  0  0  0
   21.5065   43.0594    1.8901 H   0  0  0  0  0  0  0  0  0  0  0  0
   15.5386   42.8736   10.0557 C   0  0  0  0  0  0  0  0  0  0  0  0
   14.2318   42.7450   10.3928 O   0  0  0  0  0  0  0  0  0  0  0  0
   13.5321   41.1335   10.5878 P   0  0  0  0  0  0  0  0  0  0  0  0
   13.1863   41.1340   12.0552 O   0  0  0  0  0  0  0  0  0  0  0  0
   12.3819   41.1690    9.6201 O   0  0  0  0  0  0  0  0  0  0  0  0
   14.7560   40.3116   10.2385 O   0  0  0  0  0  0  0  0  0  0  0  0
   11.9148   40.3191    9.6418 H   0  0  0  0  0  0  0  0  0  0  0  0
   14.5395   39.3680   10.2979 H   0  0  0  0  0  0  0  0  0  0  0  0
 24 25  2  0  0  0
 24 26  1  0  0  0
 24 27  1  0  0  0
 24 23  1  0  0  0
 23 22  1  0  0  0
 22  1  1  0  0  0
  1  2  1  0  0  0
  1  3  1  0  0  0
  2  7  1  0  0  0
  3  4  1  0  0  0
  3  5  1  0  0  0
  5  6  1  0  0  0
  5  7  1  0  0  0
  7 10  1  0  0  0
 10 11  1  0  0  0
 10 19  1  0  0  0
 11 12  2  0  0  0
 12 13  1  0  0  0
 13 14  1  0  0  0
 13 19  2  0  0  0
 14 15  1  0  0  0
 14 16  2  0  0  0
 16 17  1  0  0  0
 17 18  2  0  0  0
 18 19  1  0  0  0
 26 28  1  0  0  0
 27 29  1  0  0  0
  4  8  1  0  0  0
  6  9  1  0  0  0
 15 20  1  0  0  0
 15 21  1  0  0  0
M  END
> <minimizedAffinity>
-7.73379

$$$$
5F74_AMP_A_301


 29 31  0  0  0  0  0  0  0  0999 V2000
   13.6986   44.1829    8.5036 C   0  0  0  0  0  0  0  0  0  0  0  0
   13.4083   43.8127    7.1680 O   0  0  0  0  0  0  0  0  0  0  0  0
   12.2942   44.3028    9.2419 C   0  0  0  0  0  0  0  0  0  0  0  0
   12.2173   45.4348   10.0852 O   0  0  0  0  0  0  0  0  0  0  0  0
   11.2423   44.4257    8.0431 C   0  0  0  0  0  0  0  0  0  0  0  0
   10.7755   45.7675    7.9328 O   0  0  0  0  0  0  0  0  0  0  0  0
   12.1420   44.2314    6.7328 C   0  0  0  0  0  0  0  0  0  0  0  0
   12.3704   46.2379    9.5632 H   0  0  0  0  0  0  0  0  0  0  0  0
   11.5310   46.3639    7.8125 H   0  0  0  0  0  0  0  0  0  0  0  0
   11.5286   43.2923    5.6649 N   0  0  0  0  0  0  0  0  0  0  0  0
   10.6414   42.1681    5.8797 C   0  0  0  0  0  0  0  0  0  0  0  0
   10.2865   41.5367    4.7345 N   0  0  0  0  0  0  0  0  0  0  0  0
   10.9575   42.2484    3.7030 C   0  0  0  0  0  0  0  0  0  0  0  0
   10.9967   42.0713    2.2823 C   0  0  0  0  0  0  0  0  0  0  0  0
   10.2933   41.0522    1.6412 N   0  0  0  0  0  0  0  0  0  0  0  0
   11.7478   42.9382    1.4858 N   0  0  0  0  0  0  0  0  0  0  0  0
   12.4349   43.9342    2.1612 C   0  0  0  0  0  0  0  0  0  0  0  0
   12.4925   44.2225    3.4761 N   0  0  0  0  0  0  0  0  0  0  0  0
   11.7286   43.3417    4.2613 C   0  0  0  0  0  0  0  0  0  0  0  0
    9.7522   40.4207    2.1681 H   0  0  0  0  0  0  0  0  0  0  0  0
   10.3377   40.9643    0.6617 H   0  0  0  0  0  0  0  0  0  0  0  0
   14.6467   43.0479    9.1350 C   0  0  0  0  0  0  0  0  0  0  0  0
   14.1532   42.7210   10.3547 O   0  0  0  0  0  0  0  0  0  0  0  0
   13.5836   41.0751   10.6566 P   0  0  0  0  0  0  0  0  0  0  0  0
   14.7893   40.2639   10.2554 O   0  0  0  0  0  0  0  0  0  0  0  0
   13.2530   41.1189   12.1227 O   0  0  0  0  0  0  0  0  0  0  0  0
   12.4496   41.0404    9.6524 O   0  0  0  0  0  0  0  0  0  0  0  0
   12.9237   40.2516   12.4060 H   0  0  0  0  0  0  0  0  0  0  0  0
   12.0129   40.1749    9.6877 H   0  0  0  0  0  0  0  0  0  0  0  0
 24 25  2  0  0  0
 24 26  1  0  0  0
 24 27  1  0  0  0
 24 23  1  0  0  0
 23 22  1  0  0  0
 22  1  1  0  0  0
  1  2  1  0  0  0
  1  3  1  0  0  0
  2  7  1  0  0  0
  3  4  1  0  0  0
  3  5  1  0  0  0
  5  6  1  0  0  0
  5  7  1  0  0  0
  7 10  1  0  0  0
 10 11  1  0  0  0
 10 19  1  0  0  0
 11 12  2  0  0  0
 12 13  1  0  0  0
 13 14  1  0  0  0
 13 19  2  0  0  0
 14 15  1  0  0  0
 14 16  2  0  0  0
 16 17  1  0  0  0
 17 18  2  0  0  0
 18 19  1  0  0  0
 26 28  1  0  0  0
 27 29  1  0  0  0
  4  8  1  0  0  0
  6  9  1  0  0  0
 15 20  1  0  0  0
 15 21  1  0  0  0
M  END
> <minimizedAffinity>
-7.69624

$$$$
5F74_AMP_A_301


 29 31  0  0  0  0  0  0  0  0999 V2000
   12.9972   44.4070    8.5198 C   0  0  0  0  0  0  0  0  0  0  0  0
   14.3646   44.7346    8.3528 O   0  0  0  0  0  0  0  0  0  0  0  0
   12.4404   44.0881    7.0638 C   0  0  0  0  0  0  0  0  0  0  0  0
   11.1638   44.6504    6.8339 O   0  0  0  0  0  0  0  0  0  0  0  0
   13.5248   44.7449    6.0884 C   0  0  0  0  0  0  0  0  0  0  0  0
   13.0111   45.9451    5.5172 O   0  0  0  0  0  0  0  0  0  0  0  0
   14.6644   45.2614    7.0877 C   0  0  0  0  0  0  0  0  0  0  0  0
   11.2079   45.6120    6.9527 H   0  0  0  0  0  0  0  0  0  0  0  0
   12.7475   46.5532    6.2255 H   0  0  0  0  0  0  0  0  0  0  0  0
   16.1107   44.9495    6.6300 N   0  0  0  0  0  0  0  0  0  0  0  0
   17.1110   45.8849    6.1590 C   0  0  0  0  0  0  0  0  0  0  0  0
   18.2831   45.2943    5.8218 N   0  0  0  0  0  0  0  0  0  0  0  0
   18.0760   43.9089    6.0642 C   0  0  0  0  0  0  0  0  0  0  0  0
   18.9248   42.7672    5.8988 C   0  0  0  0  0  0  0  0  0  0  0  0
   20.2301   42.8754    5.4206 N   0  0  0  0  0  0  0  0  0  0  0  0
   18.4607   41.4920    6.2282 N   0  0  0  0  0  0  0  0  0  0  0  0
   17.1579   41.4269    6.6956 C   0  0  0  0  0  0  0  0  0  0  0  0
   16.2512   42.4018    6.9030 N   0  0  0  0  0  0  0  0  0  0  0  0
   16.7367   43.6780    6.5688 C   0  0  0  0  0  0  0  0  0  0  0  0
   20.5939   43.7573    5.1776 H   0  0  0  0  0  0  0  0  0  0  0  0
   20.7880   42.0697    5.3260 H   0  0  0  0  0  0  0  0  0  0  0  0
   12.9098   43.1482    9.5166 C   0  0  0  0  0  0  0  0  0  0  0  0
   13.8512   42.2488    9.1388 O   0  0  0  0  0  0  0  0  0  0  0  0
   15.1361   41.7997   10.2666 P   0  0  0  0  0  0  0  0  0  0  0  0
   14.4043   41.8402   11.5840 O   0  0  0  0  0  0  0  0  0  0  0  0
   15.5433   40.4444    9.7585 O   0  0  0  0  0  0  0  0  0  0  0  0
   16.0623   42.9759   10.0343 O   0  0  0  0  0  0  0  0  0  0  0  0
   16.2576   40.0926   10.3125 H   0  0  0  0  0  0  0  0  0  0  0  0
   16.8479   42.8847   10.5960 H   0  0  0  0  0  0  0  0  0  0  0  0
 24 25  2  0  0  0
 24 26  1  0  0  0
 24 27  1  0  0  0
 24 23  1  0  0  0
 23 22  1  0  0  0
 22  1  1  0  0  0
  1  2  1  0  0  0
  1  3  1  0  0  0
  2  7  1  0  0  0
  3  4  1  0  0  0
  3  5  1  0  0  0
  5  6  1  0  0  0
  5  7  1  0  0  0
  7 10  1  0  0  0
 10 11  1  0  0  0
 10 19  1  0  0  0
 11 12  2  0  0  0
 12 13  1  0  0  0
 13 14  1  0  0  0
 13 19  2  0  0  0
 14 15  1  0  0  0
 14 16  2  0  0  0
 16 17  1  0  0  0
 17 18  2  0  0  0
 18 19  1  0  0  0
 26 28  1  0  0  0
 27 29  1  0  0  0
  4  8  1  0  0  0
  6  9  1  0  0  0
 15 20  1  0  0  0
 15 21  1  0  0  0
M  END
> <minimizedAffinity>
-7.51742

$$$$
5F74_AMP_A_301


 29 31  0  0  0  0  0  0  0  0999 V2000
   14.9434   44.3472    8.3942 C   0  0  0  0  0  0  0  0  0  0  0  0
   16.1993   44.5796    7.7829 O   0  0  0  0  0  0  0  0  0  0  0  0
   13.8504   44.8924    7.3746 C   0  0  0  0  0  0  0  0  0  0  0  0
   12.8173   45.6123    8.0174 O   0  0  0  0  0  0  0  0  0  0  0  0
   14.6812   45.8537    6.4028 C   0  0  0  0  0  0  0  0  0  0  0  0
   14.4062   47.2185    6.7066 O   0  0  0  0  0  0  0  0  0  0  0  0
   16.1952   45.6583    6.8860 C   0  0  0  0  0  0  0  0  0  0  0  0
   13.1985   46.3604    8.5033 H   0  0  0  0  0  0  0  0  0  0  0  0
   14.6066   47.3887    7.6403 H   0  0  0  0  0  0  0  0  0  0  0  0
   17.2208   45.4936    5.7373 N   0  0  0  0  0  0  0  0  0  0  0  0
   17.1994   46.1256    4.4345 C   0  0  0  0  0  0  0  0  0  0  0  0
   18.2403   45.7657    3.6450 N   0  0  0  0  0  0  0  0  0  0  0  0
   18.9953   44.8530    4.4312 C   0  0  0  0  0  0  0  0  0  0  0  0
   20.1956   44.1190    4.1634 C   0  0  0  0  0  0  0  0  0  0  0  0
   20.8688   44.2147    2.9461 N   0  0  0  0  0  0  0  0  0  0  0  0
   20.7388   43.2793    5.1381 N   0  0  0  0  0  0  0  0  0  0  0  0
   20.0381   43.2091    6.3315 C   0  0  0  0  0  0  0  0  0  0  0  0
   18.9104   43.8332    6.7241 N   0  0  0  0  0  0  0  0  0  0  0  0
   18.3800   44.6758    5.7318 C   0  0  0  0  0  0  0  0  0  0  0  0
   20.5174   44.7962    2.2337 H   0  0  0  0  0  0  0  0  0  0  0  0
   21.6954   43.7006    2.7990 H   0  0  0  0  0  0  0  0  0  0  0  0
   14.8141   42.7683    8.6707 C   0  0  0  0  0  0  0  0  0  0  0  0
   13.9233   42.5910    9.6772 O   0  0  0  0  0  0  0  0  0  0  0  0
   14.1947   41.3177   10.8728 P   0  0  0  0  0  0  0  0  0  0  0  0
   15.0634   42.0317   11.8770 O   0  0  0  0  0  0  0  0  0  0  0  0
   12.7932   40.9848   11.3038 O   0  0  0  0  0  0  0  0  0  0  0  0
   14.9412   40.3362    9.9926 O   0  0  0  0  0  0  0  0  0  0  0  0
   12.8188   40.2829   11.9728 H   0  0  0  0  0  0  0  0  0  0  0  0
   15.1745   39.5500   10.5106 H   0  0  0  0  0  0  0  0  0  0  0  0
 24 25  2  0  0  0
 24 26  1  0  0  0
 24 27  1  0  0  0
 24 23  1  0  0  0
 23 22  1  0  0  0
 22  1  1  0  0  0
  1  2  1  0  0  0
  1  3  1  0  0  0
  2  7  1  0  0  0
  3  4  1  0  0  0
  3  5  1  0  0  0
  5  6  1  0  0  0
  5  7  1  0  0  0
  7 10  1  0  0  0
 10 11  1  0  0  0
 10 19  1  0  0  0
 11 12  2  0  0  0
 12 13  1  0  0  0
 13 14  1  0  0  0
 13 19  2  0  0  0
 14 15  1  0  0  0
 14 16  2  0  0  0
 16 17  1  0  0  0
 17 18  2  0  0  0
 18 19  1  0  0  0
 26 28  1  0  0  0
 27 29  1  0  0  0
  4  8  1  0  0  0
  6  9  1  0  0  0
 15 20  1  0  0  0
 15 21  1  0  0  0
M  END
> <minimizedAffinity>
-7.32496

$$$$
5F74_AMP_A_301


 29 31  0  0  0  0  0  0  0  0999 V2000
   16.6390   43.4878    7.9019 C   0  0  0  0  0  0  0  0  0  0  0  0
   17.6724   42.7231    7.3084 O   0  0  0  0  0  0  0  0  0  0  0  0
   16.2187   44.5750    6.8188 C   0  0  0  0  0  0  0  0  0  0  0  0
   16.0163   45.8555    7.3828 O   0  0  0  0  0  0  0  0  0  0  0  0
   17.4546   44.5996    5.8037 C   0  0  0  0  0  0  0  0  0  0  0  0
   18.2333   45.7762    6.0039 O   0  0  0  0  0  0  0  0  0  0  0  0
   18.4029   43.4253    6.3382 C   0  0  0  0  0  0  0  0  0  0  0  0
   16.8294   46.1463    7.8247 H   0  0  0  0  0  0  0  0  0  0  0  0
   18.5246   45.8178    6.9282 H   0  0  0  0  0  0  0  0  0  0  0  0
   18.9761   42.5070    5.2306 N   0  0  0  0  0  0  0  0  0  0  0  0
   20.3240   42.4941    4.7015 C   0  0  0  0  0  0  0  0  0  0  0  0
   20.5094   41.5736    3.7245 N   0  0  0  0  0  0  0  0  0  0  0  0
   19.2454   40.9400    3.5762 C   0  0  0  0  0  0  0  0  0  0  0  0
   18.7899   39.8965    2.7074 C   0  0  0  0  0  0  0  0  0  0  0  0
   19.6295   39.2852    1.7771 N   0  0  0  0  0  0  0  0  0  0  0  0
   17.4690   39.4488    2.7782 N   0  0  0  0  0  0  0  0  0  0  0  0
   16.6665   40.0843    3.7121 C   0  0  0  0  0  0  0  0  0  0  0  0
   16.9509   41.0679    4.5879 N   0  0  0  0  0  0  0  0  0  0  0  0
   18.2848   41.5035    4.5043 C   0  0  0  0  0  0  0  0  0  0  0  0
   20.5676   39.5729    1.6969 H   0  0  0  0  0  0  0  0  0  0  0  0
   19.2842   38.5659    1.2004 H   0  0  0  0  0  0  0  0  0  0  0  0
   15.4414   42.4854    8.2850 C   0  0  0  0  0  0  0  0  0  0  0  0
   14.9136   42.8949    9.4647 O   0  0  0  0  0  0  0  0  0  0  0  0
   14.5780   41.7098   10.7325 P   0  0  0  0  0  0  0  0  0  0  0  0
   15.5534   42.1322   11.8015 O   0  0  0  0  0  0  0  0  0  0  0  0
   13.1201   41.9497   11.0116 O   0  0  0  0  0  0  0  0  0  0  0  0
   14.9821   40.4565    9.9833 O   0  0  0  0  0  0  0  0  0  0  0  0
   12.8197   41.3427   11.7060 H   0  0  0  0  0  0  0  0  0  0  0  0
   14.8558   39.6831   10.5551 H   0  0  0  0  0  0  0  0  0  0  0  0
 24 25  2  0  0  0
 24 26  1  0  0  0
 24 27  1  0  0  0
 24 23  1  0  0  0
 23 22  1  0  0  0
 22  1  1  0  0  0
  1  2  1  0  0  0
  1  3  1  0  0  0
  2  7  1  0  0  0
  3  4  1  0  0  0
  3  5  1  0  0  0
  5  6  1  0  0  0
  5  7  1  0  0  0
  7 10  1  0  0  0
 10 11  1  0  0  0
 10 19  1  0  0  0
 11 12  2  0  0  0
 12 13  1  0  0  0
 13 14  1  0  0  0
 13 19  2  0  0  0
 14 15  1  0  0  0
 14 16  2  0  0  0
 16 17  1  0  0  0
 17 18  2  0  0  0
 18 19  1  0  0  0
 26 28  1  0  0  0
 27 29  1  0  0  0
  4  8  1  0  0  0
  6  9  1  0  0  0
 15 20  1  0  0  0
 15 21  1  0  0  0
M  END
> <minimizedAffinity>
-7.16778

$$$$
5F74_AMP_A_301


 29 31  0  0  0  0  0  0  0  0999 V2000
   19.6906   39.9394    2.2974 C   0  0  0  0  0  0  0  0  0  0  0  0
   19.4395   39.9180    3.6908 O   0  0  0  0  0  0  0  0  0  0  0  0
   18.2864   40.2147    1.6017 C   0  0  0  0  0  0  0  0  0  0  0  0
   18.0779   39.4093    0.4587 O   0  0  0  0  0  0  0  0  0  0  0  0
   17.2204   39.8577    2.7396 C   0  0  0  0  0  0  0  0  0  0  0  0
   16.5939   38.6102    2.4540 O   0  0  0  0  0  0  0  0  0  0  0  0
   18.1294   39.5383    4.0186 C   0  0  0  0  0  0  0  0  0  0  0  0
   18.1296   38.4735    0.7087 H   0  0  0  0  0  0  0  0  0  0  0  0
   17.2709   37.9212    2.3649 H   0  0  0  0  0  0  0  0  0  0  0  0
   17.6279   40.1739    5.3389 N   0  0  0  0  0  0  0  0  0  0  0  0
   17.1458   39.4922    6.5220 C   0  0  0  0  0  0  0  0  0  0  0  0
   16.7675   40.3361    7.5124 N   0  0  0  0  0  0  0  0  0  0  0  0
   16.9925   41.6380    6.9875 C   0  0  0  0  0  0  0  0  0  0  0  0
   16.7856   42.9443    7.5369 C   0  0  0  0  0  0  0  0  0  0  0  0
   16.2744   43.1381    8.8196 N   0  0  0  0  0  0  0  0  0  0  0  0
   17.1063   44.0802    6.7905 N   0  0  0  0  0  0  0  0  0  0  0  0
   17.6074   43.8449    5.5202 C   0  0  0  0  0  0  0  0  0  0  0  0
   17.8550   42.6878    4.8759 N   0  0  0  0  0  0  0  0  0  0  0  0
   17.5291   41.5560    5.6432 C   0  0  0  0  0  0  0  0  0  0  0  0
   16.0363   42.3624    9.3770 H   0  0  0  0  0  0  0  0  0  0  0  0
   16.1516   44.0508    9.1679 H   0  0  0  0  0  0  0  0  0  0  0  0
   20.7729   41.0932    2.0090 C   0  0  0  0  0  0  0  0  0  0  0  0
   21.7046   41.0488    2.9928 O   0  0  0  0  0  0  0  0  0  0  0  0
   22.0271   42.4931    3.9595 P   0  0  0  0  0  0  0  0  0  0  0  0
   23.3437   42.1350    4.6006 O   0  0  0  0  0  0  0  0  0  0  0  0
   22.0534   43.5737    2.9144 O   0  0  0  0  0  0  0  0  0  0  0  0
   20.8380   42.4096    4.8947 O   0  0  0  0  0  0  0  0  0  0  0  0
   22.2263   44.4291    3.3380 H   0  0  0  0  0  0  0  0  0  0  0  0
   20.8614   43.1551    5.5148 H   0  0  0  0  0  0  0  0  0  0  0  0
 24 25  2  0  0  0
 24 26  1  0  0  0
 24 27  1  0  0  0
 24 23  1  0  0  0
 23 22  1  0  0  0
 22  1  1  0  0  0
  1  2  1  0  0  0
  1  3  1  0  0  0
  2  7  1  0  0  0
  3  4  1  0  0  0
  3  5  1  0  0  0
  5  6  1  0  0  0
  5  7  1  0  0  0
  7 10  1  0  0  0
 10 11  1  0  0  0
 10 19  1  0  0  0
 11 12  2  0  0  0
 12 13  1  0  0  0
 13 14  1  0  0  0
 13 19  2  0  0  0
 14 15  1  0  0  0
 14 16  2  0  0  0
 16 17  1  0  0  0
 17 18  2  0  0  0
 18 19  1  0  0  0
 26 28  1  0  0  0
 27 29  1  0  0  0
  4  8  1  0  0  0
  6  9  1  0  0  0
 15 20  1  0  0  0
 15 21  1  0  0  0
M  END
> <minimizedAffinity>
-7.12588

$$$$
