2DRI_RIP_A_272
  RCSB PDB12061705223D
Coordinates from PDB:2DRI:A:272 Model:1 without hydrogens
 10 10  0  0  0  0            999 V2000
   50.1440   33.6000   44.1560   C 0  0  0  0  0  0  0  0  0  0  0  0
   49.4580   33.0880   45.4190   C 0  0  0  0  0  0  0  0  0  0  0  0
   49.0810   34.2650   46.3280   C 0  0  0  0  0  0  0  0  0  0  0  0
   50.3330   35.1100   46.6080   C 0  0  0  0  0  0  0  0  0  0  0  0
   50.9730   35.5300   45.2930   C 0  0  0  0  0  0  0  0  0  0  0  0
   50.5540   32.5410   43.3290   O 0  0  0  0  0  0  0  0  0  0  0  0
   48.3010   32.3610   45.0800   O 0  0  0  0  0  0  0  0  0  0  0  0
   48.0780   35.0500   45.6860   O 0  0  0  0  0  0  0  0  0  0  0  0
   50.0130   36.2510   47.3700   O 0  0  0  0  0  0  0  0  0  0  0  0
   51.2830   34.3700   44.5110   O 0  0  0  0  0  0  0  0  0  0  0  0
  1  2  1  0  0  0  0
  1  6  1  0  0  0  0
  1 10  1  0  0  0  0
  2  3  1  0  0  0  0
  2  7  1  0  0  0  0
  3  4  1  0  0  0  0
  3  8  1  0  0  0  0
  4  5  1  0  0  0  0
  4  9  1  0  0  0  0
  5 10  1  0  0  0  0
A    1
C1
A    2
C2
A    3
C3
A    4
C4
A    5
C5
A    6
O1
A    7
O2
A    8
O3
A    9
O4
A   10
O5
M  END
>  <InstanceId>
2DRI_RIP_A_272

>  <ChemCompId>
RIP

>  <PdbId>
2DRI

>  <ChainId>
A

>  <ResidueNumber>
272

>  <InsertionCode>


>  <Model>
1

>  <AltIds>


>  <MissingHeavyAtoms>
0

>  <ObservedFormula>
C5 O5

>  <Name>
RIBOSE(PYRANOSE FORM)

>  <SystematicName>
(2R,3R,4R,5R)-oxane-2,3,4,5-tetrol

>  <Synonyms>


>  <Type>
SACCHARIDE

>  <Formula>
C5 H10 O5

>  <MolecularWeight>
150.13

>  <ModifiedDate>
2011-06-04

>  <Parent>


>  <OneLetterCode>


>  <SubcomponentList>


>  <AmbiguousFlag>
N

>  <InChI>
InChI=1S/C5H10O5/c6-2-1-10-5(9)4(8)3(2)7/h2-9H,1H2/t2-,3-,4-,5-/m1/s1

>  <InChIKey>
SRBFZHDQGSBBOR-TXICZTDVSA-N

>  <SMILES>
C1[C@H]([C@H]([C@H]([C@@H](O1)O)O)O)O

$$$$
