2OGY_C2F_A_3000
  RCSB PDB12061706303D
Coordinates from PDB:2OGY:A:3000 Model:1 without hydrogens
 33 35  0  0  0  0            999 V2000
   -9.2630   76.3060  121.3150   N 0  0  0  0  0  0  0  0  0  0  0  0
   -8.5850   77.3990  120.8580   C 0  0  0  0  0  0  0  0  0  0  0  0
   -8.1560   78.3200  121.7590   N 0  0  0  0  0  0  0  0  0  0  0  0
   -8.3300   77.5840  119.5250   N 0  0  0  0  0  0  0  0  0  0  0  0
   -8.7290   76.7050  118.5670   C 0  0  0  0  0  0  0  0  0  0  0  0
   -8.4730   76.9120  117.3720   O 0  0  0  0  0  0  0  0  0  0  0  0
   -9.4800   75.4800  118.9790   C 0  0  0  0  0  0  0  0  0  0  0  0
   -9.9450   74.4870  118.0270   N 0  0  0  0  0  0  0  0  0  0  0  0
  -10.1440   73.1320  118.6510   C 0  0  0  0  0  0  0  0  0  0  0  0
  -10.8860   73.1940  120.0340   C 0  0  0  0  0  0  0  0  0  0  0  0
  -10.3900   74.2530  120.9250   N 0  0  0  0  0  0  0  0  0  0  0  0
   -9.7230   75.3410  120.4630   C 0  0  0  0  0  0  0  0  0  0  0  0
   -8.7660   72.4400  118.8140   C 0  0  0  0  0  0  0  0  0  0  0  0
   -8.8650   70.9940  118.9260   N 0  0  0  0  0  0  0  0  0  0  0  0
  -11.1930   74.9590  117.3840   C 0  0  0  0  0  0  0  0  0  0  0  0
   -9.3870   68.2930  115.7430   C 0  0  0  0  0  0  0  0  0  0  0  0
   -9.5400   67.8750  117.0990   C 0  0  0  0  0  0  0  0  0  0  0  0
   -9.3600   68.7960  118.1530   C 0  0  0  0  0  0  0  0  0  0  0  0
   -9.0260   70.1440  117.8660   C 0  0  0  0  0  0  0  0  0  0  0  0
   -8.8730   70.5610  116.4930   C 0  0  0  0  0  0  0  0  0  0  0  0
   -9.0550   69.6380  115.4430   C 0  0  0  0  0  0  0  0  0  0  0  0
   -9.5810   67.2980  114.6400   C 0  0  0  0  0  0  0  0  0  0  0  0
   -8.7690   67.2500  113.7310   O 0  0  0  0  0  0  0  0  0  0  0  0
  -10.6590   66.5100  114.7260   N 0  0  0  0  0  0  0  0  0  0  0  0
  -11.1160   65.4600  113.8250   C 0  0  0  0  0  0  0  0  0  0  0  0
  -12.2900   64.6760  114.4480   C 0  0  0  0  0  0  0  0  0  0  0  0
  -12.1370   63.1840  114.1260   C 0  0  0  0  0  0  0  0  0  0  0  0
  -13.2850   62.3730  114.7310   C 0  0  0  0  0  0  0  0  0  0  0  0
  -14.4000   62.9700  114.7530   O 0  0  0  0  0  0  0  0  0  0  0  0
  -13.1350   61.2030  115.1710   O 0  0  0  0  0  0  0  0  0  0  0  0
  -11.4750   66.0330  112.4620   C 0  0  0  0  0  0  0  0  0  0  0  0
  -12.0830   67.1260  112.3980   O 0  0  0  0  0  0  0  0  0  0  0  0
  -11.1480   65.4050  111.4350   O 0  0  0  0  0  0  0  0  0  0  0  0
  1  2  2  0  0  0  0
  1 12  1  0  0  0  0
  2  3  1  0  0  0  0
  2  4  1  0  0  0  0
  4  5  1  0  0  0  0
  5  6  2  0  0  0  0
  5  7  1  0  0  0  0
  7  8  1  0  0  0  0
  7 12  2  0  0  0  0
  8  9  1  0  0  0  0
  8 15  1  0  0  0  0
  9 10  1  0  0  0  0
  9 13  1  0  0  0  0
 10 11  1  0  0  0  0
 11 12  1  0  0  0  0
 13 14  1  0  0  0  0
 14 19  1  0  0  0  0
 16 17  2  0  0  0  0
 16 21  1  0  0  0  0
 16 22  1  0  0  0  0
 17 18  1  0  0  0  0
 18 19  2  0  0  0  0
 19 20  1  0  0  0  0
 20 21  2  0  0  0  0
 22 23  2  0  0  0  0
 22 24  1  0  0  0  0
 24 25  1  0  0  0  0
 25 26  1  0  0  0  0
 25 31  1  0  0  0  0
 26 27  1  0  0  0  0
 27 28  1  0  0  0  0
 28 29  2  0  0  0  0
 28 30  1  0  0  0  0
 31 32  2  0  0  0  0
 31 33  1  0  0  0  0
A    1
N1
A    2
C2
A    3
NA2
A    4
N3
A    5
C4
A    6
O4
A    7
C4A
A    8
N5
A    9
C6
A   10
C7
A   11
N8
A   12
C8A
A   13
C9
A   14
N10
A   15
C11
A   16
C12
A   17
C13
A   18
C14
A   19
C15
A   20
C16
A   21
C17
A   22
C
A   23
O
A   24
N
A   25
CA
A   26
CB
A   27
CG
A   28
CD
A   29
OE1
A   30
OE2
A   31
CT
A   32
O1
A   33
O2
M  END
>  <InstanceId>
2OGY_C2F_A_3000

>  <ChemCompId>
C2F

>  <PdbId>
2OGY

>  <ChainId>
A

>  <ResidueNumber>
3000

>  <InsertionCode>


>  <Model>
1

>  <AltIds>


>  <MissingHeavyAtoms>
0

>  <ObservedFormula>
C20 N7 O6

>  <Name>
5-METHYL-5,6,7,8-TETRAHYDROFOLIC ACID

>  <SystematicName>
(2S)-2-[[4-[[(5R,6S)-2-amino-5-methyl-4-oxo-3,6,7,8-tetrahydropteridin-6-yl]methylamino]phenyl]carbonylamino]pentanedioic acid

>  <Synonyms>


>  <Type>
NON-POLYMER

>  <Formula>
C20 H25 N7 O6

>  <MolecularWeight>
459.456

>  <ModifiedDate>
2011-06-04

>  <Parent>


>  <OneLetterCode>


>  <SubcomponentList>


>  <AmbiguousFlag>
N

>  <InChI>
InChI=1S/C20H25N7O6/c1-27-12(9-23-16-15(27)18(31)26-20(21)25-16)8-22-11-4-2-10(3-5-11)17(30)24-13(19(32)33)6-7-14(28)29/h2-5,12-13,22H,6-9H2,1H3,(H,24,30)(H,28,29)(H,32,33)(H4,21,23,25,26,31)/t12-,13-/m0/s1

>  <InChIKey>
ZNOVTXRBGFNYRX-STQMWFEESA-N

>  <SMILES>
C[N@@]1[C@H](CNC2=C1C(=O)NC(=N2)N)CNc3ccc(cc3)C(=O)N[C@@H](CCC(=O)O)C(=O)O

$$$$
