5HRX_64F_A_803


 19 21  0  0  0  0  0  0  0  0999 V2000
   14.8822   -9.4741   -7.7337 C   0  0  0  0  0  0  0  0  0  0  0  0
   14.3166   -9.5333   -8.9863 C   0  0  0  0  0  0  0  0  0  0  0  0
   14.5087   -8.5745  -10.0293 C   0  0  0  0  0  0  0  0  0  0  0  0
   13.8983   -8.6680  -11.2832 C   0  0  0  0  0  0  0  0  0  0  0  0
   12.9983   -9.7124  -11.5488 C   0  0  0  0  0  0  0  0  0  0  0  0
   12.7812  -10.6426  -10.5367 C   0  0  0  0  0  0  0  0  0  0  0  0
   13.3904  -10.5880   -9.2755 C   0  0  0  0  0  0  0  0  0  0  0  0
   13.1545  -11.5635   -8.2981 C   0  0  0  0  0  0  0  0  0  0  0  0
   12.3794  -12.5264   -8.4380 O   0  0  0  0  0  0  0  0  0  0  0  0
   13.7137  -11.4687   -7.1184 O   0  0  0  0  0  0  0  0  0  0  0  0
   14.5535  -10.4285   -6.8193 C   0  0  0  0  0  0  0  0  0  0  0  0
   15.2224  -10.2393   -5.7074 N   0  0  0  0  0  0  0  0  0  0  0  0
   15.9278   -9.1752   -5.8305 N   0  0  0  0  0  0  0  0  0  0  0  0
   15.7602   -8.6856   -7.0347 C   0  0  0  0  0  0  0  0  0  0  0  0
   15.1887  -10.8174   -4.9112 H   0  0  0  0  0  0  0  0  0  0  0  0
   16.5087   -7.4379   -7.4737 C   0  0  0  0  0  0  0  0  0  0  0  0
   15.9284   -6.2524   -6.6863 C   0  0  0  0  0  0  0  0  0  0  0  0
   16.1235   -4.9793   -7.5127 C   0  0  0  0  0  0  0  0  0  0  0  0
   16.4964   -5.3767   -8.9519 C   0  0  0  0  0  0  0  0  0  0  0  0
  5  4  2  0  0  0
  5  6  1  0  0  0
  4  3  1  0  0  0
  6  7  2  0  0  0
  3  2  2  0  0  0
  7  2  1  0  0  0
  7  8  1  0  0  0
  2  1  1  0  0  0
  9  8  2  0  0  0
  8 10  1  0  0  0
  1 14  1  0  0  0
  1 11  2  0  0  0
 16 14  1  0  0  0
 16 17  1  0  0  0
 10 11  1  0  0  0
 14 13  2  0  0  0
 11 12  1  0  0  0
 18 17  1  0  0  0
 18 19  1  0  0  0
 13 12  1  0  0  0
 12 15  1  0  0  0
M  END
> <minimizedAffinity>
-8.15835

$$$$
5HRX_64F_A_803


 19 21  0  0  0  0  0  0  0  0999 V2000
   14.8826   -8.6072   -8.2435 C   0  0  0  0  0  0  0  0  0  0  0  0
   14.0259   -9.6083   -8.6389 C   0  0  0  0  0  0  0  0  0  0  0  0
   13.4809  -10.6183   -7.7863 C   0  0  0  0  0  0  0  0  0  0  0  0
   12.6258  -11.6276   -8.2376 C   0  0  0  0  0  0  0  0  0  0  0  0
   12.3096  -11.7206   -9.6024 C   0  0  0  0  0  0  0  0  0  0  0  0
   12.8500  -10.7592  -10.4511 C   0  0  0  0  0  0  0  0  0  0  0  0
   13.6957   -9.7243  -10.0287 C   0  0  0  0  0  0  0  0  0  0  0  0
   14.1955   -8.7674  -10.9214 C   0  0  0  0  0  0  0  0  0  0  0  0
   13.9711   -8.7621  -12.1450 O   0  0  0  0  0  0  0  0  0  0  0  0
   15.0085   -7.8309  -10.5027 O   0  0  0  0  0  0  0  0  0  0  0  0
   15.3732   -7.7533   -9.1845 C   0  0  0  0  0  0  0  0  0  0  0  0
   16.1278   -6.8420   -8.6191 N   0  0  0  0  0  0  0  0  0  0  0  0
   16.2008   -7.0930   -7.3635 N   0  0  0  0  0  0  0  0  0  0  0  0
   15.4623   -8.1410   -7.0912 C   0  0  0  0  0  0  0  0  0  0  0  0
   16.5651   -6.0908   -9.0813 H   0  0  0  0  0  0  0  0  0  0  0  0
   15.3320   -8.6460   -5.6636 C   0  0  0  0  0  0  0  0  0  0  0  0
   16.7475   -8.9669   -5.1582 C   0  0  0  0  0  0  0  0  0  0  0  0
   16.9575   -8.2549   -3.8200 C   0  0  0  0  0  0  0  0  0  0  0  0
   17.6602   -6.9107   -4.0803 C   0  0  0  0  0  0  0  0  0  0  0  0
  5  4  2  0  0  0
  5  6  1  0  0  0
  4  3  1  0  0  0
  6  7  2  0  0  0
  3  2  2  0  0  0
  7  2  1  0  0  0
  7  8  1  0  0  0
  2  1  1  0  0  0
  9  8  2  0  0  0
  8 10  1  0  0  0
  1 14  1  0  0  0
  1 11  2  0  0  0
 16 14  1  0  0  0
 16 17  1  0  0  0
 10 11  1  0  0  0
 14 13  2  0  0  0
 11 12  1  0  0  0
 18 17  1  0  0  0
 18 19  1  0  0  0
 13 12  1  0  0  0
 12 15  1  0  0  0
M  END
> <minimizedAffinity>
-7.79826

$$$$
5HRX_64F_A_803


 19 21  0  0  0  0  0  0  0  0999 V2000
   15.3738   -8.5742   -7.4366 C   0  0  0  0  0  0  0  0  0  0  0  0
   14.5304   -9.2976   -8.2477 C   0  0  0  0  0  0  0  0  0  0  0  0
   14.0423   -8.8754   -9.5234 C   0  0  0  0  0  0  0  0  0  0  0  0
   13.1715   -9.6391  -10.3058 C   0  0  0  0  0  0  0  0  0  0  0  0
   12.6840  -10.8632   -9.8211 C   0  0  0  0  0  0  0  0  0  0  0  0
   13.1305  -11.2794   -8.5704 C   0  0  0  0  0  0  0  0  0  0  0  0
   14.0166  -10.5468   -7.7687 C   0  0  0  0  0  0  0  0  0  0  0  0
   14.4532  -11.0218   -6.5252 C   0  0  0  0  0  0  0  0  0  0  0  0
   14.0826  -12.0926   -6.0117 O   0  0  0  0  0  0  0  0  0  0  0  0
   15.2566  -10.3007   -5.7850 O   0  0  0  0  0  0  0  0  0  0  0  0
   15.7023   -9.0787   -6.2148 C   0  0  0  0  0  0  0  0  0  0  0  0
   16.5480   -8.2809   -5.6083 N   0  0  0  0  0  0  0  0  0  0  0  0
   16.7430   -7.2522   -6.3491 N   0  0  0  0  0  0  0  0  0  0  0  0
   16.0629   -7.3885   -7.4612 C   0  0  0  0  0  0  0  0  0  0  0  0
   16.9637   -8.4443   -4.7310 H   0  0  0  0  0  0  0  0  0  0  0  0
   16.1359   -6.3284   -8.5477 C   0  0  0  0  0  0  0  0  0  0  0  0
   17.0699   -5.2167   -8.0437 C   0  0  0  0  0  0  0  0  0  0  0  0
   16.3640   -3.8711   -8.2252 C   0  0  0  0  0  0  0  0  0  0  0  0
   17.0832   -2.8159   -7.3665 C   0  0  0  0  0  0  0  0  0  0  0  0
  5  4  2  0  0  0
  5  6  1  0  0  0
  4  3  1  0  0  0
  6  7  2  0  0  0
  3  2  2  0  0  0
  7  2  1  0  0  0
  7  8  1  0  0  0
  2  1  1  0  0  0
  9  8  2  0  0  0
  8 10  1  0  0  0
  1 14  1  0  0  0
  1 11  2  0  0  0
 16 14  1  0  0  0
 16 17  1  0  0  0
 10 11  1  0  0  0
 14 13  2  0  0  0
 11 12  1  0  0  0
 18 17  1  0  0  0
 18 19  1  0  0  0
 13 12  1  0  0  0
 12 15  1  0  0  0
M  END
> <minimizedAffinity>
-7.36721

$$$$
5HRX_64F_A_803


 19 21  0  0  0  0  0  0  0  0999 V2000
   15.1162   -8.5068   -9.0051 C   0  0  0  0  0  0  0  0  0  0  0  0
   14.3542   -9.6133   -8.7093 C   0  0  0  0  0  0  0  0  0  0  0  0
   14.3821  -10.3336   -7.4746 C   0  0  0  0  0  0  0  0  0  0  0  0
   13.6000  -11.4650   -7.2254 C   0  0  0  0  0  0  0  0  0  0  0  0
   12.7756  -11.9841   -8.2364 C   0  0  0  0  0  0  0  0  0  0  0  0
   12.7533  -11.3090   -9.4531 C   0  0  0  0  0  0  0  0  0  0  0  0
   13.5109  -10.1625   -9.7296 C   0  0  0  0  0  0  0  0  0  0  0  0
   13.4350   -9.5069  -10.9653 C   0  0  0  0  0  0  0  0  0  0  0  0
   12.7340   -9.8857  -11.9206 O   0  0  0  0  0  0  0  0  0  0  0  0
   14.1782   -8.4564  -11.2050 O   0  0  0  0  0  0  0  0  0  0  0  0
   15.0298   -7.9644  -10.2514 C   0  0  0  0  0  0  0  0  0  0  0  0
   15.7845   -6.8951  -10.3328 N   0  0  0  0  0  0  0  0  0  0  0  0
   16.4039   -6.7460   -9.2197 N   0  0  0  0  0  0  0  0  0  0  0  0
   16.0280   -7.6878   -8.3893 C   0  0  0  0  0  0  0  0  0  0  0  0
   15.8626   -6.3054  -11.1173 H   0  0  0  0  0  0  0  0  0  0  0  0
   16.5775   -7.7354   -6.9732 C   0  0  0  0  0  0  0  0  0  0  0  0
   15.7020   -6.8142   -6.1088 C   0  0  0  0  0  0  0  0  0  0  0  0
   16.5256   -5.5830   -5.7246 C   0  0  0  0  0  0  0  0  0  0  0  0
   15.9277   -4.3502   -6.4253 C   0  0  0  0  0  0  0  0  0  0  0  0
  5  4  2  0  0  0
  5  6  1  0  0  0
  4  3  1  0  0  0
  6  7  2  0  0  0
  3  2  2  0  0  0
  7  2  1  0  0  0
  7  8  1  0  0  0
  2  1  1  0  0  0
  9  8  2  0  0  0
  8 10  1  0  0  0
  1 14  1  0  0  0
  1 11  2  0  0  0
 16 14  1  0  0  0
 16 17  1  0  0  0
 10 11  1  0  0  0
 14 13  2  0  0  0
 11 12  1  0  0  0
 18 17  1  0  0  0
 18 19  1  0  0  0
 13 12  1  0  0  0
 12 15  1  0  0  0
M  END
> <minimizedAffinity>
-7.30640

$$$$
5HRX_64F_A_803


 19 21  0  0  0  0  0  0  0  0999 V2000
   14.8632   -8.8436   -7.1015 C   0  0  0  0  0  0  0  0  0  0  0  0
   15.7090   -7.7594   -7.0634 C   0  0  0  0  0  0  0  0  0  0  0  0
   15.8578   -6.7867   -8.1006 C   0  0  0  0  0  0  0  0  0  0  0  0
   16.7444   -5.7088   -8.0239 C   0  0  0  0  0  0  0  0  0  0  0  0
   17.5903   -5.5744   -6.9115 C   0  0  0  0  0  0  0  0  0  0  0  0
   17.4756   -6.5257   -5.9021 C   0  0  0  0  0  0  0  0  0  0  0  0
   16.5852   -7.6076   -5.9395 C   0  0  0  0  0  0  0  0  0  0  0  0
   16.4932   -8.5257   -4.8855 C   0  0  0  0  0  0  0  0  0  0  0  0
   17.1948   -8.4905   -3.8588 O   0  0  0  0  0  0  0  0  0  0  0  0
   15.6743   -9.5439   -4.9628 O   0  0  0  0  0  0  0  0  0  0  0  0
   14.8780   -9.7245   -6.0628 C   0  0  0  0  0  0  0  0  0  0  0  0
   13.9775  -10.6593   -6.2494 N   0  0  0  0  0  0  0  0  0  0  0  0
   13.4156  -10.4649   -7.3859 N   0  0  0  0  0  0  0  0  0  0  0  0
   13.9115   -9.3807   -7.9305 C   0  0  0  0  0  0  0  0  0  0  0  0
   13.7677  -11.3884   -5.6220 H   0  0  0  0  0  0  0  0  0  0  0  0
   13.4004   -8.8861   -9.2735 C   0  0  0  0  0  0  0  0  0  0  0  0
   12.7793  -10.0893  -10.0008 C   0  0  0  0  0  0  0  0  0  0  0  0
   12.9826   -9.9037  -11.5061 C   0  0  0  0  0  0  0  0  0  0  0  0
   13.9273   -8.7105  -11.7338 C   0  0  0  0  0  0  0  0  0  0  0  0
  5  4  2  0  0  0
  5  6  1  0  0  0
  4  3  1  0  0  0
  6  7  2  0  0  0
  3  2  2  0  0  0
  7  2  1  0  0  0
  7  8  1  0  0  0
  2  1  1  0  0  0
  9  8  2  0  0  0
  8 10  1  0  0  0
  1 14  1  0  0  0
  1 11  2  0  0  0
 16 14  1  0  0  0
 16 17  1  0  0  0
 10 11  1  0  0  0
 14 13  2  0  0  0
 11 12  1  0  0  0
 18 17  1  0  0  0
 18 19  1  0  0  0
 13 12  1  0  0  0
 12 15  1  0  0  0
M  END
> <minimizedAffinity>
-7.27953

$$$$
5HRX_64F_A_803


 19 21  0  0  0  0  0  0  0  0999 V2000
   14.2179  -10.0250   -7.8143 C   0  0  0  0  0  0  0  0  0  0  0  0
   14.0283   -9.7567   -9.1502 C   0  0  0  0  0  0  0  0  0  0  0  0
   14.4340   -8.5616   -9.8219 C   0  0  0  0  0  0  0  0  0  0  0  0
   14.2042   -8.3261  -11.1804 C   0  0  0  0  0  0  0  0  0  0  0  0
   13.4899   -9.2634  -11.9436 C   0  0  0  0  0  0  0  0  0  0  0  0
   13.0668  -10.4227  -11.3005 C   0  0  0  0  0  0  0  0  0  0  0  0
   13.2961  -10.6978   -9.9453 C   0  0  0  0  0  0  0  0  0  0  0  0
   12.8679  -11.8919   -9.3509 C   0  0  0  0  0  0  0  0  0  0  0  0
   12.2326  -12.7834   -9.9418 O   0  0  0  0  0  0  0  0  0  0  0  0
   13.0691  -12.1069   -8.0755 O   0  0  0  0  0  0  0  0  0  0  0  0
   13.7167  -11.1822   -7.2996 C   0  0  0  0  0  0  0  0  0  0  0  0
   14.0352  -11.2888   -6.0321 N   0  0  0  0  0  0  0  0  0  0  0  0
   14.6697  -10.2314   -5.6794 N   0  0  0  0  0  0  0  0  0  0  0  0
   14.8089   -9.4468   -6.7199 C   0  0  0  0  0  0  0  0  0  0  0  0
   13.8228  -12.0529   -5.4486 H   0  0  0  0  0  0  0  0  0  0  0  0
   15.5594   -8.1305   -6.6017 C   0  0  0  0  0  0  0  0  0  0  0  0
   16.8479   -8.4051   -5.8101 C   0  0  0  0  0  0  0  0  0  0  0  0
   16.5613   -8.1796   -4.3240 C   0  0  0  0  0  0  0  0  0  0  0  0
   17.8720   -7.7811   -3.6228 C   0  0  0  0  0  0  0  0  0  0  0  0
  5  4  2  0  0  0
  5  6  1  0  0  0
  4  3  1  0  0  0
  6  7  2  0  0  0
  3  2  2  0  0  0
  7  2  1  0  0  0
  7  8  1  0  0  0
  2  1  1  0  0  0
  9  8  2  0  0  0
  8 10  1  0  0  0
  1 14  1  0  0  0
  1 11  2  0  0  0
 16 14  1  0  0  0
 16 17  1  0  0  0
 10 11  1  0  0  0
 14 13  2  0  0  0
 11 12  1  0  0  0
 18 17  1  0  0  0
 18 19  1  0  0  0
 13 12  1  0  0  0
 12 15  1  0  0  0
M  END
> <minimizedAffinity>
-7.20502

$$$$
5HRX_64F_A_803


 19 21  0  0  0  0  0  0  0  0999 V2000
   15.7246   -8.1928   -7.7389 C   0  0  0  0  0  0  0  0  0  0  0  0
   16.3413   -7.9394   -6.5355 C   0  0  0  0  0  0  0  0  0  0  0  0
   16.2610   -8.7664   -5.3721 C   0  0  0  0  0  0  0  0  0  0  0  0
   16.8925   -8.4586   -4.1636 C   0  0  0  0  0  0  0  0  0  0  0  0
   17.6030   -7.2551   -4.0303 C   0  0  0  0  0  0  0  0  0  0  0  0
   17.6722   -6.4262   -5.1461 C   0  0  0  0  0  0  0  0  0  0  0  0
   17.0661   -6.7133   -6.3770 C   0  0  0  0  0  0  0  0  0  0  0  0
   17.1852   -5.8546   -7.4774 C   0  0  0  0  0  0  0  0  0  0  0  0
   17.7944   -4.7701   -7.4606 O   0  0  0  0  0  0  0  0  0  0  0  0
   16.5817   -6.1342   -8.6048 O   0  0  0  0  0  0  0  0  0  0  0  0
   15.8386   -7.2770   -8.7406 C   0  0  0  0  0  0  0  0  0  0  0  0
   15.2319   -7.7091   -9.8198 N   0  0  0  0  0  0  0  0  0  0  0  0
   14.6783   -8.8353   -9.5547 N   0  0  0  0  0  0  0  0  0  0  0  0
   14.9538   -9.1687   -8.3174 C   0  0  0  0  0  0  0  0  0  0  0  0
   15.2057   -7.2463  -10.6884 H   0  0  0  0  0  0  0  0  0  0  0  0
   14.4538  -10.4828   -7.7406 C   0  0  0  0  0  0  0  0  0  0  0  0
   12.9324  -10.5295   -7.9536 C   0  0  0  0  0  0  0  0  0  0  0  0
   12.5674  -11.8922   -8.5465 C   0  0  0  0  0  0  0  0  0  0  0  0
   12.9835  -11.9141  -10.0279 C   0  0  0  0  0  0  0  0  0  0  0  0
  5  4  2  0  0  0
  5  6  1  0  0  0
  4  3  1  0  0  0
  6  7  2  0  0  0
  3  2  2  0  0  0
  7  2  1  0  0  0
  7  8  1  0  0  0
  2  1  1  0  0  0
  9  8  2  0  0  0
  8 10  1  0  0  0
  1 14  1  0  0  0
  1 11  2  0  0  0
 16 14  1  0  0  0
 16 17  1  0  0  0
 10 11  1  0  0  0
 14 13  2  0  0  0
 11 12  1  0  0  0
 18 17  1  0  0  0
 18 19  1  0  0  0
 13 12  1  0  0  0
 12 15  1  0  0  0
M  END
> <minimizedAffinity>
-7.19740

$$$$
5HRX_64F_A_803


 19 21  0  0  0  0  0  0  0  0999 V2000
   15.9053   -7.8816   -6.3550 C   0  0  0  0  0  0  0  0  0  0  0  0
   16.3623   -6.7767   -7.0355 C   0  0  0  0  0  0  0  0  0  0  0  0
   15.9474   -6.3786   -8.3444 C   0  0  0  0  0  0  0  0  0  0  0  0
   16.4534   -5.2548   -9.0039 C   0  0  0  0  0  0  0  0  0  0  0  0
   17.4644   -4.4864   -8.4052 C   0  0  0  0  0  0  0  0  0  0  0  0
   17.8973   -4.8730   -7.1403 C   0  0  0  0  0  0  0  0  0  0  0  0
   17.3987   -5.9828   -6.4443 C   0  0  0  0  0  0  0  0  0  0  0  0
   17.8534   -6.3162   -5.1619 C   0  0  0  0  0  0  0  0  0  0  0  0
   18.7408   -5.6977   -4.5474 O   0  0  0  0  0  0  0  0  0  0  0  0
   17.3913   -7.3769   -4.5497 O   0  0  0  0  0  0  0  0  0  0  0  0
   16.4431   -8.1716   -5.1377 C   0  0  0  0  0  0  0  0  0  0  0  0
   15.8536   -9.2231   -4.6217 N   0  0  0  0  0  0  0  0  0  0  0  0
   14.9978   -9.6683   -5.4669 N   0  0  0  0  0  0  0  0  0  0  0  0
   14.9895   -8.8891   -6.5208 C   0  0  0  0  0  0  0  0  0  0  0  0
   16.0373   -9.6068   -3.7338 H   0  0  0  0  0  0  0  0  0  0  0  0
   14.0379   -9.1584   -7.6747 C   0  0  0  0  0  0  0  0  0  0  0  0
   13.6906  -10.6553   -7.6448 C   0  0  0  0  0  0  0  0  0  0  0  0
   12.8130  -10.9738   -8.8573 C   0  0  0  0  0  0  0  0  0  0  0  0
   13.1623   -9.9938   -9.9912 C   0  0  0  0  0  0  0  0  0  0  0  0
  5  4  2  0  0  0
  5  6  1  0  0  0
  4  3  1  0  0  0
  6  7  2  0  0  0
  3  2  2  0  0  0
  7  2  1  0  0  0
  7  8  1  0  0  0
  2  1  1  0  0  0
  9  8  2  0  0  0
  8 10  1  0  0  0
  1 14  1  0  0  0
  1 11  2  0  0  0
 16 14  1  0  0  0
 16 17  1  0  0  0
 10 11  1  0  0  0
 14 13  2  0  0  0
 11 12  1  0  0  0
 18 17  1  0  0  0
 18 19  1  0  0  0
 13 12  1  0  0  0
 12 15  1  0  0  0
M  END
> <minimizedAffinity>
-6.40044

$$$$
5HRX_64F_A_803


 19 21  0  0  0  0  0  0  0  0999 V2000
   16.3019   -7.4761   -7.5265 C   0  0  0  0  0  0  0  0  0  0  0  0
   16.7806   -7.3609   -6.2420 C   0  0  0  0  0  0  0  0  0  0  0  0
   16.7779   -8.3997   -5.2596 C   0  0  0  0  0  0  0  0  0  0  0  0
   17.2608   -8.2305   -3.9589 C   0  0  0  0  0  0  0  0  0  0  0  0
   17.7269   -6.9735   -3.5418 C   0  0  0  0  0  0  0  0  0  0  0  0
   17.7154   -5.9441   -4.4783 C   0  0  0  0  0  0  0  0  0  0  0  0
   17.2550   -6.0846   -5.7948 C   0  0  0  0  0  0  0  0  0  0  0  0
   17.2858   -5.0210   -6.7059 C   0  0  0  0  0  0  0  0  0  0  0  0
   17.6821   -3.8735   -6.4344 O   0  0  0  0  0  0  0  0  0  0  0  0
   16.8198   -5.1740   -7.9195 O   0  0  0  0  0  0  0  0  0  0  0  0
   16.3107   -6.3773   -8.3313 C   0  0  0  0  0  0  0  0  0  0  0  0
   15.8665   -6.6875   -9.5254 N   0  0  0  0  0  0  0  0  0  0  0  0
   15.5138   -7.9206   -9.5231 N   0  0  0  0  0  0  0  0  0  0  0  0
   15.7640   -8.4367   -8.3445 C   0  0  0  0  0  0  0  0  0  0  0  0
   15.8127   -6.0760  -10.2952 H   0  0  0  0  0  0  0  0  0  0  0  0
   15.4780   -9.9030   -8.0654 C   0  0  0  0  0  0  0  0  0  0  0  0
   14.1861  -10.2701   -8.8127 C   0  0  0  0  0  0  0  0  0  0  0  0
   13.2857  -11.0637   -7.8633 C   0  0  0  0  0  0  0  0  0  0  0  0
   13.1097  -10.2608   -6.5624 C   0  0  0  0  0  0  0  0  0  0  0  0
  5  4  2  0  0  0
  5  6  1  0  0  0
  4  3  1  0  0  0
  6  7  2  0  0  0
  3  2  2  0  0  0
  7  2  1  0  0  0
  7  8  1  0  0  0
  2  1  1  0  0  0
  9  8  2  0  0  0
  8 10  1  0  0  0
  1 14  1  0  0  0
  1 11  2  0  0  0
 16 14  1  0  0  0
 16 17  1  0  0  0
 10 11  1  0  0  0
 14 13  2  0  0  0
 11 12  1  0  0  0
 18 17  1  0  0  0
 18 19  1  0  0  0
 13 12  1  0  0  0
 12 15  1  0  0  0
M  END
> <minimizedAffinity>
-6.26074

$$$$
5HRX_64F_A_803


 19 21  0  0  0  0  0  0  0  0999 V2000
   16.0924   -6.9758   -7.6973 C   0  0  0  0  0  0  0  0  0  0  0  0
   15.3100   -8.0262   -8.1178 C   0  0  0  0  0  0  0  0  0  0  0  0
   14.7091   -8.1477   -9.4094 C   0  0  0  0  0  0  0  0  0  0  0  0
   13.9061   -9.2279   -9.7864 C   0  0  0  0  0  0  0  0  0  0  0  0
   13.6047  -10.2358   -8.8567 C   0  0  0  0  0  0  0  0  0  0  0  0
   14.1625  -10.1221   -7.5867 C   0  0  0  0  0  0  0  0  0  0  0  0
   14.9855   -9.0621   -7.1821 C   0  0  0  0  0  0  0  0  0  0  0  0
   15.5406   -9.0064   -5.8971 C   0  0  0  0  0  0  0  0  0  0  0  0
   15.3367   -9.8499   -5.0057 O   0  0  0  0  0  0  0  0  0  0  0  0
   16.2802   -7.9879   -5.5380 O   0  0  0  0  0  0  0  0  0  0  0  0
   16.5431   -6.9664   -6.4120 C   0  0  0  0  0  0  0  0  0  0  0  0
   17.3081   -5.9210   -6.2084 N   0  0  0  0  0  0  0  0  0  0  0  0
   17.3322   -5.2168   -7.2802 N   0  0  0  0  0  0  0  0  0  0  0  0
   16.6211   -5.8160   -8.2039 C   0  0  0  0  0  0  0  0  0  0  0  0
   17.7843   -5.7116   -5.3726 H   0  0  0  0  0  0  0  0  0  0  0  0
   16.5033   -5.2206   -9.5973 C   0  0  0  0  0  0  0  0  0  0  0  0
   16.3773   -3.6972   -9.4374 C   0  0  0  0  0  0  0  0  0  0  0  0
   17.3015   -3.0249  -10.4550 C   0  0  0  0  0  0  0  0  0  0  0  0
   18.7514   -3.1283   -9.9497 C   0  0  0  0  0  0  0  0  0  0  0  0
  5  4  2  0  0  0
  5  6  1  0  0  0
  4  3  1  0  0  0
  6  7  2  0  0  0
  3  2  2  0  0  0
  7  2  1  0  0  0
  7  8  1  0  0  0
  2  1  1  0  0  0
  9  8  2  0  0  0
  8 10  1  0  0  0
  1 14  1  0  0  0
  1 11  2  0  0  0
 16 14  1  0  0  0
 16 17  1  0  0  0
 10 11  1  0  0  0
 14 13  2  0  0  0
 11 12  1  0  0  0
 18 17  1  0  0  0
 18 19  1  0  0  0
 13 12  1  0  0  0
 12 15  1  0  0  0
M  END
> <minimizedAffinity>
-5.91977

$$$$
