1T4V_14A_H_1411
  RCSB PDB12061704043D
Coordinates from PDB:1T4V:H:1411 Model:1 without hydrogens
 27 28  0  0  0  0            999 V2000
   10.2210  -12.9420   24.4940   N 0  0  0  0  0  0  0  0  0  0  0  0
   11.0380  -11.9630   24.1390   C 0  0  0  0  0  0  0  0  0  0  0  0
   10.8990  -10.7420   24.6420   N 0  0  0  0  0  0  0  0  0  0  0  0
   11.9500  -12.1800   23.2230   N 0  0  0  0  0  0  0  0  0  0  0  0
   12.9320  -11.3150   22.9410   O 0  0  0  0  0  0  0  0  0  0  0  0
   12.8750  -10.7330   21.6190   C 0  0  0  0  0  0  0  0  0  0  0  0
   13.4390  -11.7160   20.5680   C 0  0  0  0  0  0  0  0  0  0  0  0
   14.9370  -11.9080   20.6760   C 0  0  0  0  0  0  0  0  0  0  0  0
   15.1530  -12.9450   21.6270   O 0  0  0  0  0  0  0  0  0  0  0  0
   16.4310  -13.4820   21.6420   C 0  0  0  0  0  0  0  0  0  0  0  0
   17.4660  -12.9730   20.8410   C 0  0  0  0  0  0  0  0  0  0  0  0
   18.7500  -13.5690   20.9110   C 0  0  0  0  0  0  0  0  0  0  0  0
   18.9680  -14.6250   21.7400   C 0  0  0  0  0  0  0  0  0  0  0  0
   17.9680  -15.1090   22.5250   C 0  0  0  0  0  0  0  0  0  0  0  0
   16.7010  -14.5660   22.4860   C 0  0  0  0  0  0  0  0  0  0  0  0
   20.0380  -12.9820   19.9780  Cl 0  0  0  0  0  0  0  0  0  0  0  0
   18.2570  -16.2700   23.3980   C 0  0  0  0  0  0  0  0  0  0  0  0
   17.4590  -17.2030   23.2970   O 0  0  0  0  0  0  0  0  0  0  0  0
   19.2560  -16.3480   24.3080   N 0  0  0  0  0  0  0  0  0  0  0  0
   19.2990  -17.5030   25.2690   C 0  0  0  0  0  0  0  0  0  0  0  0
   18.0340  -17.8510   26.0680   C 0  0  0  0  0  0  0  0  0  0  0  0
   18.0230  -18.3200   27.3020   C 0  0  0  0  0  0  0  0  0  0  0  0
   19.7830  -15.0070   24.6680   C 0  0  0  0  0  0  0  0  0  0  0  0
   21.3050  -15.1490   24.5490   C 0  0  0  0  0  0  0  0  0  0  0  0
   21.9790  -14.5420   25.7180   C 0  0  0  0  0  0  0  0  0  0  0  0
   20.9150  -14.4310   26.7970   C 0  0  0  0  0  0  0  0  0  0  0  0
   19.6230  -14.9140   26.1870   C 0  0  0  0  0  0  0  0  0  0  0  0
  1  2  2  0  0  0  0
  2  3  1  0  0  0  0
  2  4  1  0  0  0  0
  4  5  1  0  0  0  0
  5  6  1  0  0  0  0
  6  7  1  0  0  0  0
  7  8  1  0  0  0  0
  8  9  1  0  0  0  0
  9 10  1  0  0  0  0
 10 11  2  0  0  0  0
 10 15  1  0  0  0  0
 11 12  1  0  0  0  0
 12 13  2  0  0  0  0
 12 16  1  0  0  0  0
 13 14  1  0  0  0  0
 14 15  2  0  0  0  0
 14 17  1  0  0  0  0
 17 18  2  0  0  0  0
 17 19  1  0  0  0  0
 19 20  1  0  0  0  0
 19 23  1  0  0  0  0
 20 21  1  0  0  0  0
 21 22  2  0  0  0  0
 23 24  1  0  0  0  0
 23 27  1  0  0  0  0
 24 25  1  0  0  0  0
 25 26  1  0  0  0  0
 26 27  1  0  0  0  0
A    1
N1
A    2
C2
A    3
N3
A    4
N4
A    5
O5
A    6
C6
A    7
C7
A    8
C8
A    9
O9
A   10
C10
A   11
C11
A   12
C12
A   13
C13
A   14
C14
A   15
C15
A   16
CL16
A   17
C17
A   18
O18
A   19
N19
A   20
C20
A   21
C21
A   22
C22
A   23
C23
A   24
C24
A   25
C25
A   26
C26
A   27
C27
M  END
>  <InstanceId>
1T4V_14A_H_1411

>  <ChemCompId>
14A

>  <PdbId>
1T4V

>  <ChainId>
H

>  <ResidueNumber>
1411

>  <InsertionCode>


>  <Model>
1

>  <AltIds>


>  <MissingHeavyAtoms>
0

>  <ObservedFormula>
C19 N4 O3 Cl

>  <Name>
N-ALLYL-5-AMIDINOAMINOOXY-PROPYLOXY-3-CHLORO-N-CYCLOPENTYLBENZAMIDE

>  <SystematicName>
3-(3-carbamimidamidooxypropoxy)-5-chloro-N-cyclopentyl-N-prop-2-enyl-benzamide

>  <Synonyms>


>  <Type>
NON-POLYMER

>  <Formula>
C19 H27 Cl N4 O3

>  <MolecularWeight>
394.896

>  <ModifiedDate>
2011-06-04

>  <Parent>


>  <OneLetterCode>


>  <SubcomponentList>


>  <AmbiguousFlag>
N

>  <InChI>
InChI=1S/C19H27ClN4O3/c1-2-8-24(16-6-3-4-7-16)18(25)14-11-15(20)13-17(12-14)26-9-5-10-27-23-19(21)22/h2,11-13,16H,1,3-10H2,(H4,21,22,23)

>  <InChIKey>
XWIUMAPBZWNFNV-UHFFFAOYSA-N

>  <SMILES>
C=CCN(C1CCCC1)C(=O)c2cc(cc(c2)Cl)OCCCONC(=N)N

$$$$
