1J14_BEN_A_1
  RCSB PDB12061702543D
Coordinates from PDB:1J14:A:1 Model:1 without hydrogens
  9  9  0  0  0  0            999 V2000
    7.7230   50.4040   55.5330   C 0  0  0  0  0  0  0  0  0  0  0  0
    7.7130   49.2610   54.7110   C 0  0  0  0  0  0  0  0  0  0  0  0
    7.8590   47.9780   55.2700   C 0  0  0  0  0  0  0  0  0  0  0  0
    8.0070   47.8330   56.6610   C 0  0  0  0  0  0  0  0  0  0  0  0
    8.0120   48.9710   57.4870   C 0  0  0  0  0  0  0  0  0  0  0  0
    7.8750   50.2500   56.9220   C 0  0  0  0  0  0  0  0  0  0  0  0
    7.5690   51.7870   54.9280   C 0  0  0  0  0  0  0  0  0  0  0  0
    7.2160   52.7920   55.6900   N 0  0  0  0  0  0  0  0  0  0  0  0
    7.8020   51.9530   53.6580   N 0  0  0  0  0  0  0  0  0  0  0  0
  1  2  2  0  0  0  0
  1  6  1  0  0  0  0
  1  7  1  0  0  0  0
  2  3  1  0  0  0  0
  3  4  2  0  0  0  0
  4  5  1  0  0  0  0
  5  6  2  0  0  0  0
  7  8  2  0  0  0  0
  7  9  1  0  0  0  0
A    1
C1
A    2
C2
A    3
C3
A    4
C4
A    5
C5
A    6
C6
A    7
C
A    8
N1
A    9
N2
M  END
>  <InstanceId>
1J14_BEN_A_1

>  <ChemCompId>
BEN

>  <PdbId>
1J14

>  <ChainId>
A

>  <ResidueNumber>
1

>  <InsertionCode>


>  <Model>
1

>  <AltIds>


>  <MissingHeavyAtoms>
0

>  <ObservedFormula>
C7 N2

>  <Name>
BENZAMIDINE

>  <SystematicName>
benzenecarboximidamide

>  <Synonyms>


>  <Type>
NON-POLYMER

>  <Formula>
C7 H8 N2

>  <MolecularWeight>
120.152

>  <ModifiedDate>
2011-06-04

>  <Parent>


>  <OneLetterCode>


>  <SubcomponentList>


>  <AmbiguousFlag>
N

>  <InChI>
InChI=1S/C7H8N2/c8-7(9)6-4-2-1-3-5-6/h1-5H,(H3,8,9)

>  <InChIKey>
PXXJHWLDUBFPOL-UHFFFAOYSA-N

>  <SMILES>
[H]/N=C(\c1ccccc1)/N

$$$$
