2W4X_STZ_A_1591


 23 23  0  0  0  0  0  0  0  0999 V2000
  -10.0474  -11.1900   10.7820 O   0  0  0  0  0  0  0  0  0  0  0  0
   -9.0689  -10.4128   10.0970 C   0  0  0  0  0  0  0  0  0  0  0  0
   -8.3131   -9.5303   11.0776 C   0  0  0  0  0  0  0  0  0  0  0  0
   -9.2266   -8.5566   11.6302 O   0  0  0  0  0  0  0  0  0  0  0  0
   -7.1166   -8.9073   10.3638 C   0  0  0  0  0  0  0  0  0  0  0  0
   -6.2431   -9.9382    9.8569 O   0  0  0  0  0  0  0  0  0  0  0  0
   -6.9060  -10.6998    8.8636 C   0  0  0  0  0  0  0  0  0  0  0  0
   -6.0388  -11.7264    8.4366 O   0  0  0  0  0  0  0  0  0  0  0  0
   -8.1259  -11.3946    9.4435 C   0  0  0  0  0  0  0  0  0  0  0  0
  -10.6800  -10.5999   11.2207 H   0  0  0  0  0  0  0  0  0  0  0  0
   -9.6021   -8.0222   10.9130 H   0  0  0  0  0  0  0  0  0  0  0  0
   -5.8123  -12.2928    9.1908 H   0  0  0  0  0  0  0  0  0  0  0  0
   -8.8090  -12.0822    8.3695 N   0  0  0  0  0  0  0  0  0  0  0  0
   -9.6574  -11.4993    7.5369 C   0  0  0  0  0  0  0  0  0  0  0  0
   -9.9529  -10.3253    7.5951 O   0  0  0  0  0  0  0  0  0  0  0  0
  -10.2039  -12.2658    6.6082 N   0  0  0  0  0  0  0  0  0  0  0  0
  -11.1669  -11.8492    5.6075 C   0  0  0  0  0  0  0  0  0  0  0  0
   -8.6320  -13.0433    8.2503 H   0  0  0  0  0  0  0  0  0  0  0  0
   -9.8277  -13.6180    6.6029 N   0  0  0  0  0  0  0  0  0  0  0  0
  -10.5827  -14.4033    7.1387 O   0  0  0  0  0  0  0  0  0  0  0  0
   -6.3431   -7.9561   11.2661 C   0  0  0  0  0  0  0  0  0  0  0  0
   -5.6475   -8.6931   12.2748 O   0  0  0  0  0  0  0  0  0  0  0  0
   -6.2860   -9.1876   12.8121 H   0  0  0  0  0  0  0  0  0  0  0  0
  1  2  1  0  0  0
  2  3  1  0  0  0
  2  9  1  0  0  0
  3  4  1  0  0  0
  3  5  1  0  0  0
  5 21  1  0  0  0
  5  6  1  0  0  0
 21 22  1  0  0  0
  6  7  1  0  0  0
  7  8  1  0  0  0
  7  9  1  0  0  0
  9 13  1  0  0  0
 13 14  1  0  0  0
 14 15  2  0  0  0
 14 16  1  0  0  0
 16 17  1  0  0  0
 16 19  1  0  0  0
 19 20  2  0  0  0
  1 10  1  0  0  0
  4 11  1  0  0  0
 22 23  1  0  0  0
  8 12  1  0  0  0
 13 18  1  0  0  0
M  END
> <minimizedAffinity>
-8.20600

$$$$
2W4X_STZ_A_1591


 23 23  0  0  0  0  0  0  0  0999 V2000
   -6.2555  -10.3823    7.8631 O   0  0  0  0  0  0  0  0  0  0  0  0
   -6.3867  -10.8901    9.1881 C   0  0  0  0  0  0  0  0  0  0  0  0
   -5.5145  -10.0962   10.1476 C   0  0  0  0  0  0  0  0  0  0  0  0
   -4.1271  -10.3182    9.8108 O   0  0  0  0  0  0  0  0  0  0  0  0
   -5.8651  -10.4917   11.5794 C   0  0  0  0  0  0  0  0  0  0  0  0
   -7.2579  -10.2245   11.8463 O   0  0  0  0  0  0  0  0  0  0  0  0
   -8.0801  -11.0391   11.0298 C   0  0  0  0  0  0  0  0  0  0  0  0
   -9.4271  -10.7076   11.2825 O   0  0  0  0  0  0  0  0  0  0  0  0
   -7.8427  -10.7405    9.5596 C   0  0  0  0  0  0  0  0  0  0  0  0
   -5.3314  -10.4574    7.5781 H   0  0  0  0  0  0  0  0  0  0  0  0
   -3.9264  -11.2651    9.8747 H   0  0  0  0  0  0  0  0  0  0  0  0
   -9.5750   -9.7725   11.0714 H   0  0  0  0  0  0  0  0  0  0  0  0
   -8.6403  -11.6586    8.7761 N   0  0  0  0  0  0  0  0  0  0  0  0
   -9.3535  -11.3049    7.7182 C   0  0  0  0  0  0  0  0  0  0  0  0
   -9.4144  -10.1685    7.3011 O   0  0  0  0  0  0  0  0  0  0  0  0
  -10.0334  -12.2621    7.1098 N   0  0  0  0  0  0  0  0  0  0  0  0
  -10.8904  -12.1038    5.9510 C   0  0  0  0  0  0  0  0  0  0  0  0
   -8.6536  -12.6052    9.0464 H   0  0  0  0  0  0  0  0  0  0  0  0
   -9.9285  -13.5533    7.6500 N   0  0  0  0  0  0  0  0  0  0  0  0
   -9.0058  -14.2406    7.2626 O   0  0  0  0  0  0  0  0  0  0  0  0
   -4.9862   -9.7832   12.6006 C   0  0  0  0  0  0  0  0  0  0  0  0
   -4.7020   -8.4517   12.1639 O   0  0  0  0  0  0  0  0  0  0  0  0
   -4.2350   -8.4828   11.3142 H   0  0  0  0  0  0  0  0  0  0  0  0
  1  2  1  0  0  0
  2  3  1  0  0  0
  2  9  1  0  0  0
  3  4  1  0  0  0
  3  5  1  0  0  0
  5 21  1  0  0  0
  5  6  1  0  0  0
 21 22  1  0  0  0
  6  7  1  0  0  0
  7  8  1  0  0  0
  7  9  1  0  0  0
  9 13  1  0  0  0
 13 14  1  0  0  0
 14 15  2  0  0  0
 14 16  1  0  0  0
 16 17  1  0  0  0
 16 19  1  0  0  0
 19 20  2  0  0  0
  1 10  1  0  0  0
  4 11  1  0  0  0
 22 23  1  0  0  0
  8 12  1  0  0  0
 13 18  1  0  0  0
M  END
> <minimizedAffinity>
-7.79048

$$$$
2W4X_STZ_A_1591


 23 23  0  0  0  0  0  0  0  0999 V2000
   -6.4356  -12.4799    8.6850 O   0  0  0  0  0  0  0  0  0  0  0  0
   -6.7955  -11.7138    9.8315 C   0  0  0  0  0  0  0  0  0  0  0  0
   -6.1187  -10.3529    9.7919 C   0  0  0  0  0  0  0  0  0  0  0  0
   -4.6908  -10.5373    9.9137 O   0  0  0  0  0  0  0  0  0  0  0  0
   -6.7149   -9.4706   10.8853 C   0  0  0  0  0  0  0  0  0  0  0  0
   -8.1362   -9.3181   10.6867 O   0  0  0  0  0  0  0  0  0  0  0  0
   -8.7891  -10.5672   10.8278 C   0  0  0  0  0  0  0  0  0  0  0  0
  -10.1635  -10.3828   10.5725 O   0  0  0  0  0  0  0  0  0  0  0  0
   -8.2962  -11.5529    9.7825 C   0  0  0  0  0  0  0  0  0  0  0  0
   -5.4746  -12.6107    8.6722 H   0  0  0  0  0  0  0  0  0  0  0  0
   -4.4933  -10.9899   10.7485 H   0  0  0  0  0  0  0  0  0  0  0  0
  -10.2826  -10.0479    9.6700 H   0  0  0  0  0  0  0  0  0  0  0  0
   -8.9296  -12.8298   10.0295 N   0  0  0  0  0  0  0  0  0  0  0  0
   -9.4755  -13.5817    9.0864 C   0  0  0  0  0  0  0  0  0  0  0  0
   -9.5044  -13.2709    7.9152 O   0  0  0  0  0  0  0  0  0  0  0  0
  -10.0194  -14.7231    9.4736 N   0  0  0  0  0  0  0  0  0  0  0  0
  -10.6851  -15.6901    8.6224 C   0  0  0  0  0  0  0  0  0  0  0  0
   -8.9564  -13.1602   10.9565 H   0  0  0  0  0  0  0  0  0  0  0  0
   -9.9619  -15.0178   10.8446 N   0  0  0  0  0  0  0  0  0  0  0  0
   -9.0239  -15.6871   11.2266 O   0  0  0  0  0  0  0  0  0  0  0  0
   -6.0415   -8.1069   10.9513 C   0  0  0  0  0  0  0  0  0  0  0  0
   -4.8176   -8.1990   11.6849 O   0  0  0  0  0  0  0  0  0  0  0  0
   -5.0035   -8.5024   12.5873 H   0  0  0  0  0  0  0  0  0  0  0  0
  1  2  1  0  0  0
  2  3  1  0  0  0
  2  9  1  0  0  0
  3  4  1  0  0  0
  3  5  1  0  0  0
  5 21  1  0  0  0
  5  6  1  0  0  0
 21 22  1  0  0  0
  6  7  1  0  0  0
  7  8  1  0  0  0
  7  9  1  0  0  0
  9 13  1  0  0  0
 13 14  1  0  0  0
 14 15  2  0  0  0
 14 16  1  0  0  0
 16 17  1  0  0  0
 16 19  1  0  0  0
 19 20  2  0  0  0
  1 10  1  0  0  0
  4 11  1  0  0  0
 22 23  1  0  0  0
  8 12  1  0  0  0
 13 18  1  0  0  0
M  END
> <minimizedAffinity>
-7.58671

$$$$
2W4X_STZ_A_1591


 23 23  0  0  0  0  0  0  0  0999 V2000
   -9.0923   -9.8739    7.0185 O   0  0  0  0  0  0  0  0  0  0  0  0
   -9.5657  -10.9523    7.8209 C   0  0  0  0  0  0  0  0  0  0  0  0
   -9.9097  -12.1491    6.9486 C   0  0  0  0  0  0  0  0  0  0  0  0
  -11.0317  -11.8059    6.1053 O   0  0  0  0  0  0  0  0  0  0  0  0
  -10.1676  -13.3577    7.8443 C   0  0  0  0  0  0  0  0  0  0  0  0
   -8.9999  -13.6497    8.6404 O   0  0  0  0  0  0  0  0  0  0  0  0
   -8.7340  -12.5826    9.5331 C   0  0  0  0  0  0  0  0  0  0  0  0
   -7.5578  -12.8840   10.2499 O   0  0  0  0  0  0  0  0  0  0  0  0
   -8.4441  -11.3020    8.7695 C   0  0  0  0  0  0  0  0  0  0  0  0
   -9.7823   -9.6120    6.3891 H   0  0  0  0  0  0  0  0  0  0  0  0
  -11.7895  -11.5612    6.6592 H   0  0  0  0  0  0  0  0  0  0  0  0
   -6.8190  -12.9878    9.6300 H   0  0  0  0  0  0  0  0  0  0  0  0
   -8.2681  -10.2329    9.7281 N   0  0  0  0  0  0  0  0  0  0  0  0
   -7.0949   -9.7087   10.0473 C   0  0  0  0  0  0  0  0  0  0  0  0
   -6.0440  -10.0783    9.5697 O   0  0  0  0  0  0  0  0  0  0  0  0
   -7.0996   -8.7381   10.9454 N   0  0  0  0  0  0  0  0  0  0  0  0
   -5.9391   -8.0348   11.4564 C   0  0  0  0  0  0  0  0  0  0  0  0
   -9.0704   -9.8727   10.1705 H   0  0  0  0  0  0  0  0  0  0  0  0
   -8.3481   -8.3656   11.4671 N   0  0  0  0  0  0  0  0  0  0  0  0
   -8.8671   -9.1288   12.2558 O   0  0  0  0  0  0  0  0  0  0  0  0
  -10.5822  -14.5849    7.0447 C   0  0  0  0  0  0  0  0  0  0  0  0
  -10.5675  -15.7441    7.8818 O   0  0  0  0  0  0  0  0  0  0  0  0
   -9.6719  -15.8816    8.2280 H   0  0  0  0  0  0  0  0  0  0  0  0
  1  2  1  0  0  0
  2  3  1  0  0  0
  2  9  1  0  0  0
  3  4  1  0  0  0
  3  5  1  0  0  0
  5 21  1  0  0  0
  5  6  1  0  0  0
 21 22  1  0  0  0
  6  7  1  0  0  0
  7  8  1  0  0  0
  7  9  1  0  0  0
  9 13  1  0  0  0
 13 14  1  0  0  0
 14 15  2  0  0  0
 14 16  1  0  0  0
 16 17  1  0  0  0
 16 19  1  0  0  0
 19 20  2  0  0  0
  1 10  1  0  0  0
  4 11  1  0  0  0
 22 23  1  0  0  0
  8 12  1  0  0  0
 13 18  1  0  0  0
M  END
> <minimizedAffinity>
-7.36433

$$$$
2W4X_STZ_A_1591


 23 23  0  0  0  0  0  0  0  0999 V2000
   -8.6228  -13.1598   10.4903 O   0  0  0  0  0  0  0  0  0  0  0  0
   -8.1287  -11.9768    9.8678 C   0  0  0  0  0  0  0  0  0  0  0  0
   -8.3973  -10.7653   10.7463 C   0  0  0  0  0  0  0  0  0  0  0  0
   -9.8246  -10.5587   10.8342 O   0  0  0  0  0  0  0  0  0  0  0  0
   -7.6414   -9.5658   10.1813 C   0  0  0  0  0  0  0  0  0  0  0  0
   -6.2250   -9.8394   10.1417 O   0  0  0  0  0  0  0  0  0  0  0  0
   -5.9539  -10.8996    9.2423 C   0  0  0  0  0  0  0  0  0  0  0  0
   -4.5704  -11.1696    9.2758 O   0  0  0  0  0  0  0  0  0  0  0  0
   -6.6422  -12.1765    9.6928 C   0  0  0  0  0  0  0  0  0  0  0  0
   -9.5801  -13.0788   10.6245 H   0  0  0  0  0  0  0  0  0  0  0  0
  -10.1865  -10.4196    9.9450 H   0  0  0  0  0  0  0  0  0  0  0  0
   -4.3127  -11.4255   10.1752 H   0  0  0  0  0  0  0  0  0  0  0  0
   -6.4036  -13.1962    8.6948 N   0  0  0  0  0  0  0  0  0  0  0  0
   -5.5259  -14.1778    8.8326 C   0  0  0  0  0  0  0  0  0  0  0  0
   -4.8260  -14.3178    9.8122 O   0  0  0  0  0  0  0  0  0  0  0  0
   -5.4218  -15.0306    7.8273 N   0  0  0  0  0  0  0  0  0  0  0  0
   -4.5205  -16.1639    7.7519 C   0  0  0  0  0  0  0  0  0  0  0  0
   -6.9264  -13.1579    7.8615 H   0  0  0  0  0  0  0  0  0  0  0  0
   -6.2524  -14.8053    6.7186 N   0  0  0  0  0  0  0  0  0  0  0  0
   -5.8647  -15.2189    5.6451 O   0  0  0  0  0  0  0  0  0  0  0  0
   -7.9117   -8.2940   10.9729 C   0  0  0  0  0  0  0  0  0  0  0  0
   -8.0797   -8.6047   12.3585 O   0  0  0  0  0  0  0  0  0  0  0  0
   -8.8316   -9.2081   12.4657 H   0  0  0  0  0  0  0  0  0  0  0  0
  1  2  1  0  0  0
  2  3  1  0  0  0
  2  9  1  0  0  0
  3  4  1  0  0  0
  3  5  1  0  0  0
  5 21  1  0  0  0
  5  6  1  0  0  0
 21 22  1  0  0  0
  6  7  1  0  0  0
  7  8  1  0  0  0
  7  9  1  0  0  0
  9 13  1  0  0  0
 13 14  1  0  0  0
 14 15  2  0  0  0
 14 16  1  0  0  0
 16 17  1  0  0  0
 16 19  1  0  0  0
 19 20  2  0  0  0
  1 10  1  0  0  0
  4 11  1  0  0  0
 22 23  1  0  0  0
  8 12  1  0  0  0
 13 18  1  0  0  0
M  END
> <minimizedAffinity>
-7.16490

$$$$
2W4X_STZ_A_1591


 23 23  0  0  0  0  0  0  0  0999 V2000
   -7.6597   -9.6025   12.0048 O   0  0  0  0  0  0  0  0  0  0  0  0
   -7.5565  -10.6294   11.0221 C   0  0  0  0  0  0  0  0  0  0  0  0
   -8.6787  -10.5022   10.0043 C   0  0  0  0  0  0  0  0  0  0  0  0
   -9.9388  -10.7577   10.6634 O   0  0  0  0  0  0  0  0  0  0  0  0
   -8.3990  -11.4453    8.8373 C   0  0  0  0  0  0  0  0  0  0  0  0
   -7.1364  -11.1177    8.2198 O   0  0  0  0  0  0  0  0  0  0  0  0
   -6.0729  -11.3357    9.1296 C   0  0  0  0  0  0  0  0  0  0  0  0
   -4.8677  -10.9522    8.5062 O   0  0  0  0  0  0  0  0  0  0  0  0
   -6.2173  -10.4427   10.3498 C   0  0  0  0  0  0  0  0  0  0  0  0
   -8.5091   -9.6812   12.4667 H   0  0  0  0  0  0  0  0  0  0  0  0
   -9.9284  -11.6486   11.0469 H   0  0  0  0  0  0  0  0  0  0  0  0
   -4.9114  -10.0129    8.2681 H   0  0  0  0  0  0  0  0  0  0  0  0
   -5.1579  -10.7703   11.2789 N   0  0  0  0  0  0  0  0  0  0  0  0
   -4.4330   -9.8700   11.9244 C   0  0  0  0  0  0  0  0  0  0  0  0
   -4.5814   -8.6738   11.7965 O   0  0  0  0  0  0  0  0  0  0  0  0
   -3.4975  -10.3294   12.7384 N   0  0  0  0  0  0  0  0  0  0  0  0
   -2.5792   -9.5327   13.5286 C   0  0  0  0  0  0  0  0  0  0  0  0
   -4.9640  -11.7217   11.4412 H   0  0  0  0  0  0  0  0  0  0  0  0
   -3.3704  -11.7240   12.8322 N   0  0  0  0  0  0  0  0  0  0  0  0
   -2.6651  -12.2708   12.0092 O   0  0  0  0  0  0  0  0  0  0  0  0
   -9.5150  -11.4223    7.8023 C   0  0  0  0  0  0  0  0  0  0  0  0
  -10.1565  -10.1444    7.8006 O   0  0  0  0  0  0  0  0  0  0  0  0
  -10.5358   -9.9719    8.6765 H   0  0  0  0  0  0  0  0  0  0  0  0
  1  2  1  0  0  0
  2  3  1  0  0  0
  2  9  1  0  0  0
  3  4  1  0  0  0
  3  5  1  0  0  0
  5 21  1  0  0  0
  5  6  1  0  0  0
 21 22  1  0  0  0
  6  7  1  0  0  0
  7  8  1  0  0  0
  7  9  1  0  0  0
  9 13  1  0  0  0
 13 14  1  0  0  0
 14 15  2  0  0  0
 14 16  1  0  0  0
 16 17  1  0  0  0
 16 19  1  0  0  0
 19 20  2  0  0  0
  1 10  1  0  0  0
  4 11  1  0  0  0
 22 23  1  0  0  0
  8 12  1  0  0  0
 13 18  1  0  0  0
M  END
> <minimizedAffinity>
-7.09169

$$$$
2W4X_STZ_A_1591


 23 23  0  0  0  0  0  0  0  0999 V2000
   -8.4725  -12.8211    7.8570 O   0  0  0  0  0  0  0  0  0  0  0  0
   -9.4940  -13.3816    8.6775 C   0  0  0  0  0  0  0  0  0  0  0  0
   -9.7667  -14.8216    8.2728 C   0  0  0  0  0  0  0  0  0  0  0  0
  -10.3249  -14.8349    6.9402 O   0  0  0  0  0  0  0  0  0  0  0  0
  -10.6707  -15.4680    9.3189 C   0  0  0  0  0  0  0  0  0  0  0  0
  -10.0398  -15.4336   10.6164 O   0  0  0  0  0  0  0  0  0  0  0  0
   -9.8784  -14.0946   11.0493 C   0  0  0  0  0  0  0  0  0  0  0  0
   -9.2111  -14.1052   12.2913 O   0  0  0  0  0  0  0  0  0  0  0  0
   -8.9797  -13.3257   10.0961 C   0  0  0  0  0  0  0  0  0  0  0  0
   -8.7582  -12.8350    6.9302 H   0  0  0  0  0  0  0  0  0  0  0  0
  -11.1458  -14.3183    6.9283 H   0  0  0  0  0  0  0  0  0  0  0  0
   -8.3431  -14.5260   12.1884 H   0  0  0  0  0  0  0  0  0  0  0  0
   -8.9228  -11.9493   10.5379 N   0  0  0  0  0  0  0  0  0  0  0  0
   -7.8518  -11.1788   10.4279 C   0  0  0  0  0  0  0  0  0  0  0  0
   -6.8037  -11.5535    9.9482 O   0  0  0  0  0  0  0  0  0  0  0  0
   -7.9575   -9.9417   10.8830 N   0  0  0  0  0  0  0  0  0  0  0  0
   -6.9148   -8.9341   10.8826 C   0  0  0  0  0  0  0  0  0  0  0  0
   -9.7306  -11.5616   10.9457 H   0  0  0  0  0  0  0  0  0  0  0  0
   -9.1942   -9.5751   11.4361 N   0  0  0  0  0  0  0  0  0  0  0  0
   -9.3174   -9.6904   12.6383 O   0  0  0  0  0  0  0  0  0  0  0  0
  -11.0423  -16.8974    8.9500 C   0  0  0  0  0  0  0  0  0  0  0  0
   -9.8755  -17.7238    8.9518 O   0  0  0  0  0  0  0  0  0  0  0  0
   -9.2391  -17.3862    8.3022 H   0  0  0  0  0  0  0  0  0  0  0  0
  1  2  1  0  0  0
  2  3  1  0  0  0
  2  9  1  0  0  0
  3  4  1  0  0  0
  3  5  1  0  0  0
  5 21  1  0  0  0
  5  6  1  0  0  0
 21 22  1  0  0  0
  6  7  1  0  0  0
  7  8  1  0  0  0
  7  9  1  0  0  0
  9 13  1  0  0  0
 13 14  1  0  0  0
 14 15  2  0  0  0
 14 16  1  0  0  0
 16 17  1  0  0  0
 16 19  1  0  0  0
 19 20  2  0  0  0
  1 10  1  0  0  0
  4 11  1  0  0  0
 22 23  1  0  0  0
  8 12  1  0  0  0
 13 18  1  0  0  0
M  END
> <minimizedAffinity>
-6.93339

$$$$
2W4X_STZ_A_1591


 23 23  0  0  0  0  0  0  0  0999 V2000
  -10.2734  -12.1257   10.4452 O   0  0  0  0  0  0  0  0  0  0  0  0
   -9.3204  -13.1845   10.4854 C   0  0  0  0  0  0  0  0  0  0  0  0
   -9.9619  -14.4904   10.0442 C   0  0  0  0  0  0  0  0  0  0  0  0
  -10.9647  -14.8693   11.0129 O   0  0  0  0  0  0  0  0  0  0  0  0
   -8.8702  -15.5400    9.8546 C   0  0  0  0  0  0  0  0  0  0  0  0
   -7.9192  -15.1001    8.8622 O   0  0  0  0  0  0  0  0  0  0  0  0
   -7.2392  -13.9419    9.3122 C   0  0  0  0  0  0  0  0  0  0  0  0
   -6.3627  -13.5158    8.2932 O   0  0  0  0  0  0  0  0  0  0  0  0
   -8.2137  -12.7980    9.5335 C   0  0  0  0  0  0  0  0  0  0  0  0
  -11.0084  -12.3293   11.0446 H   0  0  0  0  0  0  0  0  0  0  0  0
  -10.5503  -14.9725   11.8838 H   0  0  0  0  0  0  0  0  0  0  0  0
   -6.8719  -13.3101    7.4937 H   0  0  0  0  0  0  0  0  0  0  0  0
   -7.4790  -11.6749   10.0738 N   0  0  0  0  0  0  0  0  0  0  0  0
   -7.8086  -10.4082    9.8749 C   0  0  0  0  0  0  0  0  0  0  0  0
   -8.7615  -10.0604    9.2115 O   0  0  0  0  0  0  0  0  0  0  0  0
   -7.0329   -9.4949   10.4342 N   0  0  0  0  0  0  0  0  0  0  0  0
   -7.1910   -8.0568   10.3366 C   0  0  0  0  0  0  0  0  0  0  0  0
   -6.6845  -11.8644   10.6235 H   0  0  0  0  0  0  0  0  0  0  0  0
   -5.9403   -9.9642   11.1797 N   0  0  0  0  0  0  0  0  0  0  0  0
   -6.1388  -10.2186   12.3500 O   0  0  0  0  0  0  0  0  0  0  0  0
   -9.4418  -16.8982    9.4729 C   0  0  0  0  0  0  0  0  0  0  0  0
  -10.5516  -16.7323    8.5868 O   0  0  0  0  0  0  0  0  0  0  0  0
  -11.2421  -16.2125    9.0273 H   0  0  0  0  0  0  0  0  0  0  0  0
  1  2  1  0  0  0
  2  3  1  0  0  0
  2  9  1  0  0  0
  3  4  1  0  0  0
  3  5  1  0  0  0
  5 21  1  0  0  0
  5  6  1  0  0  0
 21 22  1  0  0  0
  6  7  1  0  0  0
  7  8  1  0  0  0
  7  9  1  0  0  0
  9 13  1  0  0  0
 13 14  1  0  0  0
 14 15  2  0  0  0
 14 16  1  0  0  0
 16 17  1  0  0  0
 16 19  1  0  0  0
 19 20  2  0  0  0
  1 10  1  0  0  0
  4 11  1  0  0  0
 22 23  1  0  0  0
  8 12  1  0  0  0
 13 18  1  0  0  0
M  END
> <minimizedAffinity>
-6.87881

$$$$
2W4X_STZ_A_1591


 23 23  0  0  0  0  0  0  0  0999 V2000
   -8.9170  -12.4259   11.6433 O   0  0  0  0  0  0  0  0  0  0  0  0
   -8.7591  -12.7550   10.2657 C   0  0  0  0  0  0  0  0  0  0  0  0
   -9.8100  -13.7680    9.8402 C   0  0  0  0  0  0  0  0  0  0  0  0
   -9.5717  -15.0102   10.5386 O   0  0  0  0  0  0  0  0  0  0  0  0
   -9.7781  -13.9071    8.3206 C   0  0  0  0  0  0  0  0  0  0  0  0
  -10.0420  -12.6336    7.6952 O   0  0  0  0  0  0  0  0  0  0  0  0
   -9.0098  -11.7128    8.0002 C   0  0  0  0  0  0  0  0  0  0  0  0
   -9.3342  -10.4707    7.4171 O   0  0  0  0  0  0  0  0  0  0  0  0
   -8.9333  -11.4669    9.4972 C   0  0  0  0  0  0  0  0  0  0  0  0
   -8.8131  -13.2265   12.1809 H   0  0  0  0  0  0  0  0  0  0  0  0
   -8.6826  -15.3349   10.3266 H   0  0  0  0  0  0  0  0  0  0  0  0
  -10.1768  -10.1540    7.7786 H   0  0  0  0  0  0  0  0  0  0  0  0
   -7.8108  -10.5918    9.7559 N   0  0  0  0  0  0  0  0  0  0  0  0
   -7.8419   -9.5772   10.6059 C   0  0  0  0  0  0  0  0  0  0  0  0
   -8.8216   -9.2747   11.2521 O   0  0  0  0  0  0  0  0  0  0  0  0
   -6.7329   -8.8675   10.7286 N   0  0  0  0  0  0  0  0  0  0  0  0
   -6.5436   -7.7097   11.5808 C   0  0  0  0  0  0  0  0  0  0  0  0
   -6.9717  -10.7612    9.2696 H   0  0  0  0  0  0  0  0  0  0  0  0
   -5.6387   -9.2636    9.9440 N   0  0  0  0  0  0  0  0  0  0  0  0
   -4.9077  -10.1158   10.4058 O   0  0  0  0  0  0  0  0  0  0  0  0
  -10.7625  -14.9552    7.8208 C   0  0  0  0  0  0  0  0  0  0  0  0
  -10.3779  -16.2513    8.2862 O   0  0  0  0  0  0  0  0  0  0  0  0
   -9.4930  -16.4655    7.9517 H   0  0  0  0  0  0  0  0  0  0  0  0
  1  2  1  0  0  0
  2  3  1  0  0  0
  2  9  1  0  0  0
  3  4  1  0  0  0
  3  5  1  0  0  0
  5 21  1  0  0  0
  5  6  1  0  0  0
 21 22  1  0  0  0
  6  7  1  0  0  0
  7  8  1  0  0  0
  7  9  1  0  0  0
  9 13  1  0  0  0
 13 14  1  0  0  0
 14 15  2  0  0  0
 14 16  1  0  0  0
 16 17  1  0  0  0
 16 19  1  0  0  0
 19 20  2  0  0  0
  1 10  1  0  0  0
  4 11  1  0  0  0
 22 23  1  0  0  0
  8 12  1  0  0  0
 13 18  1  0  0  0
M  END
> <minimizedAffinity>
-6.82362

$$$$
2W4X_STZ_A_1591


 23 23  0  0  0  0  0  0  0  0999 V2000
   -6.3033  -13.5356    9.6898 O   0  0  0  0  0  0  0  0  0  0  0  0
   -7.0062  -12.6219    8.8521 C   0  0  0  0  0  0  0  0  0  0  0  0
   -8.2713  -13.2676    8.3096 C   0  0  0  0  0  0  0  0  0  0  0  0
   -7.9020  -14.3534    7.4308 O   0  0  0  0  0  0  0  0  0  0  0  0
   -9.1228  -12.1976    7.6319 C   0  0  0  0  0  0  0  0  0  0  0  0
   -9.4664  -11.1596    8.5738 O   0  0  0  0  0  0  0  0  0  0  0  0
   -8.3002  -10.4808    9.0045 C   0  0  0  0  0  0  0  0  0  0  0  0
   -8.6744   -9.5155    9.9617 O   0  0  0  0  0  0  0  0  0  0  0  0
   -7.3551  -11.4335    9.7161 C   0  0  0  0  0  0  0  0  0  0  0  0
   -6.0563  -14.3206    9.1764 H   0  0  0  0  0  0  0  0  0  0  0  0
   -7.3580  -14.0108    6.7044 H   0  0  0  0  0  0  0  0  0  0  0  0
   -9.0982   -9.9549   10.7155 H   0  0  0  0  0  0  0  0  0  0  0  0
   -6.1497  -10.7082   10.0534 N   0  0  0  0  0  0  0  0  0  0  0  0
   -5.8979  -10.2049   11.2518 C   0  0  0  0  0  0  0  0  0  0  0  0
   -6.6592  -10.2970   12.1904 O   0  0  0  0  0  0  0  0  0  0  0  0
   -4.7508   -9.5640   11.4008 N   0  0  0  0  0  0  0  0  0  0  0  0
   -4.2767   -8.9211   12.6109 C   0  0  0  0  0  0  0  0  0  0  0  0
   -5.4747  -10.5810    9.3481 H   0  0  0  0  0  0  0  0  0  0  0  0
   -3.9204   -9.4837   10.2722 N   0  0  0  0  0  0  0  0  0  0  0  0
   -3.2031  -10.4365   10.0455 O   0  0  0  0  0  0  0  0  0  0  0  0
  -10.3819  -12.7799    7.0050 C   0  0  0  0  0  0  0  0  0  0  0  0
  -10.0350  -13.6504    5.9250 O   0  0  0  0  0  0  0  0  0  0  0  0
   -9.5494  -13.1507    5.2502 H   0  0  0  0  0  0  0  0  0  0  0  0
  1  2  1  0  0  0
  2  3  1  0  0  0
  2  9  1  0  0  0
  3  4  1  0  0  0
  3  5  1  0  0  0
  5 21  1  0  0  0
  5  6  1  0  0  0
 21 22  1  0  0  0
  6  7  1  0  0  0
  7  8  1  0  0  0
  7  9  1  0  0  0
  9 13  1  0  0  0
 13 14  1  0  0  0
 14 15  2  0  0  0
 14 16  1  0  0  0
 16 17  1  0  0  0
 16 19  1  0  0  0
 19 20  2  0  0  0
  1 10  1  0  0  0
  4 11  1  0  0  0
 22 23  1  0  0  0
  8 12  1  0  0  0
 13 18  1  0  0  0
M  END
> <minimizedAffinity>
-6.77522

$$$$
