3EKX_1UN_B_201


 44 47  0  0  0  0  0  0  0  0999 V2000
   19.8807   29.6029   15.5856 C   0  0  0  0  0  0  0  0  0  0  0  0
   20.2261   29.3262   16.9260 O   0  0  0  0  0  0  0  0  0  0  0  0
   21.1866   29.2099   16.9950 H   0  0  0  0  0  0  0  0  0  0  0  0
   20.3795   28.4001   14.8057 C   0  0  0  0  0  0  0  0  0  0  0  0
   17.6746   27.4707   12.5473 C   0  0  0  0  0  0  0  0  0  0  0  0
   18.4349   26.8382   11.3907 C   0  0  0  0  0  0  0  0  0  0  0  0
   17.6391   26.7676   10.0923 C   0  0  0  0  0  0  0  0  0  0  0  0
   16.9797   28.1099    9.8103 C   0  0  0  0  0  0  0  0  0  0  0  0
   16.2189   28.5915   11.0372 C   0  0  0  0  0  0  0  0  0  0  0  0
   17.1419   28.8522   12.2258 C   0  0  0  0  0  0  0  0  0  0  0  0
   19.6877   28.3645   13.5302 N   0  0  0  0  0  0  0  0  0  0  0  0
   20.4876   27.6926   12.5147 C   0  0  0  0  0  0  0  0  0  0  0  0
   19.7225   27.6193   11.1912 C   0  0  0  0  0  0  0  0  0  0  0  0
   18.5062   27.5506   13.8157 C   0  0  0  0  0  0  0  0  0  0  0  0
   21.7352   28.4371   12.1801 C   0  0  0  0  0  0  0  0  0  0  0  0
   22.8126   27.6545   12.2149 N   0  0  0  0  0  0  0  0  0  0  0  0
   21.6731   29.6218   11.8790 O   0  0  0  0  0  0  0  0  0  0  0  0
   22.6773   26.7296   12.5239 H   0  0  0  0  0  0  0  0  0  0  0  0
   24.1605   28.0245   11.8453 C   0  0  0  0  0  0  0  0  0  0  0  0
   24.6387   29.0162   12.9052 C   0  0  0  0  0  0  0  0  0  0  0  0
   24.1697   28.6166   10.4335 C   0  0  0  0  0  0  0  0  0  0  0  0
   25.0264   26.7594   11.8585 C   0  0  0  0  0  0  0  0  0  0  0  0
   20.4828   30.9164   15.1037 C   0  0  0  0  0  0  0  0  0  0  0  0
   19.8778   31.9810   15.8708 N   0  0  0  0  0  0  0  0  0  0  0  0
   18.9250   32.7753   15.3919 C   0  0  0  0  0  0  0  0  0  0  0  0
   18.5388   32.7835   14.2379 O   0  0  0  0  0  0  0  0  0  0  0  0
   20.1866   32.1255   16.7944 H   0  0  0  0  0  0  0  0  0  0  0  0
   18.3101   33.7077   16.3837 C   0  0  0  0  0  0  0  0  0  0  0  0
   19.1234   34.6102   17.0710 C   0  0  0  0  0  0  0  0  0  0  0  0
   18.6117   35.4941   18.0189 C   0  0  0  0  0  0  0  0  0  0  0  0
   17.2524   35.5113   18.3008 C   0  0  0  0  0  0  0  0  0  0  0  0
   16.3791   34.6377   17.6580 C   0  0  0  0  0  0  0  0  0  0  0  0
   16.8603   33.6689   16.6512 C   0  0  0  0  0  0  0  0  0  0  0  0
   15.0895   34.6302   17.9274 O   0  0  0  0  0  0  0  0  0  0  0  0
   15.8749   32.7446   15.9791 C   0  0  0  0  0  0  0  0  0  0  0  0
   14.7393   35.2271   18.5591 H   0  0  0  0  0  0  0  0  0  0  0  0
   21.9955   31.0674   15.2397 C   0  0  0  0  0  0  0  0  0  0  0  0
   22.5230   32.5035   14.3530 S   0  0  0  0  0  0  0  0  0  0  0  0
   22.6203   33.8360   15.3902 C   0  0  0  0  0  0  0  0  0  0  0  0
   23.1266   33.6129   16.6638 C   0  0  0  0  0  0  0  0  0  0  0  0
   23.2404   34.6685   17.5544 C   0  0  0  0  0  0  0  0  0  0  0  0
   22.8292   35.9409   17.1798 C   0  0  0  0  0  0  0  0  0  0  0  0
   22.3185   36.1596   15.9064 C   0  0  0  0  0  0  0  0  0  0  0  0
   22.2124   35.1091   15.0029 C   0  0  0  0  0  0  0  0  0  0  0  0
  5  6  1  0  0  0
  5 10  1  0  0  0
  5 14  1  0  0  0
  6  7  1  0  0  0
  6 13  1  0  0  0
  7  8  1  0  0  0
  8  9  1  0  0  0
  9 10  1  0  0  0
 11 12  1  0  0  0
 11 14  1  0  0  0
 11  4  1  0  0  0
 12 13  1  0  0  0
 12 15  1  0  0  0
 15 16  1  0  0  0
 15 17  2  0  0  0
 16 19  1  0  0  0
 19 20  1  0  0  0
 19 21  1  0  0  0
 19 22  1  0  0  0
  4  1  1  0  0  0
  1 23  1  0  0  0
  1  2  1  0  0  0
 23 24  1  0  0  0
 23 37  1  0  0  0
 24 25  1  0  0  0
 37 38  1  0  0  0
 25 26  2  0  0  0
 25 28  1  0  0  0
 28 29  2  0  0  0
 28 33  1  0  0  0
 29 30  1  0  0  0
 30 31  2  0  0  0
 31 32  1  0  0  0
 32 33  2  0  0  0
 32 34  1  0  0  0
 33 35  1  0  0  0
 38 39  1  0  0  0
 39 40  2  0  0  0
 39 44  1  0  0  0
 40 41  1  0  0  0
 41 42  2  0  0  0
 42 43  1  0  0  0
 43 44  2  0  0  0
 16 18  1  0  0  0
  2  3  1  0  0  0
 24 27  1  0  0  0
 34 36  1  0  0  0
M  END
> <minimizedAffinity>
-11.45413

$$$$
3EKX_1UN_B_201


 44 47  0  0  0  0  0  0  0  0999 V2000
   19.8855   29.4266   15.6188 C   0  0  0  0  0  0  0  0  0  0  0  0
   20.3073   29.0740   16.9189 O   0  0  0  0  0  0  0  0  0  0  0  0
   21.2738   29.1362   16.9733 H   0  0  0  0  0  0  0  0  0  0  0  0
   20.5854   28.4350   14.7073 C   0  0  0  0  0  0  0  0  0  0  0  0
   17.7829   27.5249   12.5630 C   0  0  0  0  0  0  0  0  0  0  0  0
   18.4845   26.8146   11.4144 C   0  0  0  0  0  0  0  0  0  0  0  0
   17.6501   26.7232   10.1418 C   0  0  0  0  0  0  0  0  0  0  0  0
   17.0369   28.0786    9.8208 C   0  0  0  0  0  0  0  0  0  0  0  0
   16.3309   28.6412   11.0459 C   0  0  0  0  0  0  0  0  0  0  0  0
   17.2968   28.9126   12.1975 C   0  0  0  0  0  0  0  0  0  0  0  0
   19.8570   28.3753   13.4533 N   0  0  0  0  0  0  0  0  0  0  0  0
   20.6004   27.6298   12.4463 C   0  0  0  0  0  0  0  0  0  0  0  0
   19.7959   27.5334   11.1478 C   0  0  0  0  0  0  0  0  0  0  0  0
   18.6525   27.6229   13.8043 C   0  0  0  0  0  0  0  0  0  0  0  0
   21.8668   28.3081   12.0474 C   0  0  0  0  0  0  0  0  0  0  0  0
   22.9222   27.5013   12.1456 N   0  0  0  0  0  0  0  0  0  0  0  0
   21.8363   29.4646   11.6478 O   0  0  0  0  0  0  0  0  0  0  0  0
   22.7625   26.6098   12.5317 H   0  0  0  0  0  0  0  0  0  0  0  0
   24.2781   27.8008   11.7432 C   0  0  0  0  0  0  0  0  0  0  0  0
   25.0403   26.4769   11.7860 C   0  0  0  0  0  0  0  0  0  0  0  0
   24.8763   28.8587   12.6742 C   0  0  0  0  0  0  0  0  0  0  0  0
   24.2431   28.3588   10.3157 C   0  0  0  0  0  0  0  0  0  0  0  0
   20.2169   30.8760   15.2879 C   0  0  0  0  0  0  0  0  0  0  0  0
   19.2162   31.7068   15.9173 N   0  0  0  0  0  0  0  0  0  0  0  0
   18.3753   32.4795   15.2361 C   0  0  0  0  0  0  0  0  0  0  0  0
   18.4220   32.6717   14.0353 O   0  0  0  0  0  0  0  0  0  0  0  0
   19.1538   31.7005   16.8998 H   0  0  0  0  0  0  0  0  0  0  0  0
   17.3084   33.1369   16.0488 C   0  0  0  0  0  0  0  0  0  0  0  0
   15.9772   32.7585   15.8664 C   0  0  0  0  0  0  0  0  0  0  0  0
   14.9361   33.3453   16.5828 C   0  0  0  0  0  0  0  0  0  0  0  0
   15.2002   34.3305   17.5248 C   0  0  0  0  0  0  0  0  0  0  0  0
   16.5029   34.7628   17.7592 C   0  0  0  0  0  0  0  0  0  0  0  0
   17.6495   34.1886   17.0248 C   0  0  0  0  0  0  0  0  0  0  0  0
   16.7676   35.7087   18.6372 O   0  0  0  0  0  0  0  0  0  0  0  0
   19.0436   34.6876   17.3161 C   0  0  0  0  0  0  0  0  0  0  0  0
   16.0718   36.1019   19.1264 H   0  0  0  0  0  0  0  0  0  0  0  0
   21.5798   31.3888   15.7450 C   0  0  0  0  0  0  0  0  0  0  0  0
   22.1090   32.6869   14.6672 S   0  0  0  0  0  0  0  0  0  0  0  0
   22.3527   34.1161   15.5384 C   0  0  0  0  0  0  0  0  0  0  0  0
   23.0239   34.0140   16.7497 C   0  0  0  0  0  0  0  0  0  0  0  0
   23.2626   35.1524   17.5029 C   0  0  0  0  0  0  0  0  0  0  0  0
   22.8127   36.3879   17.0562 C   0  0  0  0  0  0  0  0  0  0  0  0
   22.1373   36.4858   15.8461 C   0  0  0  0  0  0  0  0  0  0  0  0
   21.9045   35.3509   15.0786 C   0  0  0  0  0  0  0  0  0  0  0  0
  5  6  1  0  0  0
  5 10  1  0  0  0
  5 14  1  0  0  0
  6  7  1  0  0  0
  6 13  1  0  0  0
  7  8  1  0  0  0
  8  9  1  0  0  0
  9 10  1  0  0  0
 11 12  1  0  0  0
 11 14  1  0  0  0
 11  4  1  0  0  0
 12 13  1  0  0  0
 12 15  1  0  0  0
 15 16  1  0  0  0
 15 17  2  0  0  0
 16 19  1  0  0  0
 19 20  1  0  0  0
 19 21  1  0  0  0
 19 22  1  0  0  0
  4  1  1  0  0  0
  1 23  1  0  0  0
  1  2  1  0  0  0
 23 24  1  0  0  0
 23 37  1  0  0  0
 24 25  1  0  0  0
 37 38  1  0  0  0
 25 26  2  0  0  0
 25 28  1  0  0  0
 28 29  2  0  0  0
 28 33  1  0  0  0
 29 30  1  0  0  0
 30 31  2  0  0  0
 31 32  1  0  0  0
 32 33  2  0  0  0
 32 34  1  0  0  0
 33 35  1  0  0  0
 38 39  1  0  0  0
 39 40  2  0  0  0
 39 44  1  0  0  0
 40 41  1  0  0  0
 41 42  2  0  0  0
 42 43  1  0  0  0
 43 44  2  0  0  0
 16 18  1  0  0  0
  2  3  1  0  0  0
 24 27  1  0  0  0
 34 36  1  0  0  0
M  END
> <minimizedAffinity>
-11.09379

$$$$
3EKX_1UN_B_201


 44 47  0  0  0  0  0  0  0  0999 V2000
   20.3795   29.2718   15.3330 C   0  0  0  0  0  0  0  0  0  0  0  0
   20.3281   28.1029   16.1227 O   0  0  0  0  0  0  0  0  0  0  0  0
   19.4090   27.9236   16.3756 H   0  0  0  0  0  0  0  0  0  0  0  0
   19.7964   30.3578   16.2186 C   0  0  0  0  0  0  0  0  0  0  0  0
   22.3606   32.9462   16.1417 C   0  0  0  0  0  0  0  0  0  0  0  0
   21.5659   34.1865   16.5237 C   0  0  0  0  0  0  0  0  0  0  0  0
   22.2397   35.4973   16.1337 C   0  0  0  0  0  0  0  0  0  0  0  0
   22.7255   35.4264   14.6932 C   0  0  0  0  0  0  0  0  0  0  0  0
   23.5431   34.1616   14.4743 C   0  0  0  0  0  0  0  0  0  0  0  0
   22.7130   32.8943   14.6691 C   0  0  0  0  0  0  0  0  0  0  0  0
   20.3656   31.6305   15.8148 N   0  0  0  0  0  0  0  0  0  0  0  0
   19.5492   32.7445   16.2780 C   0  0  0  0  0  0  0  0  0  0  0  0
   20.1906   34.0782   15.8877 C   0  0  0  0  0  0  0  0  0  0  0  0
   21.6475   31.6594   16.5191 C   0  0  0  0  0  0  0  0  0  0  0  0
   18.2046   32.7783   15.6348 C   0  0  0  0  0  0  0  0  0  0  0  0
   17.2526   33.1718   16.4794 N   0  0  0  0  0  0  0  0  0  0  0  0
   18.0920   32.5000   14.4483 O   0  0  0  0  0  0  0  0  0  0  0  0
   17.5229   33.3121   17.4156 H   0  0  0  0  0  0  0  0  0  0  0  0
   15.8631   33.4140   16.1618 C   0  0  0  0  0  0  0  0  0  0  0  0
   15.2785   32.0663   15.7405 C   0  0  0  0  0  0  0  0  0  0  0  0
   15.7570   34.4749   15.0632 C   0  0  0  0  0  0  0  0  0  0  0  0
   15.1659   33.9351   17.4239 C   0  0  0  0  0  0  0  0  0  0  0  0
   19.6243   29.1042   14.0209 C   0  0  0  0  0  0  0  0  0  0  0  0
   20.2946   28.0746   13.2603 N   0  0  0  0  0  0  0  0  0  0  0  0
   21.0679   28.3302   12.2092 C   0  0  0  0  0  0  0  0  0  0  0  0
   21.2069   29.4245   11.6954 O   0  0  0  0  0  0  0  0  0  0  0  0
   20.1727   27.1368   13.5341 H   0  0  0  0  0  0  0  0  0  0  0  0
   21.8038   27.1545   11.6546 C   0  0  0  0  0  0  0  0  0  0  0  0
   21.0873   26.1243   11.0432 C   0  0  0  0  0  0  0  0  0  0  0  0
   21.7148   24.9951   10.5209 C   0  0  0  0  0  0  0  0  0  0  0  0
   23.0960   24.8679   10.5829 C   0  0  0  0  0  0  0  0  0  0  0  0
   23.8773   25.8531   11.1812 C   0  0  0  0  0  0  0  0  0  0  0  0
   23.2720   27.0689   11.7636 C   0  0  0  0  0  0  0  0  0  0  0  0
   25.1873   25.7385   11.2631 O   0  0  0  0  0  0  0  0  0  0  0  0
   24.1605   28.1103   12.3985 C   0  0  0  0  0  0  0  0  0  0  0  0
   25.6147   24.9843   10.9076 H   0  0  0  0  0  0  0  0  0  0  0  0
   18.1549   28.7041   14.1223 C   0  0  0  0  0  0  0  0  0  0  0  0
   17.3535   29.0209   12.5782 S   0  0  0  0  0  0  0  0  0  0  0  0
   17.4392   27.6600   11.5775 C   0  0  0  0  0  0  0  0  0  0  0  0
   17.6445   27.8811   10.2221 C   0  0  0  0  0  0  0  0  0  0  0  0
   17.7344   26.8044    9.3544 C   0  0  0  0  0  0  0  0  0  0  0  0
   17.5980   25.5096    9.8376 C   0  0  0  0  0  0  0  0  0  0  0  0
   17.3878   25.2922   11.1936 C   0  0  0  0  0  0  0  0  0  0  0  0
   17.3088   26.3657   12.0724 C   0  0  0  0  0  0  0  0  0  0  0  0
  5  6  1  0  0  0
  5 10  1  0  0  0
  5 14  1  0  0  0
  6  7  1  0  0  0
  6 13  1  0  0  0
  7  8  1  0  0  0
  8  9  1  0  0  0
  9 10  1  0  0  0
 11 12  1  0  0  0
 11 14  1  0  0  0
 11  4  1  0  0  0
 12 13  1  0  0  0
 12 15  1  0  0  0
 15 16  1  0  0  0
 15 17  2  0  0  0
 16 19  1  0  0  0
 19 20  1  0  0  0
 19 21  1  0  0  0
 19 22  1  0  0  0
  4  1  1  0  0  0
  1 23  1  0  0  0
  1  2  1  0  0  0
 23 24  1  0  0  0
 23 37  1  0  0  0
 24 25  1  0  0  0
 37 38  1  0  0  0
 25 26  2  0  0  0
 25 28  1  0  0  0
 28 29  2  0  0  0
 28 33  1  0  0  0
 29 30  1  0  0  0
 30 31  2  0  0  0
 31 32  1  0  0  0
 32 33  2  0  0  0
 32 34  1  0  0  0
 33 35  1  0  0  0
 38 39  1  0  0  0
 39 40  2  0  0  0
 39 44  1  0  0  0
 40 41  1  0  0  0
 41 42  2  0  0  0
 42 43  1  0  0  0
 43 44  2  0  0  0
 16 18  1  0  0  0
  2  3  1  0  0  0
 24 27  1  0  0  0
 34 36  1  0  0  0
M  END
> <minimizedAffinity>
-11.09199

$$$$
3EKX_1UN_B_201


 44 47  0  0  0  0  0  0  0  0999 V2000
   18.9142   31.5255   13.8630 C   0  0  0  0  0  0  0  0  0  0  0  0
   19.5748   31.5935   12.6173 O   0  0  0  0  0  0  0  0  0  0  0  0
   19.7657   30.6959   12.3032 H   0  0  0  0  0  0  0  0  0  0  0  0
   19.8808   30.7845   14.7687 C   0  0  0  0  0  0  0  0  0  0  0  0
   22.2751   28.5630   13.1521 C   0  0  0  0  0  0  0  0  0  0  0  0
   23.5932   29.0351   13.7484 C   0  0  0  0  0  0  0  0  0  0  0  0
   24.8194   28.6264   12.9400 C   0  0  0  0  0  0  0  0  0  0  0  0
   24.5992   28.9339   11.4658 C   0  0  0  0  0  0  0  0  0  0  0  0
   23.2685   28.3604   11.0008 C   0  0  0  0  0  0  0  0  0  0  0  0
   22.0803   29.0014   11.7150 C   0  0  0  0  0  0  0  0  0  0  0  0
   21.0751   30.4738   14.0045 N   0  0  0  0  0  0  0  0  0  0  0  0
   22.2757   30.9259   14.6948 C   0  0  0  0  0  0  0  0  0  0  0  0
   23.5269   30.5451   13.8998 C   0  0  0  0  0  0  0  0  0  0  0  0
   21.0743   29.0114   13.9668 C   0  0  0  0  0  0  0  0  0  0  0  0
   22.3480   32.4106   14.8098 C   0  0  0  0  0  0  0  0  0  0  0  0
   22.6750   32.8046   16.0396 N   0  0  0  0  0  0  0  0  0  0  0  0
   22.1547   33.1063   13.8216 O   0  0  0  0  0  0  0  0  0  0  0  0
   22.7494   32.1008   16.7240 H   0  0  0  0  0  0  0  0  0  0  0  0
   22.9316   34.1600   16.4721 C   0  0  0  0  0  0  0  0  0  0  0  0
   23.1442   34.0945   17.9841 C   0  0  0  0  0  0  0  0  0  0  0  0
   21.7605   35.0635   16.0775 C   0  0  0  0  0  0  0  0  0  0  0  0
   24.2002   34.6564   15.7687 C   0  0  0  0  0  0  0  0  0  0  0  0
   17.5590   30.8396   13.7503 C   0  0  0  0  0  0  0  0  0  0  0  0
   17.7628   29.5800   13.0721 N   0  0  0  0  0  0  0  0  0  0  0  0
   16.8507   29.0200   12.2831 C   0  0  0  0  0  0  0  0  0  0  0  0
   15.7136   29.4269   12.1335 O   0  0  0  0  0  0  0  0  0  0  0  0
   18.6199   29.1131   13.2008 H   0  0  0  0  0  0  0  0  0  0  0  0
   17.3040   27.8044   11.5428 C   0  0  0  0  0  0  0  0  0  0  0  0
   17.1062   27.7292   10.1630 C   0  0  0  0  0  0  0  0  0  0  0  0
   17.4929   26.6160    9.4195 C   0  0  0  0  0  0  0  0  0  0  0  0
   18.1092   25.5374   10.0395 C   0  0  0  0  0  0  0  0  0  0  0  0
   18.3366   25.5384   11.4134 C   0  0  0  0  0  0  0  0  0  0  0  0
   17.9403   26.6834   12.2594 C   0  0  0  0  0  0  0  0  0  0  0  0
   18.9046   24.5153   12.0186 O   0  0  0  0  0  0  0  0  0  0  0  0
   18.2107   26.6395   13.7433 C   0  0  0  0  0  0  0  0  0  0  0  0
   19.1725   23.7671   11.5222 H   0  0  0  0  0  0  0  0  0  0  0  0
   16.8346   30.5341   15.0585 C   0  0  0  0  0  0  0  0  0  0  0  0
   15.3201   31.4450   15.1161 S   0  0  0  0  0  0  0  0  0  0  0  0
   15.5967   33.0169   15.6763 C   0  0  0  0  0  0  0  0  0  0  0  0
   15.3505   33.2638   17.0204 C   0  0  0  0  0  0  0  0  0  0  0  0
   15.5693   34.5299   17.5395 C   0  0  0  0  0  0  0  0  0  0  0  0
   16.0131   35.5529   16.7118 C   0  0  0  0  0  0  0  0  0  0  0  0
   16.2538   35.3035   15.3664 C   0  0  0  0  0  0  0  0  0  0  0  0
   16.0487   34.0337   14.8404 C   0  0  0  0  0  0  0  0  0  0  0  0
  5  6  1  0  0  0
  5 10  1  0  0  0
  5 14  1  0  0  0
  6  7  1  0  0  0
  6 13  1  0  0  0
  7  8  1  0  0  0
  8  9  1  0  0  0
  9 10  1  0  0  0
 11 12  1  0  0  0
 11 14  1  0  0  0
 11  4  1  0  0  0
 12 13  1  0  0  0
 12 15  1  0  0  0
 15 16  1  0  0  0
 15 17  2  0  0  0
 16 19  1  0  0  0
 19 20  1  0  0  0
 19 21  1  0  0  0
 19 22  1  0  0  0
  4  1  1  0  0  0
  1 23  1  0  0  0
  1  2  1  0  0  0
 23 24  1  0  0  0
 23 37  1  0  0  0
 24 25  1  0  0  0
 37 38  1  0  0  0
 25 26  2  0  0  0
 25 28  1  0  0  0
 28 29  2  0  0  0
 28 33  1  0  0  0
 29 30  1  0  0  0
 30 31  2  0  0  0
 31 32  1  0  0  0
 32 33  2  0  0  0
 32 34  1  0  0  0
 33 35  1  0  0  0
 38 39  1  0  0  0
 39 40  2  0  0  0
 39 44  1  0  0  0
 40 41  1  0  0  0
 41 42  2  0  0  0
 42 43  1  0  0  0
 43 44  2  0  0  0
 16 18  1  0  0  0
  2  3  1  0  0  0
 24 27  1  0  0  0
 34 36  1  0  0  0
M  END
> <minimizedAffinity>
-10.33693

$$$$
3EKX_1UN_B_201


 44 47  0  0  0  0  0  0  0  0999 V2000
   20.2724   29.6057   15.5275 C   0  0  0  0  0  0  0  0  0  0  0  0
   20.0899   28.6275   16.5287 O   0  0  0  0  0  0  0  0  0  0  0  0
   19.1503   28.3931   16.5844 H   0  0  0  0  0  0  0  0  0  0  0  0
   19.4062   30.7713   15.9690 C   0  0  0  0  0  0  0  0  0  0  0  0
   22.3285   32.9396   16.1665 C   0  0  0  0  0  0  0  0  0  0  0  0
   21.7449   34.1962   16.7960 C   0  0  0  0  0  0  0  0  0  0  0  0
   22.5953   35.4443   16.5884 C   0  0  0  0  0  0  0  0  0  0  0  0
   23.0135   35.5545   15.1293 C   0  0  0  0  0  0  0  0  0  0  0  0
   23.6218   34.2427   14.6548 C   0  0  0  0  0  0  0  0  0  0  0  0
   22.6168   33.0931   14.6870 C   0  0  0  0  0  0  0  0  0  0  0  0
   20.1471   31.9997   15.7477 N   0  0  0  0  0  0  0  0  0  0  0  0
   19.5256   33.1222   16.4377 C   0  0  0  0  0  0  0  0  0  0  0  0
   20.3474   34.3975   16.2355 C   0  0  0  0  0  0  0  0  0  0  0  0
   21.4426   31.7226   16.3680 C   0  0  0  0  0  0  0  0  0  0  0  0
   18.1798   33.4589   15.8916 C   0  0  0  0  0  0  0  0  0  0  0  0
   17.4882   34.2499   16.7105 N   0  0  0  0  0  0  0  0  0  0  0  0
   17.8511   33.0440   14.7881 O   0  0  0  0  0  0  0  0  0  0  0  0
   17.8973   34.4479   17.5838 H   0  0  0  0  0  0  0  0  0  0  0  0
   16.1981   34.8475   16.4478 C   0  0  0  0  0  0  0  0  0  0  0  0
   15.9355   34.6611   14.9539 C   0  0  0  0  0  0  0  0  0  0  0  0
   16.2107   36.3196   16.8676 C   0  0  0  0  0  0  0  0  0  0  0  0
   15.1463   34.1035   17.2788 C   0  0  0  0  0  0  0  0  0  0  0  0
   19.9041   29.0799   14.1462 C   0  0  0  0  0  0  0  0  0  0  0  0
   21.0430   28.3487   13.6399 N   0  0  0  0  0  0  0  0  0  0  0  0
   21.5088   28.4888   12.4024 C   0  0  0  0  0  0  0  0  0  0  0  0
   20.9746   29.1427   11.5261 O   0  0  0  0  0  0  0  0  0  0  0  0
   21.4967   27.7151   14.2414 H   0  0  0  0  0  0  0  0  0  0  0  0
   22.7885   27.7739   12.1152 C   0  0  0  0  0  0  0  0  0  0  0  0
   24.0018   28.4349   12.3135 C   0  0  0  0  0  0  0  0  0  0  0  0
   25.2276   27.8272   12.0491 C   0  0  0  0  0  0  0  0  0  0  0  0
   25.2771   26.5193   11.5859 C   0  0  0  0  0  0  0  0  0  0  0  0
   24.1079   25.7972   11.3605 C   0  0  0  0  0  0  0  0  0  0  0  0
   22.7768   26.3881   11.6107 C   0  0  0  0  0  0  0  0  0  0  0  0
   24.1382   24.5614   10.9048 O   0  0  0  0  0  0  0  0  0  0  0  0
   21.5383   25.5649   11.3544 C   0  0  0  0  0  0  0  0  0  0  0  0
   24.9600   24.1459   10.7317 H   0  0  0  0  0  0  0  0  0  0  0  0
   18.6990   28.1467   14.0671 C   0  0  0  0  0  0  0  0  0  0  0  0
   17.6366   28.6715   12.7547 S   0  0  0  0  0  0  0  0  0  0  0  0
   17.6206   27.5239   11.5123 C   0  0  0  0  0  0  0  0  0  0  0  0
   17.4201   26.1986   11.8754 C   0  0  0  0  0  0  0  0  0  0  0  0
   17.3862   25.2149   10.9000 C   0  0  0  0  0  0  0  0  0  0  0  0
   17.5736   25.5524    9.5661 C   0  0  0  0  0  0  0  0  0  0  0  0
   17.7788   26.8787    9.2068 C   0  0  0  0  0  0  0  0  0  0  0  0
   17.8020   27.8730   10.1773 C   0  0  0  0  0  0  0  0  0  0  0  0
  5  6  1  0  0  0
  5 10  1  0  0  0
  5 14  1  0  0  0
  6  7  1  0  0  0
  6 13  1  0  0  0
  7  8  1  0  0  0
  8  9  1  0  0  0
  9 10  1  0  0  0
 11 12  1  0  0  0
 11 14  1  0  0  0
 11  4  1  0  0  0
 12 13  1  0  0  0
 12 15  1  0  0  0
 15 16  1  0  0  0
 15 17  2  0  0  0
 16 19  1  0  0  0
 19 20  1  0  0  0
 19 21  1  0  0  0
 19 22  1  0  0  0
  4  1  1  0  0  0
  1 23  1  0  0  0
  1  2  1  0  0  0
 23 24  1  0  0  0
 23 37  1  0  0  0
 24 25  1  0  0  0
 37 38  1  0  0  0
 25 26  2  0  0  0
 25 28  1  0  0  0
 28 29  2  0  0  0
 28 33  1  0  0  0
 29 30  1  0  0  0
 30 31  2  0  0  0
 31 32  1  0  0  0
 32 33  2  0  0  0
 32 34  1  0  0  0
 33 35  1  0  0  0
 38 39  1  0  0  0
 39 40  2  0  0  0
 39 44  1  0  0  0
 40 41  1  0  0  0
 41 42  2  0  0  0
 42 43  1  0  0  0
 43 44  2  0  0  0
 16 18  1  0  0  0
  2  3  1  0  0  0
 24 27  1  0  0  0
 34 36  1  0  0  0
M  END
> <minimizedAffinity>
-10.29939

$$$$
3EKX_1UN_B_201


 44 47  0  0  0  0  0  0  0  0999 V2000
   21.1714   30.5360   14.9035 C   0  0  0  0  0  0  0  0  0  0  0  0
   20.7099   30.4898   16.2368 O   0  0  0  0  0  0  0  0  0  0  0  0
   19.7614   30.6921   16.2578 H   0  0  0  0  0  0  0  0  0  0  0  0
   20.8667   31.9495   14.4419 C   0  0  0  0  0  0  0  0  0  0  0  0
   17.2535   32.4203   14.3828 C   0  0  0  0  0  0  0  0  0  0  0  0
   17.1207   33.8809   14.7887 C   0  0  0  0  0  0  0  0  0  0  0  0
   15.7357   34.2564   15.3036 C   0  0  0  0  0  0  0  0  0  0  0  0
   15.2606   33.2293   16.3211 C   0  0  0  0  0  0  0  0  0  0  0  0
   15.4078   31.8229   15.7585 C   0  0  0  0  0  0  0  0  0  0  0  0
   16.8656   31.4575   15.4865 C   0  0  0  0  0  0  0  0  0  0  0  0
   19.5848   32.3442   14.9967 N   0  0  0  0  0  0  0  0  0  0  0  0
   19.5567   33.7691   15.2986 C   0  0  0  0  0  0  0  0  0  0  0  0
   18.1822   34.1768   15.8343 C   0  0  0  0  0  0  0  0  0  0  0  0
   18.6522   32.0749   13.9022 C   0  0  0  0  0  0  0  0  0  0  0  0
   20.5042   34.1449   16.3867 C   0  0  0  0  0  0  0  0  0  0  0  0
   21.7372   34.3568   15.9291 N   0  0  0  0  0  0  0  0  0  0  0  0
   20.0953   34.2621   17.5343 O   0  0  0  0  0  0  0  0  0  0  0  0
   21.8927   34.1699   14.9751 H   0  0  0  0  0  0  0  0  0  0  0  0
   22.8703   34.8333   16.6902 C   0  0  0  0  0  0  0  0  0  0  0  0
   22.9859   33.9157   17.9068 C   0  0  0  0  0  0  0  0  0  0  0  0
   22.6609   36.3007   17.0731 C   0  0  0  0  0  0  0  0  0  0  0  0
   24.1205   34.7238   15.8095 C   0  0  0  0  0  0  0  0  0  0  0  0
   20.5113   29.4714   14.0370 C   0  0  0  0  0  0  0  0  0  0  0  0
   21.5601   28.6379   13.4956 N   0  0  0  0  0  0  0  0  0  0  0  0
   22.1385   28.8640   12.3198 C   0  0  0  0  0  0  0  0  0  0  0  0
   21.7826   29.7079   11.5185 O   0  0  0  0  0  0  0  0  0  0  0  0
   21.8616   27.8636   14.0237 H   0  0  0  0  0  0  0  0  0  0  0  0
   23.3111   27.9938   12.0050 C   0  0  0  0  0  0  0  0  0  0  0  0
   24.6011   28.5135   12.1241 C   0  0  0  0  0  0  0  0  0  0  0  0
   25.7338   27.7569   11.8303 C   0  0  0  0  0  0  0  0  0  0  0  0
   25.6086   26.4374   11.4169 C   0  0  0  0  0  0  0  0  0  0  0  0
   24.3540   25.8511   11.2713 C   0  0  0  0  0  0  0  0  0  0  0  0
   23.1141   26.6029   11.5562 C   0  0  0  0  0  0  0  0  0  0  0  0
   24.2185   24.6057   10.8635 O   0  0  0  0  0  0  0  0  0  0  0  0
   21.7775   25.9233   11.3868 C   0  0  0  0  0  0  0  0  0  0  0  0
   24.9772   24.0906   10.6710 H   0  0  0  0  0  0  0  0  0  0  0  0
   19.5136   28.5466   14.7288 C   0  0  0  0  0  0  0  0  0  0  0  0
   19.0974   27.2155   13.6417 S   0  0  0  0  0  0  0  0  0  0  0  0
   17.8272   27.6632   12.6184 C   0  0  0  0  0  0  0  0  0  0  0  0
   17.1546   28.8401   12.9195 C   0  0  0  0  0  0  0  0  0  0  0  0
   16.1121   29.2638   12.1109 C   0  0  0  0  0  0  0  0  0  0  0  0
   15.7285   28.5015   11.0154 C   0  0  0  0  0  0  0  0  0  0  0  0
   16.4004   27.3219   10.7199 C   0  0  0  0  0  0  0  0  0  0  0  0
   17.4550   26.8961   11.5184 C   0  0  0  0  0  0  0  0  0  0  0  0
  5  6  1  0  0  0
  5 10  1  0  0  0
  5 14  1  0  0  0
  6  7  1  0  0  0
  6 13  1  0  0  0
  7  8  1  0  0  0
  8  9  1  0  0  0
  9 10  1  0  0  0
 11 12  1  0  0  0
 11 14  1  0  0  0
 11  4  1  0  0  0
 12 13  1  0  0  0
 12 15  1  0  0  0
 15 16  1  0  0  0
 15 17  2  0  0  0
 16 19  1  0  0  0
 19 20  1  0  0  0
 19 21  1  0  0  0
 19 22  1  0  0  0
  4  1  1  0  0  0
  1 23  1  0  0  0
  1  2  1  0  0  0
 23 24  1  0  0  0
 23 37  1  0  0  0
 24 25  1  0  0  0
 37 38  1  0  0  0
 25 26  2  0  0  0
 25 28  1  0  0  0
 28 29  2  0  0  0
 28 33  1  0  0  0
 29 30  1  0  0  0
 30 31  2  0  0  0
 31 32  1  0  0  0
 32 33  2  0  0  0
 32 34  1  0  0  0
 33 35  1  0  0  0
 38 39  1  0  0  0
 39 40  2  0  0  0
 39 44  1  0  0  0
 40 41  1  0  0  0
 41 42  2  0  0  0
 42 43  1  0  0  0
 43 44  2  0  0  0
 16 18  1  0  0  0
  2  3  1  0  0  0
 24 27  1  0  0  0
 34 36  1  0  0  0
M  END
> <minimizedAffinity>
-9.96329

$$$$
3EKX_1UN_B_201


 44 47  0  0  0  0  0  0  0  0999 V2000
   19.2421   29.7789   14.5934 C   0  0  0  0  0  0  0  0  0  0  0  0
   19.5704   30.7330   13.6062 O   0  0  0  0  0  0  0  0  0  0  0  0
   20.5120   30.9565   13.6730 H   0  0  0  0  0  0  0  0  0  0  0  0
   19.5890   30.4536   15.9080 C   0  0  0  0  0  0  0  0  0  0  0  0
   22.3269   32.8557   16.0297 C   0  0  0  0  0  0  0  0  0  0  0  0
   21.6243   34.1067   16.5370 C   0  0  0  0  0  0  0  0  0  0  0  0
   22.3844   35.3987   16.2591 C   0  0  0  0  0  0  0  0  0  0  0  0
   22.8505   35.4292   14.8106 C   0  0  0  0  0  0  0  0  0  0  0  0
   23.5756   34.1372   14.4630 C   0  0  0  0  0  0  0  0  0  0  0  0
   22.6610   32.9173   14.5531 C   0  0  0  0  0  0  0  0  0  0  0  0
   20.2420   31.7163   15.6144 N   0  0  0  0  0  0  0  0  0  0  0  0
   19.5097   32.8357   16.1914 C   0  0  0  0  0  0  0  0  0  0  0  0
   20.2389   34.1528   15.9157 C   0  0  0  0  0  0  0  0  0  0  0  0
   21.5293   31.5914   16.2979 C   0  0  0  0  0  0  0  0  0  0  0  0
   18.1648   33.0215   15.5754 C   0  0  0  0  0  0  0  0  0  0  0  0
   17.2083   33.1693   16.4908 N   0  0  0  0  0  0  0  0  0  0  0  0
   18.0553   33.0623   14.3571 O   0  0  0  0  0  0  0  0  0  0  0  0
   17.4770   33.0625   17.4319 H   0  0  0  0  0  0  0  0  0  0  0  0
   15.8160   33.4704   16.2435 C   0  0  0  0  0  0  0  0  0  0  0  0
   15.7954   34.5262   15.1389 C   0  0  0  0  0  0  0  0  0  0  0  0
   15.1497   33.9517   17.5351 C   0  0  0  0  0  0  0  0  0  0  0  0
   15.1225   32.1854   15.7764 C   0  0  0  0  0  0  0  0  0  0  0  0
   19.9854   28.4661   14.3836 C   0  0  0  0  0  0  0  0  0  0  0  0
   19.7233   28.0276   13.0320 N   0  0  0  0  0  0  0  0  0  0  0  0
   18.6758   27.2799   12.6974 C   0  0  0  0  0  0  0  0  0  0  0  0
   17.8936   26.7827   13.4860 O   0  0  0  0  0  0  0  0  0  0  0  0
   20.3517   28.2959   12.3233 H   0  0  0  0  0  0  0  0  0  0  0  0
   18.4845   27.0651   11.2316 C   0  0  0  0  0  0  0  0  0  0  0  0
   17.6857   27.9521   10.5079 C   0  0  0  0  0  0  0  0  0  0  0  0
   17.4566   27.7963    9.1423 C   0  0  0  0  0  0  0  0  0  0  0  0
   18.0383   26.7436    8.4487 C   0  0  0  0  0  0  0  0  0  0  0  0
   18.8445   25.8162    9.1037 C   0  0  0  0  0  0  0  0  0  0  0  0
   19.1172   25.9192   10.5524 C   0  0  0  0  0  0  0  0  0  0  0  0
   19.3894   24.8023    8.4627 O   0  0  0  0  0  0  0  0  0  0  0  0
   20.0000   24.8916   11.2172 C   0  0  0  0  0  0  0  0  0  0  0  0
   19.2438   24.6967    7.5431 H   0  0  0  0  0  0  0  0  0  0  0  0
   21.5011   28.5011   14.5592 C   0  0  0  0  0  0  0  0  0  0  0  0
   22.2444   29.1737   13.1026 S   0  0  0  0  0  0  0  0  0  0  0  0
   23.2814   28.0422   12.3917 C   0  0  0  0  0  0  0  0  0  0  0  0
   24.6461   28.2570   12.5313 C   0  0  0  0  0  0  0  0  0  0  0  0
   25.5448   27.3579   11.9797 C   0  0  0  0  0  0  0  0  0  0  0  0
   25.0803   26.2573   11.2715 C   0  0  0  0  0  0  0  0  0  0  0  0
   23.7142   26.0481   11.1296 C   0  0  0  0  0  0  0  0  0  0  0  0
   22.8060   26.9382   11.6902 C   0  0  0  0  0  0  0  0  0  0  0  0
  5  6  1  0  0  0
  5 10  1  0  0  0
  5 14  1  0  0  0
  6  7  1  0  0  0
  6 13  1  0  0  0
  7  8  1  0  0  0
  8  9  1  0  0  0
  9 10  1  0  0  0
 11 12  1  0  0  0
 11 14  1  0  0  0
 11  4  1  0  0  0
 12 13  1  0  0  0
 12 15  1  0  0  0
 15 16  1  0  0  0
 15 17  2  0  0  0
 16 19  1  0  0  0
 19 20  1  0  0  0
 19 21  1  0  0  0
 19 22  1  0  0  0
  4  1  1  0  0  0
  1 23  1  0  0  0
  1  2  1  0  0  0
 23 24  1  0  0  0
 23 37  1  0  0  0
 24 25  1  0  0  0
 37 38  1  0  0  0
 25 26  2  0  0  0
 25 28  1  0  0  0
 28 29  2  0  0  0
 28 33  1  0  0  0
 29 30  1  0  0  0
 30 31  2  0  0  0
 31 32  1  0  0  0
 32 33  2  0  0  0
 32 34  1  0  0  0
 33 35  1  0  0  0
 38 39  1  0  0  0
 39 40  2  0  0  0
 39 44  1  0  0  0
 40 41  1  0  0  0
 41 42  2  0  0  0
 42 43  1  0  0  0
 43 44  2  0  0  0
 16 18  1  0  0  0
  2  3  1  0  0  0
 24 27  1  0  0  0
 34 36  1  0  0  0
M  END
> <minimizedAffinity>
-9.76512

$$$$
3EKX_1UN_B_201


 44 47  0  0  0  0  0  0  0  0999 V2000
   20.2414   28.9086   14.6544 C   0  0  0  0  0  0  0  0  0  0  0  0
   20.3547   28.5149   16.0053 O   0  0  0  0  0  0  0  0  0  0  0  0
   21.2918   28.4743   16.2527 H   0  0  0  0  0  0  0  0  0  0  0  0
   21.0028   27.8473   13.8814 C   0  0  0  0  0  0  0  0  0  0  0  0
   17.9907   27.2446   11.9206 C   0  0  0  0  0  0  0  0  0  0  0  0
   18.3130   25.9167   11.2505 C   0  0  0  0  0  0  0  0  0  0  0  0
   17.4633   25.6229   10.0193 C   0  0  0  0  0  0  0  0  0  0  0  0
   17.4215   26.8428    9.1104 C   0  0  0  0  0  0  0  0  0  0  0  0
   17.0398   28.0815    9.9078 C   0  0  0  0  0  0  0  0  0  0  0  0
   18.0767   28.4255   10.9752 C   0  0  0  0  0  0  0  0  0  0  0  0
   20.2636   27.5479   12.6686 N   0  0  0  0  0  0  0  0  0  0  0  0
   20.6158   26.2342   12.1467 C   0  0  0  0  0  0  0  0  0  0  0  0
   19.7906   25.9143   10.8980 C   0  0  0  0  0  0  0  0  0  0  0  0
   18.8742   27.5178   13.1254 C   0  0  0  0  0  0  0  0  0  0  0  0
   22.0311   26.1600   11.6839 C   0  0  0  0  0  0  0  0  0  0  0  0
   22.4721   27.3300   11.2242 N   0  0  0  0  0  0  0  0  0  0  0  0
   22.6512   25.1104   11.7924 O   0  0  0  0  0  0  0  0  0  0  0  0
   21.8138   28.0600   11.1703 H   0  0  0  0  0  0  0  0  0  0  0  0
   23.8185   27.6373   10.7964 C   0  0  0  0  0  0  0  0  0  0  0  0
   23.7748   29.0557   10.2293 C   0  0  0  0  0  0  0  0  0  0  0  0
   24.2877   26.6033    9.7697 C   0  0  0  0  0  0  0  0  0  0  0  0
   24.7380   27.5728   12.0215 C   0  0  0  0  0  0  0  0  0  0  0  0
   20.7815   30.3142   14.4256 C   0  0  0  0  0  0  0  0  0  0  0  0
   19.9603   31.2266   15.1879 N   0  0  0  0  0  0  0  0  0  0  0  0
   19.0883   32.0623   14.6319 C   0  0  0  0  0  0  0  0  0  0  0  0
   18.9632   32.2450   13.4353 O   0  0  0  0  0  0  0  0  0  0  0  0
   20.0509   31.2295   16.1682 H   0  0  0  0  0  0  0  0  0  0  0  0
   18.2165   32.8080   15.5885 C   0  0  0  0  0  0  0  0  0  0  0  0
   18.7464   33.8846   16.3017 C   0  0  0  0  0  0  0  0  0  0  0  0
   17.9885   34.6094   17.2192 C   0  0  0  0  0  0  0  0  0  0  0  0
   16.6575   34.2836   17.4431 C   0  0  0  0  0  0  0  0  0  0  0  0
   16.0605   33.2198   16.7716 C   0  0  0  0  0  0  0  0  0  0  0  0
   16.8129   32.4053   15.7946 C   0  0  0  0  0  0  0  0  0  0  0  0
   14.8037   32.8876   16.9861 O   0  0  0  0  0  0  0  0  0  0  0  0
   16.1214   31.2644   15.0895 C   0  0  0  0  0  0  0  0  0  0  0  0
   14.2879   33.3759   17.5971 H   0  0  0  0  0  0  0  0  0  0  0  0
   22.2308   30.5662   14.8325 C   0  0  0  0  0  0  0  0  0  0  0  0
   22.7806   32.0917   14.1275 S   0  0  0  0  0  0  0  0  0  0  0  0
   22.6620   33.3428   15.2597 C   0  0  0  0  0  0  0  0  0  0  0  0
   22.8025   33.0022   16.5985 C   0  0  0  0  0  0  0  0  0  0  0  0
   22.7257   33.9862   17.5712 C   0  0  0  0  0  0  0  0  0  0  0  0
   22.4878   35.3052   17.2079 C   0  0  0  0  0  0  0  0  0  0  0  0
   22.3428   35.6417   15.8677 C   0  0  0  0  0  0  0  0  0  0  0  0
   22.4307   34.6631   14.8850 C   0  0  0  0  0  0  0  0  0  0  0  0
  5  6  1  0  0  0
  5 10  1  0  0  0
  5 14  1  0  0  0
  6  7  1  0  0  0
  6 13  1  0  0  0
  7  8  1  0  0  0
  8  9  1  0  0  0
  9 10  1  0  0  0
 11 12  1  0  0  0
 11 14  1  0  0  0
 11  4  1  0  0  0
 12 13  1  0  0  0
 12 15  1  0  0  0
 15 16  1  0  0  0
 15 17  2  0  0  0
 16 19  1  0  0  0
 19 20  1  0  0  0
 19 21  1  0  0  0
 19 22  1  0  0  0
  4  1  1  0  0  0
  1 23  1  0  0  0
  1  2  1  0  0  0
 23 24  1  0  0  0
 23 37  1  0  0  0
 24 25  1  0  0  0
 37 38  1  0  0  0
 25 26  2  0  0  0
 25 28  1  0  0  0
 28 29  2  0  0  0
 28 33  1  0  0  0
 29 30  1  0  0  0
 30 31  2  0  0  0
 31 32  1  0  0  0
 32 33  2  0  0  0
 32 34  1  0  0  0
 33 35  1  0  0  0
 38 39  1  0  0  0
 39 40  2  0  0  0
 39 44  1  0  0  0
 40 41  1  0  0  0
 41 42  2  0  0  0
 42 43  1  0  0  0
 43 44  2  0  0  0
 16 18  1  0  0  0
  2  3  1  0  0  0
 24 27  1  0  0  0
 34 36  1  0  0  0
M  END
> <minimizedAffinity>
-9.75529

$$$$
3EKX_1UN_B_201


 44 47  0  0  0  0  0  0  0  0999 V2000
   20.4630   30.5546   14.4157 C   0  0  0  0  0  0  0  0  0  0  0  0
   20.1308   31.9168   14.2520 O   0  0  0  0  0  0  0  0  0  0  0  0
   20.0404   32.3345   15.1227 H   0  0  0  0  0  0  0  0  0  0  0  0
   19.3160   29.9754   15.2236 C   0  0  0  0  0  0  0  0  0  0  0  0
   18.2865   28.0493   12.3062 C   0  0  0  0  0  0  0  0  0  0  0  0
   17.3858   29.0376   11.5797 C   0  0  0  0  0  0  0  0  0  0  0  0
   16.4384   28.3892   10.5766 C   0  0  0  0  0  0  0  0  0  0  0  0
   15.7484   27.1896   11.2100 C   0  0  0  0  0  0  0  0  0  0  0  0
   16.7759   26.2693   11.8528 C   0  0  0  0  0  0  0  0  0  0  0  0
   17.5189   26.9448   13.0036 C   0  0  0  0  0  0  0  0  0  0  0  0
   18.3522   29.4026   14.3017 N   0  0  0  0  0  0  0  0  0  0  0  0
   17.5844   30.4415   13.6282 C   0  0  0  0  0  0  0  0  0  0  0  0
   16.6098   29.8221   12.6237 C   0  0  0  0  0  0  0  0  0  0  0  0
   19.1962   28.7257   13.3170 C   0  0  0  0  0  0  0  0  0  0  0  0
   16.7136   31.2100   14.5630 C   0  0  0  0  0  0  0  0  0  0  0  0
   17.1435   32.4585   14.7393 N   0  0  0  0  0  0  0  0  0  0  0  0
   15.7141   30.6831   15.0335 O   0  0  0  0  0  0  0  0  0  0  0  0
   17.9980   32.6961   14.3121 H   0  0  0  0  0  0  0  0  0  0  0  0
   16.4834   33.5002   15.4939 C   0  0  0  0  0  0  0  0  0  0  0  0
   15.2249   32.8680   16.0871 C   0  0  0  0  0  0  0  0  0  0  0  0
   16.1744   34.6892   14.5804 C   0  0  0  0  0  0  0  0  0  0  0  0
   17.4322   33.9622   16.6060 C   0  0  0  0  0  0  0  0  0  0  0  0
   21.8164   30.3776   15.0917 C   0  0  0  0  0  0  0  0  0  0  0  0
   22.5397   29.3625   14.3607 N   0  0  0  0  0  0  0  0  0  0  0  0
   22.6730   29.3712   13.0378 C   0  0  0  0  0  0  0  0  0  0  0  0
   22.1145   30.1480   12.2858 O   0  0  0  0  0  0  0  0  0  0  0  0
   22.9546   28.6276   14.8677 H   0  0  0  0  0  0  0  0  0  0  0  0
   23.5902   28.3327   12.4798 C   0  0  0  0  0  0  0  0  0  0  0  0
   24.9584   28.5979   12.4016 C   0  0  0  0  0  0  0  0  0  0  0  0
   25.8622   27.6761   11.8770 C   0  0  0  0  0  0  0  0  0  0  0  0
   25.4206   26.4408   11.4224 C   0  0  0  0  0  0  0  0  0  0  0  0
   24.0696   26.1061   11.4648 C   0  0  0  0  0  0  0  0  0  0  0  0
   23.0596   27.0434   11.9988 C   0  0  0  0  0  0  0  0  0  0  0  0
   23.6331   24.9448   11.0212 O   0  0  0  0  0  0  0  0  0  0  0  0
   21.6075   26.6341   12.0270 C   0  0  0  0  0  0  0  0  0  0  0  0
   24.2376   24.3189   10.6737 H   0  0  0  0  0  0  0  0  0  0  0  0
   22.7149   31.6095   15.1595 C   0  0  0  0  0  0  0  0  0  0  0  0
   22.7630   32.2089   16.8223 S   0  0  0  0  0  0  0  0  0  0  0  0
   22.4543   33.8716   16.8604 C   0  0  0  0  0  0  0  0  0  0  0  0
   21.1252   34.2687   16.9227 C   0  0  0  0  0  0  0  0  0  0  0  0
   20.8108   35.6176   16.9673 C   0  0  0  0  0  0  0  0  0  0  0  0
   21.8222   36.5683   16.9282 C   0  0  0  0  0  0  0  0  0  0  0  0
   23.1508   36.1675   16.8609 C   0  0  0  0  0  0  0  0  0  0  0  0
   23.4754   34.8167   16.8282 C   0  0  0  0  0  0  0  0  0  0  0  0
  5  6  1  0  0  0
  5 10  1  0  0  0
  5 14  1  0  0  0
  6  7  1  0  0  0
  6 13  1  0  0  0
  7  8  1  0  0  0
  8  9  1  0  0  0
  9 10  1  0  0  0
 11 12  1  0  0  0
 11 14  1  0  0  0
 11  4  1  0  0  0
 12 13  1  0  0  0
 12 15  1  0  0  0
 15 16  1  0  0  0
 15 17  2  0  0  0
 16 19  1  0  0  0
 19 20  1  0  0  0
 19 21  1  0  0  0
 19 22  1  0  0  0
  4  1  1  0  0  0
  1 23  1  0  0  0
  1  2  1  0  0  0
 23 24  1  0  0  0
 23 37  1  0  0  0
 24 25  1  0  0  0
 37 38  1  0  0  0
 25 26  2  0  0  0
 25 28  1  0  0  0
 28 29  2  0  0  0
 28 33  1  0  0  0
 29 30  1  0  0  0
 30 31  2  0  0  0
 31 32  1  0  0  0
 32 33  2  0  0  0
 32 34  1  0  0  0
 33 35  1  0  0  0
 38 39  1  0  0  0
 39 40  2  0  0  0
 39 44  1  0  0  0
 40 41  1  0  0  0
 41 42  2  0  0  0
 42 43  1  0  0  0
 43 44  2  0  0  0
 16 18  1  0  0  0
  2  3  1  0  0  0
 24 27  1  0  0  0
 34 36  1  0  0  0
M  END
> <minimizedAffinity>
-9.42048

$$$$
3EKX_1UN_B_201


 44 47  0  0  0  0  0  0  0  0999 V2000
   19.3557   30.8125   15.1052 C   0  0  0  0  0  0  0  0  0  0  0  0
   18.8565   30.0555   16.1871 O   0  0  0  0  0  0  0  0  0  0  0  0
   17.8872   30.0421   16.1524 H   0  0  0  0  0  0  0  0  0  0  0  0
   18.7469   32.1906   15.2893 C   0  0  0  0  0  0  0  0  0  0  0  0
   22.2040   33.1667   15.9027 C   0  0  0  0  0  0  0  0  0  0  0  0
   22.1269   33.7220   17.3176 C   0  0  0  0  0  0  0  0  0  0  0  0
   23.2947   34.6282   17.6909 C   0  0  0  0  0  0  0  0  0  0  0  0
   23.5445   35.6412   16.5830 C   0  0  0  0  0  0  0  0  0  0  0  0
   23.6464   34.9369   15.2378 C   0  0  0  0  0  0  0  0  0  0  0  0
   22.3427   34.2441   14.8465 C   0  0  0  0  0  0  0  0  0  0  0  0
   19.8037   33.1085   15.6736 N   0  0  0  0  0  0  0  0  0  0  0  0
   19.6563   33.5323   17.0596 C   0  0  0  0  0  0  0  0  0  0  0  0
   20.8063   34.4585   17.4624 C   0  0  0  0  0  0  0  0  0  0  0  0
   21.0119   32.2922   15.5552 C   0  0  0  0  0  0  0  0  0  0  0  0
   18.4285   34.3478   17.2838 C   0  0  0  0  0  0  0  0  0  0  0  0
   17.7019   34.4785   16.1750 N   0  0  0  0  0  0  0  0  0  0  0  0
   18.1777   34.7722   18.4041 O   0  0  0  0  0  0  0  0  0  0  0  0
   18.0850   34.1042   15.3490 H   0  0  0  0  0  0  0  0  0  0  0  0
   16.4082   35.1138   16.0606 C   0  0  0  0  0  0  0  0  0  0  0  0
   16.0257   35.0442   14.5826 C   0  0  0  0  0  0  0  0  0  0  0  0
   16.4848   36.5499   16.5853 C   0  0  0  0  0  0  0  0  0  0  0  0
   15.4090   34.3257   16.9155 C   0  0  0  0  0  0  0  0  0  0  0  0
   19.0075   30.1823   13.7629 C   0  0  0  0  0  0  0  0  0  0  0  0
   20.2203   29.6148   13.2198 N   0  0  0  0  0  0  0  0  0  0  0  0
   21.0899   30.3103   12.4929 C   0  0  0  0  0  0  0  0  0  0  0  0
   20.9179   31.4497   12.1018 O   0  0  0  0  0  0  0  0  0  0  0  0
   20.4125   28.6656   13.3969 H   0  0  0  0  0  0  0  0  0  0  0  0
   22.3598   29.5981   12.1593 C   0  0  0  0  0  0  0  0  0  0  0  0
   22.5403   29.0857   10.8735 C   0  0  0  0  0  0  0  0  0  0  0  0
   23.6955   28.3987   10.5060 C   0  0  0  0  0  0  0  0  0  0  0  0
   24.7232   28.2136   11.4210 C   0  0  0  0  0  0  0  0  0  0  0  0
   24.6137   28.6932   12.7238 C   0  0  0  0  0  0  0  0  0  0  0  0
   23.4102   29.4199   13.1790 C   0  0  0  0  0  0  0  0  0  0  0  0
   25.5729   28.5104   13.6083 O   0  0  0  0  0  0  0  0  0  0  0  0
   23.3393   29.9234   14.5998 C   0  0  0  0  0  0  0  0  0  0  0  0
   26.3545   28.0548   13.3644 H   0  0  0  0  0  0  0  0  0  0  0  0
   17.9593   29.0731   13.7779 C   0  0  0  0  0  0  0  0  0  0  0  0
   18.7503   27.5156   13.5041 S   0  0  0  0  0  0  0  0  0  0  0  0
   18.4260   26.9546   11.9416 C   0  0  0  0  0  0  0  0  0  0  0  0
   17.0921   26.8308   11.5761 C   0  0  0  0  0  0  0  0  0  0  0  0
   16.7647   26.3865   10.3051 C   0  0  0  0  0  0  0  0  0  0  0  0
   17.7686   26.0462    9.4080 C   0  0  0  0  0  0  0  0  0  0  0  0
   19.1022   26.1666    9.7787 C   0  0  0  0  0  0  0  0  0  0  0  0
   19.4394   26.6231   11.0471 C   0  0  0  0  0  0  0  0  0  0  0  0
  5  6  1  0  0  0
  5 10  1  0  0  0
  5 14  1  0  0  0
  6  7  1  0  0  0
  6 13  1  0  0  0
  7  8  1  0  0  0
  8  9  1  0  0  0
  9 10  1  0  0  0
 11 12  1  0  0  0
 11 14  1  0  0  0
 11  4  1  0  0  0
 12 13  1  0  0  0
 12 15  1  0  0  0
 15 16  1  0  0  0
 15 17  2  0  0  0
 16 19  1  0  0  0
 19 20  1  0  0  0
 19 21  1  0  0  0
 19 22  1  0  0  0
  4  1  1  0  0  0
  1 23  1  0  0  0
  1  2  1  0  0  0
 23 24  1  0  0  0
 23 37  1  0  0  0
 24 25  1  0  0  0
 37 38  1  0  0  0
 25 26  2  0  0  0
 25 28  1  0  0  0
 28 29  2  0  0  0
 28 33  1  0  0  0
 29 30  1  0  0  0
 30 31  2  0  0  0
 31 32  1  0  0  0
 32 33  2  0  0  0
 32 34  1  0  0  0
 33 35  1  0  0  0
 38 39  1  0  0  0
 39 40  2  0  0  0
 39 44  1  0  0  0
 40 41  1  0  0  0
 41 42  2  0  0  0
 42 43  1  0  0  0
 43 44  2  0  0  0
 16 18  1  0  0  0
  2  3  1  0  0  0
 24 27  1  0  0  0
 34 36  1  0  0  0
M  END
> <minimizedAffinity>
-9.38137

$$$$
