4Q8Y_HQT_A_303


 13 14  0  0  0  0  0  0  0  0999 V2000
   16.7710    1.8948   13.4548 S   0  0  0  0  0  0  0  0  0  0  0  0
   16.0472    1.8442   15.0523 C   0  0  0  0  0  0  0  0  0  0  0  0
   15.4823    2.9754   15.5867 C   0  0  0  0  0  0  0  0  0  0  0  0
   15.4858    4.2119   14.8319 C   0  0  0  0  0  0  0  0  0  0  0  0
   14.9202    5.3218   15.3521 C   0  0  0  0  0  0  0  0  0  0  0  0
   14.3443    5.2842   16.6599 C   0  0  0  0  0  0  0  0  0  0  0  0
   14.3510    4.0846   17.3973 C   0  0  0  0  0  0  0  0  0  0  0  0
   14.9158    2.9359   16.8526 C   0  0  0  0  0  0  0  0  0  0  0  0
   14.9156    1.7629   17.5701 C   0  0  0  0  0  0  0  0  0  0  0  0
   15.4618    0.6626   17.0493 C   0  0  0  0  0  0  0  0  0  0  0  0
   16.0349    0.7002   15.7446 N   0  0  0  0  0  0  0  0  0  0  0  0
   16.5689   -0.4001   15.2202 O   0  0  0  0  0  0  0  0  0  0  0  0
   16.5604   -1.2018   15.7051 H   0  0  0  0  0  0  0  0  0  0  0  0
 10  9  2  0  0  0
 10 11  1  0  0  0
  9  8  1  0  0  0
 12 11  1  0  0  0
 11  2  1  0  0  0
  8  7  2  0  0  0
  8  3  1  0  0  0
  7  6  1  0  0  0
  2  3  1  0  0  0
  2  1  2  0  0  0
  3  4  2  0  0  0
  6  5  2  0  0  0
  4  5  1  0  0  0
 12 13  1  0  0  0
M  END
> <minimizedAffinity>
-7.37235

$$$$
4Q8Y_HQT_A_303


 13 14  0  0  0  0  0  0  0  0999 V2000
   15.1207    0.4017   17.5254 S   0  0  0  0  0  0  0  0  0  0  0  0
   15.5879    1.4205   16.1754 C   0  0  0  0  0  0  0  0  0  0  0  0
   15.2684    2.7554   16.1794 C   0  0  0  0  0  0  0  0  0  0  0  0
   14.5433    3.3227   17.2980 C   0  0  0  0  0  0  0  0  0  0  0  0
   14.2388    4.6378   17.3079 C   0  0  0  0  0  0  0  0  0  0  0  0
   14.6060    5.4644   16.2009 C   0  0  0  0  0  0  0  0  0  0  0  0
   15.3013    4.9100   15.1091 C   0  0  0  0  0  0  0  0  0  0  0  0
   15.6327    3.5589   15.1086 C   0  0  0  0  0  0  0  0  0  0  0  0
   16.3181    3.0195   14.0455 C   0  0  0  0  0  0  0  0  0  0  0  0
   16.6315    1.7226   14.0431 C   0  0  0  0  0  0  0  0  0  0  0  0
   16.2662    0.8989   15.1478 N   0  0  0  0  0  0  0  0  0  0  0  0
   16.5893   -0.3919   15.1510 O   0  0  0  0  0  0  0  0  0  0  0  0
   17.0646   -0.7577   14.4311 H   0  0  0  0  0  0  0  0  0  0  0  0
 10  9  2  0  0  0
 10 11  1  0  0  0
  9  8  1  0  0  0
 12 11  1  0  0  0
 11  2  1  0  0  0
  8  7  2  0  0  0
  8  3  1  0  0  0
  7  6  1  0  0  0
  2  3  1  0  0  0
  2  1  2  0  0  0
  3  4  2  0  0  0
  6  5  2  0  0  0
  4  5  1  0  0  0
 12 13  1  0  0  0
M  END
> <minimizedAffinity>
-7.16374

$$$$
4Q8Y_HQT_A_303


 13 14  0  0  0  0  0  0  0  0999 V2000
   16.5411    0.3344   14.8811 S   0  0  0  0  0  0  0  0  0  0  0  0
   15.7207    1.3846   16.0225 C   0  0  0  0  0  0  0  0  0  0  0  0
   15.5296    2.7102   15.7215 C   0  0  0  0  0  0  0  0  0  0  0  0
   16.0074    3.2424   14.4617 C   0  0  0  0  0  0  0  0  0  0  0  0
   15.8095    4.5433   14.1601 C   0  0  0  0  0  0  0  0  0  0  0  0
   15.1549    5.4022   15.0967 C   0  0  0  0  0  0  0  0  0  0  0  0
   14.7005    4.8865   16.3257 C   0  0  0  0  0  0  0  0  0  0  0  0
   14.8864    3.5412   16.6274 C   0  0  0  0  0  0  0  0  0  0  0  0
   14.4360    3.0365   17.8246 C   0  0  0  0  0  0  0  0  0  0  0  0
   14.6189    1.7473   18.1157 C   0  0  0  0  0  0  0  0  0  0  0  0
   15.2707    0.8909   17.1808 N   0  0  0  0  0  0  0  0  0  0  0  0
   15.4425   -0.3975   17.4660 O   0  0  0  0  0  0  0  0  0  0  0  0
   15.1272   -0.7438   18.2776 H   0  0  0  0  0  0  0  0  0  0  0  0
 10  9  2  0  0  0
 10 11  1  0  0  0
  9  8  1  0  0  0
 12 11  1  0  0  0
 11  2  1  0  0  0
  8  7  2  0  0  0
  8  3  1  0  0  0
  7  6  1  0  0  0
  2  3  1  0  0  0
  2  1  2  0  0  0
  3  4  2  0  0  0
  6  5  2  0  0  0
  4  5  1  0  0  0
 12 13  1  0  0  0
M  END
> <minimizedAffinity>
-7.04483

$$$$
4Q8Y_HQT_A_303


 13 14  0  0  0  0  0  0  0  0999 V2000
   16.3370    1.9333   13.1602 S   0  0  0  0  0  0  0  0  0  0  0  0
   15.7178    3.0924   14.3228 C   0  0  0  0  0  0  0  0  0  0  0  0
   15.3768    2.6817   15.5874 C   0  0  0  0  0  0  0  0  0  0  0  0
   15.5264    1.2901   15.9613 C   0  0  0  0  0  0  0  0  0  0  0  0
   15.2020    0.8877   17.2084 C   0  0  0  0  0  0  0  0  0  0  0  0
   14.6831    1.8292   18.1505 C   0  0  0  0  0  0  0  0  0  0  0  0
   14.5278    3.1795   17.7828 C   0  0  0  0  0  0  0  0  0  0  0  0
   14.8813    3.5978   16.5040 C   0  0  0  0  0  0  0  0  0  0  0  0
   14.7363    4.9180   16.1478 C   0  0  0  0  0  0  0  0  0  0  0  0
   15.0709    5.3178   14.9196 C   0  0  0  0  0  0  0  0  0  0  0  0
   15.5895    4.3787   13.9808 N   0  0  0  0  0  0  0  0  0  0  0  0
   15.9345    4.7797   12.7597 O   0  0  0  0  0  0  0  0  0  0  0  0
   15.8447    5.6810   12.5198 H   0  0  0  0  0  0  0  0  0  0  0  0
 10  9  2  0  0  0
 10 11  1  0  0  0
  9  8  1  0  0  0
 12 11  1  0  0  0
 11  2  1  0  0  0
  8  7  2  0  0  0
  8  3  1  0  0  0
  7  6  1  0  0  0
  2  3  1  0  0  0
  2  1  2  0  0  0
  3  4  2  0  0  0
  6  5  2  0  0  0
  4  5  1  0  0  0
 12 13  1  0  0  0
M  END
> <minimizedAffinity>
-6.96357

$$$$
4Q8Y_HQT_A_303


 13 14  0  0  0  0  0  0  0  0999 V2000
   16.4280    3.3818   13.0017 S   0  0  0  0  0  0  0  0  0  0  0  0
   16.0733    2.4727   14.4599 C   0  0  0  0  0  0  0  0  0  0  0  0
   15.4690    3.0918   15.5256 C   0  0  0  0  0  0  0  0  0  0  0  0
   15.1259    4.4971   15.4467 C   0  0  0  0  0  0  0  0  0  0  0  0
   14.5211    5.1038   16.4901 C   0  0  0  0  0  0  0  0  0  0  0  0
   14.2463    4.3667   17.6837 C   0  0  0  0  0  0  0  0  0  0  0  0
   14.5900    3.0035   17.7635 C   0  0  0  0  0  0  0  0  0  0  0  0
   15.1947    2.3736   16.6805 C   0  0  0  0  0  0  0  0  0  0  0  0
   15.5235    1.0406   16.7563 C   0  0  0  0  0  0  0  0  0  0  0  0
   16.1079    0.4380   15.7192 C   0  0  0  0  0  0  0  0  0  0  0  0
   16.3807    1.1732   14.5286 N   0  0  0  0  0  0  0  0  0  0  0  0
   16.9526    0.5693   13.4899 O   0  0  0  0  0  0  0  0  0  0  0  0
   17.1681   -0.3413   13.5378 H   0  0  0  0  0  0  0  0  0  0  0  0
 10  9  2  0  0  0
 10 11  1  0  0  0
  9  8  1  0  0  0
 12 11  1  0  0  0
 11  2  1  0  0  0
  8  7  2  0  0  0
  8  3  1  0  0  0
  7  6  1  0  0  0
  2  3  1  0  0  0
  2  1  2  0  0  0
  3  4  2  0  0  0
  6  5  2  0  0  0
  4  5  1  0  0  0
 12 13  1  0  0  0
M  END
> <minimizedAffinity>
-6.84321

$$$$
4Q8Y_HQT_A_303


 13 14  0  0  0  0  0  0  0  0999 V2000
   14.5631    1.9426   18.4994 S   0  0  0  0  0  0  0  0  0  0  0  0
   15.2261    1.9489   16.8749 C   0  0  0  0  0  0  0  0  0  0  0  0
   15.2281    3.1072   16.1383 C   0  0  0  0  0  0  0  0  0  0  0  0
   14.6806    4.3243   16.7019 C   0  0  0  0  0  0  0  0  0  0  0  0
   14.6928    5.4664   15.9822 C   0  0  0  0  0  0  0  0  0  0  0  0
   15.2189    5.4677   14.6531 C   0  0  0  0  0  0  0  0  0  0  0  0
   15.7410    4.2817   14.1020 C   0  0  0  0  0  0  0  0  0  0  0  0
   15.7469    3.1097   14.8515 C   0  0  0  0  0  0  0  0  0  0  0  0
   16.2635    1.9535   14.3156 C   0  0  0  0  0  0  0  0  0  0  0  0
   16.2645    0.8284   15.0329 C   0  0  0  0  0  0  0  0  0  0  0  0
   15.7408    0.8279   16.3588 N   0  0  0  0  0  0  0  0  0  0  0  0
   15.7527   -0.2912   17.0786 O   0  0  0  0  0  0  0  0  0  0  0  0
   16.1133   -1.0769   16.7171 H   0  0  0  0  0  0  0  0  0  0  0  0
 10  9  2  0  0  0
 10 11  1  0  0  0
  9  8  1  0  0  0
 12 11  1  0  0  0
 11  2  1  0  0  0
  8  7  2  0  0  0
  8  3  1  0  0  0
  7  6  1  0  0  0
  2  3  1  0  0  0
  2  1  2  0  0  0
  3  4  2  0  0  0
  6  5  2  0  0  0
  4  5  1  0  0  0
 12 13  1  0  0  0
M  END
> <minimizedAffinity>
-6.67643

$$$$
4Q8Y_HQT_A_303


 13 14  0  0  0  0  0  0  0  0999 V2000
   14.8653    5.3314   14.0656 S   0  0  0  0  0  0  0  0  0  0  0  0
   15.3188    3.7112   14.5636 C   0  0  0  0  0  0  0  0  0  0  0  0
   15.0921    3.3003   15.8536 C   0  0  0  0  0  0  0  0  0  0  0  0
   14.4800    4.2057   16.8045 C   0  0  0  0  0  0  0  0  0  0  0  0
   14.2462    3.7984   18.0702 C   0  0  0  0  0  0  0  0  0  0  0  0
   14.6298    2.4837   18.4798 C   0  0  0  0  0  0  0  0  0  0  0  0
   15.2346    1.6080   17.5578 C   0  0  0  0  0  0  0  0  0  0  0  0
   15.4567    2.0211   16.2481 C   0  0  0  0  0  0  0  0  0  0  0  0
   16.0407    1.1631   15.3462 C   0  0  0  0  0  0  0  0  0  0  0  0
   16.2581    1.5614   14.0914 C   0  0  0  0  0  0  0  0  0  0  0  0
   15.8743    2.8722   13.6831 N   0  0  0  0  0  0  0  0  0  0  0  0
   16.0801    3.2654   12.4285 O   0  0  0  0  0  0  0  0  0  0  0  0
   16.4693    2.6777   11.8112 H   0  0  0  0  0  0  0  0  0  0  0  0
 10  9  2  0  0  0
 10 11  1  0  0  0
  9  8  1  0  0  0
 12 11  1  0  0  0
 11  2  1  0  0  0
  8  7  2  0  0  0
  8  3  1  0  0  0
  7  6  1  0  0  0
  2  3  1  0  0  0
  2  1  2  0  0  0
  3  4  2  0  0  0
  6  5  2  0  0  0
  4  5  1  0  0  0
 12 13  1  0  0  0
M  END
> <minimizedAffinity>
-6.63790

$$$$
4Q8Y_HQT_A_303


 13 14  0  0  0  0  0  0  0  0999 V2000
   16.6207    5.8751   12.7902 S   0  0  0  0  0  0  0  0  0  0  0  0
   16.3260    4.2973   13.4991 C   0  0  0  0  0  0  0  0  0  0  0  0
   15.6823    4.1964   14.7072 C   0  0  0  0  0  0  0  0  0  0  0  0
   15.2480    5.3934   15.3981 C   0  0  0  0  0  0  0  0  0  0  0  0
   14.6046    5.2942   16.5807 C   0  0  0  0  0  0  0  0  0  0  0  0
   14.3784    4.0096   17.1654 C   0  0  0  0  0  0  0  0  0  0  0  0
   14.8106    2.8472   16.4984 C   0  0  0  0  0  0  0  0  0  0  0  0
   15.4554    2.9486   15.2699 C   0  0  0  0  0  0  0  0  0  0  0  0
   15.8707    1.8128   14.6155 C   0  0  0  0  0  0  0  0  0  0  0  0
   16.4935    1.9108   13.4396 C   0  0  0  0  0  0  0  0  0  0  0  0
   16.7178    3.1921   12.8564 N   0  0  0  0  0  0  0  0  0  0  0  0
   17.3282    3.2893   11.6779 O   0  0  0  0  0  0  0  0  0  0  0  0
   17.6028    2.5150   11.2273 H   0  0  0  0  0  0  0  0  0  0  0  0
 10  9  2  0  0  0
 10 11  1  0  0  0
  9  8  1  0  0  0
 12 11  1  0  0  0
 11  2  1  0  0  0
  8  7  2  0  0  0
  8  3  1  0  0  0
  7  6  1  0  0  0
  2  3  1  0  0  0
  2  1  2  0  0  0
  3  4  2  0  0  0
  6  5  2  0  0  0
  4  5  1  0  0  0
 12 13  1  0  0  0
M  END
> <minimizedAffinity>
-5.97546

$$$$
4Q8Y_HQT_A_303


 13 14  0  0  0  0  0  0  0  0999 V2000
   16.5995    1.4362   12.7456 S   0  0  0  0  0  0  0  0  0  0  0  0
   16.4407    3.1291   13.1789 C   0  0  0  0  0  0  0  0  0  0  0  0
   15.8283    3.4825   14.3554 C   0  0  0  0  0  0  0  0  0  0  0  0
   15.3112    2.4572   15.2386 C   0  0  0  0  0  0  0  0  0  0  0  0
   14.7192    2.8037   16.4013 C   0  0  0  0  0  0  0  0  0  0  0  0
   14.5761    4.1834   16.7468 C   0  0  0  0  0  0  0  0  0  0  0  0
   15.0694    5.1797   15.8825 C   0  0  0  0  0  0  0  0  0  0  0  0
   15.6976    4.8216   14.6941 C   0  0  0  0  0  0  0  0  0  0  0  0
   16.1856    5.7947   13.8540 C   0  0  0  0  0  0  0  0  0  0  0  0
   16.7837    5.4510   12.7120 C   0  0  0  0  0  0  0  0  0  0  0  0
   16.9272    4.0749   12.3685 N   0  0  0  0  0  0  0  0  0  0  0  0
   17.5344    3.7317   11.2352 O   0  0  0  0  0  0  0  0  0  0  0  0
   17.8755    4.3942   10.6672 H   0  0  0  0  0  0  0  0  0  0  0  0
 10  9  2  0  0  0
 10 11  1  0  0  0
  9  8  1  0  0  0
 12 11  1  0  0  0
 11  2  1  0  0  0
  8  7  2  0  0  0
  8  3  1  0  0  0
  7  6  1  0  0  0
  2  3  1  0  0  0
  2  1  2  0  0  0
  3  4  2  0  0  0
  6  5  2  0  0  0
  4  5  1  0  0  0
 12 13  1  0  0  0
M  END
> <minimizedAffinity>
-5.76695

$$$$
4Q8Y_HQT_A_303


 13 14  0  0  0  0  0  0  0  0999 V2000
   14.0606    4.3341   17.6526 S   0  0  0  0  0  0  0  0  0  0  0  0
   14.9277    3.1944   16.6387 C   0  0  0  0  0  0  0  0  0  0  0  0
   15.4327    3.5982   15.4279 C   0  0  0  0  0  0  0  0  0  0  0  0
   15.2478    4.9655   14.9863 C   0  0  0  0  0  0  0  0  0  0  0  0
   15.7542    5.3662   13.8008 C   0  0  0  0  0  0  0  0  0  0  0  0
   16.4471    4.4336   12.9680 C   0  0  0  0  0  0  0  0  0  0  0  0
   16.6170    3.1020   13.3932 C   0  0  0  0  0  0  0  0  0  0  0  0
   16.1127    2.6946   14.6241 C   0  0  0  0  0  0  0  0  0  0  0  0
   16.2852    1.3960   15.0421 C   0  0  0  0  0  0  0  0  0  0  0  0
   15.7971    1.0044   16.2205 C   0  0  0  0  0  0  0  0  0  0  0  0
   15.1072    1.9352   17.0511 N   0  0  0  0  0  0  0  0  0  0  0  0
   14.6309    1.5478   18.2317 O   0  0  0  0  0  0  0  0  0  0  0  0
   14.7566    0.6655   18.5210 H   0  0  0  0  0  0  0  0  0  0  0  0
 10  9  2  0  0  0
 10 11  1  0  0  0
  9  8  1  0  0  0
 12 11  1  0  0  0
 11  2  1  0  0  0
  8  7  2  0  0  0
  8  3  1  0  0  0
  7  6  1  0  0  0
  2  3  1  0  0  0
  2  1  2  0  0  0
  3  4  2  0  0  0
  6  5  2  0  0  0
  4  5  1  0  0  0
 12 13  1  0  0  0
M  END
> <minimizedAffinity>
-5.59807

$$$$
