6GJM_L36_A_201
  RCSB PDB11101803483D
Coordinates from PDB:6GJM:A:201 Model:1 without hydrogens
 21 21  0  0  0  0            999 V2000
   -0.2260   17.6380   -6.3380   O 0  0  0  0  0  0  0  0  0  0  0  0
   -0.8200   18.2360   -5.4520   C 0  0  0  0  0  0  0  0  0  0  0  0
   -0.9260   17.7840   -4.2740   N 0  0  0  0  0  0  0  0  0  0  0  0
   -0.3370   16.5040   -3.8970   C 0  0  0  0  0  0  0  0  0  0  0  0
   -1.0930   15.3830   -4.5710   C 0  0  0  0  0  0  0  0  0  0  0  0
   -0.3610   14.2740   -4.6300   O 0  0  0  0  0  0  0  0  0  0  0  0
   -0.9760   13.0310   -4.9640   C 0  0  0  0  0  0  0  0  0  0  0  0
    0.0210   11.9090   -4.7770   C 0  0  0  0  0  0  0  0  0  0  0  0
   -2.2290   15.4670   -5.0090   O 0  0  0  0  0  0  0  0  0  0  0  0
   -1.3890   19.4110   -5.7060   N 0  0  0  0  0  0  0  0  0  0  0  0
   -1.9080   20.2700   -4.6530   C 0  0  0  0  0  0  0  0  0  0  0  0
   -0.7080   21.0820   -4.1790   C 0  0  0  0  0  0  0  0  0  0  0  0
   -1.1410   22.2090   -3.2680   C 0  0  0  0  0  0  0  0  0  0  0  0
   -1.5360   19.9270   -7.0590   C 0  0  0  0  0  0  0  0  0  0  0  0
   -2.9650   19.9070   -7.5500   C 0  0  0  0  0  0  0  0  0  0  0  0
   -3.5740   21.0860   -7.9650   C 0  0  0  0  0  0  0  0  0  0  0  0
   -4.8880   21.0680   -8.4170   C 0  0  0  0  0  0  0  0  0  0  0  0
   -5.5940   19.8710   -8.4540   C 0  0  0  0  0  0  0  0  0  0  0  0
   -6.8750   19.8530   -8.8950   N 0  0  0  0  0  0  0  0  0  0  0  0
   -4.9850   18.6920   -8.0390   C 0  0  0  0  0  0  0  0  0  0  0  0
   -3.6710   18.7100   -7.5870   C 0  0  0  0  0  0  0  0  0  0  0  0
 19 18  1  0  0  0  0
 18 17  2  0  0  0  0
 18 20  1  0  0  0  0
 17 16  1  0  0  0  0
 20 21  2  0  0  0  0
 16 15  2  0  0  0  0
 21 15  1  0  0  0  0
 15 14  1  0  0  0  0
 14 10  1  0  0  0  0
  1  2  2  0  0  0  0
 10  2  1  0  0  0  0
 10 11  1  0  0  0  0
  2  3  1  0  0  0  0
  9  5  2  0  0  0  0
  7  8  1  0  0  0  0
  7  6  1  0  0  0  0
 11 12  1  0  0  0  0
  6  5  1  0  0  0  0
  5  4  1  0  0  0  0
  3  4  1  0  0  0  0
 12 13  1  0  0  0  0
A    1
O
A    2
C10
A    3
N2
A    4
C11
A    5
C12
A    6
O2
A    7
C13
A    8
C14
A    9
O1
A   10
N
A   11
C2
A   12
C1
A   13
C
A   14
C3
A   15
C4
A   16
C5
A   17
C6
A   18
C7
A   19
N1
A   20
C8
A   21
C9
M  END
>  <InstanceId>
6GJM_L36_A_201

>  <ChemCompId>
L36

>  <PdbId>
6GJM

>  <ChainId>
A

>  <ResidueNumber>
201

>  <InsertionCode>


>  <Model>
1

>  <AltIds>


>  <MissingHeavyAtoms>
0

>  <ObservedFormula>
C15 N3 O3

>  <Name>
ethyl 2-[[(4-aminophenyl)methyl-propyl-carbamoyl]amino]ethanoate

>  <SystematicName>
ethyl 2-[[(4-aminophenyl)methyl-propyl-carbamoyl]amino]ethanoate

>  <Synonyms>


>  <Type>
NON-POLYMER

>  <Formula>
C15 H23 N3 O3

>  <MolecularWeight>
293.361

>  <ModifiedDate>
2018-11-02

>  <Parent>


>  <OneLetterCode>


>  <SubcomponentList>


>  <AmbiguousFlag>
N

>  <InChI>
InChI=1S/C15H23N3O3/c1-3-9-18(11-12-5-7-13(16)8-6-12)15(20)17-10-14(19)21-4-2/h5-8H,3-4,9-11,16H2,1-2H3,(H,17,20)

>  <InChIKey>
KHLQRJYGXHCNMH-UHFFFAOYSA-N

>  <SMILES>
CCCN(Cc1ccc(cc1)N)C(=O)NCC(=O)OCC

$$$$
