6GJM_L36_A_201


 24 24  0  0  0  0  0  0  0  0999 V2000
   -1.1190   16.4536   -6.2093 O   0  0  0  0  0  0  0  0  0  0  0  0
   -1.1175   17.3128   -5.3391 C   0  0  0  0  0  0  0  0  0  0  0  0
   -1.1357   17.0351   -4.1039 N   0  0  0  0  0  0  0  0  0  0  0  0
   -1.0969   18.6001   -5.6728 N   0  0  0  0  0  0  0  0  0  0  0  0
   -1.1336   17.7667   -3.4450 H   0  0  0  0  0  0  0  0  0  0  0  0
   -1.1596   15.6534   -3.6374 C   0  0  0  0  0  0  0  0  0  0  0  0
    0.2551   15.1706   -3.4180 C   0  0  0  0  0  0  0  0  0  0  0  0
    1.2041   15.8843   -3.1363 O   0  0  0  0  0  0  0  0  0  0  0  0
    0.3450   13.8526   -3.5726 O   0  0  0  0  0  0  0  0  0  0  0  0
   -0.4800   13.1891   -4.5286 C   0  0  0  0  0  0  0  0  0  0  0  0
    0.1887   11.9050   -4.9666 C   0  0  0  0  0  0  0  0  0  0  0  0
   -0.8664   19.6548   -4.6979 C   0  0  0  0  0  0  0  0  0  0  0  0
    0.1319   20.5955   -5.3631 C   0  0  0  0  0  0  0  0  0  0  0  0
   -0.2239   22.0412   -5.0966 C   0  0  0  0  0  0  0  0  0  0  0  0
   -1.3041   19.0517   -7.0409 C   0  0  0  0  0  0  0  0  0  0  0  0
   -2.7472   19.3809   -7.3452 C   0  0  0  0  0  0  0  0  0  0  0  0
   -3.5944   18.3974   -7.8434 C   0  0  0  0  0  0  0  0  0  0  0  0
   -4.9217   18.6996   -8.1230 C   0  0  0  0  0  0  0  0  0  0  0  0
   -5.4026   19.9856   -7.9049 C   0  0  0  0  0  0  0  0  0  0  0  0
   -6.6968   20.2805   -8.1770 N   0  0  0  0  0  0  0  0  0  0  0  0
   -4.5554   20.9691   -7.4067 C   0  0  0  0  0  0  0  0  0  0  0  0
   -3.2281   20.6669   -7.1271 C   0  0  0  0  0  0  0  0  0  0  0  0
   -7.2967   19.5841   -8.5297 H   0  0  0  0  0  0  0  0  0  0  0  0
   -7.0372   21.1912   -8.0220 H   0  0  0  0  0  0  0  0  0  0  0  0
 20 19  1  0  0  0
 19 18  2  0  0  0
 19 21  1  0  0  0
 18 17  1  0  0  0
 21 22  2  0  0  0
 17 16  2  0  0  0
 22 16  1  0  0  0
 16 15  1  0  0  0
 15  4  1  0  0  0
  1  2  2  0  0  0
  4  2  1  0  0  0
  4 12  1  0  0  0
  2  3  1  0  0  0
  8  7  2  0  0  0
 10 11  1  0  0  0
 10  9  1  0  0  0
 12 13  1  0  0  0
  9  7  1  0  0  0
  7  6  1  0  0  0
  3  6  1  0  0  0
 13 14  1  0  0  0
  3  5  1  0  0  0
 20 23  1  0  0  0
 20 24  1  0  0  0
M  END
> <minimizedAffinity>
-5.88397

$$$$
6GJM_L36_A_201


 24 24  0  0  0  0  0  0  0  0999 V2000
   -0.2065   17.8350   -6.4814 O   0  0  0  0  0  0  0  0  0  0  0  0
   -0.7072   18.2910   -5.4632 C   0  0  0  0  0  0  0  0  0  0  0  0
   -0.6795   17.6799   -4.3546 N   0  0  0  0  0  0  0  0  0  0  0  0
   -1.3132   19.4746   -5.4902 N   0  0  0  0  0  0  0  0  0  0  0  0
   -1.0988   18.0931   -3.5654 H   0  0  0  0  0  0  0  0  0  0  0  0
   -0.0391   16.3760   -4.2231 C   0  0  0  0  0  0  0  0  0  0  0  0
   -0.9945   15.2969   -4.6760 C   0  0  0  0  0  0  0  0  0  0  0  0
   -2.2085   15.4107   -4.7262 O   0  0  0  0  0  0  0  0  0  0  0  0
   -0.3439   14.1884   -5.0182 O   0  0  0  0  0  0  0  0  0  0  0  0
   -0.7903   12.9223   -4.5360 C   0  0  0  0  0  0  0  0  0  0  0  0
    0.2327   11.8627   -4.8800 C   0  0  0  0  0  0  0  0  0  0  0  0
   -1.7241   20.1681   -4.2793 C   0  0  0  0  0  0  0  0  0  0  0  0
   -0.8311   21.4016   -4.2089 C   0  0  0  0  0  0  0  0  0  0  0  0
   -1.6440   22.6446   -3.9231 C   0  0  0  0  0  0  0  0  0  0  0  0
   -1.6121   20.1664   -6.7354 C   0  0  0  0  0  0  0  0  0  0  0  0
   -3.0285   19.9444   -7.2127 C   0  0  0  0  0  0  0  0  0  0  0  0
   -3.9586   20.9748   -7.1328 C   0  0  0  0  0  0  0  0  0  0  0  0
   -5.2612   20.7713   -7.5720 C   0  0  0  0  0  0  0  0  0  0  0  0
   -5.6348   19.5369   -8.0912 C   0  0  0  0  0  0  0  0  0  0  0  0
   -6.9046   19.3382   -8.5199 N   0  0  0  0  0  0  0  0  0  0  0  0
   -4.7047   18.5065   -8.1711 C   0  0  0  0  0  0  0  0  0  0  0  0
   -3.4021   18.7101   -7.7319 C   0  0  0  0  0  0  0  0  0  0  0  0
   -7.5631   20.0678   -8.4633 H   0  0  0  0  0  0  0  0  0  0  0  0
   -7.1687   18.4642   -8.8880 H   0  0  0  0  0  0  0  0  0  0  0  0
 20 19  1  0  0  0
 19 18  2  0  0  0
 19 21  1  0  0  0
 18 17  1  0  0  0
 21 22  2  0  0  0
 17 16  2  0  0  0
 22 16  1  0  0  0
 16 15  1  0  0  0
 15  4  1  0  0  0
  1  2  2  0  0  0
  4  2  1  0  0  0
  4 12  1  0  0  0
  2  3  1  0  0  0
  8  7  2  0  0  0
 10 11  1  0  0  0
 10  9  1  0  0  0
 12 13  1  0  0  0
  9  7  1  0  0  0
  7  6  1  0  0  0
  3  6  1  0  0  0
 13 14  1  0  0  0
  3  5  1  0  0  0
 20 23  1  0  0  0
 20 24  1  0  0  0
M  END
> <minimizedAffinity>
-5.83977

$$$$
6GJM_L36_A_201


 24 24  0  0  0  0  0  0  0  0999 V2000
   -1.9066   18.5785   -7.8124 O   0  0  0  0  0  0  0  0  0  0  0  0
   -2.0278   19.3257   -6.8519 C   0  0  0  0  0  0  0  0  0  0  0  0
   -2.8985   20.2438   -6.8052 N   0  0  0  0  0  0  0  0  0  0  0  0
   -1.2263   19.1935   -5.7988 N   0  0  0  0  0  0  0  0  0  0  0  0
   -2.9522   20.8174   -6.0068 H   0  0  0  0  0  0  0  0  0  0  0  0
   -3.8233   20.4689   -7.9104 C   0  0  0  0  0  0  0  0  0  0  0  0
   -5.1383   19.7866   -7.6143 C   0  0  0  0  0  0  0  0  0  0  0  0
   -6.0150   20.2354   -6.8936 O   0  0  0  0  0  0  0  0  0  0  0  0
   -5.2280   18.6175   -8.2424 O   0  0  0  0  0  0  0  0  0  0  0  0
   -6.3566   18.3369   -9.0685 C   0  0  0  0  0  0  0  0  0  0  0  0
   -6.3503   19.2650  -10.2628 C   0  0  0  0  0  0  0  0  0  0  0  0
   -1.4638   19.8925   -4.5454 C   0  0  0  0  0  0  0  0  0  0  0  0
   -0.1876   20.6856   -4.2880 C   0  0  0  0  0  0  0  0  0  0  0  0
   -0.2127   22.0076   -5.0224 C   0  0  0  0  0  0  0  0  0  0  0  0
   -0.0488   18.3382   -5.8208 C   0  0  0  0  0  0  0  0  0  0  0  0
   -0.2117   17.0825   -4.9962 C   0  0  0  0  0  0  0  0  0  0  0  0
    0.5172   16.9218   -3.8230 C   0  0  0  0  0  0  0  0  0  0  0  0
    0.3674   15.7673   -3.0641 C   0  0  0  0  0  0  0  0  0  0  0  0
   -0.5110   14.7725   -3.4780 C   0  0  0  0  0  0  0  0  0  0  0  0
   -0.6576   13.6470   -2.7381 N   0  0  0  0  0  0  0  0  0  0  0  0
   -1.2399   14.9332   -4.6511 C   0  0  0  0  0  0  0  0  0  0  0  0
   -1.0901   16.0877   -5.4100 C   0  0  0  0  0  0  0  0  0  0  0  0
   -0.1415   13.5332   -1.9075 H   0  0  0  0  0  0  0  0  0  0  0  0
   -1.2802   12.9429   -3.0312 H   0  0  0  0  0  0  0  0  0  0  0  0
 20 19  1  0  0  0
 19 18  2  0  0  0
 19 21  1  0  0  0
 18 17  1  0  0  0
 21 22  2  0  0  0
 17 16  2  0  0  0
 22 16  1  0  0  0
 16 15  1  0  0  0
 15  4  1  0  0  0
  1  2  2  0  0  0
  4  2  1  0  0  0
  4 12  1  0  0  0
  2  3  1  0  0  0
  8  7  2  0  0  0
 10 11  1  0  0  0
 10  9  1  0  0  0
 12 13  1  0  0  0
  9  7  1  0  0  0
  7  6  1  0  0  0
  3  6  1  0  0  0
 13 14  1  0  0  0
  3  5  1  0  0  0
 20 23  1  0  0  0
 20 24  1  0  0  0
M  END
> <minimizedAffinity>
-5.40371

$$$$
6GJM_L36_A_201


 24 24  0  0  0  0  0  0  0  0999 V2000
   -2.8396   17.7024   -7.8324 O   0  0  0  0  0  0  0  0  0  0  0  0
   -2.9782   18.7853   -7.2815 C   0  0  0  0  0  0  0  0  0  0  0  0
   -3.9670   19.5442   -7.5038 N   0  0  0  0  0  0  0  0  0  0  0  0
   -2.0691   19.2108   -6.4088 N   0  0  0  0  0  0  0  0  0  0  0  0
   -4.0289   20.4064   -7.0325 H   0  0  0  0  0  0  0  0  0  0  0  0
   -5.0162   19.1669   -8.4441 C   0  0  0  0  0  0  0  0  0  0  0  0
   -5.5490   20.4041   -9.1283 C   0  0  0  0  0  0  0  0  0  0  0  0
   -4.8994   21.4099   -9.3644 O   0  0  0  0  0  0  0  0  0  0  0  0
   -6.8328   20.2647   -9.4469 O   0  0  0  0  0  0  0  0  0  0  0  0
   -7.4615   21.2152  -10.3049 C   0  0  0  0  0  0  0  0  0  0  0  0
   -8.4864   22.0029   -9.5195 C   0  0  0  0  0  0  0  0  0  0  0  0
   -2.2871   20.3711   -5.5590 C   0  0  0  0  0  0  0  0  0  0  0  0
   -1.1395   21.3201   -5.8852 C   0  0  0  0  0  0  0  0  0  0  0  0
   -0.4664   21.8118   -4.6232 C   0  0  0  0  0  0  0  0  0  0  0  0
   -0.7852   18.5468   -6.2380 C   0  0  0  0  0  0  0  0  0  0  0  0
   -0.7884   17.5259   -5.1239 C   0  0  0  0  0  0  0  0  0  0  0  0
   -1.1166   16.2023   -5.3948 C   0  0  0  0  0  0  0  0  0  0  0  0
   -1.1192   15.2630   -4.3706 C   0  0  0  0  0  0  0  0  0  0  0  0
   -0.7941   15.6469   -3.0746 C   0  0  0  0  0  0  0  0  0  0  0  0
   -0.7962   14.7313   -2.0758 N   0  0  0  0  0  0  0  0  0  0  0  0
   -0.4659   16.9705   -2.8037 C   0  0  0  0  0  0  0  0  0  0  0  0
   -0.4633   17.9098   -3.8279 C   0  0  0  0  0  0  0  0  0  0  0  0
   -1.0285   13.7941   -2.2677 H   0  0  0  0  0  0  0  0  0  0  0  0
   -0.5653   15.0034   -1.1583 H   0  0  0  0  0  0  0  0  0  0  0  0
 20 19  1  0  0  0
 19 18  2  0  0  0
 19 21  1  0  0  0
 18 17  1  0  0  0
 21 22  2  0  0  0
 17 16  2  0  0  0
 22 16  1  0  0  0
 16 15  1  0  0  0
 15  4  1  0  0  0
  1  2  2  0  0  0
  4  2  1  0  0  0
  4 12  1  0  0  0
  2  3  1  0  0  0
  8  7  2  0  0  0
 10 11  1  0  0  0
 10  9  1  0  0  0
 12 13  1  0  0  0
  9  7  1  0  0  0
  7  6  1  0  0  0
  3  6  1  0  0  0
 13 14  1  0  0  0
  3  5  1  0  0  0
 20 23  1  0  0  0
 20 24  1  0  0  0
M  END
> <minimizedAffinity>
-5.18488

$$$$
6GJM_L36_A_201


 24 24  0  0  0  0  0  0  0  0999 V2000
   -0.8921   18.2565   -3.3458 O   0  0  0  0  0  0  0  0  0  0  0  0
   -0.0547   17.7248   -4.0610 C   0  0  0  0  0  0  0  0  0  0  0  0
    0.5476   16.6602   -3.7339 N   0  0  0  0  0  0  0  0  0  0  0  0
    0.2580   18.2639   -5.2359 N   0  0  0  0  0  0  0  0  0  0  0  0
    1.2135   16.2745   -4.3479 H   0  0  0  0  0  0  0  0  0  0  0  0
    0.2746   15.9936   -2.4656 C   0  0  0  0  0  0  0  0  0  0  0  0
   -0.0535   14.5409   -2.7198 C   0  0  0  0  0  0  0  0  0  0  0  0
   -0.5117   13.7700   -1.8921 O   0  0  0  0  0  0  0  0  0  0  0  0
    0.2224   14.1959   -3.9744 O   0  0  0  0  0  0  0  0  0  0  0  0
   -0.6179   13.2693   -4.6600 C   0  0  0  0  0  0  0  0  0  0  0  0
    0.1486   11.9920   -4.9220 C   0  0  0  0  0  0  0  0  0  0  0  0
    1.0687   17.5672   -6.2226 C   0  0  0  0  0  0  0  0  0  0  0  0
    2.1593   18.5598   -6.6090 C   0  0  0  0  0  0  0  0  0  0  0  0
    2.3898   18.5582   -8.1038 C   0  0  0  0  0  0  0  0  0  0  0  0
   -0.1876   19.5941   -5.6239 C   0  0  0  0  0  0  0  0  0  0  0  0
   -1.5494   19.5964   -6.2789 C   0  0  0  0  0  0  0  0  0  0  0  0
   -2.3420   20.7377   -6.2307 C   0  0  0  0  0  0  0  0  0  0  0  0
   -3.5943   20.7404   -6.8333 C   0  0  0  0  0  0  0  0  0  0  0  0
   -4.0549   19.6017   -7.4842 C   0  0  0  0  0  0  0  0  0  0  0  0
   -5.2756   19.6040   -8.0722 N   0  0  0  0  0  0  0  0  0  0  0  0
   -3.2622   18.4604   -7.5325 C   0  0  0  0  0  0  0  0  0  0  0  0
   -2.0100   18.4577   -6.9299 C   0  0  0  0  0  0  0  0  0  0  0  0
   -5.8368   20.4122   -8.0380 H   0  0  0  0  0  0  0  0  0  0  0  0
   -5.6013   18.7976   -8.5336 H   0  0  0  0  0  0  0  0  0  0  0  0
 20 19  1  0  0  0
 19 18  2  0  0  0
 19 21  1  0  0  0
 18 17  1  0  0  0
 21 22  2  0  0  0
 17 16  2  0  0  0
 22 16  1  0  0  0
 16 15  1  0  0  0
 15  4  1  0  0  0
  1  2  2  0  0  0
  4  2  1  0  0  0
  4 12  1  0  0  0
  2  3  1  0  0  0
  8  7  2  0  0  0
 10 11  1  0  0  0
 10  9  1  0  0  0
 12 13  1  0  0  0
  9  7  1  0  0  0
  7  6  1  0  0  0
  3  6  1  0  0  0
 13 14  1  0  0  0
  3  5  1  0  0  0
 20 23  1  0  0  0
 20 24  1  0  0  0
M  END
> <minimizedAffinity>
-4.95244

$$$$
6GJM_L36_A_201


 24 24  0  0  0  0  0  0  0  0999 V2000
    0.0695   16.6409   -3.1313 O   0  0  0  0  0  0  0  0  0  0  0  0
   -0.1566   15.8820   -4.0633 C   0  0  0  0  0  0  0  0  0  0  0  0
   -0.1738   16.2664   -5.2695 N   0  0  0  0  0  0  0  0  0  0  0  0
   -0.3987   14.5949   -3.8317 N   0  0  0  0  0  0  0  0  0  0  0  0
   -0.3616   15.6129   -5.9814 H   0  0  0  0  0  0  0  0  0  0  0  0
    0.0791   17.6581   -5.6257 C   0  0  0  0  0  0  0  0  0  0  0  0
    1.5474   17.8417   -5.9306 C   0  0  0  0  0  0  0  0  0  0  0  0
    2.4003   18.1497   -5.1139 O   0  0  0  0  0  0  0  0  0  0  0  0
    1.8041   17.6254   -7.2176 O   0  0  0  0  0  0  0  0  0  0  0  0
    1.7723   18.7107   -8.1429 C   0  0  0  0  0  0  0  0  0  0  0  0
    3.1865   19.0998   -8.5122 C   0  0  0  0  0  0  0  0  0  0  0  0
   -0.4489   13.6067   -4.8979 C   0  0  0  0  0  0  0  0  0  0  0  0
   -0.7095   12.2798   -4.1940 C   0  0  0  0  0  0  0  0  0  0  0  0
    0.3218   11.2455   -4.5866 C   0  0  0  0  0  0  0  0  0  0  0  0
   -0.6326   14.0770   -2.4917 C   0  0  0  0  0  0  0  0  0  0  0  0
    0.6053   14.0914   -1.6252 C   0  0  0  0  0  0  0  0  0  0  0  0
    0.5420   14.5952   -0.3308 C   0  0  0  0  0  0  0  0  0  0  0  0
    1.6801   14.6083    0.4665 C   0  0  0  0  0  0  0  0  0  0  0  0
    2.8824   14.1178   -0.0301 C   0  0  0  0  0  0  0  0  0  0  0  0
    3.9921   14.1300    0.7471 N   0  0  0  0  0  0  0  0  0  0  0  0
    2.9457   13.6140   -1.3244 C   0  0  0  0  0  0  0  0  0  0  0  0
    1.8076   13.6010   -2.1218 C   0  0  0  0  0  0  0  0  0  0  0  0
    3.9473   14.4868    1.6636 H   0  0  0  0  0  0  0  0  0  0  0  0
    4.8433   13.7822    0.3954 H   0  0  0  0  0  0  0  0  0  0  0  0
 20 19  1  0  0  0
 19 18  2  0  0  0
 19 21  1  0  0  0
 18 17  1  0  0  0
 21 22  2  0  0  0
 17 16  2  0  0  0
 22 16  1  0  0  0
 16 15  1  0  0  0
 15  4  1  0  0  0
  1  2  2  0  0  0
  4  2  1  0  0  0
  4 12  1  0  0  0
  2  3  1  0  0  0
  8  7  2  0  0  0
 10 11  1  0  0  0
 10  9  1  0  0  0
 12 13  1  0  0  0
  9  7  1  0  0  0
  7  6  1  0  0  0
  3  6  1  0  0  0
 13 14  1  0  0  0
  3  5  1  0  0  0
 20 23  1  0  0  0
 20 24  1  0  0  0
M  END
> <minimizedAffinity>
-4.71768

$$$$
6GJM_L36_A_201


 24 24  0  0  0  0  0  0  0  0999 V2000
   -0.8329   17.9719   -3.6562 O   0  0  0  0  0  0  0  0  0  0  0  0
   -0.5052   17.7299   -4.8093 C   0  0  0  0  0  0  0  0  0  0  0  0
   -0.7868   16.6382   -5.3855 N   0  0  0  0  0  0  0  0  0  0  0  0
    0.1763   18.6303   -5.5119 N   0  0  0  0  0  0  0  0  0  0  0  0
   -0.4981   16.4953   -6.3158 H   0  0  0  0  0  0  0  0  0  0  0  0
   -1.5304   15.5880   -4.6988 C   0  0  0  0  0  0  0  0  0  0  0  0
   -0.5915   14.4625   -4.3322 C   0  0  0  0  0  0  0  0  0  0  0  0
    0.3956   14.5751   -3.6234 O   0  0  0  0  0  0  0  0  0  0  0  0
   -0.9746   13.3148   -4.8847 O   0  0  0  0  0  0  0  0  0  0  0  0
    0.0025   12.4013   -5.3803 C   0  0  0  0  0  0  0  0  0  0  0  0
    0.1995   11.2828   -4.3812 C   0  0  0  0  0  0  0  0  0  0  0  0
    0.3960   18.4985   -6.9439 C   0  0  0  0  0  0  0  0  0  0  0  0
    1.8977   18.2841   -7.0945 C   0  0  0  0  0  0  0  0  0  0  0  0
    2.4550   19.1219   -8.2237 C   0  0  0  0  0  0  0  0  0  0  0  0
    0.7552   19.8174   -4.9003 C   0  0  0  0  0  0  0  0  0  0  0  0
    0.2311   21.1055   -5.4916 C   0  0  0  0  0  0  0  0  0  0  0  0
   -1.1168   21.4260   -5.3750 C   0  0  0  0  0  0  0  0  0  0  0  0
   -1.5991   22.6107   -5.9183 C   0  0  0  0  0  0  0  0  0  0  0  0
   -0.7340   23.4755   -6.5787 C   0  0  0  0  0  0  0  0  0  0  0  0
   -1.2038   24.6308   -7.1081 N   0  0  0  0  0  0  0  0  0  0  0  0
    0.6139   23.1550   -6.6952 C   0  0  0  0  0  0  0  0  0  0  0  0
    1.0963   21.9703   -6.1520 C   0  0  0  0  0  0  0  0  0  0  0  0
   -2.1582   24.8577   -7.0256 H   0  0  0  0  0  0  0  0  0  0  0  0
   -0.5908   25.2433   -7.5753 H   0  0  0  0  0  0  0  0  0  0  0  0
 20 19  1  0  0  0
 19 18  2  0  0  0
 19 21  1  0  0  0
 18 17  1  0  0  0
 21 22  2  0  0  0
 17 16  2  0  0  0
 22 16  1  0  0  0
 16 15  1  0  0  0
 15  4  1  0  0  0
  1  2  2  0  0  0
  4  2  1  0  0  0
  4 12  1  0  0  0
  2  3  1  0  0  0
  8  7  2  0  0  0
 10 11  1  0  0  0
 10  9  1  0  0  0
 12 13  1  0  0  0
  9  7  1  0  0  0
  7  6  1  0  0  0
  3  6  1  0  0  0
 13 14  1  0  0  0
  3  5  1  0  0  0
 20 23  1  0  0  0
 20 24  1  0  0  0
M  END
> <minimizedAffinity>
-4.49240

$$$$
6GJM_L36_A_201


 24 24  0  0  0  0  0  0  0  0999 V2000
    0.6997   18.8462   -5.8205 O   0  0  0  0  0  0  0  0  0  0  0  0
    0.0069   19.1993   -4.8767 C   0  0  0  0  0  0  0  0  0  0  0  0
    0.0880   18.6656   -3.7313 N   0  0  0  0  0  0  0  0  0  0  0  0
   -0.8776   20.1808   -5.0290 N   0  0  0  0  0  0  0  0  0  0  0  0
   -0.4943   18.9887   -3.0063 H   0  0  0  0  0  0  0  0  0  0  0  0
    1.0268   17.5817   -3.4645 C   0  0  0  0  0  0  0  0  0  0  0  0
    0.2615   16.3132   -3.1684 C   0  0  0  0  0  0  0  0  0  0  0  0
    0.6551   15.1836   -3.4106 O   0  0  0  0  0  0  0  0  0  0  0  0
   -0.9132   16.5785   -2.6037 O   0  0  0  0  0  0  0  0  0  0  0  0
   -1.3449   15.8279   -1.4701 C   0  0  0  0  0  0  0  0  0  0  0  0
   -2.5722   16.4790   -0.8722 C   0  0  0  0  0  0  0  0  0  0  0  0
   -1.5628   20.7949   -3.9022 C   0  0  0  0  0  0  0  0  0  0  0  0
   -0.9951   22.2072   -3.8174 C   0  0  0  0  0  0  0  0  0  0  0  0
   -1.8908   23.1034   -2.9916 C   0  0  0  0  0  0  0  0  0  0  0  0
   -1.2278   20.7154   -6.3366 C   0  0  0  0  0  0  0  0  0  0  0  0
   -2.4844   20.1036   -6.9111 C   0  0  0  0  0  0  0  0  0  0  0  0
   -3.6542   20.8521   -6.9780 C   0  0  0  0  0  0  0  0  0  0  0  0
   -4.8100   20.2899   -7.5065 C   0  0  0  0  0  0  0  0  0  0  0  0
   -4.7968   18.9787   -7.9683 C   0  0  0  0  0  0  0  0  0  0  0  0
   -5.9234   18.4304   -8.4840 N   0  0  0  0  0  0  0  0  0  0  0  0
   -3.6270   18.2302   -7.9014 C   0  0  0  0  0  0  0  0  0  0  0  0
   -2.4712   18.7924   -7.3728 C   0  0  0  0  0  0  0  0  0  0  0  0
   -6.7517   18.9604   -8.5314 H   0  0  0  0  0  0  0  0  0  0  0  0
   -5.9136   17.5020   -8.8115 H   0  0  0  0  0  0  0  0  0  0  0  0
 20 19  1  0  0  0
 19 18  2  0  0  0
 19 21  1  0  0  0
 18 17  1  0  0  0
 21 22  2  0  0  0
 17 16  2  0  0  0
 22 16  1  0  0  0
 16 15  1  0  0  0
 15  4  1  0  0  0
  1  2  2  0  0  0
  4  2  1  0  0  0
  4 12  1  0  0  0
  2  3  1  0  0  0
  8  7  2  0  0  0
 10 11  1  0  0  0
 10  9  1  0  0  0
 12 13  1  0  0  0
  9  7  1  0  0  0
  7  6  1  0  0  0
  3  6  1  0  0  0
 13 14  1  0  0  0
  3  5  1  0  0  0
 20 23  1  0  0  0
 20 24  1  0  0  0
M  END
> <minimizedAffinity>
-4.43380

$$$$
6GJM_L36_A_201


 24 24  0  0  0  0  0  0  0  0999 V2000
   -3.1762   22.8821   -7.1806 O   0  0  0  0  0  0  0  0  0  0  0  0
   -3.4432   21.6901   -7.1237 C   0  0  0  0  0  0  0  0  0  0  0  0
   -4.5559   21.2195   -7.5029 N   0  0  0  0  0  0  0  0  0  0  0  0
   -2.5489   20.8283   -6.6480 N   0  0  0  0  0  0  0  0  0  0  0  0
   -4.7184   20.2509   -7.4347 H   0  0  0  0  0  0  0  0  0  0  0  0
   -5.6017   22.0836   -8.0387 C   0  0  0  0  0  0  0  0  0  0  0  0
   -6.0151   21.5874   -9.4045 C   0  0  0  0  0  0  0  0  0  0  0  0
   -6.7628   22.1766  -10.1682 O   0  0  0  0  0  0  0  0  0  0  0  0
   -5.4587   20.4111   -9.6797 O   0  0  0  0  0  0  0  0  0  0  0  0
   -6.2706   19.3246  -10.1216 C   0  0  0  0  0  0  0  0  0  0  0  0
   -6.3613   18.2852   -9.0264 C   0  0  0  0  0  0  0  0  0  0  0  0
   -2.7155   19.3878   -6.7639 C   0  0  0  0  0  0  0  0  0  0  0  0
   -1.2984   18.8322   -6.8476 C   0  0  0  0  0  0  0  0  0  0  0  0
   -1.1287   17.6384   -5.9345 C   0  0  0  0  0  0  0  0  0  0  0  0
   -1.3339   21.2618   -5.9740 C   0  0  0  0  0  0  0  0  0  0  0  0
   -1.5383   21.5409   -4.5030 C   0  0  0  0  0  0  0  0  0  0  0  0
   -1.7201   22.8469   -4.0619 C   0  0  0  0  0  0  0  0  0  0  0  0
   -1.9085   23.1040   -2.7093 C   0  0  0  0  0  0  0  0  0  0  0  0
   -1.9149   22.0553   -1.7967 C   0  0  0  0  0  0  0  0  0  0  0  0
   -2.0990   22.3055   -0.4779 N   0  0  0  0  0  0  0  0  0  0  0  0
   -1.7331   20.7493   -2.2378 C   0  0  0  0  0  0  0  0  0  0  0  0
   -1.5447   20.4922   -3.5904 C   0  0  0  0  0  0  0  0  0  0  0  0
   -2.2278   23.2302   -0.1656 H   0  0  0  0  0  0  0  0  0  0  0  0
   -2.1040   21.5626    0.1680 H   0  0  0  0  0  0  0  0  0  0  0  0
 20 19  1  0  0  0
 19 18  2  0  0  0
 19 21  1  0  0  0
 18 17  1  0  0  0
 21 22  2  0  0  0
 17 16  2  0  0  0
 22 16  1  0  0  0
 16 15  1  0  0  0
 15  4  1  0  0  0
  1  2  2  0  0  0
  4  2  1  0  0  0
  4 12  1  0  0  0
  2  3  1  0  0  0
  8  7  2  0  0  0
 10 11  1  0  0  0
 10  9  1  0  0  0
 12 13  1  0  0  0
  9  7  1  0  0  0
  7  6  1  0  0  0
  3  6  1  0  0  0
 13 14  1  0  0  0
  3  5  1  0  0  0
 20 23  1  0  0  0
 20 24  1  0  0  0
M  END
> <minimizedAffinity>
-4.38112

$$$$
6GJM_L36_A_201


 24 24  0  0  0  0  0  0  0  0999 V2000
    1.8049   16.8325   -3.9973 O   0  0  0  0  0  0  0  0  0  0  0  0
    1.0644   17.6818   -4.4723 C   0  0  0  0  0  0  0  0  0  0  0  0
    1.4916   18.6509   -5.1663 N   0  0  0  0  0  0  0  0  0  0  0  0
   -0.2480   17.6120   -4.2682 N   0  0  0  0  0  0  0  0  0  0  0  0
    0.8509   19.3069   -5.5247 H   0  0  0  0  0  0  0  0  0  0  0  0
    2.9138   18.8149   -5.4454 C   0  0  0  0  0  0  0  0  0  0  0  0
    3.1393   18.8015   -6.9392 C   0  0  0  0  0  0  0  0  0  0  0  0
    2.6175   18.0227   -7.7205 O   0  0  0  0  0  0  0  0  0  0  0  0
    3.9901   19.7552   -7.3077 O   0  0  0  0  0  0  0  0  0  0  0  0
    3.7302   20.5291   -8.4774 C   0  0  0  0  0  0  0  0  0  0  0  0
    2.9123   21.7458   -8.1053 C   0  0  0  0  0  0  0  0  0  0  0  0
   -1.1946   18.4512   -4.9862 C   0  0  0  0  0  0  0  0  0  0  0  0
   -1.5016   17.6897   -6.2707 C   0  0  0  0  0  0  0  0  0  0  0  0
   -2.5361   18.4181   -7.0994 C   0  0  0  0  0  0  0  0  0  0  0  0
   -0.8373   16.6893   -3.3091 C   0  0  0  0  0  0  0  0  0  0  0  0
   -0.5897   15.2385   -3.6517 C   0  0  0  0  0  0  0  0  0  0  0  0
    0.1290   14.4307   -2.7775 C   0  0  0  0  0  0  0  0  0  0  0  0
    0.3566   13.0963   -3.0920 C   0  0  0  0  0  0  0  0  0  0  0  0
   -0.1340   12.5690   -4.2810 C   0  0  0  0  0  0  0  0  0  0  0  0
    0.0873   11.2679   -4.5878 N   0  0  0  0  0  0  0  0  0  0  0  0
   -0.8527   13.3768   -5.1552 C   0  0  0  0  0  0  0  0  0  0  0  0
   -1.0803   14.7111   -4.8407 C   0  0  0  0  0  0  0  0  0  0  0  0
    0.5962   10.6959   -3.9688 H   0  0  0  0  0  0  0  0  0  0  0  0
   -0.2607   10.8946   -5.4297 H   0  0  0  0  0  0  0  0  0  0  0  0
 20 19  1  0  0  0
 19 18  2  0  0  0
 19 21  1  0  0  0
 18 17  1  0  0  0
 21 22  2  0  0  0
 17 16  2  0  0  0
 22 16  1  0  0  0
 16 15  1  0  0  0
 15  4  1  0  0  0
  1  2  2  0  0  0
  4  2  1  0  0  0
  4 12  1  0  0  0
  2  3  1  0  0  0
  8  7  2  0  0  0
 10 11  1  0  0  0
 10  9  1  0  0  0
 12 13  1  0  0  0
  9  7  1  0  0  0
  7  6  1  0  0  0
  3  6  1  0  0  0
 13 14  1  0  0  0
  3  5  1  0  0  0
 20 23  1  0  0  0
 20 24  1  0  0  0
M  END
> <minimizedAffinity>
-4.35957

$$$$
