5K8S_CMP_A_501
  RCSB PDB12061718343D
Coordinates from PDB:5K8S:A:501 Model:1 without hydrogens
 22 25  0  0  0  0            999 V2000
   19.4600  -18.0760  -18.1420   P 0  0  0  0  0  0  0  0  0  0  0  0
   19.3110  -16.7860  -18.9740   O 0  0  0  0  0  0  0  0  0  0  0  0
   20.8040  -18.5290  -17.7540   O 0  0  0  0  0  0  0  0  0  0  0  0
   18.7590  -19.3010  -18.8960   O 0  0  0  0  0  0  0  0  0  0  0  0
   18.4550  -20.5120  -18.1930   C 0  0  0  0  0  0  0  0  0  0  0  0
   17.6860  -20.1180  -16.9770   C 0  0  0  0  0  0  0  0  0  0  0  0
   17.4520  -21.1730  -16.0380   O 0  0  0  0  0  0  0  0  0  0  0  0
   18.3670  -19.0960  -16.1230   C 0  0  0  0  0  0  0  0  0  0  0  0
   18.5180  -17.8520  -16.7970   O 0  0  0  0  0  0  0  0  0  0  0  0
   17.4730  -19.0890  -14.8840   C 0  0  0  0  0  0  0  0  0  0  0  0
   16.3300  -18.2730  -15.1040   O 0  0  0  0  0  0  0  0  0  0  0  0
   16.9970  -20.5610  -14.8530   C 0  0  0  0  0  0  0  0  0  0  0  0
   17.4630  -21.3200  -13.6820   N 0  0  0  0  0  0  0  0  0  0  0  0
   16.6820  -22.1140  -12.9030   C 0  0  0  0  0  0  0  0  0  0  0  0
   17.4280  -22.6630  -11.9330   N 0  0  0  0  0  0  0  0  0  0  0  0
   18.6910  -22.1980  -12.1180   C 0  0  0  0  0  0  0  0  0  0  0  0
   19.8220  -22.4480  -11.3880   C 0  0  0  0  0  0  0  0  0  0  0  0
   20.0010  -23.2660  -10.2450   N 0  0  0  0  0  0  0  0  0  0  0  0
   20.9880  -21.8740  -11.7510   N 0  0  0  0  0  0  0  0  0  0  0  0
   21.0040  -21.0490  -12.8500   C 0  0  0  0  0  0  0  0  0  0  0  0
   19.8850  -20.7740  -13.5890   N 0  0  0  0  0  0  0  0  0  0  0  0
   18.7290  -21.3730  -13.1950   C 0  0  0  0  0  0  0  0  0  0  0  0
  1  2  2  0  0  0  0
  1  3  1  0  0  0  0
  1  4  1  0  0  0  0
  1  9  1  0  0  0  0
  4  5  1  0  0  0  0
  5  6  1  0  0  0  0
  6  7  1  0  0  0  0
  6  8  1  0  0  0  0
  7 12  1  0  0  0  0
  8  9  1  0  0  0  0
  8 10  1  0  0  0  0
 10 11  1  0  0  0  0
 10 12  1  0  0  0  0
 12 13  1  0  0  0  0
 13 14  1  0  0  0  0
 13 22  1  0  0  0  0
 14 15  2  0  0  0  0
 15 16  1  0  0  0  0
 16 17  1  0  0  0  0
 16 22  2  0  0  0  0
 17 18  1  0  0  0  0
 17 19  2  0  0  0  0
 19 20  1  0  0  0  0
 20 21  2  0  0  0  0
 21 22  1  0  0  0  0
A    1
P
A    2
O1P
A    3
O2P
A    4
O5'
A    5
C5'
A    6
C4'
A    7
O4'
A    8
C3'
A    9
O3'
A   10
C2'
A   11
O2'
A   12
C1'
A   13
N9
A   14
C8
A   15
N7
A   16
C5
A   17
C6
A   18
N6
A   19
N1
A   20
C2
A   21
N3
A   22
C4
M  END
>  <InstanceId>
5K8S_CMP_A_501

>  <ChemCompId>
CMP

>  <PdbId>
5K8S

>  <ChainId>
A

>  <ResidueNumber>
501

>  <InsertionCode>


>  <Model>
1

>  <AltIds>


>  <MissingHeavyAtoms>
0

>  <ObservedFormula>
C10 N5 O6 P

>  <Name>
ADENOSINE-3',5'-CYCLIC-MONOPHOSPHATE

>  <SystematicName>
(1R,4R,6S,7R,8R)-8-(6-aminopurin-9-yl)-4-hydroxy-4-oxo-3,5,9-trioxa-4$l^{5}-phosphabicyclo[4.3.0]nonan-7-ol

>  <Synonyms>
CYCLIC AMP; CAMP

>  <Type>
NON-POLYMER

>  <Formula>
C10 H12 N5 O6 P

>  <MolecularWeight>
329.206

>  <ModifiedDate>
2011-06-04

>  <Parent>


>  <OneLetterCode>


>  <SubcomponentList>


>  <AmbiguousFlag>
N

>  <InChI>
InChI=1S/C10H12N5O6P/c11-8-5-9(13-2-12-8)15(3-14-5)10-6(16)7-4(20-10)1-19-22(17,18)21-7/h2-4,6-7,10,16H,1H2,(H,17,18)(H2,11,12,13)/t4-,6-,7-,10-/m1/s1

>  <InChIKey>
IVOMOUWHDPKRLL-KQYNXXCUSA-N

>  <SMILES>
c1nc(c2c(n1)n(cn2)[C@H]3[C@@H]([C@H]4[C@H](O3)CO[P@](=O)(O4)O)O)N

$$$$
