5K8S_CMP_A_501


 26 29  0  0  0  0  0  0  0  0999 V2000
   19.5089  -18.0667  -18.0633 P   0  0  0  0  0  0  0  0  0  0  0  0
   19.3161  -16.7861  -18.9009 O   0  0  0  0  0  0  0  0  0  0  0  0
   20.8673  -18.4703  -17.6710 O   0  0  0  0  0  0  0  0  0  0  0  0
   18.8532  -19.3187  -18.8136 O   0  0  0  0  0  0  0  0  0  0  0  0
   18.5907  -20.5368  -18.1063 C   0  0  0  0  0  0  0  0  0  0  0  0
   17.8058  -20.1654  -16.8933 C   0  0  0  0  0  0  0  0  0  0  0  0
   17.6074  -21.2242  -15.9505 O   0  0  0  0  0  0  0  0  0  0  0  0
   18.4486  -19.1165  -16.0422 C   0  0  0  0  0  0  0  0  0  0  0  0
   18.5569  -17.8707  -16.7210 O   0  0  0  0  0  0  0  0  0  0  0  0
   17.5524  -19.1361  -14.8050 C   0  0  0  0  0  0  0  0  0  0  0  0
   16.3817  -18.3619  -15.0305 O   0  0  0  0  0  0  0  0  0  0  0  0
   17.1286  -20.6239  -14.7689 C   0  0  0  0  0  0  0  0  0  0  0  0
   21.4136  -18.5815  -18.4648 H   0  0  0  0  0  0  0  0  0  0  0  0
   15.9296  -18.6837  -15.8260 H   0  0  0  0  0  0  0  0  0  0  0  0
   17.6188  -21.3613  -13.5939 N   0  0  0  0  0  0  0  0  0  0  0  0
   16.8415  -22.0779  -12.7398 C   0  0  0  0  0  0  0  0  0  0  0  0
   17.6107  -22.6297  -11.7898 N   0  0  0  0  0  0  0  0  0  0  0  0
   18.8846  -22.2452  -12.0637 C   0  0  0  0  0  0  0  0  0  0  0  0
   20.0402  -22.5302  -11.3871 C   0  0  0  0  0  0  0  0  0  0  0  0
   20.2394  -23.3112  -10.2217 N   0  0  0  0  0  0  0  0  0  0  0  0
   21.2131  -22.0385  -11.8379 N   0  0  0  0  0  0  0  0  0  0  0  0
   21.2112  -21.2600  -12.9704 C   0  0  0  0  0  0  0  0  0  0  0  0
   20.0684  -20.9511  -13.6578 N   0  0  0  0  0  0  0  0  0  0  0  0
   18.9058  -21.4671  -13.1755 C   0  0  0  0  0  0  0  0  0  0  0  0
   19.4711  -23.7370   -9.7773 H   0  0  0  0  0  0  0  0  0  0  0  0
   21.1462  -23.4279   -9.8565 H   0  0  0  0  0  0  0  0  0  0  0  0
  1  2  2  0  0  0
  1  3  1  0  0  0
  1  4  1  0  0  0
  1  9  1  0  0  0
  4  5  1  0  0  0
  5  6  1  0  0  0
  6  7  1  0  0  0
  6  8  1  0  0  0
  7 12  1  0  0  0
  8  9  1  0  0  0
  8 10  1  0  0  0
 10 11  1  0  0  0
 10 12  1  0  0  0
 12 15  1  0  0  0
 15 16  1  0  0  0
 15 24  1  0  0  0
 16 17  2  0  0  0
 17 18  1  0  0  0
 18 19  1  0  0  0
 18 24  2  0  0  0
 19 20  1  0  0  0
 19 21  2  0  0  0
 21 22  1  0  0  0
 22 23  2  0  0  0
 23 24  1  0  0  0
  3 13  1  0  0  0
 11 14  1  0  0  0
 20 25  1  0  0  0
 20 26  1  0  0  0
M  END
> <minimizedAffinity>
-10.93974

$$$$
5K8S_CMP_A_501


 26 29  0  0  0  0  0  0  0  0999 V2000
   19.5025  -17.9439  -18.2766 P   0  0  0  0  0  0  0  0  0  0  0  0
   19.0924  -16.6978  -19.0876 O   0  0  0  0  0  0  0  0  0  0  0  0
   20.9299  -18.2565  -18.1132 O   0  0  0  0  0  0  0  0  0  0  0  0
   18.8101  -19.2506  -18.8881 O   0  0  0  0  0  0  0  0  0  0  0  0
   18.7466  -20.4646  -18.1296 C   0  0  0  0  0  0  0  0  0  0  0  0
   18.1541  -20.1110  -16.8070 C   0  0  0  0  0  0  0  0  0  0  0  0
   18.1830  -21.1565  -15.8294 O   0  0  0  0  0  0  0  0  0  0  0  0
   18.8633  -19.0054  -16.0912 C   0  0  0  0  0  0  0  0  0  0  0  0
   18.7782  -17.7722  -16.7959 O   0  0  0  0  0  0  0  0  0  0  0  0
   18.1898  -19.0481  -14.7204 C   0  0  0  0  0  0  0  0  0  0  0  0
   16.9518  -18.3505  -14.7562 O   0  0  0  0  0  0  0  0  0  0  0  0
   17.8721  -20.5571  -14.5925 C   0  0  0  0  0  0  0  0  0  0  0  0
   21.3415  -18.3543  -18.9862 H   0  0  0  0  0  0  0  0  0  0  0  0
   16.3939  -18.7178  -15.4596 H   0  0  0  0  0  0  0  0  0  0  0  0
   18.5973  -21.2352  -13.5068 N   0  0  0  0  0  0  0  0  0  0  0  0
   19.9442  -21.2051  -13.3276 C   0  0  0  0  0  0  0  0  0  0  0  0
   20.2672  -21.9174  -12.2380 N   0  0  0  0  0  0  0  0  0  0  0  0
   19.0978  -22.3951  -11.7379 C   0  0  0  0  0  0  0  0  0  0  0  0
   18.8836  -23.1887  -10.6430 C   0  0  0  0  0  0  0  0  0  0  0  0
   19.8120  -23.7268   -9.7177 N   0  0  0  0  0  0  0  0  0  0  0  0
   17.6245  -23.5520  -10.3213 N   0  0  0  0  0  0  0  0  0  0  0  0
   16.5884  -23.1117  -11.1094 C   0  0  0  0  0  0  0  0  0  0  0  0
   16.7774  -22.3275  -12.2155 N   0  0  0  0  0  0  0  0  0  0  0  0
   18.0596  -21.9789  -12.5065 C   0  0  0  0  0  0  0  0  0  0  0  0
   20.7739  -23.5460   -9.8239 H   0  0  0  0  0  0  0  0  0  0  0  0
   19.4951  -24.2815   -8.9686 H   0  0  0  0  0  0  0  0  0  0  0  0
  1  2  2  0  0  0
  1  3  1  0  0  0
  1  4  1  0  0  0
  1  9  1  0  0  0
  4  5  1  0  0  0
  5  6  1  0  0  0
  6  7  1  0  0  0
  6  8  1  0  0  0
  7 12  1  0  0  0
  8  9  1  0  0  0
  8 10  1  0  0  0
 10 11  1  0  0  0
 10 12  1  0  0  0
 12 15  1  0  0  0
 15 16  1  0  0  0
 15 24  1  0  0  0
 16 17  2  0  0  0
 17 18  1  0  0  0
 18 19  1  0  0  0
 18 24  2  0  0  0
 19 20  1  0  0  0
 19 21  2  0  0  0
 21 22  1  0  0  0
 22 23  2  0  0  0
 23 24  1  0  0  0
  3 13  1  0  0  0
 11 14  1  0  0  0
 20 25  1  0  0  0
 20 26  1  0  0  0
M  END
> <minimizedAffinity>
-9.37113

$$$$
