2ERZ_HFS_E_351


 23 25  0  0  0  0  0  0  0  0999 V2000
    5.2573   11.3741    1.0251 O   0  0  0  0  0  0  0  0  0  0  0  0
    6.4026   10.9603    0.8955 C   0  0  0  0  0  0  0  0  0  0  0  0
    7.0982   10.9782   -0.3439 N   0  0  0  0  0  0  0  0  0  0  0  0
    8.3683   10.4260   -0.6022 C   0  0  0  0  0  0  0  0  0  0  0  0
    9.0736    9.7491    0.4831 C   0  0  0  0  0  0  0  0  0  0  0  0
    8.4424    9.6605    1.8130 C   0  0  0  0  0  0  0  0  0  0  0  0
    9.0935    8.9264    2.9842 C   0  0  0  0  0  0  0  0  0  0  0  0
    8.3882    8.8637    4.2774 C   0  0  0  0  0  0  0  0  0  0  0  0
    7.0858    9.4938    4.4589 C   0  0  0  0  0  0  0  0  0  0  0  0
    6.4277   10.2017    3.3498 C   0  0  0  0  0  0  0  0  0  0  0  0
    7.0641   10.2905    2.0454 C   0  0  0  0  0  0  0  0  0  0  0  0
    4.8285   11.7983    0.3081 H   0  0  0  0  0  0  0  0  0  0  0  0
   10.6875    8.0799    2.9223 S   0  0  0  0  0  0  0  0  0  0  0  0
   11.0558    7.5922    4.2280 O   0  0  0  0  0  0  0  0  0  0  0  0
   10.6315    7.1010    1.8625 O   0  0  0  0  0  0  0  0  0  0  0  0
   12.0251    9.2303    2.5533 N   0  0  0  0  0  0  0  0  0  0  0  0
   11.9106   10.7182    2.6303 C   0  0  0  0  0  0  0  0  0  0  0  0
   11.9723   11.3203    1.2294 C   0  0  0  0  0  0  0  0  0  0  0  0
   13.3882   11.2490    0.6501 C   0  0  0  0  0  0  0  0  0  0  0  0
   13.8062    9.8604    0.3523 N   0  0  0  0  0  0  0  0  0  0  0  0
   14.4005    9.2516    1.5649 C   0  0  0  0  0  0  0  0  0  0  0  0
   13.4275    8.7339    2.6260 C   0  0  0  0  0  0  0  0  0  0  0  0
   14.4970    9.8670   -0.3981 H   0  0  0  0  0  0  0  0  0  0  0  0
  1  2  1  0  0  0
  2  3  1  0  0  0
  2 11  2  0  0  0
  3  4  2  0  0  0
  4  5  1  0  0  0
  5  6  2  0  0  0
  6  7  1  0  0  0
  6 11  1  0  0  0
  7  8  2  0  0  0
  7 13  1  0  0  0
  8  9  1  0  0  0
  9 10  2  0  0  0
 10 11  1  0  0  0
 13 14  2  0  0  0
 13 15  2  0  0  0
 13 16  1  0  0  0
 16 17  1  0  0  0
 16 22  1  0  0  0
 17 18  1  0  0  0
 18 19  1  0  0  0
 19 20  1  0  0  0
 20 21  1  0  0  0
 21 22  1  0  0  0
  1 12  1  0  0  0
 20 23  1  0  0  0
M  END
> <minimizedAffinity>
-8.68477

$$$$
2ERZ_HFS_E_351


 23 25  0  0  0  0  0  0  0  0999 V2000
    4.0220   10.2950    5.4419 O   0  0  0  0  0  0  0  0  0  0  0  0
    4.6105   10.2043    4.3718 C   0  0  0  0  0  0  0  0  0  0  0  0
    3.9449    9.9702    3.1379 N   0  0  0  0  0  0  0  0  0  0  0  0
    4.5509    9.7453    1.8862 C   0  0  0  0  0  0  0  0  0  0  0  0
    6.0093    9.7340    1.8039 C   0  0  0  0  0  0  0  0  0  0  0  0
    6.8055    9.9562    3.0253 C   0  0  0  0  0  0  0  0  0  0  0  0
    8.3326    9.9097    3.0303 C   0  0  0  0  0  0  0  0  0  0  0  0
    9.0561   10.1207    4.2976 C   0  0  0  0  0  0  0  0  0  0  0  0
    8.3408   10.3780    5.5419 C   0  0  0  0  0  0  0  0  0  0  0  0
    6.8707   10.4215    5.5734 C   0  0  0  0  0  0  0  0  0  0  0  0
    6.0966   10.2103    4.3609 C   0  0  0  0  0  0  0  0  0  0  0  0
    3.0853   10.2925    5.4631 H   0  0  0  0  0  0  0  0  0  0  0  0
    9.3665    9.5856    1.5856 S   0  0  0  0  0  0  0  0  0  0  0  0
    9.1882    8.2310    1.1258 O   0  0  0  0  0  0  0  0  0  0  0  0
    9.1220   10.6301    0.6191 O   0  0  0  0  0  0  0  0  0  0  0  0
   11.1170    9.6162    2.0139 N   0  0  0  0  0  0  0  0  0  0  0  0
   11.9448   10.8561    2.1146 C   0  0  0  0  0  0  0  0  0  0  0  0
   12.9606   10.9002    0.9767 C   0  0  0  0  0  0  0  0  0  0  0  0
   14.0839    9.8808    1.1877 C   0  0  0  0  0  0  0  0  0  0  0  0
   13.6100    8.4845    1.0561 N   0  0  0  0  0  0  0  0  0  0  0  0
   13.0971    8.0107    2.3624 C   0  0  0  0  0  0  0  0  0  0  0  0
   11.6863    8.4553    2.7533 C   0  0  0  0  0  0  0  0  0  0  0  0
   14.3835    7.8898    0.7588 H   0  0  0  0  0  0  0  0  0  0  0  0
  1  2  1  0  0  0
  2  3  1  0  0  0
  2 11  2  0  0  0
  3  4  2  0  0  0
  4  5  1  0  0  0
  5  6  2  0  0  0
  6  7  1  0  0  0
  6 11  1  0  0  0
  7  8  2  0  0  0
  7 13  1  0  0  0
  8  9  1  0  0  0
  9 10  2  0  0  0
 10 11  1  0  0  0
 13 14  2  0  0  0
 13 15  2  0  0  0
 13 16  1  0  0  0
 16 17  1  0  0  0
 16 22  1  0  0  0
 17 18  1  0  0  0
 18 19  1  0  0  0
 19 20  1  0  0  0
 20 21  1  0  0  0
 21 22  1  0  0  0
  1 12  1  0  0  0
 20 23  1  0  0  0
M  END
> <minimizedAffinity>
-8.49557

$$$$
2ERZ_HFS_E_351


 23 25  0  0  0  0  0  0  0  0999 V2000
    5.1925   10.4459    3.2095 O   0  0  0  0  0  0  0  0  0  0  0  0
    6.2613    9.9013    3.4558 C   0  0  0  0  0  0  0  0  0  0  0  0
    6.5637    9.3214    4.7178 N   0  0  0  0  0  0  0  0  0  0  0  0
    7.7998    8.7759    5.1169 C   0  0  0  0  0  0  0  0  0  0  0  0
    8.9138    8.7957    4.1723 C   0  0  0  0  0  0  0  0  0  0  0  0
    8.7183    9.3830    2.8337 C   0  0  0  0  0  0  0  0  0  0  0  0
    9.8468    9.4861    1.8090 C   0  0  0  0  0  0  0  0  0  0  0  0
    9.5766   10.1069    0.4991 C   0  0  0  0  0  0  0  0  0  0  0  0
    8.2526   10.6175    0.1639 C   0  0  0  0  0  0  0  0  0  0  0  0
    7.1462   10.5411    1.1305 C   0  0  0  0  0  0  0  0  0  0  0  0
    7.3486    9.9512    2.4440 C   0  0  0  0  0  0  0  0  0  0  0  0
    4.4985   10.4220    3.8386 H   0  0  0  0  0  0  0  0  0  0  0  0
   11.5422    8.9218    2.0708 S   0  0  0  0  0  0  0  0  0  0  0  0
   11.8616    8.9051    3.4765 O   0  0  0  0  0  0  0  0  0  0  0  0
   11.7132    7.6780    1.3577 O   0  0  0  0  0  0  0  0  0  0  0  0
   12.7339   10.1085    1.4226 N   0  0  0  0  0  0  0  0  0  0  0  0
   12.5950   11.5928    1.5240 C   0  0  0  0  0  0  0  0  0  0  0  0
   12.3348   12.1889    0.1435 C   0  0  0  0  0  0  0  0  0  0  0  0
   13.5937   12.1555   -0.7282 C   0  0  0  0  0  0  0  0  0  0  0  0
   13.9782   10.7780   -1.1106 N   0  0  0  0  0  0  0  0  0  0  0  0
   14.8381   10.1933   -0.0556 C   0  0  0  0  0  0  0  0  0  0  0  0
   14.1329    9.6534    1.1901 C   0  0  0  0  0  0  0  0  0  0  0  0
   14.4901   10.8006   -1.9925 H   0  0  0  0  0  0  0  0  0  0  0  0
  1  2  1  0  0  0
  2  3  1  0  0  0
  2 11  2  0  0  0
  3  4  2  0  0  0
  4  5  1  0  0  0
  5  6  2  0  0  0
  6  7  1  0  0  0
  6 11  1  0  0  0
  7  8  2  0  0  0
  7 13  1  0  0  0
  8  9  1  0  0  0
  9 10  2  0  0  0
 10 11  1  0  0  0
 13 14  2  0  0  0
 13 15  2  0  0  0
 13 16  1  0  0  0
 16 17  1  0  0  0
 16 22  1  0  0  0
 17 18  1  0  0  0
 18 19  1  0  0  0
 19 20  1  0  0  0
 20 21  1  0  0  0
 21 22  1  0  0  0
  1 12  1  0  0  0
 20 23  1  0  0  0
M  END
> <minimizedAffinity>
-8.20536

$$$$
2ERZ_HFS_E_351


 23 25  0  0  0  0  0  0  0  0999 V2000
    5.5322   10.9481    0.9889 O   0  0  0  0  0  0  0  0  0  0  0  0
    6.3134   10.5054    1.8216 C   0  0  0  0  0  0  0  0  0  0  0  0
    5.9622   10.3022    3.1838 N   0  0  0  0  0  0  0  0  0  0  0  0
    6.8253    9.9030    4.2232 C   0  0  0  0  0  0  0  0  0  0  0  0
    8.2346    9.6724    3.9161 C   0  0  0  0  0  0  0  0  0  0  0  0
    8.7156    9.8627    2.5350 C   0  0  0  0  0  0  0  0  0  0  0  0
   10.1827    9.6900    2.1448 C   0  0  0  0  0  0  0  0  0  0  0  0
   10.5884    9.9196    0.7460 C   0  0  0  0  0  0  0  0  0  0  0  0
    9.6148   10.3021   -0.2699 C   0  0  0  0  0  0  0  0  0  0  0  0
    8.1960   10.4845    0.0738 C   0  0  0  0  0  0  0  0  0  0  0  0
    7.7319   10.2848    1.4372 C   0  0  0  0  0  0  0  0  0  0  0  0
    4.6351   11.0919    1.2180 H   0  0  0  0  0  0  0  0  0  0  0  0
   11.5131    9.2399    3.2799 S   0  0  0  0  0  0  0  0  0  0  0  0
   11.9771   10.3967    4.0044 O   0  0  0  0  0  0  0  0  0  0  0  0
   11.0621    8.1219    4.0744 O   0  0  0  0  0  0  0  0  0  0  0  0
   12.9925    8.7314    2.3847 N   0  0  0  0  0  0  0  0  0  0  0  0
   13.3866    7.3123    2.1329 C   0  0  0  0  0  0  0  0  0  0  0  0
   14.6311    6.9635    2.9442 C   0  0  0  0  0  0  0  0  0  0  0  0
   15.8822    7.6335    2.3684 C   0  0  0  0  0  0  0  0  0  0  0  0
   15.8649    9.1036    2.5420 N   0  0  0  0  0  0  0  0  0  0  0  0
   15.1521    9.7282    1.4036 C   0  0  0  0  0  0  0  0  0  0  0  0
   13.6230    9.7024    1.4477 C   0  0  0  0  0  0  0  0  0  0  0  0
   16.8225    9.4530    2.5763 H   0  0  0  0  0  0  0  0  0  0  0  0
  1  2  1  0  0  0
  2  3  1  0  0  0
  2 11  2  0  0  0
  3  4  2  0  0  0
  4  5  1  0  0  0
  5  6  2  0  0  0
  6  7  1  0  0  0
  6 11  1  0  0  0
  7  8  2  0  0  0
  7 13  1  0  0  0
  8  9  1  0  0  0
  9 10  2  0  0  0
 10 11  1  0  0  0
 13 14  2  0  0  0
 13 15  2  0  0  0
 13 16  1  0  0  0
 16 17  1  0  0  0
 16 22  1  0  0  0
 17 18  1  0  0  0
 18 19  1  0  0  0
 19 20  1  0  0  0
 20 21  1  0  0  0
 21 22  1  0  0  0
  1 12  1  0  0  0
 20 23  1  0  0  0
M  END
> <minimizedAffinity>
-8.08716

$$$$
2ERZ_HFS_E_351


 23 25  0  0  0  0  0  0  0  0999 V2000
    7.5887    9.4933    4.0924 O   0  0  0  0  0  0  0  0  0  0  0  0
    8.7818    9.6805    3.8897 C   0  0  0  0  0  0  0  0  0  0  0  0
    9.7273    9.8608    4.9354 N   0  0  0  0  0  0  0  0  0  0  0  0
   11.0898   10.1875    4.7887 C   0  0  0  0  0  0  0  0  0  0  0  0
   11.6252   10.3784    3.4431 C   0  0  0  0  0  0  0  0  0  0  0  0
   10.7318   10.2261    2.2797 C   0  0  0  0  0  0  0  0  0  0  0  0
   11.2040   10.4583    0.8453 C   0  0  0  0  0  0  0  0  0  0  0  0
   10.2436   10.3072   -0.2632 C   0  0  0  0  0  0  0  0  0  0  0  0
    8.8558    9.9352   -0.0148 C   0  0  0  0  0  0  0  0  0  0  0  0
    8.3667    9.7121    1.3546 C   0  0  0  0  0  0  0  0  0  0  0  0
    9.2594    9.8560    2.4933 C   0  0  0  0  0  0  0  0  0  0  0  0
    7.2741    9.3811    4.9678 H   0  0  0  0  0  0  0  0  0  0  0  0
   12.8777   10.9401    0.3681 S   0  0  0  0  0  0  0  0  0  0  0  0
   12.9920   11.0299   -1.0662 O   0  0  0  0  0  0  0  0  0  0  0  0
   13.2316   12.1230    1.1166 O   0  0  0  0  0  0  0  0  0  0  0  0
   14.0690    9.6473    0.7658 N   0  0  0  0  0  0  0  0  0  0  0  0
   15.5129    9.6764    0.3824 C   0  0  0  0  0  0  0  0  0  0  0  0
   15.7947    8.6116   -0.6739 C   0  0  0  0  0  0  0  0  0  0  0  0
   15.7661    7.2034   -0.0724 C   0  0  0  0  0  0  0  0  0  0  0  0
   14.4057    6.7970    0.3466 N   0  0  0  0  0  0  0  0  0  0  0  0
   14.1538    7.2634    1.7298 C   0  0  0  0  0  0  0  0  0  0  0  0
   13.7708    8.7343    1.9041 C   0  0  0  0  0  0  0  0  0  0  0  0
   14.3287    5.7805    0.3114 H   0  0  0  0  0  0  0  0  0  0  0  0
  1  2  1  0  0  0
  2  3  1  0  0  0
  2 11  2  0  0  0
  3  4  2  0  0  0
  4  5  1  0  0  0
  5  6  2  0  0  0
  6  7  1  0  0  0
  6 11  1  0  0  0
  7  8  2  0  0  0
  7 13  1  0  0  0
  8  9  1  0  0  0
  9 10  2  0  0  0
 10 11  1  0  0  0
 13 14  2  0  0  0
 13 15  2  0  0  0
 13 16  1  0  0  0
 16 17  1  0  0  0
 16 22  1  0  0  0
 17 18  1  0  0  0
 18 19  1  0  0  0
 19 20  1  0  0  0
 20 21  1  0  0  0
 21 22  1  0  0  0
  1 12  1  0  0  0
 20 23  1  0  0  0
M  END
> <minimizedAffinity>
-7.77633

$$$$
2ERZ_HFS_E_351


 23 25  0  0  0  0  0  0  0  0999 V2000
   15.8940   10.9873   -2.1858 O   0  0  0  0  0  0  0  0  0  0  0  0
   15.6495   10.3600   -1.1629 C   0  0  0  0  0  0  0  0  0  0  0  0
   16.3501    9.1808   -0.7900 N   0  0  0  0  0  0  0  0  0  0  0  0
   16.0616    8.3436    0.3057 C   0  0  0  0  0  0  0  0  0  0  0  0
   14.9305    8.6789    1.1670 C   0  0  0  0  0  0  0  0  0  0  0  0
   14.1238    9.8771    0.8697 C   0  0  0  0  0  0  0  0  0  0  0  0
   12.8968   10.2665    1.6927 C   0  0  0  0  0  0  0  0  0  0  0  0
   12.1293   11.4684    1.3181 C   0  0  0  0  0  0  0  0  0  0  0  0
   12.5238   12.2928    0.1819 C   0  0  0  0  0  0  0  0  0  0  0  0
   13.6951   11.9418   -0.6360 C   0  0  0  0  0  0  0  0  0  0  0  0
   14.4885   10.7631   -0.3274 C   0  0  0  0  0  0  0  0  0  0  0  0
   16.6230   10.7438   -2.7218 H   0  0  0  0  0  0  0  0  0  0  0  0
   12.2647    9.3476    3.1130 S   0  0  0  0  0  0  0  0  0  0  0  0
   12.9191    8.0678    3.2233 O   0  0  0  0  0  0  0  0  0  0  0  0
   12.3377   10.2089    4.2695 O   0  0  0  0  0  0  0  0  0  0  0  0
   10.5418    8.8759    2.8726 N   0  0  0  0  0  0  0  0  0  0  0  0
    9.8669    8.7748    1.5434 C   0  0  0  0  0  0  0  0  0  0  0  0
    8.8328    9.8874    1.3963 C   0  0  0  0  0  0  0  0  0  0  0  0
    7.6046    9.6314    2.2748 C   0  0  0  0  0  0  0  0  0  0  0  0
    7.9092    9.7518    3.7185 N   0  0  0  0  0  0  0  0  0  0  0  0
    8.3986    8.4512    4.2313 C   0  0  0  0  0  0  0  0  0  0  0  0
    9.8615    8.1034    3.9491 C   0  0  0  0  0  0  0  0  0  0  0  0
    7.0641   10.0197    4.2229 H   0  0  0  0  0  0  0  0  0  0  0  0
  1  2  1  0  0  0
  2  3  1  0  0  0
  2 11  2  0  0  0
  3  4  2  0  0  0
  4  5  1  0  0  0
  5  6  2  0  0  0
  6  7  1  0  0  0
  6 11  1  0  0  0
  7  8  2  0  0  0
  7 13  1  0  0  0
  8  9  1  0  0  0
  9 10  2  0  0  0
 10 11  1  0  0  0
 13 14  2  0  0  0
 13 15  2  0  0  0
 13 16  1  0  0  0
 16 17  1  0  0  0
 16 22  1  0  0  0
 17 18  1  0  0  0
 18 19  1  0  0  0
 19 20  1  0  0  0
 20 21  1  0  0  0
 21 22  1  0  0  0
  1 12  1  0  0  0
 20 23  1  0  0  0
M  END
> <minimizedAffinity>
-7.71244

$$$$
2ERZ_HFS_E_351


 23 25  0  0  0  0  0  0  0  0999 V2000
   16.5933    9.5625    0.2035 O   0  0  0  0  0  0  0  0  0  0  0  0
   15.8226    8.9861    0.9607 C   0  0  0  0  0  0  0  0  0  0  0  0
   16.1619    7.7904    1.6503 N   0  0  0  0  0  0  0  0  0  0  0  0
   15.3037    7.0092    2.4490 C   0  0  0  0  0  0  0  0  0  0  0  0
   13.9133    7.4288    2.6041 C   0  0  0  0  0  0  0  0  0  0  0  0
   13.4454    8.6513    1.9247 C   0  0  0  0  0  0  0  0  0  0  0  0
   11.9956    9.1279    1.9972 C   0  0  0  0  0  0  0  0  0  0  0  0
   11.6012   10.3493    1.2716 C   0  0  0  0  0  0  0  0  0  0  0  0
   12.5701   11.1113    0.4927 C   0  0  0  0  0  0  0  0  0  0  0  0
   13.9719   10.6758    0.3956 C   0  0  0  0  0  0  0  0  0  0  0  0
   14.4236    9.4738    1.0777 C   0  0  0  0  0  0  0  0  0  0  0  0
   17.4781    9.2655    0.1202 H   0  0  0  0  0  0  0  0  0  0  0  0
   10.6719    8.2933    2.8986 S   0  0  0  0  0  0  0  0  0  0  0  0
   10.0260    7.3130    2.0620 O   0  0  0  0  0  0  0  0  0  0  0  0
   11.2160    7.8146    4.1474 O   0  0  0  0  0  0  0  0  0  0  0  0
    9.3205    9.4257    3.2728 N   0  0  0  0  0  0  0  0  0  0  0  0
    9.4058   10.5576    4.2446 C   0  0  0  0  0  0  0  0  0  0  0  0
    8.5414   10.2630    5.4672 C   0  0  0  0  0  0  0  0  0  0  0  0
    7.0496   10.3794    5.1406 C   0  0  0  0  0  0  0  0  0  0  0  0
    6.5859    9.3061    4.2326 N   0  0  0  0  0  0  0  0  0  0  0  0
    6.8036    9.7188    2.8267 C   0  0  0  0  0  0  0  0  0  0  0  0
    8.2237    9.5746    2.2762 C   0  0  0  0  0  0  0  0  0  0  0  0
    5.5920    9.1363    4.3869 H   0  0  0  0  0  0  0  0  0  0  0  0
  1  2  1  0  0  0
  2  3  1  0  0  0
  2 11  2  0  0  0
  3  4  2  0  0  0
  4  5  1  0  0  0
  5  6  2  0  0  0
  6  7  1  0  0  0
  6 11  1  0  0  0
  7  8  2  0  0  0
  7 13  1  0  0  0
  8  9  1  0  0  0
  9 10  2  0  0  0
 10 11  1  0  0  0
 13 14  2  0  0  0
 13 15  2  0  0  0
 13 16  1  0  0  0
 16 17  1  0  0  0
 16 22  1  0  0  0
 17 18  1  0  0  0
 18 19  1  0  0  0
 19 20  1  0  0  0
 20 21  1  0  0  0
 21 22  1  0  0  0
  1 12  1  0  0  0
 20 23  1  0  0  0
M  END
> <minimizedAffinity>
-7.69916

$$$$
2ERZ_HFS_E_351


 23 25  0  0  0  0  0  0  0  0999 V2000
   16.5114   10.3255   -1.3721 O   0  0  0  0  0  0  0  0  0  0  0  0
   15.4199   10.6010   -0.8901 C   0  0  0  0  0  0  0  0  0  0  0  0
   14.6229   11.6866   -1.3445 N   0  0  0  0  0  0  0  0  0  0  0  0
   13.4142   12.1362   -0.7775 C   0  0  0  0  0  0  0  0  0  0  0  0
   12.8954   11.4517    0.4041 C   0  0  0  0  0  0  0  0  0  0  0  0
   13.6454   10.3152    0.9705 C   0  0  0  0  0  0  0  0  0  0  0  0
   13.1948    9.5806    2.2322 C   0  0  0  0  0  0  0  0  0  0  0  0
   14.0117    8.4670    2.7484 C   0  0  0  0  0  0  0  0  0  0  0  0
   15.2360    8.0521    2.0738 C   0  0  0  0  0  0  0  0  0  0  0  0
   15.7022    8.7431    0.8616 C   0  0  0  0  0  0  0  0  0  0  0  0
   14.9492    9.8565    0.3069 C   0  0  0  0  0  0  0  0  0  0  0  0
   16.8203   10.7872   -2.1267 H   0  0  0  0  0  0  0  0  0  0  0  0
   11.7197    9.9786    3.1948 S   0  0  0  0  0  0  0  0  0  0  0  0
   11.6495    9.1610    4.3800 O   0  0  0  0  0  0  0  0  0  0  0  0
   11.6916   11.4080    3.3970 O   0  0  0  0  0  0  0  0  0  0  0  0
   10.2183    9.5068    2.3161 N   0  0  0  0  0  0  0  0  0  0  0  0
   10.1469    9.2183    0.8518 C   0  0  0  0  0  0  0  0  0  0  0  0
    9.3577   10.3141    0.1411 C   0  0  0  0  0  0  0  0  0  0  0  0
    7.8603   10.2155    0.4472 C   0  0  0  0  0  0  0  0  0  0  0  0
    7.5500   10.5469    1.8562 N   0  0  0  0  0  0  0  0  0  0  0  0
    7.6790    9.3300    2.6909 C   0  0  0  0  0  0  0  0  0  0  0  0
    9.0952    8.9177    3.0972 C   0  0  0  0  0  0  0  0  0  0  0  0
    6.5962   10.9028    1.9194 H   0  0  0  0  0  0  0  0  0  0  0  0
  1  2  1  0  0  0
  2  3  1  0  0  0
  2 11  2  0  0  0
  3  4  2  0  0  0
  4  5  1  0  0  0
  5  6  2  0  0  0
  6  7  1  0  0  0
  6 11  1  0  0  0
  7  8  2  0  0  0
  7 13  1  0  0  0
  8  9  1  0  0  0
  9 10  2  0  0  0
 10 11  1  0  0  0
 13 14  2  0  0  0
 13 15  2  0  0  0
 13 16  1  0  0  0
 16 17  1  0  0  0
 16 22  1  0  0  0
 17 18  1  0  0  0
 18 19  1  0  0  0
 19 20  1  0  0  0
 20 21  1  0  0  0
 21 22  1  0  0  0
  1 12  1  0  0  0
 20 23  1  0  0  0
M  END
> <minimizedAffinity>
-7.50052

$$$$
2ERZ_HFS_E_351


 23 25  0  0  0  0  0  0  0  0999 V2000
    6.8868   10.1442    1.5740 O   0  0  0  0  0  0  0  0  0  0  0  0
    7.7828    9.5138    2.1211 C   0  0  0  0  0  0  0  0  0  0  0  0
    7.5885    8.7665    3.3145 N   0  0  0  0  0  0  0  0  0  0  0  0
    8.5826    8.1068    4.0636 C   0  0  0  0  0  0  0  0  0  0  0  0
    9.9688    8.1799    3.6090 C   0  0  0  0  0  0  0  0  0  0  0  0
   10.2910    8.9380    2.3856 C   0  0  0  0  0  0  0  0  0  0  0  0
   11.7211    9.1026    1.8738 C   0  0  0  0  0  0  0  0  0  0  0  0
   11.9635    9.8945    0.6539 C   0  0  0  0  0  0  0  0  0  0  0  0
   10.8637   10.5167   -0.0737 C   0  0  0  0  0  0  0  0  0  0  0  0
    9.4759   10.3843    0.3963 C   0  0  0  0  0  0  0  0  0  0  0  0
    9.1696    9.6265    1.5988 C   0  0  0  0  0  0  0  0  0  0  0  0
    6.0080   10.0822    1.8931 H   0  0  0  0  0  0  0  0  0  0  0  0
   13.1924    8.4153    2.6638 S   0  0  0  0  0  0  0  0  0  0  0  0
   13.6344    9.2639    3.7421 O   0  0  0  0  0  0  0  0  0  0  0  0
   12.9157    7.0389    3.0007 O   0  0  0  0  0  0  0  0  0  0  0  0
   14.6082    8.4462    1.5488 N   0  0  0  0  0  0  0  0  0  0  0  0
   15.4600    9.6465    1.2913 C   0  0  0  0  0  0  0  0  0  0  0  0
   15.2399   10.1477   -0.1332 C   0  0  0  0  0  0  0  0  0  0  0  0
   15.8805    9.2118   -1.1624 C   0  0  0  0  0  0  0  0  0  0  0  0
   15.1919    7.9037   -1.2402 N   0  0  0  0  0  0  0  0  0  0  0  0
   15.7602    6.9841   -0.2275 C   0  0  0  0  0  0  0  0  0  0  0  0
   15.2744    7.1570    1.2129 C   0  0  0  0  0  0  0  0  0  0  0  0
   15.3214    7.5063   -2.1707 H   0  0  0  0  0  0  0  0  0  0  0  0
  1  2  1  0  0  0
  2  3  1  0  0  0
  2 11  2  0  0  0
  3  4  2  0  0  0
  4  5  1  0  0  0
  5  6  2  0  0  0
  6  7  1  0  0  0
  6 11  1  0  0  0
  7  8  2  0  0  0
  7 13  1  0  0  0
  8  9  1  0  0  0
  9 10  2  0  0  0
 10 11  1  0  0  0
 13 14  2  0  0  0
 13 15  2  0  0  0
 13 16  1  0  0  0
 16 17  1  0  0  0
 16 22  1  0  0  0
 17 18  1  0  0  0
 18 19  1  0  0  0
 19 20  1  0  0  0
 20 21  1  0  0  0
 21 22  1  0  0  0
  1 12  1  0  0  0
 20 23  1  0  0  0
M  END
> <minimizedAffinity>
-7.40828

$$$$
2ERZ_HFS_E_351


 23 25  0  0  0  0  0  0  0  0999 V2000
   16.6750    8.0967   -0.9555 O   0  0  0  0  0  0  0  0  0  0  0  0
   16.0676    8.2171    0.1010 C   0  0  0  0  0  0  0  0  0  0  0  0
   16.1815    7.2889    1.1714 N   0  0  0  0  0  0  0  0  0  0  0  0
   15.4406    7.2936    2.3696 C   0  0  0  0  0  0  0  0  0  0  0  0
   14.4362    8.3350    2.5700 C   0  0  0  0  0  0  0  0  0  0  0  0
   14.2237    9.3483    1.5198 C   0  0  0  0  0  0  0  0  0  0  0  0
   13.1590   10.4383    1.6331 C   0  0  0  0  0  0  0  0  0  0  0  0
   12.9938   11.4020    0.5295 C   0  0  0  0  0  0  0  0  0  0  0  0
   13.8310   11.3363   -0.6625 C   0  0  0  0  0  0  0  0  0  0  0  0
   14.8599   10.2948   -0.8069 C   0  0  0  0  0  0  0  0  0  0  0  0
   15.0665    9.3067    0.2397 C   0  0  0  0  0  0  0  0  0  0  0  0
   17.3089    7.4141   -1.0564 H   0  0  0  0  0  0  0  0  0  0  0  0
   12.0312   10.6474    3.0279 S   0  0  0  0  0  0  0  0  0  0  0  0
   12.6076   10.1073    4.2338 O   0  0  0  0  0  0  0  0  0  0  0  0
   11.6292   12.0334    3.0721 O   0  0  0  0  0  0  0  0  0  0  0  0
   10.5502    9.6398    2.8281 N   0  0  0  0  0  0  0  0  0  0  0  0
    9.1615   10.1030    3.1276 C   0  0  0  0  0  0  0  0  0  0  0  0
    8.6201    9.3733    4.3537 C   0  0  0  0  0  0  0  0  0  0  0  0
    8.2894    7.9120    4.0361 C   0  0  0  0  0  0  0  0  0  0  0  0
    9.5015    7.1047    3.7701 N   0  0  0  0  0  0  0  0  0  0  0  0
    9.8615    7.2098    2.3371 C   0  0  0  0  0  0  0  0  0  0  0  0
   10.6051    8.4742    1.9024 C   0  0  0  0  0  0  0  0  0  0  0  0
    9.3179    6.1289    4.0036 H   0  0  0  0  0  0  0  0  0  0  0  0
  1  2  1  0  0  0
  2  3  1  0  0  0
  2 11  2  0  0  0
  3  4  2  0  0  0
  4  5  1  0  0  0
  5  6  2  0  0  0
  6  7  1  0  0  0
  6 11  1  0  0  0
  7  8  2  0  0  0
  7 13  1  0  0  0
  8  9  1  0  0  0
  9 10  2  0  0  0
 10 11  1  0  0  0
 13 14  2  0  0  0
 13 15  2  0  0  0
 13 16  1  0  0  0
 16 17  1  0  0  0
 16 22  1  0  0  0
 17 18  1  0  0  0
 18 19  1  0  0  0
 19 20  1  0  0  0
 20 21  1  0  0  0
 21 22  1  0  0  0
  1 12  1  0  0  0
 20 23  1  0  0  0
M  END
> <minimizedAffinity>
-7.29968

$$$$
