2YXJ_N3C_A_1001


 58 63  0  0  0  0  0  0  0  0999 V2000
  -11.4950  -10.9143   11.5067 N   0  0  0  0  0  0  0  0  0  0  0  0
  -12.5792  -11.5484   11.9942 C   0  0  0  0  0  0  0  0  0  0  0  0
  -13.5559  -11.0005   12.4959 O   0  0  0  0  0  0  0  0  0  0  0  0
  -10.7781  -11.4699   11.1238 H   0  0  0  0  0  0  0  0  0  0  0  0
  -12.5855  -13.0425   12.0295 C   0  0  0  0  0  0  0  0  0  0  0  0
  -12.1037  -13.7088   13.1571 C   0  0  0  0  0  0  0  0  0  0  0  0
  -12.0583  -15.0988   13.1848 C   0  0  0  0  0  0  0  0  0  0  0  0
  -12.9722  -13.7786   10.9253 C   0  0  0  0  0  0  0  0  0  0  0  0
  -12.9213  -15.1720   10.9451 C   0  0  0  0  0  0  0  0  0  0  0  0
  -12.4598  -15.8617   12.0704 C   0  0  0  0  0  0  0  0  0  0  0  0
  -12.4115  -17.2722   12.0900 N   0  0  0  0  0  0  0  0  0  0  0  0
  -12.6746  -17.9927   10.8450 C   0  0  0  0  0  0  0  0  0  0  0  0
  -12.2360  -19.4400   10.9012 C   0  0  0  0  0  0  0  0  0  0  0  0
  -12.1552  -17.9195   13.3706 C   0  0  0  0  0  0  0  0  0  0  0  0
  -11.8659  -19.3904   13.2857 C   0  0  0  0  0  0  0  0  0  0  0  0
  -12.5246  -20.0882   12.1834 N   0  0  0  0  0  0  0  0  0  0  0  0
  -12.1500  -21.5292   12.0769 C   0  0  0  0  0  0  0  0  0  0  0  0
  -13.0230  -22.3330   11.1541 C   0  0  0  0  0  0  0  0  0  0  0  0
  -14.4134  -22.3077   11.4231 C   0  0  0  0  0  0  0  0  0  0  0  0
  -15.2917  -23.0020   10.6021 C   0  0  0  0  0  0  0  0  0  0  0  0
  -14.7909  -23.7152    9.5232 C   0  0  0  0  0  0  0  0  0  0  0  0
  -13.4321  -23.7752    9.2726 C   0  0  0  0  0  0  0  0  0  0  0  0
  -12.5106  -23.0793   10.0766 C   0  0  0  0  0  0  0  0  0  0  0  0
  -11.1643  -23.1977    9.7117 C   0  0  0  0  0  0  0  0  0  0  0  0
  -10.5961  -22.3080    8.8052 C   0  0  0  0  0  0  0  0  0  0  0  0
   -9.2486  -22.4042    8.4610 C   0  0  0  0  0  0  0  0  0  0  0  0
  -10.3454  -24.1603   10.3118 C   0  0  0  0  0  0  0  0  0  0  0  0
   -8.9938  -24.2490    9.9679 C   0  0  0  0  0  0  0  0  0  0  0  0
   -8.4390  -23.3650    9.0429 C   0  0  0  0  0  0  0  0  0  0  0  0
   -6.6899  -23.4802    8.6172 Cl  0  0  0  0  0  0  0  0  0  0  0  0
  -11.2895   -9.3848   11.5018 S   0  0  0  0  0  0  0  0  0  0  0  0
  -11.4306   -8.8527   12.8222 O   0  0  0  0  0  0  0  0  0  0  0  0
  -12.2345   -8.7575   10.6049 O   0  0  0  0  0  0  0  0  0  0  0  0
   -8.2046   -9.4501    9.0545 C   0  0  0  0  0  0  0  0  0  0  0  0
   -7.1475   -8.9044    9.8211 C   0  0  0  0  0  0  0  0  0  0  0  0
   -7.4108   -8.5262   11.1482 C   0  0  0  0  0  0  0  0  0  0  0  0
   -8.6956   -8.6634   11.7007 C   0  0  0  0  0  0  0  0  0  0  0  0
   -9.4800   -9.5650    9.6182 C   0  0  0  0  0  0  0  0  0  0  0  0
   -9.7682   -9.1692   10.9307 C   0  0  0  0  0  0  0  0  0  0  0  0
   -7.0166  -10.1389    7.1362 O   0  0  0  0  0  0  0  0  0  0  0  0
   -8.0856   -9.8717    7.6993 N   0  0  0  0  0  0  0  0  0  0  0  0
   -9.1061   -9.9547    7.0279 O   0  0  0  0  0  0  0  0  0  0  0  0
   -5.8860   -8.8374    9.2781 N   0  0  0  0  0  0  0  0  0  0  0  0
   -5.7881   -8.3351    8.4371 H   0  0  0  0  0  0  0  0  0  0  0  0
   -4.6631   -9.4495    9.8395 C   0  0  0  0  0  0  0  0  0  0  0  0
   -3.4347   -8.9363    9.0613 C   0  0  0  0  0  0  0  0  0  0  0  0
   -2.2275   -8.8340    9.9987 C   0  0  0  0  0  0  0  0  0  0  0  0
   -1.0219   -8.3248    9.2978 N   0  0  0  0  0  0  0  0  0  0  0  0
    0.1691   -9.0478    9.8141 C   0  0  0  0  0  0  0  0  0  0  0  0
   -1.1250   -8.4719    7.8246 C   0  0  0  0  0  0  0  0  0  0  0  0
   -4.6739  -10.9943    9.8069 C   0  0  0  0  0  0  0  0  0  0  0  0
   -5.2912  -11.6596   11.3318 S   0  0  0  0  0  0  0  0  0  0  0  0
   -6.7705  -12.4721   11.0736 C   0  0  0  0  0  0  0  0  0  0  0  0
   -7.1331  -12.9159    9.7886 C   0  0  0  0  0  0  0  0  0  0  0  0
   -8.3424  -13.5835    9.6021 C   0  0  0  0  0  0  0  0  0  0  0  0
   -9.1986  -13.8080   10.6821 C   0  0  0  0  0  0  0  0  0  0  0  0
   -8.8361  -13.3756   11.9562 C   0  0  0  0  0  0  0  0  0  0  0  0
   -7.6240  -12.7070   12.1535 C   0  0  0  0  0  0  0  0  0  0  0  0
 40 41  2  0  0  0
 41 42  1  0  0  0
 41 34  1  0  0  0
 34 38  2  0  0  0
 34 35  1  0  0  0
 35 43  1  0  0  0
 35 36  2  0  0  0
 43 45  1  0  0  0
 45 46  1  0  0  0
 45 51  1  0  0  0
 51 52  1  0  0  0
 52 53  1  0  0  0
 53 58  1  0  0  0
 53 54  2  0  0  0
 54 55  1  0  0  0
 55 56  2  0  0  0
 56 57  1  0  0  0
 57 58  2  0  0  0
 46 47  1  0  0  0
 47 48  1  0  0  0
 48 49  1  0  0  0
 48 50  1  0  0  0
 36 37  1  0  0  0
 37 39  2  0  0  0
 38 39  1  0  0  0
 39 31  1  0  0  0
 31 33  2  0  0  0
 31  1  1  0  0  0
 31 32  2  0  0  0
  1  2  1  0  0  0
  2  5  1  0  0  0
  2  3  2  0  0  0
  5  8  1  0  0  0
  5  6  2  0  0  0
  6  7  1  0  0  0
  7 10  2  0  0  0
  8  9  2  0  0  0
  9 10  1  0  0  0
 10 11  1  0  0  0
 11 14  1  0  0  0
 11 12  1  0  0  0
 12 13  1  0  0  0
 13 16  1  0  0  0
 14 15  1  0  0  0
 15 16  1  0  0  0
 16 17  1  0  0  0
 17 18  1  0  0  0
 18 23  2  0  0  0
 18 19  1  0  0  0
 19 20  2  0  0  0
 20 21  1  0  0  0
 21 22  2  0  0  0
 22 23  1  0  0  0
 23 24  1  0  0  0
 24 27  1  0  0  0
 24 25  2  0  0  0
 25 26  1  0  0  0
 26 29  2  0  0  0
 27 28  2  0  0  0
 28 29  1  0  0  0
 29 30  1  0  0  0
 43 44  1  0  0  0
  1  4  1  0  0  0
M  CHG 1  41   1
M  CHG 1  42  -1
M  END
> <minimizedAffinity>
-10.80141

$$$$
2YXJ_N3C_A_1001


 58 63  0  0  0  0  0  0  0  0999 V2000
  -12.4117  -10.9347   10.5183 N   0  0  0  0  0  0  0  0  0  0  0  0
  -12.2393  -11.5099   11.7244 C   0  0  0  0  0  0  0  0  0  0  0  0
  -11.9573  -10.9155   12.7602 O   0  0  0  0  0  0  0  0  0  0  0  0
  -12.6419  -11.5232    9.7634 H   0  0  0  0  0  0  0  0  0  0  0  0
  -12.2947  -12.9999   11.8272 C   0  0  0  0  0  0  0  0  0  0  0  0
  -11.5218  -13.6554   12.7864 C   0  0  0  0  0  0  0  0  0  0  0  0
  -11.5261  -15.0443   12.8617 C   0  0  0  0  0  0  0  0  0  0  0  0
  -13.0266  -13.7484   10.9246 C   0  0  0  0  0  0  0  0  0  0  0  0
  -13.0283  -15.1413   10.9908 C   0  0  0  0  0  0  0  0  0  0  0  0
  -12.2762  -15.8192   11.9550 C   0  0  0  0  0  0  0  0  0  0  0  0
  -12.2810  -17.2291   12.0226 N   0  0  0  0  0  0  0  0  0  0  0  0
  -12.5774  -17.9809   10.8040 C   0  0  0  0  0  0  0  0  0  0  0  0
  -12.1935  -19.4411   10.9079 C   0  0  0  0  0  0  0  0  0  0  0  0
  -12.0429  -17.8417   13.3235 C   0  0  0  0  0  0  0  0  0  0  0  0
  -11.8097  -19.3246   13.2878 C   0  0  0  0  0  0  0  0  0  0  0  0
  -12.4998  -20.0340   12.2125 N   0  0  0  0  0  0  0  0  0  0  0  0
  -12.1804  -21.4909   12.1538 C   0  0  0  0  0  0  0  0  0  0  0  0
  -13.0399  -22.2791   11.2054 C   0  0  0  0  0  0  0  0  0  0  0  0
  -14.4360  -22.2391   11.4408 C   0  0  0  0  0  0  0  0  0  0  0  0
  -15.3022  -22.9184   10.5947 C   0  0  0  0  0  0  0  0  0  0  0  0
  -14.7836  -23.6312    9.5239 C   0  0  0  0  0  0  0  0  0  0  0  0
  -13.4199  -23.7057    9.3059 C   0  0  0  0  0  0  0  0  0  0  0  0
  -12.5102  -23.0252   10.1361 C   0  0  0  0  0  0  0  0  0  0  0  0
  -11.1569  -23.1573    9.8032 C   0  0  0  0  0  0  0  0  0  0  0  0
  -10.4057  -24.2166   10.3027 C   0  0  0  0  0  0  0  0  0  0  0  0
   -9.0653  -24.3686    9.9509 C   0  0  0  0  0  0  0  0  0  0  0  0
  -10.5560  -22.2748    8.8992 C   0  0  0  0  0  0  0  0  0  0  0  0
   -9.2136  -22.4347    8.5449 C   0  0  0  0  0  0  0  0  0  0  0  0
   -8.4641  -23.4883    9.0671 C   0  0  0  0  0  0  0  0  0  0  0  0
   -6.7361  -23.6927    8.5918 Cl  0  0  0  0  0  0  0  0  0  0  0  0
  -12.2765   -9.4250   10.2282 S   0  0  0  0  0  0  0  0  0  0  0  0
  -13.0848   -8.6636   11.1301 O   0  0  0  0  0  0  0  0  0  0  0  0
  -12.6515   -9.1446    8.8601 O   0  0  0  0  0  0  0  0  0  0  0  0
   -8.9759   -7.8111   11.6465 C   0  0  0  0  0  0  0  0  0  0  0  0
   -7.9473   -8.3965   10.8705 C   0  0  0  0  0  0  0  0  0  0  0  0
   -8.3067   -9.3065    9.8624 C   0  0  0  0  0  0  0  0  0  0  0  0
   -9.6513   -9.6484    9.6389 C   0  0  0  0  0  0  0  0  0  0  0  0
  -10.3072   -8.1756   11.4182 C   0  0  0  0  0  0  0  0  0  0  0  0
  -10.6831   -9.1005   10.4355 C   0  0  0  0  0  0  0  0  0  0  0  0
   -9.0794   -7.0662   13.8827 O   0  0  0  0  0  0  0  0  0  0  0  0
   -8.7606   -6.8790   12.7018 N   0  0  0  0  0  0  0  0  0  0  0  0
   -8.2464   -5.8026   12.4262 O   0  0  0  0  0  0  0  0  0  0  0  0
   -6.6456   -7.9997   11.0673 N   0  0  0  0  0  0  0  0  0  0  0  0
   -6.3086   -7.2737   10.4941 H   0  0  0  0  0  0  0  0  0  0  0  0
   -5.7049   -8.5617   12.0596 C   0  0  0  0  0  0  0  0  0  0  0  0
   -4.4440   -9.0714   11.3326 C   0  0  0  0  0  0  0  0  0  0  0  0
   -3.7070   -7.8978   10.6798 C   0  0  0  0  0  0  0  0  0  0  0  0
   -3.2605   -8.2206    9.3011 N   0  0  0  0  0  0  0  0  0  0  0  0
   -2.1276   -9.1789    9.3805 C   0  0  0  0  0  0  0  0  0  0  0  0
   -4.3582   -8.7762    8.4711 C   0  0  0  0  0  0  0  0  0  0  0  0
   -6.3054   -9.7121   12.8984 C   0  0  0  0  0  0  0  0  0  0  0  0
   -5.5549  -11.2648   12.4801 S   0  0  0  0  0  0  0  0  0  0  0  0
   -6.5192  -12.1101   11.3528 C   0  0  0  0  0  0  0  0  0  0  0  0
   -7.7673  -12.6403   11.7281 C   0  0  0  0  0  0  0  0  0  0  0  0
   -8.5412  -13.3206   10.7894 C   0  0  0  0  0  0  0  0  0  0  0  0
   -8.0815  -13.4844    9.4810 C   0  0  0  0  0  0  0  0  0  0  0  0
   -6.8491  -12.9525    9.1071 C   0  0  0  0  0  0  0  0  0  0  0  0
   -6.0666  -12.2666   10.0412 C   0  0  0  0  0  0  0  0  0  0  0  0
 40 41  2  0  0  0
 41 42  1  0  0  0
 41 34  1  0  0  0
 34 38  2  0  0  0
 34 35  1  0  0  0
 35 43  1  0  0  0
 35 36  2  0  0  0
 43 45  1  0  0  0
 45 46  1  0  0  0
 45 51  1  0  0  0
 51 52  1  0  0  0
 52 53  1  0  0  0
 53 58  1  0  0  0
 53 54  2  0  0  0
 54 55  1  0  0  0
 55 56  2  0  0  0
 56 57  1  0  0  0
 57 58  2  0  0  0
 46 47  1  0  0  0
 47 48  1  0  0  0
 48 49  1  0  0  0
 48 50  1  0  0  0
 36 37  1  0  0  0
 37 39  2  0  0  0
 38 39  1  0  0  0
 39 31  1  0  0  0
 31 33  2  0  0  0
 31  1  1  0  0  0
 31 32  2  0  0  0
  1  2  1  0  0  0
  2  5  1  0  0  0
  2  3  2  0  0  0
  5  8  1  0  0  0
  5  6  2  0  0  0
  6  7  1  0  0  0
  7 10  2  0  0  0
  8  9  2  0  0  0
  9 10  1  0  0  0
 10 11  1  0  0  0
 11 14  1  0  0  0
 11 12  1  0  0  0
 12 13  1  0  0  0
 13 16  1  0  0  0
 14 15  1  0  0  0
 15 16  1  0  0  0
 16 17  1  0  0  0
 17 18  1  0  0  0
 18 23  2  0  0  0
 18 19  1  0  0  0
 19 20  2  0  0  0
 20 21  1  0  0  0
 21 22  2  0  0  0
 22 23  1  0  0  0
 23 24  1  0  0  0
 24 27  1  0  0  0
 24 25  2  0  0  0
 25 26  1  0  0  0
 26 29  2  0  0  0
 27 28  2  0  0  0
 28 29  1  0  0  0
 29 30  1  0  0  0
 43 44  1  0  0  0
  1  4  1  0  0  0
M  CHG 1  41   1
M  CHG 1  42  -1
M  END
> <minimizedAffinity>
-10.21325

$$$$
2YXJ_N3C_A_1001


 58 63  0  0  0  0  0  0  0  0999 V2000
  -11.3735  -10.8294   11.1132 N   0  0  0  0  0  0  0  0  0  0  0  0
  -12.3489  -11.4951   11.7617 C   0  0  0  0  0  0  0  0  0  0  0  0
  -13.2547  -10.9757   12.4064 O   0  0  0  0  0  0  0  0  0  0  0  0
  -10.7057  -11.3640   10.6257 H   0  0  0  0  0  0  0  0  0  0  0  0
  -12.3006  -12.9883   11.7996 C   0  0  0  0  0  0  0  0  0  0  0  0
  -13.1001  -13.7277   10.9269 C   0  0  0  0  0  0  0  0  0  0  0  0
  -13.1019  -15.1175   10.9839 C   0  0  0  0  0  0  0  0  0  0  0  0
  -11.5478  -13.6518   12.7502 C   0  0  0  0  0  0  0  0  0  0  0  0
  -11.5521  -15.0447   12.8167 C   0  0  0  0  0  0  0  0  0  0  0  0
  -12.3308  -15.8070   11.9406 C   0  0  0  0  0  0  0  0  0  0  0  0
  -12.3320  -17.2169   12.0072 N   0  0  0  0  0  0  0  0  0  0  0  0
  -12.6073  -17.9687   10.7835 C   0  0  0  0  0  0  0  0  0  0  0  0
  -12.2202  -19.4277   10.8922 C   0  0  0  0  0  0  0  0  0  0  0  0
  -12.1119  -17.8297   13.3111 C   0  0  0  0  0  0  0  0  0  0  0  0
  -11.8733  -19.3118   13.2779 C   0  0  0  0  0  0  0  0  0  0  0  0
  -12.5446  -20.0226   12.1916 N   0  0  0  0  0  0  0  0  0  0  0  0
  -12.2195  -21.4784   12.1368 C   0  0  0  0  0  0  0  0  0  0  0  0
  -13.1048  -22.2802   11.2241 C   0  0  0  0  0  0  0  0  0  0  0  0
  -14.4929  -22.2447   11.5037 C   0  0  0  0  0  0  0  0  0  0  0  0
  -15.3821  -22.9366   10.6925 C   0  0  0  0  0  0  0  0  0  0  0  0
  -14.8945  -23.6573    9.6127 C   0  0  0  0  0  0  0  0  0  0  0  0
  -13.5380  -23.7273    9.3517 C   0  0  0  0  0  0  0  0  0  0  0  0
  -12.6058  -23.0342   10.1457 C   0  0  0  0  0  0  0  0  0  0  0  0
  -11.2632  -23.1629    9.7709 C   0  0  0  0  0  0  0  0  0  0  0  0
  -10.6933  -22.2741    8.8645 C   0  0  0  0  0  0  0  0  0  0  0  0
   -9.3492  -22.3807    8.5104 C   0  0  0  0  0  0  0  0  0  0  0  0
  -10.4488  -24.1355   10.3607 C   0  0  0  0  0  0  0  0  0  0  0  0
   -9.1004  -24.2347   10.0069 C   0  0  0  0  0  0  0  0  0  0  0  0
   -8.5442  -23.3514    9.0822 C   0  0  0  0  0  0  0  0  0  0  0  0
   -6.7992  -23.4802    8.6437 Cl  0  0  0  0  0  0  0  0  0  0  0  0
  -11.2215   -9.2942   11.0749 S   0  0  0  0  0  0  0  0  0  0  0  0
  -11.5976   -8.7186   12.3294 O   0  0  0  0  0  0  0  0  0  0  0  0
  -12.0249   -8.7399   10.0079 O   0  0  0  0  0  0  0  0  0  0  0  0
   -7.5312   -7.9683   11.4409 C   0  0  0  0  0  0  0  0  0  0  0  0
   -6.8725   -8.4663   10.2914 C   0  0  0  0  0  0  0  0  0  0  0  0
   -7.6168   -9.2210    9.3695 C   0  0  0  0  0  0  0  0  0  0  0  0
   -8.9773   -9.4971    9.5878 C   0  0  0  0  0  0  0  0  0  0  0  0
   -8.8824   -8.2664   11.6473 C   0  0  0  0  0  0  0  0  0  0  0  0
   -9.6345   -9.0390   10.7530 C   0  0  0  0  0  0  0  0  0  0  0  0
   -6.4756   -6.0442   12.3065 O   0  0  0  0  0  0  0  0  0  0  0  0
   -6.9043   -7.1948   12.4594 N   0  0  0  0  0  0  0  0  0  0  0  0
   -6.7517   -7.7055   13.5617 O   0  0  0  0  0  0  0  0  0  0  0  0
   -5.5575   -8.1312   10.0698 N   0  0  0  0  0  0  0  0  0  0  0  0
   -5.3850   -7.3884    9.4472 H   0  0  0  0  0  0  0  0  0  0  0  0
   -4.3787   -8.7824   10.6795 C   0  0  0  0  0  0  0  0  0  0  0  0
   -3.3185   -9.0376    9.5891 C   0  0  0  0  0  0  0  0  0  0  0  0
   -1.9233   -8.7107   10.1303 C   0  0  0  0  0  0  0  0  0  0  0  0
   -0.9699   -8.3771    9.0421 N   0  0  0  0  0  0  0  0  0  0  0  0
    0.2313   -9.2406    9.1812 C   0  0  0  0  0  0  0  0  0  0  0  0
   -1.5755   -8.5366    7.6967 C   0  0  0  0  0  0  0  0  0  0  0  0
   -4.7066  -10.1156   11.3886 C   0  0  0  0  0  0  0  0  0  0  0  0
   -4.7645  -11.4571   10.2284 S   0  0  0  0  0  0  0  0  0  0  0  0
   -6.2389  -12.3062   10.3701 C   0  0  0  0  0  0  0  0  0  0  0  0
   -6.8707  -12.8456    9.2344 C   0  0  0  0  0  0  0  0  0  0  0  0
   -8.0703  -13.5413    9.3743 C   0  0  0  0  0  0  0  0  0  0  0  0
   -8.6517  -13.7000   10.6340 C   0  0  0  0  0  0  0  0  0  0  0  0
   -8.0221  -13.1728   11.7598 C   0  0  0  0  0  0  0  0  0  0  0  0
   -6.8173  -12.4752   11.6297 C   0  0  0  0  0  0  0  0  0  0  0  0
 40 41  2  0  0  0
 41 42  1  0  0  0
 41 34  1  0  0  0
 34 38  2  0  0  0
 34 35  1  0  0  0
 35 43  1  0  0  0
 35 36  2  0  0  0
 43 45  1  0  0  0
 45 46  1  0  0  0
 45 51  1  0  0  0
 51 52  1  0  0  0
 52 53  1  0  0  0
 53 58  1  0  0  0
 53 54  2  0  0  0
 54 55  1  0  0  0
 55 56  2  0  0  0
 56 57  1  0  0  0
 57 58  2  0  0  0
 46 47  1  0  0  0
 47 48  1  0  0  0
 48 49  1  0  0  0
 48 50  1  0  0  0
 36 37  1  0  0  0
 37 39  2  0  0  0
 38 39  1  0  0  0
 39 31  1  0  0  0
 31 33  2  0  0  0
 31  1  1  0  0  0
 31 32  2  0  0  0
  1  2  1  0  0  0
  2  5  1  0  0  0
  2  3  2  0  0  0
  5  8  1  0  0  0
  5  6  2  0  0  0
  6  7  1  0  0  0
  7 10  2  0  0  0
  8  9  2  0  0  0
  9 10  1  0  0  0
 10 11  1  0  0  0
 11 14  1  0  0  0
 11 12  1  0  0  0
 12 13  1  0  0  0
 13 16  1  0  0  0
 14 15  1  0  0  0
 15 16  1  0  0  0
 16 17  1  0  0  0
 17 18  1  0  0  0
 18 23  2  0  0  0
 18 19  1  0  0  0
 19 20  2  0  0  0
 20 21  1  0  0  0
 21 22  2  0  0  0
 22 23  1  0  0  0
 23 24  1  0  0  0
 24 27  1  0  0  0
 24 25  2  0  0  0
 25 26  1  0  0  0
 26 29  2  0  0  0
 27 28  2  0  0  0
 28 29  1  0  0  0
 29 30  1  0  0  0
 43 44  1  0  0  0
  1  4  1  0  0  0
M  CHG 1  41   1
M  CHG 1  42  -1
M  END
> <minimizedAffinity>
-9.96394

$$$$
2YXJ_N3C_A_1001


 58 63  0  0  0  0  0  0  0  0999 V2000
  -10.8414  -10.6490   11.3315 N   0  0  0  0  0  0  0  0  0  0  0  0
  -11.9987  -11.3014   11.1075 C   0  0  0  0  0  0  0  0  0  0  0  0
  -13.0658  -10.7723   10.8121 O   0  0  0  0  0  0  0  0  0  0  0  0
  -10.0509  -11.1910   11.5565 H   0  0  0  0  0  0  0  0  0  0  0  0
  -12.0457  -12.7800   11.3199 C   0  0  0  0  0  0  0  0  0  0  0  0
  -10.9224  -13.4426   11.8165 C   0  0  0  0  0  0  0  0  0  0  0  0
  -10.9352  -14.8246   11.9734 C   0  0  0  0  0  0  0  0  0  0  0  0
  -13.1520  -13.5180   10.9429 C   0  0  0  0  0  0  0  0  0  0  0  0
  -13.1670  -14.9045   11.0909 C   0  0  0  0  0  0  0  0  0  0  0  0
  -12.0603  -15.5880   11.6035 C   0  0  0  0  0  0  0  0  0  0  0  0
  -12.0779  -16.9911   11.7554 N   0  0  0  0  0  0  0  0  0  0  0  0
  -12.4825  -17.8076   10.6117 C   0  0  0  0  0  0  0  0  0  0  0  0
  -12.1104  -19.2658   10.7714 C   0  0  0  0  0  0  0  0  0  0  0  0
  -11.7426  -17.5308   13.0672 C   0  0  0  0  0  0  0  0  0  0  0  0
  -11.5325  -19.0171   13.1015 C   0  0  0  0  0  0  0  0  0  0  0  0
  -12.3172  -19.7758   12.1296 N   0  0  0  0  0  0  0  0  0  0  0  0
  -12.0226  -21.2391   12.1325 C   0  0  0  0  0  0  0  0  0  0  0  0
  -12.9476  -22.0621   11.2800 C   0  0  0  0  0  0  0  0  0  0  0  0
  -14.3277  -21.9776   11.5871 C   0  0  0  0  0  0  0  0  0  0  0  0
  -15.2516  -22.6859   10.8305 C   0  0  0  0  0  0  0  0  0  0  0  0
  -14.8061  -23.4712    9.7779 C   0  0  0  0  0  0  0  0  0  0  0  0
  -13.4580  -23.5884    9.4919 C   0  0  0  0  0  0  0  0  0  0  0  0
  -12.4915  -22.8809   10.2302 C   0  0  0  0  0  0  0  0  0  0  0  0
  -11.1612  -23.0621    9.8338 C   0  0  0  0  0  0  0  0  0  0  0  0
  -10.5862  -22.2249    8.8826 C   0  0  0  0  0  0  0  0  0  0  0  0
   -9.2533  -22.3832    8.5059 C   0  0  0  0  0  0  0  0  0  0  0  0
  -10.3618  -24.0345   10.4442 C   0  0  0  0  0  0  0  0  0  0  0  0
   -9.0245  -24.1855   10.0675 C   0  0  0  0  0  0  0  0  0  0  0  0
   -8.4637  -23.3541    9.0985 C   0  0  0  0  0  0  0  0  0  0  0  0
   -6.7326  -23.5493    8.6303 Cl  0  0  0  0  0  0  0  0  0  0  0  0
  -10.6584   -9.1182   11.2628 S   0  0  0  0  0  0  0  0  0  0  0  0
  -11.5012   -8.4662   12.2173 O   0  0  0  0  0  0  0  0  0  0  0  0
  -10.9484   -8.6406    9.9291 O   0  0  0  0  0  0  0  0  0  0  0  0
   -7.0118   -9.7517   12.6084 C   0  0  0  0  0  0  0  0  0  0  0  0
   -6.3194   -8.5572   12.2974 C   0  0  0  0  0  0  0  0  0  0  0  0
   -7.0265   -7.5202   11.6664 C   0  0  0  0  0  0  0  0  0  0  0  0
   -8.3830   -7.6667   11.3297 C   0  0  0  0  0  0  0  0  0  0  0  0
   -8.3582   -9.8835   12.2519 C   0  0  0  0  0  0  0  0  0  0  0  0
   -9.0732   -8.8710   11.5991 C   0  0  0  0  0  0  0  0  0  0  0  0
   -5.5169  -11.5710   12.7550 O   0  0  0  0  0  0  0  0  0  0  0  0
   -6.4242  -10.8844   13.2413 N   0  0  0  0  0  0  0  0  0  0  0  0
   -6.8583  -11.2258   14.3340 O   0  0  0  0  0  0  0  0  0  0  0  0
   -5.0099   -8.4149   12.6918 N   0  0  0  0  0  0  0  0  0  0  0  0
   -4.8411   -8.3338   13.6583 H   0  0  0  0  0  0  0  0  0  0  0  0
   -3.8318   -8.3723   11.7998 C   0  0  0  0  0  0  0  0  0  0  0  0
   -3.7900   -7.0103   11.0779 C   0  0  0  0  0  0  0  0  0  0  0  0
   -3.7349   -5.8757   12.1056 C   0  0  0  0  0  0  0  0  0  0  0  0
   -4.1610   -4.5782   11.5234 N   0  0  0  0  0  0  0  0  0  0  0  0
   -4.8766   -4.8415   10.2480 C   0  0  0  0  0  0  0  0  0  0  0  0
   -5.0176   -3.8001   12.4526 C   0  0  0  0  0  0  0  0  0  0  0  0
   -3.8118   -9.5038   10.7476 C   0  0  0  0  0  0  0  0  0  0  0  0
   -4.6526   -9.0101    9.2648 S   0  0  0  0  0  0  0  0  0  0  0  0
   -6.0250   -9.9909    9.0015 C   0  0  0  0  0  0  0  0  0  0  0  0
   -6.0378  -11.3363    9.4133 C   0  0  0  0  0  0  0  0  0  0  0  0
   -7.1718  -12.1167    9.1946 C   0  0  0  0  0  0  0  0  0  0  0  0
   -8.2922  -11.5726    8.5631 C   0  0  0  0  0  0  0  0  0  0  0  0
   -8.2827  -10.2380    8.1624 C   0  0  0  0  0  0  0  0  0  0  0  0
   -7.1505   -9.4467    8.3795 C   0  0  0  0  0  0  0  0  0  0  0  0
 40 41  2  0  0  0
 41 42  1  0  0  0
 41 34  1  0  0  0
 34 38  2  0  0  0
 34 35  1  0  0  0
 35 43  1  0  0  0
 35 36  2  0  0  0
 43 45  1  0  0  0
 45 46  1  0  0  0
 45 51  1  0  0  0
 51 52  1  0  0  0
 52 53  1  0  0  0
 53 58  1  0  0  0
 53 54  2  0  0  0
 54 55  1  0  0  0
 55 56  2  0  0  0
 56 57  1  0  0  0
 57 58  2  0  0  0
 46 47  1  0  0  0
 47 48  1  0  0  0
 48 49  1  0  0  0
 48 50  1  0  0  0
 36 37  1  0  0  0
 37 39  2  0  0  0
 38 39  1  0  0  0
 39 31  1  0  0  0
 31 33  2  0  0  0
 31  1  1  0  0  0
 31 32  2  0  0  0
  1  2  1  0  0  0
  2  5  1  0  0  0
  2  3  2  0  0  0
  5  8  1  0  0  0
  5  6  2  0  0  0
  6  7  1  0  0  0
  7 10  2  0  0  0
  8  9  2  0  0  0
  9 10  1  0  0  0
 10 11  1  0  0  0
 11 14  1  0  0  0
 11 12  1  0  0  0
 12 13  1  0  0  0
 13 16  1  0  0  0
 14 15  1  0  0  0
 15 16  1  0  0  0
 16 17  1  0  0  0
 17 18  1  0  0  0
 18 23  2  0  0  0
 18 19  1  0  0  0
 19 20  2  0  0  0
 20 21  1  0  0  0
 21 22  2  0  0  0
 22 23  1  0  0  0
 23 24  1  0  0  0
 24 27  1  0  0  0
 24 25  2  0  0  0
 25 26  1  0  0  0
 26 29  2  0  0  0
 27 28  2  0  0  0
 28 29  1  0  0  0
 29 30  1  0  0  0
 43 44  1  0  0  0
  1  4  1  0  0  0
M  CHG 1  41   1
M  CHG 1  42  -1
M  END
> <minimizedAffinity>
-9.44456

$$$$
2YXJ_N3C_A_1001


 58 63  0  0  0  0  0  0  0  0999 V2000
  -15.1462  -17.8867   11.8562 N   0  0  0  0  0  0  0  0  0  0  0  0
  -15.1823  -16.5493   12.0149 C   0  0  0  0  0  0  0  0  0  0  0  0
  -16.2019  -15.8691   12.0749 O   0  0  0  0  0  0  0  0  0  0  0  0
  -14.2611  -18.3169   11.8287 H   0  0  0  0  0  0  0  0  0  0  0  0
  -13.8952  -15.7896   12.0273 C   0  0  0  0  0  0  0  0  0  0  0  0
  -13.6542  -14.8553   13.0354 C   0  0  0  0  0  0  0  0  0  0  0  0
  -12.4821  -14.1062   13.0322 C   0  0  0  0  0  0  0  0  0  0  0  0
  -12.9781  -15.9274   11.0023 C   0  0  0  0  0  0  0  0  0  0  0  0
  -11.8052  -15.1733   10.9903 C   0  0  0  0  0  0  0  0  0  0  0  0
  -11.5336  -14.2445   11.9995 C   0  0  0  0  0  0  0  0  0  0  0  0
  -10.3447  -13.4839   11.9876 N   0  0  0  0  0  0  0  0  0  0  0  0
  -10.2332  -12.3567   12.9124 C   0  0  0  0  0  0  0  0  0  0  0  0
   -8.8105  -11.8647   13.0683 C   0  0  0  0  0  0  0  0  0  0  0  0
   -9.3254  -13.8427   11.0095 C   0  0  0  0  0  0  0  0  0  0  0  0
   -7.9969  -13.1721   11.2098 C   0  0  0  0  0  0  0  0  0  0  0  0
   -8.0597  -11.8411   11.8100 N   0  0  0  0  0  0  0  0  0  0  0  0
   -6.7198  -11.2382   12.0730 C   0  0  0  0  0  0  0  0  0  0  0  0
   -6.1420  -10.4750   10.9139 C   0  0  0  0  0  0  0  0  0  0  0  0
   -4.7806  -10.7241   10.6130 C   0  0  0  0  0  0  0  0  0  0  0  0
   -4.1777  -10.0798    9.5410 C   0  0  0  0  0  0  0  0  0  0  0  0
   -4.9230   -9.1956    8.7754 C   0  0  0  0  0  0  0  0  0  0  0  0
   -6.2429   -8.9186    9.0822 C   0  0  0  0  0  0  0  0  0  0  0  0
   -6.8917   -9.5566   10.1555 C   0  0  0  0  0  0  0  0  0  0  0  0
   -8.2337   -9.2121   10.3548 C   0  0  0  0  0  0  0  0  0  0  0  0
   -8.6044   -8.3978   11.4205 C   0  0  0  0  0  0  0  0  0  0  0  0
   -9.9358   -8.0285   11.6063 C   0  0  0  0  0  0  0  0  0  0  0  0
   -9.2153   -9.6121    9.4417 C   0  0  0  0  0  0  0  0  0  0  0  0
  -10.5477   -9.2343    9.6288 C   0  0  0  0  0  0  0  0  0  0  0  0
  -10.9116   -8.4346   10.7118 C   0  0  0  0  0  0  0  0  0  0  0  0
  -12.6323   -7.9418   10.9353 Cl  0  0  0  0  0  0  0  0  0  0  0  0
  -16.3844  -18.7967   11.7140 S   0  0  0  0  0  0  0  0  0  0  0  0
  -17.1361  -18.4472   10.5481 O   0  0  0  0  0  0  0  0  0  0  0  0
  -17.2144  -18.6975   12.8940 O   0  0  0  0  0  0  0  0  0  0  0  0
  -13.9060  -21.8350   12.0825 C   0  0  0  0  0  0  0  0  0  0  0  0
  -14.5693  -22.8998   11.4274 C   0  0  0  0  0  0  0  0  0  0  0  0
  -15.8192  -22.6464   10.8380 C   0  0  0  0  0  0  0  0  0  0  0  0
  -16.4121  -21.3745   10.9122 C   0  0  0  0  0  0  0  0  0  0  0  0
  -14.5196  -20.5800   12.1581 C   0  0  0  0  0  0  0  0  0  0  0  0
  -15.7766  -20.3148   11.5996 C   0  0  0  0  0  0  0  0  0  0  0  0
  -12.1653  -22.9997   13.1686 O   0  0  0  0  0  0  0  0  0  0  0  0
  -12.6403  -21.9462   12.7263 N   0  0  0  0  0  0  0  0  0  0  0  0
  -11.9786  -20.9275   12.8801 O   0  0  0  0  0  0  0  0  0  0  0  0
  -13.9414  -24.1179   11.3152 N   0  0  0  0  0  0  0  0  0  0  0  0
  -13.8580  -24.6545   12.1364 H   0  0  0  0  0  0  0  0  0  0  0  0
  -13.3798  -24.6969   10.0763 C   0  0  0  0  0  0  0  0  0  0  0  0
  -12.7421  -26.0637   10.3978 C   0  0  0  0  0  0  0  0  0  0  0  0
  -13.5372  -26.7639   11.5042 C   0  0  0  0  0  0  0  0  0  0  0  0
  -12.7143  -26.9941   12.7183 N   0  0  0  0  0  0  0  0  0  0  0  0
  -11.3683  -26.4041   12.4992 C   0  0  0  0  0  0  0  0  0  0  0  0
  -13.3418  -26.4267   13.9377 C   0  0  0  0  0  0  0  0  0  0  0  0
  -12.3267  -23.7948    9.3945 C   0  0  0  0  0  0  0  0  0  0  0  0
  -10.8907  -24.7292    8.9319 S   0  0  0  0  0  0  0  0  0  0  0  0
   -9.4743  -23.9768    9.5173 C   0  0  0  0  0  0  0  0  0  0  0  0
   -9.4344  -23.4254   10.8111 C   0  0  0  0  0  0  0  0  0  0  0  0
   -8.2651  -22.8222   11.2712 C   0  0  0  0  0  0  0  0  0  0  0  0
   -7.1356  -22.7562   10.4526 C   0  0  0  0  0  0  0  0  0  0  0  0
   -7.1724  -23.3093    9.1741 C   0  0  0  0  0  0  0  0  0  0  0  0
   -8.3402  -23.9184    8.7047 C   0  0  0  0  0  0  0  0  0  0  0  0
 40 41  2  0  0  0
 41 42  1  0  0  0
 41 34  1  0  0  0
 34 38  2  0  0  0
 34 35  1  0  0  0
 35 43  1  0  0  0
 35 36  2  0  0  0
 43 45  1  0  0  0
 45 46  1  0  0  0
 45 51  1  0  0  0
 51 52  1  0  0  0
 52 53  1  0  0  0
 53 58  1  0  0  0
 53 54  2  0  0  0
 54 55  1  0  0  0
 55 56  2  0  0  0
 56 57  1  0  0  0
 57 58  2  0  0  0
 46 47  1  0  0  0
 47 48  1  0  0  0
 48 49  1  0  0  0
 48 50  1  0  0  0
 36 37  1  0  0  0
 37 39  2  0  0  0
 38 39  1  0  0  0
 39 31  1  0  0  0
 31 33  2  0  0  0
 31  1  1  0  0  0
 31 32  2  0  0  0
  1  2  1  0  0  0
  2  5  1  0  0  0
  2  3  2  0  0  0
  5  8  1  0  0  0
  5  6  2  0  0  0
  6  7  1  0  0  0
  7 10  2  0  0  0
  8  9  2  0  0  0
  9 10  1  0  0  0
 10 11  1  0  0  0
 11 14  1  0  0  0
 11 12  1  0  0  0
 12 13  1  0  0  0
 13 16  1  0  0  0
 14 15  1  0  0  0
 15 16  1  0  0  0
 16 17  1  0  0  0
 17 18  1  0  0  0
 18 23  2  0  0  0
 18 19  1  0  0  0
 19 20  2  0  0  0
 20 21  1  0  0  0
 21 22  2  0  0  0
 22 23  1  0  0  0
 23 24  1  0  0  0
 24 27  1  0  0  0
 24 25  2  0  0  0
 25 26  1  0  0  0
 26 29  2  0  0  0
 27 28  2  0  0  0
 28 29  1  0  0  0
 29 30  1  0  0  0
 43 44  1  0  0  0
  1  4  1  0  0  0
M  CHG 1  41   1
M  CHG 1  42  -1
M  END
> <minimizedAffinity>
-9.14680

$$$$
2YXJ_N3C_A_1001


 58 63  0  0  0  0  0  0  0  0999 V2000
  -11.9600  -11.0356   10.4894 N   0  0  0  0  0  0  0  0  0  0  0  0
  -11.6641  -11.6353   11.6590 C   0  0  0  0  0  0  0  0  0  0  0  0
  -11.1867  -11.0769   12.6419 O   0  0  0  0  0  0  0  0  0  0  0  0
  -12.3453  -11.5952    9.7770 H   0  0  0  0  0  0  0  0  0  0  0  0
  -11.8289  -13.1165   11.7718 C   0  0  0  0  0  0  0  0  0  0  0  0
  -10.9409  -13.8524   12.5574 C   0  0  0  0  0  0  0  0  0  0  0  0
  -11.0524  -15.2369   12.6330 C   0  0  0  0  0  0  0  0  0  0  0  0
  -12.7891  -13.7835   11.0345 C   0  0  0  0  0  0  0  0  0  0  0  0
  -12.9001  -15.1720   11.1006 C   0  0  0  0  0  0  0  0  0  0  0  0
  -12.0335  -15.9286   11.8953 C   0  0  0  0  0  0  0  0  0  0  0  0
  -12.1488  -17.3337   11.9635 N   0  0  0  0  0  0  0  0  0  0  0  0
  -11.2831  -18.0563   12.8944 C   0  0  0  0  0  0  0  0  0  0  0  0
  -11.7467  -19.4749   13.1454 C   0  0  0  0  0  0  0  0  0  0  0  0
  -13.0903  -17.9770   11.0556 C   0  0  0  0  0  0  0  0  0  0  0  0
  -13.3532  -19.4268   11.3448 C   0  0  0  0  0  0  0  0  0  0  0  0
  -12.2329  -20.1522   11.9402 N   0  0  0  0  0  0  0  0  0  0  0  0
  -12.5540  -21.5667   12.2927 C   0  0  0  0  0  0  0  0  0  0  0  0
  -13.3562  -22.3003   11.2545 C   0  0  0  0  0  0  0  0  0  0  0  0
  -14.7579  -22.3389   11.4543 C   0  0  0  0  0  0  0  0  0  0  0  0
  -15.5737  -22.9738   10.5275 C   0  0  0  0  0  0  0  0  0  0  0  0
  -14.9999  -23.5650    9.4119 C   0  0  0  0  0  0  0  0  0  0  0  0
  -13.6294  -23.5637    9.2254 C   0  0  0  0  0  0  0  0  0  0  0  0
  -12.7698  -22.9244   10.1377 C   0  0  0  0  0  0  0  0  0  0  0  0
  -11.4046  -22.9704    9.8315 C   0  0  0  0  0  0  0  0  0  0  0  0
  -10.6091  -24.0115   10.3002 C   0  0  0  0  0  0  0  0  0  0  0  0
   -9.2554  -24.0771    9.9738 C   0  0  0  0  0  0  0  0  0  0  0  0
  -10.8320  -22.0168    8.9829 C   0  0  0  0  0  0  0  0  0  0  0  0
   -9.4758  -22.0901    8.6538 C   0  0  0  0  0  0  0  0  0  0  0  0
   -8.6829  -23.1266    9.1454 C   0  0  0  0  0  0  0  0  0  0  0  0
   -6.9367  -23.2187    8.7026 Cl  0  0  0  0  0  0  0  0  0  0  0  0
  -11.7419   -9.5396   10.1796 S   0  0  0  0  0  0  0  0  0  0  0  0
  -12.1604   -8.7299   11.2823 O   0  0  0  0  0  0  0  0  0  0  0  0
  -12.4631   -9.1679    8.9826 O   0  0  0  0  0  0  0  0  0  0  0  0
   -7.9469   -8.6747   10.7794 C   0  0  0  0  0  0  0  0  0  0  0  0
   -7.3158   -9.0425    9.5672 C   0  0  0  0  0  0  0  0  0  0  0  0
   -8.1110   -9.5565    8.5293 C   0  0  0  0  0  0  0  0  0  0  0  0
   -9.4968   -9.7244    8.6917 C   0  0  0  0  0  0  0  0  0  0  0  0
   -9.3254   -8.8632   10.9264 C   0  0  0  0  0  0  0  0  0  0  0  0
  -10.1307   -9.3984    9.9128 C   0  0  0  0  0  0  0  0  0  0  0  0
   -6.6770   -7.0597   11.9391 O   0  0  0  0  0  0  0  0  0  0  0  0
   -7.2688   -8.1461   11.9149 N   0  0  0  0  0  0  0  0  0  0  0  0
   -7.2428   -8.8188   12.9376 O   0  0  0  0  0  0  0  0  0  0  0  0
   -5.9694   -8.8116    9.4111 N   0  0  0  0  0  0  0  0  0  0  0  0
   -5.6988   -7.8975    9.1652 H   0  0  0  0  0  0  0  0  0  0  0  0
   -4.8902   -9.8079    9.5781 C   0  0  0  0  0  0  0  0  0  0  0  0
   -5.3432  -10.8835   10.5861 C   0  0  0  0  0  0  0  0  0  0  0  0
   -5.8834  -12.1062    9.8379 C   0  0  0  0  0  0  0  0  0  0  0  0
   -7.1851  -12.5625   10.3870 N   0  0  0  0  0  0  0  0  0  0  0  0
   -7.8256  -13.4700    9.3999 C   0  0  0  0  0  0  0  0  0  0  0  0
   -7.0347  -13.2395   11.6990 C   0  0  0  0  0  0  0  0  0  0  0  0
   -3.5536   -9.1974   10.0559 C   0  0  0  0  0  0  0  0  0  0  0  0
   -2.5534   -8.6962    8.6784 S   0  0  0  0  0  0  0  0  0  0  0  0
   -0.9129   -8.5880    9.1392 C   0  0  0  0  0  0  0  0  0  0  0  0
    0.0793   -8.2612    8.1967 C   0  0  0  0  0  0  0  0  0  0  0  0
    1.4115   -8.1713    8.5965 C   0  0  0  0  0  0  0  0  0  0  0  0
    1.7673   -8.4104    9.9255 C   0  0  0  0  0  0  0  0  0  0  0  0
    0.7838   -8.7262   10.8608 C   0  0  0  0  0  0  0  0  0  0  0  0
   -0.5556   -8.8166   10.4695 C   0  0  0  0  0  0  0  0  0  0  0  0
 40 41  2  0  0  0
 41 42  1  0  0  0
 41 34  1  0  0  0
 34 38  2  0  0  0
 34 35  1  0  0  0
 35 43  1  0  0  0
 35 36  2  0  0  0
 43 45  1  0  0  0
 45 46  1  0  0  0
 45 51  1  0  0  0
 51 52  1  0  0  0
 52 53  1  0  0  0
 53 58  1  0  0  0
 53 54  2  0  0  0
 54 55  1  0  0  0
 55 56  2  0  0  0
 56 57  1  0  0  0
 57 58  2  0  0  0
 46 47  1  0  0  0
 47 48  1  0  0  0
 48 49  1  0  0  0
 48 50  1  0  0  0
 36 37  1  0  0  0
 37 39  2  0  0  0
 38 39  1  0  0  0
 39 31  1  0  0  0
 31 33  2  0  0  0
 31  1  1  0  0  0
 31 32  2  0  0  0
  1  2  1  0  0  0
  2  5  1  0  0  0
  2  3  2  0  0  0
  5  8  1  0  0  0
  5  6  2  0  0  0
  6  7  1  0  0  0
  7 10  2  0  0  0
  8  9  2  0  0  0
  9 10  1  0  0  0
 10 11  1  0  0  0
 11 14  1  0  0  0
 11 12  1  0  0  0
 12 13  1  0  0  0
 13 16  1  0  0  0
 14 15  1  0  0  0
 15 16  1  0  0  0
 16 17  1  0  0  0
 17 18  1  0  0  0
 18 23  2  0  0  0
 18 19  1  0  0  0
 19 20  2  0  0  0
 20 21  1  0  0  0
 21 22  2  0  0  0
 22 23  1  0  0  0
 23 24  1  0  0  0
 24 27  1  0  0  0
 24 25  2  0  0  0
 25 26  1  0  0  0
 26 29  2  0  0  0
 27 28  2  0  0  0
 28 29  1  0  0  0
 29 30  1  0  0  0
 43 44  1  0  0  0
  1  4  1  0  0  0
M  CHG 1  41   1
M  CHG 1  42  -1
M  END
> <minimizedAffinity>
-9.13857

$$$$
2YXJ_N3C_A_1001


 58 63  0  0  0  0  0  0  0  0999 V2000
  -10.3308  -11.3610   13.3894 N   0  0  0  0  0  0  0  0  0  0  0  0
  -11.5468  -11.9212   13.2387 C   0  0  0  0  0  0  0  0  0  0  0  0
  -12.6130  -11.3137   13.2404 O   0  0  0  0  0  0  0  0  0  0  0  0
   -9.5491  -11.9590   13.3641 H   0  0  0  0  0  0  0  0  0  0  0  0
  -11.6496  -13.4099   13.1558 C   0  0  0  0  0  0  0  0  0  0  0  0
  -10.8456  -14.1086   12.2542 C   0  0  0  0  0  0  0  0  0  0  0  0
  -10.9650  -15.4890   12.1315 C   0  0  0  0  0  0  0  0  0  0  0  0
  -12.5963  -14.0995   13.8897 C   0  0  0  0  0  0  0  0  0  0  0  0
  -12.7254  -15.4823   13.7647 C   0  0  0  0  0  0  0  0  0  0  0  0
  -11.9182  -16.2060   12.8816 C   0  0  0  0  0  0  0  0  0  0  0  0
  -12.0480  -17.6060   12.7581 N   0  0  0  0  0  0  0  0  0  0  0  0
  -12.0482  -18.1869   11.4162 C   0  0  0  0  0  0  0  0  0  0  0  0
  -11.8198  -19.6829   11.4248 C   0  0  0  0  0  0  0  0  0  0  0  0
  -12.2294  -18.3761   13.9823 C   0  0  0  0  0  0  0  0  0  0  0  0
  -12.1081  -19.8632   13.8143 C   0  0  0  0  0  0  0  0  0  0  0  0
  -12.5220  -20.3745   12.5093 N   0  0  0  0  0  0  0  0  0  0  0  0
  -12.3097  -21.8430   12.3459 C   0  0  0  0  0  0  0  0  0  0  0  0
  -13.1568  -22.4798   11.2798 C   0  0  0  0  0  0  0  0  0  0  0  0
  -14.5571  -22.4549   11.4909 C   0  0  0  0  0  0  0  0  0  0  0  0
  -15.4119  -22.9981   10.5413 C   0  0  0  0  0  0  0  0  0  0  0  0
  -14.8779  -23.5611    9.3918 C   0  0  0  0  0  0  0  0  0  0  0  0
  -13.5106  -23.6222    9.1924 C   0  0  0  0  0  0  0  0  0  0  0  0
  -12.6120  -23.0761   10.1273 C   0  0  0  0  0  0  0  0  0  0  0  0
  -11.2533  -23.1780    9.8060 C   0  0  0  0  0  0  0  0  0  0  0  0
  -10.5090  -24.2784   10.2201 C   0  0  0  0  0  0  0  0  0  0  0  0
   -9.1629  -24.3983    9.8779 C   0  0  0  0  0  0  0  0  0  0  0  0
  -10.6388  -22.2179    8.9950 C   0  0  0  0  0  0  0  0  0  0  0  0
   -9.2907  -22.3455    8.6497 C   0  0  0  0  0  0  0  0  0  0  0  0
   -8.5485  -23.4422    9.0870 C   0  0  0  0  0  0  0  0  0  0  0  0
   -6.8128  -23.6034    8.6234 Cl  0  0  0  0  0  0  0  0  0  0  0  0
  -10.0678   -9.8548   13.5985 S   0  0  0  0  0  0  0  0  0  0  0  0
  -10.3505   -9.4761   14.9488 O   0  0  0  0  0  0  0  0  0  0  0  0
  -10.8699   -9.0764   12.6811 O   0  0  0  0  0  0  0  0  0  0  0  0
   -6.3883  -10.6872   12.4679 C   0  0  0  0  0  0  0  0  0  0  0  0
   -5.6942   -9.4649   12.6332 C   0  0  0  0  0  0  0  0  0  0  0  0
   -6.4004   -8.3579   13.1326 C   0  0  0  0  0  0  0  0  0  0  0  0
   -7.7682   -8.4491   13.4422 C   0  0  0  0  0  0  0  0  0  0  0  0
   -7.7531  -10.7535   12.7681 C   0  0  0  0  0  0  0  0  0  0  0  0
   -8.4804   -9.6541   13.2421 C   0  0  0  0  0  0  0  0  0  0  0  0
   -5.6389  -12.9182   12.6322 O   0  0  0  0  0  0  0  0  0  0  0  0
   -5.8041  -11.8866   11.9691 N   0  0  0  0  0  0  0  0  0  0  0  0
   -5.4115  -11.8995   10.8095 O   0  0  0  0  0  0  0  0  0  0  0  0
   -4.3432   -9.4175   12.3816 N   0  0  0  0  0  0  0  0  0  0  0  0
   -3.7434   -9.6988   13.1099 H   0  0  0  0  0  0  0  0  0  0  0  0
   -3.7075   -8.9837   11.1195 C   0  0  0  0  0  0  0  0  0  0  0  0
   -2.5102   -8.0670   11.4424 C   0  0  0  0  0  0  0  0  0  0  0  0
   -2.7548   -7.3349   12.7656 C   0  0  0  0  0  0  0  0  0  0  0  0
   -2.0575   -6.0250   12.8122 N   0  0  0  0  0  0  0  0  0  0  0  0
   -0.6121   -6.2643   13.0604 C   0  0  0  0  0  0  0  0  0  0  0  0
   -2.2515   -5.2411   11.5671 C   0  0  0  0  0  0  0  0  0  0  0  0
   -4.6703   -8.2417   10.1655 C   0  0  0  0  0  0  0  0  0  0  0  0
   -5.0411   -9.2298    8.7388 S   0  0  0  0  0  0  0  0  0  0  0  0
   -6.7297   -9.3953    8.5491 C   0  0  0  0  0  0  0  0  0  0  0  0
   -7.2755   -9.8665    7.3409 C   0  0  0  0  0  0  0  0  0  0  0  0
   -8.6567  -10.0005    7.2105 C   0  0  0  0  0  0  0  0  0  0  0  0
   -9.5017   -9.6633    8.2699 C   0  0  0  0  0  0  0  0  0  0  0  0
   -8.9611   -9.2041    9.4693 C   0  0  0  0  0  0  0  0  0  0  0  0
   -7.5765   -9.0684    9.6102 C   0  0  0  0  0  0  0  0  0  0  0  0
 40 41  2  0  0  0
 41 42  1  0  0  0
 41 34  1  0  0  0
 34 38  2  0  0  0
 34 35  1  0  0  0
 35 43  1  0  0  0
 35 36  2  0  0  0
 43 45  1  0  0  0
 45 46  1  0  0  0
 45 51  1  0  0  0
 51 52  1  0  0  0
 52 53  1  0  0  0
 53 58  1  0  0  0
 53 54  2  0  0  0
 54 55  1  0  0  0
 55 56  2  0  0  0
 56 57  1  0  0  0
 57 58  2  0  0  0
 46 47  1  0  0  0
 47 48  1  0  0  0
 48 49  1  0  0  0
 48 50  1  0  0  0
 36 37  1  0  0  0
 37 39  2  0  0  0
 38 39  1  0  0  0
 39 31  1  0  0  0
 31 33  2  0  0  0
 31  1  1  0  0  0
 31 32  2  0  0  0
  1  2  1  0  0  0
  2  5  1  0  0  0
  2  3  2  0  0  0
  5  8  1  0  0  0
  5  6  2  0  0  0
  6  7  1  0  0  0
  7 10  2  0  0  0
  8  9  2  0  0  0
  9 10  1  0  0  0
 10 11  1  0  0  0
 11 14  1  0  0  0
 11 12  1  0  0  0
 12 13  1  0  0  0
 13 16  1  0  0  0
 14 15  1  0  0  0
 15 16  1  0  0  0
 16 17  1  0  0  0
 17 18  1  0  0  0
 18 23  2  0  0  0
 18 19  1  0  0  0
 19 20  2  0  0  0
 20 21  1  0  0  0
 21 22  2  0  0  0
 22 23  1  0  0  0
 23 24  1  0  0  0
 24 27  1  0  0  0
 24 25  2  0  0  0
 25 26  1  0  0  0
 26 29  2  0  0  0
 27 28  2  0  0  0
 28 29  1  0  0  0
 29 30  1  0  0  0
 43 44  1  0  0  0
  1  4  1  0  0  0
M  CHG 1  41   1
M  CHG 1  42  -1
M  END
> <minimizedAffinity>
-9.10297

$$$$
2YXJ_N3C_A_1001


 58 63  0  0  0  0  0  0  0  0999 V2000
  -16.0376  -17.6084   12.0070 N   0  0  0  0  0  0  0  0  0  0  0  0
  -16.2142  -16.3862   12.5458 C   0  0  0  0  0  0  0  0  0  0  0  0
  -17.1882  -16.0351   13.2044 O   0  0  0  0  0  0  0  0  0  0  0  0
  -15.2069  -17.7665   11.5029 H   0  0  0  0  0  0  0  0  0  0  0  0
  -15.2079  -15.3192   12.2584 C   0  0  0  0  0  0  0  0  0  0  0  0
  -15.5408  -13.9807   12.4703 C   0  0  0  0  0  0  0  0  0  0  0  0
  -14.6317  -12.9741   12.1614 C   0  0  0  0  0  0  0  0  0  0  0  0
  -13.9842  -15.6287   11.6951 C   0  0  0  0  0  0  0  0  0  0  0  0
  -13.0724  -14.6229   11.3763 C   0  0  0  0  0  0  0  0  0  0  0  0
  -13.3765  -13.2762   11.5970 C   0  0  0  0  0  0  0  0  0  0  0  0
  -12.4516  -12.2593   11.2764 N   0  0  0  0  0  0  0  0  0  0  0  0
  -12.9552  -11.0329   10.6597 C   0  0  0  0  0  0  0  0  0  0  0  0
  -11.9542   -9.8988   10.7072 C   0  0  0  0  0  0  0  0  0  0  0  0
  -11.0418  -12.5258   11.5334 C   0  0  0  0  0  0  0  0  0  0  0  0
  -10.1427  -11.3295   11.4121 C   0  0  0  0  0  0  0  0  0  0  0  0
  -10.5768  -10.3245   10.4440 N   0  0  0  0  0  0  0  0  0  0  0  0
   -9.7081   -9.1111   10.4090 C   0  0  0  0  0  0  0  0  0  0  0  0
   -8.4762   -9.2516    9.5590 C   0  0  0  0  0  0  0  0  0  0  0  0
   -8.6720   -9.7400    8.2440 C   0  0  0  0  0  0  0  0  0  0  0  0
   -7.5893   -9.8743    7.3853 C   0  0  0  0  0  0  0  0  0  0  0  0
   -6.3232   -9.5257    7.8312 C   0  0  0  0  0  0  0  0  0  0  0  0
   -6.1162   -9.0813    9.1245 C   0  0  0  0  0  0  0  0  0  0  0  0
   -7.1882   -8.9244   10.0222 C   0  0  0  0  0  0  0  0  0  0  0  0
   -6.8583   -8.4465   11.2959 C   0  0  0  0  0  0  0  0  0  0  0  0
   -6.8006   -7.0788   11.5453 C   0  0  0  0  0  0  0  0  0  0  0  0
   -6.5010   -6.5983   12.8192 C   0  0  0  0  0  0  0  0  0  0  0  0
   -6.6605   -9.3325   12.3604 C   0  0  0  0  0  0  0  0  0  0  0  0
   -6.3662   -8.8459   13.6370 C   0  0  0  0  0  0  0  0  0  0  0  0
   -6.2909   -7.4733   13.8715 C   0  0  0  0  0  0  0  0  0  0  0  0
   -5.9240   -6.8567   15.5265 Cl  0  0  0  0  0  0  0  0  0  0  0  0
  -17.0362  -18.7796   12.1185 S   0  0  0  0  0  0  0  0  0  0  0  0
  -18.0769  -18.6496   11.1456 O   0  0  0  0  0  0  0  0  0  0  0  0
  -17.5982  -18.8308   13.4499 O   0  0  0  0  0  0  0  0  0  0  0  0
  -14.0736  -21.3634   12.3575 C   0  0  0  0  0  0  0  0  0  0  0  0
  -14.4371  -22.3865   11.4497 C   0  0  0  0  0  0  0  0  0  0  0  0
  -15.6358  -22.2466   10.7307 C   0  0  0  0  0  0  0  0  0  0  0  0
  -16.4693  -21.1310   10.9192 C   0  0  0  0  0  0  0  0  0  0  0  0
  -14.9241  -20.2679   12.5416 C   0  0  0  0  0  0  0  0  0  0  0  0
  -16.1357  -20.1235   11.8535 C   0  0  0  0  0  0  0  0  0  0  0  0
  -11.9731  -20.5513   13.0605 O   0  0  0  0  0  0  0  0  0  0  0  0
  -12.8934  -21.3730   13.1549 N   0  0  0  0  0  0  0  0  0  0  0  0
  -12.7595  -22.2691   13.9784 O   0  0  0  0  0  0  0  0  0  0  0  0
  -13.5756  -23.4370   11.2379 N   0  0  0  0  0  0  0  0  0  0  0  0
  -13.1271  -23.8132   12.0295 H   0  0  0  0  0  0  0  0  0  0  0  0
  -13.2600  -24.0543    9.9322 C   0  0  0  0  0  0  0  0  0  0  0  0
  -12.3362  -25.2689   10.1544 C   0  0  0  0  0  0  0  0  0  0  0  0
  -13.1731  -26.5075   10.4893 C   0  0  0  0  0  0  0  0  0  0  0  0
  -12.8248  -27.0699   11.8184 N   0  0  0  0  0  0  0  0  0  0  0  0
  -11.6145  -26.3738   12.3269 C   0  0  0  0  0  0  0  0  0  0  0  0
  -13.9420  -26.9518   12.7882 C   0  0  0  0  0  0  0  0  0  0  0  0
  -12.5886  -23.0832    8.9354 C   0  0  0  0  0  0  0  0  0  0  0  0
  -11.5301  -21.9353    9.7788 S   0  0  0  0  0  0  0  0  0  0  0  0
   -9.9158  -22.4912    9.7665 C   0  0  0  0  0  0  0  0  0  0  0  0
   -9.2920  -22.9165   10.9538 C   0  0  0  0  0  0  0  0  0  0  0  0
   -7.9757  -23.3732   10.9193 C   0  0  0  0  0  0  0  0  0  0  0  0
   -7.2707  -23.4047    9.7142 C   0  0  0  0  0  0  0  0  0  0  0  0
   -7.8909  -22.9911    8.5369 C   0  0  0  0  0  0  0  0  0  0  0  0
   -9.2119  -22.5333    8.5613 C   0  0  0  0  0  0  0  0  0  0  0  0
 40 41  2  0  0  0
 41 42  1  0  0  0
 41 34  1  0  0  0
 34 38  2  0  0  0
 34 35  1  0  0  0
 35 43  1  0  0  0
 35 36  2  0  0  0
 43 45  1  0  0  0
 45 46  1  0  0  0
 45 51  1  0  0  0
 51 52  1  0  0  0
 52 53  1  0  0  0
 53 58  1  0  0  0
 53 54  2  0  0  0
 54 55  1  0  0  0
 55 56  2  0  0  0
 56 57  1  0  0  0
 57 58  2  0  0  0
 46 47  1  0  0  0
 47 48  1  0  0  0
 48 49  1  0  0  0
 48 50  1  0  0  0
 36 37  1  0  0  0
 37 39  2  0  0  0
 38 39  1  0  0  0
 39 31  1  0  0  0
 31 33  2  0  0  0
 31  1  1  0  0  0
 31 32  2  0  0  0
  1  2  1  0  0  0
  2  5  1  0  0  0
  2  3  2  0  0  0
  5  8  1  0  0  0
  5  6  2  0  0  0
  6  7  1  0  0  0
  7 10  2  0  0  0
  8  9  2  0  0  0
  9 10  1  0  0  0
 10 11  1  0  0  0
 11 14  1  0  0  0
 11 12  1  0  0  0
 12 13  1  0  0  0
 13 16  1  0  0  0
 14 15  1  0  0  0
 15 16  1  0  0  0
 16 17  1  0  0  0
 17 18  1  0  0  0
 18 23  2  0  0  0
 18 19  1  0  0  0
 19 20  2  0  0  0
 20 21  1  0  0  0
 21 22  2  0  0  0
 22 23  1  0  0  0
 23 24  1  0  0  0
 24 27  1  0  0  0
 24 25  2  0  0  0
 25 26  1  0  0  0
 26 29  2  0  0  0
 27 28  2  0  0  0
 28 29  1  0  0  0
 29 30  1  0  0  0
 43 44  1  0  0  0
  1  4  1  0  0  0
M  CHG 1  41   1
M  CHG 1  42  -1
M  END
> <minimizedAffinity>
-8.72537

$$$$
2YXJ_N3C_A_1001


 58 63  0  0  0  0  0  0  0  0999 V2000
  -12.5461  -13.8252   11.4065 N   0  0  0  0  0  0  0  0  0  0  0  0
  -11.4556  -13.7347   12.1925 C   0  0  0  0  0  0  0  0  0  0  0  0
  -11.3779  -14.1413   13.3478 O   0  0  0  0  0  0  0  0  0  0  0  0
  -12.4784  -13.4642   10.4931 H   0  0  0  0  0  0  0  0  0  0  0  0
  -10.2575  -13.0016   11.6820 C   0  0  0  0  0  0  0  0  0  0  0  0
  -10.1784  -11.6167   11.8342 C   0  0  0  0  0  0  0  0  0  0  0  0
   -9.0923  -10.9152   11.3210 C   0  0  0  0  0  0  0  0  0  0  0  0
   -9.2684  -13.6599   10.9755 C   0  0  0  0  0  0  0  0  0  0  0  0
   -8.1816  -12.9603   10.4523 C   0  0  0  0  0  0  0  0  0  0  0  0
   -8.0715  -11.5752   10.6084 C   0  0  0  0  0  0  0  0  0  0  0  0
   -6.9694  -10.8688   10.0807 N   0  0  0  0  0  0  0  0  0  0  0  0
   -5.6408  -11.1514   10.6220 C   0  0  0  0  0  0  0  0  0  0  0  0
   -4.5259  -10.6249    9.7443 C   0  0  0  0  0  0  0  0  0  0  0  0
   -7.2404   -9.8598    9.0643 C   0  0  0  0  0  0  0  0  0  0  0  0
   -6.0227   -9.3269    8.3659 C   0  0  0  0  0  0  0  0  0  0  0  0
   -4.8056   -9.3040    9.1747 N   0  0  0  0  0  0  0  0  0  0  0  0
   -3.5969   -8.8490    8.4262 C   0  0  0  0  0  0  0  0  0  0  0  0
   -2.4221   -8.4972    9.2956 C   0  0  0  0  0  0  0  0  0  0  0  0
   -1.3143   -9.3782    9.2423 C   0  0  0  0  0  0  0  0  0  0  0  0
   -0.1784   -9.1109    9.9946 C   0  0  0  0  0  0  0  0  0  0  0  0
   -0.1452   -7.9772   10.7927 C   0  0  0  0  0  0  0  0  0  0  0  0
   -1.2347   -7.1295   10.8789 C   0  0  0  0  0  0  0  0  0  0  0  0
   -2.4009   -7.3617   10.1267 C   0  0  0  0  0  0  0  0  0  0  0  0
   -3.4282   -6.4232   10.2801 C   0  0  0  0  0  0  0  0  0  0  0  0
   -4.3781   -6.5722   11.2859 C   0  0  0  0  0  0  0  0  0  0  0  0
   -5.3859   -5.6251   11.4608 C   0  0  0  0  0  0  0  0  0  0  0  0
   -3.4721   -5.2773    9.4788 C   0  0  0  0  0  0  0  0  0  0  0  0
   -4.4809   -4.3276    9.6618 C   0  0  0  0  0  0  0  0  0  0  0  0
   -5.4400   -4.4968   10.6599 C   0  0  0  0  0  0  0  0  0  0  0  0
   -6.7292   -3.2574   10.8958 Cl  0  0  0  0  0  0  0  0  0  0  0  0
  -13.8928  -14.4507   11.8265 S   0  0  0  0  0  0  0  0  0  0  0  0
  -14.9174  -14.1223   10.8837 O   0  0  0  0  0  0  0  0  0  0  0  0
  -14.2633  -13.9960   13.1483 O   0  0  0  0  0  0  0  0  0  0  0  0
  -13.8342  -18.1756   13.1040 C   0  0  0  0  0  0  0  0  0  0  0  0
  -13.1407  -18.8755   12.0880 C   0  0  0  0  0  0  0  0  0  0  0  0
  -12.6629  -18.1500   10.9839 C   0  0  0  0  0  0  0  0  0  0  0  0
  -12.8836  -16.7665   10.8739 C   0  0  0  0  0  0  0  0  0  0  0  0
  -14.0563  -16.8009   12.9688 C   0  0  0  0  0  0  0  0  0  0  0  0
  -13.6107  -16.0651   11.8632 C   0  0  0  0  0  0  0  0  0  0  0  0
  -15.3077  -19.5944   14.2794 O   0  0  0  0  0  0  0  0  0  0  0  0
  -14.3768  -18.7792   14.2744 N   0  0  0  0  0  0  0  0  0  0  0  0
  -13.9121  -18.4558   15.3600 O   0  0  0  0  0  0  0  0  0  0  0  0
  -12.8842  -20.2169   12.2480 N   0  0  0  0  0  0  0  0  0  0  0  0
  -12.4475  -20.4909   13.0868 H   0  0  0  0  0  0  0  0  0  0  0  0
  -13.2032  -21.2859   11.2781 C   0  0  0  0  0  0  0  0  0  0  0  0
  -14.4884  -22.0112   11.7257 C   0  0  0  0  0  0  0  0  0  0  0  0
  -14.4388  -23.4788   11.2897 C   0  0  0  0  0  0  0  0  0  0  0  0
  -14.6690  -24.4040   12.4278 N   0  0  0  0  0  0  0  0  0  0  0  0
  -13.8007  -25.5972   12.2536 C   0  0  0  0  0  0  0  0  0  0  0  0
  -14.4115  -23.7569   13.7383 C   0  0  0  0  0  0  0  0  0  0  0  0
  -12.0705  -22.3227   11.1061 C   0  0  0  0  0  0  0  0  0  0  0  0
  -11.2934  -22.1603    9.5190 S   0  0  0  0  0  0  0  0  0  0  0  0
   -9.7315  -22.8494    9.5452 C   0  0  0  0  0  0  0  0  0  0  0  0
   -9.3919  -23.8265   10.4989 C   0  0  0  0  0  0  0  0  0  0  0  0
   -8.1131  -24.3807   10.4974 C   0  0  0  0  0  0  0  0  0  0  0  0
   -7.1654  -23.9667    9.5589 C   0  0  0  0  0  0  0  0  0  0  0  0
   -7.5040  -23.0048    8.6093 C   0  0  0  0  0  0  0  0  0  0  0  0
   -8.7851  -22.4446    8.6016 C   0  0  0  0  0  0  0  0  0  0  0  0
 40 41  2  0  0  0
 41 42  1  0  0  0
 41 34  1  0  0  0
 34 38  2  0  0  0
 34 35  1  0  0  0
 35 43  1  0  0  0
 35 36  2  0  0  0
 43 45  1  0  0  0
 45 46  1  0  0  0
 45 51  1  0  0  0
 51 52  1  0  0  0
 52 53  1  0  0  0
 53 58  1  0  0  0
 53 54  2  0  0  0
 54 55  1  0  0  0
 55 56  2  0  0  0
 56 57  1  0  0  0
 57 58  2  0  0  0
 46 47  1  0  0  0
 47 48  1  0  0  0
 48 49  1  0  0  0
 48 50  1  0  0  0
 36 37  1  0  0  0
 37 39  2  0  0  0
 38 39  1  0  0  0
 39 31  1  0  0  0
 31 33  2  0  0  0
 31  1  1  0  0  0
 31 32  2  0  0  0
  1  2  1  0  0  0
  2  5  1  0  0  0
  2  3  2  0  0  0
  5  8  1  0  0  0
  5  6  2  0  0  0
  6  7  1  0  0  0
  7 10  2  0  0  0
  8  9  2  0  0  0
  9 10  1  0  0  0
 10 11  1  0  0  0
 11 14  1  0  0  0
 11 12  1  0  0  0
 12 13  1  0  0  0
 13 16  1  0  0  0
 14 15  1  0  0  0
 15 16  1  0  0  0
 16 17  1  0  0  0
 17 18  1  0  0  0
 18 23  2  0  0  0
 18 19  1  0  0  0
 19 20  2  0  0  0
 20 21  1  0  0  0
 21 22  2  0  0  0
 22 23  1  0  0  0
 23 24  1  0  0  0
 24 27  1  0  0  0
 24 25  2  0  0  0
 25 26  1  0  0  0
 26 29  2  0  0  0
 27 28  2  0  0  0
 28 29  1  0  0  0
 29 30  1  0  0  0
 43 44  1  0  0  0
  1  4  1  0  0  0
M  CHG 1  41   1
M  CHG 1  42  -1
M  END
> <minimizedAffinity>
-8.54540

$$$$
2YXJ_N3C_A_1001


 58 63  0  0  0  0  0  0  0  0999 V2000
  -13.3578  -16.5410   12.3081 N   0  0  0  0  0  0  0  0  0  0  0  0
  -13.0545  -15.2965   12.7259 C   0  0  0  0  0  0  0  0  0  0  0  0
  -13.7987  -14.5629   13.3692 O   0  0  0  0  0  0  0  0  0  0  0  0
  -12.6693  -17.0306   11.8026 H   0  0  0  0  0  0  0  0  0  0  0  0
  -11.7522  -14.6933   12.3089 C   0  0  0  0  0  0  0  0  0  0  0  0
  -11.3374  -13.4867   12.8741 C   0  0  0  0  0  0  0  0  0  0  0  0
  -10.1514  -12.8890   12.4603 C   0  0  0  0  0  0  0  0  0  0  0  0
  -10.9951  -15.2617   11.3018 C   0  0  0  0  0  0  0  0  0  0  0  0
   -9.8094  -14.6625   10.8779 C   0  0  0  0  0  0  0  0  0  0  0  0
   -9.3643  -13.4633   11.4425 C   0  0  0  0  0  0  0  0  0  0  0  0
   -8.1626  -12.8594   11.0145 N   0  0  0  0  0  0  0  0  0  0  0  0
   -7.3246  -12.1976   12.0136 C   0  0  0  0  0  0  0  0  0  0  0  0
   -5.9221  -11.9249   11.5148 C   0  0  0  0  0  0  0  0  0  0  0  0
   -7.8647  -12.8893    9.5880 C   0  0  0  0  0  0  0  0  0  0  0  0
   -6.4711  -12.4625    9.2268 C   0  0  0  0  0  0  0  0  0  0  0  0
   -5.8755  -11.4724   10.1217 N   0  0  0  0  0  0  0  0  0  0  0  0
   -4.4615  -11.1332    9.7843 C   0  0  0  0  0  0  0  0  0  0  0  0
   -4.1801   -9.6595    9.6906 C   0  0  0  0  0  0  0  0  0  0  0  0
   -2.8159   -9.2786    9.6908 C   0  0  0  0  0  0  0  0  0  0  0  0
   -2.4696   -7.9387    9.5805 C   0  0  0  0  0  0  0  0  0  0  0  0
   -3.4718   -6.9863    9.4710 C   0  0  0  0  0  0  0  0  0  0  0  0
   -4.8073   -7.3444    9.5053 C   0  0  0  0  0  0  0  0  0  0  0  0
   -5.1988   -8.6920    9.6082 C   0  0  0  0  0  0  0  0  0  0  0  0
   -6.5777   -8.9329    9.6108 C   0  0  0  0  0  0  0  0  0  0  0  0
   -7.3310   -8.7197   10.7611 C   0  0  0  0  0  0  0  0  0  0  0  0
   -8.7091   -8.9306   10.7603 C   0  0  0  0  0  0  0  0  0  0  0  0
   -7.2368   -9.3139    8.4370 C   0  0  0  0  0  0  0  0  0  0  0  0
   -8.6193   -9.5183    8.4397 C   0  0  0  0  0  0  0  0  0  0  0  0
   -9.3619   -9.3212    9.6034 C   0  0  0  0  0  0  0  0  0  0  0  0
  -11.1478   -9.5747    9.5913 Cl  0  0  0  0  0  0  0  0  0  0  0  0
  -14.7005  -17.2587   12.5604 S   0  0  0  0  0  0  0  0  0  0  0  0
  -15.7452  -16.6603   11.7878 O   0  0  0  0  0  0  0  0  0  0  0  0
  -15.0312  -17.2178   13.9675 O   0  0  0  0  0  0  0  0  0  0  0  0
  -15.3732  -21.0631   11.7963 C   0  0  0  0  0  0  0  0  0  0  0  0
  -14.1106  -21.5604   11.3943 C   0  0  0  0  0  0  0  0  0  0  0  0
  -13.0175  -20.6780   11.3842 C   0  0  0  0  0  0  0  0  0  0  0  0
  -13.1713  -19.3278   11.7424 C   0  0  0  0  0  0  0  0  0  0  0  0
  -15.5086  -19.7125   12.1352 C   0  0  0  0  0  0  0  0  0  0  0  0
  -14.4364  -18.8114   12.1061 C   0  0  0  0  0  0  0  0  0  0  0  0
  -16.9219  -22.6462   10.9831 O   0  0  0  0  0  0  0  0  0  0  0  0
  -16.5666  -21.8387   11.8508 N   0  0  0  0  0  0  0  0  0  0  0  0
  -17.3133  -21.6840   12.8087 O   0  0  0  0  0  0  0  0  0  0  0  0
  -13.9731  -22.8982   11.1078 N   0  0  0  0  0  0  0  0  0  0  0  0
  -14.0123  -23.1579   10.1590 H   0  0  0  0  0  0  0  0  0  0  0  0
  -13.7721  -23.9829   12.0919 C   0  0  0  0  0  0  0  0  0  0  0  0
  -12.9077  -23.4588   13.2564 C   0  0  0  0  0  0  0  0  0  0  0  0
  -13.6276  -23.6931   14.5881 C   0  0  0  0  0  0  0  0  0  0  0  0
  -12.7003  -23.6023   15.7439 N   0  0  0  0  0  0  0  0  0  0  0  0
  -12.8892  -22.2838   16.4026 C   0  0  0  0  0  0  0  0  0  0  0  0
  -12.9038  -24.7059   16.7150 C   0  0  0  0  0  0  0  0  0  0  0  0
  -13.1068  -25.2435   11.4951 C   0  0  0  0  0  0  0  0  0  0  0  0
  -11.3984  -25.3452   11.9642 S   0  0  0  0  0  0  0  0  0  0  0  0
  -10.4041  -24.6767   10.7478 C   0  0  0  0  0  0  0  0  0  0  0  0
  -10.7354  -24.8202    9.3879 C   0  0  0  0  0  0  0  0  0  0  0  0
   -9.9130  -24.2601    8.4119 C   0  0  0  0  0  0  0  0  0  0  0  0
   -8.7589  -23.5633    8.7762 C   0  0  0  0  0  0  0  0  0  0  0  0
   -8.4348  -23.4142   10.1232 C   0  0  0  0  0  0  0  0  0  0  0  0
   -9.2549  -23.9707   11.1095 C   0  0  0  0  0  0  0  0  0  0  0  0
 40 41  2  0  0  0
 41 42  1  0  0  0
 41 34  1  0  0  0
 34 38  2  0  0  0
 34 35  1  0  0  0
 35 43  1  0  0  0
 35 36  2  0  0  0
 43 45  1  0  0  0
 45 46  1  0  0  0
 45 51  1  0  0  0
 51 52  1  0  0  0
 52 53  1  0  0  0
 53 58  1  0  0  0
 53 54  2  0  0  0
 54 55  1  0  0  0
 55 56  2  0  0  0
 56 57  1  0  0  0
 57 58  2  0  0  0
 46 47  1  0  0  0
 47 48  1  0  0  0
 48 49  1  0  0  0
 48 50  1  0  0  0
 36 37  1  0  0  0
 37 39  2  0  0  0
 38 39  1  0  0  0
 39 31  1  0  0  0
 31 33  2  0  0  0
 31  1  1  0  0  0
 31 32  2  0  0  0
  1  2  1  0  0  0
  2  5  1  0  0  0
  2  3  2  0  0  0
  5  8  1  0  0  0
  5  6  2  0  0  0
  6  7  1  0  0  0
  7 10  2  0  0  0
  8  9  2  0  0  0
  9 10  1  0  0  0
 10 11  1  0  0  0
 11 14  1  0  0  0
 11 12  1  0  0  0
 12 13  1  0  0  0
 13 16  1  0  0  0
 14 15  1  0  0  0
 15 16  1  0  0  0
 16 17  1  0  0  0
 17 18  1  0  0  0
 18 23  2  0  0  0
 18 19  1  0  0  0
 19 20  2  0  0  0
 20 21  1  0  0  0
 21 22  2  0  0  0
 22 23  1  0  0  0
 23 24  1  0  0  0
 24 27  1  0  0  0
 24 25  2  0  0  0
 25 26  1  0  0  0
 26 29  2  0  0  0
 27 28  2  0  0  0
 28 29  1  0  0  0
 29 30  1  0  0  0
 43 44  1  0  0  0
  1  4  1  0  0  0
M  CHG 1  41   1
M  CHG 1  42  -1
M  END
> <minimizedAffinity>
-8.52703

$$$$
