1FM9_570_D_200


 43 47  0  0  0  0  0  0  0  0999 V2000
   12.3303   -3.9936   12.2810 C   0  0  0  0  0  0  0  0  0  0  0  0
   11.7442   -3.7034   10.8946 C   0  0  0  0  0  0  0  0  0  0  0  0
   12.5935   -3.1082    9.9048 C   0  0  0  0  0  0  0  0  0  0  0  0
   10.3801   -4.0124   10.5785 C   0  0  0  0  0  0  0  0  0  0  0  0
   12.0991   -2.8241    8.6177 C   0  0  0  0  0  0  0  0  0  0  0  0
    9.8737   -3.7309    9.2893 C   0  0  0  0  0  0  0  0  0  0  0  0
   10.7420   -3.1221    8.2742 C   0  0  0  0  0  0  0  0  0  0  0  0
   10.3692   -2.7862    6.9375 O   0  0  0  0  0  0  0  0  0  0  0  0
   10.7836   -3.6212    5.8294 C   0  0  0  0  0  0  0  0  0  0  0  0
   10.8215   -2.7492    4.5597 C   0  0  0  0  0  0  0  0  0  0  0  0
   11.9668   -4.8244    1.6867 O   0  0  0  0  0  0  0  0  0  0  0  0
   12.9483   -3.8398    1.6726 C   0  0  0  0  0  0  0  0  0  0  0  0
   12.6206   -2.9760    2.7442 N   0  0  0  0  0  0  0  0  0  0  0  0
   11.4757   -3.4703    3.3315 C   0  0  0  0  0  0  0  0  0  0  0  0
   11.0161   -4.6652    2.6719 C   0  0  0  0  0  0  0  0  0  0  0  0
    9.7936   -5.5400    2.9779 C   0  0  0  0  0  0  0  0  0  0  0  0
   14.0304   -3.7002    0.8039 C   0  0  0  0  0  0  0  0  0  0  0  0
   14.2341   -2.5155    0.0046 C   0  0  0  0  0  0  0  0  0  0  0  0
   15.3506   -2.4283   -0.8670 C   0  0  0  0  0  0  0  0  0  0  0  0
   16.2697   -3.5061   -0.9569 C   0  0  0  0  0  0  0  0  0  0  0  0
   16.0832   -4.6785   -0.1751 C   0  0  0  0  0  0  0  0  0  0  0  0
   14.9715   -4.7782    0.6983 C   0  0  0  0  0  0  0  0  0  0  0  0
   13.6676   -4.7979   12.2601 C   0  0  0  0  0  0  0  0  0  0  0  0
   15.0125   -3.1883   13.3343 O   0  0  0  0  0  0  0  0  0  0  0  0
   14.8909   -5.2005   14.2840 O   0  0  0  0  0  0  0  0  0  0  0  0
   14.5669   -4.3606   13.3824 C   0  0  0  0  0  0  0  0  0  0  0  0
   14.5275   -6.0641   14.2722 H   0  0  0  0  0  0  0  0  0  0  0  0
   13.4595   -6.2937   12.2704 N   0  0  0  0  0  0  0  0  0  0  0  0
   12.6472   -6.5718   12.7521 H   0  0  0  0  0  0  0  0  0  0  0  0
   14.2147   -7.4128   11.7130 C   0  0  0  0  0  0  0  0  0  0  0  0
   13.5417   -8.6508   11.3041 C   0  0  0  0  0  0  0  0  0  0  0  0
   14.3700   -9.7021   10.7620 C   0  0  0  0  0  0  0  0  0  0  0  0
   15.7705   -9.5505   10.6315 C   0  0  0  0  0  0  0  0  0  0  0  0
   16.3987   -8.3567   11.0301 C   0  0  0  0  0  0  0  0  0  0  0  0
   15.6439   -7.3075   11.5587 C   0  0  0  0  0  0  0  0  0  0  0  0
   11.9861   -8.9522   11.3926 C   0  0  0  0  0  0  0  0  0  0  0  0
   11.2575   -8.0298   11.8125 O   0  0  0  0  0  0  0  0  0  0  0  0
   11.1959  -10.1844   10.9795 C   0  0  0  0  0  0  0  0  0  0  0  0
    9.8830  -10.0312   10.3930 C   0  0  0  0  0  0  0  0  0  0  0  0
    9.1287  -11.1733    9.9972 C   0  0  0  0  0  0  0  0  0  0  0  0
    9.6743  -12.4779   10.1814 C   0  0  0  0  0  0  0  0  0  0  0  0
   10.9660  -12.6382   10.7594 C   0  0  0  0  0  0  0  0  0  0  0  0
   11.7183  -11.5044   11.1539 C   0  0  0  0  0  0  0  0  0  0  0  0
 28 23  1  0  0  0
 28 30  1  0  0  0
 23  1  1  0  0  0
 23 26  1  0  0  0
  1  2  1  0  0  0
  2  3  2  0  0  0
  2  4  1  0  0  0
  3  5  1  0  0  0
  4  6  2  0  0  0
  5  7  2  0  0  0
  6  7  1  0  0  0
  7  8  1  0  0  0
  8  9  1  0  0  0
 30 31  2  0  0  0
 30 35  1  0  0  0
 31 32  1  0  0  0
 31 36  1  0  0  0
 32 33  2  0  0  0
 33 34  1  0  0  0
 34 35  2  0  0  0
 38 39  2  0  0  0
 38 43  1  0  0  0
 38 36  1  0  0  0
 39 40  1  0  0  0
 40 41  2  0  0  0
 41 42  1  0  0  0
 42 43  2  0  0  0
 36 37  2  0  0  0
 11 12  1  0  0  0
 11 15  1  0  0  0
 12 13  2  0  0  0
 12 17  1  0  0  0
 13 14  1  0  0  0
 14 15  2  0  0  0
 14 10  1  0  0  0
 15 16  1  0  0  0
 17 18  2  0  0  0
 17 22  1  0  0  0
 18 19  1  0  0  0
 19 20  2  0  0  0
 20 21  1  0  0  0
 21 22  2  0  0  0
  9 10  1  0  0  0
 24 26  2  0  0  0
 25 26  1  0  0  0
 28 29  1  0  0  0
 25 27  1  0  0  0
M  END
> <minimizedAffinity>
-13.33310

$$$$
1FM9_570_D_200


 43 47  0  0  0  0  0  0  0  0999 V2000
   13.3379   -4.0130   12.7009 C   0  0  0  0  0  0  0  0  0  0  0  0
   12.6115   -3.5311   11.4401 C   0  0  0  0  0  0  0  0  0  0  0  0
   13.2536   -2.5509   10.6142 C   0  0  0  0  0  0  0  0  0  0  0  0
   11.3188   -4.0373   11.0807 C   0  0  0  0  0  0  0  0  0  0  0  0
   12.6248   -2.0789    9.4464 C   0  0  0  0  0  0  0  0  0  0  0  0
   10.6787   -3.5700    9.9105 C   0  0  0  0  0  0  0  0  0  0  0  0
   11.3349   -2.5668    9.0632 C   0  0  0  0  0  0  0  0  0  0  0  0
   10.8111   -2.0082    7.8581 O   0  0  0  0  0  0  0  0  0  0  0  0
    9.6031   -2.5445    7.2665 C   0  0  0  0  0  0  0  0  0  0  0  0
    9.3896   -1.8563    5.9046 C   0  0  0  0  0  0  0  0  0  0  0  0
   11.6832   -3.4516    3.4416 O   0  0  0  0  0  0  0  0  0  0  0  0
   11.9607   -2.1128    3.1896 C   0  0  0  0  0  0  0  0  0  0  0  0
   11.1388   -1.3900    4.0861 N   0  0  0  0  0  0  0  0  0  0  0  0
   10.4159   -2.3126    4.8116 C   0  0  0  0  0  0  0  0  0  0  0  0
   10.7354   -3.6612    4.4202 C   0  0  0  0  0  0  0  0  0  0  0  0
   10.1766   -4.9888    4.9480 C   0  0  0  0  0  0  0  0  0  0  0  0
   12.8457   -1.5661    2.2607 C   0  0  0  0  0  0  0  0  0  0  0  0
   13.3449   -0.2158    2.3682 C   0  0  0  0  0  0  0  0  0  0  0  0
   14.2406    0.2917    1.3914 C   0  0  0  0  0  0  0  0  0  0  0  0
   14.6474   -0.5260    0.3050 C   0  0  0  0  0  0  0  0  0  0  0  0
   14.1656   -1.8581    0.1865 C   0  0  0  0  0  0  0  0  0  0  0  0
   13.2697   -2.3761    1.1549 C   0  0  0  0  0  0  0  0  0  0  0  0
   14.5098   -5.0074   12.4294 C   0  0  0  0  0  0  0  0  0  0  0  0
   14.9036   -5.2763   14.7372 O   0  0  0  0  0  0  0  0  0  0  0  0
   16.6766   -4.8705   13.4498 O   0  0  0  0  0  0  0  0  0  0  0  0
   15.4305   -5.0783   13.6154 C   0  0  0  0  0  0  0  0  0  0  0  0
   17.0174   -4.7283   12.5886 H   0  0  0  0  0  0  0  0  0  0  0  0
   14.0375   -6.3805   12.0143 N   0  0  0  0  0  0  0  0  0  0  0  0
   13.0602   -6.4888   12.0630 H   0  0  0  0  0  0  0  0  0  0  0  0
   14.7315   -7.5811   11.5556 C   0  0  0  0  0  0  0  0  0  0  0  0
   13.9909   -8.8046   11.2280 C   0  0  0  0  0  0  0  0  0  0  0  0
   14.7618   -9.9407   10.7807 C   0  0  0  0  0  0  0  0  0  0  0  0
   16.1704   -9.8822   10.6644 C   0  0  0  0  0  0  0  0  0  0  0  0
   16.8639   -8.7008   10.9841 C   0  0  0  0  0  0  0  0  0  0  0  0
   16.1664   -7.5721   11.4195 C   0  0  0  0  0  0  0  0  0  0  0  0
   12.4190   -9.0062   11.3108 C   0  0  0  0  0  0  0  0  0  0  0  0
   11.7400   -8.0086   11.6296 O   0  0  0  0  0  0  0  0  0  0  0  0
   11.5635  -10.2236   10.9951 C   0  0  0  0  0  0  0  0  0  0  0  0
   10.2447  -10.0463   10.4291 C   0  0  0  0  0  0  0  0  0  0  0  0
    9.4296  -11.1744   10.1241 C   0  0  0  0  0  0  0  0  0  0  0  0
    9.9199  -12.4889   10.3794 C   0  0  0  0  0  0  0  0  0  0  0  0
   11.2171  -12.6730   10.9377 C   0  0  0  0  0  0  0  0  0  0  0  0
   12.0297  -11.5531   11.2421 C   0  0  0  0  0  0  0  0  0  0  0  0
 28 23  1  0  0  0
 28 30  1  0  0  0
 23  1  1  0  0  0
 23 26  1  0  0  0
  1  2  1  0  0  0
  2  3  2  0  0  0
  2  4  1  0  0  0
  3  5  1  0  0  0
  4  6  2  0  0  0
  5  7  2  0  0  0
  6  7  1  0  0  0
  7  8  1  0  0  0
  8  9  1  0  0  0
 30 31  2  0  0  0
 30 35  1  0  0  0
 31 32  1  0  0  0
 31 36  1  0  0  0
 32 33  2  0  0  0
 33 34  1  0  0  0
 34 35  2  0  0  0
 38 39  2  0  0  0
 38 43  1  0  0  0
 38 36  1  0  0  0
 39 40  1  0  0  0
 40 41  2  0  0  0
 41 42  1  0  0  0
 42 43  2  0  0  0
 36 37  2  0  0  0
 11 12  1  0  0  0
 11 15  1  0  0  0
 12 13  2  0  0  0
 12 17  1  0  0  0
 13 14  1  0  0  0
 14 15  2  0  0  0
 14 10  1  0  0  0
 15 16  1  0  0  0
 17 18  2  0  0  0
 17 22  1  0  0  0
 18 19  1  0  0  0
 19 20  2  0  0  0
 20 21  1  0  0  0
 21 22  2  0  0  0
  9 10  1  0  0  0
 24 26  2  0  0  0
 25 26  1  0  0  0
 28 29  1  0  0  0
 25 27  1  0  0  0
M  END
> <minimizedAffinity>
-13.01197

$$$$
1FM9_570_D_200


 43 47  0  0  0  0  0  0  0  0999 V2000
   12.1947   -3.9000   12.1792 C   0  0  0  0  0  0  0  0  0  0  0  0
   11.5354   -3.7123   10.8082 C   0  0  0  0  0  0  0  0  0  0  0  0
   12.3160   -3.1488    9.7461 C   0  0  0  0  0  0  0  0  0  0  0  0
   10.1702   -4.0850   10.5763 C   0  0  0  0  0  0  0  0  0  0  0  0
   11.7530   -2.9581    8.4699 C   0  0  0  0  0  0  0  0  0  0  0  0
    9.5952   -3.8975    9.2989 C   0  0  0  0  0  0  0  0  0  0  0  0
   10.3932   -3.3213    8.2098 C   0  0  0  0  0  0  0  0  0  0  0  0
    9.9473   -3.0778    6.8755 O   0  0  0  0  0  0  0  0  0  0  0  0
   10.6276   -3.6889    5.7526 C   0  0  0  0  0  0  0  0  0  0  0  0
   10.8031   -2.6188    4.6581 C   0  0  0  0  0  0  0  0  0  0  0  0
   12.2760   -3.5647    1.3705 O   0  0  0  0  0  0  0  0  0  0  0  0
   11.4453   -4.6596    1.5807 C   0  0  0  0  0  0  0  0  0  0  0  0
   10.8123   -4.4104    2.8212 N   0  0  0  0  0  0  0  0  0  0  0  0
   11.2917   -3.2059    3.2896 C   0  0  0  0  0  0  0  0  0  0  0  0
   12.2476   -2.6275    2.3808 C   0  0  0  0  0  0  0  0  0  0  0  0
   13.0318   -1.3140    2.4953 C   0  0  0  0  0  0  0  0  0  0  0  0
   11.2564   -5.7786    0.7700 C   0  0  0  0  0  0  0  0  0  0  0  0
   12.0656   -6.0344   -0.3978 C   0  0  0  0  0  0  0  0  0  0  0  0
   11.8269   -7.1870   -1.1905 C   0  0  0  0  0  0  0  0  0  0  0  0
   10.7912   -8.0912   -0.8387 C   0  0  0  0  0  0  0  0  0  0  0  0
    9.9870   -7.8537    0.3092 C   0  0  0  0  0  0  0  0  0  0  0  0
   10.2147   -6.7055    1.1083 C   0  0  0  0  0  0  0  0  0  0  0  0
   13.5332   -4.7020   12.1465 C   0  0  0  0  0  0  0  0  0  0  0  0
   14.5562   -5.1028   14.2312 O   0  0  0  0  0  0  0  0  0  0  0  0
   14.9500   -3.1290   13.2748 O   0  0  0  0  0  0  0  0  0  0  0  0
   14.4259   -4.2903   13.2836 C   0  0  0  0  0  0  0  0  0  0  0  0
   14.8204   -2.5620   12.5402 H   0  0  0  0  0  0  0  0  0  0  0  0
   13.3270   -6.1978   12.1202 N   0  0  0  0  0  0  0  0  0  0  0  0
   12.4657   -6.4803   12.5042 H   0  0  0  0  0  0  0  0  0  0  0  0
   14.1420   -7.3120   11.6426 C   0  0  0  0  0  0  0  0  0  0  0  0
   13.5395   -8.6154   11.3413 C   0  0  0  0  0  0  0  0  0  0  0  0
   14.4236   -9.6566   10.8726 C   0  0  0  0  0  0  0  0  0  0  0  0
   15.8115   -9.4348   10.7118 C   0  0  0  0  0  0  0  0  0  0  0  0
   16.3718   -8.1787   11.0069 C   0  0  0  0  0  0  0  0  0  0  0  0
   15.5611   -7.1365   11.4614 C   0  0  0  0  0  0  0  0  0  0  0  0
   12.0052   -8.9986   11.4740 C   0  0  0  0  0  0  0  0  0  0  0  0
   11.2520   -8.1385   11.9749 O   0  0  0  0  0  0  0  0  0  0  0  0
   11.2578  -10.2439   11.0225 C   0  0  0  0  0  0  0  0  0  0  0  0
    9.9710  -10.1132   10.3757 C   0  0  0  0  0  0  0  0  0  0  0  0
    9.2570  -11.2678    9.9432 C   0  0  0  0  0  0  0  0  0  0  0  0
    9.8172  -12.5627   10.1504 C   0  0  0  0  0  0  0  0  0  0  0  0
   11.0834  -12.7010   10.7875 C   0  0  0  0  0  0  0  0  0  0  0  0
   11.7956  -11.5546   11.2186 C   0  0  0  0  0  0  0  0  0  0  0  0
 28 23  1  0  0  0
 28 30  1  0  0  0
 23  1  1  0  0  0
 23 26  1  0  0  0
  1  2  1  0  0  0
  2  3  2  0  0  0
  2  4  1  0  0  0
  3  5  1  0  0  0
  4  6  2  0  0  0
  5  7  2  0  0  0
  6  7  1  0  0  0
  7  8  1  0  0  0
  8  9  1  0  0  0
 30 31  2  0  0  0
 30 35  1  0  0  0
 31 32  1  0  0  0
 31 36  1  0  0  0
 32 33  2  0  0  0
 33 34  1  0  0  0
 34 35  2  0  0  0
 38 39  2  0  0  0
 38 43  1  0  0  0
 38 36  1  0  0  0
 39 40  1  0  0  0
 40 41  2  0  0  0
 41 42  1  0  0  0
 42 43  2  0  0  0
 36 37  2  0  0  0
 11 12  1  0  0  0
 11 15  1  0  0  0
 12 13  2  0  0  0
 12 17  1  0  0  0
 13 14  1  0  0  0
 14 15  2  0  0  0
 14 10  1  0  0  0
 15 16  1  0  0  0
 17 18  2  0  0  0
 17 22  1  0  0  0
 18 19  1  0  0  0
 19 20  2  0  0  0
 20 21  1  0  0  0
 21 22  2  0  0  0
  9 10  1  0  0  0
 24 26  2  0  0  0
 25 26  1  0  0  0
 28 29  1  0  0  0
 25 27  1  0  0  0
M  END
> <minimizedAffinity>
-12.92091

$$$$
1FM9_570_D_200


 43 47  0  0  0  0  0  0  0  0999 V2000
   13.4498   -3.9905   12.7509 C   0  0  0  0  0  0  0  0  0  0  0  0
   12.5615   -3.6215   11.5574 C   0  0  0  0  0  0  0  0  0  0  0  0
   11.2477   -4.1902   11.4820 C   0  0  0  0  0  0  0  0  0  0  0  0
   13.0184   -2.7309   10.5306 C   0  0  0  0  0  0  0  0  0  0  0  0
   10.3963   -3.8799   10.4046 C   0  0  0  0  0  0  0  0  0  0  0  0
   12.1717   -2.4130    9.4446 C   0  0  0  0  0  0  0  0  0  0  0  0
   10.8258   -2.9938    9.3659 C   0  0  0  0  0  0  0  0  0  0  0  0
    9.8665   -2.7619    8.3343 O   0  0  0  0  0  0  0  0  0  0  0  0
   10.1965   -1.9213    7.2022 C   0  0  0  0  0  0  0  0  0  0  0  0
    9.6488   -2.5946    5.9292 C   0  0  0  0  0  0  0  0  0  0  0  0
   11.7598   -1.5745    3.0352 O   0  0  0  0  0  0  0  0  0  0  0  0
   11.8689   -2.9566    2.9312 C   0  0  0  0  0  0  0  0  0  0  0  0
   11.0889   -3.4698    3.9942 N   0  0  0  0  0  0  0  0  0  0  0  0
   10.5675   -2.3912    4.6758 C   0  0  0  0  0  0  0  0  0  0  0  0
   10.9832   -1.1433    4.0892 C   0  0  0  0  0  0  0  0  0  0  0  0
   10.6531    0.2930    4.5150 C   0  0  0  0  0  0  0  0  0  0  0  0
   12.5858   -3.7066    1.9992 C   0  0  0  0  0  0  0  0  0  0  0  0
   13.9661   -3.4301    1.6795 C   0  0  0  0  0  0  0  0  0  0  0  0
   14.6467   -4.2227    0.7190 C   0  0  0  0  0  0  0  0  0  0  0  0
   13.9722   -5.2887    0.0686 C   0  0  0  0  0  0  0  0  0  0  0  0
   12.6135   -5.5740    0.3739 C   0  0  0  0  0  0  0  0  0  0  0  0
   11.9225   -4.7890    1.3305 C   0  0  0  0  0  0  0  0  0  0  0  0
   14.6030   -4.9863   12.4127 C   0  0  0  0  0  0  0  0  0  0  0  0
   14.9995   -5.3885   14.7006 O   0  0  0  0  0  0  0  0  0  0  0  0
   16.7775   -4.9661   13.4255 O   0  0  0  0  0  0  0  0  0  0  0  0
   15.5267   -5.1465   13.5876 C   0  0  0  0  0  0  0  0  0  0  0  0
   17.1183   -4.7882   12.5710 H   0  0  0  0  0  0  0  0  0  0  0  0
   14.1050   -6.3226   11.9158 N   0  0  0  0  0  0  0  0  0  0  0  0
   13.1241   -6.3738   11.8491 H   0  0  0  0  0  0  0  0  0  0  0  0
   14.7784   -7.5549   11.5139 C   0  0  0  0  0  0  0  0  0  0  0  0
   14.0197   -8.7869   11.2702 C   0  0  0  0  0  0  0  0  0  0  0  0
   14.7709   -9.9550   10.8747 C   0  0  0  0  0  0  0  0  0  0  0  0
   16.1776   -9.9186   10.7298 C   0  0  0  0  0  0  0  0  0  0  0  0
   16.8885   -8.7286   10.9689 C   0  0  0  0  0  0  0  0  0  0  0  0
   16.2105   -7.5694   11.3517 C   0  0  0  0  0  0  0  0  0  0  0  0
   12.4477   -8.9663   11.3928 C   0  0  0  0  0  0  0  0  0  0  0  0
   11.7977   -7.9763   11.7869 O   0  0  0  0  0  0  0  0  0  0  0  0
   11.5603  -10.1500   11.0394 C   0  0  0  0  0  0  0  0  0  0  0  0
   12.0409  -11.4966   11.2560 C   0  0  0  0  0  0  0  0  0  0  0  0
   11.2232  -12.6181   10.9338 C   0  0  0  0  0  0  0  0  0  0  0  0
    9.9201  -12.4094   10.3936 C   0  0  0  0  0  0  0  0  0  0  0  0
    9.4391  -11.0867   10.1759 C   0  0  0  0  0  0  0  0  0  0  0  0
   10.2499   -9.9697   10.4953 C   0  0  0  0  0  0  0  0  0  0  0  0
 28 23  1  0  0  0
 28 30  1  0  0  0
 23  1  1  0  0  0
 23 26  1  0  0  0
  1  2  1  0  0  0
  2  3  2  0  0  0
  2  4  1  0  0  0
  3  5  1  0  0  0
  4  6  2  0  0  0
  5  7  2  0  0  0
  6  7  1  0  0  0
  7  8  1  0  0  0
  8  9  1  0  0  0
 30 31  2  0  0  0
 30 35  1  0  0  0
 31 32  1  0  0  0
 31 36  1  0  0  0
 32 33  2  0  0  0
 33 34  1  0  0  0
 34 35  2  0  0  0
 38 39  2  0  0  0
 38 43  1  0  0  0
 38 36  1  0  0  0
 39 40  1  0  0  0
 40 41  2  0  0  0
 41 42  1  0  0  0
 42 43  2  0  0  0
 36 37  2  0  0  0
 11 12  1  0  0  0
 11 15  1  0  0  0
 12 13  2  0  0  0
 12 17  1  0  0  0
 13 14  1  0  0  0
 14 15  2  0  0  0
 14 10  1  0  0  0
 15 16  1  0  0  0
 17 18  2  0  0  0
 17 22  1  0  0  0
 18 19  1  0  0  0
 19 20  2  0  0  0
 20 21  1  0  0  0
 21 22  2  0  0  0
  9 10  1  0  0  0
 24 26  2  0  0  0
 25 26  1  0  0  0
 28 29  1  0  0  0
 25 27  1  0  0  0
M  END
> <minimizedAffinity>
-12.86659

$$$$
1FM9_570_D_200


 43 47  0  0  0  0  0  0  0  0999 V2000
   10.7386   -2.0765    7.9387 C   0  0  0  0  0  0  0  0  0  0  0  0
   11.4192   -2.5685    9.2210 C   0  0  0  0  0  0  0  0  0  0  0  0
   12.7206   -2.0601    9.5420 C   0  0  0  0  0  0  0  0  0  0  0  0
   10.7840   -3.5160   10.0900 C   0  0  0  0  0  0  0  0  0  0  0  0
   13.3842   -2.4830   10.7094 C   0  0  0  0  0  0  0  0  0  0  0  0
   11.4416   -3.9472   11.2644 C   0  0  0  0  0  0  0  0  0  0  0  0
   12.7739   -3.4273   11.5952 C   0  0  0  0  0  0  0  0  0  0  0  0
   13.5517   -3.7698   12.7424 O   0  0  0  0  0  0  0  0  0  0  0  0
   13.7506   -5.1576   13.1051 C   0  0  0  0  0  0  0  0  0  0  0  0
   14.6046   -5.8223   12.0084 C   0  0  0  0  0  0  0  0  0  0  0  0
   14.6185   -9.5463   11.9460 O   0  0  0  0  0  0  0  0  0  0  0  0
   13.3137   -9.3082   11.5288 C   0  0  0  0  0  0  0  0  0  0  0  0
   13.1845   -7.8995   11.5056 N   0  0  0  0  0  0  0  0  0  0  0  0
   14.3918   -7.3720   11.9108 C   0  0  0  0  0  0  0  0  0  0  0  0
   15.3473   -8.4068   12.2113 C   0  0  0  0  0  0  0  0  0  0  0  0
   16.7973   -8.2850   12.6968 C   0  0  0  0  0  0  0  0  0  0  0  0
   12.3212  -10.2317   11.2014 C   0  0  0  0  0  0  0  0  0  0  0  0
   11.0466   -9.8363   10.6511 C   0  0  0  0  0  0  0  0  0  0  0  0
   10.0702  -10.8181   10.3402 C   0  0  0  0  0  0  0  0  0  0  0  0
   10.3431  -12.1917   10.5706 C   0  0  0  0  0  0  0  0  0  0  0  0
   11.5942  -12.5966   11.1106 C   0  0  0  0  0  0  0  0  0  0  0  0
   12.5770  -11.6255   11.4263 C   0  0  0  0  0  0  0  0  0  0  0  0
   10.0137   -3.1933    7.1243 C   0  0  0  0  0  0  0  0  0  0  0  0
    7.7273   -3.7614    7.0711 O   0  0  0  0  0  0  0  0  0  0  0  0
    8.2616   -1.6678    6.5262 O   0  0  0  0  0  0  0  0  0  0  0  0
    8.5673   -2.8422    6.9143 C   0  0  0  0  0  0  0  0  0  0  0  0
    8.9299   -1.0188    6.4257 H   0  0  0  0  0  0  0  0  0  0  0  0
   10.6995   -3.5131    5.8173 N   0  0  0  0  0  0  0  0  0  0  0  0
   11.4772   -2.9382    5.6332 H   0  0  0  0  0  0  0  0  0  0  0  0
   10.4470   -4.4996    4.7701 C   0  0  0  0  0  0  0  0  0  0  0  0
   10.9116   -4.2798    3.3958 C   0  0  0  0  0  0  0  0  0  0  0  0
   10.6175   -5.3111    2.4288 C   0  0  0  0  0  0  0  0  0  0  0  0
    9.9099   -6.4829    2.7857 C   0  0  0  0  0  0  0  0  0  0  0  0
    9.4711   -6.6759    4.1082 C   0  0  0  0  0  0  0  0  0  0  0  0
    9.7311   -5.7107    5.0832 C   0  0  0  0  0  0  0  0  0  0  0  0
   11.7138   -3.0190    2.8617 C   0  0  0  0  0  0  0  0  0  0  0  0
   11.4390   -1.9169    3.3793 O   0  0  0  0  0  0  0  0  0  0  0  0
   12.8407   -2.9264    1.8444 C   0  0  0  0  0  0  0  0  0  0  0  0
   13.5182   -4.1289    1.4130 C   0  0  0  0  0  0  0  0  0  0  0  0
   14.5743   -4.0628    0.4589 C   0  0  0  0  0  0  0  0  0  0  0  0
   14.9653   -2.7994   -0.0746 C   0  0  0  0  0  0  0  0  0  0  0  0
   14.3043   -1.6099    0.3453 C   0  0  0  0  0  0  0  0  0  0  0  0
   13.2539   -1.6726    1.2940 C   0  0  0  0  0  0  0  0  0  0  0  0
 28 23  1  0  0  0
 28 30  1  0  0  0
 23  1  1  0  0  0
 23 26  1  0  0  0
  1  2  1  0  0  0
  2  3  2  0  0  0
  2  4  1  0  0  0
  3  5  1  0  0  0
  4  6  2  0  0  0
  5  7  2  0  0  0
  6  7  1  0  0  0
  7  8  1  0  0  0
  8  9  1  0  0  0
 30 31  2  0  0  0
 30 35  1  0  0  0
 31 32  1  0  0  0
 31 36  1  0  0  0
 32 33  2  0  0  0
 33 34  1  0  0  0
 34 35  2  0  0  0
 38 39  2  0  0  0
 38 43  1  0  0  0
 38 36  1  0  0  0
 39 40  1  0  0  0
 40 41  2  0  0  0
 41 42  1  0  0  0
 42 43  2  0  0  0
 36 37  2  0  0  0
 11 12  1  0  0  0
 11 15  1  0  0  0
 12 13  2  0  0  0
 12 17  1  0  0  0
 13 14  1  0  0  0
 14 15  2  0  0  0
 14 10  1  0  0  0
 15 16  1  0  0  0
 17 18  2  0  0  0
 17 22  1  0  0  0
 18 19  1  0  0  0
 19 20  2  0  0  0
 20 21  1  0  0  0
 21 22  2  0  0  0
  9 10  1  0  0  0
 24 26  2  0  0  0
 25 26  1  0  0  0
 28 29  1  0  0  0
 25 27  1  0  0  0
M  END
> <minimizedAffinity>
-12.52649

$$$$
1FM9_570_D_200


 43 47  0  0  0  0  0  0  0  0999 V2000
   13.5119   -3.9995   12.7149 C   0  0  0  0  0  0  0  0  0  0  0  0
   12.5225   -3.8337   11.5559 C   0  0  0  0  0  0  0  0  0  0  0  0
   12.9969   -3.2640   10.3290 C   0  0  0  0  0  0  0  0  0  0  0  0
   11.1507   -4.2327   11.6793 C   0  0  0  0  0  0  0  0  0  0  0  0
   12.1247   -3.0928    9.2372 C   0  0  0  0  0  0  0  0  0  0  0  0
   10.2667   -4.0650   10.5894 C   0  0  0  0  0  0  0  0  0  0  0  0
   10.7507   -3.4824    9.3319 C   0  0  0  0  0  0  0  0  0  0  0  0
    9.9760   -3.2568    8.1540 O   0  0  0  0  0  0  0  0  0  0  0  0
    8.5361   -3.1277    8.2375 C   0  0  0  0  0  0  0  0  0  0  0  0
    7.9645   -3.1988    6.8084 C   0  0  0  0  0  0  0  0  0  0  0  0
    8.4510   -6.6378    5.4633 O   0  0  0  0  0  0  0  0  0  0  0  0
    9.1629   -5.9109    4.5157 C   0  0  0  0  0  0  0  0  0  0  0  0
    9.0559   -4.5617    4.9282 N   0  0  0  0  0  0  0  0  0  0  0  0
    8.2924   -4.5449    6.0757 C   0  0  0  0  0  0  0  0  0  0  0  0
    7.8754   -5.8706    6.4533 C   0  0  0  0  0  0  0  0  0  0  0  0
    7.0186   -6.3223    7.6429 C   0  0  0  0  0  0  0  0  0  0  0  0
    9.8416   -6.3764    3.3899 C   0  0  0  0  0  0  0  0  0  0  0  0
    9.9508   -7.7815    3.0773 C   0  0  0  0  0  0  0  0  0  0  0  0
   10.6577   -8.2004    1.9203 C   0  0  0  0  0  0  0  0  0  0  0  0
   11.2607   -7.2395    1.0674 C   0  0  0  0  0  0  0  0  0  0  0  0
   11.1605   -5.8523    1.3611 C   0  0  0  0  0  0  0  0  0  0  0  0
   10.4582   -5.4214    2.5144 C   0  0  0  0  0  0  0  0  0  0  0  0
   14.6503   -5.0333   12.4480 C   0  0  0  0  0  0  0  0  0  0  0  0
   16.7972   -5.0924   13.4179 O   0  0  0  0  0  0  0  0  0  0  0  0
   15.0599   -5.3304   14.7929 O   0  0  0  0  0  0  0  0  0  0  0  0
   15.5624   -5.1367   13.6382 C   0  0  0  0  0  0  0  0  0  0  0  0
   14.1294   -5.3541   14.9009 H   0  0  0  0  0  0  0  0  0  0  0  0
   14.1330   -6.3891   12.0295 N   0  0  0  0  0  0  0  0  0  0  0  0
   13.1556   -6.4761   12.1095 H   0  0  0  0  0  0  0  0  0  0  0  0
   14.7837   -7.5979   11.5306 C   0  0  0  0  0  0  0  0  0  0  0  0
   14.0029   -8.7943   11.1961 C   0  0  0  0  0  0  0  0  0  0  0  0
   14.7324   -9.9410   10.7081 C   0  0  0  0  0  0  0  0  0  0  0  0
   16.1391   -9.9174   10.5600 C   0  0  0  0  0  0  0  0  0  0  0  0
   16.8713   -8.7617   10.8870 C   0  0  0  0  0  0  0  0  0  0  0  0
   16.2147   -7.6242   11.3612 C   0  0  0  0  0  0  0  0  0  0  0  0
   12.4285   -8.9558   11.3116 C   0  0  0  0  0  0  0  0  0  0  0  0
   11.7834   -7.9455   11.6595 O   0  0  0  0  0  0  0  0  0  0  0  0
   11.5342  -10.1456   10.9985 C   0  0  0  0  0  0  0  0  0  0  0  0
   10.2214   -9.9271   10.4329 C   0  0  0  0  0  0  0  0  0  0  0  0
    9.3704  -11.0290   10.1302 C   0  0  0  0  0  0  0  0  0  0  0  0
    9.8183  -12.3581   10.3877 C   0  0  0  0  0  0  0  0  0  0  0  0
   11.1092  -12.5827   10.9457 C   0  0  0  0  0  0  0  0  0  0  0  0
   11.9576  -11.4889   11.2476 C   0  0  0  0  0  0  0  0  0  0  0  0
 28 23  1  0  0  0
 28 30  1  0  0  0
 23  1  1  0  0  0
 23 26  1  0  0  0
  1  2  1  0  0  0
  2  3  2  0  0  0
  2  4  1  0  0  0
  3  5  1  0  0  0
  4  6  2  0  0  0
  5  7  2  0  0  0
  6  7  1  0  0  0
  7  8  1  0  0  0
  8  9  1  0  0  0
 30 31  2  0  0  0
 30 35  1  0  0  0
 31 32  1  0  0  0
 31 36  1  0  0  0
 32 33  2  0  0  0
 33 34  1  0  0  0
 34 35  2  0  0  0
 38 39  2  0  0  0
 38 43  1  0  0  0
 38 36  1  0  0  0
 39 40  1  0  0  0
 40 41  2  0  0  0
 41 42  1  0  0  0
 42 43  2  0  0  0
 36 37  2  0  0  0
 11 12  1  0  0  0
 11 15  1  0  0  0
 12 13  2  0  0  0
 12 17  1  0  0  0
 13 14  1  0  0  0
 14 15  2  0  0  0
 14 10  1  0  0  0
 15 16  1  0  0  0
 17 18  2  0  0  0
 17 22  1  0  0  0
 18 19  1  0  0  0
 19 20  2  0  0  0
 20 21  1  0  0  0
 21 22  2  0  0  0
  9 10  1  0  0  0
 24 26  2  0  0  0
 25 26  1  0  0  0
 28 29  1  0  0  0
 25 27  1  0  0  0
M  END
> <minimizedAffinity>
-12.33781

$$$$
1FM9_570_D_200


 43 47  0  0  0  0  0  0  0  0999 V2000
    9.0582   -1.5330    6.4866 C   0  0  0  0  0  0  0  0  0  0  0  0
    9.7630   -2.2334    7.6537 C   0  0  0  0  0  0  0  0  0  0  0  0
    9.0953   -3.3259    8.2986 C   0  0  0  0  0  0  0  0  0  0  0  0
   11.0595   -1.8178    8.1039 C   0  0  0  0  0  0  0  0  0  0  0  0
    9.7040   -3.9996    9.3745 C   0  0  0  0  0  0  0  0  0  0  0  0
   11.6794   -2.4873    9.1834 C   0  0  0  0  0  0  0  0  0  0  0  0
   10.9975   -3.6066    9.8446 C   0  0  0  0  0  0  0  0  0  0  0  0
   11.5011   -4.3724   10.9392 O   0  0  0  0  0  0  0  0  0  0  0  0
   12.9062   -4.3196   11.2855 C   0  0  0  0  0  0  0  0  0  0  0  0
   13.1598   -5.3342   12.4170 C   0  0  0  0  0  0  0  0  0  0  0  0
   14.0738   -8.7179   11.1572 O   0  0  0  0  0  0  0  0  0  0  0  0
   12.7031   -8.8878   11.3166 C   0  0  0  0  0  0  0  0  0  0  0  0
   12.2297   -7.6432   11.7948 N   0  0  0  0  0  0  0  0  0  0  0  0
   13.3198   -6.8068   11.9051 C   0  0  0  0  0  0  0  0  0  0  0  0
   14.5360   -7.4672   11.5066 C   0  0  0  0  0  0  0  0  0  0  0  0
   15.9724   -6.9297   11.4733 C   0  0  0  0  0  0  0  0  0  0  0  0
   11.9317  -10.0238   11.0731 C   0  0  0  0  0  0  0  0  0  0  0  0
   10.5787   -9.9491   10.5751 C   0  0  0  0  0  0  0  0  0  0  0  0
    9.8368  -11.1375   10.3493 C   0  0  0  0  0  0  0  0  0  0  0  0
   10.4219  -12.4033   10.6136 C   0  0  0  0  0  0  0  0  0  0  0  0
   11.7536  -12.4930   11.1028 C   0  0  0  0  0  0  0  0  0  0  0  0
   12.5044  -11.3133   11.3335 C   0  0  0  0  0  0  0  0  0  0  0  0
    9.7450   -1.7406    5.1006 C   0  0  0  0  0  0  0  0  0  0  0  0
   10.4393    0.4873    5.4286 O   0  0  0  0  0  0  0  0  0  0  0  0
   11.3952   -0.6336    3.7567 O   0  0  0  0  0  0  0  0  0  0  0  0
   10.6021   -0.5564    4.7509 C   0  0  0  0  0  0  0  0  0  0  0  0
   11.4783   -1.4391    3.2852 H   0  0  0  0  0  0  0  0  0  0  0  0
   10.5244   -3.0312    5.0131 N   0  0  0  0  0  0  0  0  0  0  0  0
   11.4487   -2.9525    5.3426 H   0  0  0  0  0  0  0  0  0  0  0  0
   10.1896   -4.3722    4.5405 C   0  0  0  0  0  0  0  0  0  0  0  0
   10.6370   -4.8445    3.2254 C   0  0  0  0  0  0  0  0  0  0  0  0
   10.2597   -6.1852    2.8442 C   0  0  0  0  0  0  0  0  0  0  0  0
    9.4899   -7.0103    3.6975 C   0  0  0  0  0  0  0  0  0  0  0  0
    9.0688   -6.5400    4.9546 C   0  0  0  0  0  0  0  0  0  0  0  0
    9.4082   -5.2517    5.3731 C   0  0  0  0  0  0  0  0  0  0  0  0
   11.5027   -4.0289    2.1748 C   0  0  0  0  0  0  0  0  0  0  0  0
   11.2751   -2.8048    2.0879 O   0  0  0  0  0  0  0  0  0  0  0  0
   12.6426   -4.4806    1.2747 C   0  0  0  0  0  0  0  0  0  0  0  0
   13.9665   -3.9302    1.4631 C   0  0  0  0  0  0  0  0  0  0  0  0
   15.0476   -4.3429    0.6318 C   0  0  0  0  0  0  0  0  0  0  0  0
   14.8208   -5.3072   -0.3940 C   0  0  0  0  0  0  0  0  0  0  0  0
   13.5200   -5.8537   -0.5874 C   0  0  0  0  0  0  0  0  0  0  0  0
   12.4431   -5.4452    0.2376 C   0  0  0  0  0  0  0  0  0  0  0  0
 28 23  1  0  0  0
 28 30  1  0  0  0
 23  1  1  0  0  0
 23 26  1  0  0  0
  1  2  1  0  0  0
  2  3  2  0  0  0
  2  4  1  0  0  0
  3  5  1  0  0  0
  4  6  2  0  0  0
  5  7  2  0  0  0
  6  7  1  0  0  0
  7  8  1  0  0  0
  8  9  1  0  0  0
 30 31  2  0  0  0
 30 35  1  0  0  0
 31 32  1  0  0  0
 31 36  1  0  0  0
 32 33  2  0  0  0
 33 34  1  0  0  0
 34 35  2  0  0  0
 38 39  2  0  0  0
 38 43  1  0  0  0
 38 36  1  0  0  0
 39 40  1  0  0  0
 40 41  2  0  0  0
 41 42  1  0  0  0
 42 43  2  0  0  0
 36 37  2  0  0  0
 11 12  1  0  0  0
 11 15  1  0  0  0
 12 13  2  0  0  0
 12 17  1  0  0  0
 13 14  1  0  0  0
 14 15  2  0  0  0
 14 10  1  0  0  0
 15 16  1  0  0  0
 17 18  2  0  0  0
 17 22  1  0  0  0
 18 19  1  0  0  0
 19 20  2  0  0  0
 20 21  1  0  0  0
 21 22  2  0  0  0
  9 10  1  0  0  0
 24 26  2  0  0  0
 25 26  1  0  0  0
 28 29  1  0  0  0
 25 27  1  0  0  0
M  END
> <minimizedAffinity>
-12.27386

$$$$
1FM9_570_D_200


 43 47  0  0  0  0  0  0  0  0999 V2000
   11.3761   -3.2235   11.9230 C   0  0  0  0  0  0  0  0  0  0  0  0
   11.0265   -3.3138   10.4333 C   0  0  0  0  0  0  0  0  0  0  0  0
    9.7047   -3.7297   10.0658 C   0  0  0  0  0  0  0  0  0  0  0  0
   11.9874   -2.9949    9.4178 C   0  0  0  0  0  0  0  0  0  0  0  0
    9.3381   -3.8268    8.7100 C   0  0  0  0  0  0  0  0  0  0  0  0
   11.6297   -3.0894    8.0537 C   0  0  0  0  0  0  0  0  0  0  0  0
   10.2765   -3.5143    7.6754 C   0  0  0  0  0  0  0  0  0  0  0  0
    9.7771   -3.6520    6.3449 O   0  0  0  0  0  0  0  0  0  0  0  0
   10.5858   -4.2783    5.3198 C   0  0  0  0  0  0  0  0  0  0  0  0
   10.7290   -3.2867    4.1493 C   0  0  0  0  0  0  0  0  0  0  0  0
   12.1543   -5.0971    1.2230 O   0  0  0  0  0  0  0  0  0  0  0  0
   13.0744   -4.0603    1.3300 C   0  0  0  0  0  0  0  0  0  0  0  0
   12.6365   -3.2901    2.4331 N   0  0  0  0  0  0  0  0  0  0  0  0
   11.4923   -3.8860    2.9187 C   0  0  0  0  0  0  0  0  0  0  0  0
   11.1424   -5.0579    2.1582 C   0  0  0  0  0  0  0  0  0  0  0  0
    9.9594   -6.0183    2.3347 C   0  0  0  0  0  0  0  0  0  0  0  0
   14.1928   -3.8024    0.5378 C   0  0  0  0  0  0  0  0  0  0  0  0
   14.3734   -2.5539   -0.1642 C   0  0  0  0  0  0  0  0  0  0  0  0
   15.5292   -2.3463   -0.9610 C   0  0  0  0  0  0  0  0  0  0  0  0
   16.5105   -3.3656   -1.0715 C   0  0  0  0  0  0  0  0  0  0  0  0
   16.3474   -4.5996   -0.3850 C   0  0  0  0  0  0  0  0  0  0  0  0
   15.1969   -4.8196    0.4129 C   0  0  0  0  0  0  0  0  0  0  0  0
   11.6212   -4.6021   12.6125 C   0  0  0  0  0  0  0  0  0  0  0  0
    9.3739   -4.3529   13.2765 O   0  0  0  0  0  0  0  0  0  0  0  0
   10.3028   -6.3549   13.5843 O   0  0  0  0  0  0  0  0  0  0  0  0
   10.3391   -5.1486   13.1756 C   0  0  0  0  0  0  0  0  0  0  0  0
   11.0535   -6.9064   13.4838 H   0  0  0  0  0  0  0  0  0  0  0  0
   12.2985   -5.6044   11.7083 N   0  0  0  0  0  0  0  0  0  0  0  0
   11.8881   -5.6652   10.8155 H   0  0  0  0  0  0  0  0  0  0  0  0
   13.4369   -6.5023   11.8853 C   0  0  0  0  0  0  0  0  0  0  0  0
   13.2775   -7.9568   11.7756 C   0  0  0  0  0  0  0  0  0  0  0  0
   14.4597   -8.7645   11.9640 C   0  0  0  0  0  0  0  0  0  0  0  0
   15.7184   -8.1832   12.2450 C   0  0  0  0  0  0  0  0  0  0  0  0
   15.8519   -6.7866   12.3478 C   0  0  0  0  0  0  0  0  0  0  0  0
   14.7408   -5.9593   12.1722 C   0  0  0  0  0  0  0  0  0  0  0  0
   11.9314   -8.7373   11.4641 C   0  0  0  0  0  0  0  0  0  0  0  0
   10.8680   -8.0948   11.5844 O   0  0  0  0  0  0  0  0  0  0  0  0
   11.7079  -10.1565   10.9649 C   0  0  0  0  0  0  0  0  0  0  0  0
   10.7745  -10.3992    9.8873 C   0  0  0  0  0  0  0  0  0  0  0  0
   10.5538  -11.7212    9.4041 C   0  0  0  0  0  0  0  0  0  0  0  0
   11.2600  -12.8134    9.9889 C   0  0  0  0  0  0  0  0  0  0  0  0
   12.1803  -12.5838   11.0513 C   0  0  0  0  0  0  0  0  0  0  0  0
   12.4017  -11.2703   11.5338 C   0  0  0  0  0  0  0  0  0  0  0  0
 28 23  1  0  0  0
 28 30  1  0  0  0
 23  1  1  0  0  0
 23 26  1  0  0  0
  1  2  1  0  0  0
  2  3  2  0  0  0
  2  4  1  0  0  0
  3  5  1  0  0  0
  4  6  2  0  0  0
  5  7  2  0  0  0
  6  7  1  0  0  0
  7  8  1  0  0  0
  8  9  1  0  0  0
 30 31  2  0  0  0
 30 35  1  0  0  0
 31 32  1  0  0  0
 31 36  1  0  0  0
 32 33  2  0  0  0
 33 34  1  0  0  0
 34 35  2  0  0  0
 38 39  2  0  0  0
 38 43  1  0  0  0
 38 36  1  0  0  0
 39 40  1  0  0  0
 40 41  2  0  0  0
 41 42  1  0  0  0
 42 43  2  0  0  0
 36 37  2  0  0  0
 11 12  1  0  0  0
 11 15  1  0  0  0
 12 13  2  0  0  0
 12 17  1  0  0  0
 13 14  1  0  0  0
 14 15  2  0  0  0
 14 10  1  0  0  0
 15 16  1  0  0  0
 17 18  2  0  0  0
 17 22  1  0  0  0
 18 19  1  0  0  0
 19 20  2  0  0  0
 20 21  1  0  0  0
 21 22  2  0  0  0
  9 10  1  0  0  0
 24 26  2  0  0  0
 25 26  1  0  0  0
 28 29  1  0  0  0
 25 27  1  0  0  0
M  END
> <minimizedAffinity>
-11.73607

$$$$
1FM9_570_D_200


 43 47  0  0  0  0  0  0  0  0999 V2000
    9.5422   -3.5448    9.5446 C   0  0  0  0  0  0  0  0  0  0  0  0
   10.8557   -3.9109   10.2448 C   0  0  0  0  0  0  0  0  0  0  0  0
   10.8376   -4.9522   11.2299 C   0  0  0  0  0  0  0  0  0  0  0  0
   12.0828   -3.2369    9.9349 C   0  0  0  0  0  0  0  0  0  0  0  0
   12.0197   -5.3229   11.8986 C   0  0  0  0  0  0  0  0  0  0  0  0
   13.2752   -3.6011   10.6006 C   0  0  0  0  0  0  0  0  0  0  0  0
   13.2588   -4.6676   11.6092 C   0  0  0  0  0  0  0  0  0  0  0  0
   14.3808   -5.1397   12.3553 O   0  0  0  0  0  0  0  0  0  0  0  0
   15.2757   -6.1264   11.7875 C   0  0  0  0  0  0  0  0  0  0  0  0
   15.0982   -7.4417   12.5701 C   0  0  0  0  0  0  0  0  0  0  0  0
   14.0090  -10.2541   10.3847 O   0  0  0  0  0  0  0  0  0  0  0  0
   12.7812   -9.8834   10.9216 C   0  0  0  0  0  0  0  0  0  0  0  0
   13.0670   -8.7971   11.7818 N   0  0  0  0  0  0  0  0  0  0  0  0
   14.4270   -8.5794   11.7266 C   0  0  0  0  0  0  0  0  0  0  0  0
   15.0757   -9.5069   10.8361 C   0  0  0  0  0  0  0  0  0  0  0  0
   16.5610   -9.6369   10.4753 C   0  0  0  0  0  0  0  0  0  0  0  0
   11.5243  -10.4412   10.6894 C   0  0  0  0  0  0  0  0  0  0  0  0
   11.3094  -11.8674   10.6273 C   0  0  0  0  0  0  0  0  0  0  0  0
   10.0093  -12.3813   10.3833 C   0  0  0  0  0  0  0  0  0  0  0  0
    8.9164  -11.4949   10.1982 C   0  0  0  0  0  0  0  0  0  0  0  0
    9.1121  -10.0882   10.2581 C   0  0  0  0  0  0  0  0  0  0  0  0
   10.4059   -9.5626   10.4998 C   0  0  0  0  0  0  0  0  0  0  0  0
    9.3708   -4.1732    8.1262 C   0  0  0  0  0  0  0  0  0  0  0  0
    7.1912   -3.2811    8.2100 O   0  0  0  0  0  0  0  0  0  0  0  0
    7.4920   -5.0991    6.9569 O   0  0  0  0  0  0  0  0  0  0  0  0
    7.9244   -4.1728    7.7174 C   0  0  0  0  0  0  0  0  0  0  0  0
    8.0843   -5.7403    6.6162 H   0  0  0  0  0  0  0  0  0  0  0  0
   10.2405   -3.5186    7.0794 N   0  0  0  0  0  0  0  0  0  0  0  0
   10.9699   -4.0974    6.7597 H   0  0  0  0  0  0  0  0  0  0  0  0
   10.2227   -2.2038    6.4433 C   0  0  0  0  0  0  0  0  0  0  0  0
   10.5698   -2.0439    5.0267 C   0  0  0  0  0  0  0  0  0  0  0  0
   10.5223   -0.7064    4.4844 C   0  0  0  0  0  0  0  0  0  0  0  0
   10.1598    0.4049    5.2812 C   0  0  0  0  0  0  0  0  0  0  0  0
    9.8313    0.2326    6.6381 C   0  0  0  0  0  0  0  0  0  0  0  0
    9.8592   -1.0401    7.2121 C   0  0  0  0  0  0  0  0  0  0  0  0
   10.9899   -3.1985    4.0224 C   0  0  0  0  0  0  0  0  0  0  0  0
   10.4289   -4.3038    4.1697 O   0  0  0  0  0  0  0  0  0  0  0  0
   11.9375   -3.1738    2.8329 C   0  0  0  0  0  0  0  0  0  0  0  0
   12.8273   -2.0490    2.6480 C   0  0  0  0  0  0  0  0  0  0  0  0
   13.7240   -2.0089    1.5414 C   0  0  0  0  0  0  0  0  0  0  0  0
   13.7432   -3.0879    0.6093 C   0  0  0  0  0  0  0  0  0  0  0  0
   12.8696   -4.1992    0.7830 C   0  0  0  0  0  0  0  0  0  0  0  0
   11.9769   -4.2417    1.8823 C   0  0  0  0  0  0  0  0  0  0  0  0
 28 23  1  0  0  0
 28 30  1  0  0  0
 23  1  1  0  0  0
 23 26  1  0  0  0
  1  2  1  0  0  0
  2  3  2  0  0  0
  2  4  1  0  0  0
  3  5  1  0  0  0
  4  6  2  0  0  0
  5  7  2  0  0  0
  6  7  1  0  0  0
  7  8  1  0  0  0
  8  9  1  0  0  0
 30 31  2  0  0  0
 30 35  1  0  0  0
 31 32  1  0  0  0
 31 36  1  0  0  0
 32 33  2  0  0  0
 33 34  1  0  0  0
 34 35  2  0  0  0
 38 39  2  0  0  0
 38 43  1  0  0  0
 38 36  1  0  0  0
 39 40  1  0  0  0
 40 41  2  0  0  0
 41 42  1  0  0  0
 42 43  2  0  0  0
 36 37  2  0  0  0
 11 12  1  0  0  0
 11 15  1  0  0  0
 12 13  2  0  0  0
 12 17  1  0  0  0
 13 14  1  0  0  0
 14 15  2  0  0  0
 14 10  1  0  0  0
 15 16  1  0  0  0
 17 18  2  0  0  0
 17 22  1  0  0  0
 18 19  1  0  0  0
 19 20  2  0  0  0
 20 21  1  0  0  0
 21 22  2  0  0  0
  9 10  1  0  0  0
 24 26  2  0  0  0
 25 26  1  0  0  0
 28 29  1  0  0  0
 25 27  1  0  0  0
M  END
> <minimizedAffinity>
-11.65875

$$$$
1FM9_570_D_200


 43 47  0  0  0  0  0  0  0  0999 V2000
    9.6490   -7.3099    0.9157 C   0  0  0  0  0  0  0  0  0  0  0  0
    9.9093   -6.4777    2.1763 C   0  0  0  0  0  0  0  0  0  0  0  0
   10.3583   -5.1250    2.0214 C   0  0  0  0  0  0  0  0  0  0  0  0
    9.7148   -7.0239    3.4879 C   0  0  0  0  0  0  0  0  0  0  0  0
   10.6098   -4.3226    3.1505 C   0  0  0  0  0  0  0  0  0  0  0  0
    9.9647   -6.2269    4.6280 C   0  0  0  0  0  0  0  0  0  0  0  0
   10.4238   -4.8414    4.4714 C   0  0  0  0  0  0  0  0  0  0  0  0
   10.7120   -3.9243    5.5270 O   0  0  0  0  0  0  0  0  0  0  0  0
   10.6974   -2.4971    5.2821 C   0  0  0  0  0  0  0  0  0  0  0  0
    9.9781   -1.8154    6.4619 C   0  0  0  0  0  0  0  0  0  0  0  0
    9.5017   -4.0093    9.4338 O   0  0  0  0  0  0  0  0  0  0  0  0
   10.7850   -3.5399    9.6903 C   0  0  0  0  0  0  0  0  0  0  0  0
   11.0838   -2.6733    8.6126 N   0  0  0  0  0  0  0  0  0  0  0  0
    9.9898   -2.6724    7.7740 C   0  0  0  0  0  0  0  0  0  0  0  0
    8.9439   -3.5305    8.2677 C   0  0  0  0  0  0  0  0  0  0  0  0
    7.5670   -3.8368    7.6648 C   0  0  0  0  0  0  0  0  0  0  0  0
   11.6247   -3.8403   10.7625 C   0  0  0  0  0  0  0  0  0  0  0  0
   11.2828   -4.8243   11.7619 C   0  0  0  0  0  0  0  0  0  0  0  0
   12.1729   -5.0875   12.8354 C   0  0  0  0  0  0  0  0  0  0  0  0
   13.4015   -4.3833   12.9307 C   0  0  0  0  0  0  0  0  0  0  0  0
   13.7527   -3.4126   11.9534 C   0  0  0  0  0  0  0  0  0  0  0  0
   12.8717   -3.1399   10.8773 C   0  0  0  0  0  0  0  0  0  0  0  0
   10.9169   -8.0064    0.3298 C   0  0  0  0  0  0  0  0  0  0  0  0
    9.8681   -8.6021   -1.6947 O   0  0  0  0  0  0  0  0  0  0  0  0
   10.8282  -10.2431   -0.5326 O   0  0  0  0  0  0  0  0  0  0  0  0
   10.5319   -9.0173   -0.7138 C   0  0  0  0  0  0  0  0  0  0  0  0
   11.3270  -10.4985    0.2185 H   0  0  0  0  0  0  0  0  0  0  0  0
   11.9387   -7.0283   -0.1995 N   0  0  0  0  0  0  0  0  0  0  0  0
   11.5502   -6.3309   -0.7757 H   0  0  0  0  0  0  0  0  0  0  0  0
   13.3845   -6.9036   -0.0329 C   0  0  0  0  0  0  0  0  0  0  0  0
   14.0378   -5.5900   -0.0529 C   0  0  0  0  0  0  0  0  0  0  0  0
   15.4711   -5.5652    0.1218 C   0  0  0  0  0  0  0  0  0  0  0  0
   16.2173   -6.7534    0.3019 C   0  0  0  0  0  0  0  0  0  0  0  0
   15.5738   -8.0042    0.3170 C   0  0  0  0  0  0  0  0  0  0  0  0
   14.1892   -8.0845    0.1548 C   0  0  0  0  0  0  0  0  0  0  0  0
   13.3251   -4.1849   -0.2429 C   0  0  0  0  0  0  0  0  0  0  0  0
   12.3296   -4.1564   -0.9952 O   0  0  0  0  0  0  0  0  0  0  0  0
   13.6124   -2.8386    0.4039 C   0  0  0  0  0  0  0  0  0  0  0  0
   13.5193   -2.6984    1.8402 C   0  0  0  0  0  0  0  0  0  0  0  0
   13.7873   -1.4461    2.4647 C   0  0  0  0  0  0  0  0  0  0  0  0
   14.1507   -0.3224    1.6654 C   0  0  0  0  0  0  0  0  0  0  0  0
   14.2437   -0.4511    0.2501 C   0  0  0  0  0  0  0  0  0  0  0  0
   13.9777   -1.6950   -0.3735 C   0  0  0  0  0  0  0  0  0  0  0  0
 28 23  1  0  0  0
 28 30  1  0  0  0
 23  1  1  0  0  0
 23 26  1  0  0  0
  1  2  1  0  0  0
  2  3  2  0  0  0
  2  4  1  0  0  0
  3  5  1  0  0  0
  4  6  2  0  0  0
  5  7  2  0  0  0
  6  7  1  0  0  0
  7  8  1  0  0  0
  8  9  1  0  0  0
 30 31  2  0  0  0
 30 35  1  0  0  0
 31 32  1  0  0  0
 31 36  1  0  0  0
 32 33  2  0  0  0
 33 34  1  0  0  0
 34 35  2  0  0  0
 38 39  2  0  0  0
 38 43  1  0  0  0
 38 36  1  0  0  0
 39 40  1  0  0  0
 40 41  2  0  0  0
 41 42  1  0  0  0
 42 43  2  0  0  0
 36 37  2  0  0  0
 11 12  1  0  0  0
 11 15  1  0  0  0
 12 13  2  0  0  0
 12 17  1  0  0  0
 13 14  1  0  0  0
 14 15  2  0  0  0
 14 10  1  0  0  0
 15 16  1  0  0  0
 17 18  2  0  0  0
 17 22  1  0  0  0
 18 19  1  0  0  0
 19 20  2  0  0  0
 20 21  1  0  0  0
 21 22  2  0  0  0
  9 10  1  0  0  0
 24 26  2  0  0  0
 25 26  1  0  0  0
 28 29  1  0  0  0
 25 27  1  0  0  0
M  END
> <minimizedAffinity>
-11.50303

$$$$
