2V77_PAY_A_400


 24 23  0  0  0  0  0  0  0  0999 V2000
  115.9266   42.8923   48.5365 C   0  0  0  0  0  0  0  0  0  0  0  0
  115.8172   41.8063   47.3810 C   0  0  0  0  0  0  0  0  0  0  0  0
  116.6596   40.5625   47.6279 C   0  0  0  0  0  0  0  0  0  0  0  0
  117.5623   40.2342   46.8136 O   0  0  0  0  0  0  0  0  0  0  0  0
  116.4107   39.9072   48.6759 O   0  0  0  0  0  0  0  0  0  0  0  0
  115.7290   40.1888   49.2537 H   0  0  0  0  0  0  0  0  0  0  0  0
  116.1459   42.4214   45.9805 C   0  0  0  0  0  0  0  0  0  0  0  0
  114.9794   42.3461   44.9436 C   0  0  0  0  0  0  0  0  0  0  0  0
  114.2978   40.9603   43.1065 O   0  0  0  0  0  0  0  0  0  0  0  0
  116.4472   41.0223   43.6320 O   0  0  0  0  0  0  0  0  0  0  0  0
  115.2555   41.3773   43.8138 C   0  0  0  0  0  0  0  0  0  0  0  0
  113.4249   41.2536   43.2800 H   0  0  0  0  0  0  0  0  0  0  0  0
  115.0258   42.6398   49.7946 C   0  0  0  0  0  0  0  0  0  0  0  0
  113.6942   42.0392   49.4106 C   0  0  0  0  0  0  0  0  0  0  0  0
  113.5396   40.7881   49.4022 O   0  0  0  0  0  0  0  0  0  0  0  0
  112.7675   42.8576   49.1280 O   0  0  0  0  0  0  0  0  0  0  0  0
  112.9341   43.7795   49.1490 H   0  0  0  0  0  0  0  0  0  0  0  0
  114.9046   43.9525   50.6679 C   0  0  0  0  0  0  0  0  0  0  0  0
  114.3596   43.7316   52.1254 C   0  0  0  0  0  0  0  0  0  0  0  0
  114.7009   44.9488   53.0291 C   0  0  0  0  0  0  0  0  0  0  0  0
  114.9437   42.4815   52.7681 C   0  0  0  0  0  0  0  0  0  0  0  0
  114.1805   41.5129   53.0373 O   0  0  0  0  0  0  0  0  0  0  0  0
  116.1803   42.4600   53.0042 O   0  0  0  0  0  0  0  0  0  0  0  0
  113.2652   41.5701   52.8451 H   0  0  0  0  0  0  0  0  0  0  0  0
  9 11  1  0  0  0
 10 11  2  0  0  0
 11  8  1  0  0  0
  8  7  1  0  0  0
  7  2  1  0  0  0
  2  3  1  0  0  0
  2  1  1  0  0  0
  3  4  2  0  0  0
  3  5  1  0  0  0
  1 13  1  0  0  0
 13 14  1  0  0  0
 13 18  1  0  0  0
 14 15  2  0  0  0
 14 16  1  0  0  0
 18 19  1  0  0  0
 19 20  1  0  0  0
 19 21  1  0  0  0
 21 22  1  0  0  0
 21 23  2  0  0  0
  9 12  1  0  0  0
  5  6  1  0  0  0
 16 17  1  0  0  0
 22 24  1  0  0  0
M  END
> <minimizedAffinity>
-7.78818

$$$$
2V77_PAY_A_400


 24 23  0  0  0  0  0  0  0  0999 V2000
  115.7518   42.7691   48.9972 C   0  0  0  0  0  0  0  0  0  0  0  0
  115.7598   41.6984   47.8225 C   0  0  0  0  0  0  0  0  0  0  0  0
  115.8666   40.2589   48.3066 C   0  0  0  0  0  0  0  0  0  0  0  0
  116.4637   39.9929   49.3829 O   0  0  0  0  0  0  0  0  0  0  0  0
  115.3244   39.3765   47.5876 O   0  0  0  0  0  0  0  0  0  0  0  0
  114.8905   39.6205   46.7938 H   0  0  0  0  0  0  0  0  0  0  0  0
  116.8761   42.0067   46.7706 C   0  0  0  0  0  0  0  0  0  0  0  0
  116.4545   43.0035   45.6435 C   0  0  0  0  0  0  0  0  0  0  0  0
  114.2581   43.0251   44.6765 O   0  0  0  0  0  0  0  0  0  0  0  0
  115.6524   41.4142   44.0757 O   0  0  0  0  0  0  0  0  0  0  0  0
  115.3780   42.4476   44.7362 C   0  0  0  0  0  0  0  0  0  0  0  0
  114.0996   43.7938   45.1882 H   0  0  0  0  0  0  0  0  0  0  0  0
  114.7395   42.4932   50.1621 C   0  0  0  0  0  0  0  0  0  0  0  0
  113.4702   43.2944   49.9939 C   0  0  0  0  0  0  0  0  0  0  0  0
  113.3360   44.4033   50.5784 O   0  0  0  0  0  0  0  0  0  0  0  0
  112.5875   42.7980   49.2305 O   0  0  0  0  0  0  0  0  0  0  0  0
  112.7360   41.9692   48.8194 H   0  0  0  0  0  0  0  0  0  0  0  0
  115.4366   42.6916   51.5675 C   0  0  0  0  0  0  0  0  0  0  0  0
  114.8005   41.8686   52.7456 C   0  0  0  0  0  0  0  0  0  0  0  0
  114.6774   42.7448   54.0231 C   0  0  0  0  0  0  0  0  0  0  0  0
  115.6255   40.6366   53.0898 C   0  0  0  0  0  0  0  0  0  0  0  0
  116.3275   40.0943   52.1918 O   0  0  0  0  0  0  0  0  0  0  0  0
  115.5791   40.2043   54.2715 O   0  0  0  0  0  0  0  0  0  0  0  0
  116.3335   40.4483   51.3242 H   0  0  0  0  0  0  0  0  0  0  0  0
  9 11  1  0  0  0
 10 11  2  0  0  0
 11  8  1  0  0  0
  8  7  1  0  0  0
  7  2  1  0  0  0
  2  3  1  0  0  0
  2  1  1  0  0  0
  3  4  2  0  0  0
  3  5  1  0  0  0
  1 13  1  0  0  0
 13 14  1  0  0  0
 13 18  1  0  0  0
 14 15  2  0  0  0
 14 16  1  0  0  0
 18 19  1  0  0  0
 19 20  1  0  0  0
 19 21  1  0  0  0
 21 22  1  0  0  0
 21 23  2  0  0  0
  9 12  1  0  0  0
  5  6  1  0  0  0
 16 17  1  0  0  0
 22 24  1  0  0  0
M  END
> <minimizedAffinity>
-7.58254

$$$$
2V77_PAY_A_400


 24 23  0  0  0  0  0  0  0  0999 V2000
  115.7007   43.4635   49.3516 C   0  0  0  0  0  0  0  0  0  0  0  0
  114.9250   43.1778   50.7092 C   0  0  0  0  0  0  0  0  0  0  0  0
  113.4930   43.6946   50.7167 C   0  0  0  0  0  0  0  0  0  0  0  0
  113.1083   44.4883   51.6155 O   0  0  0  0  0  0  0  0  0  0  0  0
  112.7414   43.2976   49.7854 O   0  0  0  0  0  0  0  0  0  0  0  0
  113.0707   42.7063   49.1375 H   0  0  0  0  0  0  0  0  0  0  0  0
  115.7110   43.7243   51.9468 C   0  0  0  0  0  0  0  0  0  0  0  0
  115.7957   42.7371   53.1550 C   0  0  0  0  0  0  0  0  0  0  0  0
  116.0781   40.5393   52.2329 O   0  0  0  0  0  0  0  0  0  0  0  0
  114.1227   41.0554   53.1331 O   0  0  0  0  0  0  0  0  0  0  0  0
  115.3036   41.3462   52.8164 C   0  0  0  0  0  0  0  0  0  0  0  0
  116.9512   40.8015   52.0165 H   0  0  0  0  0  0  0  0  0  0  0  0
  115.6106   42.3355   48.2665 C   0  0  0  0  0  0  0  0  0  0  0  0
  115.3246   40.9896   48.8895 C   0  0  0  0  0  0  0  0  0  0  0  0
  116.2728   40.2293   49.2243 O   0  0  0  0  0  0  0  0  0  0  0  0
  114.1028   40.6984   49.0655 O   0  0  0  0  0  0  0  0  0  0  0  0
  113.4349   41.2990   48.7986 H   0  0  0  0  0  0  0  0  0  0  0  0
  116.8910   42.3488   47.3386 C   0  0  0  0  0  0  0  0  0  0  0  0
  116.6230   41.9850   45.8333 C   0  0  0  0  0  0  0  0  0  0  0  0
  115.0992   41.9973   45.5288 C   0  0  0  0  0  0  0  0  0  0  0  0
  117.1703   40.6109   45.4736 C   0  0  0  0  0  0  0  0  0  0  0  0
  117.3498   39.7601   46.3886 O   0  0  0  0  0  0  0  0  0  0  0  0
  117.4208   40.3718   44.2630 O   0  0  0  0  0  0  0  0  0  0  0  0
  117.1503   39.9791   47.2776 H   0  0  0  0  0  0  0  0  0  0  0  0
  9 11  1  0  0  0
 10 11  2  0  0  0
 11  8  1  0  0  0
  8  7  1  0  0  0
  7  2  1  0  0  0
  2  3  1  0  0  0
  2  1  1  0  0  0
  3  4  2  0  0  0
  3  5  1  0  0  0
  1 13  1  0  0  0
 13 14  1  0  0  0
 13 18  1  0  0  0
 14 15  2  0  0  0
 14 16  1  0  0  0
 18 19  1  0  0  0
 19 20  1  0  0  0
 19 21  1  0  0  0
 21 22  1  0  0  0
 21 23  2  0  0  0
  9 12  1  0  0  0
  5  6  1  0  0  0
 16 17  1  0  0  0
 22 24  1  0  0  0
M  END
> <minimizedAffinity>
-7.47223

$$$$
2V77_PAY_A_400


 24 23  0  0  0  0  0  0  0  0999 V2000
  115.8178   43.1404   49.2736 C   0  0  0  0  0  0  0  0  0  0  0  0
  114.7875   42.8941   50.4587 C   0  0  0  0  0  0  0  0  0  0  0  0
  113.4054   43.4777   50.1998 C   0  0  0  0  0  0  0  0  0  0  0  0
  113.0485   44.5429   50.7685 O   0  0  0  0  0  0  0  0  0  0  0  0
  112.6664   42.8504   49.3936 O   0  0  0  0  0  0  0  0  0  0  0  0
  112.9738   42.0609   48.9933 H   0  0  0  0  0  0  0  0  0  0  0  0
  115.3506   43.4053   51.8260 C   0  0  0  0  0  0  0  0  0  0  0  0
  116.4853   44.4730   51.7072 C   0  0  0  0  0  0  0  0  0  0  0  0
  114.8027   46.0922   52.2611 O   0  0  0  0  0  0  0  0  0  0  0  0
  116.9196   46.7392   52.2576 O   0  0  0  0  0  0  0  0  0  0  0  0
  116.0330   45.8618   52.1044 C   0  0  0  0  0  0  0  0  0  0  0  0
  114.1777   45.4053   52.1356 H   0  0  0  0  0  0  0  0  0  0  0  0
  115.7742   42.0948   48.1062 C   0  0  0  0  0  0  0  0  0  0  0  0
  115.6034   40.6881   48.6290 C   0  0  0  0  0  0  0  0  0  0  0  0
  116.6055   39.9365   48.7712 O   0  0  0  0  0  0  0  0  0  0  0  0
  114.4214   40.3367   48.9253 O   0  0  0  0  0  0  0  0  0  0  0  0
  113.7100   40.9336   48.8007 H   0  0  0  0  0  0  0  0  0  0  0  0
  117.0211   42.2721   47.1500 C   0  0  0  0  0  0  0  0  0  0  0  0
  116.7215   42.0559   45.6224 C   0  0  0  0  0  0  0  0  0  0  0  0
  115.1964   42.1592   45.3424 C   0  0  0  0  0  0  0  0  0  0  0  0
  117.2052   40.6977   45.1341 C   0  0  0  0  0  0  0  0  0  0  0  0
  117.3879   39.7710   45.9714 O   0  0  0  0  0  0  0  0  0  0  0  0
  117.4016   40.5482   43.8994 O   0  0  0  0  0  0  0  0  0  0  0  0
  117.2297   39.9245   46.8821 H   0  0  0  0  0  0  0  0  0  0  0  0
  9 11  1  0  0  0
 10 11  2  0  0  0
 11  8  1  0  0  0
  8  7  1  0  0  0
  7  2  1  0  0  0
  2  3  1  0  0  0
  2  1  1  0  0  0
  3  4  2  0  0  0
  3  5  1  0  0  0
  1 13  1  0  0  0
 13 14  1  0  0  0
 13 18  1  0  0  0
 14 15  2  0  0  0
 14 16  1  0  0  0
 18 19  1  0  0  0
 19 20  1  0  0  0
 19 21  1  0  0  0
 21 22  1  0  0  0
 21 23  2  0  0  0
  9 12  1  0  0  0
  5  6  1  0  0  0
 16 17  1  0  0  0
 22 24  1  0  0  0
M  END
> <minimizedAffinity>
-7.40000

$$$$
2V77_PAY_A_400


 24 23  0  0  0  0  0  0  0  0999 V2000
  115.9985   42.9345   48.8270 C   0  0  0  0  0  0  0  0  0  0  0  0
  115.9568   41.9464   47.5826 C   0  0  0  0  0  0  0  0  0  0  0  0
  116.7043   40.6402   47.8126 C   0  0  0  0  0  0  0  0  0  0  0  0
  117.6705   40.3216   47.0705 O   0  0  0  0  0  0  0  0  0  0  0  0
  116.3128   39.9237   48.7733 O   0  0  0  0  0  0  0  0  0  0  0  0
  115.5888   40.2006   49.2996 H   0  0  0  0  0  0  0  0  0  0  0  0
  116.4623   42.6442   46.2767 C   0  0  0  0  0  0  0  0  0  0  0  0
  116.2352   41.8228   44.9671 C   0  0  0  0  0  0  0  0  0  0  0  0
  114.2304   43.1110   44.6817 O   0  0  0  0  0  0  0  0  0  0  0  0
  114.4973   41.2978   43.4402 O   0  0  0  0  0  0  0  0  0  0  0  0
  114.8954   42.1018   44.3201 C   0  0  0  0  0  0  0  0  0  0  0  0
  114.5686   43.6827   45.3425 H   0  0  0  0  0  0  0  0  0  0  0  0
  114.9433   42.6556   49.9525 C   0  0  0  0  0  0  0  0  0  0  0  0
  113.6740   42.0635   49.3871 C   0  0  0  0  0  0  0  0  0  0  0  0
  113.5688   40.8171   49.2299 O   0  0  0  0  0  0  0  0  0  0  0  0
  112.7447   42.8814   49.1116 O   0  0  0  0  0  0  0  0  0  0  0  0
  112.8734   43.7996   49.2468 H   0  0  0  0  0  0  0  0  0  0  0  0
  114.7068   43.9496   50.8301 C   0  0  0  0  0  0  0  0  0  0  0  0
  115.9578   44.4331   51.6495 C   0  0  0  0  0  0  0  0  0  0  0  0
  116.1574   43.5545   52.9156 C   0  0  0  0  0  0  0  0  0  0  0  0
  115.8229   45.8834   52.0915 C   0  0  0  0  0  0  0  0  0  0  0  0
  114.6813   46.3342   52.3864 O   0  0  0  0  0  0  0  0  0  0  0  0
  116.8677   46.5836   52.1515 O   0  0  0  0  0  0  0  0  0  0  0  0
  113.9289   45.7788   52.3281 H   0  0  0  0  0  0  0  0  0  0  0  0
  9 11  1  0  0  0
 10 11  2  0  0  0
 11  8  1  0  0  0
  8  7  1  0  0  0
  7  2  1  0  0  0
  2  3  1  0  0  0
  2  1  1  0  0  0
  3  4  2  0  0  0
  3  5  1  0  0  0
  1 13  1  0  0  0
 13 14  1  0  0  0
 13 18  1  0  0  0
 14 15  2  0  0  0
 14 16  1  0  0  0
 18 19  1  0  0  0
 19 20  1  0  0  0
 19 21  1  0  0  0
 21 22  1  0  0  0
 21 23  2  0  0  0
  9 12  1  0  0  0
  5  6  1  0  0  0
 16 17  1  0  0  0
 22 24  1  0  0  0
M  END
> <minimizedAffinity>
-7.34855

$$$$
2V77_PAY_A_400


 24 23  0  0  0  0  0  0  0  0999 V2000
  114.0859   41.8797   48.8203 C   0  0  0  0  0  0  0  0  0  0  0  0
  114.9409   42.4601   50.0280 C   0  0  0  0  0  0  0  0  0  0  0  0
  114.6768   41.7635   51.3557 C   0  0  0  0  0  0  0  0  0  0  0  0
  115.5831   41.0875   51.9102 O   0  0  0  0  0  0  0  0  0  0  0  0
  113.5292   41.9119   51.8562 O   0  0  0  0  0  0  0  0  0  0  0  0
  112.8852   42.4242   51.4079 H   0  0  0  0  0  0  0  0  0  0  0  0
  114.7541   44.0066   50.1741 C   0  0  0  0  0  0  0  0  0  0  0  0
  115.4797   44.6389   51.4051 C   0  0  0  0  0  0  0  0  0  0  0  0
  113.2772   45.1111   52.2333 O   0  0  0  0  0  0  0  0  0  0  0  0
  115.0125   45.6876   53.4809 O   0  0  0  0  0  0  0  0  0  0  0  0
  114.5193   45.1802   52.4424 C   0  0  0  0  0  0  0  0  0  0  0  0
  112.9560   44.7234   51.4431 H   0  0  0  0  0  0  0  0  0  0  0  0
  114.9085   41.2237   47.6580 C   0  0  0  0  0  0  0  0  0  0  0  0
  115.6257   39.9780   48.1218 C   0  0  0  0  0  0  0  0  0  0  0  0
  115.3384   38.8561   47.6237 O   0  0  0  0  0  0  0  0  0  0  0  0
  116.5230   40.1396   49.0034 O   0  0  0  0  0  0  0  0  0  0  0  0
  116.6983   40.9956   49.3420 H   0  0  0  0  0  0  0  0  0  0  0  0
  115.8577   42.2882   46.9749 C   0  0  0  0  0  0  0  0  0  0  0  0
  116.1557   42.0313   45.4533 C   0  0  0  0  0  0  0  0  0  0  0  0
  117.2555   43.0009   44.9383 C   0  0  0  0  0  0  0  0  0  0  0  0
  114.9149   42.2162   44.5911 C   0  0  0  0  0  0  0  0  0  0  0  0
  114.1910   43.2357   44.7635 O   0  0  0  0  0  0  0  0  0  0  0  0
  114.6588   41.3377   43.7262 O   0  0  0  0  0  0  0  0  0  0  0  0
  114.4176   43.8659   45.4188 H   0  0  0  0  0  0  0  0  0  0  0  0
  9 11  1  0  0  0
 10 11  2  0  0  0
 11  8  1  0  0  0
  8  7  1  0  0  0
  7  2  1  0  0  0
  2  3  1  0  0  0
  2  1  1  0  0  0
  3  4  2  0  0  0
  3  5  1  0  0  0
  1 13  1  0  0  0
 13 14  1  0  0  0
 13 18  1  0  0  0
 14 15  2  0  0  0
 14 16  1  0  0  0
 18 19  1  0  0  0
 19 20  1  0  0  0
 19 21  1  0  0  0
 21 22  1  0  0  0
 21 23  2  0  0  0
  9 12  1  0  0  0
  5  6  1  0  0  0
 16 17  1  0  0  0
 22 24  1  0  0  0
M  END
> <minimizedAffinity>
-7.27983

$$$$
2V77_PAY_A_400


 24 23  0  0  0  0  0  0  0  0999 V2000
  115.6558   43.4360   50.3546 C   0  0  0  0  0  0  0  0  0  0  0  0
  115.2441   42.6304   49.0477 C   0  0  0  0  0  0  0  0  0  0  0  0
  114.9708   41.1540   49.2990 C   0  0  0  0  0  0  0  0  0  0  0  0
  115.9017   40.3883   49.6635 O   0  0  0  0  0  0  0  0  0  0  0  0
  113.7843   40.7603   49.1349 O   0  0  0  0  0  0  0  0  0  0  0  0
  113.1232   41.3659   48.8625 H   0  0  0  0  0  0  0  0  0  0  0  0
  116.3008   42.8055   47.9073 C   0  0  0  0  0  0  0  0  0  0  0  0
  116.0317   41.9471   46.6297 C   0  0  0  0  0  0  0  0  0  0  0  0
  116.9977   39.7525   46.7334 O   0  0  0  0  0  0  0  0  0  0  0  0
  118.1499   41.3592   45.7380 O   0  0  0  0  0  0  0  0  0  0  0  0
  117.1320   40.9462   46.3486 C   0  0  0  0  0  0  0  0  0  0  0  0
  116.2198   39.4908   47.1856 H   0  0  0  0  0  0  0  0  0  0  0  0
  114.9858   42.9563   51.6884 C   0  0  0  0  0  0  0  0  0  0  0  0
  113.4788   43.0053   51.5999 C   0  0  0  0  0  0  0  0  0  0  0  0
  112.7983   41.9550   51.7519 O   0  0  0  0  0  0  0  0  0  0  0  0
  112.9634   44.1451   51.3903 O   0  0  0  0  0  0  0  0  0  0  0  0
  113.5140   44.8958   51.2840 H   0  0  0  0  0  0  0  0  0  0  0  0
  115.5772   43.7436   52.9258 C   0  0  0  0  0  0  0  0  0  0  0  0
  116.5170   44.9483   52.5578 C   0  0  0  0  0  0  0  0  0  0  0  0
  117.7623   44.9764   53.4869 C   0  0  0  0  0  0  0  0  0  0  0  0
  115.8012   46.2862   52.6788 C   0  0  0  0  0  0  0  0  0  0  0  0
  114.5749   46.3577   52.3884 O   0  0  0  0  0  0  0  0  0  0  0  0
  116.4664   47.2799   53.0733 O   0  0  0  0  0  0  0  0  0  0  0  0
  114.1168   45.5934   52.0984 H   0  0  0  0  0  0  0  0  0  0  0  0
  9 11  1  0  0  0
 10 11  2  0  0  0
 11  8  1  0  0  0
  8  7  1  0  0  0
  7  2  1  0  0  0
  2  3  1  0  0  0
  2  1  1  0  0  0
  3  4  2  0  0  0
  3  5  1  0  0  0
  1 13  1  0  0  0
 13 14  1  0  0  0
 13 18  1  0  0  0
 14 15  2  0  0  0
 14 16  1  0  0  0
 18 19  1  0  0  0
 19 20  1  0  0  0
 19 21  1  0  0  0
 21 22  1  0  0  0
 21 23  2  0  0  0
  9 12  1  0  0  0
  5  6  1  0  0  0
 16 17  1  0  0  0
 22 24  1  0  0  0
M  END
> <minimizedAffinity>
-6.71063

$$$$
2V77_PAY_A_400


 24 23  0  0  0  0  0  0  0  0999 V2000
  114.7858   43.6471   54.4706 C   0  0  0  0  0  0  0  0  0  0  0  0
  114.8354   43.8655   52.8970 C   0  0  0  0  0  0  0  0  0  0  0  0
  114.2096   45.1763   52.4407 C   0  0  0  0  0  0  0  0  0  0  0  0
  114.8368   46.2601   52.5731 O   0  0  0  0  0  0  0  0  0  0  0  0
  113.0608   45.1078   51.9259 O   0  0  0  0  0  0  0  0  0  0  0  0
  112.6311   44.2788   51.8475 H   0  0  0  0  0  0  0  0  0  0  0  0
  114.2016   42.6591   52.1285 C   0  0  0  0  0  0  0  0  0  0  0  0
  114.7249   42.4666   50.6689 C   0  0  0  0  0  0  0  0  0  0  0  0
  112.7016   43.0106   49.4983 O   0  0  0  0  0  0  0  0  0  0  0  0
  113.6635   41.0615   49.0794 O   0  0  0  0  0  0  0  0  0  0  0  0
  113.6190   42.1642   49.6804 C   0  0  0  0  0  0  0  0  0  0  0  0
  112.7106   43.8202   49.9700 H   0  0  0  0  0  0  0  0  0  0  0  0
  115.2675   42.2440   54.9780 C   0  0  0  0  0  0  0  0  0  0  0  0
  115.0221   42.0766   56.4589 C   0  0  0  0  0  0  0  0  0  0  0  0
  115.3733   42.9777   57.2676 O   0  0  0  0  0  0  0  0  0  0  0  0
  114.4372   41.0094   56.8159 O   0  0  0  0  0  0  0  0  0  0  0  0
  114.1967   40.3699   56.1747 H   0  0  0  0  0  0  0  0  0  0  0  0
  116.7652   41.9774   54.5463 C   0  0  0  0  0  0  0  0  0  0  0  0
  117.1832   40.4630   54.5021 C   0  0  0  0  0  0  0  0  0  0  0  0
  118.6698   40.3164   54.0737 C   0  0  0  0  0  0  0  0  0  0  0  0
  116.3258   39.6639   53.5309 C   0  0  0  0  0  0  0  0  0  0  0  0
  115.5009   38.8232   53.9848 O   0  0  0  0  0  0  0  0  0  0  0  0
  116.4706   39.8786   52.2987 O   0  0  0  0  0  0  0  0  0  0  0  0
  115.4246   38.6941   54.9098 H   0  0  0  0  0  0  0  0  0  0  0  0
  9 11  1  0  0  0
 10 11  2  0  0  0
 11  8  1  0  0  0
  8  7  1  0  0  0
  7  2  1  0  0  0
  2  3  1  0  0  0
  2  1  1  0  0  0
  3  4  2  0  0  0
  3  5  1  0  0  0
  1 13  1  0  0  0
 13 14  1  0  0  0
 13 18  1  0  0  0
 14 15  2  0  0  0
 14 16  1  0  0  0
 18 19  1  0  0  0
 19 20  1  0  0  0
 19 21  1  0  0  0
 21 22  1  0  0  0
 21 23  2  0  0  0
  9 12  1  0  0  0
  5  6  1  0  0  0
 16 17  1  0  0  0
 22 24  1  0  0  0
M  END
> <minimizedAffinity>
-6.35232

$$$$
2V77_PAY_A_400


 24 23  0  0  0  0  0  0  0  0999 V2000
  115.7064   43.4326   50.5533 C   0  0  0  0  0  0  0  0  0  0  0  0
  114.9031   42.9278   49.2780 C   0  0  0  0  0  0  0  0  0  0  0  0
  113.5413   42.3326   49.6081 C   0  0  0  0  0  0  0  0  0  0  0  0
  113.4539   41.1683   50.0798 O   0  0  0  0  0  0  0  0  0  0  0  0
  112.5359   43.0633   49.3962 O   0  0  0  0  0  0  0  0  0  0  0  0
  112.6484   43.9242   49.0437 H   0  0  0  0  0  0  0  0  0  0  0  0
  115.7480   41.9235   48.4263 C   0  0  0  0  0  0  0  0  0  0  0  0
  116.4361   42.5492   47.1707 C   0  0  0  0  0  0  0  0  0  0  0  0
  116.9120   41.7303   44.9655 O   0  0  0  0  0  0  0  0  0  0  0  0
  114.8739   41.4338   45.7768 O   0  0  0  0  0  0  0  0  0  0  0  0
  116.0531   41.8558   45.8808 C   0  0  0  0  0  0  0  0  0  0  0  0
  117.7799   42.0614   45.0889 H   0  0  0  0  0  0  0  0  0  0  0  0
  114.8781   43.5402   51.8801 C   0  0  0  0  0  0  0  0  0  0  0  0
  114.2465   44.9041   52.0294 C   0  0  0  0  0  0  0  0  0  0  0  0
  114.9629   45.9143   52.2652 O   0  0  0  0  0  0  0  0  0  0  0  0
  112.9880   44.9612   51.8836 O   0  0  0  0  0  0  0  0  0  0  0  0
  112.5006   44.1801   51.7094 H   0  0  0  0  0  0  0  0  0  0  0  0
  115.7536   43.1041   53.1226 C   0  0  0  0  0  0  0  0  0  0  0  0
  115.0707   42.0638   54.0827 C   0  0  0  0  0  0  0  0  0  0  0  0
  114.9096   42.6577   55.5097 C   0  0  0  0  0  0  0  0  0  0  0  0
  115.8743   40.7755   54.1900 C   0  0  0  0  0  0  0  0  0  0  0  0
  115.3684   39.6970   53.7724 O   0  0  0  0  0  0  0  0  0  0  0  0
  117.0273   40.8371   54.6921 O   0  0  0  0  0  0  0  0  0  0  0  0
  114.5064   39.6952   53.4053 H   0  0  0  0  0  0  0  0  0  0  0  0
  9 11  1  0  0  0
 10 11  2  0  0  0
 11  8  1  0  0  0
  8  7  1  0  0  0
  7  2  1  0  0  0
  2  3  1  0  0  0
  2  1  1  0  0  0
  3  4  2  0  0  0
  3  5  1  0  0  0
  1 13  1  0  0  0
 13 14  1  0  0  0
 13 18  1  0  0  0
 14 15  2  0  0  0
 14 16  1  0  0  0
 18 19  1  0  0  0
 19 20  1  0  0  0
 19 21  1  0  0  0
 21 22  1  0  0  0
 21 23  2  0  0  0
  9 12  1  0  0  0
  5  6  1  0  0  0
 16 17  1  0  0  0
 22 24  1  0  0  0
M  END
> <minimizedAffinity>
-6.33950

$$$$
2V77_PAY_A_400


 24 23  0  0  0  0  0  0  0  0999 V2000
  114.4074   41.9053   52.0153 C   0  0  0  0  0  0  0  0  0  0  0  0
  114.5578   42.5409   50.5662 C   0  0  0  0  0  0  0  0  0  0  0  0
  113.4097   43.4630   50.1799 C   0  0  0  0  0  0  0  0  0  0  0  0
  113.3584   44.6376   50.6309 O   0  0  0  0  0  0  0  0  0  0  0  0
  112.5443   42.9929   49.3927 O   0  0  0  0  0  0  0  0  0  0  0  0
  112.6227   42.1124   49.0820 H   0  0  0  0  0  0  0  0  0  0  0  0
  114.7677   41.4403   49.4742 C   0  0  0  0  0  0  0  0  0  0  0  0
  115.7337   41.8458   48.3150 C   0  0  0  0  0  0  0  0  0  0  0  0
  114.9885   41.0833   46.1649 O   0  0  0  0  0  0  0  0  0  0  0  0
  116.4560   39.8446   47.2658 O   0  0  0  0  0  0  0  0  0  0  0  0
  115.7231   40.8605   47.1659 C   0  0  0  0  0  0  0  0  0  0  0  0
  114.4585   41.8554   46.1352 H   0  0  0  0  0  0  0  0  0  0  0  0
  115.7447   41.6841   52.8031 C   0  0  0  0  0  0  0  0  0  0  0  0
  116.0088   40.2168   53.0449 C   0  0  0  0  0  0  0  0  0  0  0  0
  116.7900   39.5782   52.2890 O   0  0  0  0  0  0  0  0  0  0  0  0
  115.4244   39.6961   54.0428 O   0  0  0  0  0  0  0  0  0  0  0  0
  114.8526   40.2146   54.5739 H   0  0  0  0  0  0  0  0  0  0  0  0
  115.7702   42.5612   54.1187 C   0  0  0  0  0  0  0  0  0  0  0  0
  116.6221   43.8784   54.0213 C   0  0  0  0  0  0  0  0  0  0  0  0
  117.5620   44.0160   55.2512 C   0  0  0  0  0  0  0  0  0  0  0  0
  115.7444   45.1200   53.9502 C   0  0  0  0  0  0  0  0  0  0  0  0
  114.6669   45.0763   53.2943 O   0  0  0  0  0  0  0  0  0  0  0  0
  116.1292   46.1525   54.5595 O   0  0  0  0  0  0  0  0  0  0  0  0
  114.4174   44.2871   52.8551 H   0  0  0  0  0  0  0  0  0  0  0  0
  9 11  1  0  0  0
 10 11  2  0  0  0
 11  8  1  0  0  0
  8  7  1  0  0  0
  7  2  1  0  0  0
  2  3  1  0  0  0
  2  1  1  0  0  0
  3  4  2  0  0  0
  3  5  1  0  0  0
  1 13  1  0  0  0
 13 14  1  0  0  0
 13 18  1  0  0  0
 14 15  2  0  0  0
 14 16  1  0  0  0
 18 19  1  0  0  0
 19 20  1  0  0  0
 19 21  1  0  0  0
 21 22  1  0  0  0
 21 23  2  0  0  0
  9 12  1  0  0  0
  5  6  1  0  0  0
 16 17  1  0  0  0
 22 24  1  0  0  0
M  END
> <minimizedAffinity>
-6.20111

$$$$
