3GTC_GTC_A_362


 18 19  0  0  0  0  0  0  0  0999 V2000
   24.0037    4.6032   11.7637 C   0  0  0  0  0  0  0  0  0  0  0  0
   22.1098    3.1977   10.9356 C   0  0  0  0  0  0  0  0  0  0  0  0
   23.3534    5.6148   10.8045 C   0  0  0  0  0  0  0  0  0  0  0  0
   21.8587    5.7218   11.1001 C   0  0  0  0  0  0  0  0  0  0  0  0
   21.1893    4.3992   10.7237 C   0  0  0  0  0  0  0  0  0  0  0  0
   23.0676    3.4416   12.0936 C   0  0  0  0  0  0  0  0  0  0  0  0
   24.4201    6.2762   14.8619 C   0  0  0  0  0  0  0  0  0  0  0  0
   24.5029    5.2153   13.0222 C   0  0  0  0  0  0  0  0  0  0  0  0
   25.7654    5.2514   13.5397 N   0  0  0  0  0  0  0  0  0  0  0  0
   25.7234    5.9511   14.7614 N   0  0  0  0  0  0  0  0  0  0  0  0
   23.6687    5.8617   13.8518 N   0  0  0  0  0  0  0  0  0  0  0  0
   23.6603    7.1893   16.1804 S   0  0  0  0  0  0  0  0  0  0  0  0
   26.4595    6.1516   15.3837 H   0  0  0  0  0  0  0  0  0  0  0  0
   22.7010    5.9993   13.7345 H   0  0  0  0  0  0  0  0  0  0  0  0
   25.1014    7.1308   10.1818 O   0  0  0  0  0  0  0  0  0  0  0  0
   24.0262    6.9676   10.7973 C   0  0  0  0  0  0  0  0  0  0  0  0
   23.4760    7.8981   11.4299 O   0  0  0  0  0  0  0  0  0  0  0  0
   22.6697    7.7448   11.8818 H   0  0  0  0  0  0  0  0  0  0  0  0
  6  1  1  0  0  0
  1  8  1  0  0  0
  1  3  1  0  0  0
  2  6  1  0  0  0
  2  5  1  0  0  0
  4  3  1  0  0  0
  3 16  1  0  0  0
  5  4  1  0  0  0
 10  7  1  0  0  0
 11  7  1  0  0  0
  7 12  2  0  0  0
 15 16  2  0  0  0
 16 17  1  0  0  0
  9  8  2  0  0  0
  8 11  1  0  0  0
  9 10  1  0  0  0
 17 18  1  0  0  0
 10 13  1  0  0  0
 11 14  1  0  0  0
M  END
> <minimizedAffinity>
-5.83476

$$$$
3GTC_GTC_A_362


 18 19  0  0  0  0  0  0  0  0999 V2000
   22.5122    4.6592   13.1773 C   0  0  0  0  0  0  0  0  0  0  0  0
   21.9320    4.2954   10.7733 C   0  0  0  0  0  0  0  0  0  0  0  0
   23.9332    4.6149   12.5897 C   0  0  0  0  0  0  0  0  0  0  0  0
   24.0346    5.5757   11.4067 C   0  0  0  0  0  0  0  0  0  0  0  0
   23.1655    5.0423   10.2669 C   0  0  0  0  0  0  0  0  0  0  0  0
   21.4514    4.8710   12.0983 C   0  0  0  0  0  0  0  0  0  0  0  0
   22.2209    7.6063   15.1268 C   0  0  0  0  0  0  0  0  0  0  0  0
   22.3446    5.6749   14.2487 C   0  0  0  0  0  0  0  0  0  0  0  0
   22.1184    5.5116   15.5849 N   0  0  0  0  0  0  0  0  0  0  0  0
   22.0326    6.7860   16.1784 N   0  0  0  0  0  0  0  0  0  0  0  0
   22.4120    6.9865   13.9709 N   0  0  0  0  0  0  0  0  0  0  0  0
   22.2448    9.3805   15.1650 S   0  0  0  0  0  0  0  0  0  0  0  0
   21.8750    7.0182   17.1221 H   0  0  0  0  0  0  0  0  0  0  0  0
   22.5704    7.4013   13.0923 H   0  0  0  0  0  0  0  0  0  0  0  0
   25.5469    5.9860   13.7110 O   0  0  0  0  0  0  0  0  0  0  0  0
   25.0222    4.8566   13.6088 C   0  0  0  0  0  0  0  0  0  0  0  0
   25.3763    3.8931   14.3264 O   0  0  0  0  0  0  0  0  0  0  0  0
   24.9638    3.0578   14.2262 H   0  0  0  0  0  0  0  0  0  0  0  0
  6  1  1  0  0  0
  1  8  1  0  0  0
  1  3  1  0  0  0
  2  6  1  0  0  0
  2  5  1  0  0  0
  4  3  1  0  0  0
  3 16  1  0  0  0
  5  4  1  0  0  0
 10  7  1  0  0  0
 11  7  1  0  0  0
  7 12  2  0  0  0
 15 16  2  0  0  0
 16 17  1  0  0  0
  9  8  2  0  0  0
  8 11  1  0  0  0
  9 10  1  0  0  0
 17 18  1  0  0  0
 10 13  1  0  0  0
 11 14  1  0  0  0
M  END
> <minimizedAffinity>
-5.43344

$$$$
3GTC_GTC_A_362


 18 19  0  0  0  0  0  0  0  0999 V2000
   24.3394    8.0948   13.5155 C   0  0  0  0  0  0  0  0  0  0  0  0
   23.2281   10.1011   14.5094 C   0  0  0  0  0  0  0  0  0  0  0  0
   24.7253    7.8797   14.9891 C   0  0  0  0  0  0  0  0  0  0  0  0
   23.4798    7.9680   15.8687 C   0  0  0  0  0  0  0  0  0  0  0  0
   22.9654    9.4081   15.8461 C   0  0  0  0  0  0  0  0  0  0  0  0
   23.2002    9.1012   13.3617 C   0  0  0  0  0  0  0  0  0  0  0  0
   22.7608    5.2931   12.0224 C   0  0  0  0  0  0  0  0  0  0  0  0
   23.9948    6.8374   12.8029 C   0  0  0  0  0  0  0  0  0  0  0  0
   24.8031    5.9375   12.1704 N   0  0  0  0  0  0  0  0  0  0  0  0
   23.9960    4.9089   11.6466 N   0  0  0  0  0  0  0  0  0  0  0  0
   22.7206    6.4253   12.7102 N   0  0  0  0  0  0  0  0  0  0  0  0
   21.2439    4.4325   11.6939 S   0  0  0  0  0  0  0  0  0  0  0  0
   24.2659    4.1118   11.1358 H   0  0  0  0  0  0  0  0  0  0  0  0
   21.9229    6.8711   13.0765 H   0  0  0  0  0  0  0  0  0  0  0  0
   24.9824    5.6681   15.8745 O   0  0  0  0  0  0  0  0  0  0  0  0
   25.5027    6.6080   15.2364 C   0  0  0  0  0  0  0  0  0  0  0  0
   26.6716    6.5408   14.7914 O   0  0  0  0  0  0  0  0  0  0  0  0
   27.0343    7.2624   14.3164 H   0  0  0  0  0  0  0  0  0  0  0  0
  6  1  1  0  0  0
  1  8  1  0  0  0
  1  3  1  0  0  0
  2  6  1  0  0  0
  2  5  1  0  0  0
  4  3  1  0  0  0
  3 16  1  0  0  0
  5  4  1  0  0  0
 10  7  1  0  0  0
 11  7  1  0  0  0
  7 12  2  0  0  0
 15 16  2  0  0  0
 16 17  1  0  0  0
  9  8  2  0  0  0
  8 11  1  0  0  0
  9 10  1  0  0  0
 17 18  1  0  0  0
 10 13  1  0  0  0
 11 14  1  0  0  0
M  END
> <minimizedAffinity>
-5.36585

$$$$
3GTC_GTC_A_362


 18 19  0  0  0  0  0  0  0  0999 V2000
   22.8587    7.0649    8.9374 C   0  0  0  0  0  0  0  0  0  0  0  0
   25.0942    8.0088    9.5374 C   0  0  0  0  0  0  0  0  0  0  0  0
   23.0444    8.0219    7.7473 C   0  0  0  0  0  0  0  0  0  0  0  0
   24.4076    7.7852    7.1003 C   0  0  0  0  0  0  0  0  0  0  0  0
   25.4972    8.2251    8.0791 C   0  0  0  0  0  0  0  0  0  0  0  0
   24.1711    6.8061    9.6757 C   0  0  0  0  0  0  0  0  0  0  0  0
   20.8092    4.1914    8.6007 C   0  0  0  0  0  0  0  0  0  0  0  0
   22.2311    5.7706    8.5655 C   0  0  0  0  0  0  0  0  0  0  0  0
   22.6296    4.8305    7.6595 N   0  0  0  0  0  0  0  0  0  0  0  0
   21.6933    3.7784    7.6721 N   0  0  0  0  0  0  0  0  0  0  0  0
   21.0954    5.3619    9.1528 N   0  0  0  0  0  0  0  0  0  0  0  0
   19.3556    3.3229    9.1319 S   0  0  0  0  0  0  0  0  0  0  0  0
   21.6866    2.9514    7.1381 H   0  0  0  0  0  0  0  0  0  0  0  0
   20.5822    5.8331    9.8484 H   0  0  0  0  0  0  0  0  0  0  0  0
   20.8805    8.6305    6.9177 O   0  0  0  0  0  0  0  0  0  0  0  0
   21.9220    7.9641    6.7375 C   0  0  0  0  0  0  0  0  0  0  0  0
   22.0730    7.2268    5.7363 O   0  0  0  0  0  0  0  0  0  0  0  0
   22.8659    6.7391    5.6289 H   0  0  0  0  0  0  0  0  0  0  0  0
  6  1  1  0  0  0
  1  8  1  0  0  0
  1  3  1  0  0  0
  2  6  1  0  0  0
  2  5  1  0  0  0
  4  3  1  0  0  0
  3 16  1  0  0  0
  5  4  1  0  0  0
 10  7  1  0  0  0
 11  7  1  0  0  0
  7 12  2  0  0  0
 15 16  2  0  0  0
 16 17  1  0  0  0
  9  8  2  0  0  0
  8 11  1  0  0  0
  9 10  1  0  0  0
 17 18  1  0  0  0
 10 13  1  0  0  0
 11 14  1  0  0  0
M  END
> <minimizedAffinity>
-5.34177

$$$$
3GTC_GTC_A_362


 18 19  0  0  0  0  0  0  0  0999 V2000
   23.2738    6.3805   11.7537 C   0  0  0  0  0  0  0  0  0  0  0  0
   23.0477    6.0054    9.2927 C   0  0  0  0  0  0  0  0  0  0  0  0
   22.0755    5.4158   11.7653 C   0  0  0  0  0  0  0  0  0  0  0  0
   22.4008    4.1760   10.9346 C   0  0  0  0  0  0  0  0  0  0  0  0
   22.5088    4.5857    9.4651 C   0  0  0  0  0  0  0  0  0  0  0  0
   24.0113    6.3633   10.4158 C   0  0  0  0  0  0  0  0  0  0  0  0
   25.2627    6.4963   14.6866 C   0  0  0  0  0  0  0  0  0  0  0  0
   24.2380    6.1420   12.8587 C   0  0  0  0  0  0  0  0  0  0  0  0
   25.1360    5.1293   13.0363 N   0  0  0  0  0  0  0  0  0  0  0  0
   25.8209    5.3520   14.2467 N   0  0  0  0  0  0  0  0  0  0  0  0
   24.3265    6.9946   13.8917 N   0  0  0  0  0  0  0  0  0  0  0  0
   25.6724    7.3626   16.1804 S   0  0  0  0  0  0  0  0  0  0  0  0
   26.5279    4.8094   14.6649 H   0  0  0  0  0  0  0  0  0  0  0  0
   23.8049    7.8180   14.0300 H   0  0  0  0  0  0  0  0  0  0  0  0
   20.4174    5.3002   13.4911 O   0  0  0  0  0  0  0  0  0  0  0  0
   21.5952    5.0568   13.1520 C   0  0  0  0  0  0  0  0  0  0  0  0
   22.4144    4.5237   13.9353 O   0  0  0  0  0  0  0  0  0  0  0  0
   23.2911    4.3536   13.6517 H   0  0  0  0  0  0  0  0  0  0  0  0
  6  1  1  0  0  0
  1  8  1  0  0  0
  1  3  1  0  0  0
  2  6  1  0  0  0
  2  5  1  0  0  0
  4  3  1  0  0  0
  3 16  1  0  0  0
  5  4  1  0  0  0
 10  7  1  0  0  0
 11  7  1  0  0  0
  7 12  2  0  0  0
 15 16  2  0  0  0
 16 17  1  0  0  0
  9  8  2  0  0  0
  8 11  1  0  0  0
  9 10  1  0  0  0
 17 18  1  0  0  0
 10 13  1  0  0  0
 11 14  1  0  0  0
M  END
> <minimizedAffinity>
-5.31587

$$$$
3GTC_GTC_A_362


 18 19  0  0  0  0  0  0  0  0999 V2000
   22.2434    4.0204   10.0150 C   0  0  0  0  0  0  0  0  0  0  0  0
   22.6946    4.2511   12.4627 C   0  0  0  0  0  0  0  0  0  0  0  0
   20.7968    3.9562   10.5345 C   0  0  0  0  0  0  0  0  0  0  0  0
   20.5290    5.1352   11.4679 C   0  0  0  0  0  0  0  0  0  0  0  0
   21.3665    4.9567   12.7350 C   0  0  0  0  0  0  0  0  0  0  0  0
   23.2063    4.5719   11.0652 C   0  0  0  0  0  0  0  0  0  0  0  0
   22.6669    6.4876    7.5040 C   0  0  0  0  0  0  0  0  0  0  0  0
   22.3866    4.7907    8.7525 C   0  0  0  0  0  0  0  0  0  0  0  0
   22.3528    4.3646    7.4561 N   0  0  0  0  0  0  0  0  0  0  0  0
   22.5394    5.4811    6.6180 N   0  0  0  0  0  0  0  0  0  0  0  0
   22.5785    6.1191    8.7741 N   0  0  0  0  0  0  0  0  0  0  0  0
   22.9214    8.2020    7.1222 S   0  0  0  0  0  0  0  0  0  0  0  0
   22.5691    5.5168    5.6346 H   0  0  0  0  0  0  0  0  0  0  0  0
   22.6407    6.6985    9.5676 H   0  0  0  0  0  0  0  0  0  0  0  0
   18.9322    4.7758    9.2725 O   0  0  0  0  0  0  0  0  0  0  0  0
   19.7599    3.8549    9.4403 C   0  0  0  0  0  0  0  0  0  0  0  0
   19.7593    2.8244    8.7284 O   0  0  0  0  0  0  0  0  0  0  0  0
   20.3930    2.1508    8.8786 H   0  0  0  0  0  0  0  0  0  0  0  0
  6  1  1  0  0  0
  1  8  1  0  0  0
  1  3  1  0  0  0
  2  6  1  0  0  0
  2  5  1  0  0  0
  4  3  1  0  0  0
  3 16  1  0  0  0
  5  4  1  0  0  0
 10  7  1  0  0  0
 11  7  1  0  0  0
  7 12  2  0  0  0
 15 16  2  0  0  0
 16 17  1  0  0  0
  9  8  2  0  0  0
  8 11  1  0  0  0
  9 10  1  0  0  0
 17 18  1  0  0  0
 10 13  1  0  0  0
 11 14  1  0  0  0
M  END
> <minimizedAffinity>
-5.20896

$$$$
3GTC_GTC_A_362


 18 19  0  0  0  0  0  0  0  0999 V2000
   24.4118    5.9719   14.8860 C   0  0  0  0  0  0  0  0  0  0  0  0
   25.8343    7.5684   16.1805 C   0  0  0  0  0  0  0  0  0  0  0  0
   23.3004    6.7743   15.5844 C   0  0  0  0  0  0  0  0  0  0  0  0
   23.5290    8.2693   15.3710 C   0  0  0  0  0  0  0  0  0  0  0  0
   24.7916    8.6846   16.1275 C   0  0  0  0  0  0  0  0  0  0  0  0
   25.7585    6.6916   14.9382 C   0  0  0  0  0  0  0  0  0  0  0  0
   23.2534    4.5000   11.8755 C   0  0  0  0  0  0  0  0  0  0  0  0
   24.0909    5.6139   13.4801 C   0  0  0  0  0  0  0  0  0  0  0  0
   24.4388    6.2348   12.3153 N   0  0  0  0  0  0  0  0  0  0  0  0
   23.8875    5.5063   11.2433 N   0  0  0  0  0  0  0  0  0  0  0  0
   23.3542    4.5281   13.1968 N   0  0  0  0  0  0  0  0  0  0  0  0
   22.3399    3.1846   11.1109 S   0  0  0  0  0  0  0  0  0  0  0  0
   23.9498    5.6867   10.2775 H   0  0  0  0  0  0  0  0  0  0  0  0
   22.9693    3.8866   13.8367 H   0  0  0  0  0  0  0  0  0  0  0  0
   21.4656    5.2344   15.5285 O   0  0  0  0  0  0  0  0  0  0  0  0
   21.9043    6.3539   15.1886 C   0  0  0  0  0  0  0  0  0  0  0  0
   21.2218    7.1560   14.5106 O   0  0  0  0  0  0  0  0  0  0  0  0
   21.5785    7.9887   14.2711 H   0  0  0  0  0  0  0  0  0  0  0  0
  6  1  1  0  0  0
  1  8  1  0  0  0
  1  3  1  0  0  0
  2  6  1  0  0  0
  2  5  1  0  0  0
  4  3  1  0  0  0
  3 16  1  0  0  0
  5  4  1  0  0  0
 10  7  1  0  0  0
 11  7  1  0  0  0
  7 12  2  0  0  0
 15 16  2  0  0  0
 16 17  1  0  0  0
  9  8  2  0  0  0
  8 11  1  0  0  0
  9 10  1  0  0  0
 17 18  1  0  0  0
 10 13  1  0  0  0
 11 14  1  0  0  0
M  END
> <minimizedAffinity>
-5.14908

$$$$
3GTC_GTC_A_362


 18 19  0  0  0  0  0  0  0  0999 V2000
   22.1484    5.7353   10.3658 C   0  0  0  0  0  0  0  0  0  0  0  0
   22.0305    3.3937   11.2326 C   0  0  0  0  0  0  0  0  0  0  0  0
   22.8076    5.9522   11.7388 C   0  0  0  0  0  0  0  0  0  0  0  0
   23.9253    4.9315   11.9436 C   0  0  0  0  0  0  0  0  0  0  0  0
   23.3015    3.5407   12.0684 C   0  0  0  0  0  0  0  0  0  0  0  0
   22.0976    4.2576    9.9808 C   0  0  0  0  0  0  0  0  0  0  0  0
   23.0352    8.0889    7.8668 C   0  0  0  0  0  0  0  0  0  0  0  0
   22.7846    6.5147    9.2725 C   0  0  0  0  0  0  0  0  0  0  0  0
   23.9301    6.2695    8.5719 N   0  0  0  0  0  0  0  0  0  0  0  0
   24.1085    7.3080    7.6372 N   0  0  0  0  0  0  0  0  0  0  0  0
   22.2287    7.6509    8.8230 N   0  0  0  0  0  0  0  0  0  0  0  0
   22.6242    9.5917    7.0170 S   0  0  0  0  0  0  0  0  0  0  0  0
   24.8332    7.4316    6.9825 H   0  0  0  0  0  0  0  0  0  0  0  0
   21.3958    8.0710    9.1378 H   0  0  0  0  0  0  0  0  0  0  0  0
   22.4661    8.3104   11.9912 O   0  0  0  0  0  0  0  0  0  0  0  0
   23.2852    7.3670   11.9691 C   0  0  0  0  0  0  0  0  0  0  0  0
   24.5142    7.5517   12.1244 O   0  0  0  0  0  0  0  0  0  0  0  0
   25.1038    6.8238   12.1027 H   0  0  0  0  0  0  0  0  0  0  0  0
  6  1  1  0  0  0
  1  8  1  0  0  0
  1  3  1  0  0  0
  2  6  1  0  0  0
  2  5  1  0  0  0
  4  3  1  0  0  0
  3 16  1  0  0  0
  5  4  1  0  0  0
 10  7  1  0  0  0
 11  7  1  0  0  0
  7 12  2  0  0  0
 15 16  2  0  0  0
 16 17  1  0  0  0
  9  8  2  0  0  0
  8 11  1  0  0  0
  9 10  1  0  0  0
 17 18  1  0  0  0
 10 13  1  0  0  0
 11 14  1  0  0  0
M  END
> <minimizedAffinity>
-5.12991

$$$$
3GTC_GTC_A_362


 18 19  0  0  0  0  0  0  0  0999 V2000
   22.5215    4.2275   11.5112 C   0  0  0  0  0  0  0  0  0  0  0  0
   22.0300    3.8308    9.0927 C   0  0  0  0  0  0  0  0  0  0  0  0
   23.5847    5.1521   10.8937 C   0  0  0  0  0  0  0  0  0  0  0  0
   22.9335    6.0769    9.8672 C   0  0  0  0  0  0  0  0  0  0  0  0
   22.4646    5.2363    8.6787 C   0  0  0  0  0  0  0  0  0  0  0  0
   21.4474    3.8321   10.4993 C   0  0  0  0  0  0  0  0  0  0  0  0
   20.3693    5.7058   13.9100 C   0  0  0  0  0  0  0  0  0  0  0  0
   21.8794    4.7909   12.7269 C   0  0  0  0  0  0  0  0  0  0  0  0
   22.3588    4.9045   13.9999 N   0  0  0  0  0  0  0  0  0  0  0  0
   21.3654    5.5084   14.7950 N   0  0  0  0  0  0  0  0  0  0  0  0
   20.6375    5.2981   12.6776 N   0  0  0  0  0  0  0  0  0  0  0  0
   18.7934    6.4496   14.2455 S   0  0  0  0  0  0  0  0  0  0  0  0
   21.3922    5.7300   15.7539 H   0  0  0  0  0  0  0  0  0  0  0  0
   20.0488    5.3552   11.8906 H   0  0  0  0  0  0  0  0  0  0  0  0
   24.3159    7.1662   11.9661 O   0  0  0  0  0  0  0  0  0  0  0  0
   24.3919    5.9200   11.9141 C   0  0  0  0  0  0  0  0  0  0  0  0
   25.1334    5.2679   12.6847 O   0  0  0  0  0  0  0  0  0  0  0  0
   25.1689    4.3337   12.6214 H   0  0  0  0  0  0  0  0  0  0  0  0
  6  1  1  0  0  0
  1  8  1  0  0  0
  1  3  1  0  0  0
  2  6  1  0  0  0
  2  5  1  0  0  0
  4  3  1  0  0  0
  3 16  1  0  0  0
  5  4  1  0  0  0
 10  7  1  0  0  0
 11  7  1  0  0  0
  7 12  2  0  0  0
 15 16  2  0  0  0
 16 17  1  0  0  0
  9  8  2  0  0  0
  8 11  1  0  0  0
  9 10  1  0  0  0
 17 18  1  0  0  0
 10 13  1  0  0  0
 11 14  1  0  0  0
M  END
> <minimizedAffinity>
-5.09317

$$$$
3GTC_GTC_A_362


 18 19  0  0  0  0  0  0  0  0999 V2000
   22.5477    4.9895    9.6699 C   0  0  0  0  0  0  0  0  0  0  0  0
   24.0721    6.8845    9.0926 C   0  0  0  0  0  0  0  0  0  0  0  0
   23.4482    4.9639   10.9169 C   0  0  0  0  0  0  0  0  0  0  0  0
   23.5349    6.3637   11.5218 C   0  0  0  0  0  0  0  0  0  0  0  0
   24.2990    7.2688   10.5543 C   0  0  0  0  0  0  0  0  0  0  0  0
   22.6816    6.2977    8.8922 C   0  0  0  0  0  0  0  0  0  0  0  0
   19.2764    3.6648   10.0087 C   0  0  0  0  0  0  0  0  0  0  0  0
   21.1154    4.7294    9.9670 C   0  0  0  0  0  0  0  0  0  0  0  0
   20.1942    5.5131   10.5999 N   0  0  0  0  0  0  0  0  0  0  0  0
   18.9703    4.8170   10.6356 N   0  0  0  0  0  0  0  0  0  0  0  0
   20.5331    3.5780    9.5964 N   0  0  0  0  0  0  0  0  0  0  0  0
   18.1726    2.3117    9.6922 S   0  0  0  0  0  0  0  0  0  0  0  0
   18.1098    5.1006   11.0207 H   0  0  0  0  0  0  0  0  0  0  0  0
   20.9520    2.8263    9.1183 H   0  0  0  0  0  0  0  0  0  0  0  0
   22.9022    2.7346   11.6050 O   0  0  0  0  0  0  0  0  0  0  0  0
   23.0421    3.9300   11.9410 C   0  0  0  0  0  0  0  0  0  0  0  0
   22.8465    4.3159   13.1164 O   0  0  0  0  0  0  0  0  0  0  0  0
   22.9596    5.2194   13.3378 H   0  0  0  0  0  0  0  0  0  0  0  0
  6  1  1  0  0  0
  1  8  1  0  0  0
  1  3  1  0  0  0
  2  6  1  0  0  0
  2  5  1  0  0  0
  4  3  1  0  0  0
  3 16  1  0  0  0
  5  4  1  0  0  0
 10  7  1  0  0  0
 11  7  1  0  0  0
  7 12  2  0  0  0
 15 16  2  0  0  0
 16 17  1  0  0  0
  9  8  2  0  0  0
  8 11  1  0  0  0
  9 10  1  0  0  0
 17 18  1  0  0  0
 10 13  1  0  0  0
 11 14  1  0  0  0
M  END
> <minimizedAffinity>
-5.08337

$$$$
