5LLO_5EF_A_303
  RCSB PDB12061718503D
Coordinates from PDB:5LLO:A:303 Model:1 without hydrogens
 29 31  0  0  0  0            999 V2000
   23.6930    8.7640   13.0280   O 0  0  0  0  0  0  0  0  0  0  0  0
   24.2650    8.2170   15.2190   C 0  0  0  0  0  0  0  0  0  0  0  0
   23.4720    4.0110   12.7990   C 0  0  0  0  0  0  0  0  0  0  0  0
   22.4340    3.2100   13.1950   F 0  0  0  0  0  0  0  0  0  0  0  0
   24.0510    3.9100   11.5350   C 0  0  0  0  0  0  0  0  0  0  0  0
   23.3330    4.9510   14.9900   F 0  0  0  0  0  0  0  0  0  0  0  0
   25.7300    4.6530   10.1450   F 0  0  0  0  0  0  0  0  0  0  0  0
   26.8040    7.6400   14.4120   O 0  0  0  0  0  0  0  0  0  0  0  0
   25.4400    6.9420   14.7330   S 0  0  0  0  0  0  0  0  0  0  0  0
   25.7980    6.1220   15.9700   O 0  0  0  0  0  0  0  0  0  0  0  0
   24.2740    9.3060   14.1780   C 0  0  0  0  0  0  0  0  0  0  0  0
   24.9600    5.7520   13.4720   C 0  0  0  0  0  0  0  0  0  0  0  0
   23.8840    4.9040   13.7680   C 0  0  0  0  0  0  0  0  0  0  0  0
   25.5840    5.6870   12.2270   C 0  0  0  0  0  0  0  0  0  0  0  0
   25.1270    4.7830   11.2960   C 0  0  0  0  0  0  0  0  0  0  0  0
   23.5410    2.7030   10.3280   S 0  0  0  0  0  0  0  0  0  0  0  0
   24.6720    1.7820    9.9910   O 0  0  0  0  0  0  0  0  0  0  0  0
   22.2670    1.8030   10.8650   N 0  0  0  0  0  0  0  0  0  0  0  0
   23.1130    3.4270    9.0570   O 0  0  0  0  0  0  0  0  0  0  0  0
   26.6510    6.5750   11.8280   N 0  0  0  0  0  0  0  0  0  0  0  0
   26.6460    7.2390   10.4980   C 0  0  0  0  0  0  0  0  0  0  0  0
   25.9580    8.6220   10.5740   C 0  0  0  0  0  0  0  0  0  0  0  0
   26.7080    9.5200    9.5460   C 0  0  0  0  0  0  0  0  0  0  0  0
   28.0590    8.9550    9.7330   C 0  0  0  0  0  0  0  0  0  0  0  0
   29.2970    9.5840    9.4430   C 0  0  0  0  0  0  0  0  0  0  0  0
   30.5270    8.9280    9.7140   C 0  0  0  0  0  0  0  0  0  0  0  0
   30.5050    7.6110   10.2760   C 0  0  0  0  0  0  0  0  0  0  0  0
   29.2410    7.0200   10.5350   C 0  0  0  0  0  0  0  0  0  0  0  0
   28.0440    7.6830   10.2410   C 0  0  0  0  0  0  0  0  0  0  0  0
 26 25  2  0  0  0  0
 26 27  1  0  0  0  0
 25 24  1  0  0  0  0
 27 28  2  0  0  0  0
 24 23  1  0  0  0  0
 24 29  2  0  0  0  0
  1 11  1  0  0  0  0
 23 22  1  0  0  0  0
 28 29  1  0  0  0  0
 11  2  1  0  0  0  0
 29 21  1  0  0  0  0
 22 21  1  0  0  0  0
  2  9  1  0  0  0  0
 21 20  1  0  0  0  0
 10  9  2  0  0  0  0
  9 12  1  0  0  0  0
  9  8  2  0  0  0  0
 20 14  1  0  0  0  0
 14 12  2  0  0  0  0
 14 15  1  0  0  0  0
 12 13  1  0  0  0  0
 13  6  1  0  0  0  0
 13  3  2  0  0  0  0
  7 15  1  0  0  0  0
 15  5  2  0  0  0  0
  3  5  1  0  0  0  0
  3  4  1  0  0  0  0
  5 16  1  0  0  0  0
 18 16  1  0  0  0  0
 16 17  2  0  0  0  0
 16 19  2  0  0  0  0
A    1
O19
A    2
C17
A    3
C6
A    4
F11
A    5
C5
A    6
F12
A    7
F13
A    8
O16
A    9
S14
A   10
O15
A   11
C18
A   12
C8
A   13
C7
A   14
C9
A   15
C10
A   16
S1
A   17
O3
A   18
N4
A   19
O2
A   20
N20
A   21
C21
A   22
C25
A   23
C24
A   24
C23
A   25
C29
A   26
C28
A   27
C27
A   28
C26
A   29
C22
M  END
>  <InstanceId>
5LLO_5EF_A_303

>  <ChemCompId>
5EF

>  <PdbId>
5LLO

>  <ChainId>
A

>  <ResidueNumber>
303

>  <InsertionCode>


>  <Model>
1

>  <AltIds>


>  <MissingHeavyAtoms>
0

>  <ObservedFormula>
C17 N2 O5 S2 F3

>  <Name>
3-[(1S)-2,3-dihydro-1H-inden-1-ylamino]-2,5,6-trifluoro-4-[(2-hydroxyethyl)sulfonyl]benzenesulfonamide

>  <SystematicName>
3-[[(1S)-2,3-dihydro-1H-inden-1-yl]amino]-2,5,6-tris(fluoranyl)-4-(2-hydroxyethylsulfonyl)benzenesulfonamide

>  <Synonyms>


>  <Type>
NON-POLYMER

>  <Formula>
C17 H17 F3 N2 O5 S2

>  <MolecularWeight>
450.452

>  <ModifiedDate>
2016-09-23

>  <Parent>


>  <OneLetterCode>


>  <SubcomponentList>


>  <AmbiguousFlag>
N

>  <InChI>
InChI=1S/C17H17F3N2O5S2/c18-12-13(19)17(28(24,25)8-7-23)15(14(20)16(12)29(21,26)27)22-11-6-5-9-3-1-2-4-10(9)11/h1-4,11,22-23H,5-8H2,(H2,21,26,27)/t11-/m0/s1

>  <InChIKey>
WMOJSIMFSAOOLP-NSHDSACASA-N

>  <SMILES>
c1ccc2c(c1)CC[C@@H]2Nc3c(c(c(c(c3S(=O)(=O)CCO)F)F)S(=O)(=O)N)F

$$$$
