1NJC_DCM_A_317
  RCSB PDB12061703253D
Coordinates from PDB:1NJC:A:317 Model:1 without hydrogens
 20 21  0  0  0  0            999 V2000
   14.9020   46.4380  -51.7190   N 0  0  0  0  0  0  0  0  0  0  0  0
   14.1850   45.3580  -51.2250   C 0  0  0  0  0  0  0  0  0  0  0  0
   13.7110   45.4090  -49.9240   N 0  0  0  0  0  0  0  0  0  0  0  0
   13.9520   46.4790  -49.1260   C 0  0  0  0  0  0  0  0  0  0  0  0
   14.6640   47.6150  -49.6750   C 0  0  0  0  0  0  0  0  0  0  0  0
   15.1110   47.5240  -51.0020   C 0  0  0  0  0  0  0  0  0  0  0  0
   13.9430   44.3460  -51.8670   O 0  0  0  0  0  0  0  0  0  0  0  0
   13.6750   46.4080  -47.8210   N 0  0  0  0  0  0  0  0  0  0  0  0
   15.7210   46.3370  -52.9350   C 0  0  0  0  0  0  0  0  0  0  0  0
   15.0440   46.1050  -54.2880   C 0  0  0  0  0  0  0  0  0  0  0  0
   16.2320   46.2250  -55.2340   C 0  0  0  0  0  0  0  0  0  0  0  0
   16.9860   47.4800  -54.8130   C 0  0  0  0  0  0  0  0  0  0  0  0
   16.6240   47.4730  -53.3390   O 0  0  0  0  0  0  0  0  0  0  0  0
   17.1240   45.1520  -54.9100   O 0  0  0  0  0  0  0  0  0  0  0  0
   16.4080   48.7120  -55.5100   C 0  0  0  0  0  0  0  0  0  0  0  0
   16.8400   48.7060  -56.9070   O 0  0  0  0  0  0  0  0  0  0  0  0
   15.9630   49.4190  -58.0000   P 0  0  0  0  0  0  0  0  0  0  0  0
   16.6410   49.6050  -59.3080   O 0  0  0  0  0  0  0  0  0  0  0  0
   14.9040   48.4060  -58.0760   O 0  0  0  0  0  0  0  0  0  0  0  0
   15.4330   50.7220  -57.5860   O 0  0  0  0  0  0  0  0  0  0  0  0
  1  2  1  0  0  0  0
  1  6  1  0  0  0  0
  1  9  1  0  0  0  0
  2  3  1  0  0  0  0
  2  7  2  0  0  0  0
  3  4  2  0  0  0  0
  4  5  1  0  0  0  0
  4  8  1  0  0  0  0
  5  6  2  0  0  0  0
  9 10  1  0  0  0  0
  9 13  1  0  0  0  0
 10 11  1  0  0  0  0
 11 12  1  0  0  0  0
 11 14  1  0  0  0  0
 12 13  1  0  0  0  0
 12 15  1  0  0  0  0
 15 16  1  0  0  0  0
 16 17  1  0  0  0  0
 17 18  2  0  0  0  0
 17 19  1  0  0  0  0
 17 20  1  0  0  0  0
A    1
N1
A    2
C2
A    3
N3
A    4
C4
A    5
C5
A    6
C6
A    7
O2
A    8
N4
A    9
C1'
A   10
C2'
A   11
C3'
A   12
C4'
A   13
O4'
A   14
O3'
A   15
C5'
A   16
O5'
A   17
P
A   18
O1P
A   19
O2P
A   20
O3P
M  END
>  <InstanceId>
1NJC_DCM_A_317

>  <ChemCompId>
DCM

>  <PdbId>
1NJC

>  <ChainId>
A

>  <ResidueNumber>
317

>  <InsertionCode>


>  <Model>
1

>  <AltIds>


>  <MissingHeavyAtoms>
0

>  <ObservedFormula>
C9 N3 O7 P

>  <Name>
2'-DEOXYCYTIDINE-5'-MONOPHOSPHATE

>  <SystematicName>
[(2R,3S,5R)-5-(4-amino-2-oxo-pyrimidin-1-yl)-3-hydroxy-oxolan-2-yl]methyl dihydrogen phosphate

>  <Synonyms>


>  <Type>
NON-POLYMER

>  <Formula>
C9 H14 N3 O7 P

>  <MolecularWeight>
307.197

>  <ModifiedDate>
2011-06-04

>  <Parent>


>  <OneLetterCode>


>  <SubcomponentList>


>  <AmbiguousFlag>
N

>  <InChI>
InChI=1S/C9H14N3O7P/c10-7-1-2-12(9(14)11-7)8-3-5(13)6(19-8)4-18-20(15,16)17/h1-2,5-6,8,13H,3-4H2,(H2,10,11,14)(H2,15,16,17)/t5-,6+,8+/m0/s1

>  <InChIKey>
NCMVOABPESMRCP-SHYZEUOFSA-N

>  <SMILES>
C1[C@@H]([C@H](O[C@H]1N2C=CC(=NC2=O)N)COP(=O)(O)O)O

$$$$
