1NJC_DCM_A_317


 25 26  0  0  0  0  0  0  0  0999 V2000
   15.9178   46.4732  -52.7816 C   0  0  0  0  0  0  0  0  0  0  0  0
   15.2890   46.3800  -54.1740 C   0  0  0  0  0  0  0  0  0  0  0  0
   16.5318   46.3343  -55.0538 C   0  0  0  0  0  0  0  0  0  0  0  0
   17.4463   47.4465  -54.5564 C   0  0  0  0  0  0  0  0  0  0  0  0
   17.0066   47.4632  -53.1038 O   0  0  0  0  0  0  0  0  0  0  0  0
   17.2279   45.1283  -54.7176 O   0  0  0  0  0  0  0  0  0  0  0  0
   17.4217   45.1211  -53.7672 H   0  0  0  0  0  0  0  0  0  0  0  0
   15.0583   46.6736  -51.6066 N   0  0  0  0  0  0  0  0  0  0  0  0
   14.3064   45.6424  -51.0626 C   0  0  0  0  0  0  0  0  0  0  0  0
   13.7877   45.7942  -49.7868 N   0  0  0  0  0  0  0  0  0  0  0  0
   14.0183   46.9157  -49.0595 C   0  0  0  0  0  0  0  0  0  0  0  0
   14.7681   47.9988  -49.6625 C   0  0  0  0  0  0  0  0  0  0  0  0
   15.2600   47.8056  -50.9624 C   0  0  0  0  0  0  0  0  0  0  0  0
   14.0703   44.5901  -51.6386 O   0  0  0  0  0  0  0  0  0  0  0  0
   13.6943   46.9433  -47.7637 N   0  0  0  0  0  0  0  0  0  0  0  0
   13.1844   46.2000  -47.3678 H   0  0  0  0  0  0  0  0  0  0  0  0
   13.9655   47.7070  -47.2047 H   0  0  0  0  0  0  0  0  0  0  0  0
   17.1052   48.7689  -55.2440 C   0  0  0  0  0  0  0  0  0  0  0  0
   16.7486   48.4953  -56.6355 O   0  0  0  0  0  0  0  0  0  0  0  0
   15.6528   49.3689  -57.3484 P   0  0  0  0  0  0  0  0  0  0  0  0
   14.8374   48.6363  -58.3502 O   0  0  0  0  0  0  0  0  0  0  0  0
   14.8730   49.7000  -56.1502 O   0  0  0  0  0  0  0  0  0  0  0  0
   16.1775   50.5736  -57.9992 O   0  0  0  0  0  0  0  0  0  0  0  0
   14.5412   48.8837  -55.7446 H   0  0  0  0  0  0  0  0  0  0  0  0
   16.6865   50.3208  -58.7852 H   0  0  0  0  0  0  0  0  0  0  0  0
  8  9  1  0  0  0
  8 13  1  0  0  0
  8  1  1  0  0  0
  9 10  1  0  0  0
  9 14  2  0  0  0
 10 11  2  0  0  0
 11 12  1  0  0  0
 11 15  1  0  0  0
 12 13  2  0  0  0
  1  2  1  0  0  0
  1  5  1  0  0  0
  2  3  1  0  0  0
  3  4  1  0  0  0
  3  6  1  0  0  0
  4  5  1  0  0  0
  4 18  1  0  0  0
 18 19  1  0  0  0
 19 20  1  0  0  0
 20 21  2  0  0  0
 20 22  1  0  0  0
 20 23  1  0  0  0
 15 16  1  0  0  0
 15 17  1  0  0  0
  6  7  1  0  0  0
 22 24  1  0  0  0
 23 25  1  0  0  0
M  END
> <minimizedAffinity>
-8.00744

$$$$
1NJC_DCM_A_317


 25 26  0  0  0  0  0  0  0  0999 V2000
   17.9275   46.8062  -52.8220 C   0  0  0  0  0  0  0  0  0  0  0  0
   18.3706   47.7538  -51.7046 C   0  0  0  0  0  0  0  0  0  0  0  0
   18.6191   46.7702  -50.5682 C   0  0  0  0  0  0  0  0  0  0  0  0
   17.4079   45.8469  -50.5322 C   0  0  0  0  0  0  0  0  0  0  0  0
   17.0362   45.9101  -52.0024 O   0  0  0  0  0  0  0  0  0  0  0  0
   19.6960   45.9235  -50.9872 O   0  0  0  0  0  0  0  0  0  0  0  0
   19.4649   45.4986  -51.8280 H   0  0  0  0  0  0  0  0  0  0  0  0
   17.4515   47.3579  -54.0982 N   0  0  0  0  0  0  0  0  0  0  0  0
   17.1083   46.5435  -55.1676 C   0  0  0  0  0  0  0  0  0  0  0  0
   16.3644   47.0811  -56.2056 N   0  0  0  0  0  0  0  0  0  0  0  0
   15.9524   48.3733  -56.1838 C   0  0  0  0  0  0  0  0  0  0  0  0
   16.3591   49.2188  -55.0799 C   0  0  0  0  0  0  0  0  0  0  0  0
   17.1251   48.6343  -54.0598 C   0  0  0  0  0  0  0  0  0  0  0  0
   17.4175   45.3639  -55.2562 O   0  0  0  0  0  0  0  0  0  0  0  0
   15.0605   48.7995  -57.0824 N   0  0  0  0  0  0  0  0  0  0  0  0
   14.7937   48.2137  -57.8273 H   0  0  0  0  0  0  0  0  0  0  0  0
   14.6700   49.6995  -56.9998 H   0  0  0  0  0  0  0  0  0  0  0  0
   16.3016   46.4473  -49.6644 C   0  0  0  0  0  0  0  0  0  0  0  0
   15.1717   46.8000  -50.5230 O   0  0  0  0  0  0  0  0  0  0  0  0
   13.8585   45.9364  -50.4818 P   0  0  0  0  0  0  0  0  0  0  0  0
   13.9242   44.6785  -51.2683 O   0  0  0  0  0  0  0  0  0  0  0  0
   13.8553   45.6749  -49.0378 O   0  0  0  0  0  0  0  0  0  0  0  0
   12.6533   46.6589  -50.9008 O   0  0  0  0  0  0  0  0  0  0  0  0
   14.6634   45.1971  -48.7940 H   0  0  0  0  0  0  0  0  0  0  0  0
   12.6864   46.8155  -51.8575 H   0  0  0  0  0  0  0  0  0  0  0  0
  8  9  1  0  0  0
  8 13  1  0  0  0
  8  1  1  0  0  0
  9 10  1  0  0  0
  9 14  2  0  0  0
 10 11  2  0  0  0
 11 12  1  0  0  0
 11 15  1  0  0  0
 12 13  2  0  0  0
  1  2  1  0  0  0
  1  5  1  0  0  0
  2  3  1  0  0  0
  3  4  1  0  0  0
  3  6  1  0  0  0
  4  5  1  0  0  0
  4 18  1  0  0  0
 18 19  1  0  0  0
 19 20  1  0  0  0
 20 21  2  0  0  0
 20 22  1  0  0  0
 20 23  1  0  0  0
 15 16  1  0  0  0
 15 17  1  0  0  0
  6  7  1  0  0  0
 22 24  1  0  0  0
 23 25  1  0  0  0
M  END
> <minimizedAffinity>
-7.43776

$$$$
1NJC_DCM_A_317


 25 26  0  0  0  0  0  0  0  0999 V2000
   14.7060   46.1489  -49.6435 C   0  0  0  0  0  0  0  0  0  0  0  0
   13.5878   46.5819  -50.5948 C   0  0  0  0  0  0  0  0  0  0  0  0
   13.8918   45.7213  -51.8145 C   0  0  0  0  0  0  0  0  0  0  0  0
   15.3875   45.8575  -52.0693 C   0  0  0  0  0  0  0  0  0  0  0  0
   15.8341   46.1122  -50.6411 O   0  0  0  0  0  0  0  0  0  0  0  0
   13.7260   44.3583  -51.4061 O   0  0  0  0  0  0  0  0  0  0  0  0
   14.3011   44.1762  -50.6465 H   0  0  0  0  0  0  0  0  0  0  0  0
   14.8762   46.8400  -48.3578 N   0  0  0  0  0  0  0  0  0  0  0  0
   15.0251   48.2170  -48.2785 C   0  0  0  0  0  0  0  0  0  0  0  0
   14.8484   48.8391  -47.0531 N   0  0  0  0  0  0  0  0  0  0  0  0
   14.5149   48.1329  -45.9441 C   0  0  0  0  0  0  0  0  0  0  0  0
   14.4080   46.6912  -46.0386 C   0  0  0  0  0  0  0  0  0  0  0  0
   14.6110   46.1042  -47.2969 C   0  0  0  0  0  0  0  0  0  0  0  0
   15.3009   48.9315  -49.2316 O   0  0  0  0  0  0  0  0  0  0  0  0
   14.1395   48.7778  -44.8360 N   0  0  0  0  0  0  0  0  0  0  0  0
   14.2180   49.7579  -44.7864 H   0  0  0  0  0  0  0  0  0  0  0  0
   13.7845   48.2729  -44.0690 H   0  0  0  0  0  0  0  0  0  0  0  0
   15.6725   47.0716  -52.9538 C   0  0  0  0  0  0  0  0  0  0  0  0
   17.0094   46.9291  -53.5288 O   0  0  0  0  0  0  0  0  0  0  0  0
   17.1731   46.6370  -55.0650 P   0  0  0  0  0  0  0  0  0  0  0  0
   18.2905   47.3680  -55.7149 O   0  0  0  0  0  0  0  0  0  0  0  0
   17.4564   45.2017  -54.9504 O   0  0  0  0  0  0  0  0  0  0  0  0
   15.9624   46.8855  -55.8540 O   0  0  0  0  0  0  0  0  0  0  0  0
   18.2609   45.0720  -54.4243 H   0  0  0  0  0  0  0  0  0  0  0  0
   15.8037   47.8408  -55.9106 H   0  0  0  0  0  0  0  0  0  0  0  0
  8  9  1  0  0  0
  8 13  1  0  0  0
  8  1  1  0  0  0
  9 10  1  0  0  0
  9 14  2  0  0  0
 10 11  2  0  0  0
 11 12  1  0  0  0
 11 15  1  0  0  0
 12 13  2  0  0  0
  1  2  1  0  0  0
  1  5  1  0  0  0
  2  3  1  0  0  0
  3  4  1  0  0  0
  3  6  1  0  0  0
  4  5  1  0  0  0
  4 18  1  0  0  0
 18 19  1  0  0  0
 19 20  1  0  0  0
 20 21  2  0  0  0
 20 22  1  0  0  0
 20 23  1  0  0  0
 15 16  1  0  0  0
 15 17  1  0  0  0
  6  7  1  0  0  0
 22 24  1  0  0  0
 23 25  1  0  0  0
M  END
> <minimizedAffinity>
-7.43705

$$$$
1NJC_DCM_A_317


 25 26  0  0  0  0  0  0  0  0999 V2000
   14.1532   46.4400  -49.7402 C   0  0  0  0  0  0  0  0  0  0  0  0
   13.2493   46.5466  -50.9708 C   0  0  0  0  0  0  0  0  0  0  0  0
   13.9337   45.5730  -51.9218 C   0  0  0  0  0  0  0  0  0  0  0  0
   15.4202   45.9025  -51.8708 C   0  0  0  0  0  0  0  0  0  0  0  0
   15.4818   46.4328  -50.4500 O   0  0  0  0  0  0  0  0  0  0  0  0
   13.8387   44.2767  -51.3197 O   0  0  0  0  0  0  0  0  0  0  0  0
   14.2347   44.3015  -50.4345 H   0  0  0  0  0  0  0  0  0  0  0  0
   13.9304   47.3320  -48.5939 N   0  0  0  0  0  0  0  0  0  0  0  0
   14.1270   46.9108  -47.2868 C   0  0  0  0  0  0  0  0  0  0  0  0
   14.2268   47.8632  -46.2853 N   0  0  0  0  0  0  0  0  0  0  0  0
   14.1568   49.1892  -46.5622 C   0  0  0  0  0  0  0  0  0  0  0  0
   13.9066   49.6067  -47.9267 C   0  0  0  0  0  0  0  0  0  0  0  0
   13.7970   48.6060  -48.9042 C   0  0  0  0  0  0  0  0  0  0  0  0
   14.2249   45.7387  -46.9529 O   0  0  0  0  0  0  0  0  0  0  0  0
   14.4726   50.0806  -45.6186 N   0  0  0  0  0  0  0  0  0  0  0  0
   14.6399   49.7819  -44.6955 H   0  0  0  0  0  0  0  0  0  0  0  0
   14.5381   51.0362  -45.8463 H   0  0  0  0  0  0  0  0  0  0  0  0
   15.7607   47.0016  -52.8777 C   0  0  0  0  0  0  0  0  0  0  0  0
   16.9498   46.5985  -53.6273 O   0  0  0  0  0  0  0  0  0  0  0  0
   17.1634   47.1205  -55.0950 P   0  0  0  0  0  0  0  0  0  0  0  0
   16.5659   46.2598  -56.1473 O   0  0  0  0  0  0  0  0  0  0  0  0
   16.4341   48.3854  -54.9486 O   0  0  0  0  0  0  0  0  0  0  0  0
   18.5676   47.3467  -55.4515 O   0  0  0  0  0  0  0  0  0  0  0  0
   15.5112   48.2012  -54.7133 H   0  0  0  0  0  0  0  0  0  0  0  0
   19.0202   46.4934  -55.5404 H   0  0  0  0  0  0  0  0  0  0  0  0
  8  9  1  0  0  0
  8 13  1  0  0  0
  8  1  1  0  0  0
  9 10  1  0  0  0
  9 14  2  0  0  0
 10 11  2  0  0  0
 11 12  1  0  0  0
 11 15  1  0  0  0
 12 13  2  0  0  0
  1  2  1  0  0  0
  1  5  1  0  0  0
  2  3  1  0  0  0
  3  4  1  0  0  0
  3  6  1  0  0  0
  4  5  1  0  0  0
  4 18  1  0  0  0
 18 19  1  0  0  0
 19 20  1  0  0  0
 20 21  2  0  0  0
 20 22  1  0  0  0
 20 23  1  0  0  0
 15 16  1  0  0  0
 15 17  1  0  0  0
  6  7  1  0  0  0
 22 24  1  0  0  0
 23 25  1  0  0  0
M  END
> <minimizedAffinity>
-7.43038

$$$$
1NJC_DCM_A_317


 25 26  0  0  0  0  0  0  0  0999 V2000
   13.7483   49.9231  -48.2800 C   0  0  0  0  0  0  0  0  0  0  0  0
   15.1812   49.6101  -47.8421 C   0  0  0  0  0  0  0  0  0  0  0  0
   15.9720   50.1290  -49.0362 C   0  0  0  0  0  0  0  0  0  0  0  0
   15.2753   49.5848  -50.2769 C   0  0  0  0  0  0  0  0  0  0  0  0
   13.8661   49.4966  -49.7199 O   0  0  0  0  0  0  0  0  0  0  0  0
   15.7451   51.5422  -49.0953 O   0  0  0  0  0  0  0  0  0  0  0  0
   14.7923   51.7145  -49.1533 H   0  0  0  0  0  0  0  0  0  0  0  0
   12.6193   49.4612  -47.4605 N   0  0  0  0  0  0  0  0  0  0  0  0
   12.5856   48.1895  -46.9072 C   0  0  0  0  0  0  0  0  0  0  0  0
   11.6814   47.9263  -45.8909 N   0  0  0  0  0  0  0  0  0  0  0  0
   10.8505   48.8885  -45.4181 C   0  0  0  0  0  0  0  0  0  0  0  0
   10.8703   50.1971  -46.0395 C   0  0  0  0  0  0  0  0  0  0  0  0
   11.7919   50.4122  -47.0755 C   0  0  0  0  0  0  0  0  0  0  0  0
   13.3139   47.2717  -47.2567 O   0  0  0  0  0  0  0  0  0  0  0  0
   10.1505   48.6695  -44.3015 N   0  0  0  0  0  0  0  0  0  0  0  0
   10.1465   47.7748  -43.8906 H   0  0  0  0  0  0  0  0  0  0  0  0
    9.6387   49.4027  -43.8896 H   0  0  0  0  0  0  0  0  0  0  0  0
   15.8107   48.1960  -50.6268 C   0  0  0  0  0  0  0  0  0  0  0  0
   14.7426   47.4296  -51.2670 O   0  0  0  0  0  0  0  0  0  0  0  0
   14.1916   46.1287  -50.5770 P   0  0  0  0  0  0  0  0  0  0  0  0
   14.3559   44.8898  -51.3790 O   0  0  0  0  0  0  0  0  0  0  0  0
   15.0851   46.1451  -49.4131 O   0  0  0  0  0  0  0  0  0  0  0  0
   12.7837   46.2140  -50.1762 O   0  0  0  0  0  0  0  0  0  0  0  0
   16.0062   46.0874  -49.7117 H   0  0  0  0  0  0  0  0  0  0  0  0
   12.2212   46.2009  -50.9663 H   0  0  0  0  0  0  0  0  0  0  0  0
  8  9  1  0  0  0
  8 13  1  0  0  0
  8  1  1  0  0  0
  9 10  1  0  0  0
  9 14  2  0  0  0
 10 11  2  0  0  0
 11 12  1  0  0  0
 11 15  1  0  0  0
 12 13  2  0  0  0
  1  2  1  0  0  0
  1  5  1  0  0  0
  2  3  1  0  0  0
  3  4  1  0  0  0
  3  6  1  0  0  0
  4  5  1  0  0  0
  4 18  1  0  0  0
 18 19  1  0  0  0
 19 20  1  0  0  0
 20 21  2  0  0  0
 20 22  1  0  0  0
 20 23  1  0  0  0
 15 16  1  0  0  0
 15 17  1  0  0  0
  6  7  1  0  0  0
 22 24  1  0  0  0
 23 25  1  0  0  0
M  END
> <minimizedAffinity>
-7.36867

$$$$
1NJC_DCM_A_317


 25 26  0  0  0  0  0  0  0  0999 V2000
   15.2217   46.2201  -48.0045 C   0  0  0  0  0  0  0  0  0  0  0  0
   15.9995   47.2392  -47.1682 C   0  0  0  0  0  0  0  0  0  0  0  0
   15.7075   46.7439  -45.7575 C   0  0  0  0  0  0  0  0  0  0  0  0
   14.2059   46.4944  -45.6966 C   0  0  0  0  0  0  0  0  0  0  0  0
   13.9777   46.1526  -47.1577 O   0  0  0  0  0  0  0  0  0  0  0  0
   16.2867   45.4379  -45.6535 O   0  0  0  0  0  0  0  0  0  0  0  0
   15.9257   44.8676  -46.3501 H   0  0  0  0  0  0  0  0  0  0  0  0
   15.1188   46.3992  -49.4594 N   0  0  0  0  0  0  0  0  0  0  0  0
   16.1506   46.0471  -50.3173 C   0  0  0  0  0  0  0  0  0  0  0  0
   15.8821   45.9244  -51.6710 N   0  0  0  0  0  0  0  0  0  0  0  0
   14.6339   46.1209  -52.1641 C   0  0  0  0  0  0  0  0  0  0  0  0
   13.5804   46.5314  -51.2583 C   0  0  0  0  0  0  0  0  0  0  0  0
   13.9033   46.6579  -49.8986 C   0  0  0  0  0  0  0  0  0  0  0  0
   17.2977   45.8292  -49.9547 O   0  0  0  0  0  0  0  0  0  0  0  0
   14.3601   45.7847  -53.4278 N   0  0  0  0  0  0  0  0  0  0  0  0
   15.0865   45.5077  -54.0318 H   0  0  0  0  0  0  0  0  0  0  0  0
   13.4321   45.8140  -53.7550 H   0  0  0  0  0  0  0  0  0  0  0  0
   13.4644   47.7759  -45.3147 C   0  0  0  0  0  0  0  0  0  0  0  0
   12.1891   47.8102  -46.0293 O   0  0  0  0  0  0  0  0  0  0  0  0
   10.8494   48.0041  -45.2295 P   0  0  0  0  0  0  0  0  0  0  0  0
    9.6757   47.3097  -45.8173 O   0  0  0  0  0  0  0  0  0  0  0  0
   11.2869   47.3697  -43.9807 O   0  0  0  0  0  0  0  0  0  0  0  0
   10.4754   49.4062  -45.0189 O   0  0  0  0  0  0  0  0  0  0  0  0
   11.5264   46.4458  -44.1540 H   0  0  0  0  0  0  0  0  0  0  0  0
   10.1919   49.7952  -45.8610 H   0  0  0  0  0  0  0  0  0  0  0  0
  8  9  1  0  0  0
  8 13  1  0  0  0
  8  1  1  0  0  0
  9 10  1  0  0  0
  9 14  2  0  0  0
 10 11  2  0  0  0
 11 12  1  0  0  0
 11 15  1  0  0  0
 12 13  2  0  0  0
  1  2  1  0  0  0
  1  5  1  0  0  0
  2  3  1  0  0  0
  3  4  1  0  0  0
  3  6  1  0  0  0
  4  5  1  0  0  0
  4 18  1  0  0  0
 18 19  1  0  0  0
 19 20  1  0  0  0
 20 21  2  0  0  0
 20 22  1  0  0  0
 20 23  1  0  0  0
 15 16  1  0  0  0
 15 17  1  0  0  0
  6  7  1  0  0  0
 22 24  1  0  0  0
 23 25  1  0  0  0
M  END
> <minimizedAffinity>
-7.16702

$$$$
1NJC_DCM_A_317


 25 26  0  0  0  0  0  0  0  0999 V2000
   15.4984   48.5281  -47.8557 C   0  0  0  0  0  0  0  0  0  0  0  0
   16.8105   47.7535  -47.7104 C   0  0  0  0  0  0  0  0  0  0  0  0
   17.4418   47.9884  -49.0768 C   0  0  0  0  0  0  0  0  0  0  0  0
   16.3492   47.7155  -50.1028 C   0  0  0  0  0  0  0  0  0  0  0  0
   15.1487   48.0968  -49.2561 O   0  0  0  0  0  0  0  0  0  0  0  0
   17.6803   49.3970  -49.1814 O   0  0  0  0  0  0  0  0  0  0  0  0
   16.8478   49.8766  -49.0482 H   0  0  0  0  0  0  0  0  0  0  0  0
   14.4918   48.4620  -46.7870 N   0  0  0  0  0  0  0  0  0  0  0  0
   13.2125   48.9729  -46.9509 C   0  0  0  0  0  0  0  0  0  0  0  0
   12.2223   48.5948  -46.0585 N   0  0  0  0  0  0  0  0  0  0  0  0
   12.4759   47.7252  -45.0489 C   0  0  0  0  0  0  0  0  0  0  0  0
   13.8283   47.2381  -44.8683 C   0  0  0  0  0  0  0  0  0  0  0  0
   14.8009   47.6608  -45.7872 C   0  0  0  0  0  0  0  0  0  0  0  0
   12.8922   49.7421  -47.8456 O   0  0  0  0  0  0  0  0  0  0  0  0
   11.4624   47.2137  -44.3447 N   0  0  0  0  0  0  0  0  0  0  0  0
   10.5486   47.5548  -44.4782 H   0  0  0  0  0  0  0  0  0  0  0  0
   11.6293   46.4957  -43.6921 H   0  0  0  0  0  0  0  0  0  0  0  0
   16.3115   46.2302  -50.4638 C   0  0  0  0  0  0  0  0  0  0  0  0
   14.9403   45.7456  -50.3118 O   0  0  0  0  0  0  0  0  0  0  0  0
   14.1057   45.3479  -51.5837 P   0  0  0  0  0  0  0  0  0  0  0  0
   14.8825   45.3319  -52.8492 O   0  0  0  0  0  0  0  0  0  0  0  0
   13.7445   43.9932  -51.1506 O   0  0  0  0  0  0  0  0  0  0  0  0
   12.9171   46.1779  -51.8034 O   0  0  0  0  0  0  0  0  0  0  0  0
   14.5508   43.4715  -51.0144 H   0  0  0  0  0  0  0  0  0  0  0  0
   13.1897   47.0643  -52.0879 H   0  0  0  0  0  0  0  0  0  0  0  0
  8  9  1  0  0  0
  8 13  1  0  0  0
  8  1  1  0  0  0
  9 10  1  0  0  0
  9 14  2  0  0  0
 10 11  2  0  0  0
 11 12  1  0  0  0
 11 15  1  0  0  0
 12 13  2  0  0  0
  1  2  1  0  0  0
  1  5  1  0  0  0
  2  3  1  0  0  0
  3  4  1  0  0  0
  3  6  1  0  0  0
  4  5  1  0  0  0
  4 18  1  0  0  0
 18 19  1  0  0  0
 19 20  1  0  0  0
 20 21  2  0  0  0
 20 22  1  0  0  0
 20 23  1  0  0  0
 15 16  1  0  0  0
 15 17  1  0  0  0
  6  7  1  0  0  0
 22 24  1  0  0  0
 23 25  1  0  0  0
M  END
> <minimizedAffinity>
-6.91161

$$$$
1NJC_DCM_A_317


 25 26  0  0  0  0  0  0  0  0999 V2000
   15.6106   48.6172  -49.4834 C   0  0  0  0  0  0  0  0  0  0  0  0
   16.7038   47.5553  -49.3416 C   0  0  0  0  0  0  0  0  0  0  0  0
   17.4912   47.7724  -50.6275 C   0  0  0  0  0  0  0  0  0  0  0  0
   16.4621   47.8547  -51.7477 C   0  0  0  0  0  0  0  0  0  0  0  0
   15.3025   48.4141  -50.9439 O   0  0  0  0  0  0  0  0  0  0  0  0
   18.0396   49.0938  -50.5542 O   0  0  0  0  0  0  0  0  0  0  0  0
   17.3232   49.7343  -50.4221 H   0  0  0  0  0  0  0  0  0  0  0  0
   14.5221   48.6776  -48.4980 N   0  0  0  0  0  0  0  0  0  0  0  0
   13.6717   47.6041  -48.2768 C   0  0  0  0  0  0  0  0  0  0  0  0
   12.8951   47.5918  -47.1294 N   0  0  0  0  0  0  0  0  0  0  0  0
   12.9671   48.5929  -46.2171 C   0  0  0  0  0  0  0  0  0  0  0  0
   13.8279   49.7261  -46.4884 C   0  0  0  0  0  0  0  0  0  0  0  0
   14.5835   49.7016  -47.6705 C   0  0  0  0  0  0  0  0  0  0  0  0
   13.5623   46.6504  -49.0340 O   0  0  0  0  0  0  0  0  0  0  0  0
   12.3764   48.4489  -45.0275 N   0  0  0  0  0  0  0  0  0  0  0  0
   11.7940   47.6736  -44.8577 H   0  0  0  0  0  0  0  0  0  0  0  0
   12.5235   49.1182  -44.3206 H   0  0  0  0  0  0  0  0  0  0  0  0
   16.1340   46.4587  -52.2781 C   0  0  0  0  0  0  0  0  0  0  0  0
   16.9134   46.2237  -53.4928 O   0  0  0  0  0  0  0  0  0  0  0  0
   16.2053   46.2615  -54.8961 P   0  0  0  0  0  0  0  0  0  0  0  0
   17.0988   45.9655  -56.0446 O   0  0  0  0  0  0  0  0  0  0  0  0
   15.2545   45.1707  -54.6520 O   0  0  0  0  0  0  0  0  0  0  0  0
   15.5152   47.5227  -55.1847 O   0  0  0  0  0  0  0  0  0  0  0  0
   15.7416   44.3530  -54.4648 H   0  0  0  0  0  0  0  0  0  0  0  0
   16.1700   48.2212  -55.3408 H   0  0  0  0  0  0  0  0  0  0  0  0
  8  9  1  0  0  0
  8 13  1  0  0  0
  8  1  1  0  0  0
  9 10  1  0  0  0
  9 14  2  0  0  0
 10 11  2  0  0  0
 11 12  1  0  0  0
 11 15  1  0  0  0
 12 13  2  0  0  0
  1  2  1  0  0  0
  1  5  1  0  0  0
  2  3  1  0  0  0
  3  4  1  0  0  0
  3  6  1  0  0  0
  4  5  1  0  0  0
  4 18  1  0  0  0
 18 19  1  0  0  0
 19 20  1  0  0  0
 20 21  2  0  0  0
 20 22  1  0  0  0
 20 23  1  0  0  0
 15 16  1  0  0  0
 15 17  1  0  0  0
  6  7  1  0  0  0
 22 24  1  0  0  0
 23 25  1  0  0  0
M  END
> <minimizedAffinity>
-6.78720

$$$$
1NJC_DCM_A_317


 25 26  0  0  0  0  0  0  0  0999 V2000
   16.5017   46.3700  -52.1887 C   0  0  0  0  0  0  0  0  0  0  0  0
   15.2676   46.8181  -52.9753 C   0  0  0  0  0  0  0  0  0  0  0  0
   15.6693   46.4342  -54.3937 C   0  0  0  0  0  0  0  0  0  0  0  0
   17.0903   46.9481  -54.5872 C   0  0  0  0  0  0  0  0  0  0  0  0
   17.5561   46.8624  -53.1452 O   0  0  0  0  0  0  0  0  0  0  0  0
   15.8046   45.0082  -54.4097 O   0  0  0  0  0  0  0  0  0  0  0  0
   16.4464   44.7367  -53.7350 H   0  0  0  0  0  0  0  0  0  0  0  0
   16.6015   46.6754  -50.7547 N   0  0  0  0  0  0  0  0  0  0  0  0
   17.6034   46.1405  -49.9581 C   0  0  0  0  0  0  0  0  0  0  0  0
   17.8480   46.7101  -48.7189 N   0  0  0  0  0  0  0  0  0  0  0  0
   17.1443   47.7852  -48.2846 C   0  0  0  0  0  0  0  0  0  0  0  0
   16.0727   48.3008  -49.1120 C   0  0  0  0  0  0  0  0  0  0  0  0
   15.8517   47.6818  -50.3518 C   0  0  0  0  0  0  0  0  0  0  0  0
   18.2999   45.1891  -50.2814 O   0  0  0  0  0  0  0  0  0  0  0  0
   17.5451   48.4423  -47.1926 N   0  0  0  0  0  0  0  0  0  0  0  0
   18.2746   48.0796  -46.6399 H   0  0  0  0  0  0  0  0  0  0  0  0
   17.1108   49.2891  -46.9405 H   0  0  0  0  0  0  0  0  0  0  0  0
   17.0748   48.3990  -55.0693 C   0  0  0  0  0  0  0  0  0  0  0  0
   16.8476   48.4105  -56.5138 O   0  0  0  0  0  0  0  0  0  0  0  0
   15.7151   49.3170  -57.1203 P   0  0  0  0  0  0  0  0  0  0  0  0
   14.7690   49.8721  -56.1193 O   0  0  0  0  0  0  0  0  0  0  0  0
   16.5892   50.3562  -57.6766 O   0  0  0  0  0  0  0  0  0  0  0  0
   14.9215   48.6643  -58.1663 O   0  0  0  0  0  0  0  0  0  0  0  0
   17.0989   50.7672  -56.9609 H   0  0  0  0  0  0  0  0  0  0  0  0
   14.3563   47.9848  -57.7666 H   0  0  0  0  0  0  0  0  0  0  0  0
  8  9  1  0  0  0
  8 13  1  0  0  0
  8  1  1  0  0  0
  9 10  1  0  0  0
  9 14  2  0  0  0
 10 11  2  0  0  0
 11 12  1  0  0  0
 11 15  1  0  0  0
 12 13  2  0  0  0
  1  2  1  0  0  0
  1  5  1  0  0  0
  2  3  1  0  0  0
  3  4  1  0  0  0
  3  6  1  0  0  0
  4  5  1  0  0  0
  4 18  1  0  0  0
 18 19  1  0  0  0
 19 20  1  0  0  0
 20 21  2  0  0  0
 20 22  1  0  0  0
 20 23  1  0  0  0
 15 16  1  0  0  0
 15 17  1  0  0  0
  6  7  1  0  0  0
 22 24  1  0  0  0
 23 25  1  0  0  0
M  END
> <minimizedAffinity>
-6.78118

$$$$
1NJC_DCM_A_317


 25 26  0  0  0  0  0  0  0  0999 V2000
   14.9635   46.6960  -51.5324 C   0  0  0  0  0  0  0  0  0  0  0  0
   14.6461   45.9317  -50.2448 C   0  0  0  0  0  0  0  0  0  0  0  0
   13.3701   46.6321  -49.7957 C   0  0  0  0  0  0  0  0  0  0  0  0
   13.6437   48.1267  -49.9061 C   0  0  0  0  0  0  0  0  0  0  0  0
   14.6524   48.0850  -51.0395 O   0  0  0  0  0  0  0  0  0  0  0  0
   12.3860   46.3781  -50.8052 O   0  0  0  0  0  0  0  0  0  0  0  0
   12.7176   46.6835  -51.6641 H   0  0  0  0  0  0  0  0  0  0  0  0
   16.2188   46.4275  -52.2478 N   0  0  0  0  0  0  0  0  0  0  0  0
   16.2343   45.8963  -53.5292 C   0  0  0  0  0  0  0  0  0  0  0  0
   17.4018   45.9747  -54.2713 N   0  0  0  0  0  0  0  0  0  0  0  0
   18.5134   46.5751  -53.7777 C   0  0  0  0  0  0  0  0  0  0  0  0
   18.4902   47.0836  -52.4214 C   0  0  0  0  0  0  0  0  0  0  0  0
   17.2904   46.9678  -51.7029 C   0  0  0  0  0  0  0  0  0  0  0  0
   15.2720   45.3598  -54.0593 O   0  0  0  0  0  0  0  0  0  0  0  0
   19.5449   46.8283  -54.5881 N   0  0  0  0  0  0  0  0  0  0  0  0
   19.5467   46.4760  -55.5074 H   0  0  0  0  0  0  0  0  0  0  0  0
   20.3033   47.3672  -54.2659 H   0  0  0  0  0  0  0  0  0  0  0  0
   14.2884   48.6500  -48.6222 C   0  0  0  0  0  0  0  0  0  0  0  0
   13.3008   48.5937  -47.5452 O   0  0  0  0  0  0  0  0  0  0  0  0
   13.7053   48.0089  -46.1429 P   0  0  0  0  0  0  0  0  0  0  0  0
   15.1473   48.1408  -45.8138 O   0  0  0  0  0  0  0  0  0  0  0  0
   12.8772   48.9026  -45.3249 O   0  0  0  0  0  0  0  0  0  0  0  0
   13.3332   46.6037  -45.9503 O   0  0  0  0  0  0  0  0  0  0  0  0
   13.1480   49.8218  -45.4751 H   0  0  0  0  0  0  0  0  0  0  0  0
   13.8976   46.0411  -46.5033 H   0  0  0  0  0  0  0  0  0  0  0  0
  8  9  1  0  0  0
  8 13  1  0  0  0
  8  1  1  0  0  0
  9 10  1  0  0  0
  9 14  2  0  0  0
 10 11  2  0  0  0
 11 12  1  0  0  0
 11 15  1  0  0  0
 12 13  2  0  0  0
  1  2  1  0  0  0
  1  5  1  0  0  0
  2  3  1  0  0  0
  3  4  1  0  0  0
  3  6  1  0  0  0
  4  5  1  0  0  0
  4 18  1  0  0  0
 18 19  1  0  0  0
 19 20  1  0  0  0
 20 21  2  0  0  0
 20 22  1  0  0  0
 20 23  1  0  0  0
 15 16  1  0  0  0
 15 17  1  0  0  0
  6  7  1  0  0  0
 22 24  1  0  0  0
 23 25  1  0  0  0
M  END
> <minimizedAffinity>
-6.72269

$$$$
