5DGU_5B7_A_201


 44 47  0  0  0  0  0  0  0  0999 V2000
   14.6347   22.5295   16.9210 C   0  0  0  0  0  0  0  0  0  0  0  0
   13.8964   21.4774   17.6246 N   0  0  0  0  0  0  0  0  0  0  0  0
   14.3035   20.2213   17.8005 C   0  0  0  0  0  0  0  0  0  0  0  0
   15.4550   19.8212   17.5677 O   0  0  0  0  0  0  0  0  0  0  0  0
   13.0201   21.7209   18.0015 H   0  0  0  0  0  0  0  0  0  0  0  0
   13.3090   19.3938   18.2412 O   0  0  0  0  0  0  0  0  0  0  0  0
   13.7679   18.2383   18.9489 C   0  0  0  0  0  0  0  0  0  0  0  0
   13.9507   18.6756   20.4050 C   0  0  0  0  0  0  0  0  0  0  0  0
   11.5803   18.0753   20.9476 O   0  0  0  0  0  0  0  0  0  0  0  0
   11.4234   17.4854   19.6560 C   0  0  0  0  0  0  0  0  0  0  0  0
   10.6972   18.3962   18.8259 O   0  0  0  0  0  0  0  0  0  0  0  0
   10.9657   18.0914   17.4535 C   0  0  0  0  0  0  0  0  0  0  0  0
   12.0980   17.0583   17.4380 C   0  0  0  0  0  0  0  0  0  0  0  0
   12.6715   17.1710   18.8773 C   0  0  0  0  0  0  0  0  0  0  0  0
   12.6112   19.0700   20.9959 C   0  0  0  0  0  0  0  0  0  0  0  0
   11.4622   15.7650   17.3143 O   0  0  0  0  0  0  0  0  0  0  0  0
   10.5502   15.7368   16.2148 C   0  0  0  0  0  0  0  0  0  0  0  0
   15.1777   23.5581   17.9110 C   0  0  0  0  0  0  0  0  0  0  0  0
   14.0877   24.3731   18.3729 O   0  0  0  0  0  0  0  0  0  0  0  0
   13.6969   24.8463   17.6217 H   0  0  0  0  0  0  0  0  0  0  0  0
   16.2771   24.4433   17.3138 C   0  0  0  0  0  0  0  0  0  0  0  0
   17.5303   23.7049   17.2760 N   0  0  0  0  0  0  0  0  0  0  0  0
   18.1812   23.3695   15.7874 S   0  0  0  0  0  0  0  0  0  0  0  0
   17.0643   23.2191   14.8361 O   0  0  0  0  0  0  0  0  0  0  0  0
   19.1417   22.2522   16.0114 O   0  0  0  0  0  0  0  0  0  0  0  0
   20.6149   27.0100   14.4554 C   0  0  0  0  0  0  0  0  0  0  0  0
   19.2114   27.0595   14.4570 C   0  0  0  0  0  0  0  0  0  0  0  0
   18.4766   25.9292   14.8685 C   0  0  0  0  0  0  0  0  0  0  0  0
   19.1243   24.7742   15.2728 C   0  0  0  0  0  0  0  0  0  0  0  0
   20.5158   24.7140   15.2741 C   0  0  0  0  0  0  0  0  0  0  0  0
   21.2733   25.8306   14.8651 C   0  0  0  0  0  0  0  0  0  0  0  0
   21.2590   28.1417   14.0427 O   0  0  0  0  0  0  0  0  0  0  0  0
   22.1754   28.6229   14.9978 C   0  0  0  0  0  0  0  0  0  0  0  0
   18.4601   24.0420   18.3324 C   0  0  0  0  0  0  0  0  0  0  0  0
   18.3303   23.1775   19.5972 C   0  0  0  0  0  0  0  0  0  0  0  0
   18.0698   21.6998   19.2747 C   0  0  0  0  0  0  0  0  0  0  0  0
   19.6258   23.2710   20.4331 C   0  0  0  0  0  0  0  0  0  0  0  0
   13.7031   23.1558   15.8564 C   0  0  0  0  0  0  0  0  0  0  0  0
   11.9316   21.7862   14.7100 C   0  0  0  0  0  0  0  0  0  0  0  0
   11.4942   20.7856   13.8645 C   0  0  0  0  0  0  0  0  0  0  0  0
   12.4049   19.9354   13.2157 C   0  0  0  0  0  0  0  0  0  0  0  0
   13.7459   20.2467   13.3055 C   0  0  0  0  0  0  0  0  0  0  0  0
   14.1990   21.2832   14.1634 C   0  0  0  0  0  0  0  0  0  0  0  0
   13.2857   22.0432   14.8680 C   0  0  0  0  0  0  0  0  0  0  0  0
 41 42  2  0  0  0
 41 40  1  0  0  0
 42 43  1  0  0  0
 40 39  2  0  0  0
 43 44  2  0  0  0
 39 44  1  0  0  0
 17 16  1  0  0  0
 32 26  1  0  0  0
 32 33  1  0  0  0
 27 26  2  0  0  0
 27 28  1  0  0  0
 44 38  1  0  0  0
 24 23  2  0  0  0
 26 31  1  0  0  0
 28 29  2  0  0  0
 31 30  2  0  0  0
 29 30  1  0  0  0
 29 23  1  0  0  0
 38  1  1  0  0  0
 23 25  2  0  0  0
 23 22  1  0  0  0
 16 13  1  0  0  0
 13 12  1  0  0  0
 13 14  1  0  0  0
  1  2  1  0  0  0
  1 18  1  0  0  0
 12 11  1  0  0  0
 22 21  1  0  0  0
 22 34  1  0  0  0
 21 18  1  0  0  0
  4  3  2  0  0  0
  2  3  1  0  0  0
  3  6  1  0  0  0
 14  7  1  0  0  0
 14 10  1  0  0  0
 18 19  1  0  0  0
  6  7  1  0  0  0
  7  8  1  0  0  0
 11 10  1  0  0  0
 34 35  1  0  0  0
 10  9  1  0  0  0
 36 35  1  0  0  0
 35 37  1  0  0  0
  8 15  1  0  0  0
  9 15  1  0  0  0
 19 20  1  0  0  0
  2  5  1  0  0  0
M  END
> <minimizedAffinity>
-9.90853

$$$$
5DGU_5B7_A_201


 44 47  0  0  0  0  0  0  0  0999 V2000
   18.1872   24.3985   18.4521 C   0  0  0  0  0  0  0  0  0  0  0  0
   19.0816   25.2874   17.7059 N   0  0  0  0  0  0  0  0  0  0  0  0
   19.9044   24.9227   16.7239 C   0  0  0  0  0  0  0  0  0  0  0  0
   19.8803   23.8133   16.1680 O   0  0  0  0  0  0  0  0  0  0  0  0
   19.0736   26.2404   17.9526 H   0  0  0  0  0  0  0  0  0  0  0  0
   20.8128   25.8913   16.4002 O   0  0  0  0  0  0  0  0  0  0  0  0
   21.1879   25.9165   15.0199 C   0  0  0  0  0  0  0  0  0  0  0  0
   19.9805   26.4743   14.2609 C   0  0  0  0  0  0  0  0  0  0  0  0
   20.8128   28.8205   14.5371 O   0  0  0  0  0  0  0  0  0  0  0  0
   22.0397   28.3319   15.0820 C   0  0  0  0  0  0  0  0  0  0  0  0
   21.9992   28.4875   16.5033 O   0  0  0  0  0  0  0  0  0  0  0  0
   22.9292   27.5770   17.0986 C   0  0  0  0  0  0  0  0  0  0  0  0
   23.4237   26.6497   15.9827 C   0  0  0  0  0  0  0  0  0  0  0  0
   22.3687   26.8799   14.8660 C   0  0  0  0  0  0  0  0  0  0  0  0
   19.7201   27.9054   14.6887 C   0  0  0  0  0  0  0  0  0  0  0  0
   24.6800   27.2023   15.5262 O   0  0  0  0  0  0  0  0  0  0  0  0
   25.7831   26.6538   16.2499 C   0  0  0  0  0  0  0  0  0  0  0  0
   16.7543   24.5239   17.9382 C   0  0  0  0  0  0  0  0  0  0  0  0
   16.2268   25.7958   18.3501 O   0  0  0  0  0  0  0  0  0  0  0  0
   16.2105   25.8406   19.3189 H   0  0  0  0  0  0  0  0  0  0  0  0
   15.8406   23.3947   18.4271 C   0  0  0  0  0  0  0  0  0  0  0  0
   16.0457   22.2116   17.6053 N   0  0  0  0  0  0  0  0  0  0  0  0
   16.7463   20.8893   18.3215 S   0  0  0  0  0  0  0  0  0  0  0  0
   17.5327   21.3701   19.4728 O   0  0  0  0  0  0  0  0  0  0  0  0
   17.4034   20.1351   17.2167 O   0  0  0  0  0  0  0  0  0  0  0  0
   13.4054   18.2273   19.9657 C   0  0  0  0  0  0  0  0  0  0  0  0
   14.0499   17.8924   18.7637 C   0  0  0  0  0  0  0  0  0  0  0  0
   15.0757   18.7236   18.2700 C   0  0  0  0  0  0  0  0  0  0  0  0
   15.4548   19.8631   18.9590 C   0  0  0  0  0  0  0  0  0  0  0  0
   14.8216   20.2052   20.1515 C   0  0  0  0  0  0  0  0  0  0  0  0
   13.7914   19.3911   20.6651 C   0  0  0  0  0  0  0  0  0  0  0  0
   12.4208   17.3765   20.3809 O   0  0  0  0  0  0  0  0  0  0  0  0
   11.6264   16.9061   19.3173 C   0  0  0  0  0  0  0  0  0  0  0  0
   14.9910   21.9521   16.6493 C   0  0  0  0  0  0  0  0  0  0  0  0
   15.2491   22.5196   15.2439 C   0  0  0  0  0  0  0  0  0  0  0  0
   16.7452   22.6734   14.9380 C   0  0  0  0  0  0  0  0  0  0  0  0
   14.6290   21.5885   14.1788 C   0  0  0  0  0  0  0  0  0  0  0  0
   18.3143   24.7254   19.9590 C   0  0  0  0  0  0  0  0  0  0  0  0
   20.4891   25.5160   20.9457 C   0  0  0  0  0  0  0  0  0  0  0  0
   21.8086   25.3572   21.3212 C   0  0  0  0  0  0  0  0  0  0  0  0
   22.4977   24.1614   21.0593 C   0  0  0  0  0  0  0  0  0  0  0  0
   21.7663   23.0928   20.5837 C   0  0  0  0  0  0  0  0  0  0  0  0
   20.4058   23.2482   20.2088 C   0  0  0  0  0  0  0  0  0  0  0  0
   19.7768   24.4653   20.3860 C   0  0  0  0  0  0  0  0  0  0  0  0
 41 42  2  0  0  0
 41 40  1  0  0  0
 42 43  1  0  0  0
 40 39  2  0  0  0
 43 44  2  0  0  0
 39 44  1  0  0  0
 17 16  1  0  0  0
 32 26  1  0  0  0
 32 33  1  0  0  0
 27 26  2  0  0  0
 27 28  1  0  0  0
 44 38  1  0  0  0
 24 23  2  0  0  0
 26 31  1  0  0  0
 28 29  2  0  0  0
 31 30  2  0  0  0
 29 30  1  0  0  0
 29 23  1  0  0  0
 38  1  1  0  0  0
 23 25  2  0  0  0
 23 22  1  0  0  0
 16 13  1  0  0  0
 13 12  1  0  0  0
 13 14  1  0  0  0
  1  2  1  0  0  0
  1 18  1  0  0  0
 12 11  1  0  0  0
 22 21  1  0  0  0
 22 34  1  0  0  0
 21 18  1  0  0  0
  4  3  2  0  0  0
  2  3  1  0  0  0
  3  6  1  0  0  0
 14  7  1  0  0  0
 14 10  1  0  0  0
 18 19  1  0  0  0
  6  7  1  0  0  0
  7  8  1  0  0  0
 11 10  1  0  0  0
 34 35  1  0  0  0
 10  9  1  0  0  0
 36 35  1  0  0  0
 35 37  1  0  0  0
  8 15  1  0  0  0
  9 15  1  0  0  0
 19 20  1  0  0  0
  2  5  1  0  0  0
M  END
> <minimizedAffinity>
-9.49823

$$$$
5DGU_5B7_A_201


 44 47  0  0  0  0  0  0  0  0999 V2000
   18.4076   25.6558   16.8878 C   0  0  0  0  0  0  0  0  0  0  0  0
   19.4410   25.3324   17.8750 N   0  0  0  0  0  0  0  0  0  0  0  0
   20.3856   26.1611   18.3170 C   0  0  0  0  0  0  0  0  0  0  0  0
   20.3978   27.3837   18.1041 O   0  0  0  0  0  0  0  0  0  0  0  0
   19.4368   24.4201   18.2450 H   0  0  0  0  0  0  0  0  0  0  0  0
   21.3728   25.5230   19.0145 O   0  0  0  0  0  0  0  0  0  0  0  0
   20.9505   24.9572   20.2587 C   0  0  0  0  0  0  0  0  0  0  0  0
   21.0392   23.4380   20.0873 C   0  0  0  0  0  0  0  0  0  0  0  0
   23.4152   23.4255   20.8800 O   0  0  0  0  0  0  0  0  0  0  0  0
   23.3163   24.8069   21.2302 C   0  0  0  0  0  0  0  0  0  0  0  0
   23.9637   25.5801   20.2156 O   0  0  0  0  0  0  0  0  0  0  0  0
   23.4543   26.9171   20.2523 C   0  0  0  0  0  0  0  0  0  0  0  0
   22.2611   26.9148   21.2145 C   0  0  0  0  0  0  0  0  0  0  0  0
   21.9386   25.4006   21.3419 C   0  0  0  0  0  0  0  0  0  0  0  0
   22.4824   23.0285   19.8668 C   0  0  0  0  0  0  0  0  0  0  0  0
   22.7707   27.3682   22.4900 O   0  0  0  0  0  0  0  0  0  0  0  0
   21.8440   27.1026   23.5445 C   0  0  0  0  0  0  0  0  0  0  0  0
   17.0730   25.0260   17.2818 C   0  0  0  0  0  0  0  0  0  0  0  0
   16.2825   26.0120   17.9663 O   0  0  0  0  0  0  0  0  0  0  0  0
   16.7413   26.2901   18.7745 H   0  0  0  0  0  0  0  0  0  0  0  0
   17.2335   23.7809   18.1610 C   0  0  0  0  0  0  0  0  0  0  0  0
   16.7728   22.6080   17.4335 N   0  0  0  0  0  0  0  0  0  0  0  0
   17.3256   21.1260   17.9337 S   0  0  0  0  0  0  0  0  0  0  0  0
   18.3548   21.3586   18.9641 O   0  0  0  0  0  0  0  0  0  0  0  0
   17.6560   20.3789   16.6873 O   0  0  0  0  0  0  0  0  0  0  0  0
   13.8560   18.9192   19.9444 C   0  0  0  0  0  0  0  0  0  0  0  0
   14.3604   18.4711   18.7128 C   0  0  0  0  0  0  0  0  0  0  0  0
   15.4281   19.1628   18.1058 C   0  0  0  0  0  0  0  0  0  0  0  0
   15.9848   20.2759   18.7128 C   0  0  0  0  0  0  0  0  0  0  0  0
   15.4916   20.7294   19.9339 C   0  0  0  0  0  0  0  0  0  0  0  0
   14.4229   20.0558   20.5601 C   0  0  0  0  0  0  0  0  0  0  0  0
   12.8206   18.2005   20.4709 O   0  0  0  0  0  0  0  0  0  0  0  0
   12.2301   17.3326   19.5318 C   0  0  0  0  0  0  0  0  0  0  0  0
   15.3961   22.6749   16.9928 C   0  0  0  0  0  0  0  0  0  0  0  0
   15.2035   22.5250   15.4748 C   0  0  0  0  0  0  0  0  0  0  0  0
   16.5242   22.6368   14.7011 C   0  0  0  0  0  0  0  0  0  0  0  0
   14.5699   21.1524   15.1581 C   0  0  0  0  0  0  0  0  0  0  0  0
   18.8985   25.1974   15.4941 C   0  0  0  0  0  0  0  0  0  0  0  0
   19.6599   27.4458   14.6615 C   0  0  0  0  0  0  0  0  0  0  0  0
   20.6092   28.3448   14.2165 C   0  0  0  0  0  0  0  0  0  0  0  0
   21.9475   27.9568   14.0387 C   0  0  0  0  0  0  0  0  0  0  0  0
   22.3174   26.7083   14.4942 C   0  0  0  0  0  0  0  0  0  0  0  0
   21.3465   25.7856   14.9649 C   0  0  0  0  0  0  0  0  0  0  0  0
   20.0187   26.1597   15.0382 C   0  0  0  0  0  0  0  0  0  0  0  0
 41 42  2  0  0  0
 41 40  1  0  0  0
 42 43  1  0  0  0
 40 39  2  0  0  0
 43 44  2  0  0  0
 39 44  1  0  0  0
 17 16  1  0  0  0
 32 26  1  0  0  0
 32 33  1  0  0  0
 27 26  2  0  0  0
 27 28  1  0  0  0
 44 38  1  0  0  0
 24 23  2  0  0  0
 26 31  1  0  0  0
 28 29  2  0  0  0
 31 30  2  0  0  0
 29 30  1  0  0  0
 29 23  1  0  0  0
 38  1  1  0  0  0
 23 25  2  0  0  0
 23 22  1  0  0  0
 16 13  1  0  0  0
 13 12  1  0  0  0
 13 14  1  0  0  0
  1  2  1  0  0  0
  1 18  1  0  0  0
 12 11  1  0  0  0
 22 21  1  0  0  0
 22 34  1  0  0  0
 21 18  1  0  0  0
  4  3  2  0  0  0
  2  3  1  0  0  0
  3  6  1  0  0  0
 14  7  1  0  0  0
 14 10  1  0  0  0
 18 19  1  0  0  0
  6  7  1  0  0  0
  7  8  1  0  0  0
 11 10  1  0  0  0
 34 35  1  0  0  0
 10  9  1  0  0  0
 36 35  1  0  0  0
 35 37  1  0  0  0
  8 15  1  0  0  0
  9 15  1  0  0  0
 19 20  1  0  0  0
  2  5  1  0  0  0
M  END
> <minimizedAffinity>
-9.38770

$$$$
5DGU_5B7_A_201


 44 47  0  0  0  0  0  0  0  0999 V2000
   15.1716   22.0839   16.2425 C   0  0  0  0  0  0  0  0  0  0  0  0
   14.2763   21.3829   17.1666 N   0  0  0  0  0  0  0  0  0  0  0  0
   14.5075   20.1985   17.7308 C   0  0  0  0  0  0  0  0  0  0  0  0
   15.6036   19.6168   17.7097 O   0  0  0  0  0  0  0  0  0  0  0  0
   13.4271   21.8275   17.3910 H   0  0  0  0  0  0  0  0  0  0  0  0
   13.3974   19.6612   18.3200 O   0  0  0  0  0  0  0  0  0  0  0  0
   13.5419   18.2972   18.7263 C   0  0  0  0  0  0  0  0  0  0  0  0
   13.6788   18.3195   20.2513 C   0  0  0  0  0  0  0  0  0  0  0  0
   11.1964   18.1494   20.5383 O   0  0  0  0  0  0  0  0  0  0  0  0
   11.0384   17.9376   19.1344 C   0  0  0  0  0  0  0  0  0  0  0  0
   10.5940   19.1594   18.5379 O   0  0  0  0  0  0  0  0  0  0  0  0
   10.9166   19.1418   17.1436 C   0  0  0  0  0  0  0  0  0  0  0  0
   11.8079   17.9175   16.9063 C   0  0  0  0  0  0  0  0  0  0  0  0
   12.2599   17.5500   18.3464 C   0  0  0  0  0  0  0  0  0  0  0  0
   12.4017   18.8481   20.8749 C   0  0  0  0  0  0  0  0  0  0  0  0
   10.9326   16.8668   16.4349 O   0  0  0  0  0  0  0  0  0  0  0  0
   10.1740   17.2915   15.3011 C   0  0  0  0  0  0  0  0  0  0  0  0
   16.0883   23.0392   17.0041 C   0  0  0  0  0  0  0  0  0  0  0  0
   15.8890   24.3699   16.4988 O   0  0  0  0  0  0  0  0  0  0  0  0
   16.1283   24.3982   15.5593 H   0  0  0  0  0  0  0  0  0  0  0  0
   17.5692   22.6574   16.9038 C   0  0  0  0  0  0  0  0  0  0  0  0
   18.3414   23.4479   17.8504 N   0  0  0  0  0  0  0  0  0  0  0  0
   18.5669   22.8237   19.3707 S   0  0  0  0  0  0  0  0  0  0  0  0
   18.8996   21.3947   19.2211 O   0  0  0  0  0  0  0  0  0  0  0  0
   17.3748   23.2459   20.1593 O   0  0  0  0  0  0  0  0  0  0  0  0
   22.2171   24.8760   21.2187 C   0  0  0  0  0  0  0  0  0  0  0  0
   22.3434   23.6111   20.6218 C   0  0  0  0  0  0  0  0  0  0  0  0
   21.2093   22.9918   20.0587 C   0  0  0  0  0  0  0  0  0  0  0  0
   19.9752   23.6190   20.0860 C   0  0  0  0  0  0  0  0  0  0  0  0
   19.8384   24.8731   20.6764 C   0  0  0  0  0  0  0  0  0  0  0  0
   20.9575   25.5124   21.2482 C   0  0  0  0  0  0  0  0  0  0  0  0
   23.3578   25.4128   21.7445 O   0  0  0  0  0  0  0  0  0  0  0  0
   23.1167   26.1592   22.9143 C   0  0  0  0  0  0  0  0  0  0  0  0
   19.4559   24.1644   17.2686 C   0  0  0  0  0  0  0  0  0  0  0  0
   19.1806   25.6496   16.9817 C   0  0  0  0  0  0  0  0  0  0  0  0
   20.3409   26.5564   17.4139 C   0  0  0  0  0  0  0  0  0  0  0  0
   18.9390   25.8572   15.4703 C   0  0  0  0  0  0  0  0  0  0  0  0
   14.3121   22.8014   15.1748 C   0  0  0  0  0  0  0  0  0  0  0  0
   13.9784   20.7024   13.8290 C   0  0  0  0  0  0  0  0  0  0  0  0
   13.2079   19.7480   13.1942 C   0  0  0  0  0  0  0  0  0  0  0  0
   11.8089   19.8634   13.1421 C   0  0  0  0  0  0  0  0  0  0  0  0
   11.2206   20.8566   13.8975 C   0  0  0  0  0  0  0  0  0  0  0  0
   12.0090   21.8321   14.5626 C   0  0  0  0  0  0  0  0  0  0  0  0
   13.3873   21.7521   14.5170 C   0  0  0  0  0  0  0  0  0  0  0  0
 41 42  2  0  0  0
 41 40  1  0  0  0
 42 43  1  0  0  0
 40 39  2  0  0  0
 43 44  2  0  0  0
 39 44  1  0  0  0
 17 16  1  0  0  0
 32 26  1  0  0  0
 32 33  1  0  0  0
 27 26  2  0  0  0
 27 28  1  0  0  0
 44 38  1  0  0  0
 24 23  2  0  0  0
 26 31  1  0  0  0
 28 29  2  0  0  0
 31 30  2  0  0  0
 29 30  1  0  0  0
 29 23  1  0  0  0
 38  1  1  0  0  0
 23 25  2  0  0  0
 23 22  1  0  0  0
 16 13  1  0  0  0
 13 12  1  0  0  0
 13 14  1  0  0  0
  1  2  1  0  0  0
  1 18  1  0  0  0
 12 11  1  0  0  0
 22 21  1  0  0  0
 22 34  1  0  0  0
 21 18  1  0  0  0
  4  3  2  0  0  0
  2  3  1  0  0  0
  3  6  1  0  0  0
 14  7  1  0  0  0
 14 10  1  0  0  0
 18 19  1  0  0  0
  6  7  1  0  0  0
  7  8  1  0  0  0
 11 10  1  0  0  0
 34 35  1  0  0  0
 10  9  1  0  0  0
 36 35  1  0  0  0
 35 37  1  0  0  0
  8 15  1  0  0  0
  9 15  1  0  0  0
 19 20  1  0  0  0
  2  5  1  0  0  0
M  END
> <minimizedAffinity>
-9.29580

$$$$
5DGU_5B7_A_201


 44 47  0  0  0  0  0  0  0  0999 V2000
   18.2767   23.4365   18.7122 C   0  0  0  0  0  0  0  0  0  0  0  0
   18.6976   24.6246   17.9652 N   0  0  0  0  0  0  0  0  0  0  0  0
   19.4070   24.6279   16.8377 C   0  0  0  0  0  0  0  0  0  0  0  0
   19.6378   23.6177   16.1547 O   0  0  0  0  0  0  0  0  0  0  0  0
   18.4319   25.4998   18.3295 H   0  0  0  0  0  0  0  0  0  0  0  0
   19.8901   25.8647   16.5136 O   0  0  0  0  0  0  0  0  0  0  0  0
   20.8145   25.8740   15.4219 C   0  0  0  0  0  0  0  0  0  0  0  0
   20.1122   26.6076   14.2757 C   0  0  0  0  0  0  0  0  0  0  0  0
   21.0043   28.8132   15.0590 O   0  0  0  0  0  0  0  0  0  0  0  0
   21.8224   28.1508   16.0247 C   0  0  0  0  0  0  0  0  0  0  0  0
   21.2016   28.2747   17.3074 O   0  0  0  0  0  0  0  0  0  0  0  0
   21.6846   27.2329   18.1616 C   0  0  0  0  0  0  0  0  0  0  0  0
   22.4986   26.2759   17.2834 C   0  0  0  0  0  0  0  0  0  0  0  0
   22.0484   26.6737   15.8509 C   0  0  0  0  0  0  0  0  0  0  0  0
   19.8560   28.0496   14.6684 C   0  0  0  0  0  0  0  0  0  0  0  0
   23.8829   26.6662   17.4373 O   0  0  0  0  0  0  0  0  0  0  0  0
   24.2033   26.9175   18.8068 C   0  0  0  0  0  0  0  0  0  0  0  0
   16.8532   23.0373   18.3283 C   0  0  0  0  0  0  0  0  0  0  0  0
   16.0764   22.8904   19.5286 O   0  0  0  0  0  0  0  0  0  0  0  0
   16.4563   22.1849   20.0753 H   0  0  0  0  0  0  0  0  0  0  0  0
   16.7936   21.7463   17.5046 C   0  0  0  0  0  0  0  0  0  0  0  0
   15.4861   21.6288   16.8769 N   0  0  0  0  0  0  0  0  0  0  0  0
   15.3181   22.2142   15.3338 S   0  0  0  0  0  0  0  0  0  0  0  0
   16.4819   21.7544   14.5532 O   0  0  0  0  0  0  0  0  0  0  0  0
   15.0337   23.6693   15.4848 O   0  0  0  0  0  0  0  0  0  0  0  0
   11.6017   20.2865   13.4836 C   0  0  0  0  0  0  0  0  0  0  0  0
   12.8758   19.7531   13.2300 C   0  0  0  0  0  0  0  0  0  0  0  0
   14.0104   20.3595   13.8060 C   0  0  0  0  0  0  0  0  0  0  0  0
   13.8804   21.4720   14.6200 C   0  0  0  0  0  0  0  0  0  0  0  0
   12.6215   22.0098   14.8773 C   0  0  0  0  0  0  0  0  0  0  0  0
   11.4715   21.4225   14.3112 C   0  0  0  0  0  0  0  0  0  0  0  0
   10.5501   19.6476   12.8905 O   0  0  0  0  0  0  0  0  0  0  0  0
    9.4223   20.4788   12.7457 C   0  0  0  0  0  0  0  0  0  0  0  0
   14.7741   20.4091   17.1919 C   0  0  0  0  0  0  0  0  0  0  0  0
   13.7063   20.5578   18.2880 C   0  0  0  0  0  0  0  0  0  0  0  0
   12.3816   19.8792   17.9136 C   0  0  0  0  0  0  0  0  0  0  0  0
   14.2156   19.9346   19.6063 C   0  0  0  0  0  0  0  0  0  0  0  0
   18.4310   23.7262   20.2241 C   0  0  0  0  0  0  0  0  0  0  0  0
   20.3097   25.1566   21.0918 C   0  0  0  0  0  0  0  0  0  0  0  0
   21.6376   25.4308   21.3543 C   0  0  0  0  0  0  0  0  0  0  0  0
   22.6522   24.5417   20.9628 C   0  0  0  0  0  0  0  0  0  0  0  0
   22.2696   23.3092   20.4752 C   0  0  0  0  0  0  0  0  0  0  0  0
   20.9043   23.0182   20.2162 C   0  0  0  0  0  0  0  0  0  0  0  0
   19.9313   23.9504   20.5203 C   0  0  0  0  0  0  0  0  0  0  0  0
 41 42  2  0  0  0
 41 40  1  0  0  0
 42 43  1  0  0  0
 40 39  2  0  0  0
 43 44  2  0  0  0
 39 44  1  0  0  0
 17 16  1  0  0  0
 32 26  1  0  0  0
 32 33  1  0  0  0
 27 26  2  0  0  0
 27 28  1  0  0  0
 44 38  1  0  0  0
 24 23  2  0  0  0
 26 31  1  0  0  0
 28 29  2  0  0  0
 31 30  2  0  0  0
 29 30  1  0  0  0
 29 23  1  0  0  0
 38  1  1  0  0  0
 23 25  2  0  0  0
 23 22  1  0  0  0
 16 13  1  0  0  0
 13 12  1  0  0  0
 13 14  1  0  0  0
  1  2  1  0  0  0
  1 18  1  0  0  0
 12 11  1  0  0  0
 22 21  1  0  0  0
 22 34  1  0  0  0
 21 18  1  0  0  0
  4  3  2  0  0  0
  2  3  1  0  0  0
  3  6  1  0  0  0
 14  7  1  0  0  0
 14 10  1  0  0  0
 18 19  1  0  0  0
  6  7  1  0  0  0
  7  8  1  0  0  0
 11 10  1  0  0  0
 34 35  1  0  0  0
 10  9  1  0  0  0
 36 35  1  0  0  0
 35 37  1  0  0  0
  8 15  1  0  0  0
  9 15  1  0  0  0
 19 20  1  0  0  0
  2  5  1  0  0  0
M  END
> <minimizedAffinity>
-9.20948

$$$$
5DGU_5B7_A_201


 44 47  0  0  0  0  0  0  0  0999 V2000
   19.3123   24.2295   16.6256 C   0  0  0  0  0  0  0  0  0  0  0  0
   20.3064   24.2562   17.7017 N   0  0  0  0  0  0  0  0  0  0  0  0
   20.0774   24.5991   18.9683 C   0  0  0  0  0  0  0  0  0  0  0  0
   18.9469   24.7495   19.4579 O   0  0  0  0  0  0  0  0  0  0  0  0
   21.2269   23.9972   17.4674 H   0  0  0  0  0  0  0  0  0  0  0  0
   21.2247   24.8018   19.6830 O   0  0  0  0  0  0  0  0  0  0  0  0
   22.1649   25.6819   19.0602 C   0  0  0  0  0  0  0  0  0  0  0  0
   21.5717   27.0890   19.1754 C   0  0  0  0  0  0  0  0  0  0  0  0
   22.6914   27.4468   21.3871 O   0  0  0  0  0  0  0  0  0  0  0  0
   23.4112   26.2226   21.2322 C   0  0  0  0  0  0  0  0  0  0  0  0
   22.7839   25.2218   22.0391 O   0  0  0  0  0  0  0  0  0  0  0  0
   23.1302   23.9293   21.5313 C   0  0  0  0  0  0  0  0  0  0  0  0
   23.8478   24.1512   20.1951 C   0  0  0  0  0  0  0  0  0  0  0  0
   23.4726   25.6199   19.8552 C   0  0  0  0  0  0  0  0  0  0  0  0
   21.4720   27.4875   20.6349 C   0  0  0  0  0  0  0  0  0  0  0  0
   25.2640   24.1117   20.4865 O   0  0  0  0  0  0  0  0  0  0  0  0
   26.0431   24.1755   19.2906 C   0  0  0  0  0  0  0  0  0  0  0  0
   18.3705   23.0390   16.7942 C   0  0  0  0  0  0  0  0  0  0  0  0
   18.5744   22.1314   15.6985 O   0  0  0  0  0  0  0  0  0  0  0  0
   18.3590   22.5777   14.8646 H   0  0  0  0  0  0  0  0  0  0  0  0
   16.8951   23.4470   16.8685 C   0  0  0  0  0  0  0  0  0  0  0  0
   16.1057   22.3318   17.3691 N   0  0  0  0  0  0  0  0  0  0  0  0
   16.6033   21.6072   18.7760 S   0  0  0  0  0  0  0  0  0  0  0  0
   16.5065   22.6104   19.8527 O   0  0  0  0  0  0  0  0  0  0  0  0
   17.9081   20.9620   18.4560 O   0  0  0  0  0  0  0  0  0  0  0  0
   13.6424   18.2625   19.7749 C   0  0  0  0  0  0  0  0  0  0  0  0
   13.8111   19.3441   20.6547 C   0  0  0  0  0  0  0  0  0  0  0  0
   14.7281   20.3651   20.3333 C   0  0  0  0  0  0  0  0  0  0  0  0
   15.4605   20.3131   19.1594 C   0  0  0  0  0  0  0  0  0  0  0  0
   15.3018   19.2445   18.2802 C   0  0  0  0  0  0  0  0  0  0  0  0
   14.3922   18.2098   18.5802 C   0  0  0  0  0  0  0  0  0  0  0  0
   12.7385   17.3110   20.1533 O   0  0  0  0  0  0  0  0  0  0  0  0
   11.4053   17.7225   19.9608 C   0  0  0  0  0  0  0  0  0  0  0  0
   14.6782   22.4703   17.1773 C   0  0  0  0  0  0  0  0  0  0  0  0
   14.1820   22.0852   15.7739 C   0  0  0  0  0  0  0  0  0  0  0  0
   13.1222   20.9757   15.8094 C   0  0  0  0  0  0  0  0  0  0  0  0
   13.5697   23.3194   15.0756 C   0  0  0  0  0  0  0  0  0  0  0  0
   20.0565   24.2177   15.2692 C   0  0  0  0  0  0  0  0  0  0  0  0
   19.5437   26.6348   14.7963 C   0  0  0  0  0  0  0  0  0  0  0  0
   19.8885   27.9367   14.4904 C   0  0  0  0  0  0  0  0  0  0  0  0
   21.2240   28.2930   14.2405 C   0  0  0  0  0  0  0  0  0  0  0  0
   22.1959   27.3459   14.4888 C   0  0  0  0  0  0  0  0  0  0  0  0
   21.8463   26.0095   14.8165 C   0  0  0  0  0  0  0  0  0  0  0  0
   20.5175   25.6604   14.9609 C   0  0  0  0  0  0  0  0  0  0  0  0
 41 42  2  0  0  0
 41 40  1  0  0  0
 42 43  1  0  0  0
 40 39  2  0  0  0
 43 44  2  0  0  0
 39 44  1  0  0  0
 17 16  1  0  0  0
 32 26  1  0  0  0
 32 33  1  0  0  0
 27 26  2  0  0  0
 27 28  1  0  0  0
 44 38  1  0  0  0
 24 23  2  0  0  0
 26 31  1  0  0  0
 28 29  2  0  0  0
 31 30  2  0  0  0
 29 30  1  0  0  0
 29 23  1  0  0  0
 38  1  1  0  0  0
 23 25  2  0  0  0
 23 22  1  0  0  0
 16 13  1  0  0  0
 13 12  1  0  0  0
 13 14  1  0  0  0
  1  2  1  0  0  0
  1 18  1  0  0  0
 12 11  1  0  0  0
 22 21  1  0  0  0
 22 34  1  0  0  0
 21 18  1  0  0  0
  4  3  2  0  0  0
  2  3  1  0  0  0
  3  6  1  0  0  0
 14  7  1  0  0  0
 14 10  1  0  0  0
 18 19  1  0  0  0
  6  7  1  0  0  0
  7  8  1  0  0  0
 11 10  1  0  0  0
 34 35  1  0  0  0
 10  9  1  0  0  0
 36 35  1  0  0  0
 35 37  1  0  0  0
  8 15  1  0  0  0
  9 15  1  0  0  0
 19 20  1  0  0  0
  2  5  1  0  0  0
M  END
> <minimizedAffinity>
-9.18008

$$$$
5DGU_5B7_A_201


 44 47  0  0  0  0  0  0  0  0999 V2000
   15.2818   20.9445   17.1337 C   0  0  0  0  0  0  0  0  0  0  0  0
   14.3199   20.3761   16.1859 N   0  0  0  0  0  0  0  0  0  0  0  0
   13.3309   21.0366   15.5858 C   0  0  0  0  0  0  0  0  0  0  0  0
   13.2115   22.2719   15.5918 O   0  0  0  0  0  0  0  0  0  0  0  0
   14.4129   19.4193   15.9732 H   0  0  0  0  0  0  0  0  0  0  0  0
   12.4282   20.2102   14.9772 O   0  0  0  0  0  0  0  0  0  0  0  0
   12.1282   20.5541   13.6214 C   0  0  0  0  0  0  0  0  0  0  0  0
   12.6865   19.4175   12.7604 C   0  0  0  0  0  0  0  0  0  0  0  0
   10.5311   18.1521   12.9239 O   0  0  0  0  0  0  0  0  0  0  0  0
    9.9133   19.2676   13.5679 C   0  0  0  0  0  0  0  0  0  0  0  0
    9.8413   18.9993   14.9710 O   0  0  0  0  0  0  0  0  0  0  0  0
    9.7231   20.2385   15.6772 C   0  0  0  0  0  0  0  0  0  0  0  0
    9.9495   21.3587   14.6556 C   0  0  0  0  0  0  0  0  0  0  0  0
   10.6048   20.6000   13.4689 C   0  0  0  0  0  0  0  0  0  0  0  0
   11.9561   18.1267   13.0757 C   0  0  0  0  0  0  0  0  0  0  0  0
    8.6354   21.7913   14.2336 O   0  0  0  0  0  0  0  0  0  0  0  0
    8.6993   22.5375   13.0169 C   0  0  0  0  0  0  0  0  0  0  0  0
   16.3194   21.7933   16.4016 C   0  0  0  0  0  0  0  0  0  0  0  0
   16.2649   21.4799   14.9999 O   0  0  0  0  0  0  0  0  0  0  0  0
   16.4856   20.5445   14.8690 H   0  0  0  0  0  0  0  0  0  0  0  0
   17.7434   21.5874   16.9293 C   0  0  0  0  0  0  0  0  0  0  0  0
   18.1160   22.7099   17.7768 N   0  0  0  0  0  0  0  0  0  0  0  0
   18.2633   22.4291   19.4052 S   0  0  0  0  0  0  0  0  0  0  0  0
   18.6010   21.0045   19.5831 O   0  0  0  0  0  0  0  0  0  0  0  0
   17.0335   22.9996   20.0241 O   0  0  0  0  0  0  0  0  0  0  0  0
   21.8185   24.8655   20.9463 C   0  0  0  0  0  0  0  0  0  0  0  0
   22.0172   23.5772   20.4239 C   0  0  0  0  0  0  0  0  0  0  0  0
   20.9116   22.8392   19.9549 C   0  0  0  0  0  0  0  0  0  0  0  0
   19.6348   23.3727   20.0019 C   0  0  0  0  0  0  0  0  0  0  0  0
   19.4263   24.6491   20.5189 C   0  0  0  0  0  0  0  0  0  0  0  0
   20.5157   25.4064   20.9961 C   0  0  0  0  0  0  0  0  0  0  0  0
   22.9354   25.5194   21.3829 O   0  0  0  0  0  0  0  0  0  0  0  0
   22.6963   26.2898   22.5375 C   0  0  0  0  0  0  0  0  0  0  0  0
   19.0711   23.6212   17.1841 C   0  0  0  0  0  0  0  0  0  0  0  0
   18.5249   25.0330   16.9153 C   0  0  0  0  0  0  0  0  0  0  0  0
   19.6050   26.1155   17.0456 C   0  0  0  0  0  0  0  0  0  0  0  0
   17.9340   25.1058   15.4901 C   0  0  0  0  0  0  0  0  0  0  0  0
   15.9161   19.7886   17.9431 C   0  0  0  0  0  0  0  0  0  0  0  0
   14.5685   19.9699   20.0595 C   0  0  0  0  0  0  0  0  0  0  0  0
   13.6453   19.5181   20.9820 C   0  0  0  0  0  0  0  0  0  0  0  0
   13.0340   18.2614   20.8397 C   0  0  0  0  0  0  0  0  0  0  0  0
   13.2463   17.5768   19.6610 C   0  0  0  0  0  0  0  0  0  0  0  0
   14.1847   18.0444   18.7038 C   0  0  0  0  0  0  0  0  0  0  0  0
   14.8472   19.2382   18.9143 C   0  0  0  0  0  0  0  0  0  0  0  0
 41 42  2  0  0  0
 41 40  1  0  0  0
 42 43  1  0  0  0
 40 39  2  0  0  0
 43 44  2  0  0  0
 39 44  1  0  0  0
 17 16  1  0  0  0
 32 26  1  0  0  0
 32 33  1  0  0  0
 27 26  2  0  0  0
 27 28  1  0  0  0
 44 38  1  0  0  0
 24 23  2  0  0  0
 26 31  1  0  0  0
 28 29  2  0  0  0
 31 30  2  0  0  0
 29 30  1  0  0  0
 29 23  1  0  0  0
 38  1  1  0  0  0
 23 25  2  0  0  0
 23 22  1  0  0  0
 16 13  1  0  0  0
 13 12  1  0  0  0
 13 14  1  0  0  0
  1  2  1  0  0  0
  1 18  1  0  0  0
 12 11  1  0  0  0
 22 21  1  0  0  0
 22 34  1  0  0  0
 21 18  1  0  0  0
  4  3  2  0  0  0
  2  3  1  0  0  0
  3  6  1  0  0  0
 14  7  1  0  0  0
 14 10  1  0  0  0
 18 19  1  0  0  0
  6  7  1  0  0  0
  7  8  1  0  0  0
 11 10  1  0  0  0
 34 35  1  0  0  0
 10  9  1  0  0  0
 36 35  1  0  0  0
 35 37  1  0  0  0
  8 15  1  0  0  0
  9 15  1  0  0  0
 19 20  1  0  0  0
  2  5  1  0  0  0
M  END
> <minimizedAffinity>
-9.16642

$$$$
5DGU_5B7_A_201


 44 47  0  0  0  0  0  0  0  0999 V2000
   15.6792   20.9092   15.9878 C   0  0  0  0  0  0  0  0  0  0  0  0
   14.6331   20.4869   16.9228 N   0  0  0  0  0  0  0  0  0  0  0  0
   14.6465   19.3782   17.6611 C   0  0  0  0  0  0  0  0  0  0  0  0
   15.6404   18.6501   17.8100 O   0  0  0  0  0  0  0  0  0  0  0  0
   13.8494   21.0758   17.0135 H   0  0  0  0  0  0  0  0  0  0  0  0
   13.4338   19.0971   18.2255 O   0  0  0  0  0  0  0  0  0  0  0  0
   13.3323   17.7883   18.7940 C   0  0  0  0  0  0  0  0  0  0  0  0
   13.4400   17.9733   20.3103 C   0  0  0  0  0  0  0  0  0  0  0  0
   10.9602   18.2614   20.5132 O   0  0  0  0  0  0  0  0  0  0  0  0
   10.7965   17.9094   19.1384 C   0  0  0  0  0  0  0  0  0  0  0  0
   10.5820   19.1065   18.3855 O   0  0  0  0  0  0  0  0  0  0  0  0
   10.9249   18.8644   17.0173 C   0  0  0  0  0  0  0  0  0  0  0  0
   11.5961   17.4874   16.9614 C   0  0  0  0  0  0  0  0  0  0  0  0
   11.9485   17.2277   18.4519 C   0  0  0  0  0  0  0  0  0  0  0  0
   12.2610   18.7822   20.8149 C   0  0  0  0  0  0  0  0  0  0  0  0
   10.5623   16.5501   16.5806 O   0  0  0  0  0  0  0  0  0  0  0  0
   10.8514   15.9403   15.3213 C   0  0  0  0  0  0  0  0  0  0  0  0
   16.8836   21.4649   16.7451 C   0  0  0  0  0  0  0  0  0  0  0  0
   17.9593   20.5154   16.6602 O   0  0  0  0  0  0  0  0  0  0  0  0
   17.6899   19.6833   17.0798 H   0  0  0  0  0  0  0  0  0  0  0  0
   16.5765   21.7784   18.2135 C   0  0  0  0  0  0  0  0  0  0  0  0
   17.3348   22.9480   18.6309 N   0  0  0  0  0  0  0  0  0  0  0  0
   16.7140   24.4407   18.2586 S   0  0  0  0  0  0  0  0  0  0  0  0
   16.8003   25.2747   19.4719 O   0  0  0  0  0  0  0  0  0  0  0  0
   15.3976   24.1782   17.6112 O   0  0  0  0  0  0  0  0  0  0  0  0
   19.4114   26.3532   15.0936 C   0  0  0  0  0  0  0  0  0  0  0  0
   18.1173   25.9254   14.7552 C   0  0  0  0  0  0  0  0  0  0  0  0
   17.2998   25.3368   15.7411 C   0  0  0  0  0  0  0  0  0  0  0  0
   17.7588   25.1795   17.0379 C   0  0  0  0  0  0  0  0  0  0  0  0
   19.0410   25.5993   17.3841 C   0  0  0  0  0  0  0  0  0  0  0  0
   19.8786   26.1891   16.4154 C   0  0  0  0  0  0  0  0  0  0  0  0
   20.1458   26.9121   14.0865 O   0  0  0  0  0  0  0  0  0  0  0  0
   20.5695   28.2213   14.3866 C   0  0  0  0  0  0  0  0  0  0  0  0
   17.9871   22.8159   19.9158 C   0  0  0  0  0  0  0  0  0  0  0  0
   19.5208   22.7341   19.8481 C   0  0  0  0  0  0  0  0  0  0  0  0
   20.2029   23.9524   20.4853 C   0  0  0  0  0  0  0  0  0  0  0  0
   20.0125   21.4652   20.5787 C   0  0  0  0  0  0  0  0  0  0  0  0
   15.0704   21.9304   14.9977 C   0  0  0  0  0  0  0  0  0  0  0  0
   12.5796   21.8295   14.6596 C   0  0  0  0  0  0  0  0  0  0  0  0
   11.4218   21.2847   14.1401 C   0  0  0  0  0  0  0  0  0  0  0  0
   11.4559   20.1119   13.3676 C   0  0  0  0  0  0  0  0  0  0  0  0
   12.6925   19.6280   12.9938 C   0  0  0  0  0  0  0  0  0  0  0  0
   13.8859   20.1934   13.5150 C   0  0  0  0  0  0  0  0  0  0  0  0
   13.8203   21.2894   14.3534 C   0  0  0  0  0  0  0  0  0  0  0  0
 41 42  2  0  0  0
 41 40  1  0  0  0
 42 43  1  0  0  0
 40 39  2  0  0  0
 43 44  2  0  0  0
 39 44  1  0  0  0
 17 16  1  0  0  0
 32 26  1  0  0  0
 32 33  1  0  0  0
 27 26  2  0  0  0
 27 28  1  0  0  0
 44 38  1  0  0  0
 24 23  2  0  0  0
 26 31  1  0  0  0
 28 29  2  0  0  0
 31 30  2  0  0  0
 29 30  1  0  0  0
 29 23  1  0  0  0
 38  1  1  0  0  0
 23 25  2  0  0  0
 23 22  1  0  0  0
 16 13  1  0  0  0
 13 12  1  0  0  0
 13 14  1  0  0  0
  1  2  1  0  0  0
  1 18  1  0  0  0
 12 11  1  0  0  0
 22 21  1  0  0  0
 22 34  1  0  0  0
 21 18  1  0  0  0
  4  3  2  0  0  0
  2  3  1  0  0  0
  3  6  1  0  0  0
 14  7  1  0  0  0
 14 10  1  0  0  0
 18 19  1  0  0  0
  6  7  1  0  0  0
  7  8  1  0  0  0
 11 10  1  0  0  0
 34 35  1  0  0  0
 10  9  1  0  0  0
 36 35  1  0  0  0
 35 37  1  0  0  0
  8 15  1  0  0  0
  9 15  1  0  0  0
 19 20  1  0  0  0
  2  5  1  0  0  0
M  END
> <minimizedAffinity>
-9.10477

$$$$
5DGU_5B7_A_201


 44 47  0  0  0  0  0  0  0  0999 V2000
   18.8243   25.8198   16.3338 C   0  0  0  0  0  0  0  0  0  0  0  0
   19.6595   25.4413   17.4766 N   0  0  0  0  0  0  0  0  0  0  0  0
   20.4895   26.2462   18.1382 C   0  0  0  0  0  0  0  0  0  0  0  0
   20.5197   27.4799   18.0058 O   0  0  0  0  0  0  0  0  0  0  0  0
   19.6022   24.5075   17.7833 H   0  0  0  0  0  0  0  0  0  0  0  0
   21.3394   25.5716   18.9692 O   0  0  0  0  0  0  0  0  0  0  0  0
   21.0427   25.7097   20.3618 C   0  0  0  0  0  0  0  0  0  0  0  0
   20.0245   24.6142   20.6908 C   0  0  0  0  0  0  0  0  0  0  0  0
   21.8535   22.9916   21.2343 O   0  0  0  0  0  0  0  0  0  0  0  0
   22.8250   24.0327   21.1196 C   0  0  0  0  0  0  0  0  0  0  0  0
   23.4820   23.9035   19.8555 O   0  0  0  0  0  0  0  0  0  0  0  0
   24.0534   25.1655   19.4961 C   0  0  0  0  0  0  0  0  0  0  0  0
   23.5340   26.1954   20.5057 C   0  0  0  0  0  0  0  0  0  0  0  0
   22.3309   25.4533   21.1498 C   0  0  0  0  0  0  0  0  0  0  0  0
   20.6548   23.2496   20.4922 C   0  0  0  0  0  0  0  0  0  0  0  0
   24.5638   26.3277   21.5127 O   0  0  0  0  0  0  0  0  0  0  0  0
   25.8681   26.2077   20.9419 C   0  0  0  0  0  0  0  0  0  0  0  0
   17.4307   25.2075   16.4613 C   0  0  0  0  0  0  0  0  0  0  0  0
   16.7182   25.8966   17.5021 O   0  0  0  0  0  0  0  0  0  0  0  0
   17.1836   25.7790   18.3450 H   0  0  0  0  0  0  0  0  0  0  0  0
   17.4608   23.7035   16.7544 C   0  0  0  0  0  0  0  0  0  0  0  0
   16.1022   23.2153   16.9364 N   0  0  0  0  0  0  0  0  0  0  0  0
   15.4190   23.3830   18.4388 S   0  0  0  0  0  0  0  0  0  0  0  0
   14.3095   24.3472   18.3190 O   0  0  0  0  0  0  0  0  0  0  0  0
   16.5536   23.6445   19.3691 O   0  0  0  0  0  0  0  0  0  0  0  0
   13.5934   19.3546   19.6180 C   0  0  0  0  0  0  0  0  0  0  0  0
   13.1200   20.0424   18.4888 C   0  0  0  0  0  0  0  0  0  0  0  0
   13.6917   21.2827   18.1401 C   0  0  0  0  0  0  0  0  0  0  0  0
   14.7154   21.8266   18.8973 C   0  0  0  0  0  0  0  0  0  0  0  0
   15.1919   21.1534   20.0197 C   0  0  0  0  0  0  0  0  0  0  0  0
   14.6351   19.9122   20.3902 C   0  0  0  0  0  0  0  0  0  0  0  0
   12.9907   18.1605   19.8949 O   0  0  0  0  0  0  0  0  0  0  0  0
   13.1812   17.2076   18.8754 C   0  0  0  0  0  0  0  0  0  0  0  0
   15.2316   23.4190   15.7987 C   0  0  0  0  0  0  0  0  0  0  0  0
   14.8775   22.1367   15.0278 C   0  0  0  0  0  0  0  0  0  0  0  0
   13.4127   22.1118   14.5702 C   0  0  0  0  0  0  0  0  0  0  0  0
   15.7783   22.0077   13.7797 C   0  0  0  0  0  0  0  0  0  0  0  0
   19.5485   25.3962   15.0340 C   0  0  0  0  0  0  0  0  0  0  0  0
   21.9544   26.1311   15.0402 C   0  0  0  0  0  0  0  0  0  0  0  0
   22.9728   27.0373   14.8184 C   0  0  0  0  0  0  0  0  0  0  0  0
   22.6993   28.3375   14.3625 C   0  0  0  0  0  0  0  0  0  0  0  0
   21.4068   28.6194   13.9712 C   0  0  0  0  0  0  0  0  0  0  0  0
   20.3589   27.6857   14.1853 C   0  0  0  0  0  0  0  0  0  0  0  0
   20.6401   26.4466   14.7274 C   0  0  0  0  0  0  0  0  0  0  0  0
 41 42  2  0  0  0
 41 40  1  0  0  0
 42 43  1  0  0  0
 40 39  2  0  0  0
 43 44  2  0  0  0
 39 44  1  0  0  0
 17 16  1  0  0  0
 32 26  1  0  0  0
 32 33  1  0  0  0
 27 26  2  0  0  0
 27 28  1  0  0  0
 44 38  1  0  0  0
 24 23  2  0  0  0
 26 31  1  0  0  0
 28 29  2  0  0  0
 31 30  2  0  0  0
 29 30  1  0  0  0
 29 23  1  0  0  0
 38  1  1  0  0  0
 23 25  2  0  0  0
 23 22  1  0  0  0
 16 13  1  0  0  0
 13 12  1  0  0  0
 13 14  1  0  0  0
  1  2  1  0  0  0
  1 18  1  0  0  0
 12 11  1  0  0  0
 22 21  1  0  0  0
 22 34  1  0  0  0
 21 18  1  0  0  0
  4  3  2  0  0  0
  2  3  1  0  0  0
  3  6  1  0  0  0
 14  7  1  0  0  0
 14 10  1  0  0  0
 18 19  1  0  0  0
  6  7  1  0  0  0
  7  8  1  0  0  0
 11 10  1  0  0  0
 34 35  1  0  0  0
 10  9  1  0  0  0
 36 35  1  0  0  0
 35 37  1  0  0  0
  8 15  1  0  0  0
  9 15  1  0  0  0
 19 20  1  0  0  0
  2  5  1  0  0  0
M  END
> <minimizedAffinity>
-9.09122

$$$$
5DGU_5B7_A_201


 44 47  0  0  0  0  0  0  0  0999 V2000
   15.0438   20.3485   17.5682 C   0  0  0  0  0  0  0  0  0  0  0  0
   14.1995   20.1062   16.3955 N   0  0  0  0  0  0  0  0  0  0  0  0
   13.4341   21.0089   15.7841 C   0  0  0  0  0  0  0  0  0  0  0  0
   13.4855   22.2299   16.0005 O   0  0  0  0  0  0  0  0  0  0  0  0
   14.1976   19.1937   16.0260 H   0  0  0  0  0  0  0  0  0  0  0  0
   12.5513   20.4517   14.9019 O   0  0  0  0  0  0  0  0  0  0  0  0
   11.8190   19.3367   15.4186 C   0  0  0  0  0  0  0  0  0  0  0  0
   10.6898   19.9260   16.2686 C   0  0  0  0  0  0  0  0  0  0  0  0
    9.1625   20.0189   14.2855 O   0  0  0  0  0  0  0  0  0  0  0  0
   10.1183   19.3015   13.5030 C   0  0  0  0  0  0  0  0  0  0  0  0
   10.8007   20.2303   12.6558 O   0  0  0  0  0  0  0  0  0  0  0  0
   12.0578   19.6685   12.2654 C   0  0  0  0  0  0  0  0  0  0  0  0
   12.2569   18.3966   13.0974 C   0  0  0  0  0  0  0  0  0  0  0  0
   11.2142   18.5758   14.2348 C   0  0  0  0  0  0  0  0  0  0  0  0
    9.7461   20.7230   15.3891 C   0  0  0  0  0  0  0  0  0  0  0  0
   11.8201   17.2975   12.2648 O   0  0  0  0  0  0  0  0  0  0  0  0
   11.7646   16.0757   13.0033 C   0  0  0  0  0  0  0  0  0  0  0  0
   16.2968   21.1288   17.1756 C   0  0  0  0  0  0  0  0  0  0  0  0
   17.4509   20.4180   17.6537 O   0  0  0  0  0  0  0  0  0  0  0  0
   17.4164   20.3590   18.6213 H   0  0  0  0  0  0  0  0  0  0  0  0
   16.3042   22.5630   17.7158 C   0  0  0  0  0  0  0  0  0  0  0  0
   17.5321   23.2301   17.3101 N   0  0  0  0  0  0  0  0  0  0  0  0
   17.9316   23.1943   15.7004 S   0  0  0  0  0  0  0  0  0  0  0  0
   16.6752   23.2202   14.9285 O   0  0  0  0  0  0  0  0  0  0  0  0
   18.8908   22.0638   15.5496 O   0  0  0  0  0  0  0  0  0  0  0  0
   20.2022   27.0453   14.7179 C   0  0  0  0  0  0  0  0  0  0  0  0
   18.8228   26.9548   14.4709 C   0  0  0  0  0  0  0  0  0  0  0  0
   18.1385   25.7613   14.7775 C   0  0  0  0  0  0  0  0  0  0  0  0
   18.8118   24.6806   15.3214 C   0  0  0  0  0  0  0  0  0  0  0  0
   20.1801   24.7592   15.5695 C   0  0  0  0  0  0  0  0  0  0  0  0
   20.8874   25.9414   15.2697 C   0  0  0  0  0  0  0  0  0  0  0  0
   20.7977   28.2312   14.3941 O   0  0  0  0  0  0  0  0  0  0  0  0
   21.8716   28.5497   15.2479 C   0  0  0  0  0  0  0  0  0  0  0  0
   17.8158   24.4561   18.0245 C   0  0  0  0  0  0  0  0  0  0  0  0
   18.8007   24.3002   19.1948 C   0  0  0  0  0  0  0  0  0  0  0  0
   18.0894   24.1854   20.5499 C   0  0  0  0  0  0  0  0  0  0  0  0
   19.6637   23.0355   18.9908 C   0  0  0  0  0  0  0  0  0  0  0  0
   15.3677   18.9882   18.2302 C   0  0  0  0  0  0  0  0  0  0  0  0
   13.8219   19.2956   20.1910 C   0  0  0  0  0  0  0  0  0  0  0  0
   12.7549   18.9425   20.9936 C   0  0  0  0  0  0  0  0  0  0  0  0
   12.0211   17.7699   20.7493 C   0  0  0  0  0  0  0  0  0  0  0  0
   12.2828   17.0832   19.5817 C   0  0  0  0  0  0  0  0  0  0  0  0
   13.3706   17.4507   18.7467 C   0  0  0  0  0  0  0  0  0  0  0  0
   14.1399   18.5538   19.0625 C   0  0  0  0  0  0  0  0  0  0  0  0
 41 42  2  0  0  0
 41 40  1  0  0  0
 42 43  1  0  0  0
 40 39  2  0  0  0
 43 44  2  0  0  0
 39 44  1  0  0  0
 17 16  1  0  0  0
 32 26  1  0  0  0
 32 33  1  0  0  0
 27 26  2  0  0  0
 27 28  1  0  0  0
 44 38  1  0  0  0
 24 23  2  0  0  0
 26 31  1  0  0  0
 28 29  2  0  0  0
 31 30  2  0  0  0
 29 30  1  0  0  0
 29 23  1  0  0  0
 38  1  1  0  0  0
 23 25  2  0  0  0
 23 22  1  0  0  0
 16 13  1  0  0  0
 13 12  1  0  0  0
 13 14  1  0  0  0
  1  2  1  0  0  0
  1 18  1  0  0  0
 12 11  1  0  0  0
 22 21  1  0  0  0
 22 34  1  0  0  0
 21 18  1  0  0  0
  4  3  2  0  0  0
  2  3  1  0  0  0
  3  6  1  0  0  0
 14  7  1  0  0  0
 14 10  1  0  0  0
 18 19  1  0  0  0
  6  7  1  0  0  0
  7  8  1  0  0  0
 11 10  1  0  0  0
 34 35  1  0  0  0
 10  9  1  0  0  0
 36 35  1  0  0  0
 35 37  1  0  0  0
  8 15  1  0  0  0
  9 15  1  0  0  0
 19 20  1  0  0  0
  2  5  1  0  0  0
M  END
> <minimizedAffinity>
-8.99723

$$$$
