4IIF_CTS_A_941


 17 18  0  0  0  0  0  0  0  0999 V2000
   21.1530  -20.2115   23.3162 C   0  0  0  0  0  0  0  0  0  0  0  0
   21.9631  -19.4872   24.3832 C   0  0  0  0  0  0  0  0  0  0  0  0
   21.0959  -18.7193   25.3592 C   0  0  0  0  0  0  0  0  0  0  0  0
   20.1242  -17.8121   24.6062 C   0  0  0  0  0  0  0  0  0  0  0  0
   19.3297  -18.7541   23.6728 C   0  0  0  0  0  0  0  0  0  0  0  0
   18.3558  -18.0637   22.7766 C   0  0  0  0  0  0  0  0  0  0  0  0
   22.6632  -20.4302   25.1654 O   0  0  0  0  0  0  0  0  0  0  0  0
   21.9736  -18.0135   26.1976 O   0  0  0  0  0  0  0  0  0  0  0  0
   19.2680  -17.0840   25.4892 O   0  0  0  0  0  0  0  0  0  0  0  0
   19.0118  -16.9235   22.1843 O   0  0  0  0  0  0  0  0  0  0  0  0
   20.2882  -19.2469   22.6685 N   0  0  0  0  0  0  0  0  0  0  0  0
   18.1221  -19.1429   21.7105 C   0  0  0  0  0  0  0  0  0  0  0  0
   19.4622  -19.8986   21.6280 C   0  0  0  0  0  0  0  0  0  0  0  0
   22.0298  -21.0100   25.6166 H   0  0  0  0  0  0  0  0  0  0  0  0
   22.5316  -17.4281   25.6621 H   0  0  0  0  0  0  0  0  0  0  0  0
   18.7572  -17.7062   26.0303 H   0  0  0  0  0  0  0  0  0  0  0  0
   19.8283  -17.2114   21.7469 H   0  0  0  0  0  0  0  0  0  0  0  0
  1  2  1  0  0  0
  1 11  1  0  0  0
  2  3  1  0  0  0
  2  7  1  0  0  0
  3  4  1  0  0  0
  3  8  1  0  0  0
  4  5  1  0  0  0
  4  9  1  0  0  0
  5  6  1  0  0  0
  5 11  1  0  0  0
  6 10  1  0  0  0
  6 12  1  0  0  0
 11 13  1  0  0  0
 12 13  1  0  0  0
  7 14  1  0  0  0
  8 15  1  0  0  0
  9 16  1  0  0  0
 10 17  1  0  0  0
M  END
> <minimizedAffinity>
-8.12139

$$$$
4IIF_CTS_A_941


 17 18  0  0  0  0  0  0  0  0999 V2000
   17.9742  -18.4859   21.9300 C   0  0  0  0  0  0  0  0  0  0  0  0
   18.8651  -19.2688   20.9745 C   0  0  0  0  0  0  0  0  0  0  0  0
   19.7326  -20.2889   21.6825 C   0  0  0  0  0  0  0  0  0  0  0  0
   20.4950  -19.6314   22.8317 C   0  0  0  0  0  0  0  0  0  0  0  0
   19.4077  -19.0034   23.7335 C   0  0  0  0  0  0  0  0  0  0  0  0
   19.9356  -18.2354   24.8997 C   0  0  0  0  0  0  0  0  0  0  0  0
   18.0625  -20.0129   20.0838 O   0  0  0  0  0  0  0  0  0  0  0  0
   20.5755  -20.8388   20.7035 O   0  0  0  0  0  0  0  0  0  0  0  0
   21.3106  -20.5641   23.5444 O   0  0  0  0  0  0  0  0  0  0  0  0
   21.0032  -17.3825   24.4370 O   0  0  0  0  0  0  0  0  0  0  0  0
   18.8115  -17.9022   22.9576 N   0  0  0  0  0  0  0  0  0  0  0  0
   18.7121  -17.3855   25.2693 C   0  0  0  0  0  0  0  0  0  0  0  0
   17.9957  -17.1387   23.9279 C   0  0  0  0  0  0  0  0  0  0  0  0
   17.5308  -20.6515   20.5841 H   0  0  0  0  0  0  0  0  0  0  0  0
   21.0988  -20.1323   20.2935 H   0  0  0  0  0  0  0  0  0  0  0  0
   20.7533  -21.2715   23.9049 H   0  0  0  0  0  0  0  0  0  0  0  0
   20.6839  -16.8336   23.7038 H   0  0  0  0  0  0  0  0  0  0  0  0
  1  2  1  0  0  0
  1 11  1  0  0  0
  2  3  1  0  0  0
  2  7  1  0  0  0
  3  4  1  0  0  0
  3  8  1  0  0  0
  4  5  1  0  0  0
  4  9  1  0  0  0
  5  6  1  0  0  0
  5 11  1  0  0  0
  6 10  1  0  0  0
  6 12  1  0  0  0
 11 13  1  0  0  0
 12 13  1  0  0  0
  7 14  1  0  0  0
  8 15  1  0  0  0
  9 16  1  0  0  0
 10 17  1  0  0  0
M  END
> <minimizedAffinity>
-7.41254

$$$$
4IIF_CTS_A_941


 17 18  0  0  0  0  0  0  0  0999 V2000
   18.7775  -17.3783   24.4835 C   0  0  0  0  0  0  0  0  0  0  0  0
   19.7291  -17.7286   25.6198 C   0  0  0  0  0  0  0  0  0  0  0  0
   21.1175  -18.0894   25.1336 C   0  0  0  0  0  0  0  0  0  0  0  0
   21.0381  -19.1615   24.0480 C   0  0  0  0  0  0  0  0  0  0  0  0
   20.1288  -18.5619   22.9510 C   0  0  0  0  0  0  0  0  0  0  0  0
   19.8498  -19.4784   21.8061 C   0  0  0  0  0  0  0  0  0  0  0  0
   19.9042  -16.6031   26.4526 O   0  0  0  0  0  0  0  0  0  0  0  0
   21.8383  -18.5020   26.2657 O   0  0  0  0  0  0  0  0  0  0  0  0
   22.3268  -19.5167   23.5421 O   0  0  0  0  0  0  0  0  0  0  0  0
   19.5028  -20.7749   22.3354 O   0  0  0  0  0  0  0  0  0  0  0  0
   18.7792  -18.4728   23.5348 N   0  0  0  0  0  0  0  0  0  0  0  0
   18.6078  -18.8151   21.1951 C   0  0  0  0  0  0  0  0  0  0  0  0
   17.8802  -18.1812   22.3961 C   0  0  0  0  0  0  0  0  0  0  0  0
   20.3048  -15.8822   25.9419 H   0  0  0  0  0  0  0  0  0  0  0  0
   21.3868  -19.2539   26.6800 H   0  0  0  0  0  0  0  0  0  0  0  0
   22.7569  -18.7301   23.1718 H   0  0  0  0  0  0  0  0  0  0  0  0
   18.7708  -20.6817   22.9650 H   0  0  0  0  0  0  0  0  0  0  0  0
  1  2  1  0  0  0
  1 11  1  0  0  0
  2  3  1  0  0  0
  2  7  1  0  0  0
  3  4  1  0  0  0
  3  8  1  0  0  0
  4  5  1  0  0  0
  4  9  1  0  0  0
  5  6  1  0  0  0
  5 11  1  0  0  0
  6 10  1  0  0  0
  6 12  1  0  0  0
 11 13  1  0  0  0
 12 13  1  0  0  0
  7 14  1  0  0  0
  8 15  1  0  0  0
  9 16  1  0  0  0
 10 17  1  0  0  0
M  END
> <minimizedAffinity>
-7.39862

$$$$
4IIF_CTS_A_941


 17 18  0  0  0  0  0  0  0  0999 V2000
   18.0215  -17.6698   23.1134 C   0  0  0  0  0  0  0  0  0  0  0  0
   18.6808  -17.8704   24.4716 C   0  0  0  0  0  0  0  0  0  0  0  0
   20.1568  -18.1937   24.3664 C   0  0  0  0  0  0  0  0  0  0  0  0
   20.3783  -19.3560   23.3998 C   0  0  0  0  0  0  0  0  0  0  0  0
   19.7422  -18.9018   22.0661 C   0  0  0  0  0  0  0  0  0  0  0  0
   19.7793  -19.9253   20.9800 C   0  0  0  0  0  0  0  0  0  0  0  0
   18.6115  -16.6708   25.2115 O   0  0  0  0  0  0  0  0  0  0  0  0
   20.5953  -18.4692   25.6714 O   0  0  0  0  0  0  0  0  0  0  0  0
   21.7622  -19.6809   23.2513 O   0  0  0  0  0  0  0  0  0  0  0  0
   19.3578  -21.1898   21.5320 O   0  0  0  0  0  0  0  0  0  0  0  0
   18.2892  -18.8384   22.3007 N   0  0  0  0  0  0  0  0  0  0  0  0
   18.7009  -19.3851   20.0308 C   0  0  0  0  0  0  0  0  0  0  0  0
   17.6835  -18.6936   20.9583 C   0  0  0  0  0  0  0  0  0  0  0  0
   19.0996  -15.9745   24.7448 H   0  0  0  0  0  0  0  0  0  0  0  0
   20.0823  -19.2074   26.0358 H   0  0  0  0  0  0  0  0  0  0  0  0
   22.2427  -18.9056   22.9212 H   0  0  0  0  0  0  0  0  0  0  0  0
   18.4925  -21.0846   21.9575 H   0  0  0  0  0  0  0  0  0  0  0  0
  1  2  1  0  0  0
  1 11  1  0  0  0
  2  3  1  0  0  0
  2  7  1  0  0  0
  3  4  1  0  0  0
  3  8  1  0  0  0
  4  5  1  0  0  0
  4  9  1  0  0  0
  5  6  1  0  0  0
  5 11  1  0  0  0
  6 10  1  0  0  0
  6 12  1  0  0  0
 11 13  1  0  0  0
 12 13  1  0  0  0
  7 14  1  0  0  0
  8 15  1  0  0  0
  9 16  1  0  0  0
 10 17  1  0  0  0
M  END
> <minimizedAffinity>
-7.17725

$$$$
4IIF_CTS_A_941


 17 18  0  0  0  0  0  0  0  0999 V2000
   18.8214  -17.5647   23.7922 C   0  0  0  0  0  0  0  0  0  0  0  0
   18.4891  -17.8386   22.3313 C   0  0  0  0  0  0  0  0  0  0  0  0
   18.7965  -19.2623   21.9156 C   0  0  0  0  0  0  0  0  0  0  0  0
   20.2296  -19.6293   22.2975 C   0  0  0  0  0  0  0  0  0  0  0  0
   20.3169  -19.3918   23.8225 C   0  0  0  0  0  0  0  0  0  0  0  0
   21.6694  -19.6227   24.4106 C   0  0  0  0  0  0  0  0  0  0  0  0
   17.1023  -17.6788   22.1249 O   0  0  0  0  0  0  0  0  0  0  0  0
   18.5583  -19.3309   20.5336 O   0  0  0  0  0  0  0  0  0  0  0  0
   20.5565  -20.9752   21.9443 O   0  0  0  0  0  0  0  0  0  0  0  0
   22.6473  -18.9755   23.5702 O   0  0  0  0  0  0  0  0  0  0  0  0
   20.2022  -17.9367   24.0222 N   0  0  0  0  0  0  0  0  0  0  0  0
   21.5436  -18.8677   25.7410 C   0  0  0  0  0  0  0  0  0  0  0  0
   20.5792  -17.7061   25.4344 C   0  0  0  0  0  0  0  0  0  0  0  0
   16.6187  -18.3233   22.6650 H   0  0  0  0  0  0  0  0  0  0  0  0
   19.1192  -18.6851   20.0763 H   0  0  0  0  0  0  0  0  0  0  0  0
   19.9491  -21.5839   22.3931 H   0  0  0  0  0  0  0  0  0  0  0  0
   22.4102  -18.0416   23.4585 H   0  0  0  0  0  0  0  0  0  0  0  0
  1  2  1  0  0  0
  1 11  1  0  0  0
  2  3  1  0  0  0
  2  7  1  0  0  0
  3  4  1  0  0  0
  3  8  1  0  0  0
  4  5  1  0  0  0
  4  9  1  0  0  0
  5  6  1  0  0  0
  5 11  1  0  0  0
  6 10  1  0  0  0
  6 12  1  0  0  0
 11 13  1  0  0  0
 12 13  1  0  0  0
  7 14  1  0  0  0
  8 15  1  0  0  0
  9 16  1  0  0  0
 10 17  1  0  0  0
M  END
> <minimizedAffinity>
-6.83314

$$$$
4IIF_CTS_A_941


 17 18  0  0  0  0  0  0  0  0999 V2000
   20.3672  -19.8068   23.0308 C   0  0  0  0  0  0  0  0  0  0  0  0
   20.2075  -18.5937   23.9377 C   0  0  0  0  0  0  0  0  0  0  0  0
   18.7916  -18.0560   23.9559 C   0  0  0  0  0  0  0  0  0  0  0  0
   18.2926  -17.8256   22.5304 C   0  0  0  0  0  0  0  0  0  0  0  0
   18.4313  -19.1944   21.8255 C   0  0  0  0  0  0  0  0  0  0  0  0
   18.0618  -19.1883   20.3792 C   0  0  0  0  0  0  0  0  0  0  0  0
   20.4861  -18.9615   25.2712 O   0  0  0  0  0  0  0  0  0  0  0  0
   18.8241  -16.8826   24.7263 O   0  0  0  0  0  0  0  0  0  0  0  0
   16.9489  -17.3393   22.4988 O   0  0  0  0  0  0  0  0  0  0  0  0
   18.6802  -18.0434   19.7564 O   0  0  0  0  0  0  0  0  0  0  0  0
   19.8764  -19.4579   21.7135 N   0  0  0  0  0  0  0  0  0  0  0  0
   18.7435  -20.4761   19.8968 C   0  0  0  0  0  0  0  0  0  0  0  0
   19.9926  -20.6075   20.7890 C   0  0  0  0  0  0  0  0  0  0  0  0
   19.8500  -19.6341   25.5607 H   0  0  0  0  0  0  0  0  0  0  0  0
   19.4507  -16.2550   24.3332 H   0  0  0  0  0  0  0  0  0  0  0  0
   16.3634  -17.9785   22.9341 H   0  0  0  0  0  0  0  0  0  0  0  0
   19.6347  -18.0578   19.9287 H   0  0  0  0  0  0  0  0  0  0  0  0
  1  2  1  0  0  0
  1 11  1  0  0  0
  2  3  1  0  0  0
  2  7  1  0  0  0
  3  4  1  0  0  0
  3  8  1  0  0  0
  4  5  1  0  0  0
  4  9  1  0  0  0
  5  6  1  0  0  0
  5 11  1  0  0  0
  6 10  1  0  0  0
  6 12  1  0  0  0
 11 13  1  0  0  0
 12 13  1  0  0  0
  7 14  1  0  0  0
  8 15  1  0  0  0
  9 16  1  0  0  0
 10 17  1  0  0  0
M  END
> <minimizedAffinity>
-6.78788

$$$$
4IIF_CTS_A_941


 17 18  0  0  0  0  0  0  0  0999 V2000
   18.1735  -18.5033   20.2757 C   0  0  0  0  0  0  0  0  0  0  0  0
   18.8902  -19.0849   19.0643 C   0  0  0  0  0  0  0  0  0  0  0  0
   19.4273  -20.4793   19.3126 C   0  0  0  0  0  0  0  0  0  0  0  0
   20.2635  -20.5064   20.5910 C   0  0  0  0  0  0  0  0  0  0  0  0
   19.3210  -19.9932   21.7037 C   0  0  0  0  0  0  0  0  0  0  0  0
   19.9579  -19.8670   23.0479 C   0  0  0  0  0  0  0  0  0  0  0  0
   17.9782  -19.2192   17.9960 O   0  0  0  0  0  0  0  0  0  0  0  0
   20.1583  -20.8314   18.1668 O   0  0  0  0  0  0  0  0  0  0  0  0
   20.7724  -21.8108   20.8779 O   0  0  0  0  0  0  0  0  0  0  0  0
   21.2323  -19.2101   22.8876 O   0  0  0  0  0  0  0  0  0  0  0  0
   19.0704  -18.5713   21.4110 N   0  0  0  0  0  0  0  0  0  0  0  0
   18.9712  -18.9263   23.7529 C   0  0  0  0  0  0  0  0  0  0  0  0
   18.4204  -18.0318   22.6260 C   0  0  0  0  0  0  0  0  0  0  0  0
   17.2734  -19.8362   18.2481 H   0  0  0  0  0  0  0  0  0  0  0  0
   20.8668  -20.1845   18.0238 H   0  0  0  0  0  0  0  0  0  0  0  0
   20.0336  -22.4317   20.9760 H   0  0  0  0  0  0  0  0  0  0  0  0
   21.1061  -18.3693   22.4206 H   0  0  0  0  0  0  0  0  0  0  0  0
  1  2  1  0  0  0
  1 11  1  0  0  0
  2  3  1  0  0  0
  2  7  1  0  0  0
  3  4  1  0  0  0
  3  8  1  0  0  0
  4  5  1  0  0  0
  4  9  1  0  0  0
  5  6  1  0  0  0
  5 11  1  0  0  0
  6 10  1  0  0  0
  6 12  1  0  0  0
 11 13  1  0  0  0
 12 13  1  0  0  0
  7 14  1  0  0  0
  8 15  1  0  0  0
  9 16  1  0  0  0
 10 17  1  0  0  0
M  END
> <minimizedAffinity>
-6.53776

$$$$
4IIF_CTS_A_941


 17 18  0  0  0  0  0  0  0  0999 V2000
   19.7652  -20.1846   22.1281 C   0  0  0  0  0  0  0  0  0  0  0  0
   19.4153  -19.0398   23.0697 C   0  0  0  0  0  0  0  0  0  0  0  0
   18.2704  -18.1890   22.5604 C   0  0  0  0  0  0  0  0  0  0  0  0
   18.5392  -17.7413   21.1245 C   0  0  0  0  0  0  0  0  0  0  0  0
   18.7500  -19.0474   20.3248 C   0  0  0  0  0  0  0  0  0  0  0  0
   19.1021  -18.8460   18.8882 C   0  0  0  0  0  0  0  0  0  0  0  0
   18.9741  -19.5621   24.3041 O   0  0  0  0  0  0  0  0  0  0  0  0
   18.1440  -17.1172   23.4586 O   0  0  0  0  0  0  0  0  0  0  0  0
   17.4712  -16.9534   20.5938 O   0  0  0  0  0  0  0  0  0  0  0  0
   20.1268  -17.8336   18.8086 O   0  0  0  0  0  0  0  0  0  0  0  0
   20.0113  -19.6322   20.8120 N   0  0  0  0  0  0  0  0  0  0  0  0
   19.6951  -20.2172   18.5364 C   0  0  0  0  0  0  0  0  0  0  0  0
   20.3426  -20.7040   19.8469 C   0  0  0  0  0  0  0  0  0  0  0  0
   18.1706  -20.0872   24.1642 H   0  0  0  0  0  0  0  0  0  0  0  0
   18.9795  -16.6257   23.4951 H   0  0  0  0  0  0  0  0  0  0  0  0
   16.6498  -17.4690   20.6105 H   0  0  0  0  0  0  0  0  0  0  0  0
   20.8732  -18.0837   19.3754 H   0  0  0  0  0  0  0  0  0  0  0  0
  1  2  1  0  0  0
  1 11  1  0  0  0
  2  3  1  0  0  0
  2  7  1  0  0  0
  3  4  1  0  0  0
  3  8  1  0  0  0
  4  5  1  0  0  0
  4  9  1  0  0  0
  5  6  1  0  0  0
  5 11  1  0  0  0
  6 10  1  0  0  0
  6 12  1  0  0  0
 11 13  1  0  0  0
 12 13  1  0  0  0
  7 14  1  0  0  0
  8 15  1  0  0  0
  9 16  1  0  0  0
 10 17  1  0  0  0
M  END
> <minimizedAffinity>
-6.50838

$$$$
4IIF_CTS_A_941


 17 18  0  0  0  0  0  0  0  0999 V2000
   19.3272  -17.7731   23.7264 C   0  0  0  0  0  0  0  0  0  0  0  0
   20.1599  -18.8810   24.3576 C   0  0  0  0  0  0  0  0  0  0  0  0
   20.9367  -19.6866   23.3369 C   0  0  0  0  0  0  0  0  0  0  0  0
   20.0072  -20.1749   22.2269 C   0  0  0  0  0  0  0  0  0  0  0  0
   19.3576  -18.8965   21.6497 C   0  0  0  0  0  0  0  0  0  0  0  0
   18.3433  -19.1428   20.5824 C   0  0  0  0  0  0  0  0  0  0  0  0
   21.1334  -18.3140   25.2073 O   0  0  0  0  0  0  0  0  0  0  0  0
   21.5508  -20.7331   24.0433 O   0  0  0  0  0  0  0  0  0  0  0  0
   20.7035  -20.9217   21.2267 O   0  0  0  0  0  0  0  0  0  0  0  0
   17.4699  -20.2040   21.0211 O   0  0  0  0  0  0  0  0  0  0  0  0
   18.4828  -18.3625   22.7079 N   0  0  0  0  0  0  0  0  0  0  0  0
   17.5848  -17.8085   20.5848 C   0  0  0  0  0  0  0  0  0  0  0  0
   17.6581  -17.3270   22.0465 C   0  0  0  0  0  0  0  0  0  0  0  0
   21.7305  -17.7542   24.6866 H   0  0  0  0  0  0  0  0  0  0  0  0
   20.8726  -21.2628   24.4909 H   0  0  0  0  0  0  0  0  0  0  0  0
   21.3951  -20.3676   20.8324 H   0  0  0  0  0  0  0  0  0  0  0  0
   17.0968  -19.9783   21.8876 H   0  0  0  0  0  0  0  0  0  0  0  0
  1  2  1  0  0  0
  1 11  1  0  0  0
  2  3  1  0  0  0
  2  7  1  0  0  0
  3  4  1  0  0  0
  3  8  1  0  0  0
  4  5  1  0  0  0
  4  9  1  0  0  0
  5  6  1  0  0  0
  5 11  1  0  0  0
  6 10  1  0  0  0
  6 12  1  0  0  0
 11 13  1  0  0  0
 12 13  1  0  0  0
  7 14  1  0  0  0
  8 15  1  0  0  0
  9 16  1  0  0  0
 10 17  1  0  0  0
M  END
> <minimizedAffinity>
-6.41851

$$$$
4IIF_CTS_A_941


 17 18  0  0  0  0  0  0  0  0999 V2000
   20.0721  -20.7140   21.7221 C   0  0  0  0  0  0  0  0  0  0  0  0
   20.0686  -21.0650   20.2401 C   0  0  0  0  0  0  0  0  0  0  0  0
   20.1619  -19.8452   19.3471 C   0  0  0  0  0  0  0  0  0  0  0  0
   19.0989  -18.8193   19.7366 C   0  0  0  0  0  0  0  0  0  0  0  0
   19.3528  -18.5191   21.2316 C   0  0  0  0  0  0  0  0  0  0  0  0
   18.3720  -17.5801   21.8519 C   0  0  0  0  0  0  0  0  0  0  0  0
   21.2077  -21.8403   19.9361 O   0  0  0  0  0  0  0  0  0  0  0  0
   20.0254  -20.3088   18.0288 O   0  0  0  0  0  0  0  0  0  0  0  0
   19.1651  -17.6389   18.9333 O   0  0  0  0  0  0  0  0  0  0  0  0
   17.0438  -17.9865   21.4618 O   0  0  0  0  0  0  0  0  0  0  0  0
   19.0167  -19.7521   21.9644 N   0  0  0  0  0  0  0  0  0  0  0  0
   18.5896  -17.8713   23.3431 C   0  0  0  0  0  0  0  0  0  0  0  0
   18.9814  -19.3605   23.3910 C   0  0  0  0  0  0  0  0  0  0  0  0
   22.0083  -21.3232   20.1166 H   0  0  0  0  0  0  0  0  0  0  0  0
   19.1771  -20.7696   17.9344 H   0  0  0  0  0  0  0  0  0  0  0  0
   20.0404  -17.2317   19.0286 H   0  0  0  0  0  0  0  0  0  0  0  0
   16.9104  -18.9193   21.6923 H   0  0  0  0  0  0  0  0  0  0  0  0
  1  2  1  0  0  0
  1 11  1  0  0  0
  2  3  1  0  0  0
  2  7  1  0  0  0
  3  4  1  0  0  0
  3  8  1  0  0  0
  4  5  1  0  0  0
  4  9  1  0  0  0
  5  6  1  0  0  0
  5 11  1  0  0  0
  6 10  1  0  0  0
  6 12  1  0  0  0
 11 13  1  0  0  0
 12 13  1  0  0  0
  7 14  1  0  0  0
  8 15  1  0  0  0
  9 16  1  0  0  0
 10 17  1  0  0  0
M  END
> <minimizedAffinity>
-6.19779

$$$$
