5IPJ_6CD_A_401


 30 33  0  0  0  0  0  0  0  0999 V2000
  -22.9582  -36.6254   -0.3538 C   0  0  0  0  0  0  0  0  0  0  0  0
  -22.9921  -37.7148    0.5274 C   0  0  0  0  0  0  0  0  0  0  0  0
  -23.4245  -38.9501    0.0277 C   0  0  0  0  0  0  0  0  0  0  0  0
  -23.8181  -39.0665   -1.3196 C   0  0  0  0  0  0  0  0  0  0  0  0
  -23.7914  -37.9157   -2.2261 C   0  0  0  0  0  0  0  0  0  0  0  0
  -24.2138  -38.0750   -3.6143 C   0  0  0  0  0  0  0  0  0  0  0  0
  -24.5803  -39.1659   -4.0065 O   0  0  0  0  0  0  0  0  0  0  0  0
  -24.2060  -36.9877   -4.4940 N   0  0  0  0  0  0  0  0  0  0  0  0
  -24.6416  -37.1843   -5.8942 C   0  0  0  0  0  0  0  0  0  0  0  0
  -23.8003  -35.7878   -4.0385 C   0  0  0  0  0  0  0  0  0  0  0  0
  -23.3868  -35.6187   -2.7148 N   0  0  0  0  0  0  0  0  0  0  0  0
  -23.3761  -36.6874   -1.7778 C   0  0  0  0  0  0  0  0  0  0  0  0
  -21.7676  -30.9740   -1.3533 C   0  0  0  0  0  0  0  0  0  0  0  0
  -21.2648  -31.7806   -0.1538 C   0  0  0  0  0  0  0  0  0  0  0  0
  -21.6064  -31.1324    1.0788 N   0  0  0  0  0  0  0  0  0  0  0  0
  -22.3245  -32.0635    1.8944 C   0  0  0  0  0  0  0  0  0  0  0  0
  -22.7613  -31.8398    3.0319 O   0  0  0  0  0  0  0  0  0  0  0  0
  -22.4390  -33.3545    1.1332 C   0  0  0  0  0  0  0  0  0  0  0  0
  -22.9396  -34.6812    1.1702 C   0  0  0  0  0  0  0  0  0  0  0  0
  -22.5885  -35.2997   -0.0505 C   0  0  0  0  0  0  0  0  0  0  0  0
  -21.9158  -34.3651   -0.7849 N   0  0  0  0  0  0  0  0  0  0  0  0
  -21.8062  -33.1850   -0.0850 C   0  0  0  0  0  0  0  0  0  0  0  0
  -21.3846  -30.2047    1.3225 H   0  0  0  0  0  0  0  0  0  0  0  0
  -21.5586  -34.5148   -1.6900 H   0  0  0  0  0  0  0  0  0  0  0  0
  -23.7758  -34.6510   -4.9568 N   0  0  0  0  0  0  0  0  0  0  0  0
  -24.6378  -34.3650   -5.3369 H   0  0  0  0  0  0  0  0  0  0  0  0
  -22.6025  -33.9078   -5.3585 C   0  0  0  0  0  0  0  0  0  0  0  0
  -21.3619  -34.7984   -5.2298 C   0  0  0  0  0  0  0  0  0  0  0  0
  -22.4695  -32.6270   -4.5590 C   0  0  0  0  0  0  0  0  0  0  0  0
  -22.7893  -33.5403   -6.8211 C   0  0  0  0  0  0  0  0  0  0  0  0
 30 27  1  0  0  0
 27 25  1  0  0  0
 27 29  1  0  0  0
 27 28  1  0  0  0
 25 10  1  0  0  0
  9  8  1  0  0  0
 10  8  1  0  0  0
 10 11  2  0  0  0
  8  6  1  0  0  0
 13 14  1  0  0  0
 11 12  1  0  0  0
  6  7  2  0  0  0
  6  5  1  0  0  0
 14 22  1  0  0  0
 14 15  1  0  0  0
 21 22  1  0  0  0
 21 20  1  0  0  0
 22 18  2  0  0  0
 12  5  2  0  0  0
 12  1  1  0  0  0
  5  4  1  0  0  0
 15 16  1  0  0  0
 20  1  1  0  0  0
 20 19  2  0  0  0
  1  2  2  0  0  0
 18 16  1  0  0  0
 18 19  1  0  0  0
  4  3  2  0  0  0
 16 17  2  0  0  0
  2  3  1  0  0  0
 15 23  1  0  0  0
 21 24  1  0  0  0
 25 26  1  0  0  0
M  END
> <minimizedAffinity>
-10.47489

$$$$
5IPJ_6CD_A_401


 30 33  0  0  0  0  0  0  0  0999 V2000
  -21.7458  -31.9137   -1.1498 C   0  0  0  0  0  0  0  0  0  0  0  0
  -21.1660  -31.1230   -0.1482 C   0  0  0  0  0  0  0  0  0  0  0  0
  -20.8862  -31.7262    1.0848 C   0  0  0  0  0  0  0  0  0  0  0  0
  -21.1968  -33.0844    1.2914 C   0  0  0  0  0  0  0  0  0  0  0  0
  -21.8162  -33.8955    0.2401 C   0  0  0  0  0  0  0  0  0  0  0  0
  -22.1294  -35.2983    0.4951 C   0  0  0  0  0  0  0  0  0  0  0  0
  -21.8679  -35.7820    1.5795 O   0  0  0  0  0  0  0  0  0  0  0  0
  -22.7300  -36.0881   -0.4906 N   0  0  0  0  0  0  0  0  0  0  0  0
  -23.0348  -37.5061   -0.1981 C   0  0  0  0  0  0  0  0  0  0  0  0
  -23.0147  -35.5322   -1.6829 C   0  0  0  0  0  0  0  0  0  0  0  0
  -22.7162  -34.1930   -1.9463 N   0  0  0  0  0  0  0  0  0  0  0  0
  -22.1082  -33.3442   -0.9818 C   0  0  0  0  0  0  0  0  0  0  0  0
  -23.9272  -32.4109   -6.5673 C   0  0  0  0  0  0  0  0  0  0  0  0
  -22.9581  -31.3202   -6.1053 C   0  0  0  0  0  0  0  0  0  0  0  0
  -23.4827  -30.0159   -6.3876 N   0  0  0  0  0  0  0  0  0  0  0  0
  -23.4982  -29.2628   -5.1708 C   0  0  0  0  0  0  0  0  0  0  0  0
  -23.8794  -28.0900   -5.0524 O   0  0  0  0  0  0  0  0  0  0  0  0
  -22.9598  -30.1402   -4.0756 C   0  0  0  0  0  0  0  0  0  0  0  0
  -22.6501  -30.2098   -2.6932 C   0  0  0  0  0  0  0  0  0  0  0  0
  -22.1327  -31.4998   -2.4402 C   0  0  0  0  0  0  0  0  0  0  0  0
  -22.1494  -32.1698   -3.6303 N   0  0  0  0  0  0  0  0  0  0  0  0
  -22.6371  -31.3639   -4.6338 C   0  0  0  0  0  0  0  0  0  0  0  0
  -23.7813  -29.6933   -7.2685 H   0  0  0  0  0  0  0  0  0  0  0  0
  -21.8534  -33.1007   -3.7534 H   0  0  0  0  0  0  0  0  0  0  0  0
  -23.6288  -36.3562   -2.7221 N   0  0  0  0  0  0  0  0  0  0  0  0
  -24.5668  -36.6223   -2.5853 H   0  0  0  0  0  0  0  0  0  0  0  0
  -22.9859  -36.8168   -3.9325 C   0  0  0  0  0  0  0  0  0  0  0  0
  -22.8501  -38.3428   -3.8927 C   0  0  0  0  0  0  0  0  0  0  0  0
  -21.6491  -36.1312   -4.1334 C   0  0  0  0  0  0  0  0  0  0  0  0
  -23.8954  -36.4381   -5.0895 C   0  0  0  0  0  0  0  0  0  0  0  0
 30 27  1  0  0  0
 27 25  1  0  0  0
 27 29  1  0  0  0
 27 28  1  0  0  0
 25 10  1  0  0  0
  9  8  1  0  0  0
 10  8  1  0  0  0
 10 11  2  0  0  0
  8  6  1  0  0  0
 13 14  1  0  0  0
 11 12  1  0  0  0
  6  7  2  0  0  0
  6  5  1  0  0  0
 14 22  1  0  0  0
 14 15  1  0  0  0
 21 22  1  0  0  0
 21 20  1  0  0  0
 22 18  2  0  0  0
 12  5  2  0  0  0
 12  1  1  0  0  0
  5  4  1  0  0  0
 15 16  1  0  0  0
 20  1  1  0  0  0
 20 19  2  0  0  0
  1  2  2  0  0  0
 18 16  1  0  0  0
 18 19  1  0  0  0
  4  3  2  0  0  0
 16 17  2  0  0  0
  2  3  1  0  0  0
 15 23  1  0  0  0
 21 24  1  0  0  0
 25 26  1  0  0  0
M  END
> <minimizedAffinity>
-9.76383

$$$$
5IPJ_6CD_A_401


 30 33  0  0  0  0  0  0  0  0999 V2000
  -23.2022  -36.5728    0.1932 C   0  0  0  0  0  0  0  0  0  0  0  0
  -23.4845  -36.9870    1.5021 C   0  0  0  0  0  0  0  0  0  0  0  0
  -23.3136  -36.0573    2.5361 C   0  0  0  0  0  0  0  0  0  0  0  0
  -22.8608  -34.7556    2.2456 C   0  0  0  0  0  0  0  0  0  0  0  0
  -22.5556  -34.3406    0.8739 C   0  0  0  0  0  0  0  0  0  0  0  0
  -22.0819  -32.9846    0.6140 C   0  0  0  0  0  0  0  0  0  0  0  0
  -21.9494  -32.2093    1.5412 O   0  0  0  0  0  0  0  0  0  0  0  0
  -21.7750  -32.5705   -0.6862 N   0  0  0  0  0  0  0  0  0  0  0  0
  -21.2962  -31.1892   -0.9136 C   0  0  0  0  0  0  0  0  0  0  0  0
  -21.9250  -33.4455   -1.6979 C   0  0  0  0  0  0  0  0  0  0  0  0
  -22.3832  -34.7452   -1.4682 N   0  0  0  0  0  0  0  0  0  0  0  0
  -22.7079  -35.2197   -0.1683 C   0  0  0  0  0  0  0  0  0  0  0  0
  -22.5416  -37.9002   -5.4775 C   0  0  0  0  0  0  0  0  0  0  0  0
  -23.5460  -38.5605   -4.5302 C   0  0  0  0  0  0  0  0  0  0  0  0
  -23.3943  -39.9864   -4.5359 N   0  0  0  0  0  0  0  0  0  0  0  0
  -23.1973  -40.4245   -3.1879 C   0  0  0  0  0  0  0  0  0  0  0  0
  -23.0435  -41.5993   -2.8257 O   0  0  0  0  0  0  0  0  0  0  0  0
  -23.2246  -39.2135   -2.2980 C   0  0  0  0  0  0  0  0  0  0  0  0
  -23.1214  -38.7566   -0.9592 C   0  0  0  0  0  0  0  0  0  0  0  0
  -23.2773  -37.3526   -0.9784 C   0  0  0  0  0  0  0  0  0  0  0  0
  -23.4535  -36.9950   -2.2848 N   0  0  0  0  0  0  0  0  0  0  0  0
  -23.4341  -38.1050   -3.0984 C   0  0  0  0  0  0  0  0  0  0  0  0
  -23.4212  -40.5654   -5.3316 H   0  0  0  0  0  0  0  0  0  0  0  0
  -23.5773  -36.0709   -2.6008 H   0  0  0  0  0  0  0  0  0  0  0  0
  -21.6201  -33.0143   -3.0607 N   0  0  0  0  0  0  0  0  0  0  0  0
  -20.6690  -32.9226   -3.2981 H   0  0  0  0  0  0  0  0  0  0  0  0
  -22.5863  -32.7101   -4.0924 C   0  0  0  0  0  0  0  0  0  0  0  0
  -23.0191  -31.2447   -3.9741 C   0  0  0  0  0  0  0  0  0  0  0  0
  -23.7664  -33.6593   -4.0297 C   0  0  0  0  0  0  0  0  0  0  0  0
  -21.8866  -32.9058   -5.4270 C   0  0  0  0  0  0  0  0  0  0  0  0
 30 27  1  0  0  0
 27 25  1  0  0  0
 27 29  1  0  0  0
 27 28  1  0  0  0
 25 10  1  0  0  0
  9  8  1  0  0  0
 10  8  1  0  0  0
 10 11  2  0  0  0
  8  6  1  0  0  0
 13 14  1  0  0  0
 11 12  1  0  0  0
  6  7  2  0  0  0
  6  5  1  0  0  0
 14 22  1  0  0  0
 14 15  1  0  0  0
 21 22  1  0  0  0
 21 20  1  0  0  0
 22 18  2  0  0  0
 12  5  2  0  0  0
 12  1  1  0  0  0
  5  4  1  0  0  0
 15 16  1  0  0  0
 20  1  1  0  0  0
 20 19  2  0  0  0
  1  2  2  0  0  0
 18 16  1  0  0  0
 18 19  1  0  0  0
  4  3  2  0  0  0
 16 17  2  0  0  0
  2  3  1  0  0  0
 15 23  1  0  0  0
 21 24  1  0  0  0
 25 26  1  0  0  0
M  END
> <minimizedAffinity>
-9.62153

$$$$
5IPJ_6CD_A_401


 30 33  0  0  0  0  0  0  0  0999 V2000
  -23.5341  -38.1460   -2.3106 C   0  0  0  0  0  0  0  0  0  0  0  0
  -23.8455  -39.2016   -1.4428 C   0  0  0  0  0  0  0  0  0  0  0  0
  -23.6840  -38.9901   -0.0673 C   0  0  0  0  0  0  0  0  0  0  0  0
  -23.2118  -37.7498    0.4042 C   0  0  0  0  0  0  0  0  0  0  0  0
  -22.8763  -36.6597   -0.5155 C   0  0  0  0  0  0  0  0  0  0  0  0
  -22.3831  -35.3909    0.0116 C   0  0  0  0  0  0  0  0  0  0  0  0
  -22.2597  -35.2498    1.2130 O   0  0  0  0  0  0  0  0  0  0  0  0
  -22.0472  -34.3406   -0.8487 N   0  0  0  0  0  0  0  0  0  0  0  0
  -21.5492  -33.0685   -0.2806 C   0  0  0  0  0  0  0  0  0  0  0  0
  -22.1876  -34.5188   -2.1754 C   0  0  0  0  0  0  0  0  0  0  0  0
  -22.6641  -35.7242   -2.6969 N   0  0  0  0  0  0  0  0  0  0  0  0
  -23.0184  -36.8247   -1.8700 C   0  0  0  0  0  0  0  0  0  0  0  0
  -22.0206  -39.6043   -7.7821 C   0  0  0  0  0  0  0  0  0  0  0  0
  -22.8023  -38.3483   -7.3903 C   0  0  0  0  0  0  0  0  0  0  0  0
  -24.0312  -38.2601   -8.1238 N   0  0  0  0  0  0  0  0  0  0  0  0
  -25.1067  -38.1318   -7.1885 C   0  0  0  0  0  0  0  0  0  0  0  0
  -26.3060  -38.0199   -7.4782 O   0  0  0  0  0  0  0  0  0  0  0  0
  -24.5212  -38.1430   -5.8042 C   0  0  0  0  0  0  0  0  0  0  0  0
  -24.8193  -38.0736   -4.4192 C   0  0  0  0  0  0  0  0  0  0  0  0
  -23.5955  -38.1586   -3.7185 C   0  0  0  0  0  0  0  0  0  0  0  0
  -22.6129  -38.2862   -4.6587 N   0  0  0  0  0  0  0  0  0  0  0  0
  -23.1492  -38.2701   -5.9261 C   0  0  0  0  0  0  0  0  0  0  0  0
  -24.1200  -38.2839   -9.1040 H   0  0  0  0  0  0  0  0  0  0  0  0
  -21.6535  -38.3771   -4.4575 H   0  0  0  0  0  0  0  0  0  0  0  0
  -21.8523  -33.4199   -3.0789 N   0  0  0  0  0  0  0  0  0  0  0  0
  -20.9220  -33.0980   -3.0650 H   0  0  0  0  0  0  0  0  0  0  0  0
  -22.7608  -32.7621   -3.9912 C   0  0  0  0  0  0  0  0  0  0  0  0
  -22.9702  -31.3098   -3.5487 C   0  0  0  0  0  0  0  0  0  0  0  0
  -24.0695  -33.5196   -4.0966 C   0  0  0  0  0  0  0  0  0  0  0  0
  -22.0963  -32.7646   -5.3578 C   0  0  0  0  0  0  0  0  0  0  0  0
 30 27  1  0  0  0
 27 25  1  0  0  0
 27 29  1  0  0  0
 27 28  1  0  0  0
 25 10  1  0  0  0
  9  8  1  0  0  0
 10  8  1  0  0  0
 10 11  2  0  0  0
  8  6  1  0  0  0
 13 14  1  0  0  0
 11 12  1  0  0  0
  6  7  2  0  0  0
  6  5  1  0  0  0
 14 22  1  0  0  0
 14 15  1  0  0  0
 21 22  1  0  0  0
 21 20  1  0  0  0
 22 18  2  0  0  0
 12  5  2  0  0  0
 12  1  1  0  0  0
  5  4  1  0  0  0
 15 16  1  0  0  0
 20  1  1  0  0  0
 20 19  2  0  0  0
  1  2  2  0  0  0
 18 16  1  0  0  0
 18 19  1  0  0  0
  4  3  2  0  0  0
 16 17  2  0  0  0
  2  3  1  0  0  0
 15 23  1  0  0  0
 21 24  1  0  0  0
 25 26  1  0  0  0
M  END
> <minimizedAffinity>
-9.43720

$$$$
5IPJ_6CD_A_401


 30 33  0  0  0  0  0  0  0  0999 V2000
  -21.6376  -32.7261   -1.5999 C   0  0  0  0  0  0  0  0  0  0  0  0
  -21.1869  -31.6977   -0.7611 C   0  0  0  0  0  0  0  0  0  0  0  0
  -21.1338  -31.9494    0.6160 C   0  0  0  0  0  0  0  0  0  0  0  0
  -21.5362  -33.2018    1.1194 C   0  0  0  0  0  0  0  0  0  0  0  0
  -22.0192  -34.2631    0.2321 C   0  0  0  0  0  0  0  0  0  0  0  0
  -22.4340  -35.5454    0.7928 C   0  0  0  0  0  0  0  0  0  0  0  0
  -22.3699  -35.7218    1.9941 O   0  0  0  0  0  0  0  0  0  0  0  0
  -22.9077  -36.5687   -0.0346 N   0  0  0  0  0  0  0  0  0  0  0  0
  -23.3209  -37.8556    0.5672 C   0  0  0  0  0  0  0  0  0  0  0  0
  -22.9742  -36.3516   -1.3613 C   0  0  0  0  0  0  0  0  0  0  0  0
  -22.5756  -35.1327   -1.9157 N   0  0  0  0  0  0  0  0  0  0  0  0
  -22.0885  -34.0584   -1.1227 C   0  0  0  0  0  0  0  0  0  0  0  0
  -22.2462  -34.7636   -7.0619 C   0  0  0  0  0  0  0  0  0  0  0  0
  -21.7329  -33.3694   -6.6947 C   0  0  0  0  0  0  0  0  0  0  0  0
  -22.4931  -32.3519   -7.3603 N   0  0  0  0  0  0  0  0  0  0  0  0
  -22.9952  -31.4456   -6.3732 C   0  0  0  0  0  0  0  0  0  0  0  0
  -23.6838  -30.4408   -6.5994 O   0  0  0  0  0  0  0  0  0  0  0  0
  -22.5281  -31.9216   -5.0262 C   0  0  0  0  0  0  0  0  0  0  0  0
  -22.5530  -31.6607   -3.6322 C   0  0  0  0  0  0  0  0  0  0  0  0
  -21.7961  -32.6719   -2.9993 C   0  0  0  0  0  0  0  0  0  0  0  0
  -21.3521  -33.5055   -3.9859 N   0  0  0  0  0  0  0  0  0  0  0  0
  -21.7753  -33.0658   -5.2195 C   0  0  0  0  0  0  0  0  0  0  0  0
  -22.6440  -32.2878   -8.3310 H   0  0  0  0  0  0  0  0  0  0  0  0
  -20.8048  -34.3100   -3.8354 H   0  0  0  0  0  0  0  0  0  0  0  0
  -23.4545  -37.4221   -2.2328 N   0  0  0  0  0  0  0  0  0  0  0  0
  -23.6552  -38.2875   -1.8085 H   0  0  0  0  0  0  0  0  0  0  0  0
  -23.6620  -37.3274   -3.6606 C   0  0  0  0  0  0  0  0  0  0  0  0
  -22.3401  -37.5911   -4.3898 C   0  0  0  0  0  0  0  0  0  0  0  0
  -24.2616  -35.9868   -4.0356 C   0  0  0  0  0  0  0  0  0  0  0  0
  -24.6528  -38.4160   -4.0380 C   0  0  0  0  0  0  0  0  0  0  0  0
 30 27  1  0  0  0
 27 25  1  0  0  0
 27 29  1  0  0  0
 27 28  1  0  0  0
 25 10  1  0  0  0
  9  8  1  0  0  0
 10  8  1  0  0  0
 10 11  2  0  0  0
  8  6  1  0  0  0
 13 14  1  0  0  0
 11 12  1  0  0  0
  6  7  2  0  0  0
  6  5  1  0  0  0
 14 22  1  0  0  0
 14 15  1  0  0  0
 21 22  1  0  0  0
 21 20  1  0  0  0
 22 18  2  0  0  0
 12  5  2  0  0  0
 12  1  1  0  0  0
  5  4  1  0  0  0
 15 16  1  0  0  0
 20  1  1  0  0  0
 20 19  2  0  0  0
  1  2  2  0  0  0
 18 16  1  0  0  0
 18 19  1  0  0  0
  4  3  2  0  0  0
 16 17  2  0  0  0
  2  3  1  0  0  0
 15 23  1  0  0  0
 21 24  1  0  0  0
 25 26  1  0  0  0
M  END
> <minimizedAffinity>
-9.42629

$$$$
5IPJ_6CD_A_401


 30 33  0  0  0  0  0  0  0  0999 V2000
  -23.1994  -37.3013   -3.2582 C   0  0  0  0  0  0  0  0  0  0  0  0
  -23.2627  -38.6042   -3.7709 C   0  0  0  0  0  0  0  0  0  0  0  0
  -23.3668  -39.6637   -2.8603 C   0  0  0  0  0  0  0  0  0  0  0  0
  -23.3946  -39.4032   -1.4764 C   0  0  0  0  0  0  0  0  0  0  0  0
  -23.3131  -38.0368   -0.9538 C   0  0  0  0  0  0  0  0  0  0  0  0
  -23.3380  -37.8081    0.4877 C   0  0  0  0  0  0  0  0  0  0  0  0
  -23.4312  -38.7569    1.2423 O   0  0  0  0  0  0  0  0  0  0  0  0
  -23.2512  -36.5129    1.0085 N   0  0  0  0  0  0  0  0  0  0  0  0
  -23.2783  -36.3174    2.4748 C   0  0  0  0  0  0  0  0  0  0  0  0
  -23.1448  -35.4769    0.1559 C   0  0  0  0  0  0  0  0  0  0  0  0
  -23.1256  -35.6769   -1.2266 N   0  0  0  0  0  0  0  0  0  0  0  0
  -23.2088  -36.9702   -1.8103 C   0  0  0  0  0  0  0  0  0  0  0  0
  -23.0702  -31.5198   -4.2140 C   0  0  0  0  0  0  0  0  0  0  0  0
  -23.3225  -32.5836   -5.2850 C   0  0  0  0  0  0  0  0  0  0  0  0
  -22.4087  -32.4348   -6.3800 N   0  0  0  0  0  0  0  0  0  0  0  0
  -21.7349  -33.6816   -6.5779 C   0  0  0  0  0  0  0  0  0  0  0  0
  -20.8850  -33.9126   -7.4492 O   0  0  0  0  0  0  0  0  0  0  0  0
  -22.2510  -34.6550   -5.5556 C   0  0  0  0  0  0  0  0  0  0  0  0
  -22.1523  -35.9826   -5.0659 C   0  0  0  0  0  0  0  0  0  0  0  0
  -23.0623  -36.1061   -3.9924 C   0  0  0  0  0  0  0  0  0  0  0  0
  -23.6662  -34.8896   -3.8477 N   0  0  0  0  0  0  0  0  0  0  0  0
  -23.1973  -34.0004   -4.7879 C   0  0  0  0  0  0  0  0  0  0  0  0
  -22.2687  -31.6145   -6.9060 H   0  0  0  0  0  0  0  0  0  0  0  0
  -24.3434  -34.6779   -3.1652 H   0  0  0  0  0  0  0  0  0  0  0  0
  -23.0685  -34.1199    0.6935 N   0  0  0  0  0  0  0  0  0  0  0  0
  -23.8897  -33.7499    1.0910 H   0  0  0  0  0  0  0  0  0  0  0  0
  -21.8982  -33.2708    0.6954 C   0  0  0  0  0  0  0  0  0  0  0  0
  -21.6086  -32.7931   -0.7317 C   0  0  0  0  0  0  0  0  0  0  0  0
  -20.7098  -33.9835    1.3096 C   0  0  0  0  0  0  0  0  0  0  0  0
  -22.2279  -32.0630    1.5566 C   0  0  0  0  0  0  0  0  0  0  0  0
 30 27  1  0  0  0
 27 25  1  0  0  0
 27 29  1  0  0  0
 27 28  1  0  0  0
 25 10  1  0  0  0
  9  8  1  0  0  0
 10  8  1  0  0  0
 10 11  2  0  0  0
  8  6  1  0  0  0
 13 14  1  0  0  0
 11 12  1  0  0  0
  6  7  2  0  0  0
  6  5  1  0  0  0
 14 22  1  0  0  0
 14 15  1  0  0  0
 21 22  1  0  0  0
 21 20  1  0  0  0
 22 18  2  0  0  0
 12  5  2  0  0  0
 12  1  1  0  0  0
  5  4  1  0  0  0
 15 16  1  0  0  0
 20  1  1  0  0  0
 20 19  2  0  0  0
  1  2  2  0  0  0
 18 16  1  0  0  0
 18 19  1  0  0  0
  4  3  2  0  0  0
 16 17  2  0  0  0
  2  3  1  0  0  0
 15 23  1  0  0  0
 21 24  1  0  0  0
 25 26  1  0  0  0
M  END
> <minimizedAffinity>
-9.34671

$$$$
5IPJ_6CD_A_401


 30 33  0  0  0  0  0  0  0  0999 V2000
  -21.7464  -32.5055   -1.5380 C   0  0  0  0  0  0  0  0  0  0  0  0
  -21.2080  -31.5096   -0.7117 C   0  0  0  0  0  0  0  0  0  0  0  0
  -21.0347  -31.8063    0.6465 C   0  0  0  0  0  0  0  0  0  0  0  0
  -21.4074  -33.0698    1.1449 C   0  0  0  0  0  0  0  0  0  0  0  0
  -21.9827  -34.0966    0.2722 C   0  0  0  0  0  0  0  0  0  0  0  0
  -22.3630  -35.3918    0.8278 C   0  0  0  0  0  0  0  0  0  0  0  0
  -22.1935  -35.6075    2.0124 O   0  0  0  0  0  0  0  0  0  0  0  0
  -22.9232  -36.3827    0.0151 N   0  0  0  0  0  0  0  0  0  0  0  0
  -23.2982  -37.6837    0.6114 C   0  0  0  0  0  0  0  0  0  0  0  0
  -23.1058  -36.1221   -1.2927 C   0  0  0  0  0  0  0  0  0  0  0  0
  -22.7419  -34.8903   -1.8426 N   0  0  0  0  0  0  0  0  0  0  0  0
  -22.1708  -33.8475   -1.0637 C   0  0  0  0  0  0  0  0  0  0  0  0
  -23.0890  -29.8946   -6.6110 C   0  0  0  0  0  0  0  0  0  0  0  0
  -23.3171  -31.3747   -6.2955 C   0  0  0  0  0  0  0  0  0  0  0  0
  -22.7042  -32.2101   -7.2868 N   0  0  0  0  0  0  0  0  0  0  0  0
  -21.8289  -33.1283   -6.6245 C   0  0  0  0  0  0  0  0  0  0  0  0
  -21.1475  -34.0028   -7.1774 O   0  0  0  0  0  0  0  0  0  0  0  0
  -21.8966  -32.8510   -5.1488 C   0  0  0  0  0  0  0  0  0  0  0  0
  -21.4101  -33.2371   -3.8735 C   0  0  0  0  0  0  0  0  0  0  0  0
  -22.0294  -32.4044   -2.9149 C   0  0  0  0  0  0  0  0  0  0  0  0
  -22.8423  -31.5499   -3.6038 N   0  0  0  0  0  0  0  0  0  0  0  0
  -22.7842  -31.8081   -4.9544 C   0  0  0  0  0  0  0  0  0  0  0  0
  -22.8592  -32.1604   -8.2577 H   0  0  0  0  0  0  0  0  0  0  0  0
  -23.3937  -30.8464   -3.1911 H   0  0  0  0  0  0  0  0  0  0  0  0
  -23.6771  -37.1586   -2.1502 N   0  0  0  0  0  0  0  0  0  0  0  0
  -24.3715  -37.7335   -1.7544 H   0  0  0  0  0  0  0  0  0  0  0  0
  -23.3166  -37.4177   -3.5263 C   0  0  0  0  0  0  0  0  0  0  0  0
  -21.9099  -36.8741   -3.7992 C   0  0  0  0  0  0  0  0  0  0  0  0
  -24.3454  -36.8382   -4.4767 C   0  0  0  0  0  0  0  0  0  0  0  0
  -23.2993  -38.9268   -3.7037 C   0  0  0  0  0  0  0  0  0  0  0  0
 30 27  1  0  0  0
 27 25  1  0  0  0
 27 29  1  0  0  0
 27 28  1  0  0  0
 25 10  1  0  0  0
  9  8  1  0  0  0
 10  8  1  0  0  0
 10 11  2  0  0  0
  8  6  1  0  0  0
 13 14  1  0  0  0
 11 12  1  0  0  0
  6  7  2  0  0  0
  6  5  1  0  0  0
 14 22  1  0  0  0
 14 15  1  0  0  0
 21 22  1  0  0  0
 21 20  1  0  0  0
 22 18  2  0  0  0
 12  5  2  0  0  0
 12  1  1  0  0  0
  5  4  1  0  0  0
 15 16  1  0  0  0
 20  1  1  0  0  0
 20 19  2  0  0  0
  1  2  2  0  0  0
 18 16  1  0  0  0
 18 19  1  0  0  0
  4  3  2  0  0  0
 16 17  2  0  0  0
  2  3  1  0  0  0
 15 23  1  0  0  0
 21 24  1  0  0  0
 25 26  1  0  0  0
M  END
> <minimizedAffinity>
-9.10856

$$$$
5IPJ_6CD_A_401


 30 33  0  0  0  0  0  0  0  0999 V2000
  -23.8071  -38.5053   -1.4314 C   0  0  0  0  0  0  0  0  0  0  0  0
  -24.0255  -39.2273   -0.2501 C   0  0  0  0  0  0  0  0  0  0  0  0
  -23.7108  -38.6072    0.9660 C   0  0  0  0  0  0  0  0  0  0  0  0
  -23.1823  -37.3016    0.9753 C   0  0  0  0  0  0  0  0  0  0  0  0
  -22.9454  -36.5639   -0.2683 C   0  0  0  0  0  0  0  0  0  0  0  0
  -22.3897  -35.2150   -0.2176 C   0  0  0  0  0  0  0  0  0  0  0  0
  -22.1326  -34.7141    0.8600 O   0  0  0  0  0  0  0  0  0  0  0  0
  -22.1461  -34.4967   -1.3927 N   0  0  0  0  0  0  0  0  0  0  0  0
  -21.5811  -33.1321   -1.3049 C   0  0  0  0  0  0  0  0  0  0  0  0
  -22.4343  -35.0709   -2.5754 C   0  0  0  0  0  0  0  0  0  0  0  0
  -22.9724  -36.3585   -2.6423 N   0  0  0  0  0  0  0  0  0  0  0  0
  -23.2383  -37.1341   -1.4812 C   0  0  0  0  0  0  0  0  0  0  0  0
  -25.2553  -38.1375   -7.0991 C   0  0  0  0  0  0  0  0  0  0  0  0
  -25.2666  -39.4235   -6.2694 C   0  0  0  0  0  0  0  0  0  0  0  0
  -24.4762  -40.4435   -6.8948 N   0  0  0  0  0  0  0  0  0  0  0  0
  -23.5066  -40.9061   -5.9495 C   0  0  0  0  0  0  0  0  0  0  0  0
  -22.6671  -41.7942   -6.1523 O   0  0  0  0  0  0  0  0  0  0  0  0
  -23.6992  -40.1360   -4.6732 C   0  0  0  0  0  0  0  0  0  0  0  0
  -23.2305  -39.9553   -3.3467 C   0  0  0  0  0  0  0  0  0  0  0  0
  -24.0249  -38.9505   -2.7507 C   0  0  0  0  0  0  0  0  0  0  0  0
  -24.9216  -38.5455   -3.6981 N   0  0  0  0  0  0  0  0  0  0  0  0
  -24.7484  -39.2551   -4.8646 C   0  0  0  0  0  0  0  0  0  0  0  0
  -24.5825  -40.7699   -7.8175 H   0  0  0  0  0  0  0  0  0  0  0  0
  -25.5984  -37.8430   -3.5650 H   0  0  0  0  0  0  0  0  0  0  0  0
  -22.1958  -34.3198   -3.8063 N   0  0  0  0  0  0  0  0  0  0  0  0
  -21.2649  -34.2629   -4.1218 H   0  0  0  0  0  0  0  0  0  0  0  0
  -23.2008  -33.6527   -4.6034 C   0  0  0  0  0  0  0  0  0  0  0  0
  -23.0044  -32.1355   -4.5120 C   0  0  0  0  0  0  0  0  0  0  0  0
  -24.5954  -34.0727   -4.1837 C   0  0  0  0  0  0  0  0  0  0  0  0
  -22.9847  -34.0865   -6.0436 C   0  0  0  0  0  0  0  0  0  0  0  0
 30 27  1  0  0  0
 27 25  1  0  0  0
 27 29  1  0  0  0
 27 28  1  0  0  0
 25 10  1  0  0  0
  9  8  1  0  0  0
 10  8  1  0  0  0
 10 11  2  0  0  0
  8  6  1  0  0  0
 13 14  1  0  0  0
 11 12  1  0  0  0
  6  7  2  0  0  0
  6  5  1  0  0  0
 14 22  1  0  0  0
 14 15  1  0  0  0
 21 22  1  0  0  0
 21 20  1  0  0  0
 22 18  2  0  0  0
 12  5  2  0  0  0
 12  1  1  0  0  0
  5  4  1  0  0  0
 15 16  1  0  0  0
 20  1  1  0  0  0
 20 19  2  0  0  0
  1  2  2  0  0  0
 18 16  1  0  0  0
 18 19  1  0  0  0
  4  3  2  0  0  0
 16 17  2  0  0  0
  2  3  1  0  0  0
 15 23  1  0  0  0
 21 24  1  0  0  0
 25 26  1  0  0  0
M  END
> <minimizedAffinity>
-9.04020

$$$$
5IPJ_6CD_A_401


 30 33  0  0  0  0  0  0  0  0999 V2000
  -22.5800  -36.3818   -2.2613 C   0  0  0  0  0  0  0  0  0  0  0  0
  -22.8782  -37.6794   -1.8235 C   0  0  0  0  0  0  0  0  0  0  0  0
  -23.1266  -38.6588   -2.7939 C   0  0  0  0  0  0  0  0  0  0  0  0
  -23.0827  -38.3232   -4.1611 C   0  0  0  0  0  0  0  0  0  0  0  0
  -22.7840  -36.9589   -4.6043 C   0  0  0  0  0  0  0  0  0  0  0  0
  -22.7546  -36.6488   -6.0304 C   0  0  0  0  0  0  0  0  0  0  0  0
  -22.9745  -37.5300   -6.8387 O   0  0  0  0  0  0  0  0  0  0  0  0
  -22.4817  -35.3512   -6.4752 N   0  0  0  0  0  0  0  0  0  0  0  0
  -22.4609  -35.0717   -7.9280 C   0  0  0  0  0  0  0  0  0  0  0  0
  -22.2447  -34.3896   -5.5638 C   0  0  0  0  0  0  0  0  0  0  0  0
  -22.2626  -34.6699   -4.1952 N   0  0  0  0  0  0  0  0  0  0  0  0
  -22.5359  -35.9690   -3.6874 C   0  0  0  0  0  0  0  0  0  0  0  0
  -21.6682  -30.7307   -1.0006 C   0  0  0  0  0  0  0  0  0  0  0  0
  -21.2379  -31.9087   -0.1235 C   0  0  0  0  0  0  0  0  0  0  0  0
  -21.7447  -31.7662    1.2103 N   0  0  0  0  0  0  0  0  0  0  0  0
  -22.4791  -32.9485    1.5426 C   0  0  0  0  0  0  0  0  0  0  0  0
  -23.0430  -33.1683    2.6237 O   0  0  0  0  0  0  0  0  0  0  0  0
  -22.4307  -33.8727    0.3583 C   0  0  0  0  0  0  0  0  0  0  0  0
  -22.8441  -35.1322   -0.1466 C   0  0  0  0  0  0  0  0  0  0  0  0
  -22.3310  -35.2512   -1.4575 C   0  0  0  0  0  0  0  0  0  0  0  0
  -21.6501  -34.0964   -1.7189 N   0  0  0  0  0  0  0  0  0  0  0  0
  -21.6900  -33.2531   -0.6320 C   0  0  0  0  0  0  0  0  0  0  0  0
  -21.6103  -30.9874    1.7974 H   0  0  0  0  0  0  0  0  0  0  0  0
  -21.1937  -33.8951   -2.5677 H   0  0  0  0  0  0  0  0  0  0  0  0
  -21.9443  -33.0348   -6.0226 N   0  0  0  0  0  0  0  0  0  0  0  0
  -21.0694  -32.8917   -6.4508 H   0  0  0  0  0  0  0  0  0  0  0  0
  -22.8136  -31.8854   -5.9058 C   0  0  0  0  0  0  0  0  0  0  0  0
  -22.3987  -30.8222   -6.9286 C   0  0  0  0  0  0  0  0  0  0  0  0
  -22.8131  -31.3444   -4.4899 C   0  0  0  0  0  0  0  0  0  0  0  0
  -24.2198  -32.3573   -6.2361 C   0  0  0  0  0  0  0  0  0  0  0  0
 30 27  1  0  0  0
 27 25  1  0  0  0
 27 29  1  0  0  0
 27 28  1  0  0  0
 25 10  1  0  0  0
  9  8  1  0  0  0
 10  8  1  0  0  0
 10 11  2  0  0  0
  8  6  1  0  0  0
 13 14  1  0  0  0
 11 12  1  0  0  0
  6  7  2  0  0  0
  6  5  1  0  0  0
 14 22  1  0  0  0
 14 15  1  0  0  0
 21 22  1  0  0  0
 21 20  1  0  0  0
 22 18  2  0  0  0
 12  5  2  0  0  0
 12  1  1  0  0  0
  5  4  1  0  0  0
 15 16  1  0  0  0
 20  1  1  0  0  0
 20 19  2  0  0  0
  1  2  2  0  0  0
 18 16  1  0  0  0
 18 19  1  0  0  0
  4  3  2  0  0  0
 16 17  2  0  0  0
  2  3  1  0  0  0
 15 23  1  0  0  0
 21 24  1  0  0  0
 25 26  1  0  0  0
M  END
> <minimizedAffinity>
-8.86334

$$$$
5IPJ_6CD_A_401


 30 33  0  0  0  0  0  0  0  0999 V2000
  -23.1774  -33.6985   -4.9815 C   0  0  0  0  0  0  0  0  0  0  0  0
  -23.5102  -32.8013   -6.0056 C   0  0  0  0  0  0  0  0  0  0  0  0
  -23.3710  -31.4312   -5.7490 C   0  0  0  0  0  0  0  0  0  0  0  0
  -22.9187  -30.9926   -4.4893 C   0  0  0  0  0  0  0  0  0  0  0  0
  -22.5881  -31.9414   -3.4228 C   0  0  0  0  0  0  0  0  0  0  0  0
  -22.1290  -31.4474   -2.1282 C   0  0  0  0  0  0  0  0  0  0  0  0
  -22.0209  -30.2496   -1.9491 O   0  0  0  0  0  0  0  0  0  0  0  0
  -21.8178  -32.3348   -1.0929 N   0  0  0  0  0  0  0  0  0  0  0  0
  -21.3564  -31.7999    0.2070 C   0  0  0  0  0  0  0  0  0  0  0  0
  -21.9479  -33.6567   -1.3108 C   0  0  0  0  0  0  0  0  0  0  0  0
  -22.3799  -34.1472   -2.5455 N   0  0  0  0  0  0  0  0  0  0  0  0
  -22.7113  -33.2917   -3.6312 C   0  0  0  0  0  0  0  0  0  0  0  0
  -25.7777  -38.9509   -4.9046 C   0  0  0  0  0  0  0  0  0  0  0  0
  -24.3086  -38.6910   -4.5631 C   0  0  0  0  0  0  0  0  0  0  0  0
  -23.4447  -39.5158   -5.3565 N   0  0  0  0  0  0  0  0  0  0  0  0
  -22.5065  -38.6703   -6.0293 C   0  0  0  0  0  0  0  0  0  0  0  0
  -21.6057  -39.0526   -6.7891 O   0  0  0  0  0  0  0  0  0  0  0  0
  -22.8005  -37.2489   -5.6392 C   0  0  0  0  0  0  0  0  0  0  0  0
  -22.4123  -35.8956   -5.8124 C   0  0  0  0  0  0  0  0  0  0  0  0
  -23.2734  -35.1040   -5.0202 C   0  0  0  0  0  0  0  0  0  0  0  0
  -24.1458  -35.9611   -4.4120 N   0  0  0  0  0  0  0  0  0  0  0  0
  -23.8723  -37.2630   -4.7650 C   0  0  0  0  0  0  0  0  0  0  0  0
  -23.4894  -40.4968   -5.4264 H   0  0  0  0  0  0  0  0  0  0  0  0
  -24.8702  -35.6857   -3.8048 H   0  0  0  0  0  0  0  0  0  0  0  0
  -21.6102  -34.5898   -0.2377 N   0  0  0  0  0  0  0  0  0  0  0  0
  -20.7259  -34.4864    0.1825 H   0  0  0  0  0  0  0  0  0  0  0  0
  -22.4550  -35.6507    0.2636 C   0  0  0  0  0  0  0  0  0  0  0  0
  -22.3963  -35.6732    1.7949 C   0  0  0  0  0  0  0  0  0  0  0  0
  -22.0683  -36.9858   -0.3408 C   0  0  0  0  0  0  0  0  0  0  0  0
  -23.8762  -35.3261   -0.1652 C   0  0  0  0  0  0  0  0  0  0  0  0
 30 27  1  0  0  0
 27 25  1  0  0  0
 27 29  1  0  0  0
 27 28  1  0  0  0
 25 10  1  0  0  0
  9  8  1  0  0  0
 10  8  1  0  0  0
 10 11  2  0  0  0
  8  6  1  0  0  0
 13 14  1  0  0  0
 11 12  1  0  0  0
  6  7  2  0  0  0
  6  5  1  0  0  0
 14 22  1  0  0  0
 14 15  1  0  0  0
 21 22  1  0  0  0
 21 20  1  0  0  0
 22 18  2  0  0  0
 12  5  2  0  0  0
 12  1  1  0  0  0
  5  4  1  0  0  0
 15 16  1  0  0  0
 20  1  1  0  0  0
 20 19  2  0  0  0
  1  2  2  0  0  0
 18 16  1  0  0  0
 18 19  1  0  0  0
  4  3  2  0  0  0
 16 17  2  0  0  0
  2  3  1  0  0  0
 15 23  1  0  0  0
 21 24  1  0  0  0
 25 26  1  0  0  0
M  END
> <minimizedAffinity>
-8.82298

$$$$
