5LNY_70K_A_301


 36 40  0  0  0  0  0  0  0  0999 V2000
   -1.8592   11.3940   25.0950 C   0  0  0  0  0  0  0  0  0  0  0  0
   -0.6424   12.4075   23.2724 C   0  0  0  0  0  0  0  0  0  0  0  0
    0.5726   12.1076   23.9610 C   0  0  0  0  0  0  0  0  0  0  0  0
    1.6119   12.6130   23.0565 C   0  0  0  0  0  0  0  0  0  0  0  0
   -0.6646   11.1616   25.8246 C   0  0  0  0  0  0  0  0  0  0  0  0
    0.5709   11.5109   25.2211 C   0  0  0  0  0  0  0  0  0  0  0  0
   -1.8554   12.0343   23.8589 C   0  0  0  0  0  0  0  0  0  0  0  0
   -3.0444   11.0405   25.6454 O   0  0  0  0  0  0  0  0  0  0  0  0
    1.0004   13.0815   21.9796 N   0  0  0  0  0  0  0  0  0  0  0  0
   -0.2822   12.9998   22.0758 N   0  0  0  0  0  0  0  0  0  0  0  0
   -3.8417   11.1877   25.1756 H   0  0  0  0  0  0  0  0  0  0  0  0
    1.4706   13.4494   21.1968 H   0  0  0  0  0  0  0  0  0  0  0  0
    3.0663   12.4664   23.2812 C   0  0  0  0  0  0  0  0  0  0  0  0
    5.3084   13.0785   24.0652 C   0  0  0  0  0  0  0  0  0  0  0  0
    5.9966   13.7790   25.2466 C   0  0  0  0  0  0  0  0  0  0  0  0
    5.6277   15.2698   25.2115 C   0  0  0  0  0  0  0  0  0  0  0  0
    4.1158   15.4238   25.4707 C   0  0  0  0  0  0  0  0  0  0  0  0
    3.5392   11.4281   22.8405 O   0  0  0  0  0  0  0  0  0  0  0  0
    3.2692   14.6473   24.4447 C   0  0  0  0  0  0  0  0  0  0  0  0
    3.8421   13.3585   23.9655 N   0  0  0  0  0  0  0  0  0  0  0  0
   -0.7470   10.4076   27.1125 C   0  0  0  0  0  0  0  0  0  0  0  0
   -0.3064    8.3749   28.5045 C   0  0  0  0  0  0  0  0  0  0  0  0
   -0.1927    9.1522   27.2569 N   0  0  0  0  0  0  0  0  0  0  0  0
   -1.4221   10.9073   28.0104 O   0  0  0  0  0  0  0  0  0  0  0  0
    0.5420    8.5077   26.2321 C   0  0  0  0  0  0  0  0  0  0  0  0
    2.6702    7.8867   25.1986 C   0  0  0  0  0  0  0  0  0  0  0  0
    0.5507    7.1561   24.2509 C   0  0  0  0  0  0  0  0  0  0  0  0
    1.9503    8.5211   26.2090 C   0  0  0  0  0  0  0  0  0  0  0  0
   -0.1674    7.8056   25.2391 C   0  0  0  0  0  0  0  0  0  0  0  0
    1.9551    7.1830   24.1953 C   0  0  0  0  0  0  0  0  0  0  0  0
    2.5990    6.4988   23.1270 N   0  0  0  0  0  0  0  0  0  0  0  0
    2.8738    5.0444   23.3096 C   0  0  0  0  0  0  0  0  0  0  0  0
    4.1280    6.5517   21.1789 C   0  0  0  0  0  0  0  0  0  0  0  0
    3.3995    4.4118   22.0042 C   0  0  0  0  0  0  0  0  0  0  0  0
    4.5023    5.2182   21.5647 O   0  0  0  0  0  0  0  0  0  0  0  0
    3.6698    7.2874   22.4493 C   0  0  0  0  0  0  0  0  0  0  0  0
 34 35  1  0  0  0
 34 32  1  0  0  0
  9 10  1  0  0  0
  9  4  1  0  0  0
 10  2  2  0  0  0
 35 33  1  0  0  0
 32 31  1  0  0  0
 18 13  2  0  0  0
  4 13  1  0  0  0
  4  3  2  0  0  0
 33 36  1  0  0  0
  2  7  1  0  0  0
  2  3  1  0  0  0
 13 20  1  0  0  0
 31 36  1  0  0  0
 31 30  1  0  0  0
  7  1  2  0  0  0
  3  6  1  0  0  0
 20 14  1  0  0  0
 20 19  1  0  0  0
 26 30  2  0  0  0
 26 28  1  0  0  0
 14 15  1  0  0  0
 30 27  1  0  0  0
 19 17  1  0  0  0
  1  8  1  0  0  0
  1  5  1  0  0  0
 28 25  2  0  0  0
  6  5  2  0  0  0
 15 16  1  0  0  0
 16 17  1  0  0  0
 27 29  2  0  0  0
  5 21  1  0  0  0
 25 29  1  0  0  0
 25 23  1  0  0  0
 21 23  1  0  0  0
 21 24  2  0  0  0
 23 22  1  0  0  0
  8 11  1  0  0  0
  9 12  1  0  0  0
M  END
> <minimizedAffinity>
-11.61817

$$$$
5LNY_70K_A_301


 36 40  0  0  0  0  0  0  0  0999 V2000
    2.0656    6.9779   25.6865 C   0  0  0  0  0  0  0  0  0  0  0  0
    0.6519    8.6085   26.7691 C   0  0  0  0  0  0  0  0  0  0  0  0
    0.3336    9.1381   25.4813 C   0  0  0  0  0  0  0  0  0  0  0  0
   -0.5991   10.2306   25.7819 C   0  0  0  0  0  0  0  0  0  0  0  0
    1.8194    7.5441   24.4090 C   0  0  0  0  0  0  0  0  0  0  0  0
    0.9140    8.6326   24.3188 C   0  0  0  0  0  0  0  0  0  0  0  0
    1.5219    7.5170   26.8491 C   0  0  0  0  0  0  0  0  0  0  0  0
    2.9055    5.9208   25.7857 O   0  0  0  0  0  0  0  0  0  0  0  0
   -0.7885   10.2349   27.0923 N   0  0  0  0  0  0  0  0  0  0  0  0
   -0.0780    9.3399   27.6882 N   0  0  0  0  0  0  0  0  0  0  0  0
    3.0778    5.5362   26.6227 H   0  0  0  0  0  0  0  0  0  0  0  0
   -1.4006   10.8500   27.5572 H   0  0  0  0  0  0  0  0  0  0  0  0
   -1.2909   11.0500   24.7635 C   0  0  0  0  0  0  0  0  0  0  0  0
   -1.5169   12.6410   22.9103 C   0  0  0  0  0  0  0  0  0  0  0  0
   -0.8013   13.0567   21.6161 C   0  0  0  0  0  0  0  0  0  0  0  0
    0.5351   13.7164   21.9882 C   0  0  0  0  0  0  0  0  0  0  0  0
    1.4540   12.6657   22.6427 C   0  0  0  0  0  0  0  0  0  0  0  0
   -2.5078   10.9276   24.7640 O   0  0  0  0  0  0  0  0  0  0  0  0
    0.8132   12.0322   23.8920 C   0  0  0  0  0  0  0  0  0  0  0  0
   -0.6636   11.8432   23.8450 N   0  0  0  0  0  0  0  0  0  0  0  0
    2.3853    6.8655   23.2035 C   0  0  0  0  0  0  0  0  0  0  0  0
    4.1019    6.6660   21.3931 C   0  0  0  0  0  0  0  0  0  0  0  0
    3.5554    7.2933   22.6103 N   0  0  0  0  0  0  0  0  0  0  0  0
    1.7093    5.9727   22.6958 O   0  0  0  0  0  0  0  0  0  0  0  0
    4.3387    8.3567   23.1213 C   0  0  0  0  0  0  0  0  0  0  0  0
    6.3062    9.1721   24.3244 C   0  0  0  0  0  0  0  0  0  0  0  0
    4.6918   10.7170   23.3591 C   0  0  0  0  0  0  0  0  0  0  0  0
    5.5383    8.1235   23.8220 C   0  0  0  0  0  0  0  0  0  0  0  0
    3.9146    9.6774   22.8803 C   0  0  0  0  0  0  0  0  0  0  0  0
    5.8762   10.5030   24.0854 C   0  0  0  0  0  0  0  0  0  0  0  0
    6.5940   11.6397   24.5512 N   0  0  0  0  0  0  0  0  0  0  0  0
    6.1939   12.9721   24.0136 C   0  0  0  0  0  0  0  0  0  0  0  0
    8.6889   12.6179   25.4400 C   0  0  0  0  0  0  0  0  0  0  0  0
    6.9323   14.1103   24.7485 C   0  0  0  0  0  0  0  0  0  0  0  0
    8.3322   13.7982   24.7006 O   0  0  0  0  0  0  0  0  0  0  0  0
    8.0600   11.4144   24.7182 C   0  0  0  0  0  0  0  0  0  0  0  0
 34 35  1  0  0  0
 34 32  1  0  0  0
  9 10  1  0  0  0
  9  4  1  0  0  0
 10  2  2  0  0  0
 35 33  1  0  0  0
 32 31  1  0  0  0
 18 13  2  0  0  0
  4 13  1  0  0  0
  4  3  2  0  0  0
 33 36  1  0  0  0
  2  7  1  0  0  0
  2  3  1  0  0  0
 13 20  1  0  0  0
 31 36  1  0  0  0
 31 30  1  0  0  0
  7  1  2  0  0  0
  3  6  1  0  0  0
 20 14  1  0  0  0
 20 19  1  0  0  0
 26 30  2  0  0  0
 26 28  1  0  0  0
 14 15  1  0  0  0
 30 27  1  0  0  0
 19 17  1  0  0  0
  1  8  1  0  0  0
  1  5  1  0  0  0
 28 25  2  0  0  0
  6  5  2  0  0  0
 15 16  1  0  0  0
 16 17  1  0  0  0
 27 29  2  0  0  0
  5 21  1  0  0  0
 25 29  1  0  0  0
 25 23  1  0  0  0
 21 23  1  0  0  0
 21 24  2  0  0  0
 23 22  1  0  0  0
  8 11  1  0  0  0
  9 12  1  0  0  0
M  END
> <minimizedAffinity>
-10.35423

$$$$
5LNY_70K_A_301


 36 40  0  0  0  0  0  0  0  0999 V2000
    2.9279   13.5420   24.2388 C   0  0  0  0  0  0  0  0  0  0  0  0
    4.8868   12.1307   24.2058 C   0  0  0  0  0  0  0  0  0  0  0  0
    4.1781   11.2241   23.3595 C   0  0  0  0  0  0  0  0  0  0  0  0
    5.1558   10.1599   23.1039 C   0  0  0  0  0  0  0  0  0  0  0  0
    2.1878   12.6119   23.4639 C   0  0  0  0  0  0  0  0  0  0  0  0
    2.8483   11.4439   23.0032 C   0  0  0  0  0  0  0  0  0  0  0  0
    4.2401   13.2946   24.6324 C   0  0  0  0  0  0  0  0  0  0  0  0
    2.3200   14.6750   24.6624 O   0  0  0  0  0  0  0  0  0  0  0  0
    6.2793   10.5051   23.7136 N   0  0  0  0  0  0  0  0  0  0  0  0
    6.1574   11.6095   24.3667 N   0  0  0  0  0  0  0  0  0  0  0  0
    2.7959   15.2985   25.1750 H   0  0  0  0  0  0  0  0  0  0  0  0
    7.1108    9.9795   23.6728 H   0  0  0  0  0  0  0  0  0  0  0  0
    4.9307    9.0099   22.2017 C   0  0  0  0  0  0  0  0  0  0  0  0
    4.1575    6.7834   21.5226 C   0  0  0  0  0  0  0  0  0  0  0  0
    2.9867    5.8169   21.7570 C   0  0  0  0  0  0  0  0  0  0  0  0
    3.0419    5.3278   23.2121 C   0  0  0  0  0  0  0  0  0  0  0  0
    2.7833    6.5183   24.1569 C   0  0  0  0  0  0  0  0  0  0  0  0
    5.3574    9.1722   21.0671 O   0  0  0  0  0  0  0  0  0  0  0  0
    3.7976    7.6580   23.9452 C   0  0  0  0  0  0  0  0  0  0  0  0
    4.2596    7.8707   22.5451 N   0  0  0  0  0  0  0  0  0  0  0  0
    0.8078   12.9825   23.0254 C   0  0  0  0  0  0  0  0  0  0  0  0
   -1.6740   12.6609   23.0628 C   0  0  0  0  0  0  0  0  0  0  0  0
   -0.3093   12.3409   23.5200 N   0  0  0  0  0  0  0  0  0  0  0  0
    0.7120   13.8136   22.1244 O   0  0  0  0  0  0  0  0  0  0  0  0
   -0.2474   11.3343   24.5141 C   0  0  0  0  0  0  0  0  0  0  0  0
   -0.5766   10.5887   26.8204 C   0  0  0  0  0  0  0  0  0  0  0  0
    0.2205    9.0573   25.1046 C   0  0  0  0  0  0  0  0  0  0  0  0
   -0.6397   11.5812   25.8443 C   0  0  0  0  0  0  0  0  0  0  0  0
    0.1822   10.0472   24.1387 C   0  0  0  0  0  0  0  0  0  0  0  0
   -0.1392    9.2927   26.4430 C   0  0  0  0  0  0  0  0  0  0  0  0
   -0.0467    8.2124   27.3641 N   0  0  0  0  0  0  0  0  0  0  0  0
    0.8966    8.3651   28.5091 C   0  0  0  0  0  0  0  0  0  0  0  0
   -0.2253    5.7851   27.8240 C   0  0  0  0  0  0  0  0  0  0  0  0
    0.7455    7.2010   29.5104 C   0  0  0  0  0  0  0  0  0  0  0  0
    0.8515    5.9852   28.7553 O   0  0  0  0  0  0  0  0  0  0  0  0
   -0.0966    6.8609   26.7326 C   0  0  0  0  0  0  0  0  0  0  0  0
 34 35  1  0  0  0
 34 32  1  0  0  0
  9 10  1  0  0  0
  9  4  1  0  0  0
 10  2  2  0  0  0
 35 33  1  0  0  0
 32 31  1  0  0  0
 18 13  2  0  0  0
  4 13  1  0  0  0
  4  3  2  0  0  0
 33 36  1  0  0  0
  2  7  1  0  0  0
  2  3  1  0  0  0
 13 20  1  0  0  0
 31 36  1  0  0  0
 31 30  1  0  0  0
  7  1  2  0  0  0
  3  6  1  0  0  0
 20 14  1  0  0  0
 20 19  1  0  0  0
 26 30  2  0  0  0
 26 28  1  0  0  0
 14 15  1  0  0  0
 30 27  1  0  0  0
 19 17  1  0  0  0
  1  8  1  0  0  0
  1  5  1  0  0  0
 28 25  2  0  0  0
  6  5  2  0  0  0
 15 16  1  0  0  0
 16 17  1  0  0  0
 27 29  2  0  0  0
  5 21  1  0  0  0
 25 29  1  0  0  0
 25 23  1  0  0  0
 21 23  1  0  0  0
 21 24  2  0  0  0
 23 22  1  0  0  0
  8 11  1  0  0  0
  9 12  1  0  0  0
M  END
> <minimizedAffinity>
-9.83191

$$$$
5LNY_70K_A_301


 36 40  0  0  0  0  0  0  0  0999 V2000
   -0.4077   10.2707   26.6871 C   0  0  0  0  0  0  0  0  0  0  0  0
    0.9077    8.2748   27.0275 C   0  0  0  0  0  0  0  0  0  0  0  0
    0.8061    8.0095   25.6276 C   0  0  0  0  0  0  0  0  0  0  0  0
    1.5714    6.7688   25.4584 C   0  0  0  0  0  0  0  0  0  0  0  0
   -0.5821    9.9768   25.3099 C   0  0  0  0  0  0  0  0  0  0  0  0
    0.0639    8.8304   24.7797 C   0  0  0  0  0  0  0  0  0  0  0  0
    0.2936    9.4219   27.5390 C   0  0  0  0  0  0  0  0  0  0  0  0
   -0.9946   11.3765   27.2023 O   0  0  0  0  0  0  0  0  0  0  0  0
    2.0666    6.4488   26.6439 N   0  0  0  0  0  0  0  0  0  0  0  0
    1.6934    7.2710   27.5636 N   0  0  0  0  0  0  0  0  0  0  0  0
   -0.8884   11.5835   28.1099 H   0  0  0  0  0  0  0  0  0  0  0  0
    2.6516    5.6734   26.8043 H   0  0  0  0  0  0  0  0  0  0  0  0
    1.8388    6.1162   24.1584 C   0  0  0  0  0  0  0  0  0  0  0  0
    2.8236    5.8284   21.9305 C   0  0  0  0  0  0  0  0  0  0  0  0
    4.1387    6.0826   21.1782 C   0  0  0  0  0  0  0  0  0  0  0  0
    4.3386    7.5998   21.0446 C   0  0  0  0  0  0  0  0  0  0  0  0
    4.5460    8.2088   22.4456 C   0  0  0  0  0  0  0  0  0  0  0  0
    1.2523    5.0546   24.0007 O   0  0  0  0  0  0  0  0  0  0  0  0
    3.3633    7.9141   23.3873 C   0  0  0  0  0  0  0  0  0  0  0  0
    2.7013    6.5913   23.2116 N   0  0  0  0  0  0  0  0  0  0  0  0
   -1.2898   10.9727   24.4489 C   0  0  0  0  0  0  0  0  0  0  0  0
   -1.3195   13.0578   23.0648 C   0  0  0  0  0  0  0  0  0  0  0  0
   -0.6279   12.0398   23.8768 N   0  0  0  0  0  0  0  0  0  0  0  0
   -2.5109   10.8631   24.3557 O   0  0  0  0  0  0  0  0  0  0  0  0
    0.7674   12.2444   24.0053 C   0  0  0  0  0  0  0  0  0  0  0  0
    3.0742   11.5195   23.6355 C   0  0  0  0  0  0  0  0  0  0  0  0
    2.5807   13.6423   24.7193 C   0  0  0  0  0  0  0  0  0  0  0  0
    1.7017   11.3156   23.5066 C   0  0  0  0  0  0  0  0  0  0  0  0
    1.2174   13.4311   24.6146 C   0  0  0  0  0  0  0  0  0  0  0  0
    3.5276   12.7134   24.2538 C   0  0  0  0  0  0  0  0  0  0  0  0
    4.9070   13.0156   24.4262 N   0  0  0  0  0  0  0  0  0  0  0  0
    5.2919   14.4550   24.4911 C   0  0  0  0  0  0  0  0  0  0  0  0
    7.2812   12.3868   24.1038 C   0  0  0  0  0  0  0  0  0  0  0  0
    6.7804   14.6142   24.8647 C   0  0  0  0  0  0  0  0  0  0  0  0
    7.5287   13.7952   23.9543 O   0  0  0  0  0  0  0  0  0  0  0  0
    5.8309   12.1246   23.6642 C   0  0  0  0  0  0  0  0  0  0  0  0
 34 35  1  0  0  0
 34 32  1  0  0  0
  9 10  1  0  0  0
  9  4  1  0  0  0
 10  2  2  0  0  0
 35 33  1  0  0  0
 32 31  1  0  0  0
 18 13  2  0  0  0
  4 13  1  0  0  0
  4  3  2  0  0  0
 33 36  1  0  0  0
  2  7  1  0  0  0
  2  3  1  0  0  0
 13 20  1  0  0  0
 31 36  1  0  0  0
 31 30  1  0  0  0
  7  1  2  0  0  0
  3  6  1  0  0  0
 20 14  1  0  0  0
 20 19  1  0  0  0
 26 30  2  0  0  0
 26 28  1  0  0  0
 14 15  1  0  0  0
 30 27  1  0  0  0
 19 17  1  0  0  0
  1  8  1  0  0  0
  1  5  1  0  0  0
 28 25  2  0  0  0
  6  5  2  0  0  0
 15 16  1  0  0  0
 16 17  1  0  0  0
 27 29  2  0  0  0
  5 21  1  0  0  0
 25 29  1  0  0  0
 25 23  1  0  0  0
 21 23  1  0  0  0
 21 24  2  0  0  0
 23 22  1  0  0  0
  8 11  1  0  0  0
  9 12  1  0  0  0
M  END
> <minimizedAffinity>
-9.75280

$$$$
5LNY_70K_A_301


 36 40  0  0  0  0  0  0  0  0999 V2000
    0.8670   13.3736   22.8968 C   0  0  0  0  0  0  0  0  0  0  0  0
   -1.0146   12.0490   23.6281 C   0  0  0  0  0  0  0  0  0  0  0  0
   -0.2819   11.7216   24.8097 C   0  0  0  0  0  0  0  0  0  0  0  0
   -1.2084   10.8661   25.5604 C   0  0  0  0  0  0  0  0  0  0  0  0
    1.6343   12.9925   24.0278 C   0  0  0  0  0  0  0  0  0  0  0  0
    1.0244   12.1669   25.0072 C   0  0  0  0  0  0  0  0  0  0  0  0
   -0.4191   12.8870   22.6804 C   0  0  0  0  0  0  0  0  0  0  0  0
    1.4253   14.1840   21.9670 O   0  0  0  0  0  0  0  0  0  0  0  0
   -2.3319   10.7985   24.8629 N   0  0  0  0  0  0  0  0  0  0  0  0
   -2.2511   11.4420   23.7492 N   0  0  0  0  0  0  0  0  0  0  0  0
    0.9310   14.4441   21.2147 H   0  0  0  0  0  0  0  0  0  0  0  0
   -3.1352   10.3132   25.1604 H   0  0  0  0  0  0  0  0  0  0  0  0
   -0.9470   10.3265   26.9123 C   0  0  0  0  0  0  0  0  0  0  0  0
   -0.1606    8.7275   28.5979 C   0  0  0  0  0  0  0  0  0  0  0  0
    0.9868    7.7352   28.8406 C   0  0  0  0  0  0  0  0  0  0  0  0
    0.8498    6.5774   27.8406 C   0  0  0  0  0  0  0  0  0  0  0  0
    1.0696    7.1133   26.4118 C   0  0  0  0  0  0  0  0  0  0  0  0
   -1.3116   11.0573   27.8227 O   0  0  0  0  0  0  0  0  0  0  0  0
    0.0791    8.2375   26.0550 C   0  0  0  0  0  0  0  0  0  0  0  0
   -0.3061    9.1478   27.1695 N   0  0  0  0  0  0  0  0  0  0  0  0
    2.9805   13.6121   24.2221 C   0  0  0  0  0  0  0  0  0  0  0  0
    5.4654   13.4443   24.4696 C   0  0  0  0  0  0  0  0  0  0  0  0
    4.1347   12.8558   24.2314 N   0  0  0  0  0  0  0  0  0  0  0  0
    3.0106   14.8140   24.4795 O   0  0  0  0  0  0  0  0  0  0  0  0
    4.1467   11.4587   24.0009 C   0  0  0  0  0  0  0  0  0  0  0  0
    3.8245    9.1633   24.7824 C   0  0  0  0  0  0  0  0  0  0  0  0
    4.4558    9.6312   22.4787 C   0  0  0  0  0  0  0  0  0  0  0  0
    3.8106   10.5377   25.0123 C   0  0  0  0  0  0  0  0  0  0  0  0
    4.4668   10.9951   22.7106 C   0  0  0  0  0  0  0  0  0  0  0  0
    4.1515    8.6960   23.4833 C   0  0  0  0  0  0  0  0  0  0  0  0
    4.1864    7.3139   23.1481 N   0  0  0  0  0  0  0  0  0  0  0  0
    5.1370    6.4478   23.9035 C   0  0  0  0  0  0  0  0  0  0  0  0
    3.8785    5.5224   21.4654 C   0  0  0  0  0  0  0  0  0  0  0  0
    4.9242    4.9592   23.5583 C   0  0  0  0  0  0  0  0  0  0  0  0
    4.9649    4.8529   22.1277 O   0  0  0  0  0  0  0  0  0  0  0  0
    4.0641    7.0328   21.6873 C   0  0  0  0  0  0  0  0  0  0  0  0
 34 35  1  0  0  0
 34 32  1  0  0  0
  9 10  1  0  0  0
  9  4  1  0  0  0
 10  2  2  0  0  0
 35 33  1  0  0  0
 32 31  1  0  0  0
 18 13  2  0  0  0
  4 13  1  0  0  0
  4  3  2  0  0  0
 33 36  1  0  0  0
  2  7  1  0  0  0
  2  3  1  0  0  0
 13 20  1  0  0  0
 31 36  1  0  0  0
 31 30  1  0  0  0
  7  1  2  0  0  0
  3  6  1  0  0  0
 20 14  1  0  0  0
 20 19  1  0  0  0
 26 30  2  0  0  0
 26 28  1  0  0  0
 14 15  1  0  0  0
 30 27  1  0  0  0
 19 17  1  0  0  0
  1  8  1  0  0  0
  1  5  1  0  0  0
 28 25  2  0  0  0
  6  5  2  0  0  0
 15 16  1  0  0  0
 16 17  1  0  0  0
 27 29  2  0  0  0
  5 21  1  0  0  0
 25 29  1  0  0  0
 25 23  1  0  0  0
 21 23  1  0  0  0
 21 24  2  0  0  0
 23 22  1  0  0  0
  8 11  1  0  0  0
  9 12  1  0  0  0
M  END
> <minimizedAffinity>
-9.59509

$$$$
5LNY_70K_A_301


 36 40  0  0  0  0  0  0  0  0999 V2000
    5.0613    8.2534   22.1031 C   0  0  0  0  0  0  0  0  0  0  0  0
    3.4483    6.4658   22.2839 C   0  0  0  0  0  0  0  0  0  0  0  0
    3.5648    6.5496   23.7051 C   0  0  0  0  0  0  0  0  0  0  0  0
    2.6292    5.5262   24.1857 C   0  0  0  0  0  0  0  0  0  0  0  0
    5.2445    8.2928   23.5095 C   0  0  0  0  0  0  0  0  0  0  0  0
    4.4554    7.4320   24.3151 C   0  0  0  0  0  0  0  0  0  0  0  0
    4.2069    7.3370   21.4963 C   0  0  0  0  0  0  0  0  0  0  0  0
    5.7867    9.0884   21.3224 O   0  0  0  0  0  0  0  0  0  0  0  0
    2.0445    4.9988   23.1212 N   0  0  0  0  0  0  0  0  0  0  0  0
    2.4999    5.4941   22.0221 N   0  0  0  0  0  0  0  0  0  0  0  0
    5.6766    9.0738   20.3920 H   0  0  0  0  0  0  0  0  0  0  0  0
    1.3437    4.3087   23.1644 H   0  0  0  0  0  0  0  0  0  0  0  0
    2.3190    5.2723   25.6092 C   0  0  0  0  0  0  0  0  0  0  0  0
    1.3814    5.7067   27.8338 C   0  0  0  0  0  0  0  0  0  0  0  0
    0.1412    6.3298   28.4922 C   0  0  0  0  0  0  0  0  0  0  0  0
    0.1585    7.8433   28.2300 C   0  0  0  0  0  0  0  0  0  0  0  0
   -0.0108    8.0977   26.7189 C   0  0  0  0  0  0  0  0  0  0  0  0
    2.7576    4.2136   26.0365 O   0  0  0  0  0  0  0  0  0  0  0  0
    1.0863    7.4064   25.8877 C   0  0  0  0  0  0  0  0  0  0  0  0
    1.5640    6.0917   26.3997 N   0  0  0  0  0  0  0  0  0  0  0  0
    6.1278    9.3511   24.0875 C   0  0  0  0  0  0  0  0  0  0  0  0
    6.5170   11.6777   24.9238 C   0  0  0  0  0  0  0  0  0  0  0  0
    5.6495   10.6075   24.3983 N   0  0  0  0  0  0  0  0  0  0  0  0
    7.3261    9.0911   24.1775 O   0  0  0  0  0  0  0  0  0  0  0  0
    4.2896   10.9757   24.2550 C   0  0  0  0  0  0  0  0  0  0  0  0
    2.5164   12.1769   23.0734 C   0  0  0  0  0  0  0  0  0  0  0  0
    2.0211   10.7889   25.0106 C   0  0  0  0  0  0  0  0  0  0  0  0
    3.8552   11.8157   23.2110 C   0  0  0  0  0  0  0  0  0  0  0  0
    3.3531   10.4482   25.1644 C   0  0  0  0  0  0  0  0  0  0  0  0
    1.5733   11.6489   23.9927 C   0  0  0  0  0  0  0  0  0  0  0  0
    0.1849   11.9528   23.9316 N   0  0  0  0  0  0  0  0  0  0  0  0
   -0.7654   10.9327   24.4616 C   0  0  0  0  0  0  0  0  0  0  0  0
   -1.6893   13.1363   22.8259 C   0  0  0  0  0  0  0  0  0  0  0  0
   -2.2063   11.4832   24.4966 C   0  0  0  0  0  0  0  0  0  0  0  0
   -2.4884   11.9968   23.1865 O   0  0  0  0  0  0  0  0  0  0  0  0
   -0.2362   12.6534   22.6827 C   0  0  0  0  0  0  0  0  0  0  0  0
 34 35  1  0  0  0
 34 32  1  0  0  0
  9 10  1  0  0  0
  9  4  1  0  0  0
 10  2  2  0  0  0
 35 33  1  0  0  0
 32 31  1  0  0  0
 18 13  2  0  0  0
  4 13  1  0  0  0
  4  3  2  0  0  0
 33 36  1  0  0  0
  2  7  1  0  0  0
  2  3  1  0  0  0
 13 20  1  0  0  0
 31 36  1  0  0  0
 31 30  1  0  0  0
  7  1  2  0  0  0
  3  6  1  0  0  0
 20 14  1  0  0  0
 20 19  1  0  0  0
 26 30  2  0  0  0
 26 28  1  0  0  0
 14 15  1  0  0  0
 30 27  1  0  0  0
 19 17  1  0  0  0
  1  8  1  0  0  0
  1  5  1  0  0  0
 28 25  2  0  0  0
  6  5  2  0  0  0
 15 16  1  0  0  0
 16 17  1  0  0  0
 27 29  2  0  0  0
  5 21  1  0  0  0
 25 29  1  0  0  0
 25 23  1  0  0  0
 21 23  1  0  0  0
 21 24  2  0  0  0
 23 22  1  0  0  0
  8 11  1  0  0  0
  9 12  1  0  0  0
M  END
> <minimizedAffinity>
-9.46881

$$$$
5LNY_70K_A_301


 36 40  0  0  0  0  0  0  0  0999 V2000
   -1.3488   10.9294   25.9020 C   0  0  0  0  0  0  0  0  0  0  0  0
    0.2349    9.4478   26.9634 C   0  0  0  0  0  0  0  0  0  0  0  0
    0.9924    9.4444   25.7524 C   0  0  0  0  0  0  0  0  0  0  0  0
    2.1366    8.5810   26.0673 C   0  0  0  0  0  0  0  0  0  0  0  0
   -0.6478   10.8713   24.6697 C   0  0  0  0  0  0  0  0  0  0  0  0
    0.5588   10.1270   24.6167 C   0  0  0  0  0  0  0  0  0  0  0  0
   -0.9380   10.2068   27.0187 C   0  0  0  0  0  0  0  0  0  0  0  0
   -2.4871   11.6584   25.9765 O   0  0  0  0  0  0  0  0  0  0  0  0
    2.0141    8.2143   27.3337 N   0  0  0  0  0  0  0  0  0  0  0  0
    0.9345    8.6715   27.8690 N   0  0  0  0  0  0  0  0  0  0  0  0
   -2.9609   11.7062   26.7835 H   0  0  0  0  0  0  0  0  0  0  0  0
    2.6710    7.6573   27.8107 H   0  0  0  0  0  0  0  0  0  0  0  0
    3.2702    8.3206   25.1540 C   0  0  0  0  0  0  0  0  0  0  0  0
    4.6736    7.0519   23.5928 C   0  0  0  0  0  0  0  0  0  0  0  0
    4.5467    6.0304   22.4525 C   0  0  0  0  0  0  0  0  0  0  0  0
    4.0426    4.7037   23.0403 C   0  0  0  0  0  0  0  0  0  0  0  0
    2.6096    4.8984   23.5747 C   0  0  0  0  0  0  0  0  0  0  0  0
    4.0438    9.2604   25.0348 O   0  0  0  0  0  0  0  0  0  0  0  0
    2.5333    6.0090   24.6391 C   0  0  0  0  0  0  0  0  0  0  0  0
    3.4467    7.1689   24.4408 N   0  0  0  0  0  0  0  0  0  0  0  0
   -1.1149   11.7296   23.5387 C   0  0  0  0  0  0  0  0  0  0  0  0
   -0.7675   13.5843   21.8946 C   0  0  0  0  0  0  0  0  0  0  0  0
   -0.3063   12.6970   22.9780 N   0  0  0  0  0  0  0  0  0  0  0  0
   -2.2895   11.6112   23.1955 O   0  0  0  0  0  0  0  0  0  0  0  0
    1.0342   12.9139   23.3798 C   0  0  0  0  0  0  0  0  0  0  0  0
    2.6966   14.1267   24.7023 C   0  0  0  0  0  0  0  0  0  0  0  0
    3.3415   12.2692   23.2676 C   0  0  0  0  0  0  0  0  0  0  0  0
    1.3764   13.9151   24.3097 C   0  0  0  0  0  0  0  0  0  0  0  0
    2.0349   12.0727   22.8573 C   0  0  0  0  0  0  0  0  0  0  0  0
    3.7057   13.2818   24.1722 C   0  0  0  0  0  0  0  0  0  0  0  0
    5.0798   13.4138   24.5161 N   0  0  0  0  0  0  0  0  0  0  0  0
    5.6195   14.7956   24.6703 C   0  0  0  0  0  0  0  0  0  0  0  0
    7.3856   12.5107   24.4584 C   0  0  0  0  0  0  0  0  0  0  0  0
    7.0600   14.7693   25.2225 C   0  0  0  0  0  0  0  0  0  0  0  0
    7.8123   13.8815   24.3826 O   0  0  0  0  0  0  0  0  0  0  0  0
    5.9788   12.4312   23.8422 C   0  0  0  0  0  0  0  0  0  0  0  0
 34 35  1  0  0  0
 34 32  1  0  0  0
  9 10  1  0  0  0
  9  4  1  0  0  0
 10  2  2  0  0  0
 35 33  1  0  0  0
 32 31  1  0  0  0
 18 13  2  0  0  0
  4 13  1  0  0  0
  4  3  2  0  0  0
 33 36  1  0  0  0
  2  7  1  0  0  0
  2  3  1  0  0  0
 13 20  1  0  0  0
 31 36  1  0  0  0
 31 30  1  0  0  0
  7  1  2  0  0  0
  3  6  1  0  0  0
 20 14  1  0  0  0
 20 19  1  0  0  0
 26 30  2  0  0  0
 26 28  1  0  0  0
 14 15  1  0  0  0
 30 27  1  0  0  0
 19 17  1  0  0  0
  1  8  1  0  0  0
  1  5  1  0  0  0
 28 25  2  0  0  0
  6  5  2  0  0  0
 15 16  1  0  0  0
 16 17  1  0  0  0
 27 29  2  0  0  0
  5 21  1  0  0  0
 25 29  1  0  0  0
 25 23  1  0  0  0
 21 23  1  0  0  0
 21 24  2  0  0  0
 23 22  1  0  0  0
  8 11  1  0  0  0
  9 12  1  0  0  0
M  END
> <minimizedAffinity>
-9.43414

$$$$
5LNY_70K_A_301


 36 40  0  0  0  0  0  0  0  0999 V2000
    6.2642    9.7960   23.0032 C   0  0  0  0  0  0  0  0  0  0  0  0
    5.5062   11.6056   24.4105 C   0  0  0  0  0  0  0  0  0  0  0  0
    4.2367   11.5355   23.7594 C   0  0  0  0  0  0  0  0  0  0  0  0
    3.4497   12.5757   24.4320 C   0  0  0  0  0  0  0  0  0  0  0  0
    5.0346    9.7693   22.2957 C   0  0  0  0  0  0  0  0  0  0  0  0
    4.0011   10.6486   22.7098 C   0  0  0  0  0  0  0  0  0  0  0  0
    6.5112   10.7165   24.0179 C   0  0  0  0  0  0  0  0  0  0  0  0
    7.2507    8.9436   22.6383 O   0  0  0  0  0  0  0  0  0  0  0  0
    4.2170   13.0991   25.3756 N   0  0  0  0  0  0  0  0  0  0  0  0
    5.3994   12.5863   25.3795 N   0  0  0  0  0  0  0  0  0  0  0  0
    8.0682    8.9496   23.0962 H   0  0  0  0  0  0  0  0  0  0  0  0
    3.9191   13.7984   26.0013 H   0  0  0  0  0  0  0  0  0  0  0  0
    2.0198   12.8488   24.1715 C   0  0  0  0  0  0  0  0  0  0  0  0
   -0.3989   12.4405   24.1706 C   0  0  0  0  0  0  0  0  0  0  0  0
   -1.4921   11.8168   25.0513 C   0  0  0  0  0  0  0  0  0  0  0  0
   -1.2600   10.2997   25.1155 C   0  0  0  0  0  0  0  0  0  0  0  0
    0.0654   10.0206   25.8519 C   0  0  0  0  0  0  0  0  0  0  0  0
    1.8067   13.9178   23.6167 O   0  0  0  0  0  0  0  0  0  0  0  0
    1.2634   10.7086   25.1710 C   0  0  0  0  0  0  0  0  0  0  0  0
    0.9901   12.0351   24.5509 N   0  0  0  0  0  0  0  0  0  0  0  0
    4.8231    8.7063   21.2665 C   0  0  0  0  0  0  0  0  0  0  0  0
    3.9731    6.4587   20.5668 C   0  0  0  0  0  0  0  0  0  0  0  0
    4.1486    7.5378   21.5560 N   0  0  0  0  0  0  0  0  0  0  0  0
    5.3675    8.8680   20.1761 O   0  0  0  0  0  0  0  0  0  0  0  0
    3.5562    7.2774   22.8156 C   0  0  0  0  0  0  0  0  0  0  0  0
    3.7415    6.6547   25.1738 C   0  0  0  0  0  0  0  0  0  0  0  0
    1.5866    7.1996   24.1818 C   0  0  0  0  0  0  0  0  0  0  0  0
    4.3276    6.9113   23.9359 C   0  0  0  0  0  0  0  0  0  0  0  0
    2.1628    7.4312   22.9455 C   0  0  0  0  0  0  0  0  0  0  0  0
    2.3366    6.8053   25.3035 C   0  0  0  0  0  0  0  0  0  0  0  0
    1.6467    6.5731   26.5258 N   0  0  0  0  0  0  0  0  0  0  0  0
    0.1629    6.4368   26.4617 C   0  0  0  0  0  0  0  0  0  0  0  0
    1.5244    6.8381   28.9856 C   0  0  0  0  0  0  0  0  0  0  0  0
   -0.4133    6.0056   27.8266 C   0  0  0  0  0  0  0  0  0  0  0  0
    0.1006    6.9219   28.8043 O   0  0  0  0  0  0  0  0  0  0  0  0
    2.1842    7.3379   27.6895 C   0  0  0  0  0  0  0  0  0  0  0  0
 34 35  1  0  0  0
 34 32  1  0  0  0
  9 10  1  0  0  0
  9  4  1  0  0  0
 10  2  2  0  0  0
 35 33  1  0  0  0
 32 31  1  0  0  0
 18 13  2  0  0  0
  4 13  1  0  0  0
  4  3  2  0  0  0
 33 36  1  0  0  0
  2  7  1  0  0  0
  2  3  1  0  0  0
 13 20  1  0  0  0
 31 36  1  0  0  0
 31 30  1  0  0  0
  7  1  2  0  0  0
  3  6  1  0  0  0
 20 14  1  0  0  0
 20 19  1  0  0  0
 26 30  2  0  0  0
 26 28  1  0  0  0
 14 15  1  0  0  0
 30 27  1  0  0  0
 19 17  1  0  0  0
  1  8  1  0  0  0
  1  5  1  0  0  0
 28 25  2  0  0  0
  6  5  2  0  0  0
 15 16  1  0  0  0
 16 17  1  0  0  0
 27 29  2  0  0  0
  5 21  1  0  0  0
 25 29  1  0  0  0
 25 23  1  0  0  0
 21 23  1  0  0  0
 21 24  2  0  0  0
 23 22  1  0  0  0
  8 11  1  0  0  0
  9 12  1  0  0  0
M  END
> <minimizedAffinity>
-9.24382

$$$$
5LNY_70K_A_301


 36 40  0  0  0  0  0  0  0  0999 V2000
    0.2824    8.4601   26.2767 C   0  0  0  0  0  0  0  0  0  0  0  0
    0.4151   10.3279   24.7524 C   0  0  0  0  0  0  0  0  0  0  0  0
    1.8222   10.3806   24.9925 C   0  0  0  0  0  0  0  0  0  0  0  0
    2.2729   11.4880   24.1414 C   0  0  0  0  0  0  0  0  0  0  0  0
    1.6646    8.5525   26.5835 C   0  0  0  0  0  0  0  0  0  0  0  0
    2.4416    9.5239   25.9014 C   0  0  0  0  0  0  0  0  0  0  0  0
   -0.3405    9.3493   25.4053 C   0  0  0  0  0  0  0  0  0  0  0  0
   -0.4672    7.5197   26.8984 O   0  0  0  0  0  0  0  0  0  0  0  0
    1.2136   11.9329   23.4834 N   0  0  0  0  0  0  0  0  0  0  0  0
    0.1364   11.3107   23.8203 N   0  0  0  0  0  0  0  0  0  0  0  0
   -1.3813    7.4466   26.7061 H   0  0  0  0  0  0  0  0  0  0  0  0
    1.2450   12.6549   22.8148 H   0  0  0  0  0  0  0  0  0  0  0  0
    3.6839   11.8960   23.9694 C   0  0  0  0  0  0  0  0  0  0  0  0
    5.6457   13.3639   24.0845 C   0  0  0  0  0  0  0  0  0  0  0  0
    6.2749   14.4256   24.9994 C   0  0  0  0  0  0  0  0  0  0  0  0
    5.3739   15.6697   24.9941 C   0  0  0  0  0  0  0  0  0  0  0  0
    4.0218   15.3188   25.6465 C   0  0  0  0  0  0  0  0  0  0  0  0
    4.3961   11.0377   23.4673 O   0  0  0  0  0  0  0  0  0  0  0  0
    3.3158   14.1538   24.9277 C   0  0  0  0  0  0  0  0  0  0  0  0
    4.2030   13.0933   24.3734 N   0  0  0  0  0  0  0  0  0  0  0  0
    2.2710    7.5181   27.4759 C   0  0  0  0  0  0  0  0  0  0  0  0
    3.3736    5.3015   27.8432 C   0  0  0  0  0  0  0  0  0  0  0  0
    2.8151    6.3534   26.9742 N   0  0  0  0  0  0  0  0  0  0  0  0
    2.1713    7.6979   28.6881 O   0  0  0  0  0  0  0  0  0  0  0  0
    2.8982    6.0717   25.5889 C   0  0  0  0  0  0  0  0  0  0  0  0
    4.0955    6.1721   23.4582 C   0  0  0  0  0  0  0  0  0  0  0  0
    1.9361    5.0633   23.6371 C   0  0  0  0  0  0  0  0  0  0  0  0
    4.0173    6.4500   24.8214 C   0  0  0  0  0  0  0  0  0  0  0  0
    1.8444    5.3592   24.9855 C   0  0  0  0  0  0  0  0  0  0  0  0
    3.0313    5.4581   22.8492 C   0  0  0  0  0  0  0  0  0  0  0  0
    3.0214    5.1213   21.4670 N   0  0  0  0  0  0  0  0  0  0  0  0
    3.0190    3.6724   21.1132 C   0  0  0  0  0  0  0  0  0  0  0  0
    3.6047    5.6995   19.1301 C   0  0  0  0  0  0  0  0  0  0  0  0
    2.8198    3.4729   19.5962 C   0  0  0  0  0  0  0  0  0  0  0  0
    3.7992    4.2883   18.9363 O   0  0  0  0  0  0  0  0  0  0  0  0
    3.8725    6.0021   20.6140 C   0  0  0  0  0  0  0  0  0  0  0  0
 34 35  1  0  0  0
 34 32  1  0  0  0
  9 10  1  0  0  0
  9  4  1  0  0  0
 10  2  2  0  0  0
 35 33  1  0  0  0
 32 31  1  0  0  0
 18 13  2  0  0  0
  4 13  1  0  0  0
  4  3  2  0  0  0
 33 36  1  0  0  0
  2  7  1  0  0  0
  2  3  1  0  0  0
 13 20  1  0  0  0
 31 36  1  0  0  0
 31 30  1  0  0  0
  7  1  2  0  0  0
  3  6  1  0  0  0
 20 14  1  0  0  0
 20 19  1  0  0  0
 26 30  2  0  0  0
 26 28  1  0  0  0
 14 15  1  0  0  0
 30 27  1  0  0  0
 19 17  1  0  0  0
  1  8  1  0  0  0
  1  5  1  0  0  0
 28 25  2  0  0  0
  6  5  2  0  0  0
 15 16  1  0  0  0
 16 17  1  0  0  0
 27 29  2  0  0  0
  5 21  1  0  0  0
 25 29  1  0  0  0
 25 23  1  0  0  0
 21 23  1  0  0  0
 21 24  2  0  0  0
 23 22  1  0  0  0
  8 11  1  0  0  0
  9 12  1  0  0  0
M  END
> <minimizedAffinity>
-9.19554

$$$$
5LNY_70K_A_301


 36 40  0  0  0  0  0  0  0  0999 V2000
    2.4700    7.7942   24.1484 C   0  0  0  0  0  0  0  0  0  0  0  0
    4.2176    8.8050   22.8241 C   0  0  0  0  0  0  0  0  0  0  0  0
    4.4611    9.7130   23.8995 C   0  0  0  0  0  0  0  0  0  0  0  0
    5.5697   10.5383   23.4057 C   0  0  0  0  0  0  0  0  0  0  0  0
    2.6490    8.7399   25.1909 C   0  0  0  0  0  0  0  0  0  0  0  0
    3.6860    9.6990   25.0583 C   0  0  0  0  0  0  0  0  0  0  0  0
    3.2139    7.8431   22.9728 C   0  0  0  0  0  0  0  0  0  0  0  0
    1.5030    6.8549   24.2725 O   0  0  0  0  0  0  0  0  0  0  0  0
    5.9048   10.0714   22.2129 N   0  0  0  0  0  0  0  0  0  0  0  0
    5.1447    9.0993   21.8412 N   0  0  0  0  0  0  0  0  0  0  0  0
    1.3728    6.2237   23.5922 H   0  0  0  0  0  0  0  0  0  0  0  0
    6.6480   10.4255   21.6730 H   0  0  0  0  0  0  0  0  0  0  0  0
    6.2527   11.5875   24.1930 C   0  0  0  0  0  0  0  0  0  0  0  0
    6.5553   13.7660   25.2790 C   0  0  0  0  0  0  0  0  0  0  0  0
    5.7486   14.8288   26.0403 C   0  0  0  0  0  0  0  0  0  0  0  0
    4.7566   15.4796   25.0645 C   0  0  0  0  0  0  0  0  0  0  0  0
    3.7231   14.4273   24.6158 C   0  0  0  0  0  0  0  0  0  0  0  0
    7.3593   11.2660   24.6028 O   0  0  0  0  0  0  0  0  0  0  0  0
    4.3885   13.2059   23.9541 C   0  0  0  0  0  0  0  0  0  0  0  0
    5.7105   12.8011   24.5085 N   0  0  0  0  0  0  0  0  0  0  0  0
    1.8583    8.5777   26.4489 C   0  0  0  0  0  0  0  0  0  0  0  0
   -0.0183    9.2353   27.9687 C   0  0  0  0  0  0  0  0  0  0  0  0
    0.7446    9.3488   26.7122 N   0  0  0  0  0  0  0  0  0  0  0  0
    2.3018    7.7998   27.2914 O   0  0  0  0  0  0  0  0  0  0  0  0
    0.2295   10.3018   25.8003 C   0  0  0  0  0  0  0  0  0  0  0  0
    0.5207   12.2717   24.3796 C   0  0  0  0  0  0  0  0  0  0  0  0
   -1.6072   11.0938   24.4768 C   0  0  0  0  0  0  0  0  0  0  0  0
    1.0310   11.3348   25.2761 C   0  0  0  0  0  0  0  0  0  0  0  0
   -1.1102   10.1768   25.3857 C   0  0  0  0  0  0  0  0  0  0  0  0
   -0.8308   12.1483   23.9654 C   0  0  0  0  0  0  0  0  0  0  0  0
   -1.4411   13.0500   23.0498 N   0  0  0  0  0  0  0  0  0  0  0  0
   -2.8839   13.3664   23.2561 C   0  0  0  0  0  0  0  0  0  0  0  0
   -1.5402   14.0386   20.7808 C   0  0  0  0  0  0  0  0  0  0  0  0
   -3.3458   14.4909   22.3059 C   0  0  0  0  0  0  0  0  0  0  0  0
   -2.9628   14.0994   20.9794 O   0  0  0  0  0  0  0  0  0  0  0  0
   -1.0052   12.8756   21.6330 C   0  0  0  0  0  0  0  0  0  0  0  0
 34 35  1  0  0  0
 34 32  1  0  0  0
  9 10  1  0  0  0
  9  4  1  0  0  0
 10  2  2  0  0  0
 35 33  1  0  0  0
 32 31  1  0  0  0
 18 13  2  0  0  0
  4 13  1  0  0  0
  4  3  2  0  0  0
 33 36  1  0  0  0
  2  7  1  0  0  0
  2  3  1  0  0  0
 13 20  1  0  0  0
 31 36  1  0  0  0
 31 30  1  0  0  0
  7  1  2  0  0  0
  3  6  1  0  0  0
 20 14  1  0  0  0
 20 19  1  0  0  0
 26 30  2  0  0  0
 26 28  1  0  0  0
 14 15  1  0  0  0
 30 27  1  0  0  0
 19 17  1  0  0  0
  1  8  1  0  0  0
  1  5  1  0  0  0
 28 25  2  0  0  0
  6  5  2  0  0  0
 15 16  1  0  0  0
 16 17  1  0  0  0
 27 29  2  0  0  0
  5 21  1  0  0  0
 25 29  1  0  0  0
 25 23  1  0  0  0
 21 23  1  0  0  0
 21 24  2  0  0  0
 23 22  1  0  0  0
  8 11  1  0  0  0
  9 12  1  0  0  0
M  END
> <minimizedAffinity>
-9.06151

$$$$
