2NMZ_ROC_B_401


 55 59  0  0  0  0  0  0  0  0999 V2000
   20.8727   31.6586   15.9890 C   0  0  0  0  0  0  0  0  0  0  0  0
   18.9786   33.2074   16.1139 C   0  0  0  0  0  0  0  0  0  0  0  0
   18.8664   33.2695   14.8697 O   0  0  0  0  0  0  0  0  0  0  0  0
   19.9300   32.4990   16.7324 N   0  0  0  0  0  0  0  0  0  0  0  0
   19.9987   32.5433   17.7135 H   0  0  0  0  0  0  0  0  0  0  0  0
   18.0200   34.0167   16.9748 C   0  0  0  0  0  0  0  0  0  0  0  0
   19.2244   35.9173   18.0550 C   0  0  0  0  0  0  0  0  0  0  0  0
   19.2351   35.1843   19.1354 O   0  0  0  0  0  0  0  0  0  0  0  0
   18.5360   35.4003   17.0303 N   0  0  0  0  0  0  0  0  0  0  0  0
   18.3607   35.9842   16.2573 H   0  0  0  0  0  0  0  0  0  0  0  0
   20.6516   37.4405   16.7590 N   0  0  0  0  0  0  0  0  0  0  0  0
   19.7720   37.2778   17.8291 C   0  0  0  0  0  0  0  0  0  0  0  0
   19.3980   38.3800   18.5881 C   0  0  0  0  0  0  0  0  0  0  0  0
   19.9976   39.6250   18.3838 C   0  0  0  0  0  0  0  0  0  0  0  0
   21.3004   41.0806   16.9474 C   0  0  0  0  0  0  0  0  0  0  0  0
   22.0364   41.2506   15.7989 C   0  0  0  0  0  0  0  0  0  0  0  0
   22.4107   40.1238   15.1113 C   0  0  0  0  0  0  0  0  0  0  0  0
   22.1088   38.8526   15.4731 C   0  0  0  0  0  0  0  0  0  0  0  0
   20.7972   39.8104   17.2528 C   0  0  0  0  0  0  0  0  0  0  0  0
   21.1495   38.6914   16.4928 C   0  0  0  0  0  0  0  0  0  0  0  0
   16.6209   33.8945   16.5281 C   0  0  0  0  0  0  0  0  0  0  0  0
   15.7531   34.6667   17.4660 C   0  0  0  0  0  0  0  0  0  0  0  0
   15.9392   34.7050   18.6931 O   0  0  0  0  0  0  0  0  0  0  0  0
   14.8421   35.2920   16.9539 N   0  0  0  0  0  0  0  0  0  0  0  0
   14.7051   35.2533   15.9798 H   0  0  0  0  0  0  0  0  0  0  0  0
   14.2426   35.8361   17.5141 H   0  0  0  0  0  0  0  0  0  0  0  0
   20.3919   30.2134   16.1165 C   0  0  0  0  0  0  0  0  0  0  0  0
   20.5604   29.7259   17.4404 O   0  0  0  0  0  0  0  0  0  0  0  0
   21.5061   29.6858   17.6522 H   0  0  0  0  0  0  0  0  0  0  0  0
   20.9337   29.2576   15.0652 C   0  0  0  0  0  0  0  0  0  0  0  0
   19.9913   29.0766   13.9919 N   0  0  0  0  0  0  0  0  0  0  0  0
   20.4342   28.1235   12.9690 C   0  0  0  0  0  0  0  0  0  0  0  0
   19.4268   28.0578   11.8413 C   0  0  0  0  0  0  0  0  0  0  0  0
   18.0793   27.5669   12.3823 C   0  0  0  0  0  0  0  0  0  0  0  0
   17.0252   27.6075   11.2748 C   0  0  0  0  0  0  0  0  0  0  0  0
   16.7433   29.0562   10.7872 C   0  0  0  0  0  0  0  0  0  0  0  0
   16.1019   29.7329   12.0043 C   0  0  0  0  0  0  0  0  0  0  0  0
   17.1949   29.8184   13.0318 C   0  0  0  0  0  0  0  0  0  0  0  0
   17.6465   28.4733   13.5585 C   0  0  0  0  0  0  0  0  0  0  0  0
   18.7500   28.5587   14.5894 C   0  0  0  0  0  0  0  0  0  0  0  0
   21.7002   28.5434   12.2094 C   0  0  0  0  0  0  0  0  0  0  0  0
   21.6542   29.6332   11.6722 O   0  0  0  0  0  0  0  0  0  0  0  0
   22.6531   27.5954   12.2350 N   0  0  0  0  0  0  0  0  0  0  0  0
   22.4545   26.7701   12.7337 H   0  0  0  0  0  0  0  0  0  0  0  0
   23.9542   27.6860   11.5874 C   0  0  0  0  0  0  0  0  0  0  0  0
   24.4700   29.0878   11.8621 C   0  0  0  0  0  0  0  0  0  0  0  0
   23.7261   27.0493   10.3368 C   0  0  0  0  0  0  0  0  0  0  0  0
   24.8683   26.5955   12.1900 C   0  0  0  0  0  0  0  0  0  0  0  0
   22.2633   31.9048   16.5458 C   0  0  0  0  0  0  0  0  0  0  0  0
   23.0002   33.0460   15.9500 C   0  0  0  0  0  0  0  0  0  0  0  0
   23.7664   32.8216   14.7919 C   0  0  0  0  0  0  0  0  0  0  0  0
   22.9622   34.3159   16.4985 C   0  0  0  0  0  0  0  0  0  0  0  0
   24.4782   33.8610   14.2612 C   0  0  0  0  0  0  0  0  0  0  0  0
   23.6407   35.3455   15.8934 C   0  0  0  0  0  0  0  0  0  0  0  0
   24.4411   35.1229   14.7975 C   0  0  0  0  0  0  0  0  0  0  0  0
  8  7  2  0  0  0
  7 12  1  0  0  0
 11 12  2  0  0  0
 11 20  1  0  0  0
 12 13  1  0  0  0
 13 14  2  0  0  0
 14 19  1  0  0  0
 19 15  2  0  0  0
 19 20  1  0  0  0
 15 16  1  0  0  0
 16 17  2  0  0  0
 17 18  1  0  0  0
 18 20  2  0  0  0
  9  6  1  0  0  0
  6  2  1  0  0  0
  6 21  1  0  0  0
  2  3  2  0  0  0
 21 22  1  0  0  0
 22 23  2  0  0  0
 22 24  1  0  0  0
 27 28  1  0  0  0
 27  1  1  0  0  0
  1  4  1  0  0  0
  1 49  1  0  0  0
 49 50  1  0  0  0
 50 51  2  0  0  0
 50 52  1  0  0  0
 51 53  1  0  0  0
 52 54  2  0  0  0
 53 55  2  0  0  0
 54 55  1  0  0  0
 31 30  1  0  0  0
 31 32  1  0  0  0
 31 40  1  0  0  0
 32 41  1  0  0  0
 32 33  1  0  0  0
 41 42  2  0  0  0
 33 34  1  0  0  0
 34 35  1  0  0  0
 34 39  1  0  0  0
 35 36  1  0  0  0
 36 37  1  0  0  0
 37 38  1  0  0  0
 38 39  1  0  0  0
 39 40  1  0  0  0
 43 45  1  0  0  0
 45 46  1  0  0  0
 45 47  1  0  0  0
 45 48  1  0  0  0
  7  9  1  0  0  0
  2  4  1  0  0  0
 27 30  1  0  0  0
 41 43  1  0  0  0
  9 10  1  0  0  0
 24 25  1  0  0  0
 24 26  1  0  0  0
 28 29  1  0  0  0
  4  5  1  0  0  0
 43 44  1  0  0  0
M  END
> <minimizedAffinity>
-11.80449

$$$$
2NMZ_ROC_B_401


 55 59  0  0  0  0  0  0  0  0999 V2000
   20.9337   31.6709   15.9022 C   0  0  0  0  0  0  0  0  0  0  0  0
   19.2602   33.4368   16.1899 C   0  0  0  0  0  0  0  0  0  0  0  0
   19.1683   33.6371   14.9586 O   0  0  0  0  0  0  0  0  0  0  0  0
   20.1040   32.5503   16.7301 N   0  0  0  0  0  0  0  0  0  0  0  0
   20.1692   32.4870   17.7104 H   0  0  0  0  0  0  0  0  0  0  0  0
   18.4096   34.2760   17.1317 C   0  0  0  0  0  0  0  0  0  0  0  0
   19.7299   35.7695   18.6336 C   0  0  0  0  0  0  0  0  0  0  0  0
   19.3700   34.9712   19.6019 O   0  0  0  0  0  0  0  0  0  0  0  0
   19.1746   35.5006   17.4460 N   0  0  0  0  0  0  0  0  0  0  0  0
   19.2837   36.1671   16.7297 H   0  0  0  0  0  0  0  0  0  0  0  0
   21.9107   36.8208   19.0531 N   0  0  0  0  0  0  0  0  0  0  0  0
   20.5780   36.9864   18.6763 C   0  0  0  0  0  0  0  0  0  0  0  0
   20.1185   38.2429   18.3010 C   0  0  0  0  0  0  0  0  0  0  0  0
   20.9340   39.3697   18.4293 C   0  0  0  0  0  0  0  0  0  0  0  0
   23.1608   40.2884   18.7072 C   0  0  0  0  0  0  0  0  0  0  0  0
   24.5018   40.0806   18.9260 C   0  0  0  0  0  0  0  0  0  0  0  0
   24.8931   38.8299   19.3329 C   0  0  0  0  0  0  0  0  0  0  0  0
   24.0608   37.7787   19.5334 C   0  0  0  0  0  0  0  0  0  0  0  0
   22.2919   39.1906   18.7072 C   0  0  0  0  0  0  0  0  0  0  0  0
   22.7379   37.9158   19.0671 C   0  0  0  0  0  0  0  0  0  0  0  0
   17.0523   34.5107   16.6075 C   0  0  0  0  0  0  0  0  0  0  0  0
   16.0962   34.5291   17.7540 C   0  0  0  0  0  0  0  0  0  0  0  0
   16.2684   35.2143   18.7751 O   0  0  0  0  0  0  0  0  0  0  0  0
   15.1014   33.8382   17.6273 N   0  0  0  0  0  0  0  0  0  0  0  0
   14.9767   33.2995   16.8128 H   0  0  0  0  0  0  0  0  0  0  0  0
   14.4220   33.8183   18.3395 H   0  0  0  0  0  0  0  0  0  0  0  0
   20.3993   30.2489   16.0721 C   0  0  0  0  0  0  0  0  0  0  0  0
   20.5454   29.7968   17.4111 O   0  0  0  0  0  0  0  0  0  0  0  0
   21.4883   29.7285   17.6282 H   0  0  0  0  0  0  0  0  0  0  0  0
   20.9089   29.2418   15.0531 C   0  0  0  0  0  0  0  0  0  0  0  0
   19.9654   29.0649   13.9802 N   0  0  0  0  0  0  0  0  0  0  0  0
   20.4017   28.1063   12.9595 C   0  0  0  0  0  0  0  0  0  0  0  0
   19.3939   28.0450   11.8319 C   0  0  0  0  0  0  0  0  0  0  0  0
   18.0429   27.5649   12.3739 C   0  0  0  0  0  0  0  0  0  0  0  0
   16.9892   27.6103   11.2661 C   0  0  0  0  0  0  0  0  0  0  0  0
   16.7177   29.0599   10.7750 C   0  0  0  0  0  0  0  0  0  0  0  0
   16.0810   29.7439   11.9904 C   0  0  0  0  0  0  0  0  0  0  0  0
   17.1743   29.8241   13.0179 C   0  0  0  0  0  0  0  0  0  0  0  0
   17.6164   28.4771   13.5478 C   0  0  0  0  0  0  0  0  0  0  0  0
   18.7204   28.5571   14.5787 C   0  0  0  0  0  0  0  0  0  0  0  0
   21.6706   28.5154   12.1991 C   0  0  0  0  0  0  0  0  0  0  0  0
   21.6892   29.6576   11.7829 O   0  0  0  0  0  0  0  0  0  0  0  0
   22.5504   27.5051   12.0862 N   0  0  0  0  0  0  0  0  0  0  0  0
   22.3066   26.6467   12.5020 H   0  0  0  0  0  0  0  0  0  0  0  0
   23.8334   27.5731   11.4008 C   0  0  0  0  0  0  0  0  0  0  0  0
   24.1603   29.0490   11.2544 C   0  0  0  0  0  0  0  0  0  0  0  0
   23.6992   26.5850   10.3873 C   0  0  0  0  0  0  0  0  0  0  0  0
   24.8771   26.8227   12.2583 C   0  0  0  0  0  0  0  0  0  0  0  0
   22.3797   31.8489   16.3287 C   0  0  0  0  0  0  0  0  0  0  0  0
   23.0318   33.1026   15.8778 C   0  0  0  0  0  0  0  0  0  0  0  0
   23.7934   33.0776   14.6954 C   0  0  0  0  0  0  0  0  0  0  0  0
   22.9198   34.2876   16.5835 C   0  0  0  0  0  0  0  0  0  0  0  0
   24.4280   34.2207   14.2963 C   0  0  0  0  0  0  0  0  0  0  0  0
   23.5208   35.4282   16.1096 C   0  0  0  0  0  0  0  0  0  0  0  0
   24.3173   35.3994   14.9888 C   0  0  0  0  0  0  0  0  0  0  0  0
  8  7  2  0  0  0
  7 12  1  0  0  0
 11 12  2  0  0  0
 11 20  1  0  0  0
 12 13  1  0  0  0
 13 14  2  0  0  0
 14 19  1  0  0  0
 19 15  2  0  0  0
 19 20  1  0  0  0
 15 16  1  0  0  0
 16 17  2  0  0  0
 17 18  1  0  0  0
 18 20  2  0  0  0
  9  6  1  0  0  0
  6  2  1  0  0  0
  6 21  1  0  0  0
  2  3  2  0  0  0
 21 22  1  0  0  0
 22 23  2  0  0  0
 22 24  1  0  0  0
 27 28  1  0  0  0
 27  1  1  0  0  0
  1  4  1  0  0  0
  1 49  1  0  0  0
 49 50  1  0  0  0
 50 51  2  0  0  0
 50 52  1  0  0  0
 51 53  1  0  0  0
 52 54  2  0  0  0
 53 55  2  0  0  0
 54 55  1  0  0  0
 31 30  1  0  0  0
 31 32  1  0  0  0
 31 40  1  0  0  0
 32 41  1  0  0  0
 32 33  1  0  0  0
 41 42  2  0  0  0
 33 34  1  0  0  0
 34 35  1  0  0  0
 34 39  1  0  0  0
 35 36  1  0  0  0
 36 37  1  0  0  0
 37 38  1  0  0  0
 38 39  1  0  0  0
 39 40  1  0  0  0
 43 45  1  0  0  0
 45 46  1  0  0  0
 45 47  1  0  0  0
 45 48  1  0  0  0
  7  9  1  0  0  0
  2  4  1  0  0  0
 27 30  1  0  0  0
 41 43  1  0  0  0
  9 10  1  0  0  0
 24 25  1  0  0  0
 24 26  1  0  0  0
 28 29  1  0  0  0
  4  5  1  0  0  0
 43 44  1  0  0  0
M  END
> <minimizedAffinity>
-11.48116

$$$$
2NMZ_ROC_B_401


 55 59  0  0  0  0  0  0  0  0999 V2000
   20.4185   33.0848   15.6676 C   0  0  0  0  0  0  0  0  0  0  0  0
   22.0543   34.2068   17.1052 C   0  0  0  0  0  0  0  0  0  0  0  0
   22.3175   33.1568   17.7320 O   0  0  0  0  0  0  0  0  0  0  0  0
   21.1349   34.2742   16.1358 N   0  0  0  0  0  0  0  0  0  0  0  0
   20.9343   35.1465   15.7258 H   0  0  0  0  0  0  0  0  0  0  0  0
   22.7753   35.4891   17.4935 C   0  0  0  0  0  0  0  0  0  0  0  0
   22.0501   37.7475   16.7168 C   0  0  0  0  0  0  0  0  0  0  0  0
   23.2984   37.9405   16.3866 O   0  0  0  0  0  0  0  0  0  0  0  0
   21.8083   36.5984   17.3588 N   0  0  0  0  0  0  0  0  0  0  0  0
   20.9218   36.4838   17.7713 H   0  0  0  0  0  0  0  0  0  0  0  0
   19.7079   38.2835   17.2306 N   0  0  0  0  0  0  0  0  0  0  0  0
   20.8837   38.6544   16.5785 C   0  0  0  0  0  0  0  0  0  0  0  0
   20.9406   39.8617   15.8927 C   0  0  0  0  0  0  0  0  0  0  0  0
   19.7956   40.6446   15.7282 C   0  0  0  0  0  0  0  0  0  0  0  0
   17.5329   41.1690   16.4245 C   0  0  0  0  0  0  0  0  0  0  0  0
   16.4394   40.8665   17.2006 C   0  0  0  0  0  0  0  0  0  0  0  0
   16.4203   39.6437   17.8229 C   0  0  0  0  0  0  0  0  0  0  0  0
   17.3983   38.7089   17.7363 C   0  0  0  0  0  0  0  0  0  0  0  0
   18.6503   40.3265   16.4633 C   0  0  0  0  0  0  0  0  0  0  0  0
   18.6184   39.1150   17.1597 C   0  0  0  0  0  0  0  0  0  0  0  0
   23.4276   35.3923   18.8116 C   0  0  0  0  0  0  0  0  0  0  0  0
   22.4930   35.9278   19.8452 C   0  0  0  0  0  0  0  0  0  0  0  0
   22.4181   37.1319   20.1393 O   0  0  0  0  0  0  0  0  0  0  0  0
   21.7723   35.1082   20.3856 N   0  0  0  0  0  0  0  0  0  0  0  0
   21.8415   34.1564   20.1435 H   0  0  0  0  0  0  0  0  0  0  0  0
   21.1207   35.3974   21.0645 H   0  0  0  0  0  0  0  0  0  0  0  0
   21.3594   32.3259   14.7320 C   0  0  0  0  0  0  0  0  0  0  0  0
   21.1626   32.7077   13.3777 O   0  0  0  0  0  0  0  0  0  0  0  0
   20.2737   32.4435   13.0932 H   0  0  0  0  0  0  0  0  0  0  0  0
   21.3784   30.8171   14.9203 C   0  0  0  0  0  0  0  0  0  0  0  0
   20.3211   30.1866   14.1737 N   0  0  0  0  0  0  0  0  0  0  0  0
   20.7081   28.9125   13.5591 C   0  0  0  0  0  0  0  0  0  0  0  0
   19.5688   28.3631   12.7278 C   0  0  0  0  0  0  0  0  0  0  0  0
   18.3567   28.0966   13.6273 C   0  0  0  0  0  0  0  0  0  0  0  0
   17.1643   27.6511   12.7793 C   0  0  0  0  0  0  0  0  0  0  0  0
   16.6882   28.7660   11.8064 C   0  0  0  0  0  0  0  0  0  0  0  0
   16.1567   29.8613   12.7382 C   0  0  0  0  0  0  0  0  0  0  0  0
   17.3651   30.3903   13.4576 C   0  0  0  0  0  0  0  0  0  0  0  0
   18.0044   29.3910   14.3973 C   0  0  0  0  0  0  0  0  0  0  0  0
   19.2238   29.9216   15.1180 C   0  0  0  0  0  0  0  0  0  0  0  0
   21.8170   29.0226   12.5036 C   0  0  0  0  0  0  0  0  0  0  0  0
   21.7896   30.0239   11.8144 O   0  0  0  0  0  0  0  0  0  0  0  0
   22.6262   27.9491   12.4942 N   0  0  0  0  0  0  0  0  0  0  0  0
   22.4415   27.2398   13.1516 H   0  0  0  0  0  0  0  0  0  0  0  0
   23.7528   27.7466   11.5941 C   0  0  0  0  0  0  0  0  0  0  0  0
   24.2348   29.1310   11.1970 C   0  0  0  0  0  0  0  0  0  0  0  0
   23.3008   26.6871   10.7607 C   0  0  0  0  0  0  0  0  0  0  0  0
   24.8344   26.9428   12.3506 C   0  0  0  0  0  0  0  0  0  0  0  0
   19.1249   33.5400   15.0165 C   0  0  0  0  0  0  0  0  0  0  0  0
   18.0488   33.9555   15.9491 C   0  0  0  0  0  0  0  0  0  0  0  0
   16.7198   33.6158   15.6376 C   0  0  0  0  0  0  0  0  0  0  0  0
   18.3098   34.6678   17.1063 C   0  0  0  0  0  0  0  0  0  0  0  0
   15.7208   34.0297   16.4738 C   0  0  0  0  0  0  0  0  0  0  0  0
   17.2809   35.0058   17.9512 C   0  0  0  0  0  0  0  0  0  0  0  0
   15.9733   34.7321   17.6245 C   0  0  0  0  0  0  0  0  0  0  0  0
  8  7  2  0  0  0
  7 12  1  0  0  0
 11 12  2  0  0  0
 11 20  1  0  0  0
 12 13  1  0  0  0
 13 14  2  0  0  0
 14 19  1  0  0  0
 19 15  2  0  0  0
 19 20  1  0  0  0
 15 16  1  0  0  0
 16 17  2  0  0  0
 17 18  1  0  0  0
 18 20  2  0  0  0
  9  6  1  0  0  0
  6  2  1  0  0  0
  6 21  1  0  0  0
  2  3  2  0  0  0
 21 22  1  0  0  0
 22 23  2  0  0  0
 22 24  1  0  0  0
 27 28  1  0  0  0
 27  1  1  0  0  0
  1  4  1  0  0  0
  1 49  1  0  0  0
 49 50  1  0  0  0
 50 51  2  0  0  0
 50 52  1  0  0  0
 51 53  1  0  0  0
 52 54  2  0  0  0
 53 55  2  0  0  0
 54 55  1  0  0  0
 31 30  1  0  0  0
 31 32  1  0  0  0
 31 40  1  0  0  0
 32 41  1  0  0  0
 32 33  1  0  0  0
 41 42  2  0  0  0
 33 34  1  0  0  0
 34 35  1  0  0  0
 34 39  1  0  0  0
 35 36  1  0  0  0
 36 37  1  0  0  0
 37 38  1  0  0  0
 38 39  1  0  0  0
 39 40  1  0  0  0
 43 45  1  0  0  0
 45 46  1  0  0  0
 45 47  1  0  0  0
 45 48  1  0  0  0
  7  9  1  0  0  0
  2  4  1  0  0  0
 27 30  1  0  0  0
 41 43  1  0  0  0
  9 10  1  0  0  0
 24 25  1  0  0  0
 24 26  1  0  0  0
 28 29  1  0  0  0
  4  5  1  0  0  0
 43 44  1  0  0  0
M  END
> <minimizedAffinity>
-10.73352

$$$$
2NMZ_ROC_B_401


 55 59  0  0  0  0  0  0  0  0999 V2000
   19.4992   30.0083   14.6512 C   0  0  0  0  0  0  0  0  0  0  0  0
   21.2693   28.6711   13.6119 C   0  0  0  0  0  0  0  0  0  0  0  0
   21.5534   28.0972   14.6864 O   0  0  0  0  0  0  0  0  0  0  0  0
   20.3347   29.6228   13.5107 N   0  0  0  0  0  0  0  0  0  0  0  0
   20.2046   30.0765   12.6467 H   0  0  0  0  0  0  0  0  0  0  0  0
   22.0573   28.3109   12.3611 C   0  0  0  0  0  0  0  0  0  0  0  0
   20.9494   26.3823   11.2287 C   0  0  0  0  0  0  0  0  0  0  0  0
   21.8492   25.6352   11.8089 O   0  0  0  0  0  0  0  0  0  0  0  0
   21.1123   27.6990   11.4039 N   0  0  0  0  0  0  0  0  0  0  0  0
   20.5626   28.3040   10.8552 H   0  0  0  0  0  0  0  0  0  0  0  0
   18.9238   25.0584   10.8029 N   0  0  0  0  0  0  0  0  0  0  0  0
   19.8390   25.9955   10.3235 C   0  0  0  0  0  0  0  0  0  0  0  0
   19.6481   26.5682    9.0719 C   0  0  0  0  0  0  0  0  0  0  0  0
   18.6310   26.1171    8.2274 C   0  0  0  0  0  0  0  0  0  0  0  0
   16.5528   24.8959    7.9642 C   0  0  0  0  0  0  0  0  0  0  0  0
   15.5795   24.0953    8.5130 C   0  0  0  0  0  0  0  0  0  0  0  0
   15.8392   23.5251    9.7337 C   0  0  0  0  0  0  0  0  0  0  0  0
   16.9808   23.6916   10.4456 C   0  0  0  0  0  0  0  0  0  0  0  0
   17.6581   25.2568    8.7438 C   0  0  0  0  0  0  0  0  0  0  0  0
   17.8604   24.7035   10.0113 C   0  0  0  0  0  0  0  0  0  0  0  0
   22.8253   29.4515   11.8306 C   0  0  0  0  0  0  0  0  0  0  0  0
   24.1196   28.9423   11.2882 C   0  0  0  0  0  0  0  0  0  0  0  0
   24.9842   28.3922   11.9895 O   0  0  0  0  0  0  0  0  0  0  0  0
   24.2825   29.0763   10.0888 N   0  0  0  0  0  0  0  0  0  0  0  0
   23.5894   29.5143    9.5439 H   0  0  0  0  0  0  0  0  0  0  0  0
   25.1072   28.7466    9.6642 H   0  0  0  0  0  0  0  0  0  0  0  0
   20.4062   30.0670   15.8801 C   0  0  0  0  0  0  0  0  0  0  0  0
   20.4097   28.8312   16.5813 O   0  0  0  0  0  0  0  0  0  0  0  0
   19.5251   28.6613   16.9413 H   0  0  0  0  0  0  0  0  0  0  0  0
   20.1781   31.2605   16.7944 C   0  0  0  0  0  0  0  0  0  0  0  0
   20.9946   32.3795   16.4021 N   0  0  0  0  0  0  0  0  0  0  0  0
   20.4595   33.6791   16.8212 C   0  0  0  0  0  0  0  0  0  0  0  0
   21.3316   34.7996   16.2970 C   0  0  0  0  0  0  0  0  0  0  0  0
   22.7437   34.6685   16.8785 C   0  0  0  0  0  0  0  0  0  0  0  0
   23.6619   35.7270   16.2654 C   0  0  0  0  0  0  0  0  0  0  0  0
   23.8512   35.5234   14.7361 C   0  0  0  0  0  0  0  0  0  0  0  0
   24.6124   34.1963   14.6359 C   0  0  0  0  0  0  0  0  0  0  0  0
   23.6434   33.1475   15.1036 C   0  0  0  0  0  0  0  0  0  0  0  0
   23.2875   33.2537   16.5708 C   0  0  0  0  0  0  0  0  0  0  0  0
   22.3084   32.2010   17.0409 C   0  0  0  0  0  0  0  0  0  0  0  0
   19.1049   34.0436   16.1983 C   0  0  0  0  0  0  0  0  0  0  0  0
   19.0547   33.9978   14.9843 O   0  0  0  0  0  0  0  0  0  0  0  0
   18.1935   34.3978   17.1210 N   0  0  0  0  0  0  0  0  0  0  0  0
   18.4734   34.3705   18.0645 H   0  0  0  0  0  0  0  0  0  0  0  0
   16.8274   34.8184   16.8429 C   0  0  0  0  0  0  0  0  0  0  0  0
   16.4076   34.0924   15.5768 C   0  0  0  0  0  0  0  0  0  0  0  0
   16.8734   36.2170   17.0949 C   0  0  0  0  0  0  0  0  0  0  0  0
   15.9503   34.4372   18.0568 C   0  0  0  0  0  0  0  0  0  0  0  0
   18.3627   29.0080   14.7619 C   0  0  0  0  0  0  0  0  0  0  0  0
   17.4701   28.9178   13.5807 C   0  0  0  0  0  0  0  0  0  0  0  0
   17.4449   27.7184   12.8461 C   0  0  0  0  0  0  0  0  0  0  0  0
   16.6705   29.9728   13.1778 C   0  0  0  0  0  0  0  0  0  0  0  0
   16.6530   27.6433   11.7343 C   0  0  0  0  0  0  0  0  0  0  0  0
   15.8408   29.8300   12.0925 C   0  0  0  0  0  0  0  0  0  0  0  0
   15.8549   28.6839   11.3325 C   0  0  0  0  0  0  0  0  0  0  0  0
  8  7  2  0  0  0
  7 12  1  0  0  0
 11 12  2  0  0  0
 11 20  1  0  0  0
 12 13  1  0  0  0
 13 14  2  0  0  0
 14 19  1  0  0  0
 19 15  2  0  0  0
 19 20  1  0  0  0
 15 16  1  0  0  0
 16 17  2  0  0  0
 17 18  1  0  0  0
 18 20  2  0  0  0
  9  6  1  0  0  0
  6  2  1  0  0  0
  6 21  1  0  0  0
  2  3  2  0  0  0
 21 22  1  0  0  0
 22 23  2  0  0  0
 22 24  1  0  0  0
 27 28  1  0  0  0
 27  1  1  0  0  0
  1  4  1  0  0  0
  1 49  1  0  0  0
 49 50  1  0  0  0
 50 51  2  0  0  0
 50 52  1  0  0  0
 51 53  1  0  0  0
 52 54  2  0  0  0
 53 55  2  0  0  0
 54 55  1  0  0  0
 31 30  1  0  0  0
 31 32  1  0  0  0
 31 40  1  0  0  0
 32 41  1  0  0  0
 32 33  1  0  0  0
 41 42  2  0  0  0
 33 34  1  0  0  0
 34 35  1  0  0  0
 34 39  1  0  0  0
 35 36  1  0  0  0
 36 37  1  0  0  0
 37 38  1  0  0  0
 38 39  1  0  0  0
 39 40  1  0  0  0
 43 45  1  0  0  0
 45 46  1  0  0  0
 45 47  1  0  0  0
 45 48  1  0  0  0
  7  9  1  0  0  0
  2  4  1  0  0  0
 27 30  1  0  0  0
 41 43  1  0  0  0
  9 10  1  0  0  0
 24 25  1  0  0  0
 24 26  1  0  0  0
 28 29  1  0  0  0
  4  5  1  0  0  0
 43 44  1  0  0  0
M  END
> <minimizedAffinity>
-10.47169

$$$$
2NMZ_ROC_B_401


 55 59  0  0  0  0  0  0  0  0999 V2000
   22.0318   35.0620   17.5398 C   0  0  0  0  0  0  0  0  0  0  0  0
   22.6941   33.1261   16.1924 C   0  0  0  0  0  0  0  0  0  0  0  0
   22.8295   32.3937   17.1974 O   0  0  0  0  0  0  0  0  0  0  0  0
   22.3579   34.4189   16.2640 N   0  0  0  0  0  0  0  0  0  0  0  0
   22.3287   34.9527   15.4373 H   0  0  0  0  0  0  0  0  0  0  0  0
   22.9739   32.5380   14.8173 C   0  0  0  0  0  0  0  0  0  0  0  0
   21.2946   30.7754   14.2672 C   0  0  0  0  0  0  0  0  0  0  0  0
   22.2236   29.9133   14.5808 O   0  0  0  0  0  0  0  0  0  0  0  0
   21.6879   32.0546   14.2730 N   0  0  0  0  0  0  0  0  0  0  0  0
   21.0761   32.7220   13.8865 H   0  0  0  0  0  0  0  0  0  0  0  0
   19.7171   29.6057   12.7907 N   0  0  0  0  0  0  0  0  0  0  0  0
   19.9031   30.5418   13.8078 C   0  0  0  0  0  0  0  0  0  0  0  0
   18.8011   31.1602   14.3858 C   0  0  0  0  0  0  0  0  0  0  0  0
   17.5184   30.9634   13.8688 C   0  0  0  0  0  0  0  0  0  0  0  0
   16.0275   29.6413   12.4873 C   0  0  0  0  0  0  0  0  0  0  0  0
   15.8519   28.6061   11.6001 C   0  0  0  0  0  0  0  0  0  0  0  0
   16.9745   28.0597   11.0307 C   0  0  0  0  0  0  0  0  0  0  0  0
   18.2468   28.4580   11.2767 C   0  0  0  0  0  0  0  0  0  0  0  0
   17.3208   29.9538   12.9228 C   0  0  0  0  0  0  0  0  0  0  0  0
   18.4414   29.3323   12.3648 C   0  0  0  0  0  0  0  0  0  0  0  0
   23.7050   33.4722   13.9427 C   0  0  0  0  0  0  0  0  0  0  0  0
   24.9681   33.8761   14.6286 C   0  0  0  0  0  0  0  0  0  0  0  0
   25.2003   35.0372   15.0025 O   0  0  0  0  0  0  0  0  0  0  0  0
   25.7725   32.9841   14.8289 N   0  0  0  0  0  0  0  0  0  0  0  0
   25.5765   32.0676   14.5275 H   0  0  0  0  0  0  0  0  0  0  0  0
   26.6189   33.1794   15.2923 H   0  0  0  0  0  0  0  0  0  0  0  0
   20.5079   35.1124   17.6473 C   0  0  0  0  0  0  0  0  0  0  0  0
   19.9101   35.4242   16.3966 O   0  0  0  0  0  0  0  0  0  0  0  0
   20.1638   36.3222   16.1319 H   0  0  0  0  0  0  0  0  0  0  0  0
   19.9689   35.9653   18.7850 C   0  0  0  0  0  0  0  0  0  0  0  0
   19.2883   37.1307   18.2837 N   0  0  0  0  0  0  0  0  0  0  0  0
   17.8872   37.2262   18.7064 C   0  0  0  0  0  0  0  0  0  0  0  0
   17.2273   38.4299   18.0688 C   0  0  0  0  0  0  0  0  0  0  0  0
   17.9388   39.7089   18.5241 C   0  0  0  0  0  0  0  0  0  0  0  0
   17.3538   40.9201   17.7959 C   0  0  0  0  0  0  0  0  0  0  0  0
   17.6059   40.8600   16.2633 C   0  0  0  0  0  0  0  0  0  0  0  0
   19.1286   40.9883   16.1384 C   0  0  0  0  0  0  0  0  0  0  0  0
   19.6824   39.7213   16.7262 C   0  0  0  0  0  0  0  0  0  0  0  0
   19.4492   39.5843   18.2152 C   0  0  0  0  0  0  0  0  0  0  0  0
   20.0024   38.3066   18.8065 C   0  0  0  0  0  0  0  0  0  0  0  0
   16.9871   36.0921   18.1970 C   0  0  0  0  0  0  0  0  0  0  0  0
   16.3862   35.4724   19.0534 O   0  0  0  0  0  0  0  0  0  0  0  0
   17.0478   35.9480   16.8617 N   0  0  0  0  0  0  0  0  0  0  0  0
   17.6268   36.5720   16.3670 H   0  0  0  0  0  0  0  0  0  0  0  0
   16.3295   34.9472   16.0852 C   0  0  0  0  0  0  0  0  0  0  0  0
   16.9989   33.6167   16.3823 C   0  0  0  0  0  0  0  0  0  0  0  0
   16.1490   35.5941   14.8321 C   0  0  0  0  0  0  0  0  0  0  0  0
   14.8480   34.9702   16.5241 C   0  0  0  0  0  0  0  0  0  0  0  0
   22.7044   36.4226   17.5667 C   0  0  0  0  0  0  0  0  0  0  0  0
   23.5585   36.6928   18.7490 C   0  0  0  0  0  0  0  0  0  0  0  0
   24.1436   37.9652   18.8800 C   0  0  0  0  0  0  0  0  0  0  0  0
   23.8008   35.7355   19.7184 C   0  0  0  0  0  0  0  0  0  0  0  0
   24.9625   38.2070   19.9476 C   0  0  0  0  0  0  0  0  0  0  0  0
   24.5773   36.0438   20.8086 C   0  0  0  0  0  0  0  0  0  0  0  0
   25.2030   37.2639   20.9141 C   0  0  0  0  0  0  0  0  0  0  0  0
  8  7  2  0  0  0
  7 12  1  0  0  0
 11 12  2  0  0  0
 11 20  1  0  0  0
 12 13  1  0  0  0
 13 14  2  0  0  0
 14 19  1  0  0  0
 19 15  2  0  0  0
 19 20  1  0  0  0
 15 16  1  0  0  0
 16 17  2  0  0  0
 17 18  1  0  0  0
 18 20  2  0  0  0
  9  6  1  0  0  0
  6  2  1  0  0  0
  6 21  1  0  0  0
  2  3  2  0  0  0
 21 22  1  0  0  0
 22 23  2  0  0  0
 22 24  1  0  0  0
 27 28  1  0  0  0
 27  1  1  0  0  0
  1  4  1  0  0  0
  1 49  1  0  0  0
 49 50  1  0  0  0
 50 51  2  0  0  0
 50 52  1  0  0  0
 51 53  1  0  0  0
 52 54  2  0  0  0
 53 55  2  0  0  0
 54 55  1  0  0  0
 31 30  1  0  0  0
 31 32  1  0  0  0
 31 40  1  0  0  0
 32 41  1  0  0  0
 32 33  1  0  0  0
 41 42  2  0  0  0
 33 34  1  0  0  0
 34 35  1  0  0  0
 34 39  1  0  0  0
 35 36  1  0  0  0
 36 37  1  0  0  0
 37 38  1  0  0  0
 38 39  1  0  0  0
 39 40  1  0  0  0
 43 45  1  0  0  0
 45 46  1  0  0  0
 45 47  1  0  0  0
 45 48  1  0  0  0
  7  9  1  0  0  0
  2  4  1  0  0  0
 27 30  1  0  0  0
 41 43  1  0  0  0
  9 10  1  0  0  0
 24 25  1  0  0  0
 24 26  1  0  0  0
 28 29  1  0  0  0
  4  5  1  0  0  0
 43 44  1  0  0  0
M  END
> <minimizedAffinity>
-10.17773

$$$$
2NMZ_ROC_B_401


 55 59  0  0  0  0  0  0  0  0999 V2000
   20.4164   35.3105   17.8871 C   0  0  0  0  0  0  0  0  0  0  0  0
   21.2423   33.4533   16.5195 C   0  0  0  0  0  0  0  0  0  0  0  0
   20.7748   33.9387   15.4657 O   0  0  0  0  0  0  0  0  0  0  0  0
   21.0842   34.0165   17.7225 N   0  0  0  0  0  0  0  0  0  0  0  0
   21.4257   33.5491   18.5188 H   0  0  0  0  0  0  0  0  0  0  0  0
   21.9865   32.1282   16.4456 C   0  0  0  0  0  0  0  0  0  0  0  0
   20.4030   30.2846   15.8773 C   0  0  0  0  0  0  0  0  0  0  0  0
   20.4283   29.9867   17.1481 O   0  0  0  0  0  0  0  0  0  0  0  0
   21.2461   31.2568   15.5096 N   0  0  0  0  0  0  0  0  0  0  0  0
   21.3830   31.4019   14.5455 H   0  0  0  0  0  0  0  0  0  0  0  0
   18.4049   30.1645   14.4524 N   0  0  0  0  0  0  0  0  0  0  0  0
   19.6575   29.6387   14.7687 C   0  0  0  0  0  0  0  0  0  0  0  0
   20.1789   28.5963   14.0121 C   0  0  0  0  0  0  0  0  0  0  0  0
   19.4086   27.9731   13.0275 C   0  0  0  0  0  0  0  0  0  0  0  0
   17.4735   28.0388   11.5678 C   0  0  0  0  0  0  0  0  0  0  0  0
   16.3181   28.6691   11.1713 C   0  0  0  0  0  0  0  0  0  0  0  0
   15.8284   29.6651   11.9782 C   0  0  0  0  0  0  0  0  0  0  0  0
   16.3967   30.0809   13.1367 C   0  0  0  0  0  0  0  0  0  0  0  0
   18.2008   28.5621   12.6435 C   0  0  0  0  0  0  0  0  0  0  0  0
   17.7007   29.6202   13.4077 C   0  0  0  0  0  0  0  0  0  0  0  0
   23.4162   32.3012   16.1320 C   0  0  0  0  0  0  0  0  0  0  0  0
   23.5670   32.4231   14.6517 C   0  0  0  0  0  0  0  0  0  0  0  0
   23.5141   31.4531   13.8783 O   0  0  0  0  0  0  0  0  0  0  0  0
   23.7270   33.5525   14.2252 N   0  0  0  0  0  0  0  0  0  0  0  0
   23.7672   34.3131   14.8489 H   0  0  0  0  0  0  0  0  0  0  0  0
   23.8162   33.7048   13.2566 H   0  0  0  0  0  0  0  0  0  0  0  0
   21.3667   36.2164   18.6698 C   0  0  0  0  0  0  0  0  0  0  0  0
   21.9389   35.5341   19.7770 O   0  0  0  0  0  0  0  0  0  0  0  0
   21.2420   35.3078   20.4126 H   0  0  0  0  0  0  0  0  0  0  0  0
   20.7987   37.5755   19.0471 C   0  0  0  0  0  0  0  0  0  0  0  0
   21.0705   38.5541   18.0267 N   0  0  0  0  0  0  0  0  0  0  0  0
   21.0521   39.9377   18.5127 C   0  0  0  0  0  0  0  0  0  0  0  0
   21.2624   40.9006   17.3639 C   0  0  0  0  0  0  0  0  0  0  0  0
   22.6334   40.6497   16.7260 C   0  0  0  0  0  0  0  0  0  0  0  0
   22.8069   41.5384   15.4934 C   0  0  0  0  0  0  0  0  0  0  0  0
   21.7875   41.1910   14.3725 C   0  0  0  0  0  0  0  0  0  0  0  0
   22.1937   39.7791   13.9344 C   0  0  0  0  0  0  0  0  0  0  0  0
   21.8781   38.8942   15.1070 C   0  0  0  0  0  0  0  0  0  0  0  0
   22.7384   39.1600   16.3235 C   0  0  0  0  0  0  0  0  0  0  0  0
   22.4178   38.2727   17.5058 C   0  0  0  0  0  0  0  0  0  0  0  0
   19.6930   40.4094   19.0477 C   0  0  0  0  0  0  0  0  0  0  0  0
   19.7007   40.8646   20.1752 O   0  0  0  0  0  0  0  0  0  0  0  0
   18.6946   40.1979   18.1725 N   0  0  0  0  0  0  0  0  0  0  0  0
   18.9324   39.7948   17.3064 H   0  0  0  0  0  0  0  0  0  0  0  0
   17.2912   40.5149   18.3973 C   0  0  0  0  0  0  0  0  0  0  0  0
   17.2075   42.0277   18.5009 C   0  0  0  0  0  0  0  0  0  0  0  0
   16.8972   39.5332   19.3474 C   0  0  0  0  0  0  0  0  0  0  0  0
   16.4766   39.9618   17.2063 C   0  0  0  0  0  0  0  0  0  0  0  0
   19.0820   35.0685   18.5691 C   0  0  0  0  0  0  0  0  0  0  0  0
   17.8991   35.0450   17.6745 C   0  0  0  0  0  0  0  0  0  0  0  0
   17.1379   36.2195   17.5340 C   0  0  0  0  0  0  0  0  0  0  0  0
   17.5200   33.9083   16.9824 C   0  0  0  0  0  0  0  0  0  0  0  0
   16.0248   36.1923   16.7410 C   0  0  0  0  0  0  0  0  0  0  0  0
   16.4319   33.9454   16.1450 C   0  0  0  0  0  0  0  0  0  0  0  0
   15.6463   35.0702   16.0489 C   0  0  0  0  0  0  0  0  0  0  0  0
  8  7  2  0  0  0
  7 12  1  0  0  0
 11 12  2  0  0  0
 11 20  1  0  0  0
 12 13  1  0  0  0
 13 14  2  0  0  0
 14 19  1  0  0  0
 19 15  2  0  0  0
 19 20  1  0  0  0
 15 16  1  0  0  0
 16 17  2  0  0  0
 17 18  1  0  0  0
 18 20  2  0  0  0
  9  6  1  0  0  0
  6  2  1  0  0  0
  6 21  1  0  0  0
  2  3  2  0  0  0
 21 22  1  0  0  0
 22 23  2  0  0  0
 22 24  1  0  0  0
 27 28  1  0  0  0
 27  1  1  0  0  0
  1  4  1  0  0  0
  1 49  1  0  0  0
 49 50  1  0  0  0
 50 51  2  0  0  0
 50 52  1  0  0  0
 51 53  1  0  0  0
 52 54  2  0  0  0
 53 55  2  0  0  0
 54 55  1  0  0  0
 31 30  1  0  0  0
 31 32  1  0  0  0
 31 40  1  0  0  0
 32 41  1  0  0  0
 32 33  1  0  0  0
 41 42  2  0  0  0
 33 34  1  0  0  0
 34 35  1  0  0  0
 34 39  1  0  0  0
 35 36  1  0  0  0
 36 37  1  0  0  0
 37 38  1  0  0  0
 38 39  1  0  0  0
 39 40  1  0  0  0
 43 45  1  0  0  0
 45 46  1  0  0  0
 45 47  1  0  0  0
 45 48  1  0  0  0
  7  9  1  0  0  0
  2  4  1  0  0  0
 27 30  1  0  0  0
 41 43  1  0  0  0
  9 10  1  0  0  0
 24 25  1  0  0  0
 24 26  1  0  0  0
 28 29  1  0  0  0
  4  5  1  0  0  0
 43 44  1  0  0  0
M  END
> <minimizedAffinity>
-10.07517

$$$$
2NMZ_ROC_B_401


 55 59  0  0  0  0  0  0  0  0999 V2000
   20.3535   35.3444   17.9615 C   0  0  0  0  0  0  0  0  0  0  0  0
   21.2046   33.5040   16.5867 C   0  0  0  0  0  0  0  0  0  0  0  0
   20.7375   33.9913   15.5336 O   0  0  0  0  0  0  0  0  0  0  0  0
   21.0349   34.0582   17.7924 N   0  0  0  0  0  0  0  0  0  0  0  0
   21.3771   33.5892   18.5875 H   0  0  0  0  0  0  0  0  0  0  0  0
   21.9623   32.1869   16.5084 C   0  0  0  0  0  0  0  0  0  0  0  0
   20.4110   30.3253   15.9108 C   0  0  0  0  0  0  0  0  0  0  0  0
   20.4381   30.0104   17.1775 O   0  0  0  0  0  0  0  0  0  0  0  0
   21.2387   31.3162   15.5587 N   0  0  0  0  0  0  0  0  0  0  0  0
   21.3755   31.4767   14.5970 H   0  0  0  0  0  0  0  0  0  0  0  0
   18.4227   30.1979   14.4728 N   0  0  0  0  0  0  0  0  0  0  0  0
   19.6789   29.6824   14.7915 C   0  0  0  0  0  0  0  0  0  0  0  0
   20.2159   28.6530   14.0279 C   0  0  0  0  0  0  0  0  0  0  0  0
   19.4581   28.0313   13.0327 C   0  0  0  0  0  0  0  0  0  0  0  0
   17.5311   28.0908   11.5621 C   0  0  0  0  0  0  0  0  0  0  0  0
   16.3714   28.7127   11.1649 C   0  0  0  0  0  0  0  0  0  0  0  0
   15.8664   29.6955   11.9784 C   0  0  0  0  0  0  0  0  0  0  0  0
   16.4233   30.1059   13.1443 C   0  0  0  0  0  0  0  0  0  0  0  0
   18.2464   28.6112   12.6472 C   0  0  0  0  0  0  0  0  0  0  0  0
   17.7305   29.6564   13.4187 C   0  0  0  0  0  0  0  0  0  0  0  0
   23.3929   32.3763   16.2090 C   0  0  0  0  0  0  0  0  0  0  0  0
   23.5616   32.4616   14.7281 C   0  0  0  0  0  0  0  0  0  0  0  0
   23.5456   31.4698   13.9812 O   0  0  0  0  0  0  0  0  0  0  0  0
   23.6976   33.5828   14.2726 N   0  0  0  0  0  0  0  0  0  0  0  0
   23.7086   34.3611   14.8755 H   0  0  0  0  0  0  0  0  0  0  0  0
   23.7966   33.7110   13.3015 H   0  0  0  0  0  0  0  0  0  0  0  0
   21.2866   36.2514   18.7635 C   0  0  0  0  0  0  0  0  0  0  0  0
   20.5569   37.2137   19.5120 O   0  0  0  0  0  0  0  0  0  0  0  0
   20.0978   37.8150   18.9050 H   0  0  0  0  0  0  0  0  0  0  0  0
   22.4280   36.8670   17.9696 C   0  0  0  0  0  0  0  0  0  0  0  0
   22.1221   38.2196   17.5828 N   0  0  0  0  0  0  0  0  0  0  0  0
   23.2896   39.1068   17.5565 C   0  0  0  0  0  0  0  0  0  0  0  0
   22.8666   40.5215   17.2238 C   0  0  0  0  0  0  0  0  0  0  0  0
   22.2262   40.5538   15.8315 C   0  0  0  0  0  0  0  0  0  0  0  0
   21.6916   41.9557   15.5344 C   0  0  0  0  0  0  0  0  0  0  0  0
   20.5428   42.3613   16.4997 C   0  0  0  0  0  0  0  0  0  0  0  0
   19.4082   41.3935   16.1440 C   0  0  0  0  0  0  0  0  0  0  0  0
   19.8918   40.0390   16.5788 C   0  0  0  0  0  0  0  0  0  0  0  0
   21.0718   39.5256   15.7823 C   0  0  0  0  0  0  0  0  0  0  0  0
   21.5620   38.1642   16.2229 C   0  0  0  0  0  0  0  0  0  0  0  0
   23.9660   39.3139   18.9186 C   0  0  0  0  0  0  0  0  0  0  0  0
   23.2313   39.6593   19.8237 O   0  0  0  0  0  0  0  0  0  0  0  0
   25.2941   39.1111   18.8691 N   0  0  0  0  0  0  0  0  0  0  0  0
   25.6772   38.8441   18.0024 H   0  0  0  0  0  0  0  0  0  0  0  0
   26.2140   39.2531   19.9890 C   0  0  0  0  0  0  0  0  0  0  0  0
   26.0060   38.0325   20.8684 C   0  0  0  0  0  0  0  0  0  0  0  0
   26.0847   40.6280   20.3274 C   0  0  0  0  0  0  0  0  0  0  0  0
   27.6503   39.3324   19.4246 C   0  0  0  0  0  0  0  0  0  0  0  0
   19.0138   35.0838   18.6261 C   0  0  0  0  0  0  0  0  0  0  0  0
   17.8373   35.0915   17.7228 C   0  0  0  0  0  0  0  0  0  0  0  0
   17.5072   33.9084   17.0373 C   0  0  0  0  0  0  0  0  0  0  0  0
   17.0624   36.2217   17.5301 C   0  0  0  0  0  0  0  0  0  0  0  0
   16.4471   33.9209   16.1742 C   0  0  0  0  0  0  0  0  0  0  0  0
   15.9667   36.1700   16.7035 C   0  0  0  0  0  0  0  0  0  0  0  0
   15.6726   35.0365   15.9823 C   0  0  0  0  0  0  0  0  0  0  0  0
  8  7  2  0  0  0
  7 12  1  0  0  0
 11 12  2  0  0  0
 11 20  1  0  0  0
 12 13  1  0  0  0
 13 14  2  0  0  0
 14 19  1  0  0  0
 19 15  2  0  0  0
 19 20  1  0  0  0
 15 16  1  0  0  0
 16 17  2  0  0  0
 17 18  1  0  0  0
 18 20  2  0  0  0
  9  6  1  0  0  0
  6  2  1  0  0  0
  6 21  1  0  0  0
  2  3  2  0  0  0
 21 22  1  0  0  0
 22 23  2  0  0  0
 22 24  1  0  0  0
 27 28  1  0  0  0
 27  1  1  0  0  0
  1  4  1  0  0  0
  1 49  1  0  0  0
 49 50  1  0  0  0
 50 51  2  0  0  0
 50 52  1  0  0  0
 51 53  1  0  0  0
 52 54  2  0  0  0
 53 55  2  0  0  0
 54 55  1  0  0  0
 31 30  1  0  0  0
 31 32  1  0  0  0
 31 40  1  0  0  0
 32 41  1  0  0  0
 32 33  1  0  0  0
 41 42  2  0  0  0
 33 34  1  0  0  0
 34 35  1  0  0  0
 34 39  1  0  0  0
 35 36  1  0  0  0
 36 37  1  0  0  0
 37 38  1  0  0  0
 38 39  1  0  0  0
 39 40  1  0  0  0
 43 45  1  0  0  0
 45 46  1  0  0  0
 45 47  1  0  0  0
 45 48  1  0  0  0
  7  9  1  0  0  0
  2  4  1  0  0  0
 27 30  1  0  0  0
 41 43  1  0  0  0
  9 10  1  0  0  0
 24 25  1  0  0  0
 24 26  1  0  0  0
 28 29  1  0  0  0
  4  5  1  0  0  0
 43 44  1  0  0  0
M  END
> <minimizedAffinity>
-9.95471

$$$$
2NMZ_ROC_B_401


 55 59  0  0  0  0  0  0  0  0999 V2000
   21.4020   36.4688   18.5286 C   0  0  0  0  0  0  0  0  0  0  0  0
   19.2621   35.3287   18.1786 C   0  0  0  0  0  0  0  0  0  0  0  0
   18.9965   35.3173   19.4008 O   0  0  0  0  0  0  0  0  0  0  0  0
   20.4017   35.8186   17.6778 N   0  0  0  0  0  0  0  0  0  0  0  0
   20.5730   35.7401   16.7115 H   0  0  0  0  0  0  0  0  0  0  0  0
   18.2662   34.7095   17.2092 C   0  0  0  0  0  0  0  0  0  0  0  0
   18.7926   33.0395   15.4306 C   0  0  0  0  0  0  0  0  0  0  0  0
   17.9559   33.7033   14.6796 O   0  0  0  0  0  0  0  0  0  0  0  0
   18.8645   33.4581   16.6997 N   0  0  0  0  0  0  0  0  0  0  0  0
   19.3515   32.8910   17.3404 H   0  0  0  0  0  0  0  0  0  0  0  0
   20.2286   31.7950   13.8730 N   0  0  0  0  0  0  0  0  0  0  0  0
   19.5943   31.8314   15.1147 C   0  0  0  0  0  0  0  0  0  0  0  0
   19.7826   30.7908   16.0161 C   0  0  0  0  0  0  0  0  0  0  0  0
   20.4847   29.6418   15.6445 C   0  0  0  0  0  0  0  0  0  0  0  0
   22.0242   28.5661   14.1108 C   0  0  0  0  0  0  0  0  0  0  0  0
   22.7650   28.6203   12.9542 C   0  0  0  0  0  0  0  0  0  0  0  0
   22.5086   29.6488   12.0828 C   0  0  0  0  0  0  0  0  0  0  0  0
   21.5828   30.6205   12.2737 C   0  0  0  0  0  0  0  0  0  0  0  0
   21.2022   29.6488   14.4452 C   0  0  0  0  0  0  0  0  0  0  0  0
   21.0114   30.7125   13.5587 C   0  0  0  0  0  0  0  0  0  0  0  0
   16.9239   34.5593   17.7991 C   0  0  0  0  0  0  0  0  0  0  0  0
   15.9302   35.2040   16.8905 C   0  0  0  0  0  0  0  0  0  0  0  0
   14.7029   35.0533   17.0045 O   0  0  0  0  0  0  0  0  0  0  0  0
   16.3920   35.9218   16.0218 N   0  0  0  0  0  0  0  0  0  0  0  0
   17.3669   36.0330   15.9419 H   0  0  0  0  0  0  0  0  0  0  0  0
   15.7904   36.3908   15.3994 H   0  0  0  0  0  0  0  0  0  0  0  0
   21.6119   37.8820   17.9853 C   0  0  0  0  0  0  0  0  0  0  0  0
   21.5464   38.8511   19.0222 O   0  0  0  0  0  0  0  0  0  0  0  0
   20.6510   38.8657   19.3950 H   0  0  0  0  0  0  0  0  0  0  0  0
   20.7518   38.2465   16.7854 C   0  0  0  0  0  0  0  0  0  0  0  0
   19.7984   39.2717   17.1213 N   0  0  0  0  0  0  0  0  0  0  0  0
   19.8384   40.4338   16.2275 C   0  0  0  0  0  0  0  0  0  0  0  0
   18.8675   41.4940   16.7011 C   0  0  0  0  0  0  0  0  0  0  0  0
   17.4406   40.9349   16.6739 C   0  0  0  0  0  0  0  0  0  0  0  0
   16.4667   41.9586   17.2594 C   0  0  0  0  0  0  0  0  0  0  0  0
   16.7453   42.2389   18.7627 C   0  0  0  0  0  0  0  0  0  0  0  0
   16.4197   40.9072   19.4490 C   0  0  0  0  0  0  0  0  0  0  0  0
   17.4760   39.9490   18.9760 C   0  0  0  0  0  0  0  0  0  0  0  0
   17.3942   39.6277   17.4994 C   0  0  0  0  0  0  0  0  0  0  0  0
   18.4604   38.6670   17.0218 C   0  0  0  0  0  0  0  0  0  0  0  0
   21.1605   41.2131   16.2508 C   0  0  0  0  0  0  0  0  0  0  0  0
   21.4825   41.6704   17.3304 O   0  0  0  0  0  0  0  0  0  0  0  0
   21.7317   41.2926   15.0364 N   0  0  0  0  0  0  0  0  0  0  0  0
   21.2698   40.8452   14.2910 H   0  0  0  0  0  0  0  0  0  0  0  0
   22.9759   41.9847   14.7303 C   0  0  0  0  0  0  0  0  0  0  0  0
   24.0474   41.3333   15.5870 C   0  0  0  0  0  0  0  0  0  0  0  0
   22.5736   43.3478   14.6897 C   0  0  0  0  0  0  0  0  0  0  0  0
   23.2554   41.8258   13.2189 C   0  0  0  0  0  0  0  0  0  0  0  0
   22.6524   35.6080   18.5276 C   0  0  0  0  0  0  0  0  0  0  0  0
   22.9177   34.8634   17.2724 C   0  0  0  0  0  0  0  0  0  0  0  0
   22.6657   33.4798   17.2445 C   0  0  0  0  0  0  0  0  0  0  0  0
   23.4082   35.4831   16.1366 C   0  0  0  0  0  0  0  0  0  0  0  0
   22.9448   32.7823   16.1025 C   0  0  0  0  0  0  0  0  0  0  0  0
   23.6117   34.7540   14.9905 C   0  0  0  0  0  0  0  0  0  0  0  0
   23.4269   33.3914   14.9721 C   0  0  0  0  0  0  0  0  0  0  0  0
  8  7  2  0  0  0
  7 12  1  0  0  0
 11 12  2  0  0  0
 11 20  1  0  0  0
 12 13  1  0  0  0
 13 14  2  0  0  0
 14 19  1  0  0  0
 19 15  2  0  0  0
 19 20  1  0  0  0
 15 16  1  0  0  0
 16 17  2  0  0  0
 17 18  1  0  0  0
 18 20  2  0  0  0
  9  6  1  0  0  0
  6  2  1  0  0  0
  6 21  1  0  0  0
  2  3  2  0  0  0
 21 22  1  0  0  0
 22 23  2  0  0  0
 22 24  1  0  0  0
 27 28  1  0  0  0
 27  1  1  0  0  0
  1  4  1  0  0  0
  1 49  1  0  0  0
 49 50  1  0  0  0
 50 51  2  0  0  0
 50 52  1  0  0  0
 51 53  1  0  0  0
 52 54  2  0  0  0
 53 55  2  0  0  0
 54 55  1  0  0  0
 31 30  1  0  0  0
 31 32  1  0  0  0
 31 40  1  0  0  0
 32 41  1  0  0  0
 32 33  1  0  0  0
 41 42  2  0  0  0
 33 34  1  0  0  0
 34 35  1  0  0  0
 34 39  1  0  0  0
 35 36  1  0  0  0
 36 37  1  0  0  0
 37 38  1  0  0  0
 38 39  1  0  0  0
 39 40  1  0  0  0
 43 45  1  0  0  0
 45 46  1  0  0  0
 45 47  1  0  0  0
 45 48  1  0  0  0
  7  9  1  0  0  0
  2  4  1  0  0  0
 27 30  1  0  0  0
 41 43  1  0  0  0
  9 10  1  0  0  0
 24 25  1  0  0  0
 24 26  1  0  0  0
 28 29  1  0  0  0
  4  5  1  0  0  0
 43 44  1  0  0  0
M  END
> <minimizedAffinity>
-9.62854

$$$$
2NMZ_ROC_B_401


 55 59  0  0  0  0  0  0  0  0999 V2000
   19.6319   30.5509   14.1865 C   0  0  0  0  0  0  0  0  0  0  0  0
   21.3739   28.9446   13.5644 C   0  0  0  0  0  0  0  0  0  0  0  0
   21.5557   28.5873   14.7493 O   0  0  0  0  0  0  0  0  0  0  0  0
   20.5090   29.9011   13.2088 N   0  0  0  0  0  0  0  0  0  0  0  0
   20.4604   30.1760   12.2647 H   0  0  0  0  0  0  0  0  0  0  0  0
   22.2121   28.2996   12.4705 C   0  0  0  0  0  0  0  0  0  0  0  0
   21.3893   26.1789   11.4434 C   0  0  0  0  0  0  0  0  0  0  0  0
   22.4901   25.6365   11.8890 O   0  0  0  0  0  0  0  0  0  0  0  0
   21.2988   27.5016   11.6263 N   0  0  0  0  0  0  0  0  0  0  0  0
   20.5710   27.9775   11.1647 H   0  0  0  0  0  0  0  0  0  0  0  0
   19.2748   24.9280   11.4080 N   0  0  0  0  0  0  0  0  0  0  0  0
   20.2759   25.5670   10.6766 C   0  0  0  0  0  0  0  0  0  0  0  0
   20.1662   25.6625    9.2947 C   0  0  0  0  0  0  0  0  0  0  0  0
   19.1390   25.0063    8.6124 C   0  0  0  0  0  0  0  0  0  0  0  0
   16.9761   23.9130    8.6892 C   0  0  0  0  0  0  0  0  0  0  0  0
   15.9263   23.4298    9.4335 C   0  0  0  0  0  0  0  0  0  0  0  0
   16.1056   23.3209   10.7895 C   0  0  0  0  0  0  0  0  0  0  0  0
   17.2373   23.6562   11.4562 C   0  0  0  0  0  0  0  0  0  0  0  0
   18.0857   24.4560    9.3478 C   0  0  0  0  0  0  0  0  0  0  0  0
   18.2078   24.3835   10.7383 C   0  0  0  0  0  0  0  0  0  0  0  0
   23.0349   29.2795   11.7390 C   0  0  0  0  0  0  0  0  0  0  0  0
   24.2409   28.5817   11.2028 C   0  0  0  0  0  0  0  0  0  0  0  0
   25.0680   27.9984   11.9221 O   0  0  0  0  0  0  0  0  0  0  0  0
   24.3668   28.5936    9.9915 N   0  0  0  0  0  0  0  0  0  0  0  0
   23.7040   29.0597    9.4323 H   0  0  0  0  0  0  0  0  0  0  0  0
   25.1313   28.1370    9.5716 H   0  0  0  0  0  0  0  0  0  0  0  0
   20.5159   31.0512   15.3286 C   0  0  0  0  0  0  0  0  0  0  0  0
   20.0535   30.5799   16.5867 O   0  0  0  0  0  0  0  0  0  0  0  0
   19.1801   30.9588   16.7728 H   0  0  0  0  0  0  0  0  0  0  0  0
   20.7888   32.5472   15.3260 C   0  0  0  0  0  0  0  0  0  0  0  0
   19.7327   33.2695   15.9859 N   0  0  0  0  0  0  0  0  0  0  0  0
   20.1310   34.5986   16.4612 C   0  0  0  0  0  0  0  0  0  0  0  0
   18.9907   35.2507   17.2132 C   0  0  0  0  0  0  0  0  0  0  0  0
   17.7920   35.4319   16.2754 C   0  0  0  0  0  0  0  0  0  0  0  0
   16.5971   35.9833   17.0549 C   0  0  0  0  0  0  0  0  0  0  0  0
   16.0953   34.9886   18.1388 C   0  0  0  0  0  0  0  0  0  0  0  0
   15.5583   33.8042   17.3268 C   0  0  0  0  0  0  0  0  0  0  0  0
   16.7667   33.1837   16.6846 C   0  0  0  0  0  0  0  0  0  0  0  0
   17.4298   34.0652   15.6484 C   0  0  0  0  0  0  0  0  0  0  0  0
   18.6491   33.4429   15.0051 C   0  0  0  0  0  0  0  0  0  0  0  0
   21.2270   34.5913   17.5356 C   0  0  0  0  0  0  0  0  0  0  0  0
   21.8395   33.5478   17.6552 O   0  0  0  0  0  0  0  0  0  0  0  0
   21.2989   35.7553   18.2044 N   0  0  0  0  0  0  0  0  0  0  0  0
   20.6774   36.4694   17.9342 H   0  0  0  0  0  0  0  0  0  0  0  0
   22.2182   36.0492   19.2948 C   0  0  0  0  0  0  0  0  0  0  0  0
   21.7170   35.2679   20.4968 C   0  0  0  0  0  0  0  0  0  0  0  0
   22.4208   37.4504   19.1639 C   0  0  0  0  0  0  0  0  0  0  0  0
   23.6353   35.6126   18.8600 C   0  0  0  0  0  0  0  0  0  0  0  0
   18.5740   29.5479   14.6099 C   0  0  0  0  0  0  0  0  0  0  0  0
   17.5815   29.1843   13.5692 C   0  0  0  0  0  0  0  0  0  0  0  0
   17.6188   27.8866   13.0277 C   0  0  0  0  0  0  0  0  0  0  0  0
   16.6295   30.0789   13.1129 C   0  0  0  0  0  0  0  0  0  0  0  0
   16.7312   27.5588   12.0410 C   0  0  0  0  0  0  0  0  0  0  0  0
   15.7151   29.6850   12.1668 C   0  0  0  0  0  0  0  0  0  0  0  0
   15.7824   28.4394   11.5876 C   0  0  0  0  0  0  0  0  0  0  0  0
  8  7  2  0  0  0
  7 12  1  0  0  0
 11 12  2  0  0  0
 11 20  1  0  0  0
 12 13  1  0  0  0
 13 14  2  0  0  0
 14 19  1  0  0  0
 19 15  2  0  0  0
 19 20  1  0  0  0
 15 16  1  0  0  0
 16 17  2  0  0  0
 17 18  1  0  0  0
 18 20  2  0  0  0
  9  6  1  0  0  0
  6  2  1  0  0  0
  6 21  1  0  0  0
  2  3  2  0  0  0
 21 22  1  0  0  0
 22 23  2  0  0  0
 22 24  1  0  0  0
 27 28  1  0  0  0
 27  1  1  0  0  0
  1  4  1  0  0  0
  1 49  1  0  0  0
 49 50  1  0  0  0
 50 51  2  0  0  0
 50 52  1  0  0  0
 51 53  1  0  0  0
 52 54  2  0  0  0
 53 55  2  0  0  0
 54 55  1  0  0  0
 31 30  1  0  0  0
 31 32  1  0  0  0
 31 40  1  0  0  0
 32 41  1  0  0  0
 32 33  1  0  0  0
 41 42  2  0  0  0
 33 34  1  0  0  0
 34 35  1  0  0  0
 34 39  1  0  0  0
 35 36  1  0  0  0
 36 37  1  0  0  0
 37 38  1  0  0  0
 38 39  1  0  0  0
 39 40  1  0  0  0
 43 45  1  0  0  0
 45 46  1  0  0  0
 45 47  1  0  0  0
 45 48  1  0  0  0
  7  9  1  0  0  0
  2  4  1  0  0  0
 27 30  1  0  0  0
 41 43  1  0  0  0
  9 10  1  0  0  0
 24 25  1  0  0  0
 24 26  1  0  0  0
 28 29  1  0  0  0
  4  5  1  0  0  0
 43 44  1  0  0  0
M  END
> <minimizedAffinity>
-9.49793

$$$$
2NMZ_ROC_B_401


 55 59  0  0  0  0  0  0  0  0999 V2000
   20.5724   31.4099   14.5125 C   0  0  0  0  0  0  0  0  0  0  0  0
   18.5827   32.7043   15.1187 C   0  0  0  0  0  0  0  0  0  0  0  0
   17.9135   32.2381   14.1703 O   0  0  0  0  0  0  0  0  0  0  0  0
   19.8671   32.3980   15.3333 N   0  0  0  0  0  0  0  0  0  0  0  0
   20.3516   32.8486   16.0623 H   0  0  0  0  0  0  0  0  0  0  0  0
   17.9253   33.7113   16.0507 C   0  0  0  0  0  0  0  0  0  0  0  0
   19.1404   34.8902   17.8846 C   0  0  0  0  0  0  0  0  0  0  0  0
   18.1335   34.5604   18.6475 O   0  0  0  0  0  0  0  0  0  0  0  0
   18.9941   34.5765   16.5918 N   0  0  0  0  0  0  0  0  0  0  0  0
   19.6459   34.9491   15.9551 H   0  0  0  0  0  0  0  0  0  0  0  0
   20.9917   36.3436   17.1794 N   0  0  0  0  0  0  0  0  0  0  0  0
   20.3711   35.6493   18.2178 C   0  0  0  0  0  0  0  0  0  0  0  0
   20.8770   35.7424   19.5087 C   0  0  0  0  0  0  0  0  0  0  0  0
   22.0795   36.4078   19.7586 C   0  0  0  0  0  0  0  0  0  0  0  0
   23.7721   37.9711   19.0034 C   0  0  0  0  0  0  0  0  0  0  0  0
   24.2748   38.7716   18.0053 C   0  0  0  0  0  0  0  0  0  0  0  0
   23.7645   38.6085   16.7421 C   0  0  0  0  0  0  0  0  0  0  0  0
   22.7988   37.7208   16.3993 C   0  0  0  0  0  0  0  0  0  0  0  0
   22.6434   37.1849   18.7431 C   0  0  0  0  0  0  0  0  0  0  0  0
   22.1101   37.0897   17.4546 C   0  0  0  0  0  0  0  0  0  0  0  0
   16.8114   34.4311   15.4077 C   0  0  0  0  0  0  0  0  0  0  0  0
   15.8484   34.8593   16.4651 C   0  0  0  0  0  0  0  0  0  0  0  0
   15.4433   36.0268   16.5868 O   0  0  0  0  0  0  0  0  0  0  0  0
   15.4513   33.9810   17.2093 N   0  0  0  0  0  0  0  0  0  0  0  0
   15.7802   33.0592   17.1023 H   0  0  0  0  0  0  0  0  0  0  0  0
   14.8015   34.1926   17.9178 H   0  0  0  0  0  0  0  0  0  0  0  0
   19.6357   30.2154   14.3336 C   0  0  0  0  0  0  0  0  0  0  0  0
   19.9255   29.1849   15.2678 O   0  0  0  0  0  0  0  0  0  0  0  0
   20.8098   28.8276   15.0910 H   0  0  0  0  0  0  0  0  0  0  0  0
   19.5131   29.6990   12.9086 C   0  0  0  0  0  0  0  0  0  0  0  0
   20.6502   28.8930   12.5480 N   0  0  0  0  0  0  0  0  0  0  0  0
   20.3454   27.8413   11.5722 C   0  0  0  0  0  0  0  0  0  0  0  0
   21.5719   26.9925   11.3150 C   0  0  0  0  0  0  0  0  0  0  0  0
   22.6874   27.8639   10.7268 C   0  0  0  0  0  0  0  0  0  0  0  0
   23.9670   27.0406   10.5715 C   0  0  0  0  0  0  0  0  0  0  0  0
   24.5272   26.5648   11.9411 C   0  0  0  0  0  0  0  0  0  0  0  0
   24.9450   27.8657   12.6366 C   0  0  0  0  0  0  0  0  0  0  0  0
   23.6617   28.5960   12.9149 C   0  0  0  0  0  0  0  0  0  0  0  0
   22.9411   29.0639   11.6690 C   0  0  0  0  0  0  0  0  0  0  0  0
   21.6467   29.7949   11.9486 C   0  0  0  0  0  0  0  0  0  0  0  0
   19.3510   26.7810   12.0647 C   0  0  0  0  0  0  0  0  0  0  0  0
   18.8766   26.9765   13.1670 O   0  0  0  0  0  0  0  0  0  0  0  0
   19.1996   25.7722   11.1890 N   0  0  0  0  0  0  0  0  0  0  0  0
   19.7088   25.8253   10.3481 H   0  0  0  0  0  0  0  0  0  0  0  0
   18.3461   24.6078   11.3791 C   0  0  0  0  0  0  0  0  0  0  0  0
   19.0315   23.7433   12.4229 C   0  0  0  0  0  0  0  0  0  0  0  0
   17.9741   24.2722   10.0485 C   0  0  0  0  0  0  0  0  0  0  0  0
   16.9573   25.1002   11.8445 C   0  0  0  0  0  0  0  0  0  0  0  0
   21.8840   31.0765   15.2002 C   0  0  0  0  0  0  0  0  0  0  0  0
   22.8334   32.2059   15.3532 C   0  0  0  0  0  0  0  0  0  0  0  0
   22.9080   32.8588   16.5969 C   0  0  0  0  0  0  0  0  0  0  0  0
   23.6390   32.6384   14.3146 C   0  0  0  0  0  0  0  0  0  0  0  0
   23.7533   33.9247   16.7318 C   0  0  0  0  0  0  0  0  0  0  0  0
   24.5216   33.6717   14.5148 C   0  0  0  0  0  0  0  0  0  0  0  0
   24.5575   34.3553   15.7076 C   0  0  0  0  0  0  0  0  0  0  0  0
  8  7  2  0  0  0
  7 12  1  0  0  0
 11 12  2  0  0  0
 11 20  1  0  0  0
 12 13  1  0  0  0
 13 14  2  0  0  0
 14 19  1  0  0  0
 19 15  2  0  0  0
 19 20  1  0  0  0
 15 16  1  0  0  0
 16 17  2  0  0  0
 17 18  1  0  0  0
 18 20  2  0  0  0
  9  6  1  0  0  0
  6  2  1  0  0  0
  6 21  1  0  0  0
  2  3  2  0  0  0
 21 22  1  0  0  0
 22 23  2  0  0  0
 22 24  1  0  0  0
 27 28  1  0  0  0
 27  1  1  0  0  0
  1  4  1  0  0  0
  1 49  1  0  0  0
 49 50  1  0  0  0
 50 51  2  0  0  0
 50 52  1  0  0  0
 51 53  1  0  0  0
 52 54  2  0  0  0
 53 55  2  0  0  0
 54 55  1  0  0  0
 31 30  1  0  0  0
 31 32  1  0  0  0
 31 40  1  0  0  0
 32 41  1  0  0  0
 32 33  1  0  0  0
 41 42  2  0  0  0
 33 34  1  0  0  0
 34 35  1  0  0  0
 34 39  1  0  0  0
 35 36  1  0  0  0
 36 37  1  0  0  0
 37 38  1  0  0  0
 38 39  1  0  0  0
 39 40  1  0  0  0
 43 45  1  0  0  0
 45 46  1  0  0  0
 45 47  1  0  0  0
 45 48  1  0  0  0
  7  9  1  0  0  0
  2  4  1  0  0  0
 27 30  1  0  0  0
 41 43  1  0  0  0
  9 10  1  0  0  0
 24 25  1  0  0  0
 24 26  1  0  0  0
 28 29  1  0  0  0
  4  5  1  0  0  0
 43 44  1  0  0  0
M  END
> <minimizedAffinity>
-9.00528

$$$$
