2J78_GOX_A_1451
  RCSB PDB12061706003D
Coordinates from PDB:2J78:A:1451 Model:1 without hydrogens
 13 13  0  0  0  0            999 V2000
    0.1250   11.4600   10.3170   C 0  0  0  0  0  0  0  0  0  0  0  0
    0.5030   11.3590   11.5760   N 0  0  0  0  0  0  0  0  0  0  0  0
    1.1740   12.1210    9.4020   C 0  0  0  0  0  0  0  0  0  0  0  0
   -1.1350   10.9800    9.9070   N 0  0  0  0  0  0  0  0  0  0  0  0
   -0.3610   10.7420   12.4840   O 0  0  0  0  0  0  0  0  0  0  0  0
    1.6700   13.3100    9.9680   O 0  0  0  0  0  0  0  0  0  0  0  0
    0.5390   12.4040    8.0430   C 0  0  0  0  0  0  0  0  0  0  0  0
    1.6100   12.6700    7.1400   O 0  0  0  0  0  0  0  0  0  0  0  0
   -0.2660   11.1900    7.5690   C 0  0  0  0  0  0  0  0  0  0  0  0
   -0.6380   11.3320    6.2030   O 0  0  0  0  0  0  0  0  0  0  0  0
   -1.5140   11.1240    8.4950   C 0  0  0  0  0  0  0  0  0  0  0  0
   -2.4280    9.9260    8.1640   C 0  0  0  0  0  0  0  0  0  0  0  0
   -1.7790    8.6990    8.4330   O 0  0  0  0  0  0  0  0  0  0  0  0
  1  2  2  0  0  0  0
  1  3  1  0  0  0  0
  1  4  1  0  0  0  0
  2  5  1  0  0  0  0
  3  6  1  0  0  0  0
  3  7  1  0  0  0  0
  4 11  1  0  0  0  0
  7  8  1  0  0  0  0
  7  9  1  0  0  0  0
  9 10  1  0  0  0  0
  9 11  1  0  0  0  0
 11 12  1  0  0  0  0
 12 13  1  0  0  0  0
A    1
C1
A    2
N1
A    3
C2
A    4
N5
A    5
O7
A    6
O2
A    7
C3
A    8
O3
A    9
C4
A   10
O4
A   11
C5
A   12
C6
A   13
O6
M  END
>  <InstanceId>
2J78_GOX_A_1451

>  <ChemCompId>
GOX

>  <PdbId>
2J78

>  <ChainId>
A

>  <ResidueNumber>
1451

>  <InsertionCode>


>  <Model>
1

>  <AltIds>


>  <MissingHeavyAtoms>
0

>  <ObservedFormula>
C6 N2 O5

>  <Name>
(2S,3S,4R,5R)-6-(HYDROXYAMINO)-2-(HYDROXYMETHYL)-2,3,4,5-TETRAHYDROPYRIDINE-3,4,5-TRIOL

>  <SystematicName>
(2Z,3S,4S,5R,6R)-2-hydroxyimino-6-(hydroxymethyl)piperidine-3,4,5-triol

>  <Synonyms>
D-GLUCONHYDROXIMO-1,5-LACTAM

>  <Type>
NON-POLYMER

>  <Formula>
C6 H12 N2 O5

>  <MolecularWeight>
192.17

>  <ModifiedDate>
2012-01-05

>  <Parent>


>  <OneLetterCode>


>  <SubcomponentList>


>  <AmbiguousFlag>
N

>  <InChI>
InChI=1S/C6H12N2O5/c9-1-2-3(10)4(11)5(12)6(7-2)8-13/h2-5,9-13H,1H2,(H,7,8)/t2-,3-,4+,5-/m1/s1

>  <InChIKey>
VBXHGXTYZGYTQG-SQOUGZDYSA-N

>  <SMILES>
C([C@@H]1[C@H]([C@@H]([C@H](/C(=N/O)/N1)O)O)O)O

$$$$
