3LPK_Z76_A_456


 51 55  0  0  0  0  0  0  0  0999 V2000
   22.2725   10.9113   22.9187 C   0  0  0  0  0  0  0  0  0  0  0  0
   23.4335   11.7365   23.2764 N   0  0  0  0  0  0  0  0  0  0  0  0
   22.1972   13.6173   23.0525 O   0  0  0  0  0  0  0  0  0  0  0  0
   23.2729   13.0801   23.3073 C   0  0  0  0  0  0  0  0  0  0  0  0
   24.3025   11.3248   23.4874 H   0  0  0  0  0  0  0  0  0  0  0  0
   26.8675   15.2575   24.3259 C   0  0  0  0  0  0  0  0  0  0  0  0
   26.9505   14.0613   23.5546 C   0  0  0  0  0  0  0  0  0  0  0  0
   25.7520   13.3479   23.2310 C   0  0  0  0  0  0  0  0  0  0  0  0
   24.4858   13.8237   23.6625 C   0  0  0  0  0  0  0  0  0  0  0  0
   24.4061   15.0247   24.4308 C   0  0  0  0  0  0  0  0  0  0  0  0
   25.5978   15.7395   24.7615 C   0  0  0  0  0  0  0  0  0  0  0  0
   25.5157   16.9768   25.5547 C   0  0  0  0  0  0  0  0  0  0  0  0
   28.4755   13.5227   21.7516 N   0  0  0  0  0  0  0  0  0  0  0  0
   29.1268   13.1616   23.8901 O   0  0  0  0  0  0  0  0  0  0  0  0
   28.2614   13.5517   23.1074 C   0  0  0  0  0  0  0  0  0  0  0  0
   29.7533   13.0270   21.2387 C   0  0  0  0  0  0  0  0  0  0  0  0
   27.5618   13.9560   20.7028 C   0  0  0  0  0  0  0  0  0  0  0  0
   28.4228   14.2647   19.5031 C   0  0  0  0  0  0  0  0  0  0  0  0
   29.8143   13.7708   19.8972 C   0  0  0  0  0  0  0  0  0  0  0  0
   29.5645   11.5145   21.0390 C   0  0  0  0  0  0  0  0  0  0  0  0
   30.3396   10.7909   21.9844 O   0  0  0  0  0  0  0  0  0  0  0  0
   29.5472    9.8280   22.6713 C   0  0  0  0  0  0  0  0  0  0  0  0
   20.8030    9.1354   23.7045 O   0  0  0  0  0  0  0  0  0  0  0  0
   21.7685   10.1006   24.1474 C   0  0  0  0  0  0  0  0  0  0  0  0
   21.2030    8.5637   23.0308 H   0  0  0  0  0  0  0  0  0  0  0  0
   21.1108   10.2398   26.4770 N   0  0  0  0  0  0  0  0  0  0  0  0
   18.9637   12.1144   25.8943 N   0  0  0  0  0  0  0  0  0  0  0  0
   19.6792   11.3794   24.8236 C   0  0  0  0  0  0  0  0  0  0  0  0
   19.0525   11.3466   27.1586 C   0  0  0  0  0  0  0  0  0  0  0  0
   20.4943   11.0545   27.5289 C   0  0  0  0  0  0  0  0  0  0  0  0
   21.1150   11.0046   25.2216 C   0  0  0  0  0  0  0  0  0  0  0  0
   22.0689   10.0090   26.7403 H   0  0  0  0  0  0  0  0  0  0  0  0
   17.3800   12.7553   25.4759 S   0  0  0  0  0  0  0  0  0  0  0  0
   16.7735   13.1217   26.7200 O   0  0  0  0  0  0  0  0  0  0  0  0
   17.6254   13.7482   24.4758 O   0  0  0  0  0  0  0  0  0  0  0  0
   15.5349   10.0531   21.3378 C   0  0  0  0  0  0  0  0  0  0  0  0
   15.9440   10.3911   25.6187 C   0  0  0  0  0  0  0  0  0  0  0  0
   15.2470    9.2843   25.0562 C   0  0  0  0  0  0  0  0  0  0  0  0
   15.1133    9.1745   23.6438 C   0  0  0  0  0  0  0  0  0  0  0  0
   15.6751   10.1691   22.7946 C   0  0  0  0  0  0  0  0  0  0  0  0
   16.3730   11.2764   23.3561 C   0  0  0  0  0  0  0  0  0  0  0  0
   16.5066   11.3871   24.7687 C   0  0  0  0  0  0  0  0  0  0  0  0
   22.6655    9.9366   21.7952 C   0  0  0  0  0  0  0  0  0  0  0  0
   26.7073   10.6852   19.0600 F   0  0  0  0  0  0  0  0  0  0  0  0
   22.8017   13.2341   18.1028 F   0  0  0  0  0  0  0  0  0  0  0  0
   23.3932   10.6504   20.6682 C   0  0  0  0  0  0  0  0  0  0  0  0
   24.7515   10.3236   20.3847 C   0  0  0  0  0  0  0  0  0  0  0  0
   25.4383   10.9882   19.3264 C   0  0  0  0  0  0  0  0  0  0  0  0
   24.7746   11.9753   18.5523 C   0  0  0  0  0  0  0  0  0  0  0  0
   23.4206   12.3038   18.8330 C   0  0  0  0  0  0  0  0  0  0  0  0
   22.7262   11.6425   19.8887 C   0  0  0  0  0  0  0  0  0  0  0  0
  7  6  2  0  0  0
  6 11  1  0  0  0
 44 48  1  0  0  0
 17 13  1  0  0  0
 16 13  1  0  0  0
 13 15  1  0  0  0
 15 14  2  0  0  0
 35 33  2  0  0  0
 42 33  1  0  0  0
 33 27  1  0  0  0
 33 34  2  0  0  0
 15  7  1  0  0  0
  8  7  1  0  0  0
 45 50  1  0  0  0
  1  2  1  0  0  0
  2  4  1  0  0  0
  3  4  2  0  0  0
  8  9  2  0  0  0
 31 26  1  0  0  0
 26 30  1  0  0  0
 23 24  1  0  0  0
  4  9  1  0  0  0
  9 10  1  0  0  0
 28 27  1  0  0  0
 27 29  1  0  0  0
 10 11  2  0  0  0
 20 21  1  0  0  0
 21 22  1  0  0  0
 11 12  1  0  0  0
 19 16  1  0  0  0
 20 16  1  0  0  0
 18 17  1  0  0  0
 18 19  1  0  0  0
 43  1  1  0  0  0
  1 24  1  0  0  0
 24 31  1  0  0  0
 46 43  1  0  0  0
 51 46  2  0  0  0
 47 46  1  0  0  0
 48 47  2  0  0  0
 49 48  1  0  0  0
 49 50  2  0  0  0
 50 51  1  0  0  0
 28 31  1  0  0  0
 29 30  1  0  0  0
 36 40  1  0  0  0
 42 37  2  0  0  0
 38 37  1  0  0  0
 39 38  2  0  0  0
 40 39  1  0  0  0
 40 41  2  0  0  0
 41 42  1  0  0  0
  2  5  1  0  0  0
 26 32  1  0  0  0
 23 25  1  0  0  0
M  END
> <minimizedAffinity>
-12.97859

$$$$
3LPK_Z76_A_456


 51 55  0  0  0  0  0  0  0  0999 V2000
   22.3194   10.9095   23.0121 C   0  0  0  0  0  0  0  0  0  0  0  0
   23.4292   11.7805   23.4202 N   0  0  0  0  0  0  0  0  0  0  0  0
   22.1240   13.6089   23.1573 O   0  0  0  0  0  0  0  0  0  0  0  0
   23.2107   13.1158   23.4519 C   0  0  0  0  0  0  0  0  0  0  0  0
   24.3059   11.4043   23.6634 H   0  0  0  0  0  0  0  0  0  0  0  0
   26.6663   15.4361   24.6243 C   0  0  0  0  0  0  0  0  0  0  0  0
   26.8293   14.2581   23.8379 C   0  0  0  0  0  0  0  0  0  0  0  0
   25.6760   13.4968   23.4632 C   0  0  0  0  0  0  0  0  0  0  0  0
   24.3759   13.9074   23.8591 C   0  0  0  0  0  0  0  0  0  0  0  0
   24.2160   15.0904   24.6427 C   0  0  0  0  0  0  0  0  0  0  0  0
   25.3622   15.8527   25.0242 C   0  0  0  0  0  0  0  0  0  0  0  0
   25.1975   17.0715   25.8331 C   0  0  0  0  0  0  0  0  0  0  0  0
   28.3316   13.4768   22.1060 N   0  0  0  0  0  0  0  0  0  0  0  0
   29.1208   13.7405   24.2120 O   0  0  0  0  0  0  0  0  0  0  0  0
   28.1762   13.8159   23.4273 C   0  0  0  0  0  0  0  0  0  0  0  0
   29.6409   13.0276   21.6310 C   0  0  0  0  0  0  0  0  0  0  0  0
   27.3215   13.5217   21.0570 C   0  0  0  0  0  0  0  0  0  0  0  0
   28.0780   13.6244   19.7559 C   0  0  0  0  0  0  0  0  0  0  0  0
   29.5400   13.4162   20.1492 C   0  0  0  0  0  0  0  0  0  0  0  0
   29.6512   11.5017   21.8163 C   0  0  0  0  0  0  0  0  0  0  0  0
   29.6920   10.8510   20.5541 O   0  0  0  0  0  0  0  0  0  0  0  0
   28.7951    9.7461   20.5149 C   0  0  0  0  0  0  0  0  0  0  0  0
   20.8869    9.0818   23.7459 O   0  0  0  0  0  0  0  0  0  0  0  0
   21.7679   10.1079   24.2264 C   0  0  0  0  0  0  0  0  0  0  0  0
   21.3633    8.5132   23.1209 H   0  0  0  0  0  0  0  0  0  0  0  0
   20.9999   10.3107   26.5173 N   0  0  0  0  0  0  0  0  0  0  0  0
   18.7274   11.9559   25.7475 N   0  0  0  0  0  0  0  0  0  0  0  0
   19.5492   11.2316   24.7483 C   0  0  0  0  0  0  0  0  0  0  0  0
   18.8265   11.2662   27.0553 C   0  0  0  0  0  0  0  0  0  0  0  0
   20.2706   11.1219   27.4972 C   0  0  0  0  0  0  0  0  0  0  0  0
   20.9932   11.0060   25.2220 C   0  0  0  0  0  0  0  0  0  0  0  0
   21.9618   10.1792   26.8300 H   0  0  0  0  0  0  0  0  0  0  0  0
   17.1143   12.4321   25.2327 S   0  0  0  0  0  0  0  0  0  0  0  0
   17.0930   12.2429   23.8136 O   0  0  0  0  0  0  0  0  0  0  0  0
   16.2170   11.6964   26.0695 O   0  0  0  0  0  0  0  0  0  0  0  0
   16.4035   17.4609   23.8057 C   0  0  0  0  0  0  0  0  0  0  0  0
   17.1699   14.6063   26.9477 C   0  0  0  0  0  0  0  0  0  0  0  0
   17.0784   15.9938   27.2543 C   0  0  0  0  0  0  0  0  0  0  0  0
   16.8253   16.9338   26.2164 C   0  0  0  0  0  0  0  0  0  0  0  0
   16.6640   16.4883   24.8742 C   0  0  0  0  0  0  0  0  0  0  0  0
   16.7548   15.1007   24.5665 C   0  0  0  0  0  0  0  0  0  0  0  0
   17.0085   14.1601   25.6040 C   0  0  0  0  0  0  0  0  0  0  0  0
   22.8112    9.9255   21.9367 C   0  0  0  0  0  0  0  0  0  0  0  0
   22.3876   13.2465   18.3077 F   0  0  0  0  0  0  0  0  0  0  0  0
   26.4522   10.7979   18.6951 F   0  0  0  0  0  0  0  0  0  0  0  0
   23.3800   10.6563   20.7319 C   0  0  0  0  0  0  0  0  0  0  0  0
   22.5920   11.6384   20.0635 C   0  0  0  0  0  0  0  0  0  0  0  0
   23.1219   12.3291   18.9341 C   0  0  0  0  0  0  0  0  0  0  0  0
   24.4327   12.0432   18.4716 C   0  0  0  0  0  0  0  0  0  0  0  0
   25.2205   11.0640   19.1354 C   0  0  0  0  0  0  0  0  0  0  0  0
   24.6985   10.3699   20.2667 C   0  0  0  0  0  0  0  0  0  0  0  0
  7  6  2  0  0  0
  6 11  1  0  0  0
 44 48  1  0  0  0
 17 13  1  0  0  0
 16 13  1  0  0  0
 13 15  1  0  0  0
 15 14  2  0  0  0
 35 33  2  0  0  0
 42 33  1  0  0  0
 33 27  1  0  0  0
 33 34  2  0  0  0
 15  7  1  0  0  0
  8  7  1  0  0  0
 45 50  1  0  0  0
  1  2  1  0  0  0
  2  4  1  0  0  0
  3  4  2  0  0  0
  8  9  2  0  0  0
 31 26  1  0  0  0
 26 30  1  0  0  0
 23 24  1  0  0  0
  4  9  1  0  0  0
  9 10  1  0  0  0
 28 27  1  0  0  0
 27 29  1  0  0  0
 10 11  2  0  0  0
 20 21  1  0  0  0
 21 22  1  0  0  0
 11 12  1  0  0  0
 19 16  1  0  0  0
 20 16  1  0  0  0
 18 17  1  0  0  0
 18 19  1  0  0  0
 43  1  1  0  0  0
  1 24  1  0  0  0
 24 31  1  0  0  0
 46 43  1  0  0  0
 51 46  2  0  0  0
 47 46  1  0  0  0
 48 47  2  0  0  0
 49 48  1  0  0  0
 49 50  2  0  0  0
 50 51  1  0  0  0
 28 31  1  0  0  0
 29 30  1  0  0  0
 36 40  1  0  0  0
 42 37  2  0  0  0
 38 37  1  0  0  0
 39 38  2  0  0  0
 40 39  1  0  0  0
 40 41  2  0  0  0
 41 42  1  0  0  0
  2  5  1  0  0  0
 26 32  1  0  0  0
 23 25  1  0  0  0
M  END
> <minimizedAffinity>
-11.99199

$$$$
3LPK_Z76_A_456


 51 55  0  0  0  0  0  0  0  0999 V2000
   22.4357   10.9292   23.0474 C   0  0  0  0  0  0  0  0  0  0  0  0
   23.5220   11.8095   23.4966 N   0  0  0  0  0  0  0  0  0  0  0  0
   22.2783   13.6347   23.0089 O   0  0  0  0  0  0  0  0  0  0  0  0
   23.3262   13.1469   23.4270 C   0  0  0  0  0  0  0  0  0  0  0  0
   24.3673   11.4380   23.8381 H   0  0  0  0  0  0  0  0  0  0  0  0
   26.7078   15.4964   24.7479 C   0  0  0  0  0  0  0  0  0  0  0  0
   26.9034   14.3975   23.8609 C   0  0  0  0  0  0  0  0  0  0  0  0
   25.7746   13.6250   23.4377 C   0  0  0  0  0  0  0  0  0  0  0  0
   24.4663   13.9474   23.8851 C   0  0  0  0  0  0  0  0  0  0  0  0
   24.2736   15.0516   24.7697 C   0  0  0  0  0  0  0  0  0  0  0  0
   25.3953   15.8242   25.1999 C   0  0  0  0  0  0  0  0  0  0  0  0
   25.1968   16.9616   26.1130 C   0  0  0  0  0  0  0  0  0  0  0  0
   29.0271   15.0796   22.9168 N   0  0  0  0  0  0  0  0  0  0  0  0
   28.6953   12.8967   23.4192 O   0  0  0  0  0  0  0  0  0  0  0  0
   28.2594   14.0469   23.3955 C   0  0  0  0  0  0  0  0  0  0  0  0
   30.3815   14.8024   22.4369 C   0  0  0  0  0  0  0  0  0  0  0  0
   28.6621   16.4876   22.8330 C   0  0  0  0  0  0  0  0  0  0  0  0
   29.9619   17.2527   22.8040 C   0  0  0  0  0  0  0  0  0  0  0  0
   31.0345   16.1737   22.6603 C   0  0  0  0  0  0  0  0  0  0  0  0
   30.2369   14.4818   20.9405 C   0  0  0  0  0  0  0  0  0  0  0  0
   31.1916   15.2128   20.1841 O   0  0  0  0  0  0  0  0  0  0  0  0
   30.9618   15.0681   18.7866 C   0  0  0  0  0  0  0  0  0  0  0  0
   20.8632    9.2049   23.7436 O   0  0  0  0  0  0  0  0  0  0  0  0
   21.8323   10.1379   24.2436 C   0  0  0  0  0  0  0  0  0  0  0  0
   21.2833    8.6188   23.0948 H   0  0  0  0  0  0  0  0  0  0  0  0
   21.0808   10.3187   26.5418 N   0  0  0  0  0  0  0  0  0  0  0  0
   18.9836   12.2105   25.8445 N   0  0  0  0  0  0  0  0  0  0  0  0
   19.7333   11.4515   24.8147 C   0  0  0  0  0  0  0  0  0  0  0  0
   19.0103   11.4600   27.1219 C   0  0  0  0  0  0  0  0  0  0  0  0
   20.4318   11.1559   27.5558 C   0  0  0  0  0  0  0  0  0  0  0  0
   21.1466   11.0652   25.2771 C   0  0  0  0  0  0  0  0  0  0  0  0
   22.0242   10.0801   26.8478 H   0  0  0  0  0  0  0  0  0  0  0  0
   17.4268   12.8644   25.3518 S   0  0  0  0  0  0  0  0  0  0  0  0
   16.8254   13.3673   26.5499 O   0  0  0  0  0  0  0  0  0  0  0  0
   17.7144   13.7497   24.2655 O   0  0  0  0  0  0  0  0  0  0  0  0
   15.7668    9.6752   21.4913 C   0  0  0  0  0  0  0  0  0  0  0  0
   15.7799   10.6633   25.6903 C   0  0  0  0  0  0  0  0  0  0  0  0
   15.0464    9.5339   25.2278 C   0  0  0  0  0  0  0  0  0  0  0  0
   15.0435    9.2095   23.8423 C   0  0  0  0  0  0  0  0  0  0  0  0
   15.7723   10.0124   22.9202 C   0  0  0  0  0  0  0  0  0  0  0  0
   16.5067   11.1419   23.3817 C   0  0  0  0  0  0  0  0  0  0  0  0
   16.5096   11.4673   24.7672 C   0  0  0  0  0  0  0  0  0  0  0  0
   22.9806    9.9362   22.0064 C   0  0  0  0  0  0  0  0  0  0  0  0
   26.5631   10.7641   18.7112 F   0  0  0  0  0  0  0  0  0  0  0  0
   22.4816   13.1802   18.2978 F   0  0  0  0  0  0  0  0  0  0  0  0
   23.5163   10.6543   20.7790 C   0  0  0  0  0  0  0  0  0  0  0  0
   24.8297   10.3641   20.3069 C   0  0  0  0  0  0  0  0  0  0  0  0
   25.3363   11.0330   19.1539 C   0  0  0  0  0  0  0  0  0  0  0  0
   24.5375   11.9880   18.4727 C   0  0  0  0  0  0  0  0  0  0  0  0
   23.2280   12.2800   18.9415 C   0  0  0  0  0  0  0  0  0  0  0  0
   22.7133   11.6142   20.0929 C   0  0  0  0  0  0  0  0  0  0  0  0
  7  6  2  0  0  0
  6 11  1  0  0  0
 44 48  1  0  0  0
 17 13  1  0  0  0
 16 13  1  0  0  0
 13 15  1  0  0  0
 15 14  2  0  0  0
 35 33  2  0  0  0
 42 33  1  0  0  0
 33 27  1  0  0  0
 33 34  2  0  0  0
 15  7  1  0  0  0
  8  7  1  0  0  0
 45 50  1  0  0  0
  1  2  1  0  0  0
  2  4  1  0  0  0
  3  4  2  0  0  0
  8  9  2  0  0  0
 31 26  1  0  0  0
 26 30  1  0  0  0
 23 24  1  0  0  0
  4  9  1  0  0  0
  9 10  1  0  0  0
 28 27  1  0  0  0
 27 29  1  0  0  0
 10 11  2  0  0  0
 20 21  1  0  0  0
 21 22  1  0  0  0
 11 12  1  0  0  0
 19 16  1  0  0  0
 20 16  1  0  0  0
 18 17  1  0  0  0
 18 19  1  0  0  0
 43  1  1  0  0  0
  1 24  1  0  0  0
 24 31  1  0  0  0
 46 43  1  0  0  0
 51 46  2  0  0  0
 47 46  1  0  0  0
 48 47  2  0  0  0
 49 48  1  0  0  0
 49 50  2  0  0  0
 50 51  1  0  0  0
 28 31  1  0  0  0
 29 30  1  0  0  0
 36 40  1  0  0  0
 42 37  2  0  0  0
 38 37  1  0  0  0
 39 38  2  0  0  0
 40 39  1  0  0  0
 40 41  2  0  0  0
 41 42  1  0  0  0
  2  5  1  0  0  0
 26 32  1  0  0  0
 23 25  1  0  0  0
M  END
> <minimizedAffinity>
-11.91075

$$$$
3LPK_Z76_A_456


 51 55  0  0  0  0  0  0  0  0999 V2000
   22.3712   10.9134   22.9475 C   0  0  0  0  0  0  0  0  0  0  0  0
   23.4724   11.7923   23.3618 N   0  0  0  0  0  0  0  0  0  0  0  0
   22.1916   13.6176   22.9827 O   0  0  0  0  0  0  0  0  0  0  0  0
   23.2632   13.1292   23.3347 C   0  0  0  0  0  0  0  0  0  0  0  0
   24.3370   11.4201   23.6505 H   0  0  0  0  0  0  0  0  0  0  0  0
   26.6509   15.5036   24.5939 C   0  0  0  0  0  0  0  0  0  0  0  0
   25.3241   15.9704   24.8276 C   0  0  0  0  0  0  0  0  0  0  0  0
   24.2128   15.1759   24.3988 C   0  0  0  0  0  0  0  0  0  0  0  0
   24.4193   13.9285   23.7532 C   0  0  0  0  0  0  0  0  0  0  0  0
   25.7494   13.4619   23.5251 C   0  0  0  0  0  0  0  0  0  0  0  0
   26.8633   14.2510   23.9459 C   0  0  0  0  0  0  0  0  0  0  0  0
   28.2345   13.7706   23.7095 C   0  0  0  0  0  0  0  0  0  0  0  0
   25.0246   18.3688   24.6707 N   0  0  0  0  0  0  0  0  0  0  0  0
   24.9818   17.3845   26.7095 O   0  0  0  0  0  0  0  0  0  0  0  0
   25.0963   17.2694   25.4900 C   0  0  0  0  0  0  0  0  0  0  0  0
   24.8024   19.6890   25.2615 C   0  0  0  0  0  0  0  0  0  0  0  0
   25.1292   18.3970   23.2177 C   0  0  0  0  0  0  0  0  0  0  0  0
   24.4351   19.6613   22.7758 C   0  0  0  0  0  0  0  0  0  0  0  0
   24.1447   20.4096   24.0762 C   0  0  0  0  0  0  0  0  0  0  0  0
   26.2006   20.2530   25.5612 C   0  0  0  0  0  0  0  0  0  0  0  0
   26.3116   20.5938   26.9359 O   0  0  0  0  0  0  0  0  0  0  0  0
   27.4171   19.9332   27.5429 C   0  0  0  0  0  0  0  0  0  0  0  0
   20.9185    9.1009   23.6793 O   0  0  0  0  0  0  0  0  0  0  0  0
   21.8107   10.1168   24.1609 C   0  0  0  0  0  0  0  0  0  0  0  0
   21.3887    8.5277   23.0538 H   0  0  0  0  0  0  0  0  0  0  0  0
   21.0862   10.3486   26.4632 N   0  0  0  0  0  0  0  0  0  0  0  0
   18.7800   11.9556   25.7127 N   0  0  0  0  0  0  0  0  0  0  0  0
   19.5901   11.2241   24.7090 C   0  0  0  0  0  0  0  0  0  0  0  0
   18.9131   11.2886   27.0292 C   0  0  0  0  0  0  0  0  0  0  0  0
   20.3672   11.1677   27.4442 C   0  0  0  0  0  0  0  0  0  0  0  0
   21.0457   11.0224   25.1572 C   0  0  0  0  0  0  0  0  0  0  0  0
   22.0556   10.2330   26.7586 H   0  0  0  0  0  0  0  0  0  0  0  0
   17.1517   12.4053   25.2227 S   0  0  0  0  0  0  0  0  0  0  0  0
   17.1187   12.2373   23.8012 O   0  0  0  0  0  0  0  0  0  0  0  0
   16.2795   11.6381   26.0577 O   0  0  0  0  0  0  0  0  0  0  0  0
   16.4041   17.4488   23.8684 C   0  0  0  0  0  0  0  0  0  0  0  0
   17.1385   14.5490   26.9765 C   0  0  0  0  0  0  0  0  0  0  0  0
   17.0210   15.9294   27.3052 C   0  0  0  0  0  0  0  0  0  0  0  0
   16.7786   16.8844   26.2785 C   0  0  0  0  0  0  0  0  0  0  0  0
   16.6538   16.4609   24.9253 C   0  0  0  0  0  0  0  0  0  0  0  0
   16.7706   15.0804   24.5954 C   0  0  0  0  0  0  0  0  0  0  0  0
   17.0137   14.1248   25.6217 C   0  0  0  0  0  0  0  0  0  0  0  0
   22.8791    9.9251   21.8836 C   0  0  0  0  0  0  0  0  0  0  0  0
   26.5647   10.7364   18.6998 F   0  0  0  0  0  0  0  0  0  0  0  0
   22.5382   13.2293   18.2105 F   0  0  0  0  0  0  0  0  0  0  0  0
   23.4607   10.6509   20.6819 C   0  0  0  0  0  0  0  0  0  0  0  0
   24.7814   10.3444   20.2416 C   0  0  0  0  0  0  0  0  0  0  0  0
   25.3310   11.0205   19.1127 C   0  0  0  0  0  0  0  0  0  0  0  0
   24.5678   11.9988   18.4240 C   0  0  0  0  0  0  0  0  0  0  0  0
   23.2510   12.3071   18.8611 C   0  0  0  0  0  0  0  0  0  0  0  0
   22.6935   11.6343   19.9882 C   0  0  0  0  0  0  0  0  0  0  0  0
  7  6  2  0  0  0
  6 11  1  0  0  0
 44 48  1  0  0  0
 17 13  1  0  0  0
 16 13  1  0  0  0
 13 15  1  0  0  0
 15 14  2  0  0  0
 35 33  2  0  0  0
 42 33  1  0  0  0
 33 27  1  0  0  0
 33 34  2  0  0  0
 15  7  1  0  0  0
  8  7  1  0  0  0
 45 50  1  0  0  0
  1  2  1  0  0  0
  2  4  1  0  0  0
  3  4  2  0  0  0
  8  9  2  0  0  0
 31 26  1  0  0  0
 26 30  1  0  0  0
 23 24  1  0  0  0
  4  9  1  0  0  0
  9 10  1  0  0  0
 28 27  1  0  0  0
 27 29  1  0  0  0
 10 11  2  0  0  0
 20 21  1  0  0  0
 21 22  1  0  0  0
 11 12  1  0  0  0
 19 16  1  0  0  0
 20 16  1  0  0  0
 18 17  1  0  0  0
 18 19  1  0  0  0
 43  1  1  0  0  0
  1 24  1  0  0  0
 24 31  1  0  0  0
 46 43  1  0  0  0
 51 46  2  0  0  0
 47 46  1  0  0  0
 48 47  2  0  0  0
 49 48  1  0  0  0
 49 50  2  0  0  0
 50 51  1  0  0  0
 28 31  1  0  0  0
 29 30  1  0  0  0
 36 40  1  0  0  0
 42 37  2  0  0  0
 38 37  1  0  0  0
 39 38  2  0  0  0
 40 39  1  0  0  0
 40 41  2  0  0  0
 41 42  1  0  0  0
  2  5  1  0  0  0
 26 32  1  0  0  0
 23 25  1  0  0  0
M  END
> <minimizedAffinity>
-11.05433

$$$$
3LPK_Z76_A_456


 51 55  0  0  0  0  0  0  0  0999 V2000
   22.4576   10.9246   22.9969 C   0  0  0  0  0  0  0  0  0  0  0  0
   23.5452   11.8025   23.4479 N   0  0  0  0  0  0  0  0  0  0  0  0
   22.2935   13.6299   22.9902 O   0  0  0  0  0  0  0  0  0  0  0  0
   23.3456   13.1401   23.3949 C   0  0  0  0  0  0  0  0  0  0  0  0
   24.3939   11.4292   23.7789 H   0  0  0  0  0  0  0  0  0  0  0  0
   26.7317   15.4820   24.7175 C   0  0  0  0  0  0  0  0  0  0  0  0
   26.9270   14.3740   23.8418 C   0  0  0  0  0  0  0  0  0  0  0  0
   25.7966   13.6042   23.4180 C   0  0  0  0  0  0  0  0  0  0  0  0
   24.4872   13.9381   23.8535 C   0  0  0  0  0  0  0  0  0  0  0  0
   24.2949   15.0514   24.7267 C   0  0  0  0  0  0  0  0  0  0  0  0
   25.4182   15.8215   25.1575 C   0  0  0  0  0  0  0  0  0  0  0  0
   25.2200   16.9684   26.0588 C   0  0  0  0  0  0  0  0  0  0  0  0
   29.0677   15.0382   22.9238 N   0  0  0  0  0  0  0  0  0  0  0  0
   28.7075   12.8565   23.4112 O   0  0  0  0  0  0  0  0  0  0  0  0
   28.2841   14.0114   23.3889 C   0  0  0  0  0  0  0  0  0  0  0  0
   30.4241   14.7491   22.4568 C   0  0  0  0  0  0  0  0  0  0  0  0
   28.7185   16.4505   22.8435 C   0  0  0  0  0  0  0  0  0  0  0  0
   30.0266   17.2018   22.8322 C   0  0  0  0  0  0  0  0  0  0  0  0
   31.0892   16.1122   22.6943 C   0  0  0  0  0  0  0  0  0  0  0  0
   30.2920   14.4377   20.9573 C   0  0  0  0  0  0  0  0  0  0  0  0
   31.1281   15.2995   20.1982 O   0  0  0  0  0  0  0  0  0  0  0  0
   30.9618   15.0798   18.8014 C   0  0  0  0  0  0  0  0  0  0  0  0
   20.9917    9.1023   23.6761 O   0  0  0  0  0  0  0  0  0  0  0  0
   21.8626   10.1212   24.1892 C   0  0  0  0  0  0  0  0  0  0  0  0
   21.4848    8.5335   23.0643 H   0  0  0  0  0  0  0  0  0  0  0  0
   21.0875   10.3559   26.4746 N   0  0  0  0  0  0  0  0  0  0  0  0
   18.7682   11.9150   25.6660 N   0  0  0  0  0  0  0  0  0  0  0  0
   19.6116   11.1914   24.6843 C   0  0  0  0  0  0  0  0  0  0  0  0
   18.8867   11.2598   26.9898 C   0  0  0  0  0  0  0  0  0  0  0  0
   20.3341   11.1685   27.4349 C   0  0  0  0  0  0  0  0  0  0  0  0
   21.0612   11.0196   25.1632 C   0  0  0  0  0  0  0  0  0  0  0  0
   22.0526   10.2601   26.7904 H   0  0  0  0  0  0  0  0  0  0  0  0
   17.1422   12.3313   25.1401 S   0  0  0  0  0  0  0  0  0  0  0  0
   17.1303   12.1173   23.7244 O   0  0  0  0  0  0  0  0  0  0  0  0
   16.2665   11.5821   25.9877 O   0  0  0  0  0  0  0  0  0  0  0  0
   16.2105   17.3016   23.6373 C   0  0  0  0  0  0  0  0  0  0  0  0
   17.1583   14.5393   26.8122 C   0  0  0  0  0  0  0  0  0  0  0  0
   17.0227   15.9282   27.0949 C   0  0  0  0  0  0  0  0  0  0  0  0
   16.7099   16.8378   26.0462 C   0  0  0  0  0  0  0  0  0  0  0  0
   16.5328   16.3604   24.7170 C   0  0  0  0  0  0  0  0  0  0  0  0
   16.6676   14.9713   24.4332 C   0  0  0  0  0  0  0  0  0  0  0  0
   16.9812   14.0612   25.4814 C   0  0  0  0  0  0  0  0  0  0  0  0
   22.9978    9.9423   21.9434 C   0  0  0  0  0  0  0  0  0  0  0  0
   26.5668   10.8217   18.6468 F   0  0  0  0  0  0  0  0  0  0  0  0
   22.4640   13.2054   18.2566 F   0  0  0  0  0  0  0  0  0  0  0  0
   23.5250   10.6727   20.7197 C   0  0  0  0  0  0  0  0  0  0  0  0
   24.8399   10.3968   20.2431 C   0  0  0  0  0  0  0  0  0  0  0  0
   25.3386   11.0773   19.0935 C   0  0  0  0  0  0  0  0  0  0  0  0
   24.5303   12.0297   18.4199 C   0  0  0  0  0  0  0  0  0  0  0  0
   23.2193   12.3075   18.8931 C   0  0  0  0  0  0  0  0  0  0  0  0
   22.7125   11.6300   20.0412 C   0  0  0  0  0  0  0  0  0  0  0  0
  7  6  2  0  0  0
  6 11  1  0  0  0
 44 48  1  0  0  0
 17 13  1  0  0  0
 16 13  1  0  0  0
 13 15  1  0  0  0
 15 14  2  0  0  0
 35 33  2  0  0  0
 42 33  1  0  0  0
 33 27  1  0  0  0
 33 34  2  0  0  0
 15  7  1  0  0  0
  8  7  1  0  0  0
 45 50  1  0  0  0
  1  2  1  0  0  0
  2  4  1  0  0  0
  3  4  2  0  0  0
  8  9  2  0  0  0
 31 26  1  0  0  0
 26 30  1  0  0  0
 23 24  1  0  0  0
  4  9  1  0  0  0
  9 10  1  0  0  0
 28 27  1  0  0  0
 27 29  1  0  0  0
 10 11  2  0  0  0
 20 21  1  0  0  0
 21 22  1  0  0  0
 11 12  1  0  0  0
 19 16  1  0  0  0
 20 16  1  0  0  0
 18 17  1  0  0  0
 18 19  1  0  0  0
 43  1  1  0  0  0
  1 24  1  0  0  0
 24 31  1  0  0  0
 46 43  1  0  0  0
 51 46  2  0  0  0
 47 46  1  0  0  0
 48 47  2  0  0  0
 49 48  1  0  0  0
 49 50  2  0  0  0
 50 51  1  0  0  0
 28 31  1  0  0  0
 29 30  1  0  0  0
 36 40  1  0  0  0
 42 37  2  0  0  0
 38 37  1  0  0  0
 39 38  2  0  0  0
 40 39  1  0  0  0
 40 41  2  0  0  0
 41 42  1  0  0  0
  2  5  1  0  0  0
 26 32  1  0  0  0
 23 25  1  0  0  0
M  END
> <minimizedAffinity>
-11.03762

$$$$
3LPK_Z76_A_456


 51 55  0  0  0  0  0  0  0  0999 V2000
   22.3733   11.1818   23.0981 C   0  0  0  0  0  0  0  0  0  0  0  0
   23.6210   11.9228   23.3241 N   0  0  0  0  0  0  0  0  0  0  0  0
   22.4951   13.8838   23.2727 O   0  0  0  0  0  0  0  0  0  0  0  0
   23.5552   13.2731   23.3903 C   0  0  0  0  0  0  0  0  0  0  0  0
   24.4795   11.4515   23.4245 H   0  0  0  0  0  0  0  0  0  0  0  0
   27.3541   15.2289   24.0558 C   0  0  0  0  0  0  0  0  0  0  0  0
   26.1429   15.8630   24.4602 C   0  0  0  0  0  0  0  0  0  0  0  0
   24.8925   15.2057   24.2270 C   0  0  0  0  0  0  0  0  0  0  0  0
   24.8486   13.9293   23.6067 C   0  0  0  0  0  0  0  0  0  0  0  0
   26.0640   13.2951   23.2073 C   0  0  0  0  0  0  0  0  0  0  0  0
   27.3152   13.9466   23.4324 C   0  0  0  0  0  0  0  0  0  0  0  0
   28.5680   13.2935   23.0194 C   0  0  0  0  0  0  0  0  0  0  0  0
   27.4019   17.8033   25.1790 N   0  0  0  0  0  0  0  0  0  0  0  0
   25.1685   17.7413   25.5470 O   0  0  0  0  0  0  0  0  0  0  0  0
   26.1745   17.1935   25.0982 C   0  0  0  0  0  0  0  0  0  0  0  0
   27.5061   19.1235   25.8017 C   0  0  0  0  0  0  0  0  0  0  0  0
   28.6761   17.2942   24.6892 C   0  0  0  0  0  0  0  0  0  0  0  0
   29.5570   18.5024   24.4892 C   0  0  0  0  0  0  0  0  0  0  0  0
   28.7625   19.6567   25.0989 C   0  0  0  0  0  0  0  0  0  0  0  0
   27.7611   18.8620   27.2949 C   0  0  0  0  0  0  0  0  0  0  0  0
   26.7554   19.4818   28.0838 O   0  0  0  0  0  0  0  0  0  0  0  0
   27.1113   20.8203   28.4135 C   0  0  0  0  0  0  0  0  0  0  0  0
   20.9258    9.4774   24.0627 O   0  0  0  0  0  0  0  0  0  0  0  0
   21.9090   10.4672   24.3999 C   0  0  0  0  0  0  0  0  0  0  0  0
   21.3008    8.8551   23.4200 H   0  0  0  0  0  0  0  0  0  0  0  0
   21.2411   10.7463   26.7140 N   0  0  0  0  0  0  0  0  0  0  0  0
   19.2002   12.7018   26.0255 N   0  0  0  0  0  0  0  0  0  0  0  0
   19.8845   11.8826   24.9964 C   0  0  0  0  0  0  0  0  0  0  0  0
   19.2385   11.9886   27.3238 C   0  0  0  0  0  0  0  0  0  0  0  0
   20.6600   11.6389   27.7218 C   0  0  0  0  0  0  0  0  0  0  0  0
   21.2955   11.4519   25.4255 C   0  0  0  0  0  0  0  0  0  0  0  0
   22.1836   10.4780   26.9972 H   0  0  0  0  0  0  0  0  0  0  0  0
   17.6557   13.4047   25.5624 S   0  0  0  0  0  0  0  0  0  0  0  0
   17.0092   13.7539   26.7913 O   0  0  0  0  0  0  0  0  0  0  0  0
   17.9729   14.4181   24.6038 O   0  0  0  0  0  0  0  0  0  0  0  0
   14.4636    9.2075   25.7188 C   0  0  0  0  0  0  0  0  0  0  0  0
   16.8399   11.9307   23.3639 C   0  0  0  0  0  0  0  0  0  0  0  0
   16.1248   10.8772   22.7266 C   0  0  0  0  0  0  0  0  0  0  0  0
   15.3414    9.9800   23.5052 C   0  0  0  0  0  0  0  0  0  0  0  0
   15.2725   10.1351   24.9184 C   0  0  0  0  0  0  0  0  0  0  0  0
   15.9868   11.1889   25.5568 C   0  0  0  0  0  0  0  0  0  0  0  0
   16.7711   12.0862   24.7788 C   0  0  0  0  0  0  0  0  0  0  0  0
   22.5954   10.1323   21.9955 C   0  0  0  0  0  0  0  0  0  0  0  0
   26.5432   10.3767   19.0403 F   0  0  0  0  0  0  0  0  0  0  0  0
   22.8443   13.2376   18.1457 F   0  0  0  0  0  0  0  0  0  0  0  0
   23.3268   10.7244   20.8023 C   0  0  0  0  0  0  0  0  0  0  0  0
   24.6330   10.2591   20.4714 C   0  0  0  0  0  0  0  0  0  0  0  0
   25.3227   10.8092   19.3511 C   0  0  0  0  0  0  0  0  0  0  0  0
   24.7137   11.8196   18.5622 C   0  0  0  0  0  0  0  0  0  0  0  0
   23.4118   12.2860   18.8901 C   0  0  0  0  0  0  0  0  0  0  0  0
   22.7146   11.7398   20.0080 C   0  0  0  0  0  0  0  0  0  0  0  0
  7  6  2  0  0  0
  6 11  1  0  0  0
 44 48  1  0  0  0
 17 13  1  0  0  0
 16 13  1  0  0  0
 13 15  1  0  0  0
 15 14  2  0  0  0
 35 33  2  0  0  0
 42 33  1  0  0  0
 33 27  1  0  0  0
 33 34  2  0  0  0
 15  7  1  0  0  0
  8  7  1  0  0  0
 45 50  1  0  0  0
  1  2  1  0  0  0
  2  4  1  0  0  0
  3  4  2  0  0  0
  8  9  2  0  0  0
 31 26  1  0  0  0
 26 30  1  0  0  0
 23 24  1  0  0  0
  4  9  1  0  0  0
  9 10  1  0  0  0
 28 27  1  0  0  0
 27 29  1  0  0  0
 10 11  2  0  0  0
 20 21  1  0  0  0
 21 22  1  0  0  0
 11 12  1  0  0  0
 19 16  1  0  0  0
 20 16  1  0  0  0
 18 17  1  0  0  0
 18 19  1  0  0  0
 43  1  1  0  0  0
  1 24  1  0  0  0
 24 31  1  0  0  0
 46 43  1  0  0  0
 51 46  2  0  0  0
 47 46  1  0  0  0
 48 47  2  0  0  0
 49 48  1  0  0  0
 49 50  2  0  0  0
 50 51  1  0  0  0
 28 31  1  0  0  0
 29 30  1  0  0  0
 36 40  1  0  0  0
 42 37  2  0  0  0
 38 37  1  0  0  0
 39 38  2  0  0  0
 40 39  1  0  0  0
 40 41  2  0  0  0
 41 42  1  0  0  0
  2  5  1  0  0  0
 26 32  1  0  0  0
 23 25  1  0  0  0
M  END
> <minimizedAffinity>
-10.63407

$$$$
3LPK_Z76_A_456


 51 55  0  0  0  0  0  0  0  0999 V2000
   22.3657   12.4587   24.2832 C   0  0  0  0  0  0  0  0  0  0  0  0
   23.7922   12.5262   23.9403 N   0  0  0  0  0  0  0  0  0  0  0  0
   23.7587   14.7792   24.1378 O   0  0  0  0  0  0  0  0  0  0  0  0
   24.3784   13.7453   23.8969 C   0  0  0  0  0  0  0  0  0  0  0  0
   24.3065   11.7092   23.7478 H   0  0  0  0  0  0  0  0  0  0  0  0
   28.5777   13.6712   22.8674 C   0  0  0  0  0  0  0  0  0  0  0  0
   28.1416   14.3501   24.0428 C   0  0  0  0  0  0  0  0  0  0  0  0
   26.7471   14.3714   24.3667 C   0  0  0  0  0  0  0  0  0  0  0  0
   25.7994   13.7180   23.5357 C   0  0  0  0  0  0  0  0  0  0  0  0
   26.2404   13.0350   22.3619 C   0  0  0  0  0  0  0  0  0  0  0  0
   27.6294   13.0131   22.0296 C   0  0  0  0  0  0  0  0  0  0  0  0
   28.0839   12.3102   20.8187 C   0  0  0  0  0  0  0  0  0  0  0  0
   29.5805   16.2526   24.4632 N   0  0  0  0  0  0  0  0  0  0  0  0
   29.5096   14.5696   25.9764 O   0  0  0  0  0  0  0  0  0  0  0  0
   29.1158   15.0405   24.9102 C   0  0  0  0  0  0  0  0  0  0  0  0
   30.5505   16.9907   25.2731 C   0  0  0  0  0  0  0  0  0  0  0  0
   29.2067   16.9451   23.2370 C   0  0  0  0  0  0  0  0  0  0  0  0
   29.5086   18.4038   23.4752 C   0  0  0  0  0  0  0  0  0  0  0  0
   30.2591   18.4239   24.8063 C   0  0  0  0  0  0  0  0  0  0  0  0
   31.9346   16.5135   24.8046 C   0  0  0  0  0  0  0  0  0  0  0  0
   32.8046   17.6221   24.6248 O   0  0  0  0  0  0  0  0  0  0  0  0
   33.9044   17.5655   25.5271 C   0  0  0  0  0  0  0  0  0  0  0  0
   21.4919   10.4842   25.4095 O   0  0  0  0  0  0  0  0  0  0  0  0
   22.1561   11.7346   25.6444 C   0  0  0  0  0  0  0  0  0  0  0  0
   22.0155    9.9512   24.7909 H   0  0  0  0  0  0  0  0  0  0  0  0
   21.3776   11.8942   27.9352 N   0  0  0  0  0  0  0  0  0  0  0  0
   18.9701   13.3290   27.1548 N   0  0  0  0  0  0  0  0  0  0  0  0
   19.8496   12.6680   26.1608 C   0  0  0  0  0  0  0  0  0  0  0  0
   19.1308   12.6641   28.4693 C   0  0  0  0  0  0  0  0  0  0  0  0
   20.5827   12.6496   28.9087 C   0  0  0  0  0  0  0  0  0  0  0  0
   21.3085   12.5728   26.6329 C   0  0  0  0  0  0  0  0  0  0  0  0
   22.3479   11.8495   28.2467 H   0  0  0  0  0  0  0  0  0  0  0  0
   17.3210   13.6588   26.6395 S   0  0  0  0  0  0  0  0  0  0  0  0
   16.5090   13.4615   27.8022 O   0  0  0  0  0  0  0  0  0  0  0  0
   17.3711   14.9409   26.0068 O   0  0  0  0  0  0  0  0  0  0  0  0
   15.9640    8.7333   25.3246 C   0  0  0  0  0  0  0  0  0  0  0  0
   17.0034   12.7220   24.0524 C   0  0  0  0  0  0  0  0  0  0  0  0
   16.7054   11.7217   23.0839 C   0  0  0  0  0  0  0  0  0  0  0  0
   16.3626   10.4066   23.5056 C   0  0  0  0  0  0  0  0  0  0  0  0
   16.3177   10.0913   24.8929 C   0  0  0  0  0  0  0  0  0  0  0  0
   16.6149   11.0912   25.8625 C   0  0  0  0  0  0  0  0  0  0  0  0
   16.9584   12.4066   25.4414 C   0  0  0  0  0  0  0  0  0  0  0  0
   21.6112   11.6949   23.1815 C   0  0  0  0  0  0  0  0  0  0  0  0
   24.4402    8.1836   21.1698 F   0  0  0  0  0  0  0  0  0  0  0  0
   24.1614   12.4108   18.9970 F   0  0  0  0  0  0  0  0  0  0  0  0
   22.5551   11.2109   22.0933 C   0  0  0  0  0  0  0  0  0  0  0  0
   23.0718    9.8834   22.1442 C   0  0  0  0  0  0  0  0  0  0  0  0
   23.9556    9.4232   21.1241 C   0  0  0  0  0  0  0  0  0  0  0  0
   24.3237   10.2822   20.0561 C   0  0  0  0  0  0  0  0  0  0  0  0
   23.8107   11.6065   20.0030 C   0  0  0  0  0  0  0  0  0  0  0  0
   22.9250   12.0739   21.0185 C   0  0  0  0  0  0  0  0  0  0  0  0
  7  6  2  0  0  0
  6 11  1  0  0  0
 44 48  1  0  0  0
 17 13  1  0  0  0
 16 13  1  0  0  0
 13 15  1  0  0  0
 15 14  2  0  0  0
 35 33  2  0  0  0
 42 33  1  0  0  0
 33 27  1  0  0  0
 33 34  2  0  0  0
 15  7  1  0  0  0
  8  7  1  0  0  0
 45 50  1  0  0  0
  1  2  1  0  0  0
  2  4  1  0  0  0
  3  4  2  0  0  0
  8  9  2  0  0  0
 31 26  1  0  0  0
 26 30  1  0  0  0
 23 24  1  0  0  0
  4  9  1  0  0  0
  9 10  1  0  0  0
 28 27  1  0  0  0
 27 29  1  0  0  0
 10 11  2  0  0  0
 20 21  1  0  0  0
 21 22  1  0  0  0
 11 12  1  0  0  0
 19 16  1  0  0  0
 20 16  1  0  0  0
 18 17  1  0  0  0
 18 19  1  0  0  0
 43  1  1  0  0  0
  1 24  1  0  0  0
 24 31  1  0  0  0
 46 43  1  0  0  0
 51 46  2  0  0  0
 47 46  1  0  0  0
 48 47  2  0  0  0
 49 48  1  0  0  0
 49 50  2  0  0  0
 50 51  1  0  0  0
 28 31  1  0  0  0
 29 30  1  0  0  0
 36 40  1  0  0  0
 42 37  2  0  0  0
 38 37  1  0  0  0
 39 38  2  0  0  0
 40 39  1  0  0  0
 40 41  2  0  0  0
 41 42  1  0  0  0
  2  5  1  0  0  0
 26 32  1  0  0  0
 23 25  1  0  0  0
M  END
> <minimizedAffinity>
-10.59626

$$$$
3LPK_Z76_A_456


 51 55  0  0  0  0  0  0  0  0999 V2000
   23.9243   13.1850   23.8183 C   0  0  0  0  0  0  0  0  0  0  0  0
   22.5962   13.1049   24.4401 N   0  0  0  0  0  0  0  0  0  0  0  0
   23.0034   10.9786   25.0948 O   0  0  0  0  0  0  0  0  0  0  0  0
   22.2476   11.9467   25.0474 C   0  0  0  0  0  0  0  0  0  0  0  0
   21.9780   13.8708   24.4159 H   0  0  0  0  0  0  0  0  0  0  0  0
   18.2658   11.9496   26.7342 C   0  0  0  0  0  0  0  0  0  0  0  0
   18.4437   11.8809   25.3213 C   0  0  0  0  0  0  0  0  0  0  0  0
   19.7682   11.8876   24.7775 C   0  0  0  0  0  0  0  0  0  0  0  0
   20.9018   11.9532   25.6299 C   0  0  0  0  0  0  0  0  0  0  0  0
   20.7199   12.0170   27.0447 C   0  0  0  0  0  0  0  0  0  0  0  0
   19.4015   12.0154   27.5945 C   0  0  0  0  0  0  0  0  0  0  0  0
   19.2140   12.0826   29.0529 C   0  0  0  0  0  0  0  0  0  0  0  0
   16.6278   10.6122   24.3418 N   0  0  0  0  0  0  0  0  0  0  0  0
   16.8848   12.7882   23.7705 O   0  0  0  0  0  0  0  0  0  0  0  0
   17.2733   11.8211   24.4242 C   0  0  0  0  0  0  0  0  0  0  0  0
   15.4604   10.4816   23.4691 C   0  0  0  0  0  0  0  0  0  0  0  0
   16.9557    9.3844   25.0544 C   0  0  0  0  0  0  0  0  0  0  0  0
   15.6865    8.5696   25.0839 C   0  0  0  0  0  0  0  0  0  0  0  0
   14.7270    9.3280   24.1677 C   0  0  0  0  0  0  0  0  0  0  0  0
   16.0096   10.0551   22.0981 C   0  0  0  0  0  0  0  0  0  0  0  0
   15.1522    9.0931   21.5000 O   0  0  0  0  0  0  0  0  0  0  0  0
   15.8955    8.0056   20.9599 C   0  0  0  0  0  0  0  0  0  0  0  0
   24.5396   15.5388   23.7096 O   0  0  0  0  0  0  0  0  0  0  0  0
   24.7650   14.3310   24.4514 C   0  0  0  0  0  0  0  0  0  0  0  0
   23.5914   15.7432   23.7049 H   0  0  0  0  0  0  0  0  0  0  0  0
   26.9306   15.0520   25.2697 N   0  0  0  0  0  0  0  0  0  0  0  0
   28.3211   13.9048   22.9862 N   0  0  0  0  0  0  0  0  0  0  0  0
   26.8453   14.0446   23.0203 C   0  0  0  0  0  0  0  0  0  0  0  0
   28.9290   14.9125   23.8867 C   0  0  0  0  0  0  0  0  0  0  0  0
   28.3754   14.8026   25.2947 C   0  0  0  0  0  0  0  0  0  0  0  0
   26.2818   14.0189   24.4494 C   0  0  0  0  0  0  0  0  0  0  0  0
   26.5608   15.0169   26.2196 H   0  0  0  0  0  0  0  0  0  0  0  0
   29.0515   13.7329   21.3954 S   0  0  0  0  0  0  0  0  0  0  0  0
   28.8023   14.9721   20.7228 O   0  0  0  0  0  0  0  0  0  0  0  0
   30.3945   13.3049   21.6394 O   0  0  0  0  0  0  0  0  0  0  0  0
   25.4961   12.0052   17.9019 C   0  0  0  0  0  0  0  0  0  0  0  0
   28.3507   11.0823   21.0015 C   0  0  0  0  0  0  0  0  0  0  0  0
   27.6235   10.0339   20.3694 C   0  0  0  0  0  0  0  0  0  0  0  0
   26.6824   10.3404   19.3471 C   0  0  0  0  0  0  0  0  0  0  0  0
   26.4681   11.6923   18.9568 C   0  0  0  0  0  0  0  0  0  0  0  0
   27.1953   12.7418   19.5879 C   0  0  0  0  0  0  0  0  0  0  0  0
   28.1362   12.4360   20.6109 C   0  0  0  0  0  0  0  0  0  0  0  0
   23.7672   13.4455   22.3103 C   0  0  0  0  0  0  0  0  0  0  0  0
   21.8060   10.9871   18.5039 F   0  0  0  0  0  0  0  0  0  0  0  0
   24.3461    8.5627   21.7190 F   0  0  0  0  0  0  0  0  0  0  0  0
   23.5269   12.1551   21.5445 C   0  0  0  0  0  0  0  0  0  0  0  0
   22.7542   12.1770   20.3467 C   0  0  0  0  0  0  0  0  0  0  0  0
   22.5280   10.9695   19.6226 C   0  0  0  0  0  0  0  0  0  0  0  0
   23.0699    9.7437   20.0895 C   0  0  0  0  0  0  0  0  0  0  0  0
   23.8401    9.7187   21.2837 C   0  0  0  0  0  0  0  0  0  0  0  0
   24.0723   10.9222   22.0128 C   0  0  0  0  0  0  0  0  0  0  0  0
  7  6  2  0  0  0
  6 11  1  0  0  0
 44 48  1  0  0  0
 17 13  1  0  0  0
 16 13  1  0  0  0
 13 15  1  0  0  0
 15 14  2  0  0  0
 35 33  2  0  0  0
 42 33  1  0  0  0
 33 27  1  0  0  0
 33 34  2  0  0  0
 15  7  1  0  0  0
  8  7  1  0  0  0
 45 50  1  0  0  0
  1  2  1  0  0  0
  2  4  1  0  0  0
  3  4  2  0  0  0
  8  9  2  0  0  0
 31 26  1  0  0  0
 26 30  1  0  0  0
 23 24  1  0  0  0
  4  9  1  0  0  0
  9 10  1  0  0  0
 28 27  1  0  0  0
 27 29  1  0  0  0
 10 11  2  0  0  0
 20 21  1  0  0  0
 21 22  1  0  0  0
 11 12  1  0  0  0
 19 16  1  0  0  0
 20 16  1  0  0  0
 18 17  1  0  0  0
 18 19  1  0  0  0
 43  1  1  0  0  0
  1 24  1  0  0  0
 24 31  1  0  0  0
 46 43  1  0  0  0
 51 46  2  0  0  0
 47 46  1  0  0  0
 48 47  2  0  0  0
 49 48  1  0  0  0
 49 50  2  0  0  0
 50 51  1  0  0  0
 28 31  1  0  0  0
 29 30  1  0  0  0
 36 40  1  0  0  0
 42 37  2  0  0  0
 38 37  1  0  0  0
 39 38  2  0  0  0
 40 39  1  0  0  0
 40 41  2  0  0  0
 41 42  1  0  0  0
  2  5  1  0  0  0
 26 32  1  0  0  0
 23 25  1  0  0  0
M  END
> <minimizedAffinity>
-10.30238

$$$$
3LPK_Z76_A_456


 51 55  0  0  0  0  0  0  0  0999 V2000
   22.6709   11.1603   23.4576 C   0  0  0  0  0  0  0  0  0  0  0  0
   23.9564   11.8657   23.5391 N   0  0  0  0  0  0  0  0  0  0  0  0
   22.8919   13.8611   23.5104 O   0  0  0  0  0  0  0  0  0  0  0  0
   23.9389   13.2189   23.5560 C   0  0  0  0  0  0  0  0  0  0  0  0
   24.8055   11.3690   23.5802 H   0  0  0  0  0  0  0  0  0  0  0  0
   27.8567   15.0412   23.7286 C   0  0  0  0  0  0  0  0  0  0  0  0
   27.4941   14.2296   22.6139 C   0  0  0  0  0  0  0  0  0  0  0  0
   26.1956   13.6277   22.5744 C   0  0  0  0  0  0  0  0  0  0  0  0
   25.2665   13.8377   23.6271 C   0  0  0  0  0  0  0  0  0  0  0  0
   25.6314   14.6551   24.7397 C   0  0  0  0  0  0  0  0  0  0  0  0
   26.9266   15.2553   24.7885 C   0  0  0  0  0  0  0  0  0  0  0  0
   27.3033   16.0967   25.9361 C   0  0  0  0  0  0  0  0  0  0  0  0
   29.2848   15.0425   21.1999 N   0  0  0  0  0  0  0  0  0  0  0  0
   28.5179   12.9328   20.9026 O   0  0  0  0  0  0  0  0  0  0  0  0
   28.4541   13.9966   21.5173 C   0  0  0  0  0  0  0  0  0  0  0  0
   30.2599   14.8807   20.1208 C   0  0  0  0  0  0  0  0  0  0  0  0
   29.3397   16.3524   21.8356 C   0  0  0  0  0  0  0  0  0  0  0  0
   30.7191   16.8937   21.5531 C   0  0  0  0  0  0  0  0  0  0  0  0
   31.3195   15.9024   20.5569 C   0  0  0  0  0  0  0  0  0  0  0  0
   29.5400   15.3251   18.8374 C   0  0  0  0  0  0  0  0  0  0  0  0
   30.3406   16.2518   18.1174 O   0  0  0  0  0  0  0  0  0  0  0  0
   30.1526   16.1130   16.7131 C   0  0  0  0  0  0  0  0  0  0  0  0
   22.3243    9.0201   24.5668 O   0  0  0  0  0  0  0  0  0  0  0  0
   22.3495   10.4365   24.7970 C   0  0  0  0  0  0  0  0  0  0  0  0
   23.1749    8.7377   24.1957 H   0  0  0  0  0  0  0  0  0  0  0  0
   20.1700   11.3571   24.2667 N   0  0  0  0  0  0  0  0  0  0  0  0
   19.8803   12.5369   26.9102 N   0  0  0  0  0  0  0  0  0  0  0  0
   21.1702   11.9836   26.4321 C   0  0  0  0  0  0  0  0  0  0  0  0
   19.0588   12.9403   25.7447 C   0  0  0  0  0  0  0  0  0  0  0  0
   18.8648   11.7873   24.7782 C   0  0  0  0  0  0  0  0  0  0  0  0
   20.9860   10.8710   25.3887 C   0  0  0  0  0  0  0  0  0  0  0  0
   20.0410   10.6072   23.5874 H   0  0  0  0  0  0  0  0  0  0  0  0
   19.9690   13.6832   28.2413 S   0  0  0  0  0  0  0  0  0  0  0  0
   20.2900   12.9034   29.3984 O   0  0  0  0  0  0  0  0  0  0  0  0
   20.8596   14.7109   27.7974 O   0  0  0  0  0  0  0  0  0  0  0  0
   16.2069   17.1684   27.0040 C   0  0  0  0  0  0  0  0  0  0  0  0
   17.3963   13.6940   29.2673 C   0  0  0  0  0  0  0  0  0  0  0  0
   16.0728   14.2044   29.3910 C   0  0  0  0  0  0  0  0  0  0  0  0
   15.6824   15.3505   28.6434 C   0  0  0  0  0  0  0  0  0  0  0  0
   16.6129   15.9858   27.7736 C   0  0  0  0  0  0  0  0  0  0  0  0
   17.9367   15.4758   27.6486 C   0  0  0  0  0  0  0  0  0  0  0  0
   18.3281   14.3299   28.3965 C   0  0  0  0  0  0  0  0  0  0  0  0
   22.7283   10.1235   22.3226 C   0  0  0  0  0  0  0  0  0  0  0  0
   26.4267   10.3753   19.0612 F   0  0  0  0  0  0  0  0  0  0  0  0
   22.6272   13.1719   18.4208 F   0  0  0  0  0  0  0  0  0  0  0  0
   23.3546   10.7069   21.0669 C   0  0  0  0  0  0  0  0  0  0  0  0
   24.6372   10.2541   20.6404 C   0  0  0  0  0  0  0  0  0  0  0  0
   25.2284   10.7961   19.4613 C   0  0  0  0  0  0  0  0  0  0  0  0
   24.5442   11.7858   18.7086 C   0  0  0  0  0  0  0  0  0  0  0  0
   23.2656   12.2397   19.1317 C   0  0  0  0  0  0  0  0  0  0  0  0
   22.6668   11.7015   20.3090 C   0  0  0  0  0  0  0  0  0  0  0  0
  7  6  2  0  0  0
  6 11  1  0  0  0
 44 48  1  0  0  0
 17 13  1  0  0  0
 16 13  1  0  0  0
 13 15  1  0  0  0
 15 14  2  0  0  0
 35 33  2  0  0  0
 42 33  1  0  0  0
 33 27  1  0  0  0
 33 34  2  0  0  0
 15  7  1  0  0  0
  8  7  1  0  0  0
 45 50  1  0  0  0
  1  2  1  0  0  0
  2  4  1  0  0  0
  3  4  2  0  0  0
  8  9  2  0  0  0
 31 26  1  0  0  0
 26 30  1  0  0  0
 23 24  1  0  0  0
  4  9  1  0  0  0
  9 10  1  0  0  0
 28 27  1  0  0  0
 27 29  1  0  0  0
 10 11  2  0  0  0
 20 21  1  0  0  0
 21 22  1  0  0  0
 11 12  1  0  0  0
 19 16  1  0  0  0
 20 16  1  0  0  0
 18 17  1  0  0  0
 18 19  1  0  0  0
 43  1  1  0  0  0
  1 24  1  0  0  0
 24 31  1  0  0  0
 46 43  1  0  0  0
 51 46  2  0  0  0
 47 46  1  0  0  0
 48 47  2  0  0  0
 49 48  1  0  0  0
 49 50  2  0  0  0
 50 51  1  0  0  0
 28 31  1  0  0  0
 29 30  1  0  0  0
 36 40  1  0  0  0
 42 37  2  0  0  0
 38 37  1  0  0  0
 39 38  2  0  0  0
 40 39  1  0  0  0
 40 41  2  0  0  0
 41 42  1  0  0  0
  2  5  1  0  0  0
 26 32  1  0  0  0
 23 25  1  0  0  0
M  END
> <minimizedAffinity>
-10.29543

$$$$
