3LPK_Z76_A_456
  RCSB PDB12061709383D
Coordinates from PDB:3LPK:A:456 Model:1 without hydrogens
 48 52  0  0  0  0            999 V2000
   26.8180   15.4440   24.4540   C 0  0  0  0  0  0  0  0  0  0  0  0
   26.8000   10.9570   18.7530   F 0  0  0  0  0  0  0  0  0  0  0  0
   28.5350   13.7020   21.9030   N 0  0  0  0  0  0  0  0  0  0  0  0
   29.2400   13.5910   24.0520   O 0  0  0  0  0  0  0  0  0  0  0  0
   17.8210   12.9150   25.2690   S 0  0  0  0  0  0  0  0  0  0  0  0
   26.9870   14.2580   23.6810   C 0  0  0  0  0  0  0  0  0  0  0  0
   22.6960   13.2920   18.1430   F 0  0  0  0  0  0  0  0  0  0  0  0
   23.6440   11.7320   23.2570   N 0  0  0  0  0  0  0  0  0  0  0  0
   22.2620   13.5200   23.1620   O 0  0  0  0  0  0  0  0  0  0  0  0
   25.8400   13.4740   23.3350   C 0  0  0  0  0  0  0  0  0  0  0  0
   21.1940    9.9620   26.3420   N 0  0  0  0  0  0  0  0  0  0  0  0
   21.1370    8.9980   23.6200   O 0  0  0  0  0  0  0  0  0  0  0  0
   24.5400   13.8700   23.7460   C 0  0  0  0  0  0  0  0  0  0  0  0
   19.2910   12.0850   25.7630   N 0  0  0  0  0  0  0  0  0  0  0  0
   24.3740   15.0610   24.5160   C 0  0  0  0  0  0  0  0  0  0  0  0
   29.2820   11.2170   22.5620   O 0  0  0  0  0  0  0  0  0  0  0  0
   25.5140   15.8460   24.8690   C 0  0  0  0  0  0  0  0  0  0  0  0
   17.3120   13.5330   26.4560   O 0  0  0  0  0  0  0  0  0  0  0  0
   28.3340   13.8310   23.2550   C 0  0  0  0  0  0  0  0  0  0  0  0
   18.1980   13.7170   24.1460   O 0  0  0  0  0  0  0  0  0  0  0  0
   29.8470   13.2800   21.4110   C 0  0  0  0  0  0  0  0  0  0  0  0
   27.5740   13.9570   20.8380   C 0  0  0  0  0  0  0  0  0  0  0  0
   28.3900   14.2350   19.6000   C 0  0  0  0  0  0  0  0  0  0  0  0
   29.8250   13.9050   20.0090   C 0  0  0  0  0  0  0  0  0  0  0  0
   29.7950   11.7450   21.3470   C 0  0  0  0  0  0  0  0  0  0  0  0
   25.3430   17.0730   25.6640   C 0  0  0  0  0  0  0  0  0  0  0  0
   23.3810   13.0550   23.3680   C 0  0  0  0  0  0  0  0  0  0  0  0
   22.5430   10.8400   22.8710   C 0  0  0  0  0  0  0  0  0  0  0  0
   22.0720    9.9840   24.0820   C 0  0  0  0  0  0  0  0  0  0  0  0
   23.0140    9.9060   21.7430   C 0  0  0  0  0  0  0  0  0  0  0  0
   23.6170   10.6880   20.5880   C 0  0  0  0  0  0  0  0  0  0  0  0
   24.9680   10.4490   20.2010   C 0  0  0  0  0  0  0  0  0  0  0  0
   25.5380   11.1780   19.1160   C 0  0  0  0  0  0  0  0  0  0  0  0
   24.7650   12.1420   18.4180   C 0  0  0  0  0  0  0  0  0  0  0  0
   23.4180   12.3830   18.8020   C 0  0  0  0  0  0  0  0  0  0  0  0
   22.8400   11.6570   19.8850   C 0  0  0  0  0  0  0  0  0  0  0  0
   20.0450   11.3900   24.6920   C 0  0  0  0  0  0  0  0  0  0  0  0
   19.1820   11.1940   26.9420   C 0  0  0  0  0  0  0  0  0  0  0  0
   20.5470   10.7280   27.4120   C 0  0  0  0  0  0  0  0  0  0  0  0
   21.3940   10.8400   25.1800   C 0  0  0  0  0  0  0  0  0  0  0  0
   15.6250    9.8930   21.5440   C 0  0  0  0  0  0  0  0  0  0  0  0
   29.5580    9.8250   22.6760   C 0  0  0  0  0  0  0  0  0  0  0  0
   15.9480   10.9250   25.7200   C 0  0  0  0  0  0  0  0  0  0  0  0
   15.0680    9.8830   25.3110   C 0  0  0  0  0  0  0  0  0  0  0  0
   14.9630    9.5440   23.9330   C 0  0  0  0  0  0  0  0  0  0  0  0
   15.7360   10.2450   22.9650   C 0  0  0  0  0  0  0  0  0  0  0  0
   16.6170   11.2870   23.3730   C 0  0  0  0  0  0  0  0  0  0  0  0
   16.7220   11.6270   24.7510   C 0  0  0  0  0  0  0  0  0  0  0  0
  6  1  2  0  0  0  0
  1 17  1  0  0  0  0
  2 33  1  0  0  0  0
 22  3  1  0  0  0  0
 21  3  1  0  0  0  0
  3 19  1  0  0  0  0
 19  4  2  0  0  0  0
 20  5  2  0  0  0  0
 48  5  1  0  0  0  0
  5 14  1  0  0  0  0
  5 18  2  0  0  0  0
 19  6  1  0  0  0  0
 10  6  1  0  0  0  0
  7 35  1  0  0  0  0
 28  8  1  0  0  0  0
  8 27  1  0  0  0  0
  9 27  2  0  0  0  0
 10 13  2  0  0  0  0
 40 11  1  0  0  0  0
 11 39  1  0  0  0  0
 12 29  1  0  0  0  0
 27 13  1  0  0  0  0
 13 15  1  0  0  0  0
 37 14  1  0  0  0  0
 14 38  1  0  0  0  0
 15 17  2  0  0  0  0
 25 16  1  0  0  0  0
 16 42  1  0  0  0  0
 17 26  1  0  0  0  0
 24 21  1  0  0  0  0
 25 21  1  0  0  0  0
 23 22  1  0  0  0  0
 23 24  1  0  0  0  0
 30 28  1  0  0  0  0
 28 29  1  0  0  0  0
 29 40  1  0  0  0  0
 31 30  1  0  0  0  0
 36 31  2  0  0  0  0
 32 31  1  0  0  0  0
 33 32  2  0  0  0  0
 34 33  1  0  0  0  0
 34 35  2  0  0  0  0
 35 36  1  0  0  0  0
 37 40  1  0  0  0  0
 38 39  1  0  0  0  0
 41 46  1  0  0  0  0
 48 43  2  0  0  0  0
 44 43  1  0  0  0  0
 45 44  2  0  0  0  0
 46 45  1  0  0  0  0
 46 47  2  0  0  0  0
 47 48  1  0  0  0  0
A    1
C1
A    2
F1
A    3
N1
A    4
O1
A    5
S1
A    6
C2
A    7
F2
A    8
N2
A    9
O2
A   10
C3
A   11
N3
A   12
O3
A   13
C4
A   14
N4
A   15
C5
A   16
O5
A   17
C6
A   18
O6
A   19
C7
A   20
O7
A   21
C8
A   22
C9
A   23
C10
A   24
C11
A   25
C12
A   26
C14
A   27
C15
A   28
C16
A   29
C17
A   30
C18
A   31
C19
A   32
C20
A   33
C21
A   34
C22
A   35
C23
A   36
C24
A   37
C25
A   38
C27
A   39
C28
A   40
C29
A   41
C32
A   42
C34
A   43
C35
A   44
C36
A   45
C37
A   46
C38
A   47
C39
A   48
C40
M  END
>  <InstanceId>
3LPK_Z76_A_456

>  <ChemCompId>
Z76

>  <PdbId>
3LPK

>  <ChainId>
A

>  <ResidueNumber>
456

>  <InsertionCode>


>  <Model>
1

>  <AltIds>


>  <MissingHeavyAtoms>
0

>  <ObservedFormula>
C35 N4 O6 S F2

>  <Name>
N-[(1S,2S)-1-(3,5-difluorobenzyl)-2-hydroxy-2-{(2R)-4-[(3-methylphenyl)sulfonyl]piperazin-2-yl}ethyl]-3-{[(2R)-2-(methoxymethyl)pyrrolidin-1-yl]carbonyl}-5-methylbenzamide

>  <SystematicName>
N-[(1S,2S)-3-(3,5-difluorophenyl)-1-hydroxy-1-[(2R,4S)-4-(3-methylphenyl)sulfonylpiperazin-2-yl]propan-2-yl]-3-[(2R)-2-(methoxymethyl)pyrrolidin-1-yl]carbonyl-5-methyl-benzamide

>  <Synonyms>


>  <Type>
NON-POLYMER

>  <Formula>
C35 H42 F2 N4 O6 S

>  <MolecularWeight>
684.793

>  <ModifiedDate>
2011-06-04

>  <Parent>


>  <OneLetterCode>


>  <SubcomponentList>


>  <AmbiguousFlag>
N

>  <InChI>
InChI=1S/C35H42F2N4O6S/c1-22-6-4-8-30(14-22)48(45,46)40-11-9-38-32(20-40)33(42)31(17-24-15-27(36)19-28(37)16-24)39-34(43)25-12-23(2)13-26(18-25)35(44)41-10-5-7-29(41)21-47-3/h4,6,8,12-16,18-19,29,31-33,38,42H,5,7,9-11,17,20-21H2,1-3H3,(H,39,43)/t29-,31+,32-,33+/m1/s1

>  <InChIKey>
CQQMWBPWYUPVOC-PPESYSCFSA-N

>  <SMILES>
Cc1cccc(c1)S(=O)(=O)[N@]2CCN[C@H](C2)[C@H]([C@H](Cc3cc(cc(c3)F)F)NC(=O)c4cc(cc(c4)C(=O)N5CCC[C@@H]5COC)C)O

$$$$
