5N2Z_8JH_E_410


 35 35  0  0  0  0  0  0  0  0999 V2000
   11.3100  -39.1444    3.9228 N   0  0  0  0  0  0  0  0  0  0  0  0
   12.1049  -38.5880    3.6081 H   0  0  0  0  0  0  0  0  0  0  0  0
   11.1438  -38.8530    5.5239 P   0  0  0  0  0  0  0  0  0  0  0  0
   12.1514  -37.9005    6.1159 O   0  0  0  0  0  0  0  0  0  0  0  0
    9.6858  -38.3355    5.7528 O   0  0  0  0  0  0  0  0  0  0  0  0
    9.5783  -37.4719    5.3243 H   0  0  0  0  0  0  0  0  0  0  0  0
   11.3100  -40.4631    6.3348 C   0  0  0  0  0  0  0  0  0  0  0  0
   11.9757  -41.1501    8.6737 C   0  0  0  0  0  0  0  0  0  0  0  0
   12.1269  -40.4197    7.5536 N   0  0  0  0  0  0  0  0  0  0  0  0
   11.1482  -42.0168    8.7319 O   0  0  0  0  0  0  0  0  0  0  0  0
   12.8749  -39.7795    7.5513 H   0  0  0  0  0  0  0  0  0  0  0  0
   12.8674  -40.7299    9.6083 O   0  0  0  0  0  0  0  0  0  0  0  0
   13.5388  -39.4794    9.3671 C   0  0  0  0  0  0  0  0  0  0  0  0
   13.6224  -38.6673   10.6386 C   0  0  0  0  0  0  0  0  0  0  0  0
   13.2675  -37.2925   10.7044 C   0  0  0  0  0  0  0  0  0  0  0  0
   13.3626  -36.5915   11.9079 C   0  0  0  0  0  0  0  0  0  0  0  0
   14.0817  -39.2827   11.8067 C   0  0  0  0  0  0  0  0  0  0  0  0
   13.8009  -37.2411   13.0670 C   0  0  0  0  0  0  0  0  0  0  0  0
   14.1854  -38.5865   12.9978 C   0  0  0  0  0  0  0  0  0  0  0  0
   10.2109  -38.8718    2.9830 C   0  0  0  0  0  0  0  0  0  0  0  0
    9.2934  -41.1653    2.9470 N   0  0  0  0  0  0  0  0  0  0  0  0
    7.9481  -39.4564    3.5957 O   0  0  0  0  0  0  0  0  0  0  0  0
    9.0473  -39.8482    3.2158 C   0  0  0  0  0  0  0  0  0  0  0  0
   10.1879  -41.4354    2.6369 H   0  0  0  0  0  0  0  0  0  0  0  0
    8.2655  -42.1713    3.1091 C   0  0  0  0  0  0  0  0  0  0  0  0
    7.8483  -42.7700    1.7804 C   0  0  0  0  0  0  0  0  0  0  0  0
    8.3868  -44.1767    1.6467 C   0  0  0  0  0  0  0  0  0  0  0  0
    8.7845  -44.8412    2.9642 C   0  0  0  0  0  0  0  0  0  0  0  0
    9.9187  -45.7325    2.7280 N   0  0  0  0  0  0  0  0  0  0  0  0
   10.7040  -45.1940    2.3624 H   0  0  0  0  0  0  0  0  0  0  0  0
    9.6534  -46.4486    2.0517 H   0  0  0  0  0  0  0  0  0  0  0  0
   10.6985  -39.0424    1.5390 C   0  0  0  0  0  0  0  0  0  0  0  0
   10.2407  -37.9617    0.5576 C   0  0  0  0  0  0  0  0  0  0  0  0
    9.4754  -36.8507    1.2994 C   0  0  0  0  0  0  0  0  0  0  0  0
    9.3797  -38.5555   -0.5646 C   0  0  0  0  0  0  0  0  0  0  0  0
 34 33  1  0  0  0
 33 35  1  0  0  0
 33 32  1  0  0  0
 29 28  1  0  0  0
 28 27  1  0  0  0
 32 20  1  0  0  0
 27 26  1  0  0  0
 26 25  1  0  0  0
 20 23  1  0  0  0
 20  1  1  0  0  0
 22 23  2  0  0  0
 23 21  1  0  0  0
 21 25  1  0  0  0
  1  3  1  0  0  0
  3  4  2  0  0  0
  3  5  1  0  0  0
  3  7  1  0  0  0
  7  9  1  0  0  0
  9  8  1  0  0  0
  8 10  2  0  0  0
  8 12  1  0  0  0
 12 13  1  0  0  0
 17 19  2  0  0  0
 17 14  1  0  0  0
 19 18  1  0  0  0
 13 14  1  0  0  0
 14 15  2  0  0  0
 18 16  2  0  0  0
 15 16  1  0  0  0
  1  2  1  0  0  0
 21 24  1  0  0  0
 29 30  1  0  0  0
 29 31  1  0  0  0
  5  6  1  0  0  0
  9 11  1  0  0  0
M  END
> <minimizedAffinity>
-8.71339

$$$$
5N2Z_8JH_E_410


 35 35  0  0  0  0  0  0  0  0999 V2000
   11.3598  -39.5150    4.6778 N   0  0  0  0  0  0  0  0  0  0  0  0
   12.2357  -39.3851    4.1714 H   0  0  0  0  0  0  0  0  0  0  0  0
   11.6083  -38.9428    6.1901 P   0  0  0  0  0  0  0  0  0  0  0  0
   12.6014  -37.8137    6.2992 O   0  0  0  0  0  0  0  0  0  0  0  0
   10.2156  -38.5174    6.7604 O   0  0  0  0  0  0  0  0  0  0  0  0
    9.8762  -37.7623    6.2549 H   0  0  0  0  0  0  0  0  0  0  0  0
   12.2118  -40.3515    7.1540 C   0  0  0  0  0  0  0  0  0  0  0  0
   13.1998  -40.7483    9.4457 C   0  0  0  0  0  0  0  0  0  0  0  0
   12.5117  -40.0154    8.5510 N   0  0  0  0  0  0  0  0  0  0  0  0
   13.7310  -41.7729    9.1181 O   0  0  0  0  0  0  0  0  0  0  0  0
   12.1684  -39.1503    8.8719 H   0  0  0  0  0  0  0  0  0  0  0  0
   13.1582  -40.1346   10.6568 O   0  0  0  0  0  0  0  0  0  0  0  0
   14.3663  -39.5039   11.1208 C   0  0  0  0  0  0  0  0  0  0  0  0
   14.0429  -38.3215   12.0043 C   0  0  0  0  0  0  0  0  0  0  0  0
   13.4352  -37.1329   11.5160 C   0  0  0  0  0  0  0  0  0  0  0  0
   13.1570  -36.0716   12.3792 C   0  0  0  0  0  0  0  0  0  0  0  0
   14.3643  -38.3833   13.3633 C   0  0  0  0  0  0  0  0  0  0  0  0
   13.4663  -36.1726   13.7400 C   0  0  0  0  0  0  0  0  0  0  0  0
   14.0977  -37.3283   14.2179 C   0  0  0  0  0  0  0  0  0  0  0  0
   10.2967  -38.9639    3.8223 C   0  0  0  0  0  0  0  0  0  0  0  0
    9.1993  -41.1295    4.2800 N   0  0  0  0  0  0  0  0  0  0  0  0
    7.9191  -39.3609    3.6599 O   0  0  0  0  0  0  0  0  0  0  0  0
    9.0260  -39.8225    3.9203 C   0  0  0  0  0  0  0  0  0  0  0  0
   10.1061  -41.4605    4.4730 H   0  0  0  0  0  0  0  0  0  0  0  0
    8.0763  -42.0368    4.3831 C   0  0  0  0  0  0  0  0  0  0  0  0
    8.5230  -43.4851    4.4142 C   0  0  0  0  0  0  0  0  0  0  0  0
    7.3585  -44.3859    4.7595 C   0  0  0  0  0  0  0  0  0  0  0  0
    7.2509  -44.7602    6.2372 C   0  0  0  0  0  0  0  0  0  0  0  0
    6.2042  -43.9528    6.8611 N   0  0  0  0  0  0  0  0  0  0  0  0
    5.3146  -44.1301    6.3946 H   0  0  0  0  0  0  0  0  0  0  0  0
    6.4414  -42.9644    6.7764 H   0  0  0  0  0  0  0  0  0  0  0  0
   10.7538  -38.9492    2.3585 C   0  0  0  0  0  0  0  0  0  0  0  0
    9.8179  -38.2316    1.3839 C   0  0  0  0  0  0  0  0  0  0  0  0
   10.1077  -38.6715   -0.0628 C   0  0  0  0  0  0  0  0  0  0  0  0
    9.9329  -36.7078    1.5194 C   0  0  0  0  0  0  0  0  0  0  0  0
 34 33  1  0  0  0
 33 35  1  0  0  0
 33 32  1  0  0  0
 29 28  1  0  0  0
 28 27  1  0  0  0
 32 20  1  0  0  0
 27 26  1  0  0  0
 26 25  1  0  0  0
 20 23  1  0  0  0
 20  1  1  0  0  0
 22 23  2  0  0  0
 23 21  1  0  0  0
 21 25  1  0  0  0
  1  3  1  0  0  0
  3  4  2  0  0  0
  3  5  1  0  0  0
  3  7  1  0  0  0
  7  9  1  0  0  0
  9  8  1  0  0  0
  8 10  2  0  0  0
  8 12  1  0  0  0
 12 13  1  0  0  0
 17 19  2  0  0  0
 17 14  1  0  0  0
 19 18  1  0  0  0
 13 14  1  0  0  0
 14 15  2  0  0  0
 18 16  2  0  0  0
 15 16  1  0  0  0
  1  2  1  0  0  0
 21 24  1  0  0  0
 29 30  1  0  0  0
 29 31  1  0  0  0
  5  6  1  0  0  0
  9 11  1  0  0  0
M  END
> <minimizedAffinity>
-8.09997

$$$$
5N2Z_8JH_E_410


 35 35  0  0  0  0  0  0  0  0999 V2000
   13.7749  -40.9662    8.8976 N   0  0  0  0  0  0  0  0  0  0  0  0
   14.2148  -41.5357    8.1746 H   0  0  0  0  0  0  0  0  0  0  0  0
   12.3347  -40.4794    8.2935 P   0  0  0  0  0  0  0  0  0  0  0  0
   11.1386  -41.2726    8.7548 O   0  0  0  0  0  0  0  0  0  0  0  0
   12.1702  -38.9652    8.6483 O   0  0  0  0  0  0  0  0  0  0  0  0
   12.0899  -38.8653    9.6098 H   0  0  0  0  0  0  0  0  0  0  0  0
   12.4817  -40.6299    6.4953 C   0  0  0  0  0  0  0  0  0  0  0  0
   11.1108  -38.7341    5.5401 C   0  0  0  0  0  0  0  0  0  0  0  0
   11.3527  -40.0384    5.7673 N   0  0  0  0  0  0  0  0  0  0  0  0
   11.9053  -37.8981    5.8703 O   0  0  0  0  0  0  0  0  0  0  0  0
   10.6935  -40.6715    5.4014 H   0  0  0  0  0  0  0  0  0  0  0  0
    9.9065  -38.6005    4.9262 O   0  0  0  0  0  0  0  0  0  0  0  0
    9.5266  -39.6216    3.9851 C   0  0  0  0  0  0  0  0  0  0  0  0
    9.6096  -39.0978    2.5703 C   0  0  0  0  0  0  0  0  0  0  0  0
    9.4819  -37.7199    2.2457 C   0  0  0  0  0  0  0  0  0  0  0  0
    9.5692  -37.2918    0.9198 C   0  0  0  0  0  0  0  0  0  0  0  0
    9.8071  -40.0027    1.5232 C   0  0  0  0  0  0  0  0  0  0  0  0
    9.7936  -38.2180   -0.1046 C   0  0  0  0  0  0  0  0  0  0  0  0
    9.8842  -39.5806    0.2079 C   0  0  0  0  0  0  0  0  0  0  0  0
   13.8518  -41.7426   10.1455 C   0  0  0  0  0  0  0  0  0  0  0  0
   13.8852  -39.9491   11.8442 N   0  0  0  0  0  0  0  0  0  0  0  0
   15.7637  -41.1783   11.5105 O   0  0  0  0  0  0  0  0  0  0  0  0
   14.5913  -40.9461   11.2318 C   0  0  0  0  0  0  0  0  0  0  0  0
   12.9486  -39.7918   11.5846 H   0  0  0  0  0  0  0  0  0  0  0  0
   14.4865  -39.1198   12.8667 C   0  0  0  0  0  0  0  0  0  0  0  0
   14.0734  -37.6677   12.7296 C   0  0  0  0  0  0  0  0  0  0  0  0
   13.4715  -37.4201   11.3647 C   0  0  0  0  0  0  0  0  0  0  0  0
   14.4349  -36.8334   10.3336 C   0  0  0  0  0  0  0  0  0  0  0  0
   14.8431  -37.8865    9.4056 N   0  0  0  0  0  0  0  0  0  0  0  0
   14.0201  -38.2620    8.9343 H   0  0  0  0  0  0  0  0  0  0  0  0
   15.3093  -38.6326    9.9217 H   0  0  0  0  0  0  0  0  0  0  0  0
   14.6163  -43.0502    9.9055 C   0  0  0  0  0  0  0  0  0  0  0  0
   15.4340  -43.1071    8.6136 C   0  0  0  0  0  0  0  0  0  0  0  0
   14.7029  -43.9477    7.5509 C   0  0  0  0  0  0  0  0  0  0  0  0
   16.8414  -43.6617    8.8680 C   0  0  0  0  0  0  0  0  0  0  0  0
 34 33  1  0  0  0
 33 35  1  0  0  0
 33 32  1  0  0  0
 29 28  1  0  0  0
 28 27  1  0  0  0
 32 20  1  0  0  0
 27 26  1  0  0  0
 26 25  1  0  0  0
 20 23  1  0  0  0
 20  1  1  0  0  0
 22 23  2  0  0  0
 23 21  1  0  0  0
 21 25  1  0  0  0
  1  3  1  0  0  0
  3  4  2  0  0  0
  3  5  1  0  0  0
  3  7  1  0  0  0
  7  9  1  0  0  0
  9  8  1  0  0  0
  8 10  2  0  0  0
  8 12  1  0  0  0
 12 13  1  0  0  0
 17 19  2  0  0  0
 17 14  1  0  0  0
 19 18  1  0  0  0
 13 14  1  0  0  0
 14 15  2  0  0  0
 18 16  2  0  0  0
 15 16  1  0  0  0
  1  2  1  0  0  0
 21 24  1  0  0  0
 29 30  1  0  0  0
 29 31  1  0  0  0
  5  6  1  0  0  0
  9 11  1  0  0  0
M  END
> <minimizedAffinity>
-8.00636

$$$$
5N2Z_8JH_E_410


 35 35  0  0  0  0  0  0  0  0999 V2000
   14.9567  -39.2221    9.4130 N   0  0  0  0  0  0  0  0  0  0  0  0
   15.5162  -39.5771    8.6375 H   0  0  0  0  0  0  0  0  0  0  0  0
   13.7168  -38.3877    8.7475 P   0  0  0  0  0  0  0  0  0  0  0  0
   12.6845  -37.8778    9.7207 O   0  0  0  0  0  0  0  0  0  0  0  0
   14.3373  -37.2109    7.9254 O   0  0  0  0  0  0  0  0  0  0  0  0
   14.7691  -36.5868    8.5295 H   0  0  0  0  0  0  0  0  0  0  0  0
   12.9208  -39.5316    7.5919 C   0  0  0  0  0  0  0  0  0  0  0  0
   11.2173  -39.3874    5.7310 C   0  0  0  0  0  0  0  0  0  0  0  0
   12.1521  -38.8556    6.5400 N   0  0  0  0  0  0  0  0  0  0  0  0
   10.8560  -40.5221    5.8768 O   0  0  0  0  0  0  0  0  0  0  0  0
   12.3432  -37.8985    6.4108 H   0  0  0  0  0  0  0  0  0  0  0  0
   10.8263  -38.4562    4.8227 O   0  0  0  0  0  0  0  0  0  0  0  0
    9.5216  -38.6126    4.2345 C   0  0  0  0  0  0  0  0  0  0  0  0
    9.6065  -38.5449    2.7275 C   0  0  0  0  0  0  0  0  0  0  0  0
    9.8843  -39.6781    1.9156 C   0  0  0  0  0  0  0  0  0  0  0  0
    9.9488  -39.5575    0.5263 C   0  0  0  0  0  0  0  0  0  0  0  0
    9.4185  -37.3136    2.0929 C   0  0  0  0  0  0  0  0  0  0  0  0
    9.7303  -38.3168   -0.0824 C   0  0  0  0  0  0  0  0  0  0  0  0
    9.4918  -37.1911    0.7167 C   0  0  0  0  0  0  0  0  0  0  0  0
   14.7101  -40.3642   10.3076 C   0  0  0  0  0  0  0  0  0  0  0  0
   14.0520  -39.2345   12.4038 N   0  0  0  0  0  0  0  0  0  0  0  0
   16.0519  -40.3040   12.3159 O   0  0  0  0  0  0  0  0  0  0  0  0
   15.0035  -39.9801   11.7663 C   0  0  0  0  0  0  0  0  0  0  0  0
   13.2284  -38.9902   11.9229 H   0  0  0  0  0  0  0  0  0  0  0  0
   14.2307  -38.7968   13.7718 C   0  0  0  0  0  0  0  0  0  0  0  0
   14.4103  -37.2944   13.8640 C   0  0  0  0  0  0  0  0  0  0  0  0
   13.6064  -36.6029   12.7859 C   0  0  0  0  0  0  0  0  0  0  0  0
   14.4065  -35.6514   11.8973 C   0  0  0  0  0  0  0  0  0  0  0  0
   15.2420  -36.4336   10.9880 N   0  0  0  0  0  0  0  0  0  0  0  0
   14.6497  -37.0295   10.4098 H   0  0  0  0  0  0  0  0  0  0  0  0
   15.8827  -37.0139   11.5294 H   0  0  0  0  0  0  0  0  0  0  0  0
   15.6224  -41.5369    9.9278 C   0  0  0  0  0  0  0  0  0  0  0  0
   14.9043  -42.8325    9.5449 C   0  0  0  0  0  0  0  0  0  0  0  0
   15.3163  -43.2779    8.1299 C   0  0  0  0  0  0  0  0  0  0  0  0
   13.3814  -42.6757    9.6410 C   0  0  0  0  0  0  0  0  0  0  0  0
 34 33  1  0  0  0
 33 35  1  0  0  0
 33 32  1  0  0  0
 29 28  1  0  0  0
 28 27  1  0  0  0
 32 20  1  0  0  0
 27 26  1  0  0  0
 26 25  1  0  0  0
 20 23  1  0  0  0
 20  1  1  0  0  0
 22 23  2  0  0  0
 23 21  1  0  0  0
 21 25  1  0  0  0
  1  3  1  0  0  0
  3  4  2  0  0  0
  3  5  1  0  0  0
  3  7  1  0  0  0
  7  9  1  0  0  0
  9  8  1  0  0  0
  8 10  2  0  0  0
  8 12  1  0  0  0
 12 13  1  0  0  0
 17 19  2  0  0  0
 17 14  1  0  0  0
 19 18  1  0  0  0
 13 14  1  0  0  0
 14 15  2  0  0  0
 18 16  2  0  0  0
 15 16  1  0  0  0
  1  2  1  0  0  0
 21 24  1  0  0  0
 29 30  1  0  0  0
 29 31  1  0  0  0
  5  6  1  0  0  0
  9 11  1  0  0  0
M  END
> <minimizedAffinity>
-7.89492

$$$$
5N2Z_8JH_E_410


 35 35  0  0  0  0  0  0  0  0999 V2000
   11.8010  -41.2506    8.9112 N   0  0  0  0  0  0  0  0  0  0  0  0
   11.1573  -40.4601    8.8781 H   0  0  0  0  0  0  0  0  0  0  0  0
   11.7602  -41.9452    7.4306 P   0  0  0  0  0  0  0  0  0  0  0  0
   12.6129  -43.1782    7.2711 O   0  0  0  0  0  0  0  0  0  0  0  0
   10.2627  -42.2570    7.1050 O   0  0  0  0  0  0  0  0  0  0  0  0
    9.9340  -42.9365    7.7142 H   0  0  0  0  0  0  0  0  0  0  0  0
   12.3410  -40.6758    6.2777 C   0  0  0  0  0  0  0  0  0  0  0  0
   11.0450  -38.6892    5.4062 C   0  0  0  0  0  0  0  0  0  0  0  0
   11.2546  -40.0110    5.5482 N   0  0  0  0  0  0  0  0  0  0  0  0
   11.8389  -37.8952    5.8288 O   0  0  0  0  0  0  0  0  0  0  0  0
   10.6009  -40.6028    5.1103 H   0  0  0  0  0  0  0  0  0  0  0  0
    9.8707  -38.4876    4.7540 O   0  0  0  0  0  0  0  0  0  0  0  0
    9.4066  -39.5388    3.8867 C   0  0  0  0  0  0  0  0  0  0  0  0
    9.4877  -39.1091    2.4404 C   0  0  0  0  0  0  0  0  0  0  0  0
    9.2566  -37.7726    2.0153 C   0  0  0  0  0  0  0  0  0  0  0  0
    9.3472  -37.4314    0.6646 C   0  0  0  0  0  0  0  0  0  0  0  0
    9.7897  -40.0645    1.4656 C   0  0  0  0  0  0  0  0  0  0  0  0
    9.6771  -38.4042   -0.2855 C   0  0  0  0  0  0  0  0  0  0  0  0
    9.8704  -39.7294    0.1256 C   0  0  0  0  0  0  0  0  0  0  0  0
   13.0604  -40.7407    9.4765 C   0  0  0  0  0  0  0  0  0  0  0  0
   14.3215  -38.6260    9.6790 N   0  0  0  0  0  0  0  0  0  0  0  0
   12.1726  -38.5558    8.9523 O   0  0  0  0  0  0  0  0  0  0  0  0
   13.1370  -39.2128    9.3321 C   0  0  0  0  0  0  0  0  0  0  0  0
   15.0676  -39.1902    9.9860 H   0  0  0  0  0  0  0  0  0  0  0  0
   14.5012  -37.1918    9.6040 C   0  0  0  0  0  0  0  0  0  0  0  0
   14.7202  -36.5790   10.9731 C   0  0  0  0  0  0  0  0  0  0  0  0
   13.4893  -36.7612   11.8324 C   0  0  0  0  0  0  0  0  0  0  0  0
   13.3615  -35.7730   12.9910 C   0  0  0  0  0  0  0  0  0  0  0  0
   13.1811  -34.4255   12.4536 N   0  0  0  0  0  0  0  0  0  0  0  0
   12.3369  -34.3978   11.8818 H   0  0  0  0  0  0  0  0  0  0  0  0
   13.9879  -34.1769   11.8812 H   0  0  0  0  0  0  0  0  0  0  0  0
   14.2557  -41.3529    8.7359 C   0  0  0  0  0  0  0  0  0  0  0  0
   15.1965  -42.2020    9.5930 C   0  0  0  0  0  0  0  0  0  0  0  0
   16.3470  -41.3401   10.1442 C   0  0  0  0  0  0  0  0  0  0  0  0
   15.7459  -43.3965    8.8028 C   0  0  0  0  0  0  0  0  0  0  0  0
 34 33  1  0  0  0
 33 35  1  0  0  0
 33 32  1  0  0  0
 29 28  1  0  0  0
 28 27  1  0  0  0
 32 20  1  0  0  0
 27 26  1  0  0  0
 26 25  1  0  0  0
 20 23  1  0  0  0
 20  1  1  0  0  0
 22 23  2  0  0  0
 23 21  1  0  0  0
 21 25  1  0  0  0
  1  3  1  0  0  0
  3  4  2  0  0  0
  3  5  1  0  0  0
  3  7  1  0  0  0
  7  9  1  0  0  0
  9  8  1  0  0  0
  8 10  2  0  0  0
  8 12  1  0  0  0
 12 13  1  0  0  0
 17 19  2  0  0  0
 17 14  1  0  0  0
 19 18  1  0  0  0
 13 14  1  0  0  0
 14 15  2  0  0  0
 18 16  2  0  0  0
 15 16  1  0  0  0
  1  2  1  0  0  0
 21 24  1  0  0  0
 29 30  1  0  0  0
 29 31  1  0  0  0
  5  6  1  0  0  0
  9 11  1  0  0  0
M  END
> <minimizedAffinity>
-7.63594

$$$$
5N2Z_8JH_E_410


 35 35  0  0  0  0  0  0  0  0999 V2000
   13.3629  -39.7314    7.4833 N   0  0  0  0  0  0  0  0  0  0  0  0
   13.6012  -40.6654    7.1498 H   0  0  0  0  0  0  0  0  0  0  0  0
   11.9485  -39.3290    6.7666 P   0  0  0  0  0  0  0  0  0  0  0  0
   10.9816  -38.5598    7.6306 O   0  0  0  0  0  0  0  0  0  0  0  0
   12.2966  -38.5273    5.4697 O   0  0  0  0  0  0  0  0  0  0  0  0
   12.7085  -37.6832    5.7121 H   0  0  0  0  0  0  0  0  0  0  0  0
   11.1831  -40.8956    6.2791 C   0  0  0  0  0  0  0  0  0  0  0  0
    9.2633  -41.6642    4.8268 C   0  0  0  0  0  0  0  0  0  0  0  0
   10.1477  -40.7423    5.2500 N   0  0  0  0  0  0  0  0  0  0  0  0
    9.1964  -42.7374    5.3589 O   0  0  0  0  0  0  0  0  0  0  0  0
   10.0937  -39.8595    4.8177 H   0  0  0  0  0  0  0  0  0  0  0  0
    8.5518  -41.1599    3.7854 O   0  0  0  0  0  0  0  0  0  0  0  0
    8.4651  -39.7271    3.6755 C   0  0  0  0  0  0  0  0  0  0  0  0
    9.0728  -39.2562    2.3747 C   0  0  0  0  0  0  0  0  0  0  0  0
    9.2106  -37.8824    2.0367 C   0  0  0  0  0  0  0  0  0  0  0  0
    9.7822  -37.5045    0.8204 C   0  0  0  0  0  0  0  0  0  0  0  0
    9.5104  -40.2068    1.4479 C   0  0  0  0  0  0  0  0  0  0  0  0
   10.2352  -38.4784   -0.0762 C   0  0  0  0  0  0  0  0  0  0  0  0
   10.0683  -39.8334    0.2381 C   0  0  0  0  0  0  0  0  0  0  0  0
   13.4887  -39.7664    8.9491 C   0  0  0  0  0  0  0  0  0  0  0  0
   13.3182  -38.0420   10.7101 N   0  0  0  0  0  0  0  0  0  0  0  0
   14.5419  -37.5941    8.8518 O   0  0  0  0  0  0  0  0  0  0  0  0
   13.8446  -38.3741    9.4934 C   0  0  0  0  0  0  0  0  0  0  0  0
   12.7576  -38.6953   11.1876 H   0  0  0  0  0  0  0  0  0  0  0  0
   13.5684  -36.7491   11.3107 C   0  0  0  0  0  0  0  0  0  0  0  0
   14.1106  -36.8780   12.7205 C   0  0  0  0  0  0  0  0  0  0  0  0
   13.5896  -35.7541   13.5877 C   0  0  0  0  0  0  0  0  0  0  0  0
   13.5653  -36.0557   15.0856 C   0  0  0  0  0  0  0  0  0  0  0  0
   13.1491  -34.8557   15.8092 N   0  0  0  0  0  0  0  0  0  0  0  0
   12.2185  -34.5768   15.4983 H   0  0  0  0  0  0  0  0  0  0  0  0
   13.8097  -34.1009   15.6243 H   0  0  0  0  0  0  0  0  0  0  0  0
   14.6004  -40.7400    9.3589 C   0  0  0  0  0  0  0  0  0  0  0  0
   14.1777  -42.2047    9.4892 C   0  0  0  0  0  0  0  0  0  0  0  0
   14.5684  -42.9918    8.2249 C   0  0  0  0  0  0  0  0  0  0  0  0
   12.6731  -42.3292    9.7607 C   0  0  0  0  0  0  0  0  0  0  0  0
 34 33  1  0  0  0
 33 35  1  0  0  0
 33 32  1  0  0  0
 29 28  1  0  0  0
 28 27  1  0  0  0
 32 20  1  0  0  0
 27 26  1  0  0  0
 26 25  1  0  0  0
 20 23  1  0  0  0
 20  1  1  0  0  0
 22 23  2  0  0  0
 23 21  1  0  0  0
 21 25  1  0  0  0
  1  3  1  0  0  0
  3  4  2  0  0  0
  3  5  1  0  0  0
  3  7  1  0  0  0
  7  9  1  0  0  0
  9  8  1  0  0  0
  8 10  2  0  0  0
  8 12  1  0  0  0
 12 13  1  0  0  0
 17 19  2  0  0  0
 17 14  1  0  0  0
 19 18  1  0  0  0
 13 14  1  0  0  0
 14 15  2  0  0  0
 18 16  2  0  0  0
 15 16  1  0  0  0
  1  2  1  0  0  0
 21 24  1  0  0  0
 29 30  1  0  0  0
 29 31  1  0  0  0
  5  6  1  0  0  0
  9 11  1  0  0  0
M  END
> <minimizedAffinity>
-7.55490

$$$$
5N2Z_8JH_E_410


 35 35  0  0  0  0  0  0  0  0999 V2000
   13.4485  -40.4990    8.1215 N   0  0  0  0  0  0  0  0  0  0  0  0
   14.4584  -40.5226    7.9806 H   0  0  0  0  0  0  0  0  0  0  0  0
   12.8527  -41.8631    7.4430 P   0  0  0  0  0  0  0  0  0  0  0  0
   13.5979  -42.3610    6.2306 O   0  0  0  0  0  0  0  0  0  0  0  0
   12.8106  -42.9571    8.5597 O   0  0  0  0  0  0  0  0  0  0  0  0
   13.7157  -43.1804    8.8279 H   0  0  0  0  0  0  0  0  0  0  0  0
   11.1508  -41.4704    6.9665 C   0  0  0  0  0  0  0  0  0  0  0  0
   11.0177  -39.1044    6.0890 C   0  0  0  0  0  0  0  0  0  0  0  0
   11.0608  -40.4395    5.9255 N   0  0  0  0  0  0  0  0  0  0  0  0
   11.1428  -38.6172    7.1782 O   0  0  0  0  0  0  0  0  0  0  0  0
   11.0280  -40.7636    4.9964 H   0  0  0  0  0  0  0  0  0  0  0  0
   10.8233  -38.5098    4.8833 O   0  0  0  0  0  0  0  0  0  0  0  0
    9.5307  -38.6664    4.2690 C   0  0  0  0  0  0  0  0  0  0  0  0
    9.6414  -38.5670    2.7654 C   0  0  0  0  0  0  0  0  0  0  0  0
    9.8363  -39.6979    1.9266 C   0  0  0  0  0  0  0  0  0  0  0  0
    9.9294  -39.5471    0.5419 C   0  0  0  0  0  0  0  0  0  0  0  0
    9.5638  -37.3085    2.1620 C   0  0  0  0  0  0  0  0  0  0  0  0
    9.8218  -38.2773   -0.0358 C   0  0  0  0  0  0  0  0  0  0  0  0
    9.6656  -37.1568    0.7905 C   0  0  0  0  0  0  0  0  0  0  0  0
   13.2321  -40.2025    9.5466 C   0  0  0  0  0  0  0  0  0  0  0  0
   13.3338  -38.3032   11.1232 N   0  0  0  0  0  0  0  0  0  0  0  0
   14.0507  -37.9982    8.9915 O   0  0  0  0  0  0  0  0  0  0  0  0
   13.5886  -38.7395    9.8535 C   0  0  0  0  0  0  0  0  0  0  0  0
   12.9555  -38.9296   11.7817 H   0  0  0  0  0  0  0  0  0  0  0  0
   13.6091  -36.9386   11.5194 C   0  0  0  0  0  0  0  0  0  0  0  0
   13.9145  -36.8324   13.0005 C   0  0  0  0  0  0  0  0  0  0  0  0
   15.1215  -37.6741   13.3489 C   0  0  0  0  0  0  0  0  0  0  0  0
   16.4200  -36.8903   13.5355 C   0  0  0  0  0  0  0  0  0  0  0  0
   17.3922  -37.3287   12.5357 N   0  0  0  0  0  0  0  0  0  0  0  0
   17.0188  -37.1601   11.6016 H   0  0  0  0  0  0  0  0  0  0  0  0
   17.5756  -38.3251   12.6539 H   0  0  0  0  0  0  0  0  0  0  0  0
   14.1202  -41.1042   10.4126 C   0  0  0  0  0  0  0  0  0  0  0  0
   15.6217  -41.0133   10.1331 C   0  0  0  0  0  0  0  0  0  0  0  0
   16.1508  -42.3549    9.5942 C   0  0  0  0  0  0  0  0  0  0  0  0
   16.3979  -40.5897   11.3866 C   0  0  0  0  0  0  0  0  0  0  0  0
 34 33  1  0  0  0
 33 35  1  0  0  0
 33 32  1  0  0  0
 29 28  1  0  0  0
 28 27  1  0  0  0
 32 20  1  0  0  0
 27 26  1  0  0  0
 26 25  1  0  0  0
 20 23  1  0  0  0
 20  1  1  0  0  0
 22 23  2  0  0  0
 23 21  1  0  0  0
 21 25  1  0  0  0
  1  3  1  0  0  0
  3  4  2  0  0  0
  3  5  1  0  0  0
  3  7  1  0  0  0
  7  9  1  0  0  0
  9  8  1  0  0  0
  8 10  2  0  0  0
  8 12  1  0  0  0
 12 13  1  0  0  0
 17 19  2  0  0  0
 17 14  1  0  0  0
 19 18  1  0  0  0
 13 14  1  0  0  0
 14 15  2  0  0  0
 18 16  2  0  0  0
 15 16  1  0  0  0
  1  2  1  0  0  0
 21 24  1  0  0  0
 29 30  1  0  0  0
 29 31  1  0  0  0
  5  6  1  0  0  0
  9 11  1  0  0  0
M  END
> <minimizedAffinity>
-7.51021

$$$$
5N2Z_8JH_E_410


 35 35  0  0  0  0  0  0  0  0999 V2000
   12.2108  -38.7013    8.8344 N   0  0  0  0  0  0  0  0  0  0  0  0
   11.6751  -39.2408    9.5145 H   0  0  0  0  0  0  0  0  0  0  0  0
   13.5804  -38.2268    9.5928 P   0  0  0  0  0  0  0  0  0  0  0  0
   14.7494  -37.9275    8.6891 O   0  0  0  0  0  0  0  0  0  0  0  0
   13.2192  -36.9821   10.4680 O   0  0  0  0  0  0  0  0  0  0  0  0
   12.9775  -36.2405    9.8914 H   0  0  0  0  0  0  0  0  0  0  0  0
   14.0258  -39.5898   10.6980 C   0  0  0  0  0  0  0  0  0  0  0  0
   16.2495  -40.6679   11.2256 C   0  0  0  0  0  0  0  0  0  0  0  0
   15.3177  -40.2055   10.3718 N   0  0  0  0  0  0  0  0  0  0  0  0
   16.0407  -40.6879   12.4068 O   0  0  0  0  0  0  0  0  0  0  0  0
   15.5277  -40.2903    9.4137 H   0  0  0  0  0  0  0  0  0  0  0  0
   17.3463  -41.0583   10.5259 O   0  0  0  0  0  0  0  0  0  0  0  0
   17.9851  -42.2847   10.9269 C   0  0  0  0  0  0  0  0  0  0  0  0
   17.8429  -43.3348    9.8498 C   0  0  0  0  0  0  0  0  0  0  0  0
   16.6967  -43.4385    9.0156 C   0  0  0  0  0  0  0  0  0  0  0  0
   16.6202  -44.4283    8.0341 C   0  0  0  0  0  0  0  0  0  0  0  0
   18.8741  -44.2604    9.6657 C   0  0  0  0  0  0  0  0  0  0  0  0
   17.6796  -45.3247    7.8557 C   0  0  0  0  0  0  0  0  0  0  0  0
   18.7952  -45.2478    8.6996 C   0  0  0  0  0  0  0  0  0  0  0  0
   12.2638  -39.5113    7.6069 C   0  0  0  0  0  0  0  0  0  0  0  0
   10.5980  -39.3430    5.7902 N   0  0  0  0  0  0  0  0  0  0  0  0
   12.0985  -37.6618    6.0611 O   0  0  0  0  0  0  0  0  0  0  0  0
   11.6482  -38.7433    6.4267 C   0  0  0  0  0  0  0  0  0  0  0  0
   10.2732  -40.2149    6.1120 H   0  0  0  0  0  0  0  0  0  0  0  0
    9.9538  -38.7222    4.6525 C   0  0  0  0  0  0  0  0  0  0  0  0
    9.3885  -39.7515    3.6939 C   0  0  0  0  0  0  0  0  0  0  0  0
    9.3176  -39.1821    2.2948 C   0  0  0  0  0  0  0  0  0  0  0  0
   10.6083  -38.5315    1.7988 C   0  0  0  0  0  0  0  0  0  0  0  0
   11.7222  -39.4539    2.0116 N   0  0  0  0  0  0  0  0  0  0  0  0
   11.5515  -40.3177    1.4969 H   0  0  0  0  0  0  0  0  0  0  0  0
   11.8061  -39.6619    3.0067 H   0  0  0  0  0  0  0  0  0  0  0  0
   11.4720  -40.8105    7.7989 C   0  0  0  0  0  0  0  0  0  0  0  0
   12.1844  -42.0880    7.3505 C   0  0  0  0  0  0  0  0  0  0  0  0
   11.4914  -43.3275    7.9453 C   0  0  0  0  0  0  0  0  0  0  0  0
   13.6696  -42.0626    7.7335 C   0  0  0  0  0  0  0  0  0  0  0  0
 34 33  1  0  0  0
 33 35  1  0  0  0
 33 32  1  0  0  0
 29 28  1  0  0  0
 28 27  1  0  0  0
 32 20  1  0  0  0
 27 26  1  0  0  0
 26 25  1  0  0  0
 20 23  1  0  0  0
 20  1  1  0  0  0
 22 23  2  0  0  0
 23 21  1  0  0  0
 21 25  1  0  0  0
  1  3  1  0  0  0
  3  4  2  0  0  0
  3  5  1  0  0  0
  3  7  1  0  0  0
  7  9  1  0  0  0
  9  8  1  0  0  0
  8 10  2  0  0  0
  8 12  1  0  0  0
 12 13  1  0  0  0
 17 19  2  0  0  0
 17 14  1  0  0  0
 19 18  1  0  0  0
 13 14  1  0  0  0
 14 15  2  0  0  0
 18 16  2  0  0  0
 15 16  1  0  0  0
  1  2  1  0  0  0
 21 24  1  0  0  0
 29 30  1  0  0  0
 29 31  1  0  0  0
  5  6  1  0  0  0
  9 11  1  0  0  0
M  END
> <minimizedAffinity>
-7.21084

$$$$
5N2Z_8JH_E_410


 35 35  0  0  0  0  0  0  0  0999 V2000
   12.7410  -41.4628    9.0433 N   0  0  0  0  0  0  0  0  0  0  0  0
   11.9129  -41.1103    9.5232 H   0  0  0  0  0  0  0  0  0  0  0  0
   12.3050  -41.7116    7.4863 P   0  0  0  0  0  0  0  0  0  0  0  0
   13.4119  -42.1670    6.5696 O   0  0  0  0  0  0  0  0  0  0  0  0
   11.1274  -42.7408    7.4926 O   0  0  0  0  0  0  0  0  0  0  0  0
   11.4504  -43.5997    7.8070 H   0  0  0  0  0  0  0  0  0  0  0  0
   11.6690  -40.1228    6.8958 C   0  0  0  0  0  0  0  0  0  0  0  0
   10.8188  -39.1212    4.7371 C   0  0  0  0  0  0  0  0  0  0  0  0
   11.2430  -40.1518    5.4914 N   0  0  0  0  0  0  0  0  0  0  0  0
   10.8376  -38.0009    5.1660 O   0  0  0  0  0  0  0  0  0  0  0  0
   11.2709  -41.0305    5.0482 H   0  0  0  0  0  0  0  0  0  0  0  0
   10.4140  -39.5864    3.5269 O   0  0  0  0  0  0  0  0  0  0  0  0
   11.1570  -39.1572    2.3708 C   0  0  0  0  0  0  0  0  0  0  0  0
   10.2382  -38.5177    1.3559 C   0  0  0  0  0  0  0  0  0  0  0  0
    9.5221  -37.3161    1.6082 C   0  0  0  0  0  0  0  0  0  0  0  0
    8.6879  -36.7685    0.6319 C   0  0  0  0  0  0  0  0  0  0  0  0
   10.0664  -39.1352    0.1136 C   0  0  0  0  0  0  0  0  0  0  0  0
    8.5562  -37.3951   -0.6122 C   0  0  0  0  0  0  0  0  0  0  0  0
    9.2325  -38.5985   -0.8512 C   0  0  0  0  0  0  0  0  0  0  0  0
   13.8434  -40.5504    9.3868 C   0  0  0  0  0  0  0  0  0  0  0  0
   15.4936  -40.9692   11.1770 N   0  0  0  0  0  0  0  0  0  0  0  0
   15.5796  -42.2277    9.2902 O   0  0  0  0  0  0  0  0  0  0  0  0
   15.0419  -41.3367    9.9407 C   0  0  0  0  0  0  0  0  0  0  0  0
   15.0372  -40.2437   11.6613 H   0  0  0  0  0  0  0  0  0  0  0  0
   16.6294  -41.6253   11.7888 C   0  0  0  0  0  0  0  0  0  0  0  0
   17.9076  -40.8327   11.5990 C   0  0  0  0  0  0  0  0  0  0  0  0
   18.5129  -40.4845   12.9403 C   0  0  0  0  0  0  0  0  0  0  0  0
   18.0625  -39.1446   13.5210 C   0  0  0  0  0  0  0  0  0  0  0  0
   17.5035  -38.3218   12.4498 N   0  0  0  0  0  0  0  0  0  0  0  0
   16.7064  -38.8025   12.0327 H   0  0  0  0  0  0  0  0  0  0  0  0
   18.2153  -38.1622   11.7369 H   0  0  0  0  0  0  0  0  0  0  0  0
   13.3868  -39.5537   10.4593 C   0  0  0  0  0  0  0  0  0  0  0  0
   13.3133  -38.0926   10.0115 C   0  0  0  0  0  0  0  0  0  0  0  0
   14.0326  -37.9064    8.6630 C   0  0  0  0  0  0  0  0  0  0  0  0
   13.9012  -37.1535   11.0725 C   0  0  0  0  0  0  0  0  0  0  0  0
 34 33  1  0  0  0
 33 35  1  0  0  0
 33 32  1  0  0  0
 29 28  1  0  0  0
 28 27  1  0  0  0
 32 20  1  0  0  0
 27 26  1  0  0  0
 26 25  1  0  0  0
 20 23  1  0  0  0
 20  1  1  0  0  0
 22 23  2  0  0  0
 23 21  1  0  0  0
 21 25  1  0  0  0
  1  3  1  0  0  0
  3  4  2  0  0  0
  3  5  1  0  0  0
  3  7  1  0  0  0
  7  9  1  0  0  0
  9  8  1  0  0  0
  8 10  2  0  0  0
  8 12  1  0  0  0
 12 13  1  0  0  0
 17 19  2  0  0  0
 17 14  1  0  0  0
 19 18  1  0  0  0
 13 14  1  0  0  0
 14 15  2  0  0  0
 18 16  2  0  0  0
 15 16  1  0  0  0
  1  2  1  0  0  0
 21 24  1  0  0  0
 29 30  1  0  0  0
 29 31  1  0  0  0
  5  6  1  0  0  0
  9 11  1  0  0  0
M  END
> <minimizedAffinity>
-6.99404

$$$$
5N2Z_8JH_E_410


 35 35  0  0  0  0  0  0  0  0999 V2000
   13.1844  -39.8095    9.5353 N   0  0  0  0  0  0  0  0  0  0  0  0
   12.3814  -39.6930   10.1533 H   0  0  0  0  0  0  0  0  0  0  0  0
   12.8298  -39.0046    8.1560 P   0  0  0  0  0  0  0  0  0  0  0  0
   11.5155  -38.2659    8.1580 O   0  0  0  0  0  0  0  0  0  0  0  0
   14.0175  -38.0284    7.8694 O   0  0  0  0  0  0  0  0  0  0  0  0
   14.0507  -37.3480    8.5600 H   0  0  0  0  0  0  0  0  0  0  0  0
   12.7967  -40.2592    6.8512 C   0  0  0  0  0  0  0  0  0  0  0  0
   10.6734  -40.9115    5.6464 C   0  0  0  0  0  0  0  0  0  0  0  0
   11.6985  -40.0758    5.8947 N   0  0  0  0  0  0  0  0  0  0  0  0
   10.5246  -41.9077    6.2982 O   0  0  0  0  0  0  0  0  0  0  0  0
   11.7137  -39.2414    5.3723 H   0  0  0  0  0  0  0  0  0  0  0  0
    9.9371  -40.4256    4.6136 O   0  0  0  0  0  0  0  0  0  0  0  0
    9.9858  -39.0064    4.3764 C   0  0  0  0  0  0  0  0  0  0  0  0
    9.8793  -38.7107    2.8984 C   0  0  0  0  0  0  0  0  0  0  0  0
   10.0416  -39.7052    1.8959 C   0  0  0  0  0  0  0  0  0  0  0  0
    9.9302  -39.3752    0.5440 C   0  0  0  0  0  0  0  0  0  0  0  0
    9.6233  -37.3997    2.4865 C   0  0  0  0  0  0  0  0  0  0  0  0
    9.6474  -38.0590    0.1627 C   0  0  0  0  0  0  0  0  0  0  0  0
    9.5223  -37.0697    1.1466 C   0  0  0  0  0  0  0  0  0  0  0  0
   14.3757  -39.4681   10.3290 C   0  0  0  0  0  0  0  0  0  0  0  0
   15.1103  -41.6642    9.4681 N   0  0  0  0  0  0  0  0  0  0  0  0
   16.3611  -40.6358   11.0584 O   0  0  0  0  0  0  0  0  0  0  0  0
   15.3819  -40.6296   10.3186 C   0  0  0  0  0  0  0  0  0  0  0  0
   14.3093  -41.6218    8.8972 H   0  0  0  0  0  0  0  0  0  0  0  0
   15.9765  -42.8211    9.3897 C   0  0  0  0  0  0  0  0  0  0  0  0
   15.7723  -43.5917    8.1003 C   0  0  0  0  0  0  0  0  0  0  0  0
   16.8218  -44.6716    7.9628 C   0  0  0  0  0  0  0  0  0  0  0  0
   17.8579  -44.7085    9.0855 C   0  0  0  0  0  0  0  0  0  0  0  0
   19.1020  -45.2776    8.5708 N   0  0  0  0  0  0  0  0  0  0  0  0
   19.4466  -44.7024    7.8022 H   0  0  0  0  0  0  0  0  0  0  0  0
   18.9293  -46.2252    8.2354 H   0  0  0  0  0  0  0  0  0  0  0  0
   13.9773  -39.1919   11.7839 C   0  0  0  0  0  0  0  0  0  0  0  0
   14.2390  -37.7681   12.2791 C   0  0  0  0  0  0  0  0  0  0  0  0
   14.1304  -37.7038   13.8135 C   0  0  0  0  0  0  0  0  0  0  0  0
   13.2794  -36.7650   11.6262 C   0  0  0  0  0  0  0  0  0  0  0  0
 34 33  1  0  0  0
 33 35  1  0  0  0
 33 32  1  0  0  0
 29 28  1  0  0  0
 28 27  1  0  0  0
 32 20  1  0  0  0
 27 26  1  0  0  0
 26 25  1  0  0  0
 20 23  1  0  0  0
 20  1  1  0  0  0
 22 23  2  0  0  0
 23 21  1  0  0  0
 21 25  1  0  0  0
  1  3  1  0  0  0
  3  4  2  0  0  0
  3  5  1  0  0  0
  3  7  1  0  0  0
  7  9  1  0  0  0
  9  8  1  0  0  0
  8 10  2  0  0  0
  8 12  1  0  0  0
 12 13  1  0  0  0
 17 19  2  0  0  0
 17 14  1  0  0  0
 19 18  1  0  0  0
 13 14  1  0  0  0
 14 15  2  0  0  0
 18 16  2  0  0  0
 15 16  1  0  0  0
  1  2  1  0  0  0
 21 24  1  0  0  0
 29 30  1  0  0  0
 29 31  1  0  0  0
  5  6  1  0  0  0
  9 11  1  0  0  0
M  END
> <minimizedAffinity>
-6.92767

$$$$
