2PVM_P29_A_501


 29 32  0  0  0  0  0  0  0  0999 V2000
   22.7607    1.7141   20.5237 N   0  0  0  0  0  0  0  0  0  0  0  0
   21.9076    2.0279   21.5341 C   0  0  0  0  0  0  0  0  0  0  0  0
   21.8224    3.4282   21.6457 C   0  0  0  0  0  0  0  0  0  0  0  0
   22.6872    3.9515   20.6105 C   0  0  0  0  0  0  0  0  0  0  0  0
   23.2294    2.8723   19.9755 N   0  0  0  0  0  0  0  0  0  0  0  0
   23.0172    5.1944   20.2161 N   0  0  0  0  0  0  0  0  0  0  0  0
   23.8771    5.3115   19.2059 C   0  0  0  0  0  0  0  0  0  0  0  0
   24.4210    4.2734   18.5808 N   0  0  0  0  0  0  0  0  0  0  0  0
   24.0824    3.0543   18.9852 C   0  0  0  0  0  0  0  0  0  0  0  0
   24.6354    1.9686   18.3958 N   0  0  0  0  0  0  0  0  0  0  0  0
   24.1857    1.5642   17.6190 H   0  0  0  0  0  0  0  0  0  0  0  0
   25.8819    1.3804   18.8812 C   0  0  0  0  0  0  0  0  0  0  0  0
   26.4528    0.3731   17.8833 C   0  0  0  0  0  0  0  0  0  0  0  0
   27.3861    1.1143   16.9532 C   0  0  0  0  0  0  0  0  0  0  0  0
   27.4808    0.8475   15.6324 N   0  0  0  0  0  0  0  0  0  0  0  0
   28.4098    1.7060   15.1278 C   0  0  0  0  0  0  0  0  0  0  0  0
   28.8908    2.5005   16.1271 N   0  0  0  0  0  0  0  0  0  0  0  0
   28.2706    2.1583   17.2885 C   0  0  0  0  0  0  0  0  0  0  0  0
   26.9767    0.1656   15.1323 H   0  0  0  0  0  0  0  0  0  0  0  0
   24.2673    6.5128   18.7034 N   0  0  0  0  0  0  0  0  0  0  0  0
   25.2288    6.7112   18.7771 H   0  0  0  0  0  0  0  0  0  0  0  0
   23.5145    7.4770   18.1137 C   0  0  0  0  0  0  0  0  0  0  0  0
   22.4883    8.1816   18.7490 C   0  0  0  0  0  0  0  0  0  0  0  0
   21.7595    9.1633   18.0809 C   0  0  0  0  0  0  0  0  0  0  0  0
   22.0577    9.4500   16.7516 C   0  0  0  0  0  0  0  0  0  0  0  0
   23.0723    8.7485   16.1036 C   0  0  0  0  0  0  0  0  0  0  0  0
   23.7957    7.7667   16.7799 C   0  0  0  0  0  0  0  0  0  0  0  0
   21.1119    4.1696   22.6423 C   0  0  0  0  0  0  0  0  0  0  0  0
   20.4513    4.7837   23.3706 N   0  0  0  0  0  0  0  0  0  0  0  0
  1  2  2  0  0  0
  1  5  1  0  0  0
  2  3  1  0  0  0
  3 28  1  0  0  0
  3  4  2  0  0  0
  4  6  1  0  0  0
  4  5  1  0  0  0
  5  9  1  0  0  0
  6  7  2  0  0  0
  7 20  1  0  0  0
  7  8  1  0  0  0
  8  9  2  0  0  0
  9 10  1  0  0  0
 10 12  1  0  0  0
 12 13  1  0  0  0
 13 14  1  0  0  0
 14 15  1  0  0  0
 14 18  2  0  0  0
 15 16  1  0  0  0
 16 17  2  0  0  0
 17 18  1  0  0  0
 20 22  1  0  0  0
 22 23  1  0  0  0
 22 27  2  0  0  0
 23 24  2  0  0  0
 24 25  1  0  0  0
 25 26  2  0  0  0
 26 27  1  0  0  0
 28 29  3  0  0  0
 10 11  1  0  0  0
 15 19  1  0  0  0
 20 21  1  0  0  0
M  END
> <minimizedAffinity>
-9.21345

$$$$
2PVM_P29_A_501


 29 32  0  0  0  0  0  0  0  0999 V2000
   22.9541    1.5423   20.2835 N   0  0  0  0  0  0  0  0  0  0  0  0
   22.0967    1.7765   21.3117 C   0  0  0  0  0  0  0  0  0  0  0  0
   21.9748    3.1655   21.5014 C   0  0  0  0  0  0  0  0  0  0  0  0
   22.8217    3.7686   20.4952 C   0  0  0  0  0  0  0  0  0  0  0  0
   23.3900    2.7413   19.7998 N   0  0  0  0  0  0  0  0  0  0  0  0
   23.1172    5.0399   20.1701 N   0  0  0  0  0  0  0  0  0  0  0  0
   23.9700    5.2360   19.1662 C   0  0  0  0  0  0  0  0  0  0  0  0
   24.5390    4.2492   18.4829 N   0  0  0  0  0  0  0  0  0  0  0  0
   24.2343    3.0009   18.8194 C   0  0  0  0  0  0  0  0  0  0  0  0
   24.8137    1.9648   18.1692 N   0  0  0  0  0  0  0  0  0  0  0  0
   24.3206    1.5192   17.4429 H   0  0  0  0  0  0  0  0  0  0  0  0
   26.1514    1.4897   18.5159 C   0  0  0  0  0  0  0  0  0  0  0  0
   26.3969    0.0744   17.9935 C   0  0  0  0  0  0  0  0  0  0  0  0
   26.2931    0.1083   16.4856 C   0  0  0  0  0  0  0  0  0  0  0  0
   27.1835    0.7481   15.6965 N   0  0  0  0  0  0  0  0  0  0  0  0
   26.7703    0.5605   14.4124 C   0  0  0  0  0  0  0  0  0  0  0  0
   25.6307   -0.1895   14.4022 N   0  0  0  0  0  0  0  0  0  0  0  0
   25.3007   -0.4929   15.6865 C   0  0  0  0  0  0  0  0  0  0  0  0
   27.9762    1.2516   15.9920 H   0  0  0  0  0  0  0  0  0  0  0  0
   24.3265    6.4734   18.7307 N   0  0  0  0  0  0  0  0  0  0  0  0
   25.2792    6.7003   18.8315 H   0  0  0  0  0  0  0  0  0  0  0  0
   23.5504    7.4398   18.1758 C   0  0  0  0  0  0  0  0  0  0  0  0
   22.5238    8.1132   18.8432 C   0  0  0  0  0  0  0  0  0  0  0  0
   21.7702    9.0993   18.2099 C   0  0  0  0  0  0  0  0  0  0  0  0
   22.0437    9.4223   16.8836 C   0  0  0  0  0  0  0  0  0  0  0  0
   23.0585    8.7519   16.2037 C   0  0  0  0  0  0  0  0  0  0  0  0
   23.8067    7.7655   16.8452 C   0  0  0  0  0  0  0  0  0  0  0  0
   21.2485    3.8311   22.5394 C   0  0  0  0  0  0  0  0  0  0  0  0
   20.5770    4.3908   23.3008 N   0  0  0  0  0  0  0  0  0  0  0  0
  1  2  2  0  0  0
  1  5  1  0  0  0
  2  3  1  0  0  0
  3 28  1  0  0  0
  3  4  2  0  0  0
  4  6  1  0  0  0
  4  5  1  0  0  0
  5  9  1  0  0  0
  6  7  2  0  0  0
  7 20  1  0  0  0
  7  8  1  0  0  0
  8  9  2  0  0  0
  9 10  1  0  0  0
 10 12  1  0  0  0
 12 13  1  0  0  0
 13 14  1  0  0  0
 14 15  1  0  0  0
 14 18  2  0  0  0
 15 16  1  0  0  0
 16 17  2  0  0  0
 17 18  1  0  0  0
 20 22  1  0  0  0
 22 23  1  0  0  0
 22 27  2  0  0  0
 23 24  2  0  0  0
 24 25  1  0  0  0
 25 26  2  0  0  0
 26 27  1  0  0  0
 28 29  3  0  0  0
 10 11  1  0  0  0
 15 19  1  0  0  0
 20 21  1  0  0  0
M  END
> <minimizedAffinity>
-9.19429

$$$$
2PVM_P29_A_501


 29 32  0  0  0  0  0  0  0  0999 V2000
   24.3679    1.4850   19.5080 N   0  0  0  0  0  0  0  0  0  0  0  0
   25.6219    1.2949   19.0197 C   0  0  0  0  0  0  0  0  0  0  0  0
   26.1906    2.5452   18.7137 C   0  0  0  0  0  0  0  0  0  0  0  0
   25.1845    3.5236   19.0654 C   0  0  0  0  0  0  0  0  0  0  0  0
   24.1085    2.8244   19.5292 N   0  0  0  0  0  0  0  0  0  0  0  0
   25.1354    4.8667   19.0099 N   0  0  0  0  0  0  0  0  0  0  0  0
   24.0139    5.4587   19.4166 C   0  0  0  0  0  0  0  0  0  0  0  0
   22.9538    4.7949   19.8637 N   0  0  0  0  0  0  0  0  0  0  0  0
   23.0222    3.4692   19.9106 C   0  0  0  0  0  0  0  0  0  0  0  0
   21.9545    2.7517   20.3315 N   0  0  0  0  0  0  0  0  0  0  0  0
   21.4723    2.1868   19.6852 H   0  0  0  0  0  0  0  0  0  0  0  0
   21.4980    2.7927   21.7189 C   0  0  0  0  0  0  0  0  0  0  0  0
   21.0600    1.4118   22.2065 C   0  0  0  0  0  0  0  0  0  0  0  0
   19.5487    1.3808   22.2262 C   0  0  0  0  0  0  0  0  0  0  0  0
   18.7944    1.3437   21.1061 N   0  0  0  0  0  0  0  0  0  0  0  0
   17.4949    1.3223   21.5129 C   0  0  0  0  0  0  0  0  0  0  0  0
   17.4404    1.3472   22.8759 N   0  0  0  0  0  0  0  0  0  0  0  0
   18.7114    1.3836   23.3592 C   0  0  0  0  0  0  0  0  0  0  0  0
   19.1205    1.3340   20.1773 H   0  0  0  0  0  0  0  0  0  0  0  0
   23.8542    6.8086   19.4303 N   0  0  0  0  0  0  0  0  0  0  0  0
   24.1885    7.2671   20.2348 H   0  0  0  0  0  0  0  0  0  0  0  0
   23.2973    7.6122   18.4878 C   0  0  0  0  0  0  0  0  0  0  0  0
   22.1548    8.3924   18.6850 C   0  0  0  0  0  0  0  0  0  0  0  0
   21.6417    9.1986   17.6711 C   0  0  0  0  0  0  0  0  0  0  0  0
   22.2790    9.2290   16.4337 C   0  0  0  0  0  0  0  0  0  0  0  0
   23.4137    8.4488   16.2208 C   0  0  0  0  0  0  0  0  0  0  0  0
   23.9193    7.6440   17.2412 C   0  0  0  0  0  0  0  0  0  0  0  0
   27.4554    2.7845   18.0885 C   0  0  0  0  0  0  0  0  0  0  0  0
   28.4671    2.8747   17.5296 N   0  0  0  0  0  0  0  0  0  0  0  0
  1  2  2  0  0  0
  1  5  1  0  0  0
  2  3  1  0  0  0
  3 28  1  0  0  0
  3  4  2  0  0  0
  4  6  1  0  0  0
  4  5  1  0  0  0
  5  9  1  0  0  0
  6  7  2  0  0  0
  7 20  1  0  0  0
  7  8  1  0  0  0
  8  9  2  0  0  0
  9 10  1  0  0  0
 10 12  1  0  0  0
 12 13  1  0  0  0
 13 14  1  0  0  0
 14 15  1  0  0  0
 14 18  2  0  0  0
 15 16  1  0  0  0
 16 17  2  0  0  0
 17 18  1  0  0  0
 20 22  1  0  0  0
 22 23  1  0  0  0
 22 27  2  0  0  0
 23 24  2  0  0  0
 24 25  1  0  0  0
 25 26  2  0  0  0
 26 27  1  0  0  0
 28 29  3  0  0  0
 10 11  1  0  0  0
 15 19  1  0  0  0
 20 21  1  0  0  0
M  END
> <minimizedAffinity>
-9.12364

$$$$
2PVM_P29_A_501


 29 32  0  0  0  0  0  0  0  0999 V2000
   24.3075    1.3366   19.6342 N   0  0  0  0  0  0  0  0  0  0  0  0
   25.5511    1.2095   19.1007 C   0  0  0  0  0  0  0  0  0  0  0  0
   26.0574    2.4888   18.8051 C   0  0  0  0  0  0  0  0  0  0  0  0
   25.0245    3.4166   19.2121 C   0  0  0  0  0  0  0  0  0  0  0  0
   23.9943    2.6632   19.6947 N   0  0  0  0  0  0  0  0  0  0  0  0
   24.9186    4.7573   19.1892 N   0  0  0  0  0  0  0  0  0  0  0  0
   23.7881    5.2931   19.6460 C   0  0  0  0  0  0  0  0  0  0  0  0
   22.7718    4.5761   20.1122 N   0  0  0  0  0  0  0  0  0  0  0  0
   22.8960    3.2537   20.1264 C   0  0  0  0  0  0  0  0  0  0  0  0
   21.8734    2.4834   20.5654 N   0  0  0  0  0  0  0  0  0  0  0  0
   21.2024    2.1645   19.9193 H   0  0  0  0  0  0  0  0  0  0  0  0
   21.7382    2.1120   21.9722 C   0  0  0  0  0  0  0  0  0  0  0  0
   20.6161    2.8948   22.6537 C   0  0  0  0  0  0  0  0  0  0  0  0
   21.2288    4.1063   23.3189 C   0  0  0  0  0  0  0  0  0  0  0  0
   21.3176    5.3139   22.7202 N   0  0  0  0  0  0  0  0  0  0  0  0
   21.9173    6.1482   23.6141 C   0  0  0  0  0  0  0  0  0  0  0  0
   22.2008    5.4648   24.7604 N   0  0  0  0  0  0  0  0  0  0  0  0
   21.7822    4.1790   24.6125 C   0  0  0  0  0  0  0  0  0  0  0  0
   21.0092    5.5457   21.8144 H   0  0  0  0  0  0  0  0  0  0  0  0
   23.5738    6.6345   19.6960 N   0  0  0  0  0  0  0  0  0  0  0  0
   23.6906    7.0500   20.5809 H   0  0  0  0  0  0  0  0  0  0  0  0
   23.2209    7.4808   18.6943 C   0  0  0  0  0  0  0  0  0  0  0  0
   23.9455    7.6570   17.5124 C   0  0  0  0  0  0  0  0  0  0  0  0
   23.5192    8.5417   16.5240 C   0  0  0  0  0  0  0  0  0  0  0  0
   22.3467    9.2673   16.7158 C   0  0  0  0  0  0  0  0  0  0  0  0
   21.6196    9.1080   17.8938 C   0  0  0  0  0  0  0  0  0  0  0  0
   22.0546    8.2212   18.8780 C   0  0  0  0  0  0  0  0  0  0  0  0
   27.2895    2.7942   18.1443 C   0  0  0  0  0  0  0  0  0  0  0  0
   28.3322    2.9467   17.6610 N   0  0  0  0  0  0  0  0  0  0  0  0
  1  2  2  0  0  0
  1  5  1  0  0  0
  2  3  1  0  0  0
  3 28  1  0  0  0
  3  4  2  0  0  0
  4  6  1  0  0  0
  4  5  1  0  0  0
  5  9  1  0  0  0
  6  7  2  0  0  0
  7 20  1  0  0  0
  7  8  1  0  0  0
  8  9  2  0  0  0
  9 10  1  0  0  0
 10 12  1  0  0  0
 12 13  1  0  0  0
 13 14  1  0  0  0
 14 15  1  0  0  0
 14 18  2  0  0  0
 15 16  1  0  0  0
 16 17  2  0  0  0
 17 18  1  0  0  0
 20 22  1  0  0  0
 22 23  1  0  0  0
 22 27  2  0  0  0
 23 24  2  0  0  0
 24 25  1  0  0  0
 25 26  2  0  0  0
 26 27  1  0  0  0
 28 29  3  0  0  0
 10 11  1  0  0  0
 15 19  1  0  0  0
 20 21  1  0  0  0
M  END
> <minimizedAffinity>
-8.98484

$$$$
2PVM_P29_A_501


 29 32  0  0  0  0  0  0  0  0999 V2000
   21.1769    3.4533   22.7109 N   0  0  0  0  0  0  0  0  0  0  0  0
   20.9140    4.2225   23.8001 C   0  0  0  0  0  0  0  0  0  0  0  0
   21.4432    5.5098   23.5925 C   0  0  0  0  0  0  0  0  0  0  0  0
   22.0453    5.4724   22.2774 C   0  0  0  0  0  0  0  0  0  0  0  0
   21.8601    4.2070   21.8016 N   0  0  0  0  0  0  0  0  0  0  0  0
   22.6958    6.3799   21.5274 N   0  0  0  0  0  0  0  0  0  0  0  0
   23.1383    5.9884   20.3338 C   0  0  0  0  0  0  0  0  0  0  0  0
   22.9744    4.7595   19.8571 N   0  0  0  0  0  0  0  0  0  0  0  0
   22.3295    3.8780   20.6130 C   0  0  0  0  0  0  0  0  0  0  0  0
   22.1661    2.6065   20.1788 N   0  0  0  0  0  0  0  0  0  0  0  0
   21.3156    2.3512   19.7537 H   0  0  0  0  0  0  0  0  0  0  0  0
   23.2178    1.6024   20.3238 C   0  0  0  0  0  0  0  0  0  0  0  0
   23.6955    1.0901   18.9653 C   0  0  0  0  0  0  0  0  0  0  0  0
   25.0806    1.6433   18.7181 C   0  0  0  0  0  0  0  0  0  0  0  0
   25.3471    2.9654   18.6422 N   0  0  0  0  0  0  0  0  0  0  0  0
   26.6850    3.0802   18.4154 C   0  0  0  0  0  0  0  0  0  0  0  0
   27.2472    1.8388   18.3493 N   0  0  0  0  0  0  0  0  0  0  0  0
   26.2701    0.9108   18.5354 C   0  0  0  0  0  0  0  0  0  0  0  0
   24.7003    3.7021   18.7332 H   0  0  0  0  0  0  0  0  0  0  0  0
   23.7873    6.8206   19.4770 N   0  0  0  0  0  0  0  0  0  0  0  0
   24.7670    6.8456   19.5705 H   0  0  0  0  0  0  0  0  0  0  0  0
   23.2712    7.6224   18.5101 C   0  0  0  0  0  0  0  0  0  0  0  0
   22.1428    8.4314   18.6690 C   0  0  0  0  0  0  0  0  0  0  0  0
   21.6723    9.2336   17.6316 C   0  0  0  0  0  0  0  0  0  0  0  0
   22.3386    9.2307   16.4092 C   0  0  0  0  0  0  0  0  0  0  0  0
   23.4595    8.4216   16.2345 C   0  0  0  0  0  0  0  0  0  0  0  0
   23.9225    7.6210   17.2781 C   0  0  0  0  0  0  0  0  0  0  0  0
   21.4696    6.5902   24.5306 C   0  0  0  0  0  0  0  0  0  0  0  0
   21.3817    7.4354   25.3192 N   0  0  0  0  0  0  0  0  0  0  0  0
  1  2  2  0  0  0
  1  5  1  0  0  0
  2  3  1  0  0  0
  3 28  1  0  0  0
  3  4  2  0  0  0
  4  6  1  0  0  0
  4  5  1  0  0  0
  5  9  1  0  0  0
  6  7  2  0  0  0
  7 20  1  0  0  0
  7  8  1  0  0  0
  8  9  2  0  0  0
  9 10  1  0  0  0
 10 12  1  0  0  0
 12 13  1  0  0  0
 13 14  1  0  0  0
 14 15  1  0  0  0
 14 18  2  0  0  0
 15 16  1  0  0  0
 16 17  2  0  0  0
 17 18  1  0  0  0
 20 22  1  0  0  0
 22 23  1  0  0  0
 22 27  2  0  0  0
 23 24  2  0  0  0
 24 25  1  0  0  0
 25 26  2  0  0  0
 26 27  1  0  0  0
 28 29  3  0  0  0
 10 11  1  0  0  0
 15 19  1  0  0  0
 20 21  1  0  0  0
M  END
> <minimizedAffinity>
-8.94584

$$$$
2PVM_P29_A_501


 29 32  0  0  0  0  0  0  0  0999 V2000
   24.2187    1.4832   19.7251 N   0  0  0  0  0  0  0  0  0  0  0  0
   25.4513    1.2964   19.1838 C   0  0  0  0  0  0  0  0  0  0  0  0
   25.9967    2.5472   18.8398 C   0  0  0  0  0  0  0  0  0  0  0  0
   24.9999    3.5225   19.2253 C   0  0  0  0  0  0  0  0  0  0  0  0
   23.9506    2.8209   19.7435 N   0  0  0  0  0  0  0  0  0  0  0  0
   24.9385    4.8644   19.1579 N   0  0  0  0  0  0  0  0  0  0  0  0
   23.8318    5.4532   19.6075 C   0  0  0  0  0  0  0  0  0  0  0  0
   22.7974    4.7870   20.1080 N   0  0  0  0  0  0  0  0  0  0  0  0
   22.8775    3.4623   20.1659 C   0  0  0  0  0  0  0  0  0  0  0  0
   21.8347    2.7421   20.6410 N   0  0  0  0  0  0  0  0  0  0  0  0
   21.3830    2.1025   20.0443 H   0  0  0  0  0  0  0  0  0  0  0  0
   21.3611    2.8882   22.0157 C   0  0  0  0  0  0  0  0  0  0  0  0
   21.4498    1.5690   22.7828 C   0  0  0  0  0  0  0  0  0  0  0  0
   22.8861    1.3741   23.2126 C   0  0  0  0  0  0  0  0  0  0  0  0
   23.7438    0.5478   22.5753 N   0  0  0  0  0  0  0  0  0  0  0  0
   24.9309    0.6334   23.2374 C   0  0  0  0  0  0  0  0  0  0  0  0
   24.8127    1.5055   24.2799 N   0  0  0  0  0  0  0  0  0  0  0  0
   23.5422    1.9915   24.2957 C   0  0  0  0  0  0  0  0  0  0  0  0
   23.5489   -0.0078   21.7863 H   0  0  0  0  0  0  0  0  0  0  0  0
   23.6629    6.8020   19.6141 N   0  0  0  0  0  0  0  0  0  0  0  0
   23.9305    7.2589   20.4440 H   0  0  0  0  0  0  0  0  0  0  0  0
   23.1761    7.6064   18.6342 C   0  0  0  0  0  0  0  0  0  0  0  0
   22.0016    8.3570   18.7345 C   0  0  0  0  0  0  0  0  0  0  0  0
   21.5650    9.1661   17.6875 C   0  0  0  0  0  0  0  0  0  0  0  0
   22.3129    9.2295   16.5151 C   0  0  0  0  0  0  0  0  0  0  0  0
   23.4811    8.4789   16.3985 C   0  0  0  0  0  0  0  0  0  0  0  0
   23.9097    7.6710   17.4511 C   0  0  0  0  0  0  0  0  0  0  0  0
   27.2309    2.7885   18.1567 C   0  0  0  0  0  0  0  0  0  0  0  0
   28.2828    2.9228   17.6883 N   0  0  0  0  0  0  0  0  0  0  0  0
  1  2  2  0  0  0
  1  5  1  0  0  0
  2  3  1  0  0  0
  3 28  1  0  0  0
  3  4  2  0  0  0
  4  6  1  0  0  0
  4  5  1  0  0  0
  5  9  1  0  0  0
  6  7  2  0  0  0
  7 20  1  0  0  0
  7  8  1  0  0  0
  8  9  2  0  0  0
  9 10  1  0  0  0
 10 12  1  0  0  0
 12 13  1  0  0  0
 13 14  1  0  0  0
 14 15  1  0  0  0
 14 18  2  0  0  0
 15 16  1  0  0  0
 16 17  2  0  0  0
 17 18  1  0  0  0
 20 22  1  0  0  0
 22 23  1  0  0  0
 22 27  2  0  0  0
 23 24  2  0  0  0
 24 25  1  0  0  0
 25 26  2  0  0  0
 26 27  1  0  0  0
 28 29  3  0  0  0
 10 11  1  0  0  0
 15 19  1  0  0  0
 20 21  1  0  0  0
M  END
> <minimizedAffinity>
-8.68983

$$$$
2PVM_P29_A_501


 29 32  0  0  0  0  0  0  0  0999 V2000
   21.8243    2.8279   21.9903 N   0  0  0  0  0  0  0  0  0  0  0  0
   22.3050    1.8320   21.2001 C   0  0  0  0  0  0  0  0  0  0  0  0
   23.0268    2.3992   20.1335 C   0  0  0  0  0  0  0  0  0  0  0  0
   22.9598    3.8298   20.3393 C   0  0  0  0  0  0  0  0  0  0  0  0
   22.2164    4.0253   21.4667 N   0  0  0  0  0  0  0  0  0  0  0  0
   23.4504    4.8885   19.6703 N   0  0  0  0  0  0  0  0  0  0  0  0
   23.1776    6.1003   20.1507 C   0  0  0  0  0  0  0  0  0  0  0  0
   22.4496    6.3107   21.2416 N   0  0  0  0  0  0  0  0  0  0  0  0
   21.9742    5.2522   21.8880 C   0  0  0  0  0  0  0  0  0  0  0  0
   21.2030    5.4215   22.9873 N   0  0  0  0  0  0  0  0  0  0  0  0
   20.5133    4.7508   23.1964 H   0  0  0  0  0  0  0  0  0  0  0  0
   21.3661    6.5728   23.8722 C   0  0  0  0  0  0  0  0  0  0  0  0
   20.2104    7.5622   23.7245 C   0  0  0  0  0  0  0  0  0  0  0  0
   20.0255    8.2660   25.0497 C   0  0  0  0  0  0  0  0  0  0  0  0
   18.9400    8.0927   25.8348 N   0  0  0  0  0  0  0  0  0  0  0  0
   19.1247    8.8771   26.9327 C   0  0  0  0  0  0  0  0  0  0  0  0
   20.3157    9.5347   26.8314 N   0  0  0  0  0  0  0  0  0  0  0  0
   20.9103    9.1755   25.6618 C   0  0  0  0  0  0  0  0  0  0  0  0
   18.1664    7.5126   25.6495 H   0  0  0  0  0  0  0  0  0  0  0  0
   23.6374    7.2434   19.5765 N   0  0  0  0  0  0  0  0  0  0  0  0
   24.3909    7.6768   20.0387 H   0  0  0  0  0  0  0  0  0  0  0  0
   23.2012    7.8703   18.4536 C   0  0  0  0  0  0  0  0  0  0  0  0
   22.0728    8.6924   18.3915 C   0  0  0  0  0  0  0  0  0  0  0  0
   21.6871    9.3080   17.2026 C   0  0  0  0  0  0  0  0  0  0  0  0
   22.4402    9.1009   16.0501 C   0  0  0  0  0  0  0  0  0  0  0  0
   23.5623    8.2762   16.0961 C   0  0  0  0  0  0  0  0  0  0  0  0
   23.9401    7.6632   17.2903 C   0  0  0  0  0  0  0  0  0  0  0  0
   23.6105    1.7064   19.0258 C   0  0  0  0  0  0  0  0  0  0  0  0
   23.9916    1.1808   18.0653 N   0  0  0  0  0  0  0  0  0  0  0  0
  1  2  2  0  0  0
  1  5  1  0  0  0
  2  3  1  0  0  0
  3 28  1  0  0  0
  3  4  2  0  0  0
  4  6  1  0  0  0
  4  5  1  0  0  0
  5  9  1  0  0  0
  6  7  2  0  0  0
  7 20  1  0  0  0
  7  8  1  0  0  0
  8  9  2  0  0  0
  9 10  1  0  0  0
 10 12  1  0  0  0
 12 13  1  0  0  0
 13 14  1  0  0  0
 14 15  1  0  0  0
 14 18  2  0  0  0
 15 16  1  0  0  0
 16 17  2  0  0  0
 17 18  1  0  0  0
 20 22  1  0  0  0
 22 23  1  0  0  0
 22 27  2  0  0  0
 23 24  2  0  0  0
 24 25  1  0  0  0
 25 26  2  0  0  0
 26 27  1  0  0  0
 28 29  3  0  0  0
 10 11  1  0  0  0
 15 19  1  0  0  0
 20 21  1  0  0  0
M  END
> <minimizedAffinity>
-8.64512

$$$$
2PVM_P29_A_501


 29 32  0  0  0  0  0  0  0  0999 V2000
   19.9902    9.7032   19.9677 N   0  0  0  0  0  0  0  0  0  0  0  0
   20.2942    9.8678   18.6532 C   0  0  0  0  0  0  0  0  0  0  0  0
   21.4054    9.0654   18.3344 C   0  0  0  0  0  0  0  0  0  0  0  0
   21.7541    8.3831   19.5618 C   0  0  0  0  0  0  0  0  0  0  0  0
   20.8723    8.8144   20.5095 N   0  0  0  0  0  0  0  0  0  0  0  0
   22.7076    7.4935   19.8915 N   0  0  0  0  0  0  0  0  0  0  0  0
   22.7454    7.0716   21.1541 C   0  0  0  0  0  0  0  0  0  0  0  0
   21.9009    7.4856   22.0920 N   0  0  0  0  0  0  0  0  0  0  0  0
   20.9667    8.3643   21.7464 C   0  0  0  0  0  0  0  0  0  0  0  0
   20.1042    8.8353   22.6771 N   0  0  0  0  0  0  0  0  0  0  0  0
   19.3608    9.4142   22.3916 H   0  0  0  0  0  0  0  0  0  0  0  0
   20.2465    8.5081   24.0941 C   0  0  0  0  0  0  0  0  0  0  0  0
   21.1239    9.5278   24.8200 C   0  0  0  0  0  0  0  0  0  0  0  0
   21.0250    9.2569   26.3040 C   0  0  0  0  0  0  0  0  0  0  0  0
   21.1504   10.2205   27.2424 N   0  0  0  0  0  0  0  0  0  0  0  0
   21.0028    9.6088   28.4502 C   0  0  0  0  0  0  0  0  0  0  0  0
   20.7884    8.2742   28.2653 N   0  0  0  0  0  0  0  0  0  0  0  0
   20.7950    8.0157   26.9297 C   0  0  0  0  0  0  0  0  0  0  0  0
   21.3161   11.1779   27.0840 H   0  0  0  0  0  0  0  0  0  0  0  0
   23.6463    6.1568   21.6007 N   0  0  0  0  0  0  0  0  0  0  0  0
   23.9052    6.2433   22.5466 H   0  0  0  0  0  0  0  0  0  0  0  0
   24.2386    5.1402   20.9227 C   0  0  0  0  0  0  0  0  0  0  0  0
   24.1919    4.9786   19.5353 C   0  0  0  0  0  0  0  0  0  0  0  0
   24.8289    3.9109   18.9065 C   0  0  0  0  0  0  0  0  0  0  0  0
   25.5275    2.9834   19.6747 C   0  0  0  0  0  0  0  0  0  0  0  0
   25.5742    3.1277   21.0598 C   0  0  0  0  0  0  0  0  0  0  0  0
   24.9325    4.1988   21.6806 C   0  0  0  0  0  0  0  0  0  0  0  0
   22.1029    9.0196   17.0857 C   0  0  0  0  0  0  0  0  0  0  0  0
   22.6058    8.8865   16.0496 N   0  0  0  0  0  0  0  0  0  0  0  0
  1  2  2  0  0  0
  1  5  1  0  0  0
  2  3  1  0  0  0
  3 28  1  0  0  0
  3  4  2  0  0  0
  4  6  1  0  0  0
  4  5  1  0  0  0
  5  9  1  0  0  0
  6  7  2  0  0  0
  7 20  1  0  0  0
  7  8  1  0  0  0
  8  9  2  0  0  0
  9 10  1  0  0  0
 10 12  1  0  0  0
 12 13  1  0  0  0
 13 14  1  0  0  0
 14 15  1  0  0  0
 14 18  2  0  0  0
 15 16  1  0  0  0
 16 17  2  0  0  0
 17 18  1  0  0  0
 20 22  1  0  0  0
 22 23  1  0  0  0
 22 27  2  0  0  0
 23 24  2  0  0  0
 24 25  1  0  0  0
 25 26  2  0  0  0
 26 27  1  0  0  0
 28 29  3  0  0  0
 10 11  1  0  0  0
 15 19  1  0  0  0
 20 21  1  0  0  0
M  END
> <minimizedAffinity>
-8.48973

$$$$
2PVM_P29_A_501


 29 32  0  0  0  0  0  0  0  0999 V2000
   19.9530    9.7671   20.0269 N   0  0  0  0  0  0  0  0  0  0  0  0
   20.2457    9.9044   18.7068 C   0  0  0  0  0  0  0  0  0  0  0  0
   21.3451    9.0844   18.3919 C   0  0  0  0  0  0  0  0  0  0  0  0
   21.6987    8.4210   19.6282 C   0  0  0  0  0  0  0  0  0  0  0  0
   20.8310    8.8789   20.5764 N   0  0  0  0  0  0  0  0  0  0  0  0
   22.6460    7.5274   19.9648 N   0  0  0  0  0  0  0  0  0  0  0  0
   22.6920    7.1283   21.2346 C   0  0  0  0  0  0  0  0  0  0  0  0
   21.8613    7.5684   22.1729 N   0  0  0  0  0  0  0  0  0  0  0  0
   20.9329    8.4505   21.8203 C   0  0  0  0  0  0  0  0  0  0  0  0
   20.0848    8.9477   22.7506 N   0  0  0  0  0  0  0  0  0  0  0  0
   19.1535    9.1397   22.4956 H   0  0  0  0  0  0  0  0  0  0  0  0
   20.5138    9.2072   24.1231 C   0  0  0  0  0  0  0  0  0  0  0  0
   19.6279    8.4804   25.1347 C   0  0  0  0  0  0  0  0  0  0  0  0
   20.2151    7.1070   25.3682 C   0  0  0  0  0  0  0  0  0  0  0  0
   21.5109    6.8063   25.1335 N   0  0  0  0  0  0  0  0  0  0  0  0
   21.6704    5.4931   25.4575 C   0  0  0  0  0  0  0  0  0  0  0  0
   20.4824    4.9798   25.8895 N   0  0  0  0  0  0  0  0  0  0  0  0
   19.5448    5.9644   25.8479 C   0  0  0  0  0  0  0  0  0  0  0  0
   22.2046    7.4170   24.7944 H   0  0  0  0  0  0  0  0  0  0  0  0
   23.5876    6.2122   21.6891 N   0  0  0  0  0  0  0  0  0  0  0  0
   23.8406    6.3002   22.6364 H   0  0  0  0  0  0  0  0  0  0  0  0
   24.1815    5.1924   21.0173 C   0  0  0  0  0  0  0  0  0  0  0  0
   24.1701    5.0448   19.6276 C   0  0  0  0  0  0  0  0  0  0  0  0
   24.8066    3.9728   19.0057 C   0  0  0  0  0  0  0  0  0  0  0  0
   25.4686    3.0266   19.7832 C   0  0  0  0  0  0  0  0  0  0  0  0
   25.4798    3.1568   21.1705 C   0  0  0  0  0  0  0  0  0  0  0  0
   24.8390    4.2324   21.7843 C   0  0  0  0  0  0  0  0  0  0  0  0
   22.0296    9.0084   17.1375 C   0  0  0  0  0  0  0  0  0  0  0  0
   22.6831    8.9359   16.1827 N   0  0  0  0  0  0  0  0  0  0  0  0
  1  2  2  0  0  0
  1  5  1  0  0  0
  2  3  1  0  0  0
  3 28  1  0  0  0
  3  4  2  0  0  0
  4  6  1  0  0  0
  4  5  1  0  0  0
  5  9  1  0  0  0
  6  7  2  0  0  0
  7 20  1  0  0  0
  7  8  1  0  0  0
  8  9  2  0  0  0
  9 10  1  0  0  0
 10 12  1  0  0  0
 12 13  1  0  0  0
 13 14  1  0  0  0
 14 15  1  0  0  0
 14 18  2  0  0  0
 15 16  1  0  0  0
 16 17  2  0  0  0
 17 18  1  0  0  0
 20 22  1  0  0  0
 22 23  1  0  0  0
 22 27  2  0  0  0
 23 24  2  0  0  0
 24 25  1  0  0  0
 25 26  2  0  0  0
 26 27  1  0  0  0
 28 29  3  0  0  0
 10 11  1  0  0  0
 15 19  1  0  0  0
 20 21  1  0  0  0
M  END
> <minimizedAffinity>
-8.37847

$$$$
2PVM_P29_A_501


 29 32  0  0  0  0  0  0  0  0999 V2000
   24.1587    2.1171   21.1441 N   0  0  0  0  0  0  0  0  0  0  0  0
   24.7731    1.2070   20.3432 C   0  0  0  0  0  0  0  0  0  0  0  0
   25.2329    1.8536   19.1809 C   0  0  0  0  0  0  0  0  0  0  0  0
   24.8594    3.2425   19.3382 C   0  0  0  0  0  0  0  0  0  0  0  0
   24.2092    3.3365   20.5341 N   0  0  0  0  0  0  0  0  0  0  0  0
   25.0225    4.3401   18.5780 N   0  0  0  0  0  0  0  0  0  0  0  0
   24.5280    5.4873   19.0396 C   0  0  0  0  0  0  0  0  0  0  0  0
   23.8857    5.5970   20.1970 N   0  0  0  0  0  0  0  0  0  0  0  0
   23.7349    4.5016   20.9330 C   0  0  0  0  0  0  0  0  0  0  0  0
   23.0610    4.5622   22.1052 N   0  0  0  0  0  0  0  0  0  0  0  0
   22.3127    3.9414   22.2600 H   0  0  0  0  0  0  0  0  0  0  0  0
   23.4139    5.5238   23.1473 C   0  0  0  0  0  0  0  0  0  0  0  0
   22.2540    5.7522   24.1161 C   0  0  0  0  0  0  0  0  0  0  0  0
   21.6767    7.1217   23.8394 C   0  0  0  0  0  0  0  0  0  0  0  0
   21.4934    8.0553   24.7983 N   0  0  0  0  0  0  0  0  0  0  0  0
   20.9629    9.1475   24.1815 C   0  0  0  0  0  0  0  0  0  0  0  0
   20.8158    8.8954   22.8488 N   0  0  0  0  0  0  0  0  0  0  0  0
   21.2543    7.6326   22.5963 C   0  0  0  0  0  0  0  0  0  0  0  0
   21.7025    7.9641   25.7560 H   0  0  0  0  0  0  0  0  0  0  0  0
   24.6515    6.6661   18.3738 N   0  0  0  0  0  0  0  0  0  0  0  0
   25.5711    6.9239   18.1349 H   0  0  0  0  0  0  0  0  0  0  0  0
   23.6819    7.5371   17.9926 C   0  0  0  0  0  0  0  0  0  0  0  0
   22.6735    8.0187   18.8319 C   0  0  0  0  0  0  0  0  0  0  0  0
   21.7127    8.9166   18.3717 C   0  0  0  0  0  0  0  0  0  0  0  0
   21.7556    9.3445   17.0476 C   0  0  0  0  0  0  0  0  0  0  0  0
   22.7502    8.8649   16.1977 C   0  0  0  0  0  0  0  0  0  0  0  0
   23.7070    7.9655   16.6667 C   0  0  0  0  0  0  0  0  0  0  0  0
   25.8450    1.2413   18.0415 C   0  0  0  0  0  0  0  0  0  0  0  0
   26.4158    0.8351   17.1178 N   0  0  0  0  0  0  0  0  0  0  0  0
  1  2  2  0  0  0
  1  5  1  0  0  0
  2  3  1  0  0  0
  3 28  1  0  0  0
  3  4  2  0  0  0
  4  6  1  0  0  0
  4  5  1  0  0  0
  5  9  1  0  0  0
  6  7  2  0  0  0
  7 20  1  0  0  0
  7  8  1  0  0  0
  8  9  2  0  0  0
  9 10  1  0  0  0
 10 12  1  0  0  0
 12 13  1  0  0  0
 13 14  1  0  0  0
 14 15  1  0  0  0
 14 18  2  0  0  0
 15 16  1  0  0  0
 16 17  2  0  0  0
 17 18  1  0  0  0
 20 22  1  0  0  0
 22 23  1  0  0  0
 22 27  2  0  0  0
 23 24  2  0  0  0
 24 25  1  0  0  0
 25 26  2  0  0  0
 26 27  1  0  0  0
 28 29  3  0  0  0
 10 11  1  0  0  0
 15 19  1  0  0  0
 20 21  1  0  0  0
M  END
> <minimizedAffinity>
-8.29843

$$$$
