5FSN_6Q3_A_201


 16 16  0  0  0  0  0  0  0  0999 V2000
   15.6938   21.8413    5.1503 N   0  0  0  0  0  0  0  0  0  0  0  0
   16.9519   21.5375    4.7655 C   0  0  0  0  0  0  0  0  0  0  0  0
   17.6347   20.6818    5.5242 N   0  0  0  0  0  0  0  0  0  0  0  0
   17.5725   22.0214    3.6697 N   0  0  0  0  0  0  0  0  0  0  0  0
   16.8828   22.8838    2.9079 C   0  0  0  0  0  0  0  0  0  0  0  0
   17.5809   23.4145    1.6942 C   0  0  0  0  0  0  0  0  0  0  0  0
   15.0508   22.7063    4.3770 C   0  0  0  0  0  0  0  0  0  0  0  0
   15.5932   23.2632    3.2327 C   0  0  0  0  0  0  0  0  0  0  0  0
   17.2214   20.3033    6.3335 H   0  0  0  0  0  0  0  0  0  0  0  0
   18.5528   20.4277    5.2755 H   0  0  0  0  0  0  0  0  0  0  0  0
   13.7842   23.1014    4.6705 O   0  0  0  0  0  0  0  0  0  0  0  0
   12.8538   22.1116    5.1303 C   0  0  0  0  0  0  0  0  0  0  0  0
   12.1883   21.5321    3.9049 C   0  0  0  0  0  0  0  0  0  0  0  0
   13.8126   20.0468    3.2580 O   0  0  0  0  0  0  0  0  0  0  0  0
   12.5071   20.0939    3.7723 C   0  0  0  0  0  0  0  0  0  0  0  0
   14.0831   19.1219    3.1470 H   0  0  0  0  0  0  0  0  0  0  0  0
  1  2  1  0  0  0
  1  7  2  0  0  0
  2  3  1  0  0  0
  2  4  2  0  0  0
  4  5  1  0  0  0
  5  6  1  0  0  0
  5  8  2  0  0  0
  7  8  1  0  0  0
  7 11  1  0  0  0
 14 15  1  0  0  0
 15 13  1  0  0  0
 13 12  1  0  0  0
 12 11  1  0  0  0
  3  9  1  0  0  0
  3 10  1  0  0  0
 14 16  1  0  0  0
M  END
> <minimizedAffinity>
-7.04635

$$$$
5FSN_6Q3_A_201


 16 16  0  0  0  0  0  0  0  0999 V2000
   15.6754   21.7202    5.1207 N   0  0  0  0  0  0  0  0  0  0  0  0
   16.9643   21.4986    4.7847 C   0  0  0  0  0  0  0  0  0  0  0  0
   17.6697   20.6834    5.5668 N   0  0  0  0  0  0  0  0  0  0  0  0
   17.5953   22.0271    3.7158 N   0  0  0  0  0  0  0  0  0  0  0  0
   16.8827   22.8485    2.9303 C   0  0  0  0  0  0  0  0  0  0  0  0
   17.5927   23.4293    1.7467 C   0  0  0  0  0  0  0  0  0  0  0  0
   15.0095   22.5472    4.3255 C   0  0  0  0  0  0  0  0  0  0  0  0
   15.5599   23.1439    3.2052 C   0  0  0  0  0  0  0  0  0  0  0  0
   17.2498   20.2749    6.3581 H   0  0  0  0  0  0  0  0  0  0  0  0
   18.6110   20.4892    5.3537 H   0  0  0  0  0  0  0  0  0  0  0  0
   13.7099   22.8599    4.5702 O   0  0  0  0  0  0  0  0  0  0  0  0
   12.6992   21.9278    4.1621 C   0  0  0  0  0  0  0  0  0  0  0  0
   11.4518   22.7298    3.8778 C   0  0  0  0  0  0  0  0  0  0  0  0
   11.3129   23.2016    6.1186 O   0  0  0  0  0  0  0  0  0  0  0  0
   10.5469   22.7143    5.0477 C   0  0  0  0  0  0  0  0  0  0  0  0
   10.7713   23.2163    6.9231 H   0  0  0  0  0  0  0  0  0  0  0  0
  1  2  1  0  0  0
  1  7  2  0  0  0
  2  3  1  0  0  0
  2  4  2  0  0  0
  4  5  1  0  0  0
  5  6  1  0  0  0
  5  8  2  0  0  0
  7  8  1  0  0  0
  7 11  1  0  0  0
 14 15  1  0  0  0
 15 13  1  0  0  0
 13 12  1  0  0  0
 12 11  1  0  0  0
  3  9  1  0  0  0
  3 10  1  0  0  0
 14 16  1  0  0  0
M  END
> <minimizedAffinity>
-6.98114

$$$$
5FSN_6Q3_A_201


 16 16  0  0  0  0  0  0  0  0999 V2000
   15.5934   20.9704    5.2307 N   0  0  0  0  0  0  0  0  0  0  0  0
   16.9342   21.1166    5.1662 C   0  0  0  0  0  0  0  0  0  0  0  0
   17.6608   20.5295    6.1155 N   0  0  0  0  0  0  0  0  0  0  0  0
   17.6009   21.8005    4.2133 N   0  0  0  0  0  0  0  0  0  0  0  0
   16.8665   22.3917    3.2589 C   0  0  0  0  0  0  0  0  0  0  0  0
   17.6165   23.1479    2.2064 C   0  0  0  0  0  0  0  0  0  0  0  0
   14.9035   21.5799    4.2756 C   0  0  0  0  0  0  0  0  0  0  0  0
   15.4861   22.3069    3.2530 C   0  0  0  0  0  0  0  0  0  0  0  0
   17.2164   20.0197    6.8310 H   0  0  0  0  0  0  0  0  0  0  0  0
   18.6423   20.6052    6.1017 H   0  0  0  0  0  0  0  0  0  0  0  0
   13.5464   21.5183    4.2436 O   0  0  0  0  0  0  0  0  0  0  0  0
   12.9230   20.2304    4.3422 C   0  0  0  0  0  0  0  0  0  0  0  0
   12.0251   20.0841    3.1370 C   0  0  0  0  0  0  0  0  0  0  0  0
   11.3524   18.1967    2.0197 O   0  0  0  0  0  0  0  0  0  0  0  0
   11.2028   18.8597    3.2481 C   0  0  0  0  0  0  0  0  0  0  0  0
   10.8326   17.3778    2.0287 H   0  0  0  0  0  0  0  0  0  0  0  0
  1  2  1  0  0  0
  1  7  2  0  0  0
  2  3  1  0  0  0
  2  4  2  0  0  0
  4  5  1  0  0  0
  5  6  1  0  0  0
  5  8  2  0  0  0
  7  8  1  0  0  0
  7 11  1  0  0  0
 14 15  1  0  0  0
 15 13  1  0  0  0
 13 12  1  0  0  0
 12 11  1  0  0  0
  3  9  1  0  0  0
  3 10  1  0  0  0
 14 16  1  0  0  0
M  END
> <minimizedAffinity>
-6.71625

$$$$
5FSN_6Q3_A_201


 16 16  0  0  0  0  0  0  0  0999 V2000
   13.7596   20.1347    3.6357 N   0  0  0  0  0  0  0  0  0  0  0  0
   12.5435   20.0738    4.2194 C   0  0  0  0  0  0  0  0  0  0  0  0
   11.8940   18.9124    4.1620 N   0  0  0  0  0  0  0  0  0  0  0  0
   11.9348   21.0897    4.8654 N   0  0  0  0  0  0  0  0  0  0  0  0
   12.5908   22.2586    4.9210 C   0  0  0  0  0  0  0  0  0  0  0  0
   11.9062   23.3793    5.6404 C   0  0  0  0  0  0  0  0  0  0  0  0
   14.3694   21.3109    3.7026 C   0  0  0  0  0  0  0  0  0  0  0  0
   13.8353   22.4171    4.3390 C   0  0  0  0  0  0  0  0  0  0  0  0
   12.3003   18.1434    3.7005 H   0  0  0  0  0  0  0  0  0  0  0  0
   11.0077   18.8228    4.5809 H   0  0  0  0  0  0  0  0  0  0  0  0
   15.5911   21.4997    3.1383 O   0  0  0  0  0  0  0  0  0  0  0  0
   16.5151   22.3762    3.7977 C   0  0  0  0  0  0  0  0  0  0  0  0
   17.6816   22.5708    2.8588 C   0  0  0  0  0  0  0  0  0  0  0  0
   16.1620   24.1777    2.2492 O   0  0  0  0  0  0  0  0  0  0  0  0
   17.3474   23.5636    1.8147 C   0  0  0  0  0  0  0  0  0  0  0  0
   15.8876   24.8456    1.6015 H   0  0  0  0  0  0  0  0  0  0  0  0
  1  2  1  0  0  0
  1  7  2  0  0  0
  2  3  1  0  0  0
  2  4  2  0  0  0
  4  5  1  0  0  0
  5  6  1  0  0  0
  5  8  2  0  0  0
  7  8  1  0  0  0
  7 11  1  0  0  0
 14 15  1  0  0  0
 15 13  1  0  0  0
 13 12  1  0  0  0
 12 11  1  0  0  0
  3  9  1  0  0  0
  3 10  1  0  0  0
 14 16  1  0  0  0
M  END
> <minimizedAffinity>
-6.16343

$$$$
5FSN_6Q3_A_201


 16 16  0  0  0  0  0  0  0  0999 V2000
   15.3477   23.3616    3.2960 N   0  0  0  0  0  0  0  0  0  0  0  0
   16.5519   22.7874    3.0879 C   0  0  0  0  0  0  0  0  0  0  0  0
   17.2015   23.1137    1.9719 N   0  0  0  0  0  0  0  0  0  0  0  0
   17.1573   21.9169    3.9221 N   0  0  0  0  0  0  0  0  0  0  0  0
   16.5004   21.5893    5.0450 C   0  0  0  0  0  0  0  0  0  0  0  0
   17.1815   20.6227    5.9637 C   0  0  0  0  0  0  0  0  0  0  0  0
   14.7261   23.0022    4.4114 C   0  0  0  0  0  0  0  0  0  0  0  0
   15.2555   22.1178    5.3341 C   0  0  0  0  0  0  0  0  0  0  0  0
   16.7975   23.7454    1.3340 H   0  0  0  0  0  0  0  0  0  0  0  0
   18.0857   22.7232    1.7849 H   0  0  0  0  0  0  0  0  0  0  0  0
   13.5009   23.5011    4.7226 O   0  0  0  0  0  0  0  0  0  0  0  0
   12.6549   22.7320    5.5883 C   0  0  0  0  0  0  0  0  0  0  0  0
   11.2320   23.1344    5.2823 C   0  0  0  0  0  0  0  0  0  0  0  0
   11.5181   21.6288    3.5751 O   0  0  0  0  0  0  0  0  0  0  0  0
   10.5552   22.0853    4.4890 C   0  0  0  0  0  0  0  0  0  0  0  0
   11.1327   20.9329    3.0201 H   0  0  0  0  0  0  0  0  0  0  0  0
  1  2  1  0  0  0
  1  7  2  0  0  0
  2  3  1  0  0  0
  2  4  2  0  0  0
  4  5  1  0  0  0
  5  6  1  0  0  0
  5  8  2  0  0  0
  7  8  1  0  0  0
  7 11  1  0  0  0
 14 15  1  0  0  0
 15 13  1  0  0  0
 13 12  1  0  0  0
 12 11  1  0  0  0
  3  9  1  0  0  0
  3 10  1  0  0  0
 14 16  1  0  0  0
M  END
> <minimizedAffinity>
-5.97951

$$$$
5FSN_6Q3_A_201


 16 16  0  0  0  0  0  0  0  0999 V2000
   11.9032   21.4515    4.6770 N   0  0  0  0  0  0  0  0  0  0  0  0
   12.4392   22.2901    5.5895 C   0  0  0  0  0  0  0  0  0  0  0  0
   11.6020   23.0716    6.2696 N   0  0  0  0  0  0  0  0  0  0  0  0
   13.7530   22.3957    5.8774 N   0  0  0  0  0  0  0  0  0  0  0  0
   14.5941   21.6082    5.1904 C   0  0  0  0  0  0  0  0  0  0  0  0
   16.0499   21.7334    5.5180 C   0  0  0  0  0  0  0  0  0  0  0  0
   12.7694   20.6990    4.0114 C   0  0  0  0  0  0  0  0  0  0  0  0
   14.1357   20.7285    4.2267 C   0  0  0  0  0  0  0  0  0  0  0  0
   10.6345   23.0281    6.0925 H   0  0  0  0  0  0  0  0  0  0  0  0
   11.9506   23.6926    6.9493 H   0  0  0  0  0  0  0  0  0  0  0  0
   12.3512   19.8273    3.0565 O   0  0  0  0  0  0  0  0  0  0  0  0
   10.9437   19.5829    2.9303 C   0  0  0  0  0  0  0  0  0  0  0  0
   10.7230   18.1207    3.2362 C   0  0  0  0  0  0  0  0  0  0  0  0
    9.9007   19.1391    5.1203 O   0  0  0  0  0  0  0  0  0  0  0  0
    9.7783   17.9631    4.3633 C   0  0  0  0  0  0  0  0  0  0  0  0
    9.3010   19.0975    5.8815 H   0  0  0  0  0  0  0  0  0  0  0  0
  1  2  1  0  0  0
  1  7  2  0  0  0
  2  3  1  0  0  0
  2  4  2  0  0  0
  4  5  1  0  0  0
  5  6  1  0  0  0
  5  8  2  0  0  0
  7  8  1  0  0  0
  7 11  1  0  0  0
 14 15  1  0  0  0
 15 13  1  0  0  0
 13 12  1  0  0  0
 12 11  1  0  0  0
  3  9  1  0  0  0
  3 10  1  0  0  0
 14 16  1  0  0  0
M  END
> <minimizedAffinity>
-5.97819

$$$$
5FSN_6Q3_A_201


 16 16  0  0  0  0  0  0  0  0999 V2000
   13.7698   21.1609    5.3388 N   0  0  0  0  0  0  0  0  0  0  0  0
   14.8234   20.4869    4.8299 C   0  0  0  0  0  0  0  0  0  0  0  0
   14.9494   19.2039    5.1646 N   0  0  0  0  0  0  0  0  0  0  0  0
   15.7550   21.0028    4.0016 N   0  0  0  0  0  0  0  0  0  0  0  0
   15.6262   22.2954    3.6668 C   0  0  0  0  0  0  0  0  0  0  0  0
   16.6654   22.8577    2.7470 C   0  0  0  0  0  0  0  0  0  0  0  0
   13.6855   22.4388    4.9931 C   0  0  0  0  0  0  0  0  0  0  0  0
   14.5860   23.0672    4.1517 C   0  0  0  0  0  0  0  0  0  0  0  0
   14.2925   18.7855    5.7668 H   0  0  0  0  0  0  0  0  0  0  0  0
   15.6995   18.6740    4.8098 H   0  0  0  0  0  0  0  0  0  0  0  0
   12.6774   23.2244    5.4550 O   0  0  0  0  0  0  0  0  0  0  0  0
   11.5172   23.3949    4.6294 C   0  0  0  0  0  0  0  0  0  0  0  0
   10.5106   22.3582    5.0676 C   0  0  0  0  0  0  0  0  0  0  0  0
    9.7692   20.3158    4.3314 O   0  0  0  0  0  0  0  0  0  0  0  0
    9.9662   21.6362    3.8970 C   0  0  0  0  0  0  0  0  0  0  0  0
    9.4101   19.7858    3.6026 H   0  0  0  0  0  0  0  0  0  0  0  0
  1  2  1  0  0  0
  1  7  2  0  0  0
  2  3  1  0  0  0
  2  4  2  0  0  0
  4  5  1  0  0  0
  5  6  1  0  0  0
  5  8  2  0  0  0
  7  8  1  0  0  0
  7 11  1  0  0  0
 14 15  1  0  0  0
 15 13  1  0  0  0
 13 12  1  0  0  0
 12 11  1  0  0  0
  3  9  1  0  0  0
  3 10  1  0  0  0
 14 16  1  0  0  0
M  END
> <minimizedAffinity>
-5.90596

$$$$
5FSN_6Q3_A_201


 16 16  0  0  0  0  0  0  0  0999 V2000
   12.0647   20.5022    3.3903 N   0  0  0  0  0  0  0  0  0  0  0  0
   11.1696   19.8034    2.6597 C   0  0  0  0  0  0  0  0  0  0  0  0
   11.4952   18.5572    2.3206 N   0  0  0  0  0  0  0  0  0  0  0  0
    9.9670   20.2594    2.2524 N   0  0  0  0  0  0  0  0  0  0  0  0
    9.6419   21.5151    2.5946 C   0  0  0  0  0  0  0  0  0  0  0  0
    8.3050   22.0110    2.1375 C   0  0  0  0  0  0  0  0  0  0  0  0
   11.7102   21.7431    3.6974 C   0  0  0  0  0  0  0  0  0  0  0  0
   10.5027   22.3094    3.3299 C   0  0  0  0  0  0  0  0  0  0  0  0
   12.3630   18.1828    2.5964 H   0  0  0  0  0  0  0  0  0  0  0  0
   10.8681   18.0105    1.7943 H   0  0  0  0  0  0  0  0  0  0  0  0
   12.5347   22.5497    4.4159 O   0  0  0  0  0  0  0  0  0  0  0  0
   13.3945   21.9451    5.3916 C   0  0  0  0  0  0  0  0  0  0  0  0
   14.7343   22.6330    5.2824 C   0  0  0  0  0  0  0  0  0  0  0  0
   15.0932   21.2565    3.4826 O   0  0  0  0  0  0  0  0  0  0  0  0
   15.7242   21.7422    4.6388 C   0  0  0  0  0  0  0  0  0  0  0  0
   15.6962   20.6606    3.0113 H   0  0  0  0  0  0  0  0  0  0  0  0
  1  2  1  0  0  0
  1  7  2  0  0  0
  2  3  1  0  0  0
  2  4  2  0  0  0
  4  5  1  0  0  0
  5  6  1  0  0  0
  5  8  2  0  0  0
  7  8  1  0  0  0
  7 11  1  0  0  0
 14 15  1  0  0  0
 15 13  1  0  0  0
 13 12  1  0  0  0
 12 11  1  0  0  0
  3  9  1  0  0  0
  3 10  1  0  0  0
 14 16  1  0  0  0
M  END
> <minimizedAffinity>
-5.85350

$$$$
5FSN_6Q3_A_201


 16 16  0  0  0  0  0  0  0  0999 V2000
   11.7280   19.1267    4.8784 N   0  0  0  0  0  0  0  0  0  0  0  0
   10.4170   19.2016    4.5636 C   0  0  0  0  0  0  0  0  0  0  0  0
    9.6337   18.1999    4.9601 N   0  0  0  0  0  0  0  0  0  0  0  0
    9.8318   20.2125    3.8886 N   0  0  0  0  0  0  0  0  0  0  0  0
   10.6232   21.2195    3.4897 C   0  0  0  0  0  0  0  0  0  0  0  0
    9.9633   22.3363    2.7416 C   0  0  0  0  0  0  0  0  0  0  0  0
   12.4777   20.1361    4.4556 C   0  0  0  0  0  0  0  0  0  0  0  0
   11.9804   21.2207    3.7556 C   0  0  0  0  0  0  0  0  0  0  0  0
   10.0180   17.4411    5.4558 H   0  0  0  0  0  0  0  0  0  0  0  0
    8.6705   18.2185    4.7574 H   0  0  0  0  0  0  0  0  0  0  0  0
   13.8145   20.1653    4.6980 O   0  0  0  0  0  0  0  0  0  0  0  0
   14.3942   21.3941    5.1574 C   0  0  0  0  0  0  0  0  0  0  0  0
   15.8124   21.4306    4.6401 C   0  0  0  0  0  0  0  0  0  0  0  0
   17.9676   20.8365    5.1551 O   0  0  0  0  0  0  0  0  0  0  0  0
   16.7747   21.2735    5.7524 C   0  0  0  0  0  0  0  0  0  0  0  0
   18.6452   20.7137    5.8382 H   0  0  0  0  0  0  0  0  0  0  0  0
  1  2  1  0  0  0
  1  7  2  0  0  0
  2  3  1  0  0  0
  2  4  2  0  0  0
  4  5  1  0  0  0
  5  6  1  0  0  0
  5  8  2  0  0  0
  7  8  1  0  0  0
  7 11  1  0  0  0
 14 15  1  0  0  0
 15 13  1  0  0  0
 13 12  1  0  0  0
 12 11  1  0  0  0
  3  9  1  0  0  0
  3 10  1  0  0  0
 14 16  1  0  0  0
M  END
> <minimizedAffinity>
-5.83902

$$$$
5FSN_6Q3_A_201


 16 16  0  0  0  0  0  0  0  0999 V2000
   15.4119   21.2412    3.9679 N   0  0  0  0  0  0  0  0  0  0  0  0
   16.5705   21.0405    4.6317 C   0  0  0  0  0  0  0  0  0  0  0  0
   17.5766   21.8742    4.3737 N   0  0  0  0  0  0  0  0  0  0  0  0
   16.7912   20.0707    5.5432 N   0  0  0  0  0  0  0  0  0  0  0  0
   15.7764   19.2318    5.8005 C   0  0  0  0  0  0  0  0  0  0  0  0
   16.0321   18.1593    6.8137 C   0  0  0  0  0  0  0  0  0  0  0  0
   14.4379   20.3833    4.2421 C   0  0  0  0  0  0  0  0  0  0  0  0
   14.5579   19.3532    5.1577 C   0  0  0  0  0  0  0  0  0  0  0  0
   17.4605   22.5971    3.7155 H   0  0  0  0  0  0  0  0  0  0  0  0
   18.4365   21.7676    4.8411 H   0  0  0  0  0  0  0  0  0  0  0  0
   13.2304   20.4738    3.6253 O   0  0  0  0  0  0  0  0  0  0  0  0
   12.0616   20.6313    4.4414 C   0  0  0  0  0  0  0  0  0  0  0  0
   10.8963   20.0903    3.6480 C   0  0  0  0  0  0  0  0  0  0  0  0
   11.4504   18.5328    2.0573 O   0  0  0  0  0  0  0  0  0  0  0  0
   11.0636   18.6414    3.4025 C   0  0  0  0  0  0  0  0  0  0  0  0
   11.5773   17.5980    1.8318 H   0  0  0  0  0  0  0  0  0  0  0  0
  1  2  1  0  0  0
  1  7  2  0  0  0
  2  3  1  0  0  0
  2  4  2  0  0  0
  4  5  1  0  0  0
  5  6  1  0  0  0
  5  8  2  0  0  0
  7  8  1  0  0  0
  7 11  1  0  0  0
 14 15  1  0  0  0
 15 13  1  0  0  0
 13 12  1  0  0  0
 12 11  1  0  0  0
  3  9  1  0  0  0
  3 10  1  0  0  0
 14 16  1  0  0  0
M  END
> <minimizedAffinity>
-5.78274

$$$$
