6BHV_DQV_A_1101


 54 58  0  0  0  0  0  0  0  0999 V2000
  -17.1180   24.3818   39.3594 O   0  0  0  0  0  0  0  0  0  0  0  0
  -16.2907   23.5281   37.1661 O   0  0  0  0  0  0  0  0  0  0  0  0
  -18.6039   23.0278   37.9108 O   0  0  0  0  0  0  0  0  0  0  0  0
  -17.1808   23.1777   38.3346 P   0  0  0  0  0  0  0  0  0  0  0  0
  -18.6778   22.2949   37.2796 H   0  0  0  0  0  0  0  0  0  0  0  0
  -16.5834   21.9388   39.1622 O   0  0  0  0  0  0  0  0  0  0  0  0
  -16.3429   20.6694   38.5188 C   0  0  0  0  0  0  0  0  0  0  0  0
  -12.8000   21.2026   38.9028 C   0  0  0  0  0  0  0  0  0  0  0  0
  -14.9202   20.1935   38.6774 C   0  0  0  0  0  0  0  0  0  0  0  0
  -14.0370   21.1946   38.1624 O   0  0  0  0  0  0  0  0  0  0  0  0
  -14.5102   20.0098   40.1379 C   0  0  0  0  0  0  0  0  0  0  0  0
  -14.7237   18.6768   40.5882 O   0  0  0  0  0  0  0  0  0  0  0  0
  -13.0085   20.3297   40.1529 C   0  0  0  0  0  0  0  0  0  0  0  0
  -12.1987   19.1642   40.0838 O   0  0  0  0  0  0  0  0  0  0  0  0
  -14.2204   18.0627   40.0310 H   0  0  0  0  0  0  0  0  0  0  0  0
  -12.4069   18.6734   39.2735 H   0  0  0  0  0  0  0  0  0  0  0  0
  -11.1099   22.8325   39.8001 C   0  0  0  0  0  0  0  0  0  0  0  0
  -12.3211   22.6064   39.1489 C   0  0  0  0  0  0  0  0  0  0  0  0
  -12.9939   23.6846   38.5762 C   0  0  0  0  0  0  0  0  0  0  0  0
  -10.5686   24.1071   39.8619 C   0  0  0  0  0  0  0  0  0  0  0  0
  -11.2352   25.1728   39.2843 C   0  0  0  0  0  0  0  0  0  0  0  0
  -12.4549   24.9713   38.6334 C   0  0  0  0  0  0  0  0  0  0  0  0
  -13.1345   26.1236   37.9447 C   0  0  0  0  0  0  0  0  0  0  0  0
  -12.6214   27.2744   38.0164 O   0  0  0  0  0  0  0  0  0  0  0  0
  -14.2686   25.8743   37.2703 N   0  0  0  0  0  0  0  0  0  0  0  0
  -14.7379   26.6063   36.8087 H   0  0  0  0  0  0  0  0  0  0  0  0
  -14.6309   24.9594   37.2375 H   0  0  0  0  0  0  0  0  0  0  0  0
  -18.6577   23.5118   41.1758 O   0  0  0  0  0  0  0  0  0  0  0  0
  -17.7198   25.7622   41.4224 O   0  0  0  0  0  0  0  0  0  0  0  0
  -18.2151   24.8021   40.4260 P   0  0  0  0  0  0  0  0  0  0  0  0
  -18.9889   22.8631   40.5352 H   0  0  0  0  0  0  0  0  0  0  0  0
  -19.4170   25.2984   39.6208 O   0  0  0  0  0  0  0  0  0  0  0  0
  -20.7970   25.1829   39.9776 C   0  0  0  0  0  0  0  0  0  0  0  0
  -21.6242   25.3770   38.7426 C   0  0  0  0  0  0  0  0  0  0  0  0
  -22.5204   27.3729   37.9727 C   0  0  0  0  0  0  0  0  0  0  0  0
  -21.1067   27.3104   37.4110 C   0  0  0  0  0  0  0  0  0  0  0  0
  -20.8495   25.8002   37.4925 C   0  0  0  0  0  0  0  0  0  0  0  0
  -21.3431   25.0977   36.3668 O   0  0  0  0  0  0  0  0  0  0  0  0
  -21.0801   27.7734   36.0664 O   0  0  0  0  0  0  0  0  0  0  0  0
  -22.5766   26.4237   39.0109 O   0  0  0  0  0  0  0  0  0  0  0  0
  -22.2965   25.2539   36.2807 H   0  0  0  0  0  0  0  0  0  0  0  0
  -21.7176   27.2682   35.5379 H   0  0  0  0  0  0  0  0  0  0  0  0
  -22.9580   28.6588   38.4954 N   0  0  0  0  0  0  0  0  0  0  0  0
  -22.9947   30.5897   39.6451 N   0  0  0  0  0  0  0  0  0  0  0  0
  -25.4666   32.4336   39.4074 N   0  0  0  0  0  0  0  0  0  0  0  0
  -22.3144   29.5074   39.3550 C   0  0  0  0  0  0  0  0  0  0  0  0
  -26.2710   30.8643   37.9118 N   0  0  0  0  0  0  0  0  0  0  0  0
  -24.1549   29.2638   38.1990 C   0  0  0  0  0  0  0  0  0  0  0  0
  -25.1188   28.8084   37.3828 N   0  0  0  0  0  0  0  0  0  0  0  0
  -26.1303   29.6816   37.3008 C   0  0  0  0  0  0  0  0  0  0  0  0
  -25.2951   31.2802   38.7543 C   0  0  0  0  0  0  0  0  0  0  0  0
  -24.1636   30.4509   38.9105 C   0  0  0  0  0  0  0  0  0  0  0  0
  -26.2787   32.9690   39.2558 H   0  0  0  0  0  0  0  0  0  0  0  0
  -24.7808   32.7477   40.0400 H   0  0  0  0  0  0  0  0  0  0  0  0
 38 37  1  0  0  0
  2  4  2  0  0  0
 50 49  2  0  0  0
 50 47  1  0  0  0
 49 48  1  0  0  0
 37 34  1  0  0  0
 37 36  1  0  0  0
 39 36  1  0  0  0
 34 40  1  0  0  0
 34 33  1  0  0  0
  3  4  1  0  0  0
 35 40  1  0  0  0
 35 36  1  0  0  0
 35 43  1  0  0  0
  4  6  1  0  0  0
  4  1  1  0  0  0
 47 51  2  0  0  0
 24 23  2  0  0  0
 25 23  1  0  0  0
  6  7  1  0  0  0
 48 43  1  0  0  0
 48 52  2  0  0  0
 23 22  1  0  0  0
 43 46  1  0  0  0
 32 33  1  0  0  0
 32 30  1  0  0  0
 10  8  1  0  0  0
 10  9  1  0  0  0
 19 22  2  0  0  0
 19 18  1  0  0  0
 22 21  1  0  0  0
 51 52  1  0  0  0
 51 45  1  0  0  0
 52 44  1  0  0  0
  1 30  1  0  0  0
  8 18  1  0  0  0
  8 13  1  0  0  0
  9  7  1  0  0  0
  9 11  1  0  0  0
 18 17  2  0  0  0
 30 29  2  0  0  0
 30 28  1  0  0  0
 21 20  2  0  0  0
 46 44  2  0  0  0
 14 13  1  0  0  0
 17 20  1  0  0  0
 13 11  1  0  0  0
 11 12  1  0  0  0
  3  5  1  0  0  0
 28 31  1  0  0  0
 45 53  1  0  0  0
 45 54  1  0  0  0
 38 41  1  0  0  0
 39 42  1  0  0  0
 12 15  1  0  0  0
 14 16  1  0  0  0
 25 26  1  0  0  0
 25 27  1  0  0  0
M  END
> <minimizedAffinity>
-11.86578

$$$$
6BHV_DQV_A_1101


 54 58  0  0  0  0  0  0  0  0999 V2000
  -18.4950   23.6886   40.5341 O   0  0  0  0  0  0  0  0  0  0  0  0
  -16.3778   24.4876   39.4839 O   0  0  0  0  0  0  0  0  0  0  0  0
  -18.1240   23.3932   38.1021 O   0  0  0  0  0  0  0  0  0  0  0  0
  -17.4155   23.3926   39.4156 P   0  0  0  0  0  0  0  0  0  0  0  0
  -17.4883   23.2140   37.3917 H   0  0  0  0  0  0  0  0  0  0  0  0
  -16.7907   21.9794   39.8508 O   0  0  0  0  0  0  0  0  0  0  0  0
  -16.6699   20.9018   38.8983 C   0  0  0  0  0  0  0  0  0  0  0  0
  -13.0892   21.2919   38.7949 C   0  0  0  0  0  0  0  0  0  0  0  0
  -15.2615   20.3724   38.7897 C   0  0  0  0  0  0  0  0  0  0  0  0
  -14.4211   21.3988   38.2534 O   0  0  0  0  0  0  0  0  0  0  0  0
  -14.6489   20.0196   40.1445 C   0  0  0  0  0  0  0  0  0  0  0  0
  -14.8517   18.6518   40.4815 O   0  0  0  0  0  0  0  0  0  0  0  0
  -13.1490   20.2943   39.9650 C   0  0  0  0  0  0  0  0  0  0  0  0
  -12.4098   19.1213   39.6540 O   0  0  0  0  0  0  0  0  0  0  0  0
  -14.4634   18.0884   39.7940 H   0  0  0  0  0  0  0  0  0  0  0  0
  -12.7566   18.7275   38.8381 H   0  0  0  0  0  0  0  0  0  0  0  0
  -11.3192   22.7594   39.8104 C   0  0  0  0  0  0  0  0  0  0  0  0
  -12.5185   22.6468   39.1095 C   0  0  0  0  0  0  0  0  0  0  0  0
  -13.0888   23.7913   38.5544 C   0  0  0  0  0  0  0  0  0  0  0  0
  -10.6888   23.9874   39.9384 C   0  0  0  0  0  0  0  0  0  0  0  0
  -11.2536   25.1190   39.3780 C   0  0  0  0  0  0  0  0  0  0  0  0
  -12.4596   25.0316   38.6780 C   0  0  0  0  0  0  0  0  0  0  0  0
  -13.0268   26.2543   38.0095 C   0  0  0  0  0  0  0  0  0  0  0  0
  -12.4649   27.3705   38.1862 O   0  0  0  0  0  0  0  0  0  0  0  0
  -14.1166   26.1031   37.2397 N   0  0  0  0  0  0  0  0  0  0  0  0
  -14.5125   26.8833   36.7882 H   0  0  0  0  0  0  0  0  0  0  0  0
  -14.5197   25.2120   37.1268 H   0  0  0  0  0  0  0  0  0  0  0  0
  -20.4414   22.5258   39.4000 O   0  0  0  0  0  0  0  0  0  0  0  0
  -20.7799   23.4400   41.6482 O   0  0  0  0  0  0  0  0  0  0  0  0
  -20.0743   23.6773   40.3809 P   0  0  0  0  0  0  0  0  0  0  0  0
  -19.9852   22.6631   38.5550 H   0  0  0  0  0  0  0  0  0  0  0  0
  -20.4408   24.9952   39.6970 O   0  0  0  0  0  0  0  0  0  0  0  0
  -20.0547   26.3108   40.1037 C   0  0  0  0  0  0  0  0  0  0  0  0
  -19.5388   27.0463   38.9037 C   0  0  0  0  0  0  0  0  0  0  0  0
  -19.9014   26.4986   36.6793 C   0  0  0  0  0  0  0  0  0  0  0  0
  -21.0932   27.3498   37.0952 C   0  0  0  0  0  0  0  0  0  0  0  0
  -20.4955   28.0797   38.3050 C   0  0  0  0  0  0  0  0  0  0  0  0
  -19.7734   29.2424   37.9429 O   0  0  0  0  0  0  0  0  0  0  0  0
  -21.4471   28.2579   36.0593 O   0  0  0  0  0  0  0  0  0  0  0  0
  -19.2810   26.0764   37.8705 O   0  0  0  0  0  0  0  0  0  0  0  0
  -19.0596   29.0024   37.3315 H   0  0  0  0  0  0  0  0  0  0  0  0
  -20.6725   28.7886   35.8159 H   0  0  0  0  0  0  0  0  0  0  0  0
  -20.1895   25.3268   35.8655 N   0  0  0  0  0  0  0  0  0  0  0  0
  -20.9985   23.3346   35.2112 N   0  0  0  0  0  0  0  0  0  0  0  0
  -20.2667   22.2643   32.4031 N   0  0  0  0  0  0  0  0  0  0  0  0
  -20.9542   24.2320   36.1656 C   0  0  0  0  0  0  0  0  0  0  0  0
  -19.1218   24.2556   32.1382 N   0  0  0  0  0  0  0  0  0  0  0  0
  -19.7131   25.1132   34.5952 C   0  0  0  0  0  0  0  0  0  0  0  0
  -18.9251   25.9252   33.8725 N   0  0  0  0  0  0  0  0  0  0  0  0
  -18.6918   25.4117   32.6583 C   0  0  0  0  0  0  0  0  0  0  0  0
  -19.8886   23.4438   32.9050 C   0  0  0  0  0  0  0  0  0  0  0  0
  -20.2197   23.8861   34.2040 C   0  0  0  0  0  0  0  0  0  0  0  0
  -20.0042   22.0116   31.4885 H   0  0  0  0  0  0  0  0  0  0  0  0
  -20.8078   21.6482   32.9479 H   0  0  0  0  0  0  0  0  0  0  0  0
 38 37  1  0  0  0
  2  4  2  0  0  0
 50 49  2  0  0  0
 50 47  1  0  0  0
 49 48  1  0  0  0
 37 34  1  0  0  0
 37 36  1  0  0  0
 39 36  1  0  0  0
 34 40  1  0  0  0
 34 33  1  0  0  0
  3  4  1  0  0  0
 35 40  1  0  0  0
 35 36  1  0  0  0
 35 43  1  0  0  0
  4  6  1  0  0  0
  4  1  1  0  0  0
 47 51  2  0  0  0
 24 23  2  0  0  0
 25 23  1  0  0  0
  6  7  1  0  0  0
 48 43  1  0  0  0
 48 52  2  0  0  0
 23 22  1  0  0  0
 43 46  1  0  0  0
 32 33  1  0  0  0
 32 30  1  0  0  0
 10  8  1  0  0  0
 10  9  1  0  0  0
 19 22  2  0  0  0
 19 18  1  0  0  0
 22 21  1  0  0  0
 51 52  1  0  0  0
 51 45  1  0  0  0
 52 44  1  0  0  0
  1 30  1  0  0  0
  8 18  1  0  0  0
  8 13  1  0  0  0
  9  7  1  0  0  0
  9 11  1  0  0  0
 18 17  2  0  0  0
 30 29  2  0  0  0
 30 28  1  0  0  0
 21 20  2  0  0  0
 46 44  2  0  0  0
 14 13  1  0  0  0
 17 20  1  0  0  0
 13 11  1  0  0  0
 11 12  1  0  0  0
  3  5  1  0  0  0
 28 31  1  0  0  0
 45 53  1  0  0  0
 45 54  1  0  0  0
 38 41  1  0  0  0
 39 42  1  0  0  0
 12 15  1  0  0  0
 14 16  1  0  0  0
 25 26  1  0  0  0
 25 27  1  0  0  0
M  END
> <minimizedAffinity>
-11.60726

$$$$
6BHV_DQV_A_1101


 54 58  0  0  0  0  0  0  0  0999 V2000
  -17.5275   23.6081   36.5648 O   0  0  0  0  0  0  0  0  0  0  0  0
  -17.6376   21.9975   34.6628 O   0  0  0  0  0  0  0  0  0  0  0  0
  -19.6870   22.5655   35.9409 O   0  0  0  0  0  0  0  0  0  0  0  0
  -18.2220   22.2933   36.0235 P   0  0  0  0  0  0  0  0  0  0  0  0
  -20.1444   21.7763   35.6111 H   0  0  0  0  0  0  0  0  0  0  0  0
  -17.7978   21.1698   37.0888 O   0  0  0  0  0  0  0  0  0  0  0  0
  -17.0651   21.5232   38.2810 C   0  0  0  0  0  0  0  0  0  0  0  0
  -13.4877   21.4044   38.6963 C   0  0  0  0  0  0  0  0  0  0  0  0
  -15.7472   20.7979   38.3938 C   0  0  0  0  0  0  0  0  0  0  0  0
  -14.6994   21.6717   37.9622 O   0  0  0  0  0  0  0  0  0  0  0  0
  -15.3910   20.4245   39.8321 C   0  0  0  0  0  0  0  0  0  0  0  0
  -15.8353   19.1151   40.1689 O   0  0  0  0  0  0  0  0  0  0  0  0
  -13.8570   20.4787   39.8688 C   0  0  0  0  0  0  0  0  0  0  0  0
  -13.2587   19.2012   39.6985 O   0  0  0  0  0  0  0  0  0  0  0  0
  -15.4389   18.4725   39.5599 H   0  0  0  0  0  0  0  0  0  0  0  0
  -13.5392   18.8233   38.8504 H   0  0  0  0  0  0  0  0  0  0  0  0
  -11.5768   22.6392   39.7648 C   0  0  0  0  0  0  0  0  0  0  0  0
  -12.7776   22.6792   39.0584 C   0  0  0  0  0  0  0  0  0  0  0  0
  -13.2196   23.8963   38.5421 C   0  0  0  0  0  0  0  0  0  0  0  0
  -10.8199   23.7878   39.9361 C   0  0  0  0  0  0  0  0  0  0  0  0
  -11.2579   24.9917   39.4142 C   0  0  0  0  0  0  0  0  0  0  0  0
  -12.4625   25.0574   38.7096 C   0  0  0  0  0  0  0  0  0  0  0  0
  -12.8927   26.3558   38.0827 C   0  0  0  0  0  0  0  0  0  0  0  0
  -12.2898   27.4201   38.3933 O   0  0  0  0  0  0  0  0  0  0  0  0
  -13.9083   26.3255   37.2048 N   0  0  0  0  0  0  0  0  0  0  0  0
  -14.2140   27.1577   36.7768 H   0  0  0  0  0  0  0  0  0  0  0  0
  -14.3471   25.4710   36.9890 H   0  0  0  0  0  0  0  0  0  0  0  0
  -16.6788   25.9607   36.1505 O   0  0  0  0  0  0  0  0  0  0  0  0
  -18.7867   25.2808   35.1020 O   0  0  0  0  0  0  0  0  0  0  0  0
  -17.9724   25.1104   36.3135 P   0  0  0  0  0  0  0  0  0  0  0  0
  -16.1255   25.8624   36.9411 H   0  0  0  0  0  0  0  0  0  0  0  0
  -18.6608   25.5668   37.6006 O   0  0  0  0  0  0  0  0  0  0  0  0
  -18.6579   24.8931   38.8621 C   0  0  0  0  0  0  0  0  0  0  0  0
  -19.3241   25.7765   39.8734 C   0  0  0  0  0  0  0  0  0  0  0  0
  -21.1058   27.2139   39.5003 C   0  0  0  0  0  0  0  0  0  0  0  0
  -21.7256   25.8551   39.7965 C   0  0  0  0  0  0  0  0  0  0  0  0
  -20.5658   25.1860   40.5453 C   0  0  0  0  0  0  0  0  0  0  0  0
  -20.5521   25.4967   41.9265 O   0  0  0  0  0  0  0  0  0  0  0  0
  -22.8716   25.9967   40.6270 O   0  0  0  0  0  0  0  0  0  0  0  0
  -19.7519   26.9743   39.1974 O   0  0  0  0  0  0  0  0  0  0  0  0
  -20.4924   26.4580   42.0411 H   0  0  0  0  0  0  0  0  0  0  0  0
  -22.6303   26.4834   41.4307 H   0  0  0  0  0  0  0  0  0  0  0  0
  -21.6972   27.9766   38.4109 N   0  0  0  0  0  0  0  0  0  0  0  0
  -22.0688   28.8320   36.3660 N   0  0  0  0  0  0  0  0  0  0  0  0
  -24.3850   30.8447   35.9772 N   0  0  0  0  0  0  0  0  0  0  0  0
  -21.3345   28.0246   37.0920 C   0  0  0  0  0  0  0  0  0  0  0  0
  -24.8252   30.4985   38.2205 N   0  0  0  0  0  0  0  0  0  0  0  0
  -22.7723   28.8224   38.5340 C   0  0  0  0  0  0  0  0  0  0  0  0
  -23.4756   29.0909   39.6457 N   0  0  0  0  0  0  0  0  0  0  0  0
  -24.4831   29.9330   39.3846 C   0  0  0  0  0  0  0  0  0  0  0  0
  -24.0756   30.2323   37.1240 C   0  0  0  0  0  0  0  0  0  0  0  0
  -22.9917   29.3398   37.2692 C   0  0  0  0  0  0  0  0  0  0  0  0
  -25.1545   31.4576   35.9384 H   0  0  0  0  0  0  0  0  0  0  0  0
  -23.8433   30.6830   35.1711 H   0  0  0  0  0  0  0  0  0  0  0  0
 38 37  1  0  0  0
  2  4  2  0  0  0
 50 49  2  0  0  0
 50 47  1  0  0  0
 49 48  1  0  0  0
 37 34  1  0  0  0
 37 36  1  0  0  0
 39 36  1  0  0  0
 34 40  1  0  0  0
 34 33  1  0  0  0
  3  4  1  0  0  0
 35 40  1  0  0  0
 35 36  1  0  0  0
 35 43  1  0  0  0
  4  6  1  0  0  0
  4  1  1  0  0  0
 47 51  2  0  0  0
 24 23  2  0  0  0
 25 23  1  0  0  0
  6  7  1  0  0  0
 48 43  1  0  0  0
 48 52  2  0  0  0
 23 22  1  0  0  0
 43 46  1  0  0  0
 32 33  1  0  0  0
 32 30  1  0  0  0
 10  8  1  0  0  0
 10  9  1  0  0  0
 19 22  2  0  0  0
 19 18  1  0  0  0
 22 21  1  0  0  0
 51 52  1  0  0  0
 51 45  1  0  0  0
 52 44  1  0  0  0
  1 30  1  0  0  0
  8 18  1  0  0  0
  8 13  1  0  0  0
  9  7  1  0  0  0
  9 11  1  0  0  0
 18 17  2  0  0  0
 30 29  2  0  0  0
 30 28  1  0  0  0
 21 20  2  0  0  0
 46 44  2  0  0  0
 14 13  1  0  0  0
 17 20  1  0  0  0
 13 11  1  0  0  0
 11 12  1  0  0  0
  3  5  1  0  0  0
 28 31  1  0  0  0
 45 53  1  0  0  0
 45 54  1  0  0  0
 38 41  1  0  0  0
 39 42  1  0  0  0
 12 15  1  0  0  0
 14 16  1  0  0  0
 25 26  1  0  0  0
 25 27  1  0  0  0
M  END
> <minimizedAffinity>
-11.43127

$$$$
6BHV_DQV_A_1101


 54 58  0  0  0  0  0  0  0  0999 V2000
  -19.8626   20.8081   38.2717 O   0  0  0  0  0  0  0  0  0  0  0  0
  -18.6611   19.7907   36.3364 O   0  0  0  0  0  0  0  0  0  0  0  0
  -19.2550   18.4062   38.3079 O   0  0  0  0  0  0  0  0  0  0  0  0
  -18.7766   19.7406   37.8413 P   0  0  0  0  0  0  0  0  0  0  0  0
  -18.6096   17.7262   38.0590 H   0  0  0  0  0  0  0  0  0  0  0  0
  -17.4288   20.2624   38.5398 O   0  0  0  0  0  0  0  0  0  0  0  0
  -16.2992   20.6789   37.7438 C   0  0  0  0  0  0  0  0  0  0  0  0
  -12.9377   21.1303   38.9606 C   0  0  0  0  0  0  0  0  0  0  0  0
  -14.9847   20.1731   38.2841 C   0  0  0  0  0  0  0  0  0  0  0  0
  -13.9533   21.1025   37.9378 O   0  0  0  0  0  0  0  0  0  0  0  0
  -14.9562   20.0923   39.8097 C   0  0  0  0  0  0  0  0  0  0  0  0
  -15.3399   18.8062   40.2830 O   0  0  0  0  0  0  0  0  0  0  0  0
  -13.4905   20.3655   40.1762 C   0  0  0  0  0  0  0  0  0  0  0  0
  -12.7474   19.1736   40.3911 O   0  0  0  0  0  0  0  0  0  0  0  0
  -14.7461   18.1348   39.9122 H   0  0  0  0  0  0  0  0  0  0  0  0
  -12.7740   18.6271   39.5902 H   0  0  0  0  0  0  0  0  0  0  0  0
  -11.2828   22.7584   39.9243 C   0  0  0  0  0  0  0  0  0  0  0  0
  -12.4650   22.5336   39.2213 C   0  0  0  0  0  0  0  0  0  0  0  0
  -13.1079   23.6115   38.6146 C   0  0  0  0  0  0  0  0  0  0  0  0
  -10.7401   24.0315   40.0041 C   0  0  0  0  0  0  0  0  0  0  0  0
  -11.3766   25.0967   39.3929 C   0  0  0  0  0  0  0  0  0  0  0  0
  -12.5672   24.8965   38.6897 C   0  0  0  0  0  0  0  0  0  0  0  0
  -13.2115   26.0479   37.9665 C   0  0  0  0  0  0  0  0  0  0  0  0
  -12.6583   27.1819   37.9960 O   0  0  0  0  0  0  0  0  0  0  0  0
  -14.3584   25.8157   37.3080 N   0  0  0  0  0  0  0  0  0  0  0  0
  -14.8054   26.5477   36.8247 H   0  0  0  0  0  0  0  0  0  0  0  0
  -14.7524   24.9135   37.3085 H   0  0  0  0  0  0  0  0  0  0  0  0
  -19.6625   22.3232   36.2491 O   0  0  0  0  0  0  0  0  0  0  0  0
  -21.3472   22.8606   37.9455 O   0  0  0  0  0  0  0  0  0  0  0  0
  -19.9972   22.3072   37.7692 P   0  0  0  0  0  0  0  0  0  0  0  0
  -18.7735   21.9612   36.1099 H   0  0  0  0  0  0  0  0  0  0  0  0
  -18.8991   23.0927   38.4878 O   0  0  0  0  0  0  0  0  0  0  0  0
  -18.3170   24.3313   38.0730 C   0  0  0  0  0  0  0  0  0  0  0  0
  -18.4636   25.3216   39.1887 C   0  0  0  0  0  0  0  0  0  0  0  0
  -20.4355   26.2867   39.9369 C   0  0  0  0  0  0  0  0  0  0  0  0
  -20.3101   24.9677   40.6869 C   0  0  0  0  0  0  0  0  0  0  0  0
  -18.8008   24.7249   40.5570 C   0  0  0  0  0  0  0  0  0  0  0  0
  -18.0504   25.3835   41.5608 O   0  0  0  0  0  0  0  0  0  0  0  0
  -20.6992   25.1243   42.0460 O   0  0  0  0  0  0  0  0  0  0  0  0
  -19.5451   26.2102   38.8490 O   0  0  0  0  0  0  0  0  0  0  0  0
  -18.2240   26.3370   41.5210 H   0  0  0  0  0  0  0  0  0  0  0  0
  -20.1814   25.8378   42.4504 H   0  0  0  0  0  0  0  0  0  0  0  0
  -21.7576   26.6260   39.4316 N   0  0  0  0  0  0  0  0  0  0  0  0
  -23.8361   26.4256   38.6001 N   0  0  0  0  0  0  0  0  0  0  0  0
  -25.4690   28.9837   38.0033 N   0  0  0  0  0  0  0  0  0  0  0  0
  -22.7652   25.7965   39.0193 C   0  0  0  0  0  0  0  0  0  0  0  0
  -23.6434   30.1295   38.8404 N   0  0  0  0  0  0  0  0  0  0  0  0
  -22.2366   27.9034   39.2732 C   0  0  0  0  0  0  0  0  0  0  0  0
  -21.6042   29.0528   39.5588 N   0  0  0  0  0  0  0  0  0  0  0  0
  -22.3918   30.1075   39.3145 C   0  0  0  0  0  0  0  0  0  0  0  0
  -24.2417   28.9541   38.5315 C   0  0  0  0  0  0  0  0  0  0  0  0
  -23.5160   27.7658   38.7635 C   0  0  0  0  0  0  0  0  0  0  0  0
  -25.9249   29.8454   37.8655 H   0  0  0  0  0  0  0  0  0  0  0  0
  -25.9172   28.1440   37.7521 H   0  0  0  0  0  0  0  0  0  0  0  0
 38 37  1  0  0  0
  2  4  2  0  0  0
 50 49  2  0  0  0
 50 47  1  0  0  0
 49 48  1  0  0  0
 37 34  1  0  0  0
 37 36  1  0  0  0
 39 36  1  0  0  0
 34 40  1  0  0  0
 34 33  1  0  0  0
  3  4  1  0  0  0
 35 40  1  0  0  0
 35 36  1  0  0  0
 35 43  1  0  0  0
  4  6  1  0  0  0
  4  1  1  0  0  0
 47 51  2  0  0  0
 24 23  2  0  0  0
 25 23  1  0  0  0
  6  7  1  0  0  0
 48 43  1  0  0  0
 48 52  2  0  0  0
 23 22  1  0  0  0
 43 46  1  0  0  0
 32 33  1  0  0  0
 32 30  1  0  0  0
 10  8  1  0  0  0
 10  9  1  0  0  0
 19 22  2  0  0  0
 19 18  1  0  0  0
 22 21  1  0  0  0
 51 52  1  0  0  0
 51 45  1  0  0  0
 52 44  1  0  0  0
  1 30  1  0  0  0
  8 18  1  0  0  0
  8 13  1  0  0  0
  9  7  1  0  0  0
  9 11  1  0  0  0
 18 17  2  0  0  0
 30 29  2  0  0  0
 30 28  1  0  0  0
 21 20  2  0  0  0
 46 44  2  0  0  0
 14 13  1  0  0  0
 17 20  1  0  0  0
 13 11  1  0  0  0
 11 12  1  0  0  0
  3  5  1  0  0  0
 28 31  1  0  0  0
 45 53  1  0  0  0
 45 54  1  0  0  0
 38 41  1  0  0  0
 39 42  1  0  0  0
 12 15  1  0  0  0
 14 16  1  0  0  0
 25 26  1  0  0  0
 25 27  1  0  0  0
M  END
> <minimizedAffinity>
-11.00241

$$$$
6BHV_DQV_A_1101


 54 58  0  0  0  0  0  0  0  0999 V2000
  -19.5893   23.1929   37.5111 O   0  0  0  0  0  0  0  0  0  0  0  0
  -18.8081   23.3183   39.8771 O   0  0  0  0  0  0  0  0  0  0  0  0
  -17.7341   24.7145   38.1297 O   0  0  0  0  0  0  0  0  0  0  0  0
  -18.3274   23.3824   38.4469 P   0  0  0  0  0  0  0  0  0  0  0  0
  -16.9551   24.8628   38.6883 H   0  0  0  0  0  0  0  0  0  0  0  0
  -17.3972   22.1223   38.0953 O   0  0  0  0  0  0  0  0  0  0  0  0
  -16.9845   21.1999   39.1259 C   0  0  0  0  0  0  0  0  0  0  0  0
  -13.4087   21.3509   38.7069 C   0  0  0  0  0  0  0  0  0  0  0  0
  -15.6347   20.5840   38.8530 C   0  0  0  0  0  0  0  0  0  0  0  0
  -14.7725   21.5839   38.3014 O   0  0  0  0  0  0  0  0  0  0  0  0
  -14.9300   20.1015   40.1202 C   0  0  0  0  0  0  0  0  0  0  0  0
  -15.2022   18.7315   40.3930 O   0  0  0  0  0  0  0  0  0  0  0  0
  -13.4363   20.2845   39.8160 C   0  0  0  0  0  0  0  0  0  0  0  0
  -12.8171   19.0870   39.3671 O   0  0  0  0  0  0  0  0  0  0  0  0
  -14.9204   18.1896   39.6395 H   0  0  0  0  0  0  0  0  0  0  0  0
  -13.2643   18.7725   38.5658 H   0  0  0  0  0  0  0  0  0  0  0  0
  -11.4902   22.6248   39.7142 C   0  0  0  0  0  0  0  0  0  0  0  0
  -12.7132   22.6400   39.0461 C   0  0  0  0  0  0  0  0  0  0  0  0
  -13.1956   23.8475   38.5435 C   0  0  0  0  0  0  0  0  0  0  0  0
  -10.7515   23.7885   39.8612 C   0  0  0  0  0  0  0  0  0  0  0  0
  -11.2297   24.9829   39.3529 C   0  0  0  0  0  0  0  0  0  0  0  0
  -12.4571   25.0237   38.6866 C   0  0  0  0  0  0  0  0  0  0  0  0
  -12.9327   26.3126   38.0731 C   0  0  0  0  0  0  0  0  0  0  0  0
  -12.3465   27.3901   38.3700 O   0  0  0  0  0  0  0  0  0  0  0  0
  -13.9694   26.2600   37.2213 N   0  0  0  0  0  0  0  0  0  0  0  0
  -14.3049   27.0855   36.8028 H   0  0  0  0  0  0  0  0  0  0  0  0
  -14.3940   25.3960   37.0154 H   0  0  0  0  0  0  0  0  0  0  0  0
  -18.3100   22.7321   35.3716 O   0  0  0  0  0  0  0  0  0  0  0  0
  -20.7531   22.5454   35.3317 O   0  0  0  0  0  0  0  0  0  0  0  0
  -19.6457   23.3047   35.9293 P   0  0  0  0  0  0  0  0  0  0  0  0
  -17.5642   23.2202   35.7542 H   0  0  0  0  0  0  0  0  0  0  0  0
  -19.6694   24.8009   35.6133 O   0  0  0  0  0  0  0  0  0  0  0  0
  -20.8037   25.6706   35.6578 C   0  0  0  0  0  0  0  0  0  0  0  0
  -20.4749   26.8344   36.5436 C   0  0  0  0  0  0  0  0  0  0  0  0
  -21.9702   28.3724   37.4257 C   0  0  0  0  0  0  0  0  0  0  0  0
  -21.9533   27.2048   38.4027 C   0  0  0  0  0  0  0  0  0  0  0  0
  -20.6015   26.5730   38.0461 C   0  0  0  0  0  0  0  0  0  0  0  0
  -19.5168   27.1768   38.7268 O   0  0  0  0  0  0  0  0  0  0  0  0
  -21.9733   27.6737   39.7454 O   0  0  0  0  0  0  0  0  0  0  0  0
  -21.3943   27.8983   36.2317 O   0  0  0  0  0  0  0  0  0  0  0  0
  -19.4906   28.1236   38.5177 H   0  0  0  0  0  0  0  0  0  0  0  0
  -21.2374   28.2904   39.8834 H   0  0  0  0  0  0  0  0  0  0  0  0
  -23.2720   28.9457   37.1175 N   0  0  0  0  0  0  0  0  0  0  0  0
  -25.1931   29.4170   36.0503 N   0  0  0  0  0  0  0  0  0  0  0  0
  -27.1587   31.4410   37.3177 N   0  0  0  0  0  0  0  0  0  0  0  0
  -24.0808   28.7235   36.0359 C   0  0  0  0  0  0  0  0  0  0  0  0
  -25.6432   31.5499   39.0606 N   0  0  0  0  0  0  0  0  0  0  0  0
  -23.9378   29.8558   37.9015 C   0  0  0  0  0  0  0  0  0  0  0  0
  -23.5372   30.3673   39.0764 N   0  0  0  0  0  0  0  0  0  0  0  0
  -24.4600   31.1976   39.5780 C   0  0  0  0  0  0  0  0  0  0  0  0
  -26.0036   31.0411   37.8580 C   0  0  0  0  0  0  0  0  0  0  0  0
  -25.1181   30.1354   37.2350 C   0  0  0  0  0  0  0  0  0  0  0  0
  -27.7349   32.0758   37.8018 H   0  0  0  0  0  0  0  0  0  0  0  0
  -27.4335   31.1008   36.4357 H   0  0  0  0  0  0  0  0  0  0  0  0
 38 37  1  0  0  0
  2  4  2  0  0  0
 50 49  2  0  0  0
 50 47  1  0  0  0
 49 48  1  0  0  0
 37 34  1  0  0  0
 37 36  1  0  0  0
 39 36  1  0  0  0
 34 40  1  0  0  0
 34 33  1  0  0  0
  3  4  1  0  0  0
 35 40  1  0  0  0
 35 36  1  0  0  0
 35 43  1  0  0  0
  4  6  1  0  0  0
  4  1  1  0  0  0
 47 51  2  0  0  0
 24 23  2  0  0  0
 25 23  1  0  0  0
  6  7  1  0  0  0
 48 43  1  0  0  0
 48 52  2  0  0  0
 23 22  1  0  0  0
 43 46  1  0  0  0
 32 33  1  0  0  0
 32 30  1  0  0  0
 10  8  1  0  0  0
 10  9  1  0  0  0
 19 22  2  0  0  0
 19 18  1  0  0  0
 22 21  1  0  0  0
 51 52  1  0  0  0
 51 45  1  0  0  0
 52 44  1  0  0  0
  1 30  1  0  0  0
  8 18  1  0  0  0
  8 13  1  0  0  0
  9  7  1  0  0  0
  9 11  1  0  0  0
 18 17  2  0  0  0
 30 29  2  0  0  0
 30 28  1  0  0  0
 21 20  2  0  0  0
 46 44  2  0  0  0
 14 13  1  0  0  0
 17 20  1  0  0  0
 13 11  1  0  0  0
 11 12  1  0  0  0
  3  5  1  0  0  0
 28 31  1  0  0  0
 45 53  1  0  0  0
 45 54  1  0  0  0
 38 41  1  0  0  0
 39 42  1  0  0  0
 12 15  1  0  0  0
 14 16  1  0  0  0
 25 26  1  0  0  0
 25 27  1  0  0  0
M  END
> <minimizedAffinity>
-10.80855

$$$$
6BHV_DQV_A_1101


 54 58  0  0  0  0  0  0  0  0999 V2000
  -19.4824   24.3931   34.2210 O   0  0  0  0  0  0  0  0  0  0  0  0
  -18.9710   26.3740   32.7932 O   0  0  0  0  0  0  0  0  0  0  0  0
  -17.1879   24.7421   33.3530 O   0  0  0  0  0  0  0  0  0  0  0  0
  -18.3865   25.4749   33.8565 P   0  0  0  0  0  0  0  0  0  0  0  0
  -16.4942   25.3786   33.1197 H   0  0  0  0  0  0  0  0  0  0  0  0
  -18.1669   26.2756   35.2304 O   0  0  0  0  0  0  0  0  0  0  0  0
  -17.0685   25.9478   36.1074 C   0  0  0  0  0  0  0  0  0  0  0  0
  -15.9097   23.0968   37.9817 C   0  0  0  0  0  0  0  0  0  0  0  0
  -17.2749   24.6464   36.8418 C   0  0  0  0  0  0  0  0  0  0  0  0
  -16.0643   23.8856   36.7849 O   0  0  0  0  0  0  0  0  0  0  0  0
  -17.5584   24.8382   38.3311 C   0  0  0  0  0  0  0  0  0  0  0  0
  -18.9535   24.9046   38.6042 O   0  0  0  0  0  0  0  0  0  0  0  0
  -16.9573   23.5910   38.9948 C   0  0  0  0  0  0  0  0  0  0  0  0
  -17.9248   22.5797   39.2398 O   0  0  0  0  0  0  0  0  0  0  0  0
  -19.3826   24.0915   38.2950 H   0  0  0  0  0  0  0  0  0  0  0  0
  -18.3404   22.3202   38.4027 H   0  0  0  0  0  0  0  0  0  0  0  0
  -13.8434   21.8967   38.7617 C   0  0  0  0  0  0  0  0  0  0  0  0
  -14.4821   23.0965   38.4535 C   0  0  0  0  0  0  0  0  0  0  0  0
  -13.7345   24.2725   38.4189 C   0  0  0  0  0  0  0  0  0  0  0  0
  -12.4801   21.8664   39.0110 C   0  0  0  0  0  0  0  0  0  0  0  0
  -11.7404   23.0345   38.9667 C   0  0  0  0  0  0  0  0  0  0  0  0
  -12.3609   24.2501   38.6680 C   0  0  0  0  0  0  0  0  0  0  0  0
  -11.5349   25.5022   38.5492 C   0  0  0  0  0  0  0  0  0  0  0  0
  -10.2990   25.4056   38.3127 O   0  0  0  0  0  0  0  0  0  0  0  0
  -12.1566   26.6833   38.6962 N   0  0  0  0  0  0  0  0  0  0  0  0
  -11.6448   27.5213   38.6244 H   0  0  0  0  0  0  0  0  0  0  0  0
  -13.1242   26.7113   38.8759 H   0  0  0  0  0  0  0  0  0  0  0  0
  -21.0761   26.1689   35.0772 O   0  0  0  0  0  0  0  0  0  0  0  0
  -22.0166   24.0751   34.2192 O   0  0  0  0  0  0  0  0  0  0  0  0
  -20.8704   24.6311   34.9521 P   0  0  0  0  0  0  0  0  0  0  0  0
  -20.3289   26.5569   35.5590 H   0  0  0  0  0  0  0  0  0  0  0  0
  -20.7021   24.0753   36.3669 O   0  0  0  0  0  0  0  0  0  0  0  0
  -21.0335   22.7595   36.8183 C   0  0  0  0  0  0  0  0  0  0  0  0
  -22.1465   22.8666   37.8167 C   0  0  0  0  0  0  0  0  0  0  0  0
  -23.1930   24.8118   38.5243 C   0  0  0  0  0  0  0  0  0  0  0  0
  -23.9282   24.3823   37.2621 C   0  0  0  0  0  0  0  0  0  0  0  0
  -23.5583   22.8938   37.2267 C   0  0  0  0  0  0  0  0  0  0  0  0
  -24.4194   22.0951   38.0173 O   0  0  0  0  0  0  0  0  0  0  0  0
  -25.3304   24.5690   37.4102 O   0  0  0  0  0  0  0  0  0  0  0  0
  -21.9762   24.1037   38.5344 O   0  0  0  0  0  0  0  0  0  0  0  0
  -24.3971   22.4068   38.9356 H   0  0  0  0  0  0  0  0  0  0  0  0
  -25.6372   24.1005   38.2022 H   0  0  0  0  0  0  0  0  0  0  0  0
  -22.9046   26.2320   38.6594 N   0  0  0  0  0  0  0  0  0  0  0  0
  -21.7936   28.1853   38.7003 N   0  0  0  0  0  0  0  0  0  0  0  0
  -23.3240   30.7694   39.4397 N   0  0  0  0  0  0  0  0  0  0  0  0
  -21.7201   26.8947   38.4830 C   0  0  0  0  0  0  0  0  0  0  0  0
  -25.1906   29.4118   39.5778 N   0  0  0  0  0  0  0  0  0  0  0  0
  -23.8221   27.1926   39.0083 C   0  0  0  0  0  0  0  0  0  0  0  0
  -25.1271   27.0169   39.2702 N   0  0  0  0  0  0  0  0  0  0  0  0
  -25.7245   28.1850   39.5373 C   0  0  0  0  0  0  0  0  0  0  0  0
  -23.8642   29.5511   39.3405 C   0  0  0  0  0  0  0  0  0  0  0  0
  -23.1265   28.3890   39.0276 C   0  0  0  0  0  0  0  0  0  0  0  0
  -23.8914   31.5429   39.6613 H   0  0  0  0  0  0  0  0  0  0  0  0
  -22.3587   30.8935   39.2913 H   0  0  0  0  0  0  0  0  0  0  0  0
 38 37  1  0  0  0
  2  4  2  0  0  0
 50 49  2  0  0  0
 50 47  1  0  0  0
 49 48  1  0  0  0
 37 34  1  0  0  0
 37 36  1  0  0  0
 39 36  1  0  0  0
 34 40  1  0  0  0
 34 33  1  0  0  0
  3  4  1  0  0  0
 35 40  1  0  0  0
 35 36  1  0  0  0
 35 43  1  0  0  0
  4  6  1  0  0  0
  4  1  1  0  0  0
 47 51  2  0  0  0
 24 23  2  0  0  0
 25 23  1  0  0  0
  6  7  1  0  0  0
 48 43  1  0  0  0
 48 52  2  0  0  0
 23 22  1  0  0  0
 43 46  1  0  0  0
 32 33  1  0  0  0
 32 30  1  0  0  0
 10  8  1  0  0  0
 10  9  1  0  0  0
 19 22  2  0  0  0
 19 18  1  0  0  0
 22 21  1  0  0  0
 51 52  1  0  0  0
 51 45  1  0  0  0
 52 44  1  0  0  0
  1 30  1  0  0  0
  8 18  1  0  0  0
  8 13  1  0  0  0
  9  7  1  0  0  0
  9 11  1  0  0  0
 18 17  2  0  0  0
 30 29  2  0  0  0
 30 28  1  0  0  0
 21 20  2  0  0  0
 46 44  2  0  0  0
 14 13  1  0  0  0
 17 20  1  0  0  0
 13 11  1  0  0  0
 11 12  1  0  0  0
  3  5  1  0  0  0
 28 31  1  0  0  0
 45 53  1  0  0  0
 45 54  1  0  0  0
 38 41  1  0  0  0
 39 42  1  0  0  0
 12 15  1  0  0  0
 14 16  1  0  0  0
 25 26  1  0  0  0
 25 27  1  0  0  0
M  END
> <minimizedAffinity>
-10.69247

$$$$
6BHV_DQV_A_1101


 54 58  0  0  0  0  0  0  0  0999 V2000
  -19.5362   21.0191   36.9194 O   0  0  0  0  0  0  0  0  0  0  0  0
  -20.6313   21.6079   34.7565 O   0  0  0  0  0  0  0  0  0  0  0  0
  -19.6323   19.3601   35.0814 O   0  0  0  0  0  0  0  0  0  0  0  0
  -19.4873   20.8209   35.3502 P   0  0  0  0  0  0  0  0  0  0  0  0
  -19.6064   19.2032   34.1246 H   0  0  0  0  0  0  0  0  0  0  0  0
  -18.0734   21.4531   34.9282 O   0  0  0  0  0  0  0  0  0  0  0  0
  -18.0111   22.6765   34.1648 C   0  0  0  0  0  0  0  0  0  0  0  0
  -16.8648   24.7654   36.8679 C   0  0  0  0  0  0  0  0  0  0  0  0
  -18.0725   23.9100   35.0311 C   0  0  0  0  0  0  0  0  0  0  0  0
  -17.5141   23.6042   36.3125 O   0  0  0  0  0  0  0  0  0  0  0  0
  -17.2283   25.0633   34.4906 C   0  0  0  0  0  0  0  0  0  0  0  0
  -17.9862   25.9351   33.6593 O   0  0  0  0  0  0  0  0  0  0  0  0
  -16.7649   25.8147   35.7468 C   0  0  0  0  0  0  0  0  0  0  0  0
  -17.5812   26.9386   36.0462 O   0  0  0  0  0  0  0  0  0  0  0  0
  -18.7359   26.2905   34.1620 H   0  0  0  0  0  0  0  0  0  0  0  0
  -18.4975   26.6476   36.1747 H   0  0  0  0  0  0  0  0  0  0  0  0
  -15.3515   23.0876   37.9694 C   0  0  0  0  0  0  0  0  0  0  0  0
  -15.5743   24.3964   37.5453 C   0  0  0  0  0  0  0  0  0  0  0  0
  -14.5253   25.3131   37.5971 C   0  0  0  0  0  0  0  0  0  0  0  0
  -14.1003   22.6941   38.4179 C   0  0  0  0  0  0  0  0  0  0  0  0
  -13.0598   23.6047   38.4590 C   0  0  0  0  0  0  0  0  0  0  0  0
  -13.2620   24.9242   38.0466 C   0  0  0  0  0  0  0  0  0  0  0  0
  -12.1056   25.8867   38.0251 C   0  0  0  0  0  0  0  0  0  0  0  0
  -12.3358   27.1260   37.9627 O   0  0  0  0  0  0  0  0  0  0  0  0
  -10.8633   25.3801   38.0797 N   0  0  0  0  0  0  0  0  0  0  0  0
  -10.0849   25.9828   38.0675 H   0  0  0  0  0  0  0  0  0  0  0  0
  -10.7307   24.4059   38.1319 H   0  0  0  0  0  0  0  0  0  0  0  0
  -20.7049   23.2686   36.9387 O   0  0  0  0  0  0  0  0  0  0  0  0
  -21.8453   21.3542   37.9582 O   0  0  0  0  0  0  0  0  0  0  0  0
  -20.5190   21.9509   37.7462 P   0  0  0  0  0  0  0  0  0  0  0  0
  -19.8395   23.6798   36.7873 H   0  0  0  0  0  0  0  0  0  0  0  0
  -19.7779   22.3054   39.0362 O   0  0  0  0  0  0  0  0  0  0  0  0
  -20.1079   23.3478   39.9580 C   0  0  0  0  0  0  0  0  0  0  0  0
  -19.1397   24.4758   39.7653 C   0  0  0  0  0  0  0  0  0  0  0  0
  -19.6079   26.5713   38.8883 C   0  0  0  0  0  0  0  0  0  0  0  0
  -19.9248   26.6647   40.3745 C   0  0  0  0  0  0  0  0  0  0  0  0
  -19.0841   25.4960   40.9045 C   0  0  0  0  0  0  0  0  0  0  0  0
  -17.7380   25.8568   41.1543 O   0  0  0  0  0  0  0  0  0  0  0  0
  -19.4833   27.9087   40.9045 O   0  0  0  0  0  0  0  0  0  0  0  0
  -19.5358   25.1986   38.5841 O   0  0  0  0  0  0  0  0  0  0  0  0
  -17.3365   26.1930   40.3378 H   0  0  0  0  0  0  0  0  0  0  0  0
  -18.5396   28.0251   40.7129 H   0  0  0  0  0  0  0  0  0  0  0  0
  -20.5552   27.1991   37.9791 N   0  0  0  0  0  0  0  0  0  0  0  0
  -21.4757   28.6509   36.5310 N   0  0  0  0  0  0  0  0  0  0  0  0
  -24.3447   28.1297   35.4998 N   0  0  0  0  0  0  0  0  0  0  0  0
  -20.4196   28.3467   37.2456 C   0  0  0  0  0  0  0  0  0  0  0  0
  -24.2586   26.1988   36.7687 N   0  0  0  0  0  0  0  0  0  0  0  0
  -21.8104   26.7196   37.6944 C   0  0  0  0  0  0  0  0  0  0  0  0
  -22.3853   25.6046   38.1729 N   0  0  0  0  0  0  0  0  0  0  0  0
  -23.6035   25.4289   37.6462 C   0  0  0  0  0  0  0  0  0  0  0  0
  -23.6638   27.3340   36.3300 C   0  0  0  0  0  0  0  0  0  0  0  0
  -22.3644   27.6202   36.8015 C   0  0  0  0  0  0  0  0  0  0  0  0
  -25.2492   27.8755   35.2055 H   0  0  0  0  0  0  0  0  0  0  0  0
  -23.9419   28.9701   35.1824 H   0  0  0  0  0  0  0  0  0  0  0  0
 38 37  1  0  0  0
  2  4  2  0  0  0
 50 49  2  0  0  0
 50 47  1  0  0  0
 49 48  1  0  0  0
 37 34  1  0  0  0
 37 36  1  0  0  0
 39 36  1  0  0  0
 34 40  1  0  0  0
 34 33  1  0  0  0
  3  4  1  0  0  0
 35 40  1  0  0  0
 35 36  1  0  0  0
 35 43  1  0  0  0
  4  6  1  0  0  0
  4  1  1  0  0  0
 47 51  2  0  0  0
 24 23  2  0  0  0
 25 23  1  0  0  0
  6  7  1  0  0  0
 48 43  1  0  0  0
 48 52  2  0  0  0
 23 22  1  0  0  0
 43 46  1  0  0  0
 32 33  1  0  0  0
 32 30  1  0  0  0
 10  8  1  0  0  0
 10  9  1  0  0  0
 19 22  2  0  0  0
 19 18  1  0  0  0
 22 21  1  0  0  0
 51 52  1  0  0  0
 51 45  1  0  0  0
 52 44  1  0  0  0
  1 30  1  0  0  0
  8 18  1  0  0  0
  8 13  1  0  0  0
  9  7  1  0  0  0
  9 11  1  0  0  0
 18 17  2  0  0  0
 30 29  2  0  0  0
 30 28  1  0  0  0
 21 20  2  0  0  0
 46 44  2  0  0  0
 14 13  1  0  0  0
 17 20  1  0  0  0
 13 11  1  0  0  0
 11 12  1  0  0  0
  3  5  1  0  0  0
 28 31  1  0  0  0
 45 53  1  0  0  0
 45 54  1  0  0  0
 38 41  1  0  0  0
 39 42  1  0  0  0
 12 15  1  0  0  0
 14 16  1  0  0  0
 25 26  1  0  0  0
 25 27  1  0  0  0
M  END
> <minimizedAffinity>
-10.64894

$$$$
6BHV_DQV_A_1101


 54 58  0  0  0  0  0  0  0  0999 V2000
  -20.8666   23.3868   39.5402 O   0  0  0  0  0  0  0  0  0  0  0  0
  -20.8328   23.2443   42.0307 O   0  0  0  0  0  0  0  0  0  0  0  0
  -20.7539   25.4531   40.9031 O   0  0  0  0  0  0  0  0  0  0  0  0
  -20.2905   24.0350   40.8639 P   0  0  0  0  0  0  0  0  0  0  0  0
  -20.4168   25.8813   41.7056 H   0  0  0  0  0  0  0  0  0  0  0  0
  -18.7030   23.8416   40.7255 O   0  0  0  0  0  0  0  0  0  0  0  0
  -17.9257   24.7102   39.8743 C   0  0  0  0  0  0  0  0  0  0  0  0
  -15.3455   23.1661   37.8887 C   0  0  0  0  0  0  0  0  0  0  0  0
  -17.4158   24.0134   38.6373 C   0  0  0  0  0  0  0  0  0  0  0  0
  -16.0189   24.2882   38.4937 O   0  0  0  0  0  0  0  0  0  0  0  0
  -17.5184   22.4912   38.7229 C   0  0  0  0  0  0  0  0  0  0  0  0
  -18.7365   22.0067   38.1687 O   0  0  0  0  0  0  0  0  0  0  0  0
  -16.3310   21.9842   37.8920 C   0  0  0  0  0  0  0  0  0  0  0  0
  -16.6980   21.6417   36.5627 O   0  0  0  0  0  0  0  0  0  0  0  0
  -18.8027   22.2841   37.2415 H   0  0  0  0  0  0  0  0  0  0  0  0
  -17.0804   22.4171   36.1229 H   0  0  0  0  0  0  0  0  0  0  0  0
  -13.6035   21.6167   38.8283 C   0  0  0  0  0  0  0  0  0  0  0  0
  -14.0118   22.9169   38.5365 C   0  0  0  0  0  0  0  0  0  0  0  0
  -13.1031   23.9628   38.6896 C   0  0  0  0  0  0  0  0  0  0  0  0
  -12.3066   21.3609   39.2456 C   0  0  0  0  0  0  0  0  0  0  0  0
  -11.4054   22.4008   39.3873 C   0  0  0  0  0  0  0  0  0  0  0  0
  -11.7948   23.7132   39.1085 C   0  0  0  0  0  0  0  0  0  0  0  0
  -10.7866   24.8268   39.1944 C   0  0  0  0  0  0  0  0  0  0  0  0
   -9.5963   24.5577   39.5160 O   0  0  0  0  0  0  0  0  0  0  0  0
  -11.2001   26.0738   38.9163 N   0  0  0  0  0  0  0  0  0  0  0  0
  -10.5653   26.8248   38.9632 H   0  0  0  0  0  0  0  0  0  0  0  0
  -12.1380   26.2369   38.6655 H   0  0  0  0  0  0  0  0  0  0  0  0
  -21.5674   23.1243   37.1181 O   0  0  0  0  0  0  0  0  0  0  0  0
  -22.8856   24.6048   38.5587 O   0  0  0  0  0  0  0  0  0  0  0  0
  -21.5172   24.1346   38.3011 P   0  0  0  0  0  0  0  0  0  0  0  0
  -20.6723   22.8007   36.9310 H   0  0  0  0  0  0  0  0  0  0  0  0
  -20.5361   25.2426   37.9152 O   0  0  0  0  0  0  0  0  0  0  0  0
  -20.5090   25.9774   36.6886 C   0  0  0  0  0  0  0  0  0  0  0  0
  -20.4702   27.4405   37.0127 C   0  0  0  0  0  0  0  0  0  0  0  0
  -22.2919   28.8510   37.2795 C   0  0  0  0  0  0  0  0  0  0  0  0
  -22.0624   28.2099   38.6412 C   0  0  0  0  0  0  0  0  0  0  0  0
  -20.5943   27.7881   38.4978 C   0  0  0  0  0  0  0  0  0  0  0  0
  -19.6902   28.8290   38.8196 O   0  0  0  0  0  0  0  0  0  0  0  0
  -22.2325   29.1655   39.6809 O   0  0  0  0  0  0  0  0  0  0  0  0
  -21.5835   28.0679   36.3484 O   0  0  0  0  0  0  0  0  0  0  0  0
  -19.8592   29.5929   38.2463 H   0  0  0  0  0  0  0  0  0  0  0  0
  -21.6513   29.9253   39.5200 H   0  0  0  0  0  0  0  0  0  0  0  0
  -23.6737   28.9627   36.8361 N   0  0  0  0  0  0  0  0  0  0  0  0
  -25.5926   28.5837   35.7290 N   0  0  0  0  0  0  0  0  0  0  0  0
  -28.0422   30.3810   36.3086 N   0  0  0  0  0  0  0  0  0  0  0  0
  -24.3495   28.2108   35.9136 C   0  0  0  0  0  0  0  0  0  0  0  0
  -26.6887   31.4158   37.8718 N   0  0  0  0  0  0  0  0  0  0  0  0
  -24.5748   29.8935   37.2923 C   0  0  0  0  0  0  0  0  0  0  0  0
  -24.3680   30.8431   38.2186 N   0  0  0  0  0  0  0  0  0  0  0  0
  -25.4849   31.5465   38.4424 C   0  0  0  0  0  0  0  0  0  0  0  0
  -26.8557   30.4691   36.9174 C   0  0  0  0  0  0  0  0  0  0  0  0
  -25.7508   29.6479   36.6052 C   0  0  0  0  0  0  0  0  0  0  0  0
  -28.7759   30.9827   36.5708 H   0  0  0  0  0  0  0  0  0  0  0  0
  -28.1825   29.7142   35.5979 H   0  0  0  0  0  0  0  0  0  0  0  0
 38 37  1  0  0  0
  2  4  2  0  0  0
 50 49  2  0  0  0
 50 47  1  0  0  0
 49 48  1  0  0  0
 37 34  1  0  0  0
 37 36  1  0  0  0
 39 36  1  0  0  0
 34 40  1  0  0  0
 34 33  1  0  0  0
  3  4  1  0  0  0
 35 40  1  0  0  0
 35 36  1  0  0  0
 35 43  1  0  0  0
  4  6  1  0  0  0
  4  1  1  0  0  0
 47 51  2  0  0  0
 24 23  2  0  0  0
 25 23  1  0  0  0
  6  7  1  0  0  0
 48 43  1  0  0  0
 48 52  2  0  0  0
 23 22  1  0  0  0
 43 46  1  0  0  0
 32 33  1  0  0  0
 32 30  1  0  0  0
 10  8  1  0  0  0
 10  9  1  0  0  0
 19 22  2  0  0  0
 19 18  1  0  0  0
 22 21  1  0  0  0
 51 52  1  0  0  0
 51 45  1  0  0  0
 52 44  1  0  0  0
  1 30  1  0  0  0
  8 18  1  0  0  0
  8 13  1  0  0  0
  9  7  1  0  0  0
  9 11  1  0  0  0
 18 17  2  0  0  0
 30 29  2  0  0  0
 30 28  1  0  0  0
 21 20  2  0  0  0
 46 44  2  0  0  0
 14 13  1  0  0  0
 17 20  1  0  0  0
 13 11  1  0  0  0
 11 12  1  0  0  0
  3  5  1  0  0  0
 28 31  1  0  0  0
 45 53  1  0  0  0
 45 54  1  0  0  0
 38 41  1  0  0  0
 39 42  1  0  0  0
 12 15  1  0  0  0
 14 16  1  0  0  0
 25 26  1  0  0  0
 25 27  1  0  0  0
M  END
> <minimizedAffinity>
-10.55722

$$$$
6BHV_DQV_A_1101


 54 58  0  0  0  0  0  0  0  0999 V2000
  -19.9484   26.0914   39.9427 O   0  0  0  0  0  0  0  0  0  0  0  0
  -20.8855   23.7798   39.8935 O   0  0  0  0  0  0  0  0  0  0  0  0
  -20.7792   25.0411   42.0275 O   0  0  0  0  0  0  0  0  0  0  0  0
  -20.0815   24.7337   40.7446 P   0  0  0  0  0  0  0  0  0  0  0  0
  -20.8775   24.2268   42.5453 H   0  0  0  0  0  0  0  0  0  0  0  0
  -18.5653   24.2296   40.8986 O   0  0  0  0  0  0  0  0  0  0  0  0
  -17.4880   24.9165   40.2273 C   0  0  0  0  0  0  0  0  0  0  0  0
  -15.1402   23.2738   38.0424 C   0  0  0  0  0  0  0  0  0  0  0  0
  -17.0924   24.2567   38.9297 C   0  0  0  0  0  0  0  0  0  0  0  0
  -15.6823   24.4116   38.7425 O   0  0  0  0  0  0  0  0  0  0  0  0
  -17.3340   22.7478   38.9277 C   0  0  0  0  0  0  0  0  0  0  0  0
  -18.6120   22.4130   38.3986 O   0  0  0  0  0  0  0  0  0  0  0  0
  -16.2313   22.1889   38.0172 C   0  0  0  0  0  0  0  0  0  0  0  0
  -16.6784   21.9671   36.6868 O   0  0  0  0  0  0  0  0  0  0  0  0
  -18.6867   22.7540   37.4936 H   0  0  0  0  0  0  0  0  0  0  0  0
  -17.0028   22.8007   36.3115 H   0  0  0  0  0  0  0  0  0  0  0  0
  -13.5450   21.5210   38.8797 C   0  0  0  0  0  0  0  0  0  0  0  0
  -13.8124   22.8631   38.6157 C   0  0  0  0  0  0  0  0  0  0  0  0
  -12.7798   23.7934   38.7231 C   0  0  0  0  0  0  0  0  0  0  0  0
  -12.2668   21.1104   39.2248 C   0  0  0  0  0  0  0  0  0  0  0  0
  -11.2430   22.0357   39.3213 C   0  0  0  0  0  0  0  0  0  0  0  0
  -11.4895   23.3877   39.0692 C   0  0  0  0  0  0  0  0  0  0  0  0
  -10.3540   24.3742   39.1043 C   0  0  0  0  0  0  0  0  0  0  0  0
  -10.3149   25.3003   38.2477 O   0  0  0  0  0  0  0  0  0  0  0  0
   -9.4225   24.2288   40.0605 N   0  0  0  0  0  0  0  0  0  0  0  0
   -8.6666   24.8576   40.1110 H   0  0  0  0  0  0  0  0  0  0  0  0
   -9.4954   23.4935   40.7110 H   0  0  0  0  0  0  0  0  0  0  0  0
  -22.4500   26.4960   39.8739 O   0  0  0  0  0  0  0  0  0  0  0  0
  -20.9531   28.3562   39.3227 O   0  0  0  0  0  0  0  0  0  0  0  0
  -21.1011   26.8984   39.2095 P   0  0  0  0  0  0  0  0  0  0  0  0
  -22.5679   25.5353   39.8102 H   0  0  0  0  0  0  0  0  0  0  0  0
  -21.1277   26.3812   37.7704 O   0  0  0  0  0  0  0  0  0  0  0  0
  -20.2704   26.7807   36.6978 C   0  0  0  0  0  0  0  0  0  0  0  0
  -19.1067   25.8374   36.6439 C   0  0  0  0  0  0  0  0  0  0  0  0
  -18.8684   24.0072   35.2392 C   0  0  0  0  0  0  0  0  0  0  0  0
  -18.3544   25.2036   34.4504 C   0  0  0  0  0  0  0  0  0  0  0  0
  -18.0389   26.1701   35.5993 C   0  0  0  0  0  0  0  0  0  0  0  0
  -16.7521   25.9639   36.1525 O   0  0  0  0  0  0  0  0  0  0  0  0
  -17.1829   24.8582   33.7214 O   0  0  0  0  0  0  0  0  0  0  0  0
  -19.6143   24.5309   36.3122 O   0  0  0  0  0  0  0  0  0  0  0  0
  -16.6812   25.0519   36.4753 H   0  0  0  0  0  0  0  0  0  0  0  0
  -16.5195   24.4948   34.3287 H   0  0  0  0  0  0  0  0  0  0  0  0
  -19.7006   23.0578   34.5151 N   0  0  0  0  0  0  0  0  0  0  0  0
  -21.0838   22.1777   32.9776 N   0  0  0  0  0  0  0  0  0  0  0  0
  -21.9711   19.2289   33.2670 N   0  0  0  0  0  0  0  0  0  0  0  0
  -20.4192   23.2393   33.3644 C   0  0  0  0  0  0  0  0  0  0  0  0
  -20.6019   19.1860   35.1297 N   0  0  0  0  0  0  0  0  0  0  0  0
  -19.9167   21.7540   34.8891 C   0  0  0  0  0  0  0  0  0  0  0  0
  -19.4063   21.1159   35.9544 N   0  0  0  0  0  0  0  0  0  0  0  0
  -19.8021   19.8373   35.9829 C   0  0  0  0  0  0  0  0  0  0  0  0
  -21.1266   19.8670   34.0828 C   0  0  0  0  0  0  0  0  0  0  0  0
  -20.7668   21.2239   33.9342 C   0  0  0  0  0  0  0  0  0  0  0  0
  -22.1833   18.2802   33.4224 H   0  0  0  0  0  0  0  0  0  0  0  0
  -22.3810   19.7075   32.5105 H   0  0  0  0  0  0  0  0  0  0  0  0
 38 37  1  0  0  0
  2  4  2  0  0  0
 50 49  2  0  0  0
 50 47  1  0  0  0
 49 48  1  0  0  0
 37 34  1  0  0  0
 37 36  1  0  0  0
 39 36  1  0  0  0
 34 40  1  0  0  0
 34 33  1  0  0  0
  3  4  1  0  0  0
 35 40  1  0  0  0
 35 36  1  0  0  0
 35 43  1  0  0  0
  4  6  1  0  0  0
  4  1  1  0  0  0
 47 51  2  0  0  0
 24 23  2  0  0  0
 25 23  1  0  0  0
  6  7  1  0  0  0
 48 43  1  0  0  0
 48 52  2  0  0  0
 23 22  1  0  0  0
 43 46  1  0  0  0
 32 33  1  0  0  0
 32 30  1  0  0  0
 10  8  1  0  0  0
 10  9  1  0  0  0
 19 22  2  0  0  0
 19 18  1  0  0  0
 22 21  1  0  0  0
 51 52  1  0  0  0
 51 45  1  0  0  0
 52 44  1  0  0  0
  1 30  1  0  0  0
  8 18  1  0  0  0
  8 13  1  0  0  0
  9  7  1  0  0  0
  9 11  1  0  0  0
 18 17  2  0  0  0
 30 29  2  0  0  0
 30 28  1  0  0  0
 21 20  2  0  0  0
 46 44  2  0  0  0
 14 13  1  0  0  0
 17 20  1  0  0  0
 13 11  1  0  0  0
 11 12  1  0  0  0
  3  5  1  0  0  0
 28 31  1  0  0  0
 45 53  1  0  0  0
 45 54  1  0  0  0
 38 41  1  0  0  0
 39 42  1  0  0  0
 12 15  1  0  0  0
 14 16  1  0  0  0
 25 26  1  0  0  0
 25 27  1  0  0  0
M  END
> <minimizedAffinity>
-10.43093

$$$$
6BHV_DQV_A_1101


 54 58  0  0  0  0  0  0  0  0999 V2000
  -21.3441   23.1018   34.2958 O   0  0  0  0  0  0  0  0  0  0  0  0
  -20.9354   21.3817   32.5356 O   0  0  0  0  0  0  0  0  0  0  0  0
  -20.8501   20.7596   34.9360 O   0  0  0  0  0  0  0  0  0  0  0  0
  -20.5176   21.8046   33.9238 P   0  0  0  0  0  0  0  0  0  0  0  0
  -20.3580   19.9479   34.7363 H   0  0  0  0  0  0  0  0  0  0  0  0
  -18.9924   22.3051   33.9386 O   0  0  0  0  0  0  0  0  0  0  0  0
  -18.2046   22.2340   35.1458 C   0  0  0  0  0  0  0  0  0  0  0  0
  -16.5596   24.5379   37.3752 C   0  0  0  0  0  0  0  0  0  0  0  0
  -18.0520   23.5727   35.8242 C   0  0  0  0  0  0  0  0  0  0  0  0
  -17.3708   23.3862   37.0687 O   0  0  0  0  0  0  0  0  0  0  0  0
  -17.1822   24.5486   35.0331 C   0  0  0  0  0  0  0  0  0  0  0  0
  -17.9563   25.3744   34.1704 O   0  0  0  0  0  0  0  0  0  0  0  0
  -16.5054   25.4104   36.1087 C   0  0  0  0  0  0  0  0  0  0  0  0
  -17.1777   26.6429   36.3273 O   0  0  0  0  0  0  0  0  0  0  0  0
  -18.6053   25.8701   34.6938 H   0  0  0  0  0  0  0  0  0  0  0  0
  -18.0935   26.4687   36.5952 H   0  0  0  0  0  0  0  0  0  0  0  0
  -14.9743   22.7942   38.2495 C   0  0  0  0  0  0  0  0  0  0  0  0
  -15.2335   24.1317   37.9556 C   0  0  0  0  0  0  0  0  0  0  0  0
  -14.1949   25.0576   38.0406 C   0  0  0  0  0  0  0  0  0  0  0  0
  -13.6982   22.3833   38.6018 C   0  0  0  0  0  0  0  0  0  0  0  0
  -12.6684   23.3039   38.6760 C   0  0  0  0  0  0  0  0  0  0  0  0
  -12.9066   24.6514   38.3939 C   0  0  0  0  0  0  0  0  0  0  0  0
  -11.7648   25.6312   38.4051 C   0  0  0  0  0  0  0  0  0  0  0  0
  -10.6355   25.2672   37.9750 O   0  0  0  0  0  0  0  0  0  0  0  0
  -12.0003   26.8677   38.8726 N   0  0  0  0  0  0  0  0  0  0  0  0
  -11.2745   27.5326   38.8935 H   0  0  0  0  0  0  0  0  0  0  0  0
  -12.8987   27.1094   39.1946 H   0  0  0  0  0  0  0  0  0  0  0  0
  -20.1906   24.4501   32.4853 O   0  0  0  0  0  0  0  0  0  0  0  0
  -22.5533   24.9046   32.9501 O   0  0  0  0  0  0  0  0  0  0  0  0
  -21.2864   24.5210   33.5886 P   0  0  0  0  0  0  0  0  0  0  0  0
  -19.3441   24.1979   32.8861 H   0  0  0  0  0  0  0  0  0  0  0  0
  -20.7993   25.5035   34.6548 O   0  0  0  0  0  0  0  0  0  0  0  0
  -21.5594   26.0387   35.7414 C   0  0  0  0  0  0  0  0  0  0  0  0
  -20.6449   26.8562   36.6030 C   0  0  0  0  0  0  0  0  0  0  0  0
  -21.2704   28.4414   38.1764 C   0  0  0  0  0  0  0  0  0  0  0  0
  -21.2943   27.1044   38.9042 C   0  0  0  0  0  0  0  0  0  0  0  0
  -20.3689   26.2849   37.9956 C   0  0  0  0  0  0  0  0  0  0  0  0
  -18.9994   26.4502   38.3144 O   0  0  0  0  0  0  0  0  0  0  0  0
  -20.7570   27.2368   40.2146 O   0  0  0  0  0  0  0  0  0  0  0  0
  -21.2604   28.1434   36.8004 O   0  0  0  0  0  0  0  0  0  0  0  0
  -18.7626   27.3884   38.2467 H   0  0  0  0  0  0  0  0  0  0  0  0
  -19.8678   27.6208   40.1621 H   0  0  0  0  0  0  0  0  0  0  0  0
  -22.3745   29.3505   38.4463 N   0  0  0  0  0  0  0  0  0  0  0  0
  -23.6906   30.8584   39.4689 N   0  0  0  0  0  0  0  0  0  0  0  0
  -26.3318   31.7164   38.1071 N   0  0  0  0  0  0  0  0  0  0  0  0
  -22.5750   30.1722   39.5224 C   0  0  0  0  0  0  0  0  0  0  0  0
  -25.6914   30.3134   36.3845 N   0  0  0  0  0  0  0  0  0  0  0  0
  -23.4573   29.5413   37.6233 C   0  0  0  0  0  0  0  0  0  0  0  0
  -23.6943   28.9560   36.4385 N   0  0  0  0  0  0  0  0  0  0  0  0
  -24.8303   29.4121   35.8965 C   0  0  0  0  0  0  0  0  0  0  0  0
  -25.4400   30.8616   37.5975 C   0  0  0  0  0  0  0  0  0  0  0  0
  -24.2574   30.4723   38.2627 C   0  0  0  0  0  0  0  0  0  0  0  0
  -27.1392   31.9495   37.5942 H   0  0  0  0  0  0  0  0  0  0  0  0
  -26.1815   32.1131   38.9956 H   0  0  0  0  0  0  0  0  0  0  0  0
 38 37  1  0  0  0
  2  4  2  0  0  0
 50 49  2  0  0  0
 50 47  1  0  0  0
 49 48  1  0  0  0
 37 34  1  0  0  0
 37 36  1  0  0  0
 39 36  1  0  0  0
 34 40  1  0  0  0
 34 33  1  0  0  0
  3  4  1  0  0  0
 35 40  1  0  0  0
 35 36  1  0  0  0
 35 43  1  0  0  0
  4  6  1  0  0  0
  4  1  1  0  0  0
 47 51  2  0  0  0
 24 23  2  0  0  0
 25 23  1  0  0  0
  6  7  1  0  0  0
 48 43  1  0  0  0
 48 52  2  0  0  0
 23 22  1  0  0  0
 43 46  1  0  0  0
 32 33  1  0  0  0
 32 30  1  0  0  0
 10  8  1  0  0  0
 10  9  1  0  0  0
 19 22  2  0  0  0
 19 18  1  0  0  0
 22 21  1  0  0  0
 51 52  1  0  0  0
 51 45  1  0  0  0
 52 44  1  0  0  0
  1 30  1  0  0  0
  8 18  1  0  0  0
  8 13  1  0  0  0
  9  7  1  0  0  0
  9 11  1  0  0  0
 18 17  2  0  0  0
 30 29  2  0  0  0
 30 28  1  0  0  0
 21 20  2  0  0  0
 46 44  2  0  0  0
 14 13  1  0  0  0
 17 20  1  0  0  0
 13 11  1  0  0  0
 11 12  1  0  0  0
  3  5  1  0  0  0
 28 31  1  0  0  0
 45 53  1  0  0  0
 45 54  1  0  0  0
 38 41  1  0  0  0
 39 42  1  0  0  0
 12 15  1  0  0  0
 14 16  1  0  0  0
 25 26  1  0  0  0
 25 27  1  0  0  0
M  END
> <minimizedAffinity>
-10.28967

$$$$
