6BHV_DQV_A_1101
  RCSB PDB02231823463D
Coordinates from PDB:6BHV:A:1101 Model:1 without hydrogens
 44 48  0  0  0  0            999 V2000
  -19.0700   22.0260   36.3080   O 0  0  0  0  0  0  0  0  0  0  0  0
  -11.2490   22.9400   39.8900   C 0  0  0  0  0  0  0  0  0  0  0  0
  -12.3870   22.7680   39.1040   C 0  0  0  0  0  0  0  0  0  0  0  0
  -19.0720   19.6860   37.1330   O 0  0  0  0  0  0  0  0  0  0  0  0
  -12.9260   23.8700   38.4420   C 0  0  0  0  0  0  0  0  0  0  0  0
  -22.1150   28.9190   38.0700   N 0  0  0  0  0  0  0  0  0  0  0  0
  -12.9130   21.3880   38.8220   C 0  0  0  0  0  0  0  0  0  0  0  0
  -15.0530   20.3960   38.8480   C 0  0  0  0  0  0  0  0  0  0  0  0
  -22.6010   30.2830   39.7890   N 0  0  0  0  0  0  0  0  0  0  0  0
  -16.4780   20.8800   38.9520   C 0  0  0  0  0  0  0  0  0  0  0  0
  -19.2860   21.5530   38.7480   O 0  0  0  0  0  0  0  0  0  0  0  0
  -21.5770   24.6020   38.2220   C 0  0  0  0  0  0  0  0  0  0  0  0
  -20.4800   22.9440   40.4990   O 0  0  0  0  0  0  0  0  0  0  0  0
  -21.3620   25.5840   37.1100   C 0  0  0  0  0  0  0  0  0  0  0  0
  -21.4690   27.8960   37.2610   C 0  0  0  0  0  0  0  0  0  0  0  0
  -24.9950   32.2250   39.5360   N 0  0  0  0  0  0  0  0  0  0  0  0
  -20.0440   27.5220   37.6450   C 0  0  0  0  0  0  0  0  0  0  0  0
  -18.4980   23.8900   39.4120   O 0  0  0  0  0  0  0  0  0  0  0  0
  -19.9410   26.1390   36.9890   C 0  0  0  0  0  0  0  0  0  0  0  0
  -20.6150   23.5520   38.0910   O 0  0  0  0  0  0  0  0  0  0  0  0
  -21.8040   29.3480   39.3320   C 0  0  0  0  0  0  0  0  0  0  0  0
  -25.2300   31.3740   37.3990   N 0  0  0  0  0  0  0  0  0  0  0  0
  -19.6680   23.0330   39.1740   P 0  0  0  0  0  0  0  0  0  0  0  0
  -19.5710   26.2050   35.6240   O 0  0  0  0  0  0  0  0  0  0  0  0
  -19.1150   28.4390   37.0800   O 0  0  0  0  0  0  0  0  0  0  0  0
  -23.2040   29.6600   37.6810   C 0  0  0  0  0  0  0  0  0  0  0  0
  -23.8560   29.5980   36.5090   N 0  0  0  0  0  0  0  0  0  0  0  0
  -24.8470   30.4970   36.4630   C 0  0  0  0  0  0  0  0  0  0  0  0
  -24.5720   31.3890   38.5830   C 0  0  0  0  0  0  0  0  0  0  0  0
  -23.4910   30.4960   38.7460   C 0  0  0  0  0  0  0  0  0  0  0  0
  -22.2260   26.7120   37.3460   O 0  0  0  0  0  0  0  0  0  0  0  0
  -18.6140   21.0820   37.3950   P 0  0  0  0  0  0  0  0  0  0  0  0
  -17.0410   21.2410   37.6730   O 0  0  0  0  0  0  0  0  0  0  0  0
  -14.2500   21.4380   38.2850   O 0  0  0  0  0  0  0  0  0  0  0  0
  -14.4230   20.0940   40.2070   C 0  0  0  0  0  0  0  0  0  0  0  0
  -14.5780   18.7280   40.5750   O 0  0  0  0  0  0  0  0  0  0  0  0
  -12.9340   20.4150   40.0140   C 0  0  0  0  0  0  0  0  0  0  0  0
  -12.1570   19.2610   39.7250   O 0  0  0  0  0  0  0  0  0  0  0  0
  -10.6470   24.1840   39.9980   C 0  0  0  0  0  0  0  0  0  0  0  0
  -11.1800   25.2730   39.3320   C 0  0  0  0  0  0  0  0  0  0  0  0
  -12.3250   25.1260   38.5450   C 0  0  0  0  0  0  0  0  0  0  0  0
  -12.8530   26.3000   37.7660   C 0  0  0  0  0  0  0  0  0  0  0  0
  -12.0610   27.2230   37.4290   O 0  0  0  0  0  0  0  0  0  0  0  0
  -14.1590   26.3130   37.4540   N 0  0  0  0  0  0  0  0  0  0  0  0
 24 19  1  0  0  0  0
  1 32  2  0  0  0  0
 28 27  2  0  0  0  0
 28 22  1  0  0  0  0
 27 26  1  0  0  0  0
 19 14  1  0  0  0  0
 19 17  1  0  0  0  0
 25 17  1  0  0  0  0
 14 31  1  0  0  0  0
 14 12  1  0  0  0  0
  4 32  1  0  0  0  0
 15 31  1  0  0  0  0
 15 17  1  0  0  0  0
 15  6  1  0  0  0  0
 32 33  1  0  0  0  0
 32 11  1  0  0  0  0
 22 29  2  0  0  0  0
 43 42  2  0  0  0  0
 44 42  1  0  0  0  0
 33 10  1  0  0  0  0
 26  6  1  0  0  0  0
 26 30  2  0  0  0  0
 42 41  1  0  0  0  0
  6 21  1  0  0  0  0
 20 12  1  0  0  0  0
 20 23  1  0  0  0  0
 34  7  1  0  0  0  0
 34  8  1  0  0  0  0
  5 41  2  0  0  0  0
  5  3  1  0  0  0  0
 41 40  1  0  0  0  0
 29 30  1  0  0  0  0
 29 16  1  0  0  0  0
 30  9  1  0  0  0  0
 11 23  1  0  0  0  0
  7  3  1  0  0  0  0
  7 37  1  0  0  0  0
  8 10  1  0  0  0  0
  8 35  1  0  0  0  0
  3  2  2  0  0  0  0
 23 18  2  0  0  0  0
 23 13  1  0  0  0  0
 40 39  2  0  0  0  0
 21  9  2  0  0  0  0
 38 37  1  0  0  0  0
  2 39  1  0  0  0  0
 37 35  1  0  0  0  0
 35 36  1  0  0  0  0
A    1
O3
A    2
C4
A    3
C5
A    4
O4
A    5
C6
A    6
N1
A    7
C7
A    8
C8
A    9
N2
A   10
C9
A   11
O5
A   12
C10
A   13
O6
A   14
C11
A   15
C12
A   16
N3
A   17
C13
A   18
O7
A   19
C14
A   20
O8
A   21
C15
A   22
N4
A   23
P1
A   24
O11
A   25
O10
A   26
C19
A   27
N5
A   28
C18
A   29
C17
A   30
C16
A   31
O9
A   32
P
A   33
O2
A   34
O1
A   35
C20
A   36
O12
A   37
C21
A   38
O13
A   39
C3
A   40
C2
A   41
C1
A   42
C
A   43
O
A   44
N
M  END
>  <InstanceId>
6BHV_DQV_A_1101

>  <ChemCompId>
DQV

>  <PdbId>
6BHV

>  <ChainId>
A

>  <ResidueNumber>
1101

>  <InsertionCode>


>  <Model>
1

>  <AltIds>


>  <MissingHeavyAtoms>
0

>  <ObservedFormula>
C22 N6 O14 P2

>  <Name>
[(2R,3S,4R,5R)-5-(6-amino-9H-purin-9-yl)-3,4-dihydroxytetrahydrofuran-2-yl]methyl [(2R,3S,4R,5S)-5-(3-carbamoylphenyl)-3,4-dihydroxytetrahydrofuran-2-yl]methyl dihydrogen diphosphate (non-preferred name)

>  <SystematicName>
[[(2~{R},3~{S},4~{R},5~{S})-5-(3-aminocarbonylphenyl)-3,4-bis(oxidanyl)oxolan-2-yl]methoxy-oxidanyl-phosphoryl] [(2~{R},3~{S},4~{R},5~{R})-5-(6-aminopurin-9-yl)-3,4-bis(oxidanyl)oxolan-2-yl]methyl hydrogen phosphate

>  <Synonyms>


>  <Type>
NON-POLYMER

>  <Formula>
C22 H28 N6 O14 P2

>  <MolecularWeight>
662.437

>  <ModifiedDate>
2018-02-23

>  <Parent>


>  <OneLetterCode>


>  <SubcomponentList>


>  <AmbiguousFlag>
N

>  <InChI>
InChI=1S/C22H28N6O14P2/c23-19-13-21(26-7-25-19)28(8-27-13)22-17(32)15(30)12(41-22)6-39-44(36,37)42-43(34,35)38-5-11-14(29)16(31)18(40-11)9-2-1-3-10(4-9)20(24)33/h1-4,7-8,11-12,14-18,22,29-32H,5-6H2,(H2,24,33)(H,34,35)(H,36,37)(H2,23,25,26)/t11-,12-,14-,15-,16-,17-,18+,22-/m1/s1

>  <InChIKey>
HNKKJJHKTPALEK-RACQCECLSA-N

>  <SMILES>
c1cc(cc(c1)C(=O)N)[C@H]2[C@@H]([C@@H]([C@H](O2)COP(=O)(O)OP(=O)(O)OC[C@@H]3[C@H]([C@H]([C@@H](O3)n4cnc5c4ncnc5N)O)O)O)O

$$$$
