2R9W_23C_A_365


 31 34  0  0  0  0  0  0  0  0999 V2000
   23.6045    6.9192   13.5769 C   0  0  0  0  0  0  0  0  0  0  0  0
   23.7924    6.7435   15.0376 N   0  0  0  0  0  0  0  0  0  0  0  0
   24.9956    6.8306   15.6146 C   0  0  0  0  0  0  0  0  0  0  0  0
   26.0493    7.0104   15.0054 O   0  0  0  0  0  0  0  0  0  0  0  0
   24.8757    6.6636   16.9940 C   0  0  0  0  0  0  0  0  0  0  0  0
   25.7961    6.6512   18.0452 C   0  0  0  0  0  0  0  0  0  0  0  0
   25.3518    6.4463   19.3503 C   0  0  0  0  0  0  0  0  0  0  0  0
   23.9958    6.2534   19.5882 C   0  0  0  0  0  0  0  0  0  0  0  0
   23.0938    6.2705   18.5403 C   0  0  0  0  0  0  0  0  0  0  0  0
   23.5192    6.4741   17.2331 C   0  0  0  0  0  0  0  0  0  0  0  0
   22.8731    6.5401   15.9954 C   0  0  0  0  0  0  0  0  0  0  0  0
   21.6553    6.4170   15.8079 O   0  0  0  0  0  0  0  0  0  0  0  0
   26.3113    6.4029   20.5295 C   0  0  0  0  0  0  0  0  0  0  0  0
   27.4024    5.8127   20.3864 O   0  0  0  0  0  0  0  0  0  0  0  0
   25.9216    6.9150   21.6006 O   0  0  0  0  0  0  0  0  0  0  0  0
   25.0896    7.3443   21.6393 H   0  0  0  0  0  0  0  0  0  0  0  0
   23.7770    8.3798   13.0706 C   0  0  0  0  0  0  0  0  0  0  0  0
   24.9595    8.7386   12.8447 O   0  0  0  0  0  0  0  0  0  0  0  0
   22.7666    9.0763   12.8962 O   0  0  0  0  0  0  0  0  0  0  0  0
   25.6675    8.1462   13.0051 H   0  0  0  0  0  0  0  0  0  0  0  0
   24.4364    5.8808   12.7775 C   0  0  0  0  0  0  0  0  0  0  0  0
   23.3227    5.7976   10.4184 C   0  0  0  0  0  0  0  0  0  0  0  0
   24.0035    6.9363    9.9982 C   0  0  0  0  0  0  0  0  0  0  0  0
   23.8105    7.4485    8.7347 C   0  0  0  0  0  0  0  0  0  0  0  0
   22.9413    6.8344    7.8493 C   0  0  0  0  0  0  0  0  0  0  0  0
   22.2569    5.6896    8.2403 C   0  0  0  0  0  0  0  0  0  0  0  0
   22.4501    5.1767    9.5207 C   0  0  0  0  0  0  0  0  0  0  0  0
   21.7631    4.0322    9.8933 C   0  0  0  0  0  0  0  0  0  0  0  0
   21.9536    3.5224   11.1666 C   0  0  0  0  0  0  0  0  0  0  0  0
   22.8132    4.1410   12.0552 C   0  0  0  0  0  0  0  0  0  0  0  0
   23.5213    5.2737   11.7005 C   0  0  0  0  0  0  0  0  0  0  0  0
 22 23  2  0  0  0
 22 27  1  0  0  0
 22 31  1  0  0  0
 23 24  1  0  0  0
 24 25  2  0  0  0
 25 26  1  0  0  0
 26 27  2  0  0  0
 27 28  1  0  0  0
 28 29  2  0  0  0
 29 30  1  0  0  0
 30 31  2  0  0  0
 31 21  1  0  0  0
 21  1  1  0  0  0
  1 17  1  0  0  0
  1  2  1  0  0  0
 17 18  1  0  0  0
 17 19  2  0  0  0
  2  3  1  0  0  0
  2 11  1  0  0  0
  3  4  2  0  0  0
  3  5  1  0  0  0
  5  6  2  0  0  0
  5 10  1  0  0  0
  6  7  1  0  0  0
  7 13  1  0  0  0
  7  8  2  0  0  0
 13 14  2  0  0  0
 13 15  1  0  0  0
  8  9  1  0  0  0
  9 10  2  0  0  0
 10 11  1  0  0  0
 11 12  2  0  0  0
 18 20  1  0  0  0
 15 16  1  0  0  0
M  END
> <minimizedAffinity>
-10.54432

$$$$
2R9W_23C_A_365


 31 34  0  0  0  0  0  0  0  0999 V2000
   22.9269    6.8670   12.9205 C   0  0  0  0  0  0  0  0  0  0  0  0
   23.3993    6.8625   14.3264 N   0  0  0  0  0  0  0  0  0  0  0  0
   22.7095    6.2678   15.3057 C   0  0  0  0  0  0  0  0  0  0  0  0
   21.6174    5.7214   15.1563 O   0  0  0  0  0  0  0  0  0  0  0  0
   23.3995    6.3829   16.5122 C   0  0  0  0  0  0  0  0  0  0  0  0
   23.1317    5.9626   17.8175 C   0  0  0  0  0  0  0  0  0  0  0  0
   24.0410    6.2461   18.8351 C   0  0  0  0  0  0  0  0  0  0  0  0
   25.2033    6.9479   18.5369 C   0  0  0  0  0  0  0  0  0  0  0  0
   25.4591    7.3564   17.2408 C   0  0  0  0  0  0  0  0  0  0  0  0
   24.5639    7.0818   16.2141 C   0  0  0  0  0  0  0  0  0  0  0  0
   24.5367    7.3554   14.8436 C   0  0  0  0  0  0  0  0  0  0  0  0
   25.4090    7.9646   14.2103 O   0  0  0  0  0  0  0  0  0  0  0  0
   23.7908    5.8307   20.2765 C   0  0  0  0  0  0  0  0  0  0  0  0
   24.6550    5.1387   20.8542 O   0  0  0  0  0  0  0  0  0  0  0  0
   22.6972    6.1605   20.7832 O   0  0  0  0  0  0  0  0  0  0  0  0
   22.0924    6.6825   20.2935 H   0  0  0  0  0  0  0  0  0  0  0  0
   22.4200    8.2461   12.4098 C   0  0  0  0  0  0  0  0  0  0  0  0
   23.1901    9.2167   12.6170 O   0  0  0  0  0  0  0  0  0  0  0  0
   21.3316    8.3027   11.8195 O   0  0  0  0  0  0  0  0  0  0  0  0
   23.9976    9.0848   13.0737 H   0  0  0  0  0  0  0  0  0  0  0  0
   23.9647    6.1978   11.9801 C   0  0  0  0  0  0  0  0  0  0  0  0
   23.2713    6.3512    9.4685 C   0  0  0  0  0  0  0  0  0  0  0  0
   24.0673    7.4740    9.2621 C   0  0  0  0  0  0  0  0  0  0  0  0
   24.1190    8.0860    8.0298 C   0  0  0  0  0  0  0  0  0  0  0  0
   23.3874    7.5905    6.9642 C   0  0  0  0  0  0  0  0  0  0  0  0
   22.5926    6.4639    7.1408 C   0  0  0  0  0  0  0  0  0  0  0  0
   22.5380    5.8499    8.3896 C   0  0  0  0  0  0  0  0  0  0  0  0
   21.7438    4.7252    8.5477 C   0  0  0  0  0  0  0  0  0  0  0  0
   21.6880    4.1149    9.7894 C   0  0  0  0  0  0  0  0  0  0  0  0
   22.4099    4.6153   10.8570 C   0  0  0  0  0  0  0  0  0  0  0  0
   23.2212    5.7257   10.7191 C   0  0  0  0  0  0  0  0  0  0  0  0
 22 23  2  0  0  0
 22 27  1  0  0  0
 22 31  1  0  0  0
 23 24  1  0  0  0
 24 25  2  0  0  0
 25 26  1  0  0  0
 26 27  2  0  0  0
 27 28  1  0  0  0
 28 29  2  0  0  0
 29 30  1  0  0  0
 30 31  2  0  0  0
 31 21  1  0  0  0
 21  1  1  0  0  0
  1 17  1  0  0  0
  1  2  1  0  0  0
 17 18  1  0  0  0
 17 19  2  0  0  0
  2  3  1  0  0  0
  2 11  1  0  0  0
  3  4  2  0  0  0
  3  5  1  0  0  0
  5  6  2  0  0  0
  5 10  1  0  0  0
  6  7  1  0  0  0
  7 13  1  0  0  0
  7  8  2  0  0  0
 13 14  2  0  0  0
 13 15  1  0  0  0
  8  9  1  0  0  0
  9 10  2  0  0  0
 10 11  1  0  0  0
 11 12  2  0  0  0
 18 20  1  0  0  0
 15 16  1  0  0  0
M  END
> <minimizedAffinity>
-9.70142

$$$$
2R9W_23C_A_365


 31 34  0  0  0  0  0  0  0  0999 V2000
   24.0422    6.6946   16.3880 C   0  0  0  0  0  0  0  0  0  0  0  0
   23.5942    6.1142   15.0987 N   0  0  0  0  0  0  0  0  0  0  0  0
   22.2998    6.0007   14.7824 C   0  0  0  0  0  0  0  0  0  0  0  0
   21.3707    6.3103   15.5269 O   0  0  0  0  0  0  0  0  0  0  0  0
   22.1676    5.4606   13.5033 C   0  0  0  0  0  0  0  0  0  0  0  0
   21.0676    5.1283   12.7083 C   0  0  0  0  0  0  0  0  0  0  0  0
   21.2700    4.5826   11.4419 C   0  0  0  0  0  0  0  0  0  0  0  0
   22.5670    4.3728   10.9875 C   0  0  0  0  0  0  0  0  0  0  0  0
   23.6479    4.7081   11.7820 C   0  0  0  0  0  0  0  0  0  0  0  0
   23.4645    5.2537   13.0468 C   0  0  0  0  0  0  0  0  0  0  0  0
   24.3274    5.6809   14.0601 C   0  0  0  0  0  0  0  0  0  0  0  0
   25.5645    5.6522   14.0162 O   0  0  0  0  0  0  0  0  0  0  0  0
   20.1100    4.1838   10.5428 C   0  0  0  0  0  0  0  0  0  0  0  0
   19.6425    3.0311   10.6520 O   0  0  0  0  0  0  0  0  0  0  0  0
   19.7285    5.0226    9.6988 O   0  0  0  0  0  0  0  0  0  0  0  0
   20.1229    5.8721    9.6711 H   0  0  0  0  0  0  0  0  0  0  0  0
   24.8590    5.7244   17.2885 C   0  0  0  0  0  0  0  0  0  0  0  0
   24.4689    4.5302   17.2910 O   0  0  0  0  0  0  0  0  0  0  0  0
   25.8363    6.1647   17.9107 O   0  0  0  0  0  0  0  0  0  0  0  0
   23.7171    4.2819   16.7900 H   0  0  0  0  0  0  0  0  0  0  0  0
   24.7275    8.0706   16.1732 C   0  0  0  0  0  0  0  0  0  0  0  0
   22.6313    9.6078   15.9368 C   0  0  0  0  0  0  0  0  0  0  0  0
   22.3368    9.5048   17.2931 C   0  0  0  0  0  0  0  0  0  0  0  0
   21.2381   10.1399   17.8272 C   0  0  0  0  0  0  0  0  0  0  0  0
   20.4068   10.9051   17.0273 C   0  0  0  0  0  0  0  0  0  0  0  0
   20.6846   11.0330   15.6714 C   0  0  0  0  0  0  0  0  0  0  0  0
   21.7936   10.3853   15.1327 C   0  0  0  0  0  0  0  0  0  0  0  0
   22.0587   10.5265   13.7797 C   0  0  0  0  0  0  0  0  0  0  0  0
   23.1605    9.8817   13.2432 C   0  0  0  0  0  0  0  0  0  0  0  0
   23.9851    9.1086   14.0391 C   0  0  0  0  0  0  0  0  0  0  0  0
   23.7500    8.9665   15.3936 C   0  0  0  0  0  0  0  0  0  0  0  0
 22 23  2  0  0  0
 22 27  1  0  0  0
 22 31  1  0  0  0
 23 24  1  0  0  0
 24 25  2  0  0  0
 25 26  1  0  0  0
 26 27  2  0  0  0
 27 28  1  0  0  0
 28 29  2  0  0  0
 29 30  1  0  0  0
 30 31  2  0  0  0
 31 21  1  0  0  0
 21  1  1  0  0  0
  1 17  1  0  0  0
  1  2  1  0  0  0
 17 18  1  0  0  0
 17 19  2  0  0  0
  2  3  1  0  0  0
  2 11  1  0  0  0
  3  4  2  0  0  0
  3  5  1  0  0  0
  5  6  2  0  0  0
  5 10  1  0  0  0
  6  7  1  0  0  0
  7 13  1  0  0  0
  7  8  2  0  0  0
 13 14  2  0  0  0
 13 15  1  0  0  0
  8  9  1  0  0  0
  9 10  2  0  0  0
 10 11  1  0  0  0
 11 12  2  0  0  0
 18 20  1  0  0  0
 15 16  1  0  0  0
M  END
> <minimizedAffinity>
-8.78208

$$$$
2R9W_23C_A_365


 31 34  0  0  0  0  0  0  0  0999 V2000
   21.3227    7.6322   14.1225 C   0  0  0  0  0  0  0  0  0  0  0  0
   22.3251    7.5115   15.2090 N   0  0  0  0  0  0  0  0  0  0  0  0
   22.3640    6.4530   16.0252 C   0  0  0  0  0  0  0  0  0  0  0  0
   21.5640    5.5188   15.9936 O   0  0  0  0  0  0  0  0  0  0  0  0
   23.4237    6.5821   16.9227 C   0  0  0  0  0  0  0  0  0  0  0  0
   23.8991    5.7892   17.9704 C   0  0  0  0  0  0  0  0  0  0  0  0
   25.0059    6.2081   18.7068 C   0  0  0  0  0  0  0  0  0  0  0  0
   25.6209    7.4139   18.3898 C   0  0  0  0  0  0  0  0  0  0  0  0
   25.1432    8.1889   17.3490 C   0  0  0  0  0  0  0  0  0  0  0  0
   24.0414    7.7862   16.6041 C   0  0  0  0  0  0  0  0  0  0  0  0
   23.3388    8.3334   15.5267 C   0  0  0  0  0  0  0  0  0  0  0  0
   23.5971    9.4061   14.9649 O   0  0  0  0  0  0  0  0  0  0  0  0
   25.5530    5.3952   19.8698 C   0  0  0  0  0  0  0  0  0  0  0  0
   24.7737    5.0795   20.7930 O   0  0  0  0  0  0  0  0  0  0  0  0
   26.7762    5.1393   19.8609 O   0  0  0  0  0  0  0  0  0  0  0  0
   27.3052    5.4055   19.1348 H   0  0  0  0  0  0  0  0  0  0  0  0
   20.2947    8.7841   14.3118 C   0  0  0  0  0  0  0  0  0  0  0  0
   20.1500    9.5483   13.3253 O   0  0  0  0  0  0  0  0  0  0  0  0
   19.6741    8.8628   15.3818 O   0  0  0  0  0  0  0  0  0  0  0  0
   20.6623    9.4170   12.5518 H   0  0  0  0  0  0  0  0  0  0  0  0
   22.0063    7.6305   12.7289 C   0  0  0  0  0  0  0  0  0  0  0  0
   21.0968    5.4730   11.5752 C   0  0  0  0  0  0  0  0  0  0  0  0
   19.9003    6.0960   11.2333 C   0  0  0  0  0  0  0  0  0  0  0  0
   18.9136    5.4096   10.5616 C   0  0  0  0  0  0  0  0  0  0  0  0
   19.0948    4.0853   10.2015 C   0  0  0  0  0  0  0  0  0  0  0  0
   20.2849    3.4426   10.5217 C   0  0  0  0  0  0  0  0  0  0  0  0
   21.2793    4.1377   11.2057 C   0  0  0  0  0  0  0  0  0  0  0  0
   22.4616    3.4834   11.5136 C   0  0  0  0  0  0  0  0  0  0  0  0
   23.4502    4.1734   12.1948 C   0  0  0  0  0  0  0  0  0  0  0  0
   23.2659    5.4928   12.5643 C   0  0  0  0  0  0  0  0  0  0  0  0
   22.1021    6.1707   12.2538 C   0  0  0  0  0  0  0  0  0  0  0  0
 22 23  2  0  0  0
 22 27  1  0  0  0
 22 31  1  0  0  0
 23 24  1  0  0  0
 24 25  2  0  0  0
 25 26  1  0  0  0
 26 27  2  0  0  0
 27 28  1  0  0  0
 28 29  2  0  0  0
 29 30  1  0  0  0
 30 31  2  0  0  0
 31 21  1  0  0  0
 21  1  1  0  0  0
  1 17  1  0  0  0
  1  2  1  0  0  0
 17 18  1  0  0  0
 17 19  2  0  0  0
  2  3  1  0  0  0
  2 11  1  0  0  0
  3  4  2  0  0  0
  3  5  1  0  0  0
  5  6  2  0  0  0
  5 10  1  0  0  0
  6  7  1  0  0  0
  7 13  1  0  0  0
  7  8  2  0  0  0
 13 14  2  0  0  0
 13 15  1  0  0  0
  8  9  1  0  0  0
  9 10  2  0  0  0
 10 11  1  0  0  0
 11 12  2  0  0  0
 18 20  1  0  0  0
 15 16  1  0  0  0
M  END
> <minimizedAffinity>
-8.76587

$$$$
2R9W_23C_A_365


 31 34  0  0  0  0  0  0  0  0999 V2000
   23.5390    5.6685   13.5767 C   0  0  0  0  0  0  0  0  0  0  0  0
   23.1708    5.6049   12.1414 N   0  0  0  0  0  0  0  0  0  0  0  0
   23.5589    6.5388   11.2664 C   0  0  0  0  0  0  0  0  0  0  0  0
   24.2010    7.5459   11.5610 O   0  0  0  0  0  0  0  0  0  0  0  0
   23.1075    6.2109    9.9881 C   0  0  0  0  0  0  0  0  0  0  0  0
   23.2183    6.8301    8.7405 C   0  0  0  0  0  0  0  0  0  0  0  0
   22.6340    6.2393    7.6215 C   0  0  0  0  0  0  0  0  0  0  0  0
   21.9445    5.0406    7.7633 C   0  0  0  0  0  0  0  0  0  0  0  0
   21.8437    4.4355    9.0026 C   0  0  0  0  0  0  0  0  0  0  0  0
   22.4207    5.0102   10.1286 C   0  0  0  0  0  0  0  0  0  0  0  0
   22.4884    4.6563   11.4791 C   0  0  0  0  0  0  0  0  0  0  0  0
   21.9899    3.6431   11.9871 O   0  0  0  0  0  0  0  0  0  0  0  0
   22.7060    6.8793    6.2438 C   0  0  0  0  0  0  0  0  0  0  0  0
   23.7037    6.6442    5.5306 O   0  0  0  0  0  0  0  0  0  0  0  0
   21.7806    7.6573    5.9276 O   0  0  0  0  0  0  0  0  0  0  0  0
   21.0591    7.7886    6.5108 H   0  0  0  0  0  0  0  0  0  0  0  0
   24.8997    5.0020   13.9286 C   0  0  0  0  0  0  0  0  0  0  0  0
   24.8750    3.7518   14.0494 O   0  0  0  0  0  0  0  0  0  0  0  0
   25.9062    5.7170   14.0378 O   0  0  0  0  0  0  0  0  0  0  0  0
   24.0672    3.2874   13.9507 H   0  0  0  0  0  0  0  0  0  0  0  0
   23.3916    7.1119   14.1280 C   0  0  0  0  0  0  0  0  0  0  0  0
   23.5595    7.1538   16.7324 C   0  0  0  0  0  0  0  0  0  0  0  0
   24.9205    7.4417   16.6933 C   0  0  0  0  0  0  0  0  0  0  0  0
   25.6462    7.5821   17.8549 C   0  0  0  0  0  0  0  0  0  0  0  0
   25.0345    7.4504   19.0898 C   0  0  0  0  0  0  0  0  0  0  0  0
   23.6741    7.1734   19.1569 C   0  0  0  0  0  0  0  0  0  0  0  0
   22.9435    7.0267   17.9803 C   0  0  0  0  0  0  0  0  0  0  0  0
   21.5872    6.7547   18.0649 C   0  0  0  0  0  0  0  0  0  0  0  0
   20.8603    6.6075   16.8955 C   0  0  0  0  0  0  0  0  0  0  0  0
   21.4724    6.7282   15.6618 C   0  0  0  0  0  0  0  0  0  0  0  0
   22.8200    7.0153   15.5527 C   0  0  0  0  0  0  0  0  0  0  0  0
 22 23  2  0  0  0
 22 27  1  0  0  0
 22 31  1  0  0  0
 23 24  1  0  0  0
 24 25  2  0  0  0
 25 26  1  0  0  0
 26 27  2  0  0  0
 27 28  1  0  0  0
 28 29  2  0  0  0
 29 30  1  0  0  0
 30 31  2  0  0  0
 31 21  1  0  0  0
 21  1  1  0  0  0
  1 17  1  0  0  0
  1  2  1  0  0  0
 17 18  1  0  0  0
 17 19  2  0  0  0
  2  3  1  0  0  0
  2 11  1  0  0  0
  3  4  2  0  0  0
  3  5  1  0  0  0
  5  6  2  0  0  0
  5 10  1  0  0  0
  6  7  1  0  0  0
  7 13  1  0  0  0
  7  8  2  0  0  0
 13 14  2  0  0  0
 13 15  1  0  0  0
  8  9  1  0  0  0
  9 10  2  0  0  0
 10 11  1  0  0  0
 11 12  2  0  0  0
 18 20  1  0  0  0
 15 16  1  0  0  0
M  END
> <minimizedAffinity>
-8.74375

$$$$
2R9W_23C_A_365


 31 34  0  0  0  0  0  0  0  0999 V2000
   21.5991    6.4734    6.9703 C   0  0  0  0  0  0  0  0  0  0  0  0
   22.0398    5.8677    8.2504 N   0  0  0  0  0  0  0  0  0  0  0  0
   22.8243    6.5223    9.1132 C   0  0  0  0  0  0  0  0  0  0  0  0
   23.2905    7.6440    8.9183 O   0  0  0  0  0  0  0  0  0  0  0  0
   23.0495    5.7364   10.2431 C   0  0  0  0  0  0  0  0  0  0  0  0
   23.7873    5.9250   11.4146 C   0  0  0  0  0  0  0  0  0  0  0  0
   23.8222    4.9190   12.3787 C   0  0  0  0  0  0  0  0  0  0  0  0
   23.1232    3.7376   12.1592 C   0  0  0  0  0  0  0  0  0  0  0  0
   22.3942    3.5633   10.9972 C   0  0  0  0  0  0  0  0  0  0  0  0
   22.3478    4.5559   10.0258 C   0  0  0  0  0  0  0  0  0  0  0  0
   21.7227    4.6754    8.7813 C   0  0  0  0  0  0  0  0  0  0  0  0
   21.0058    3.8188    8.2470 O   0  0  0  0  0  0  0  0  0  0  0  0
   24.6250    5.0623   13.6624 C   0  0  0  0  0  0  0  0  0  0  0  0
   25.8713    5.0391   13.5898 O   0  0  0  0  0  0  0  0  0  0  0  0
   23.9821    5.1364   14.7315 O   0  0  0  0  0  0  0  0  0  0  0  0
   23.0453    5.1495   14.7149 H   0  0  0  0  0  0  0  0  0  0  0  0
   22.2562    5.8600    5.7009 C   0  0  0  0  0  0  0  0  0  0  0  0
   21.5040    5.1439    4.9941 O   0  0  0  0  0  0  0  0  0  0  0  0
   23.4402    6.1277    5.4507 O   0  0  0  0  0  0  0  0  0  0  0  0
   20.6179    4.9920    5.2583 H   0  0  0  0  0  0  0  0  0  0  0  0
   20.0509    6.5530    6.8935 C   0  0  0  0  0  0  0  0  0  0  0  0
   18.8616    7.2952    9.0952 C   0  0  0  0  0  0  0  0  0  0  0  0
   18.5422    5.9823    9.4282 C   0  0  0  0  0  0  0  0  0  0  0  0
   17.8380    5.6964   10.5763 C   0  0  0  0  0  0  0  0  0  0  0  0
   17.4409    6.7098   11.4318 C   0  0  0  0  0  0  0  0  0  0  0  0
   17.7564    8.0289   11.1279 C   0  0  0  0  0  0  0  0  0  0  0  0
   18.4642    8.3157    9.9633 C   0  0  0  0  0  0  0  0  0  0  0  0
   18.7742    9.6359    9.6772 C   0  0  0  0  0  0  0  0  0  0  0  0
   19.4769    9.9220    8.5188 C   0  0  0  0  0  0  0  0  0  0  0  0
   19.8646    8.9117    7.6584 C   0  0  0  0  0  0  0  0  0  0  0  0
   19.5809    7.5868    7.9311 C   0  0  0  0  0  0  0  0  0  0  0  0
 22 23  2  0  0  0
 22 27  1  0  0  0
 22 31  1  0  0  0
 23 24  1  0  0  0
 24 25  2  0  0  0
 25 26  1  0  0  0
 26 27  2  0  0  0
 27 28  1  0  0  0
 28 29  2  0  0  0
 29 30  1  0  0  0
 30 31  2  0  0  0
 31 21  1  0  0  0
 21  1  1  0  0  0
  1 17  1  0  0  0
  1  2  1  0  0  0
 17 18  1  0  0  0
 17 19  2  0  0  0
  2  3  1  0  0  0
  2 11  1  0  0  0
  3  4  2  0  0  0
  3  5  1  0  0  0
  5  6  2  0  0  0
  5 10  1  0  0  0
  6  7  1  0  0  0
  7 13  1  0  0  0
  7  8  2  0  0  0
 13 14  2  0  0  0
 13 15  1  0  0  0
  8  9  1  0  0  0
  9 10  2  0  0  0
 10 11  1  0  0  0
 11 12  2  0  0  0
 18 20  1  0  0  0
 15 16  1  0  0  0
M  END
> <minimizedAffinity>
-8.61201

$$$$
2R9W_23C_A_365


 31 34  0  0  0  0  0  0  0  0999 V2000
   22.4321    6.2006   10.4928 C   0  0  0  0  0  0  0  0  0  0  0  0
   22.5070    6.2440   11.9734 N   0  0  0  0  0  0  0  0  0  0  0  0
   23.6151    5.9015   12.6390 C   0  0  0  0  0  0  0  0  0  0  0  0
   24.6425    5.4784   12.1109 O   0  0  0  0  0  0  0  0  0  0  0  0
   23.4198    6.0724   14.0094 C   0  0  0  0  0  0  0  0  0  0  0  0
   24.2261    5.8580   15.1301 C   0  0  0  0  0  0  0  0  0  0  0  0
   23.7249    6.1243   16.4032 C   0  0  0  0  0  0  0  0  0  0  0  0
   22.4251    6.5977   16.5405 C   0  0  0  0  0  0  0  0  0  0  0  0
   21.6372    6.8088   15.4238 C   0  0  0  0  0  0  0  0  0  0  0  0
   22.1210    6.5492   14.1473 C   0  0  0  0  0  0  0  0  0  0  0  0
   21.5855    6.6541   12.8604 C   0  0  0  0  0  0  0  0  0  0  0  0
   20.4446    7.0463   12.5818 O   0  0  0  0  0  0  0  0  0  0  0  0
   24.5509    5.8900   17.6584 C   0  0  0  0  0  0  0  0  0  0  0  0
   24.3499    4.8479   18.3163 O   0  0  0  0  0  0  0  0  0  0  0  0
   25.3488    6.7920   17.9923 O   0  0  0  0  0  0  0  0  0  0  0  0
   25.4519    7.5501   17.4514 H   0  0  0  0  0  0  0  0  0  0  0  0
   21.4203    5.1654    9.9234 C   0  0  0  0  0  0  0  0  0  0  0  0
   20.2097    5.4914   10.0027 O   0  0  0  0  0  0  0  0  0  0  0  0
   21.8541    4.1226    9.4130 O   0  0  0  0  0  0  0  0  0  0  0  0
   19.9682    6.3017   10.4065 H   0  0  0  0  0  0  0  0  0  0  0  0
   22.2655    7.6253    9.8997 C   0  0  0  0  0  0  0  0  0  0  0  0
   24.0366    7.7135    7.9845 C   0  0  0  0  0  0  0  0  0  0  0  0
   25.0842    7.8662    8.8879 C   0  0  0  0  0  0  0  0  0  0  0  0
   26.3827    7.9942    8.4483 C   0  0  0  0  0  0  0  0  0  0  0  0
   26.6765    7.9629    7.0958 C   0  0  0  0  0  0  0  0  0  0  0  0
   25.6499    7.8008    6.1730 C   0  0  0  0  0  0  0  0  0  0  0  0
   24.3367    7.6768    6.6201 C   0  0  0  0  0  0  0  0  0  0  0  0
   23.3253    7.5117    5.6870 C   0  0  0  0  0  0  0  0  0  0  0  0
   22.0193    7.3896    6.1308 C   0  0  0  0  0  0  0  0  0  0  0  0
   21.7236    7.4315    7.4806 C   0  0  0  0  0  0  0  0  0  0  0  0
   22.7172    7.5788    8.4301 C   0  0  0  0  0  0  0  0  0  0  0  0
 22 23  2  0  0  0
 22 27  1  0  0  0
 22 31  1  0  0  0
 23 24  1  0  0  0
 24 25  2  0  0  0
 25 26  1  0  0  0
 26 27  2  0  0  0
 27 28  1  0  0  0
 28 29  2  0  0  0
 29 30  1  0  0  0
 30 31  2  0  0  0
 31 21  1  0  0  0
 21  1  1  0  0  0
  1 17  1  0  0  0
  1  2  1  0  0  0
 17 18  1  0  0  0
 17 19  2  0  0  0
  2  3  1  0  0  0
  2 11  1  0  0  0
  3  4  2  0  0  0
  3  5  1  0  0  0
  5  6  2  0  0  0
  5 10  1  0  0  0
  6  7  1  0  0  0
  7 13  1  0  0  0
  7  8  2  0  0  0
 13 14  2  0  0  0
 13 15  1  0  0  0
  8  9  1  0  0  0
  9 10  2  0  0  0
 10 11  1  0  0  0
 11 12  2  0  0  0
 18 20  1  0  0  0
 15 16  1  0  0  0
M  END
> <minimizedAffinity>
-8.43768

$$$$
2R9W_23C_A_365


 31 34  0  0  0  0  0  0  0  0999 V2000
   22.7987    6.9370   13.7286 C   0  0  0  0  0  0  0  0  0  0  0  0
   23.2372    6.8244   15.1410 N   0  0  0  0  0  0  0  0  0  0  0  0
   24.5295    6.7988   15.4838 C   0  0  0  0  0  0  0  0  0  0  0  0
   25.4634    6.8147   14.6830 O   0  0  0  0  0  0  0  0  0  0  0  0
   24.6531    6.7273   16.8711 C   0  0  0  0  0  0  0  0  0  0  0  0
   25.7475    6.6645   17.7375 C   0  0  0  0  0  0  0  0  0  0  0  0
   25.5364    6.5903   19.1132 C   0  0  0  0  0  0  0  0  0  0  0  0
   24.2364    6.5766   19.6053 C   0  0  0  0  0  0  0  0  0  0  0  0
   23.1610    6.6420   18.7384 C   0  0  0  0  0  0  0  0  0  0  0  0
   23.3531    6.7170   17.3642 C   0  0  0  0  0  0  0  0  0  0  0  0
   22.4973    6.7890   16.2615 C   0  0  0  0  0  0  0  0  0  0  0  0
   21.2600    6.8032   16.3061 O   0  0  0  0  0  0  0  0  0  0  0  0
   26.6897    6.4995   20.1005 C   0  0  0  0  0  0  0  0  0  0  0  0
   27.0580    7.5414   20.6817 O   0  0  0  0  0  0  0  0  0  0  0  0
   27.2440    5.3869   20.2286 O   0  0  0  0  0  0  0  0  0  0  0  0
   26.9158    4.6434   19.7622 H   0  0  0  0  0  0  0  0  0  0  0  0
   23.6666    7.8849   12.8524 C   0  0  0  0  0  0  0  0  0  0  0  0
   23.7890    9.0589   13.2824 O   0  0  0  0  0  0  0  0  0  0  0  0
   24.1960    7.4342   11.8263 O   0  0  0  0  0  0  0  0  0  0  0  0
   23.3521    9.3173   14.0700 H   0  0  0  0  0  0  0  0  0  0  0  0
   22.5773    5.5357   13.0988 C   0  0  0  0  0  0  0  0  0  0  0  0
   21.0561    5.2122   11.0027 C   0  0  0  0  0  0  0  0  0  0  0  0
   22.1209    4.7497   10.2352 C   0  0  0  0  0  0  0  0  0  0  0  0
   21.9404    4.3981    8.9162 C   0  0  0  0  0  0  0  0  0  0  0  0
   20.6911    4.4869    8.3266 C   0  0  0  0  0  0  0  0  0  0  0  0
   19.6086    4.9356    9.0740 C   0  0  0  0  0  0  0  0  0  0  0  0
   19.7950    5.2955   10.4064 C   0  0  0  0  0  0  0  0  0  0  0  0
   18.7043    5.7371   11.1387 C   0  0  0  0  0  0  0  0  0  0  0  0
   18.8891    6.0963   12.4632 C   0  0  0  0  0  0  0  0  0  0  0  0
   20.1384    6.0183   13.0499 C   0  0  0  0  0  0  0  0  0  0  0  0
   21.2372    5.5656   12.3443 C   0  0  0  0  0  0  0  0  0  0  0  0
 22 23  2  0  0  0
 22 27  1  0  0  0
 22 31  1  0  0  0
 23 24  1  0  0  0
 24 25  2  0  0  0
 25 26  1  0  0  0
 26 27  2  0  0  0
 27 28  1  0  0  0
 28 29  2  0  0  0
 29 30  1  0  0  0
 30 31  2  0  0  0
 31 21  1  0  0  0
 21  1  1  0  0  0
  1 17  1  0  0  0
  1  2  1  0  0  0
 17 18  1  0  0  0
 17 19  2  0  0  0
  2  3  1  0  0  0
  2 11  1  0  0  0
  3  4  2  0  0  0
  3  5  1  0  0  0
  5  6  2  0  0  0
  5 10  1  0  0  0
  6  7  1  0  0  0
  7 13  1  0  0  0
  7  8  2  0  0  0
 13 14  2  0  0  0
 13 15  1  0  0  0
  8  9  1  0  0  0
  9 10  2  0  0  0
 10 11  1  0  0  0
 11 12  2  0  0  0
 18 20  1  0  0  0
 15 16  1  0  0  0
M  END
> <minimizedAffinity>
-8.26896

$$$$
2R9W_23C_A_365


 31 34  0  0  0  0  0  0  0  0999 V2000
   23.2966    7.4969   15.0656 C   0  0  0  0  0  0  0  0  0  0  0  0
   24.0684    7.1244   16.2761 N   0  0  0  0  0  0  0  0  0  0  0  0
   24.4638    8.0331   17.1740 C   0  0  0  0  0  0  0  0  0  0  0  0
   24.2779    9.2446   17.0678 O   0  0  0  0  0  0  0  0  0  0  0  0
   25.1329    7.4052   18.2244 C   0  0  0  0  0  0  0  0  0  0  0  0
   25.7467    7.8717   19.3897 C   0  0  0  0  0  0  0  0  0  0  0  0
   26.3541    6.9682   20.2600 C   0  0  0  0  0  0  0  0  0  0  0  0
   26.3435    5.6122   19.9540 C   0  0  0  0  0  0  0  0  0  0  0  0
   25.7306    5.1618   18.7992 C   0  0  0  0  0  0  0  0  0  0  0  0
   25.1198    6.0484   17.9207 C   0  0  0  0  0  0  0  0  0  0  0  0
   24.4405    5.9079   16.7072 C   0  0  0  0  0  0  0  0  0  0  0  0
   24.2279    4.8404   16.1169 O   0  0  0  0  0  0  0  0  0  0  0  0
   27.0541    7.4223   21.5315 C   0  0  0  0  0  0  0  0  0  0  0  0
   28.2053    7.8971   21.4390 O   0  0  0  0  0  0  0  0  0  0  0  0
   26.4523    7.2370   22.6108 O   0  0  0  0  0  0  0  0  0  0  0  0
   25.5876    6.8760   22.6091 H   0  0  0  0  0  0  0  0  0  0  0  0
   24.1100    7.4626   13.7403 C   0  0  0  0  0  0  0  0  0  0  0  0
   25.0123    8.3305   13.6361 O   0  0  0  0  0  0  0  0  0  0  0  0
   23.8493    6.5893   12.9002 O   0  0  0  0  0  0  0  0  0  0  0  0
   25.1419    8.9561   14.3214 H   0  0  0  0  0  0  0  0  0  0  0  0
   21.9571    6.7157   14.9946 C   0  0  0  0  0  0  0  0  0  0  0  0
   20.4561    7.5091   16.9771 C   0  0  0  0  0  0  0  0  0  0  0  0
   21.0600    6.6192   17.8604 C   0  0  0  0  0  0  0  0  0  0  0  0
   20.6559    6.5452   19.1746 C   0  0  0  0  0  0  0  0  0  0  0  0
   19.6455    7.3636   19.6497 C   0  0  0  0  0  0  0  0  0  0  0  0
   19.0331    8.2687   18.7908 C   0  0  0  0  0  0  0  0  0  0  0  0
   19.4401    8.3378   17.4607 C   0  0  0  0  0  0  0  0  0  0  0  0
   18.8219    9.2486   16.6187 C   0  0  0  0  0  0  0  0  0  0  0  0
   19.2252    9.3171   15.2957 C   0  0  0  0  0  0  0  0  0  0  0  0
   20.2268    8.4927   14.8176 C   0  0  0  0  0  0  0  0  0  0  0  0
   20.8687    7.5884   15.6425 C   0  0  0  0  0  0  0  0  0  0  0  0
 22 23  2  0  0  0
 22 27  1  0  0  0
 22 31  1  0  0  0
 23 24  1  0  0  0
 24 25  2  0  0  0
 25 26  1  0  0  0
 26 27  2  0  0  0
 27 28  1  0  0  0
 28 29  2  0  0  0
 29 30  1  0  0  0
 30 31  2  0  0  0
 31 21  1  0  0  0
 21  1  1  0  0  0
  1 17  1  0  0  0
  1  2  1  0  0  0
 17 18  1  0  0  0
 17 19  2  0  0  0
  2  3  1  0  0  0
  2 11  1  0  0  0
  3  4  2  0  0  0
  3  5  1  0  0  0
  5  6  2  0  0  0
  5 10  1  0  0  0
  6  7  1  0  0  0
  7 13  1  0  0  0
  7  8  2  0  0  0
 13 14  2  0  0  0
 13 15  1  0  0  0
  8  9  1  0  0  0
  9 10  2  0  0  0
 10 11  1  0  0  0
 11 12  2  0  0  0
 18 20  1  0  0  0
 15 16  1  0  0  0
M  END
> <minimizedAffinity>
-8.25790

$$$$
2R9W_23C_A_365


 31 34  0  0  0  0  0  0  0  0999 V2000
   21.7993    9.1047   14.3655 C   0  0  0  0  0  0  0  0  0  0  0  0
   22.6031    8.3952   15.3904 N   0  0  0  0  0  0  0  0  0  0  0  0
   22.0392    7.7855   16.4385 C   0  0  0  0  0  0  0  0  0  0  0  0
   20.8334    7.7918   16.6827 O   0  0  0  0  0  0  0  0  0  0  0  0
   23.0200    7.1698   17.2158 C   0  0  0  0  0  0  0  0  0  0  0  0
   22.9841    6.4259   18.3980 C   0  0  0  0  0  0  0  0  0  0  0  0
   24.1706    5.9408   18.9454 C   0  0  0  0  0  0  0  0  0  0  0  0
   25.3766    6.2073   18.3075 C   0  0  0  0  0  0  0  0  0  0  0  0
   25.3996    6.9423   17.1365 C   0  0  0  0  0  0  0  0  0  0  0  0
   24.2263    7.4330   16.5765 C   0  0  0  0  0  0  0  0  0  0  0  0
   23.9294    8.1887   15.4387 C   0  0  0  0  0  0  0  0  0  0  0  0
   24.7528    8.6120   14.6166 O   0  0  0  0  0  0  0  0  0  0  0  0
   24.1923    5.1433   20.2402 C   0  0  0  0  0  0  0  0  0  0  0  0
   23.3737    4.2106   20.3776 O   0  0  0  0  0  0  0  0  0  0  0  0
   24.9975    5.5107   21.1225 O   0  0  0  0  0  0  0  0  0  0  0  0
   25.5864    6.2197   20.9534 H   0  0  0  0  0  0  0  0  0  0  0  0
   21.6606   10.6369   14.5945 C   0  0  0  0  0  0  0  0  0  0  0  0
   21.4873   11.3258   13.5584 O   0  0  0  0  0  0  0  0  0  0  0  0
   21.6984   11.0749   15.7534 O   0  0  0  0  0  0  0  0  0  0  0  0
   21.4722   10.9121   12.7178 H   0  0  0  0  0  0  0  0  0  0  0  0
   22.2631    8.7287   12.9327 C   0  0  0  0  0  0  0  0  0  0  0  0
   21.9116    6.2369   12.2399 C   0  0  0  0  0  0  0  0  0  0  0  0
   23.2486    5.9282   12.4718 C   0  0  0  0  0  0  0  0  0  0  0  0
   23.7278    4.6560   12.2532 C   0  0  0  0  0  0  0  0  0  0  0  0
   22.8860    3.6515   11.8073 C   0  0  0  0  0  0  0  0  0  0  0  0
   21.5438    3.9307   11.5782 C   0  0  0  0  0  0  0  0  0  0  0  0
   21.0629    5.2197   11.7951 C   0  0  0  0  0  0  0  0  0  0  0  0
   19.7212    5.4803   11.5657 C   0  0  0  0  0  0  0  0  0  0  0  0
   19.2426    6.7619   11.7800 C   0  0  0  0  0  0  0  0  0  0  0  0
   20.0847    7.7683   12.2149 C   0  0  0  0  0  0  0  0  0  0  0  0
   21.4225    7.5281   12.4660 C   0  0  0  0  0  0  0  0  0  0  0  0
 22 23  2  0  0  0
 22 27  1  0  0  0
 22 31  1  0  0  0
 23 24  1  0  0  0
 24 25  2  0  0  0
 25 26  1  0  0  0
 26 27  2  0  0  0
 27 28  1  0  0  0
 28 29  2  0  0  0
 29 30  1  0  0  0
 30 31  2  0  0  0
 31 21  1  0  0  0
 21  1  1  0  0  0
  1 17  1  0  0  0
  1  2  1  0  0  0
 17 18  1  0  0  0
 17 19  2  0  0  0
  2  3  1  0  0  0
  2 11  1  0  0  0
  3  4  2  0  0  0
  3  5  1  0  0  0
  5  6  2  0  0  0
  5 10  1  0  0  0
  6  7  1  0  0  0
  7 13  1  0  0  0
  7  8  2  0  0  0
 13 14  2  0  0  0
 13 15  1  0  0  0
  8  9  1  0  0  0
  9 10  2  0  0  0
 10 11  1  0  0  0
 11 12  2  0  0  0
 18 20  1  0  0  0
 15 16  1  0  0  0
M  END
> <minimizedAffinity>
-8.16764

$$$$
