4XYA_43S_A_201
  RCSB PDB12061716183D
Coordinates from PDB:4XYA:A:201 Model:1 without hydrogens
 20 23  0  0  0  0            999 V2000
   -7.1090   15.9250   -0.0290   C 0  0  0  0  0  0  0  0  0  0  0  0
   -8.4760   15.5060    0.2030   C 0  0  0  0  0  0  0  0  0  0  0  0
   -9.1410   15.5770    1.3940   C 0  0  0  0  0  0  0  0  0  0  0  0
  -10.4650   14.4760   -0.7140   C 0  0  0  0  0  0  0  0  0  0  0  0
   -9.5800   15.7690    3.6160   C 0  0  0  0  0  0  0  0  0  0  0  0
  -10.9540   15.4040    2.9680   C 0  0  0  0  0  0  0  0  0  0  0  0
  -10.5150   15.1680    1.5320   C 0  0  0  0  0  0  0  0  0  0  0  0
  -11.1850   14.6120    0.4500   C 0  0  0  0  0  0  0  0  0  0  0  0
   -9.1790   14.9060   -0.8850   C 0  0  0  0  0  0  0  0  0  0  0  0
   -4.3510   16.6740   -0.5120   N 0  0  0  0  0  0  0  0  0  0  0  0
   -4.8350   18.3530    1.1790   N 0  0  0  0  0  0  0  0  0  0  0  0
   -6.5270   16.9620    0.7150   C 0  0  0  0  0  0  0  0  0  0  0  0
   -7.0140   17.8370    1.7220   N 0  0  0  0  0  0  0  0  0  0  0  0
  -11.2860   13.6130   -2.2670  Br 0  0  0  0  0  0  0  0  0  0  0  0
   -8.5790   15.8600    2.5670   O 0  0  0  0  0  0  0  0  0  0  0  0
   -6.4090   15.2580   -0.9870   N 0  0  0  0  0  0  0  0  0  0  0  0
   -5.0540   15.6660   -1.1730   C 0  0  0  0  0  0  0  0  0  0  0  0
   -4.3080   14.9580   -2.1400   N 0  0  0  0  0  0  0  0  0  0  0  0
   -5.1560   17.2870    0.4010   C 0  0  0  0  0  0  0  0  0  0  0  0
   -5.9440   18.6470    1.9550   C 0  0  0  0  0  0  0  0  0  0  0  0
 14  4  1  0  0  0  0
 18 17  1  0  0  0  0
 17 16  2  0  0  0  0
 17 10  1  0  0  0  0
 16  1  1  0  0  0  0
  9  4  2  0  0  0  0
  9  2  1  0  0  0  0
  4  8  1  0  0  0  0
 10 19  2  0  0  0  0
  1  2  1  0  0  0  0
  1 12  2  0  0  0  0
  2  3  2  0  0  0  0
 19 12  1  0  0  0  0
 19 11  1  0  0  0  0
  8  7  2  0  0  0  0
 12 13  1  0  0  0  0
 11 20  1  0  0  0  0
  3  7  1  0  0  0  0
  3 15  1  0  0  0  0
  7  6  1  0  0  0  0
 13 20  2  0  0  0  0
 15  5  1  0  0  0  0
  6  5  2  0  0  0  0
A    1
C4
A    2
C5
A    3
C6
A    4
C11
A    5
C7
A    6
C8
A    7
C9
A    8
C10
A    9
C12
A   10
N1
A   11
N2
A   12
C3
A   13
N3
A   14
BR
A   15
O
A   16
N4
A   17
C
A   18
N
A   19
C1
A   20
C2
M  END
>  <InstanceId>
4XYA_43S_A_201

>  <ChemCompId>
43S

>  <PdbId>
4XYA

>  <ChainId>
A

>  <ResidueNumber>
201

>  <InsertionCode>


>  <Model>
1

>  <AltIds>


>  <MissingHeavyAtoms>
0

>  <ObservedFormula>
C13 N5 O Br

>  <Name>
6-(5-bromo-1-benzofuran-7-yl)-9H-purin-2-amine

>  <SystematicName>
6-(5-bromanyl-1-benzofuran-7-yl)-9H-purin-2-amine

>  <Synonyms>


>  <Type>
NON-POLYMER

>  <Formula>
C13 H8 Br N5 O

>  <MolecularWeight>
330.14

>  <ModifiedDate>
2015-03-06

>  <Parent>


>  <OneLetterCode>


>  <SubcomponentList>


>  <AmbiguousFlag>
N

>  <InChI>
InChI=1S/C13H8BrN5O/c14-7-3-6-1-2-20-11(6)8(4-7)9-10-12(17-5-16-10)19-13(15)18-9/h1-5H,(H3,15,16,17,18,19)

>  <InChIKey>
BEMKXMYIKPJVHA-UHFFFAOYSA-N

>  <SMILES>
c1coc2c1cc(cc2c3c4c([nH]cn4)nc(n3)N)Br

$$$$
