4XYA_43S_A_201


 23 26  0  0  0  0  0  0  0  0999 V2000
   -6.7582   16.0413    0.0398 C   0  0  0  0  0  0  0  0  0  0  0  0
   -3.9510   16.7267   -0.1851 N   0  0  0  0  0  0  0  0  0  0  0  0
   -4.6030   18.5679    1.2633 N   0  0  0  0  0  0  0  0  0  0  0  0
   -6.2509   17.1448    0.7417 C   0  0  0  0  0  0  0  0  0  0  0  0
   -6.8386   18.1178    1.5930 N   0  0  0  0  0  0  0  0  0  0  0  0
   -5.9615   15.2792   -0.7584 N   0  0  0  0  0  0  0  0  0  0  0  0
   -4.5877   15.6609   -0.8221 C   0  0  0  0  0  0  0  0  0  0  0  0
   -3.7449   14.8569   -1.6197 N   0  0  0  0  0  0  0  0  0  0  0  0
   -4.8476   17.4310    0.5616 C   0  0  0  0  0  0  0  0  0  0  0  0
   -5.7905   18.9424    1.8700 C   0  0  0  0  0  0  0  0  0  0  0  0
   -3.7409   19.0387    1.3287 H   0  0  0  0  0  0  0  0  0  0  0  0
   -4.1157   14.0838   -2.1035 H   0  0  0  0  0  0  0  0  0  0  0  0
   -2.7863   15.0693   -1.6921 H   0  0  0  0  0  0  0  0  0  0  0  0
   -8.1495   15.6533    0.1487 C   0  0  0  0  0  0  0  0  0  0  0  0
   -8.8661   15.5699    1.3085 C   0  0  0  0  0  0  0  0  0  0  0  0
  -10.1314   14.8669   -0.9966 C   0  0  0  0  0  0  0  0  0  0  0  0
   -9.4006   15.4372    3.5139 C   0  0  0  0  0  0  0  0  0  0  0  0
  -10.7558   15.2383    2.7623 C   0  0  0  0  0  0  0  0  0  0  0  0
  -10.2596   15.2066    1.3259 C   0  0  0  0  0  0  0  0  0  0  0  0
  -10.8992   14.8543    0.1445 C   0  0  0  0  0  0  0  0  0  0  0  0
   -8.8234   15.2600   -1.0468 C   0  0  0  0  0  0  0  0  0  0  0  0
  -10.9113   14.2909   -2.6968 Br  0  0  0  0  0  0  0  0  0  0  0  0
   -8.3490   15.6436    2.5329 O   0  0  0  0  0  0  0  0  0  0  0  0
 22 16  1  0  0  0
  8  7  1  0  0  0
  7  6  2  0  0  0
  7  2  1  0  0  0
  6  1  1  0  0  0
 21 16  2  0  0  0
 21 14  1  0  0  0
 16 20  1  0  0  0
  2  9  2  0  0  0
  1 14  1  0  0  0
  1  4  2  0  0  0
 14 15  2  0  0  0
  9  4  1  0  0  0
  9  3  1  0  0  0
 20 19  2  0  0  0
  4  5  1  0  0  0
  3 10  1  0  0  0
 15 19  1  0  0  0
 15 23  1  0  0  0
 19 18  1  0  0  0
  5 10  2  0  0  0
 23 17  1  0  0  0
 18 17  2  0  0  0
  3 11  1  0  0  0
  8 12  1  0  0  0
  8 13  1  0  0  0
M  END
> <minimizedAffinity>
-7.92551

$$$$
4XYA_43S_A_201


 23 26  0  0  0  0  0  0  0  0999 V2000
   -7.0936   16.1930    0.1727 C   0  0  0  0  0  0  0  0  0  0  0  0
   -4.4220   17.2892   -0.0755 N   0  0  0  0  0  0  0  0  0  0  0  0
   -4.1194   15.3972   -1.5726 N   0  0  0  0  0  0  0  0  0  0  0  0
   -6.1688   15.5884   -0.6915 C   0  0  0  0  0  0  0  0  0  0  0  0
   -6.2171   14.4447   -1.5320 N   0  0  0  0  0  0  0  0  0  0  0  0
   -6.7655   17.2881    0.9115 N   0  0  0  0  0  0  0  0  0  0  0  0
   -5.4391   17.7865    0.7403 C   0  0  0  0  0  0  0  0  0  0  0  0
   -5.0987   18.9425    1.4755 N   0  0  0  0  0  0  0  0  0  0  0  0
   -4.8544   16.1830   -0.7438 C   0  0  0  0  0  0  0  0  0  0  0  0
   -4.9510   14.3889   -2.0312 C   0  0  0  0  0  0  0  0  0  0  0  0
   -3.1707   15.5213   -1.8046 H   0  0  0  0  0  0  0  0  0  0  0  0
   -5.7602   19.3569    2.0755 H   0  0  0  0  0  0  0  0  0  0  0  0
   -4.1997   19.3343    1.3884 H   0  0  0  0  0  0  0  0  0  0  0  0
   -8.4453   15.6888    0.3026 C   0  0  0  0  0  0  0  0  0  0  0  0
   -9.1384   15.5561    1.4721 C   0  0  0  0  0  0  0  0  0  0  0  0
  -10.3661   14.7248   -0.8105 C   0  0  0  0  0  0  0  0  0  0  0  0
   -9.6334   15.4002    3.6851 C   0  0  0  0  0  0  0  0  0  0  0  0
  -10.9755   15.0789    2.9526 C   0  0  0  0  0  0  0  0  0  0  0  0
  -10.4955   15.0754    1.5103 C   0  0  0  0  0  0  0  0  0  0  0  0
  -11.1165   14.6581    0.3403 C   0  0  0  0  0  0  0  0  0  0  0  0
   -9.0972   15.2276   -0.8807 C   0  0  0  0  0  0  0  0  0  0  0  0
  -11.1141   14.0675   -2.4955 Br  0  0  0  0  0  0  0  0  0  0  0  0
   -8.6150   15.6858    2.6891 O   0  0  0  0  0  0  0  0  0  0  0  0
 22 16  1  0  0  0
  8  7  1  0  0  0
  7  6  2  0  0  0
  7  2  1  0  0  0
  6  1  1  0  0  0
 21 16  2  0  0  0
 21 14  1  0  0  0
 16 20  1  0  0  0
  2  9  2  0  0  0
  1 14  1  0  0  0
  1  4  2  0  0  0
 14 15  2  0  0  0
  9  4  1  0  0  0
  9  3  1  0  0  0
 20 19  2  0  0  0
  4  5  1  0  0  0
  3 10  1  0  0  0
 15 19  1  0  0  0
 15 23  1  0  0  0
 19 18  1  0  0  0
  5 10  2  0  0  0
 23 17  1  0  0  0
 18 17  2  0  0  0
  3 11  1  0  0  0
  8 12  1  0  0  0
  8 13  1  0  0  0
M  END
> <minimizedAffinity>
-7.82274

$$$$
4XYA_43S_A_201


 23 26  0  0  0  0  0  0  0  0999 V2000
   -6.7919   15.9668   -0.1276 C   0  0  0  0  0  0  0  0  0  0  0  0
   -3.9842   16.6718   -0.2731 N   0  0  0  0  0  0  0  0  0  0  0  0
   -4.6820   18.4845    1.1897 N   0  0  0  0  0  0  0  0  0  0  0  0
   -6.3083   17.0611    0.6047 C   0  0  0  0  0  0  0  0  0  0  0  0
   -6.9221   18.0164    1.4577 N   0  0  0  0  0  0  0  0  0  0  0  0
   -5.9716   15.2228   -0.9189 N   0  0  0  0  0  0  0  0  0  0  0  0
   -4.5990   15.6132   -0.9431 C   0  0  0  0  0  0  0  0  0  0  0  0
   -3.7324   14.8276   -1.7334 N   0  0  0  0  0  0  0  0  0  0  0  0
   -4.9028   17.3583    0.4633 C   0  0  0  0  0  0  0  0  0  0  0  0
   -5.8860   18.8421    1.7737 C   0  0  0  0  0  0  0  0  0  0  0  0
   -3.8246   18.9591    1.2837 H   0  0  0  0  0  0  0  0  0  0  0  0
   -4.0868   14.0607   -2.2389 H   0  0  0  0  0  0  0  0  0  0  0  0
   -2.7736   15.0465   -1.7791 H   0  0  0  0  0  0  0  0  0  0  0  0
   -8.1830   15.5692   -0.0588 C   0  0  0  0  0  0  0  0  0  0  0  0
   -8.9611   15.2017   -1.1196 C   0  0  0  0  0  0  0  0  0  0  0  0
  -10.1425   15.2768    1.3314 C   0  0  0  0  0  0  0  0  0  0  0  0
   -9.7268   14.9109   -3.2400 C   0  0  0  0  0  0  0  0  0  0  0  0
  -10.8934   14.4202   -2.3237 C   0  0  0  0  0  0  0  0  0  0  0  0
  -10.3311   14.7872   -0.9600 C   0  0  0  0  0  0  0  0  0  0  0  0
  -10.9248   14.8234    0.2949 C   0  0  0  0  0  0  0  0  0  0  0  0
   -8.8256   15.6234    1.2148 C   0  0  0  0  0  0  0  0  0  0  0  0
  -10.9144   15.4607    3.1205 Br  0  0  0  0  0  0  0  0  0  0  0  0
   -8.6211   15.3371   -2.3995 O   0  0  0  0  0  0  0  0  0  0  0  0
 22 16  1  0  0  0
  8  7  1  0  0  0
  7  6  2  0  0  0
  7  2  1  0  0  0
  6  1  1  0  0  0
 21 16  2  0  0  0
 21 14  1  0  0  0
 16 20  1  0  0  0
  2  9  2  0  0  0
  1 14  1  0  0  0
  1  4  2  0  0  0
 14 15  2  0  0  0
  9  4  1  0  0  0
  9  3  1  0  0  0
 20 19  2  0  0  0
  4  5  1  0  0  0
  3 10  1  0  0  0
 15 19  1  0  0  0
 15 23  1  0  0  0
 19 18  1  0  0  0
  5 10  2  0  0  0
 23 17  1  0  0  0
 18 17  2  0  0  0
  3 11  1  0  0  0
  8 12  1  0  0  0
  8 13  1  0  0  0
M  END
> <minimizedAffinity>
-7.58544

$$$$
4XYA_43S_A_201


 23 26  0  0  0  0  0  0  0  0999 V2000
   -8.1711   15.6888    1.2369 C   0  0  0  0  0  0  0  0  0  0  0  0
  -10.7335   15.0809    2.4474 N   0  0  0  0  0  0  0  0  0  0  0  0
  -11.3992   14.7479    0.1324 N   0  0  0  0  0  0  0  0  0  0  0  0
   -9.2488   15.2965    0.4293 C   0  0  0  0  0  0  0  0  0  0  0  0
   -9.4150   15.1377   -0.9722 N   0  0  0  0  0  0  0  0  0  0  0  0
   -8.2985   15.8000    2.5874 N   0  0  0  0  0  0  0  0  0  0  0  0
   -9.5810   15.4796    3.1256 C   0  0  0  0  0  0  0  0  0  0  0  0
   -9.7150   15.5580    4.5287 N   0  0  0  0  0  0  0  0  0  0  0  0
  -10.4956   15.0302    1.1064 C   0  0  0  0  0  0  0  0  0  0  0  0
  -10.7318   14.8067   -1.0799 C   0  0  0  0  0  0  0  0  0  0  0  0
  -12.3524   14.5400    0.2639 H   0  0  0  0  0  0  0  0  0  0  0  0
   -8.9481   15.8319    5.0819 H   0  0  0  0  0  0  0  0  0  0  0  0
  -10.5754   15.3389    4.9540 H   0  0  0  0  0  0  0  0  0  0  0  0
   -6.8692   15.9749    0.6700 C   0  0  0  0  0  0  0  0  0  0  0  0
   -6.0573   17.0157    1.0212 C   0  0  0  0  0  0  0  0  0  0  0  0
   -5.1987   15.3788   -0.9768 C   0  0  0  0  0  0  0  0  0  0  0  0
   -5.3184   18.9839    1.8855 C   0  0  0  0  0  0  0  0  0  0  0  0
   -4.1115   18.4322    1.0609 C   0  0  0  0  0  0  0  0  0  0  0  0
   -4.7588   17.2104    0.4295 C   0  0  0  0  0  0  0  0  0  0  0  0
   -4.3260   16.3675   -0.5859 C   0  0  0  0  0  0  0  0  0  0  0  0
   -6.4118   15.1405   -0.3942 C   0  0  0  0  0  0  0  0  0  0  0  0
   -4.7255   14.2011   -2.4667 Br  0  0  0  0  0  0  0  0  0  0  0  0
   -6.4160   18.0362    1.7969 O   0  0  0  0  0  0  0  0  0  0  0  0
 22 16  1  0  0  0
  8  7  1  0  0  0
  7  6  2  0  0  0
  7  2  1  0  0  0
  6  1  1  0  0  0
 21 16  2  0  0  0
 21 14  1  0  0  0
 16 20  1  0  0  0
  2  9  2  0  0  0
  1 14  1  0  0  0
  1  4  2  0  0  0
 14 15  2  0  0  0
  9  4  1  0  0  0
  9  3  1  0  0  0
 20 19  2  0  0  0
  4  5  1  0  0  0
  3 10  1  0  0  0
 15 19  1  0  0  0
 15 23  1  0  0  0
 19 18  1  0  0  0
  5 10  2  0  0  0
 23 17  1  0  0  0
 18 17  2  0  0  0
  3 11  1  0  0  0
  8 12  1  0  0  0
  8 13  1  0  0  0
M  END
> <minimizedAffinity>
-7.39877

$$$$
4XYA_43S_A_201


 23 26  0  0  0  0  0  0  0  0999 V2000
   -6.9484   16.3550    0.2022 C   0  0  0  0  0  0  0  0  0  0  0  0
   -4.2794   17.4677    0.4008 N   0  0  0  0  0  0  0  0  0  0  0  0
   -3.7248   15.5917   -1.0433 N   0  0  0  0  0  0  0  0  0  0  0  0
   -5.8914   15.7636   -0.5053 C   0  0  0  0  0  0  0  0  0  0  0  0
   -5.7947   14.6277   -1.3522 N   0  0  0  0  0  0  0  0  0  0  0  0
   -6.7520   17.4448    0.9938 N   0  0  0  0  0  0  0  0  0  0  0  0
   -5.4189   17.9518    1.0446 C   0  0  0  0  0  0  0  0  0  0  0  0
   -5.2102   19.1026    1.8353 N   0  0  0  0  0  0  0  0  0  0  0  0
   -4.5900   16.3656   -0.3383 C   0  0  0  0  0  0  0  0  0  0  0  0
   -4.4640   14.5834   -1.6395 C   0  0  0  0  0  0  0  0  0  0  0  0
   -2.7519   15.7230   -1.1170 H   0  0  0  0  0  0  0  0  0  0  0  0
   -5.9632   19.5077    2.3232 H   0  0  0  0  0  0  0  0  0  0  0  0
   -4.3117   19.5000    1.8987 H   0  0  0  0  0  0  0  0  0  0  0  0
   -8.2997   15.8425    0.1064 C   0  0  0  0  0  0  0  0  0  0  0  0
   -8.9572   15.5377   -1.0514 C   0  0  0  0  0  0  0  0  0  0  0  0
  -10.3276   15.2377    1.2812 C   0  0  0  0  0  0  0  0  0  0  0  0
   -9.5270   15.4310   -3.2493 C   0  0  0  0  0  0  0  0  0  0  0  0
  -10.7129   14.7473   -2.4962 C   0  0  0  0  0  0  0  0  0  0  0  0
  -10.2932   14.9997   -1.0572 C   0  0  0  0  0  0  0  0  0  0  0  0
  -10.9835   14.8448    0.1379 C   0  0  0  0  0  0  0  0  0  0  0  0
   -9.0417   15.6994    1.3176 C   0  0  0  0  0  0  0  0  0  0  0  0
  -11.2494   15.1538    3.0057 Br  0  0  0  0  0  0  0  0  0  0  0  0
   -8.5323   15.8451   -2.2748 O   0  0  0  0  0  0  0  0  0  0  0  0
 22 16  1  0  0  0
  8  7  1  0  0  0
  7  6  2  0  0  0
  7  2  1  0  0  0
  6  1  1  0  0  0
 21 16  2  0  0  0
 21 14  1  0  0  0
 16 20  1  0  0  0
  2  9  2  0  0  0
  1 14  1  0  0  0
  1  4  2  0  0  0
 14 15  2  0  0  0
  9  4  1  0  0  0
  9  3  1  0  0  0
 20 19  2  0  0  0
  4  5  1  0  0  0
  3 10  1  0  0  0
 15 19  1  0  0  0
 15 23  1  0  0  0
 19 18  1  0  0  0
  5 10  2  0  0  0
 23 17  1  0  0  0
 18 17  2  0  0  0
  3 11  1  0  0  0
  8 12  1  0  0  0
  8 13  1  0  0  0
M  END
> <minimizedAffinity>
-7.39052

$$$$
4XYA_43S_A_201


 23 26  0  0  0  0  0  0  0  0999 V2000
   -6.0997   15.4397   -2.3478 C   0  0  0  0  0  0  0  0  0  0  0  0
   -5.0822   14.4519   -4.8756 N   0  0  0  0  0  0  0  0  0  0  0  0
   -7.1935   15.3215   -5.7116 N   0  0  0  0  0  0  0  0  0  0  0  0
   -6.8441   15.6291   -3.5215 C   0  0  0  0  0  0  0  0  0  0  0  0
   -8.1079   16.2163   -3.7952 N   0  0  0  0  0  0  0  0  0  0  0  0
   -4.9029   14.7916   -2.3619 N   0  0  0  0  0  0  0  0  0  0  0  0
   -4.4507   14.3359   -3.6367 C   0  0  0  0  0  0  0  0  0  0  0  0
   -3.1944   13.6928   -3.6686 N   0  0  0  0  0  0  0  0  0  0  0  0
   -6.2777   15.0910   -4.7354 C   0  0  0  0  0  0  0  0  0  0  0  0
   -8.2549   15.9962   -5.1313 C   0  0  0  0  0  0  0  0  0  0  0  0
   -7.1170   15.0578   -6.6570 H   0  0  0  0  0  0  0  0  0  0  0  0
   -2.6827   13.5705   -2.8364 H   0  0  0  0  0  0  0  0  0  0  0  0
   -2.8299   13.3666   -4.5230 H   0  0  0  0  0  0  0  0  0  0  0  0
   -6.5641   15.9426   -1.0712 C   0  0  0  0  0  0  0  0  0  0  0  0
   -5.8619   16.7613   -0.2331 C   0  0  0  0  0  0  0  0  0  0  0  0
   -8.3166   15.9290    0.5979 C   0  0  0  0  0  0  0  0  0  0  0  0
   -4.1563   17.8969    0.7509 C   0  0  0  0  0  0  0  0  0  0  0  0
   -5.3895   18.1485    1.6766 C   0  0  0  0  0  0  0  0  0  0  0  0
   -6.4116   17.2440    1.0075 C   0  0  0  0  0  0  0  0  0  0  0  0
   -7.6671   16.8186    1.4217 C   0  0  0  0  0  0  0  0  0  0  0  0
   -7.8398   15.4994   -0.6087 C   0  0  0  0  0  0  0  0  0  0  0  0
  -10.0470   15.1918    1.1391 Br  0  0  0  0  0  0  0  0  0  0  0  0
   -4.5732   17.0669   -0.3662 O   0  0  0  0  0  0  0  0  0  0  0  0
 22 16  1  0  0  0
  8  7  1  0  0  0
  7  6  2  0  0  0
  7  2  1  0  0  0
  6  1  1  0  0  0
 21 16  2  0  0  0
 21 14  1  0  0  0
 16 20  1  0  0  0
  2  9  2  0  0  0
  1 14  1  0  0  0
  1  4  2  0  0  0
 14 15  2  0  0  0
  9  4  1  0  0  0
  9  3  1  0  0  0
 20 19  2  0  0  0
  4  5  1  0  0  0
  3 10  1  0  0  0
 15 19  1  0  0  0
 15 23  1  0  0  0
 19 18  1  0  0  0
  5 10  2  0  0  0
 23 17  1  0  0  0
 18 17  2  0  0  0
  3 11  1  0  0  0
  8 12  1  0  0  0
  8 13  1  0  0  0
M  END
> <minimizedAffinity>
-7.12910

$$$$
4XYA_43S_A_201


 23 26  0  0  0  0  0  0  0  0999 V2000
   -6.0352   17.6367    1.3874 C   0  0  0  0  0  0  0  0  0  0  0  0
   -4.8551   19.4171    3.3466 N   0  0  0  0  0  0  0  0  0  0  0  0
   -2.8056   18.8587    2.1632 N   0  0  0  0  0  0  0  0  0  0  0  0
   -4.6614   17.9159    1.3386 C   0  0  0  0  0  0  0  0  0  0  0  0
   -3.6019   17.4744    0.5023 N   0  0  0  0  0  0  0  0  0  0  0  0
   -6.8371   18.1790    2.3442 N   0  0  0  0  0  0  0  0  0  0  0  0
   -6.2005   19.0537    3.2751 C   0  0  0  0  0  0  0  0  0  0  0  0
   -7.0289   19.6491    4.2509 N   0  0  0  0  0  0  0  0  0  0  0  0
   -4.1479   18.7963    2.3608 C   0  0  0  0  0  0  0  0  0  0  0  0
   -2.5145   18.0806    1.0549 C   0  0  0  0  0  0  0  0  0  0  0  0
   -2.1589   19.3637    2.7073 H   0  0  0  0  0  0  0  0  0  0  0  0
   -7.9919   19.4454    4.2699 H   0  0  0  0  0  0  0  0  0  0  0  0
   -6.6436   20.2681    4.9125 H   0  0  0  0  0  0  0  0  0  0  0  0
   -6.6642   16.7728    0.4096 C   0  0  0  0  0  0  0  0  0  0  0  0
   -7.8970   16.1970    0.5295 C   0  0  0  0  0  0  0  0  0  0  0  0
   -6.4533   15.6085   -1.7018 C   0  0  0  0  0  0  0  0  0  0  0  0
   -9.8406   15.4153    1.4116 C   0  0  0  0  0  0  0  0  0  0  0  0
   -9.8481   14.9212   -0.0706 C   0  0  0  0  0  0  0  0  0  0  0  0
   -8.4646   15.3745   -0.5076 C   0  0  0  0  0  0  0  0  0  0  0  0
   -7.7233   15.0833   -1.6454 C   0  0  0  0  0  0  0  0  0  0  0  0
   -5.9135   16.4353   -0.7568 C   0  0  0  0  0  0  0  0  0  0  0  0
   -5.2912   15.1756   -3.2159 Br  0  0  0  0  0  0  0  0  0  0  0  0
   -8.6282   16.1820    1.6416 O   0  0  0  0  0  0  0  0  0  0  0  0
 22 16  1  0  0  0
  8  7  1  0  0  0
  7  6  2  0  0  0
  7  2  1  0  0  0
  6  1  1  0  0  0
 21 16  2  0  0  0
 21 14  1  0  0  0
 16 20  1  0  0  0
  2  9  2  0  0  0
  1 14  1  0  0  0
  1  4  2  0  0  0
 14 15  2  0  0  0
  9  4  1  0  0  0
  9  3  1  0  0  0
 20 19  2  0  0  0
  4  5  1  0  0  0
  3 10  1  0  0  0
 15 19  1  0  0  0
 15 23  1  0  0  0
 19 18  1  0  0  0
  5 10  2  0  0  0
 23 17  1  0  0  0
 18 17  2  0  0  0
  3 11  1  0  0  0
  8 12  1  0  0  0
  8 13  1  0  0  0
M  END
> <minimizedAffinity>
-7.10026

$$$$
4XYA_43S_A_201


 23 26  0  0  0  0  0  0  0  0999 V2000
   -9.8350   15.1681    0.8866 C   0  0  0  0  0  0  0  0  0  0  0  0
  -11.3933   14.7179    3.2887 N   0  0  0  0  0  0  0  0  0  0  0  0
  -12.9237   13.6571    1.7250 N   0  0  0  0  0  0  0  0  0  0  0  0
  -11.0433   14.4595    0.8120 C   0  0  0  0  0  0  0  0  0  0  0  0
  -11.7734   13.8793   -0.2591 N   0  0  0  0  0  0  0  0  0  0  0  0
   -9.3723   15.6618    2.0676 N   0  0  0  0  0  0  0  0  0  0  0  0
  -10.1786   15.4010    3.2161 C   0  0  0  0  0  0  0  0  0  0  0  0
   -9.6912   15.8785    4.4520 N   0  0  0  0  0  0  0  0  0  0  0  0
  -11.7690   14.2946    2.0490 C   0  0  0  0  0  0  0  0  0  0  0  0
  -12.8931   13.4144    0.3617 C   0  0  0  0  0  0  0  0  0  0  0  0
  -13.6485   13.4126    2.3447 H   0  0  0  0  0  0  0  0  0  0  0  0
   -8.8397   16.3713    4.4880 H   0  0  0  0  0  0  0  0  0  0  0  0
  -10.2028   15.7186    5.2778 H   0  0  0  0  0  0  0  0  0  0  0  0
   -9.0171   15.3894   -0.2881 C   0  0  0  0  0  0  0  0  0  0  0  0
   -7.6516   15.4020   -0.3187 C   0  0  0  0  0  0  0  0  0  0  0  0
   -8.9596   15.9200   -2.6489 C   0  0  0  0  0  0  0  0  0  0  0  0
   -5.4761   15.4987    0.3330 C   0  0  0  0  0  0  0  0  0  0  0  0
   -5.4263   15.5256   -1.2283 C   0  0  0  0  0  0  0  0  0  0  0  0
   -6.9125   15.5974   -1.5393 C   0  0  0  0  0  0  0  0  0  0  0  0
   -7.5877   15.8560   -2.7250 C   0  0  0  0  0  0  0  0  0  0  0  0
   -9.6851   15.6844   -1.5148 C   0  0  0  0  0  0  0  0  0  0  0  0
   -9.9990   16.3773   -4.2429 Br  0  0  0  0  0  0  0  0  0  0  0  0
   -6.8635   15.4061    0.7540 O   0  0  0  0  0  0  0  0  0  0  0  0
 22 16  1  0  0  0
  8  7  1  0  0  0
  7  6  2  0  0  0
  7  2  1  0  0  0
  6  1  1  0  0  0
 21 16  2  0  0  0
 21 14  1  0  0  0
 16 20  1  0  0  0
  2  9  2  0  0  0
  1 14  1  0  0  0
  1  4  2  0  0  0
 14 15  2  0  0  0
  9  4  1  0  0  0
  9  3  1  0  0  0
 20 19  2  0  0  0
  4  5  1  0  0  0
  3 10  1  0  0  0
 15 19  1  0  0  0
 15 23  1  0  0  0
 19 18  1  0  0  0
  5 10  2  0  0  0
 23 17  1  0  0  0
 18 17  2  0  0  0
  3 11  1  0  0  0
  8 12  1  0  0  0
  8 13  1  0  0  0
M  END
> <minimizedAffinity>
-7.07427

$$$$
4XYA_43S_A_201


 23 26  0  0  0  0  0  0  0  0999 V2000
   -8.4757   15.6653    1.3040 C   0  0  0  0  0  0  0  0  0  0  0  0
  -10.9356   14.7747    2.5516 N   0  0  0  0  0  0  0  0  0  0  0  0
  -11.6567   14.5343    0.2418 N   0  0  0  0  0  0  0  0  0  0  0  0
   -9.5475   15.2375    0.5065 C   0  0  0  0  0  0  0  0  0  0  0  0
   -9.7515   15.1539   -0.8964 N   0  0  0  0  0  0  0  0  0  0  0  0
   -8.5623   15.6807    2.6623 N   0  0  0  0  0  0  0  0  0  0  0  0
   -9.7946   15.2231    3.2181 C   0  0  0  0  0  0  0  0  0  0  0  0
   -9.8832   15.2021    4.6269 N   0  0  0  0  0  0  0  0  0  0  0  0
  -10.7435   14.8280    1.2034 C   0  0  0  0  0  0  0  0  0  0  0  0
  -11.0408   14.7236   -0.9843 C   0  0  0  0  0  0  0  0  0  0  0  0
  -12.5849   14.2411    0.3891 H   0  0  0  0  0  0  0  0  0  0  0  0
   -9.1209   15.5026    5.1726 H   0  0  0  0  0  0  0  0  0  0  0  0
  -10.7073   14.8869    5.0636 H   0  0  0  0  0  0  0  0  0  0  0  0
   -7.2224   16.0921    0.7166 C   0  0  0  0  0  0  0  0  0  0  0  0
   -6.5708   15.4719   -0.3112 C   0  0  0  0  0  0  0  0  0  0  0  0
   -5.3752   17.6543    0.7918 C   0  0  0  0  0  0  0  0  0  0  0  0
   -5.9262   13.9108   -1.8325 C   0  0  0  0  0  0  0  0  0  0  0  0
   -4.9024   15.0789   -2.0013 C   0  0  0  0  0  0  0  0  0  0  0  0
   -5.3409   15.9821   -0.8601 C   0  0  0  0  0  0  0  0  0  0  0  0
   -4.7401   17.0993   -0.2947 C   0  0  0  0  0  0  0  0  0  0  0  0
   -6.5696   17.2217    1.2961 C   0  0  0  0  0  0  0  0  0  0  0  0
   -4.5589   19.1702    1.7224 Br  0  0  0  0  0  0  0  0  0  0  0  0
   -6.8840   14.2751   -0.8027 O   0  0  0  0  0  0  0  0  0  0  0  0
 22 16  1  0  0  0
  8  7  1  0  0  0
  7  6  2  0  0  0
  7  2  1  0  0  0
  6  1  1  0  0  0
 21 16  2  0  0  0
 21 14  1  0  0  0
 16 20  1  0  0  0
  2  9  2  0  0  0
  1 14  1  0  0  0
  1  4  2  0  0  0
 14 15  2  0  0  0
  9  4  1  0  0  0
  9  3  1  0  0  0
 20 19  2  0  0  0
  4  5  1  0  0  0
  3 10  1  0  0  0
 15 19  1  0  0  0
 15 23  1  0  0  0
 19 18  1  0  0  0
  5 10  2  0  0  0
 23 17  1  0  0  0
 18 17  2  0  0  0
  3 11  1  0  0  0
  8 12  1  0  0  0
  8 13  1  0  0  0
M  END
> <minimizedAffinity>
-7.00653

$$$$
4XYA_43S_A_201


 23 26  0  0  0  0  0  0  0  0999 V2000
   -5.9546   15.3152   -2.4886 C   0  0  0  0  0  0  0  0  0  0  0  0
   -4.9476   14.3038   -5.0112 N   0  0  0  0  0  0  0  0  0  0  0  0
   -6.9971   15.2905   -5.8706 N   0  0  0  0  0  0  0  0  0  0  0  0
   -6.6686   15.5557   -3.6718 C   0  0  0  0  0  0  0  0  0  0  0  0
   -7.8958   16.2104   -3.9587 N   0  0  0  0  0  0  0  0  0  0  0  0
   -4.7927   14.6062   -2.4911 N   0  0  0  0  0  0  0  0  0  0  0  0
   -4.3435   14.1417   -3.7638 C   0  0  0  0  0  0  0  0  0  0  0  0
   -3.1217   13.4349   -3.7831 N   0  0  0  0  0  0  0  0  0  0  0  0
   -6.1107   15.0023   -4.8827 C   0  0  0  0  0  0  0  0  0  0  0  0
   -8.0318   16.0129   -5.2995 C   0  0  0  0  0  0  0  0  0  0  0  0
   -6.9186   15.0335   -6.8177 H   0  0  0  0  0  0  0  0  0  0  0  0
   -2.6309   13.2771   -2.9444 H   0  0  0  0  0  0  0  0  0  0  0  0
   -2.7604   13.0996   -4.6353 H   0  0  0  0  0  0  0  0  0  0  0  0
   -6.4135   15.8275   -1.2138 C   0  0  0  0  0  0  0  0  0  0  0  0
   -7.6074   15.5333   -0.6188 C   0  0  0  0  0  0  0  0  0  0  0  0
   -5.9768   17.3013    0.6557 C   0  0  0  0  0  0  0  0  0  0  0  0
   -9.7431   14.8271   -0.2918 C   0  0  0  0  0  0  0  0  0  0  0  0
   -9.3411   15.5172    1.0510 C   0  0  0  0  0  0  0  0  0  0  0  0
   -7.9739   16.0613    0.6700 C   0  0  0  0  0  0  0  0  0  0  0  0
   -7.1338   16.9589    1.3161 C   0  0  0  0  0  0  0  0  0  0  0  0
   -5.5817   16.7728   -0.5412 C   0  0  0  0  0  0  0  0  0  0  0  0
   -4.7737   18.6341    1.4347 Br  0  0  0  0  0  0  0  0  0  0  0  0
   -8.6135   14.8871   -1.2035 O   0  0  0  0  0  0  0  0  0  0  0  0
 22 16  1  0  0  0
  8  7  1  0  0  0
  7  6  2  0  0  0
  7  2  1  0  0  0
  6  1  1  0  0  0
 21 16  2  0  0  0
 21 14  1  0  0  0
 16 20  1  0  0  0
  2  9  2  0  0  0
  1 14  1  0  0  0
  1  4  2  0  0  0
 14 15  2  0  0  0
  9  4  1  0  0  0
  9  3  1  0  0  0
 20 19  2  0  0  0
  4  5  1  0  0  0
  3 10  1  0  0  0
 15 19  1  0  0  0
 15 23  1  0  0  0
 19 18  1  0  0  0
  5 10  2  0  0  0
 23 17  1  0  0  0
 18 17  2  0  0  0
  3 11  1  0  0  0
  8 12  1  0  0  0
  8 13  1  0  0  0
M  END
> <minimizedAffinity>
-6.96139

$$$$
