5U49_S2L_A_200


 21 22  0  0  0  0  0  0  0  0999 V2000
   44.1703   74.9918   42.5279 C   0  0  0  0  0  0  0  0  0  0  0  0
   45.0808   75.9289   42.8370 C   0  0  0  0  0  0  0  0  0  0  0  0
   44.6223   70.7160   42.5662 C   0  0  0  0  0  0  0  0  0  0  0  0
   44.9612   71.3753   43.7388 C   0  0  0  0  0  0  0  0  0  0  0  0
   44.8257   72.7566   43.7493 C   0  0  0  0  0  0  0  0  0  0  0  0
   44.3650   73.4915   42.6607 C   0  0  0  0  0  0  0  0  0  0  0  0
   44.0457   72.7584   41.5228 C   0  0  0  0  0  0  0  0  0  0  0  0
   44.1595   71.3798   41.4373 C   0  0  0  0  0  0  0  0  0  0  0  0
   43.8129   70.6993   40.2547 O   0  0  0  0  0  0  0  0  0  0  0  0
   45.4334   70.7123   44.8850 O   0  0  0  0  0  0  0  0  0  0  0  0
   43.8944   69.7670   40.2096 H   0  0  0  0  0  0  0  0  0  0  0  0
   45.6494   71.2023   45.6540 H   0  0  0  0  0  0  0  0  0  0  0  0
   44.9123   77.4336   42.7000 C   0  0  0  0  0  0  0  0  0  0  0  0
   43.9454   77.8232   41.7851 C   0  0  0  0  0  0  0  0  0  0  0  0
   43.6184   79.1335   41.4817 C   0  0  0  0  0  0  0  0  0  0  0  0
   44.2592   80.1889   42.1046 C   0  0  0  0  0  0  0  0  0  0  0  0
   45.2220   79.8351   43.0200 C   0  0  0  0  0  0  0  0  0  0  0  0
   45.5348   78.5220   43.2996 C   0  0  0  0  0  0  0  0  0  0  0  0
   46.8417   78.2657   44.5158 Cl  0  0  0  0  0  0  0  0  0  0  0  0
   43.9409   81.5090   41.8178 O   0  0  0  0  0  0  0  0  0  0  0  0
   43.2770   81.7042   41.1860 H   0  0  0  0  0  0  0  0  0  0  0  0
 15 14  2  0  0  0
 15 16  1  0  0  0
 10  4  1  0  0  0
 14 13  1  0  0  0
  4  5  2  0  0  0
  4  3  1  0  0  0
  5  6  1  0  0  0
 20 16  1  0  0  0
 16 17  2  0  0  0
  2 13  1  0  0  0
  2  1  2  0  0  0
 13 18  2  0  0  0
  3  8  2  0  0  0
  6  1  1  0  0  0
  6  7  2  0  0  0
 17 18  1  0  0  0
  7  8  1  0  0  0
  8  9  1  0  0  0
 18 19  1  0  0  0
  9 11  1  0  0  0
 20 21  1  0  0  0
 10 12  1  0  0  0
M  END
> <minimizedAffinity>
-8.22222

$$$$
5U49_S2L_A_200


 21 22  0  0  0  0  0  0  0  0999 V2000
   45.0076   75.0207   42.3628 C   0  0  0  0  0  0  0  0  0  0  0  0
   44.1233   75.9620   41.9963 C   0  0  0  0  0  0  0  0  0  0  0  0
   44.5449   70.7460   42.3311 C   0  0  0  0  0  0  0  0  0  0  0  0
   44.1954   71.4056   41.1619 C   0  0  0  0  0  0  0  0  0  0  0  0
   44.3341   72.7865   41.1493 C   0  0  0  0  0  0  0  0  0  0  0  0
   44.8079   73.5208   42.2328 C   0  0  0  0  0  0  0  0  0  0  0  0
   45.1373   72.7874   43.3676 C   0  0  0  0  0  0  0  0  0  0  0  0
   45.0210   71.4091   43.4548 C   0  0  0  0  0  0  0  0  0  0  0  0
   45.3783   70.7283   44.6341 O   0  0  0  0  0  0  0  0  0  0  0  0
   43.7096   70.7433   40.0209 O   0  0  0  0  0  0  0  0  0  0  0  0
   45.2950   69.7962   44.6805 H   0  0  0  0  0  0  0  0  0  0  0  0
   43.4868   71.2335   39.2540 H   0  0  0  0  0  0  0  0  0  0  0  0
   44.2966   77.4666   42.1291 C   0  0  0  0  0  0  0  0  0  0  0  0
   45.2439   77.8561   43.0644 C   0  0  0  0  0  0  0  0  0  0  0  0
   45.5708   79.1663   43.3684 C   0  0  0  0  0  0  0  0  0  0  0  0
   44.9505   80.2216   42.7249 C   0  0  0  0  0  0  0  0  0  0  0  0
   44.0076   79.8678   41.7890 C   0  0  0  0  0  0  0  0  0  0  0  0
   43.6943   78.5550   41.5092 C   0  0  0  0  0  0  0  0  0  0  0  0
   42.4151   78.2989   40.2640 Cl  0  0  0  0  0  0  0  0  0  0  0  0
   45.2692   81.5416   43.0120 O   0  0  0  0  0  0  0  0  0  0  0  0
   45.9190   81.7368   43.6581 H   0  0  0  0  0  0  0  0  0  0  0  0
 15 14  2  0  0  0
 15 16  1  0  0  0
 10  4  1  0  0  0
 14 13  1  0  0  0
  4  5  2  0  0  0
  4  3  1  0  0  0
  5  6  1  0  0  0
 20 16  1  0  0  0
 16 17  2  0  0  0
  2 13  1  0  0  0
  2  1  2  0  0  0
 13 18  2  0  0  0
  3  8  2  0  0  0
  6  1  1  0  0  0
  6  7  2  0  0  0
 17 18  1  0  0  0
  7  8  1  0  0  0
  8  9  1  0  0  0
 18 19  1  0  0  0
  9 11  1  0  0  0
 20 21  1  0  0  0
 10 12  1  0  0  0
M  END
> <minimizedAffinity>
-8.19750

$$$$
5U49_S2L_A_200


 21 22  0  0  0  0  0  0  0  0999 V2000
   43.7750   75.2402   42.3657 C   0  0  0  0  0  0  0  0  0  0  0  0
   44.6479   76.2253   42.6308 C   0  0  0  0  0  0  0  0  0  0  0  0
   44.3840   71.1431   43.5193 C   0  0  0  0  0  0  0  0  0  0  0  0
   44.2814   71.3839   42.1570 C   0  0  0  0  0  0  0  0  0  0  0  0
   44.0821   72.6991   41.7608 C   0  0  0  0  0  0  0  0  0  0  0  0
   43.9927   73.7647   42.6518 C   0  0  0  0  0  0  0  0  0  0  0  0
   44.1055   73.4418   43.9998 C   0  0  0  0  0  0  0  0  0  0  0  0
   44.3007   72.1526   44.4696 C   0  0  0  0  0  0  0  0  0  0  0  0
   44.4123   71.8968   45.8494 O   0  0  0  0  0  0  0  0  0  0  0  0
   44.3612   70.3683   41.1882 O   0  0  0  0  0  0  0  0  0  0  0  0
   44.5442   71.0207   46.1544 H   0  0  0  0  0  0  0  0  0  0  0  0
   44.2860   70.5814   40.2788 H   0  0  0  0  0  0  0  0  0  0  0  0
   44.4564   77.7055   42.3415 C   0  0  0  0  0  0  0  0  0  0  0  0
   43.4805   77.9853   41.3964 C   0  0  0  0  0  0  0  0  0  0  0  0
   43.1329   79.2528   40.9622 C   0  0  0  0  0  0  0  0  0  0  0  0
   43.7600   80.3756   41.4707 C   0  0  0  0  0  0  0  0  0  0  0  0
   44.7313   80.1313   42.4126 C   0  0  0  0  0  0  0  0  0  0  0  0
   45.0647   78.8585   42.8235 C   0  0  0  0  0  0  0  0  0  0  0  0
   46.3795   78.7470   44.0529 Cl  0  0  0  0  0  0  0  0  0  0  0  0
   43.4210   81.6546   41.0520 O   0  0  0  0  0  0  0  0  0  0  0  0
   42.7521   81.7746   40.4069 H   0  0  0  0  0  0  0  0  0  0  0  0
 15 14  2  0  0  0
 15 16  1  0  0  0
 10  4  1  0  0  0
 14 13  1  0  0  0
  4  5  2  0  0  0
  4  3  1  0  0  0
  5  6  1  0  0  0
 20 16  1  0  0  0
 16 17  2  0  0  0
  2 13  1  0  0  0
  2  1  2  0  0  0
 13 18  2  0  0  0
  3  8  2  0  0  0
  6  1  1  0  0  0
  6  7  2  0  0  0
 17 18  1  0  0  0
  7  8  1  0  0  0
  8  9  1  0  0  0
 18 19  1  0  0  0
  9 11  1  0  0  0
 20 21  1  0  0  0
 10 12  1  0  0  0
M  END
> <minimizedAffinity>
-8.19112

$$$$
5U49_S2L_A_200


 21 22  0  0  0  0  0  0  0  0999 V2000
   45.2967   75.1960   42.0258 C   0  0  0  0  0  0  0  0  0  0  0  0
   44.3556   76.1530   42.0614 C   0  0  0  0  0  0  0  0  0  0  0  0
   44.5563   71.0968   40.9600 C   0  0  0  0  0  0  0  0  0  0  0  0
   44.8283   71.3389   42.2986 C   0  0  0  0  0  0  0  0  0  0  0  0
   45.0730   72.6548   42.6660 C   0  0  0  0  0  0  0  0  0  0  0  0
   45.0479   73.7198   41.7701 C   0  0  0  0  0  0  0  0  0  0  0  0
   44.7676   73.3957   40.4471 C   0  0  0  0  0  0  0  0  0  0  0  0
   44.5177   72.1056   40.0062 C   0  0  0  0  0  0  0  0  0  0  0  0
   44.2346   71.8485   38.6514 O   0  0  0  0  0  0  0  0  0  0  0  0
   44.8728   70.3240   43.2703 O   0  0  0  0  0  0  0  0  0  0  0  0
   44.0674   70.9719   38.3659 H   0  0  0  0  0  0  0  0  0  0  0  0
   45.0609   70.5379   44.1630 H   0  0  0  0  0  0  0  0  0  0  0  0
   44.5802   77.6328   42.3281 C   0  0  0  0  0  0  0  0  0  0  0  0
   45.5778   77.9058   43.2522 C   0  0  0  0  0  0  0  0  0  0  0  0
   45.9570   79.1718   43.6637 C   0  0  0  0  0  0  0  0  0  0  0  0
   45.3423   80.2998   43.1519 C   0  0  0  0  0  0  0  0  0  0  0  0
   44.3500   80.0624   42.2304 C   0  0  0  0  0  0  0  0  0  0  0  0
   43.9854   78.7910   41.8419 C   0  0  0  0  0  0  0  0  0  0  0  0
   42.6470   78.6892   40.6373 Cl  0  0  0  0  0  0  0  0  0  0  0  0
   45.7129   81.5774   43.5479 O   0  0  0  0  0  0  0  0  0  0  0  0
   46.3953   81.6926   44.1795 H   0  0  0  0  0  0  0  0  0  0  0  0
 15 14  2  0  0  0
 15 16  1  0  0  0
 10  4  1  0  0  0
 14 13  1  0  0  0
  4  5  2  0  0  0
  4  3  1  0  0  0
  5  6  1  0  0  0
 20 16  1  0  0  0
 16 17  2  0  0  0
  2 13  1  0  0  0
  2  1  2  0  0  0
 13 18  2  0  0  0
  3  8  2  0  0  0
  6  1  1  0  0  0
  6  7  2  0  0  0
 17 18  1  0  0  0
  7  8  1  0  0  0
  8  9  1  0  0  0
 18 19  1  0  0  0
  9 11  1  0  0  0
 20 21  1  0  0  0
 10 12  1  0  0  0
M  END
> <minimizedAffinity>
-8.17418

$$$$
5U49_S2L_A_200


 21 22  0  0  0  0  0  0  0  0999 V2000
   44.8078   75.6760   42.4145 C   0  0  0  0  0  0  0  0  0  0  0  0
   43.9720   74.6848   42.0660 C   0  0  0  0  0  0  0  0  0  0  0  0
   43.8834   79.7756   41.5050 C   0  0  0  0  0  0  0  0  0  0  0  0
   44.9199   79.5694   42.4036 C   0  0  0  0  0  0  0  0  0  0  0  0
   45.2349   78.2539   42.7145 C   0  0  0  0  0  0  0  0  0  0  0  0
   44.5761   77.1565   42.1675 C   0  0  0  0  0  0  0  0  0  0  0  0
   43.5494   77.4457   41.2750 C   0  0  0  0  0  0  0  0  0  0  0  0
   43.1763   78.7327   40.9207 C   0  0  0  0  0  0  0  0  0  0  0  0
   42.1301   78.9541   40.0052 O   0  0  0  0  0  0  0  0  0  0  0  0
   45.6389   80.6186   43.0025 O   0  0  0  0  0  0  0  0  0  0  0  0
   41.8873   79.8290   39.7738 H   0  0  0  0  0  0  0  0  0  0  0  0
   46.3316   80.4283   43.6041 H   0  0  0  0  0  0  0  0  0  0  0  0
   44.1893   73.1971   42.2915 C   0  0  0  0  0  0  0  0  0  0  0  0
   44.3619   72.4585   41.1302 C   0  0  0  0  0  0  0  0  0  0  0  0
   44.5657   71.0904   41.0798 C   0  0  0  0  0  0  0  0  0  0  0  0
   44.6201   70.3363   42.2377 C   0  0  0  0  0  0  0  0  0  0  0  0
   44.4552   71.0406   43.4068 C   0  0  0  0  0  0  0  0  0  0  0  0
   44.2461   72.4029   43.4306 C   0  0  0  0  0  0  0  0  0  0  0  0
   44.0322   73.1383   45.0634 Cl  0  0  0  0  0  0  0  0  0  0  0  0
   44.8295   68.9646   42.2074 O   0  0  0  0  0  0  0  0  0  0  0  0
   44.9369   68.5251   41.3868 H   0  0  0  0  0  0  0  0  0  0  0  0
 15 14  2  0  0  0
 15 16  1  0  0  0
 10  4  1  0  0  0
 14 13  1  0  0  0
  4  5  2  0  0  0
  4  3  1  0  0  0
  5  6  1  0  0  0
 20 16  1  0  0  0
 16 17  2  0  0  0
  2 13  1  0  0  0
  2  1  2  0  0  0
 13 18  2  0  0  0
  3  8  2  0  0  0
  6  1  1  0  0  0
  6  7  2  0  0  0
 17 18  1  0  0  0
  7  8  1  0  0  0
  8  9  1  0  0  0
 18 19  1  0  0  0
  9 11  1  0  0  0
 20 21  1  0  0  0
 10 12  1  0  0  0
M  END
> <minimizedAffinity>
-8.01483

$$$$
5U49_S2L_A_200


 21 22  0  0  0  0  0  0  0  0999 V2000
   44.2381   75.6702   42.3373 C   0  0  0  0  0  0  0  0  0  0  0  0
   45.1375   74.6847   42.4866 C   0  0  0  0  0  0  0  0  0  0  0  0
   45.2499   79.7622   43.1856 C   0  0  0  0  0  0  0  0  0  0  0  0
   44.1992   79.5648   42.3016 C   0  0  0  0  0  0  0  0  0  0  0  0
   43.8560   78.2519   42.0106 C   0  0  0  0  0  0  0  0  0  0  0  0
   44.5004   77.1489   42.5635 C   0  0  0  0  0  0  0  0  0  0  0  0
   45.5427   77.4294   43.4404 C   0  0  0  0  0  0  0  0  0  0  0  0
   45.9440   78.7133   43.7746 C   0  0  0  0  0  0  0  0  0  0  0  0
   47.0049   78.9259   44.6751 O   0  0  0  0  0  0  0  0  0  0  0  0
   43.4931   80.6202   41.6982 O   0  0  0  0  0  0  0  0  0  0  0  0
   47.2668   79.7988   44.8930 H   0  0  0  0  0  0  0  0  0  0  0  0
   42.7899   80.4357   41.1069 H   0  0  0  0  0  0  0  0  0  0  0  0
   44.8936   73.1985   42.2784 C   0  0  0  0  0  0  0  0  0  0  0  0
   44.7448   72.4705   43.4496 C   0  0  0  0  0  0  0  0  0  0  0  0
   44.5240   71.1057   43.5160 C   0  0  0  0  0  0  0  0  0  0  0  0
   44.4261   70.3443   42.3658 C   0  0  0  0  0  0  0  0  0  0  0  0
   44.5665   71.0381   41.1872 C   0  0  0  0  0  0  0  0  0  0  0  0
   44.7932   72.3972   41.1473 C   0  0  0  0  0  0  0  0  0  0  0  0
   44.9698   73.1182   39.5036 Cl  0  0  0  0  0  0  0  0  0  0  0  0
   44.1991   68.9759   42.4122 O   0  0  0  0  0  0  0  0  0  0  0  0
   44.1096   68.5436   43.2387 H   0  0  0  0  0  0  0  0  0  0  0  0
 15 14  2  0  0  0
 15 16  1  0  0  0
 10  4  1  0  0  0
 14 13  1  0  0  0
  4  5  2  0  0  0
  4  3  1  0  0  0
  5  6  1  0  0  0
 20 16  1  0  0  0
 16 17  2  0  0  0
  2 13  1  0  0  0
  2  1  2  0  0  0
 13 18  2  0  0  0
  3  8  2  0  0  0
  6  1  1  0  0  0
  6  7  2  0  0  0
 17 18  1  0  0  0
  7  8  1  0  0  0
  8  9  1  0  0  0
 18 19  1  0  0  0
  9 11  1  0  0  0
 20 21  1  0  0  0
 10 12  1  0  0  0
M  END
> <minimizedAffinity>
-7.97084

$$$$
5U49_S2L_A_200


 21 22  0  0  0  0  0  0  0  0999 V2000
   44.7469   75.7075   42.5123 C   0  0  0  0  0  0  0  0  0  0  0  0
   43.9079   74.7168   42.1699 C   0  0  0  0  0  0  0  0  0  0  0  0
   44.3409   79.9673   42.0918 C   0  0  0  0  0  0  0  0  0  0  0  0
   43.3405   79.1997   41.5136 C   0  0  0  0  0  0  0  0  0  0  0  0
   43.4516   77.8215   41.6345 C   0  0  0  0  0  0  0  0  0  0  0  0
   44.4958   77.1908   42.3049 C   0  0  0  0  0  0  0  0  0  0  0  0
   45.4584   78.0288   42.8573 C   0  0  0  0  0  0  0  0  0  0  0  0
   45.4162   79.4116   42.7730 C   0  0  0  0  0  0  0  0  0  0  0  0
   46.4225   80.2011   43.3611 O   0  0  0  0  0  0  0  0  0  0  0  0
   42.2504   79.7531   40.8195 O   0  0  0  0  0  0  0  0  0  0  0  0
   46.3825   81.1351   43.2971 H   0  0  0  0  0  0  0  0  0  0  0  0
   41.5993   79.1922   40.4460 H   0  0  0  0  0  0  0  0  0  0  0  0
   44.1441   73.2266   42.3562 C   0  0  0  0  0  0  0  0  0  0  0  0
   44.2803   72.5136   41.1742 C   0  0  0  0  0  0  0  0  0  0  0  0
   44.4922   71.1486   41.0877 C   0  0  0  0  0  0  0  0  0  0  0  0
   44.5936   70.3711   42.2269 C   0  0  0  0  0  0  0  0  0  0  0  0
   44.4656   71.0496   43.4157 C   0  0  0  0  0  0  0  0  0  0  0  0
   44.2475   72.4094   43.4756 C   0  0  0  0  0  0  0  0  0  0  0  0
   44.0869   73.1090   45.1301 Cl  0  0  0  0  0  0  0  0  0  0  0  0
   44.8118   69.0021   42.1603 O   0  0  0  0  0  0  0  0  0  0  0  0
   44.8929   68.5805   41.3274 H   0  0  0  0  0  0  0  0  0  0  0  0
 15 14  2  0  0  0
 15 16  1  0  0  0
 10  4  1  0  0  0
 14 13  1  0  0  0
  4  5  2  0  0  0
  4  3  1  0  0  0
  5  6  1  0  0  0
 20 16  1  0  0  0
 16 17  2  0  0  0
  2 13  1  0  0  0
  2  1  2  0  0  0
 13 18  2  0  0  0
  3  8  2  0  0  0
  6  1  1  0  0  0
  6  7  2  0  0  0
 17 18  1  0  0  0
  7  8  1  0  0  0
  8  9  1  0  0  0
 18 19  1  0  0  0
  9 11  1  0  0  0
 20 21  1  0  0  0
 10 12  1  0  0  0
M  END
> <minimizedAffinity>
-7.94727

$$$$
5U49_S2L_A_200


 21 22  0  0  0  0  0  0  0  0999 V2000
   44.4525   75.6823   42.6013 C   0  0  0  0  0  0  0  0  0  0  0  0
   45.3392   74.6777   42.5163 C   0  0  0  0  0  0  0  0  0  0  0  0
   45.1320   79.9040   43.0520 C   0  0  0  0  0  0  0  0  0  0  0  0
   46.0099   79.0697   43.7285 C   0  0  0  0  0  0  0  0  0  0  0  0
   45.8087   77.7025   43.5998 C   0  0  0  0  0  0  0  0  0  0  0  0
   44.7920   77.1448   42.8299 C   0  0  0  0  0  0  0  0  0  0  0  0
   43.9542   78.0466   42.1827 C   0  0  0  0  0  0  0  0  0  0  0  0
   44.0911   79.4232   42.2682 C   0  0  0  0  0  0  0  0  0  0  0  0
   43.2099   80.2797   41.5813 O   0  0  0  0  0  0  0  0  0  0  0  0
   47.0641   79.5473   44.5267 O   0  0  0  0  0  0  0  0  0  0  0  0
   43.3130   81.2086   41.6471 H   0  0  0  0  0  0  0  0  0  0  0  0
   47.6312   78.9432   44.9642 H   0  0  0  0  0  0  0  0  0  0  0  0
   45.0214   73.2066   42.3011 C   0  0  0  0  0  0  0  0  0  0  0  0
   44.8422   72.4800   43.4689 C   0  0  0  0  0  0  0  0  0  0  0  0
   44.5547   71.1274   43.5288 C   0  0  0  0  0  0  0  0  0  0  0  0
   44.4140   70.3785   42.3747 C   0  0  0  0  0  0  0  0  0  0  0  0
   44.5831   71.0713   41.1994 C   0  0  0  0  0  0  0  0  0  0  0  0
   44.8764   72.4178   41.1660 C   0  0  0  0  0  0  0  0  0  0  0  0
   45.0808   73.1388   39.5255 Cl  0  0  0  0  0  0  0  0  0  0  0  0
   44.1201   69.0227   42.4147 O   0  0  0  0  0  0  0  0  0  0  0  0
   44.0131   68.5905   43.2392 H   0  0  0  0  0  0  0  0  0  0  0  0
 15 14  2  0  0  0
 15 16  1  0  0  0
 10  4  1  0  0  0
 14 13  1  0  0  0
  4  5  2  0  0  0
  4  3  1  0  0  0
  5  6  1  0  0  0
 20 16  1  0  0  0
 16 17  2  0  0  0
  2 13  1  0  0  0
  2  1  2  0  0  0
 13 18  2  0  0  0
  3  8  2  0  0  0
  6  1  1  0  0  0
  6  7  2  0  0  0
 17 18  1  0  0  0
  7  8  1  0  0  0
  8  9  1  0  0  0
 18 19  1  0  0  0
  9 11  1  0  0  0
 20 21  1  0  0  0
 10 12  1  0  0  0
M  END
> <minimizedAffinity>
-7.93016

$$$$
5U49_S2L_A_200


 21 22  0  0  0  0  0  0  0  0999 V2000
   44.3700   76.7531   42.2906 C   0  0  0  0  0  0  0  0  0  0  0  0
   45.0913   75.6752   41.9437 C   0  0  0  0  0  0  0  0  0  0  0  0
   45.7071   80.6898   43.3874 C   0  0  0  0  0  0  0  0  0  0  0  0
   46.4407   79.6312   43.9029 C   0  0  0  0  0  0  0  0  0  0  0  0
   46.0263   78.3506   43.5644 C   0  0  0  0  0  0  0  0  0  0  0  0
   44.9359   78.0890   42.7397 C   0  0  0  0  0  0  0  0  0  0  0  0
   44.2525   79.2024   42.2629 C   0  0  0  0  0  0  0  0  0  0  0  0
   44.6050   80.5091   42.5617 C   0  0  0  0  0  0  0  0  0  0  0  0
   43.8718   81.5914   42.0395 O   0  0  0  0  0  0  0  0  0  0  0  0
   47.5554   79.8043   44.7420 O   0  0  0  0  0  0  0  0  0  0  0  0
   44.1202   82.4703   42.2490 H   0  0  0  0  0  0  0  0  0  0  0  0
   48.0189   79.0569   45.0653 H   0  0  0  0  0  0  0  0  0  0  0  0
   44.5466   74.3256   41.5040 C   0  0  0  0  0  0  0  0  0  0  0  0
   45.1701   73.7899   40.3869 C   0  0  0  0  0  0  0  0  0  0  0  0
   44.8443   72.5814   39.7961 C   0  0  0  0  0  0  0  0  0  0  0  0
   43.8335   71.7889   40.3087 C   0  0  0  0  0  0  0  0  0  0  0  0
   43.1973   72.2916   41.4189 C   0  0  0  0  0  0  0  0  0  0  0  0
   43.5355   73.5021   41.9849 C   0  0  0  0  0  0  0  0  0  0  0  0
   42.5683   73.9958   43.4249 Cl  0  0  0  0  0  0  0  0  0  0  0  0
   43.4965   70.5715   39.7336 O   0  0  0  0  0  0  0  0  0  0  0  0
   43.9573   70.2674   38.9765 H   0  0  0  0  0  0  0  0  0  0  0  0
 15 14  2  0  0  0
 15 16  1  0  0  0
 10  4  1  0  0  0
 14 13  1  0  0  0
  4  5  2  0  0  0
  4  3  1  0  0  0
  5  6  1  0  0  0
 20 16  1  0  0  0
 16 17  2  0  0  0
  2 13  1  0  0  0
  2  1  2  0  0  0
 13 18  2  0  0  0
  3  8  2  0  0  0
  6  1  1  0  0  0
  6  7  2  0  0  0
 17 18  1  0  0  0
  7  8  1  0  0  0
  8  9  1  0  0  0
 18 19  1  0  0  0
  9 11  1  0  0  0
 20 21  1  0  0  0
 10 12  1  0  0  0
M  END
> <minimizedAffinity>
-7.58522

$$$$
5U49_S2L_A_200


 21 22  0  0  0  0  0  0  0  0999 V2000
   44.7600   77.2578   41.7778 C   0  0  0  0  0  0  0  0  0  0  0  0
   44.9067   76.0753   42.3966 C   0  0  0  0  0  0  0  0  0  0  0  0
   45.8683   80.9580   43.6667 C   0  0  0  0  0  0  0  0  0  0  0  0
   44.7843   81.0154   42.8029 C   0  0  0  0  0  0  0  0  0  0  0  0
   44.4095   79.8333   42.1795 C   0  0  0  0  0  0  0  0  0  0  0  0
   45.0545   78.6174   42.3870 C   0  0  0  0  0  0  0  0  0  0  0  0
   46.1312   78.6421   43.2669 C   0  0  0  0  0  0  0  0  0  0  0  0
   46.5651   79.7840   43.9217 C   0  0  0  0  0  0  0  0  0  0  0  0
   47.6601   79.7367   44.8052 O   0  0  0  0  0  0  0  0  0  0  0  0
   44.0751   82.1996   42.5361 O   0  0  0  0  0  0  0  0  0  0  0  0
   47.9438   80.5157   45.2418 H   0  0  0  0  0  0  0  0  0  0  0  0
   43.3489   82.1875   41.9442 H   0  0  0  0  0  0  0  0  0  0  0  0
   44.6061   74.7048   41.8112 C   0  0  0  0  0  0  0  0  0  0  0  0
   45.3950   74.3579   40.7243 C   0  0  0  0  0  0  0  0  0  0  0  0
   45.3023   73.1699   40.0202 C   0  0  0  0  0  0  0  0  0  0  0  0
   44.3790   72.2033   40.3746 C   0  0  0  0  0  0  0  0  0  0  0  0
   43.5831   72.5164   41.4511 C   0  0  0  0  0  0  0  0  0  0  0  0
   43.6898   73.7102   42.1319 C   0  0  0  0  0  0  0  0  0  0  0  0
   42.5410   73.9402   43.5030 Cl  0  0  0  0  0  0  0  0  0  0  0  0
   44.2752   71.0037   39.6844 O   0  0  0  0  0  0  0  0  0  0  0  0
   44.8388   70.8322   38.9557 H   0  0  0  0  0  0  0  0  0  0  0  0
 15 14  2  0  0  0
 15 16  1  0  0  0
 10  4  1  0  0  0
 14 13  1  0  0  0
  4  5  2  0  0  0
  4  3  1  0  0  0
  5  6  1  0  0  0
 20 16  1  0  0  0
 16 17  2  0  0  0
  2 13  1  0  0  0
  2  1  2  0  0  0
 13 18  2  0  0  0
  3  8  2  0  0  0
  6  1  1  0  0  0
  6  7  2  0  0  0
 17 18  1  0  0  0
  7  8  1  0  0  0
  8  9  1  0  0  0
 18 19  1  0  0  0
  9 11  1  0  0  0
 20 21  1  0  0  0
 10 12  1  0  0  0
M  END
> <minimizedAffinity>
-7.56278

$$$$
