5N1R_8GH_A_303
  RCSB PDB01031823323D
Coordinates from PDB:5N1R:A:303 Model:1 without hydrogens
 22 24  0  0  0  0            999 V2000
   -3.6990    2.1030   15.5500   C 0  0  0  0  0  0  0  0  0  0  0  0
   -3.0580    3.1680   14.9300   C 0  0  0  0  0  0  0  0  0  0  0  0
   -3.7350    4.3320   14.5890   C 0  0  0  0  0  0  0  0  0  0  0  0
   -5.1220    4.3750   14.8400   C 0  0  0  0  0  0  0  0  0  0  0  0
   -5.7760    3.3030   15.4460   C 0  0  0  0  0  0  0  0  0  0  0  0
   -2.2790   10.1840   11.7160   C 0  0  0  0  0  0  0  0  0  0  0  0
   -2.7770   11.4520   11.8830   C 0  0  0  0  0  0  0  0  0  0  0  0
   -5.0570    2.1730   15.8220   C 0  0  0  0  0  0  0  0  0  0  0  0
   -2.9600    5.4880   14.1010   C 0  0  0  0  0  0  0  0  0  0  0  0
   -3.0910    6.7380   14.6810   C 0  0  0  0  0  0  0  0  0  0  0  0
   -2.2850    7.7900   14.2790   C 0  0  0  0  0  0  0  0  0  0  0  0
   -1.3360    7.6180   13.2810   C 0  0  0  0  0  0  0  0  0  0  0  0
   -1.1970    6.3650   12.7070   C 0  0  0  0  0  0  0  0  0  0  0  0
   -1.9850    5.3110   13.1250   C 0  0  0  0  0  0  0  0  0  0  0  0
   -0.4850    8.7920   12.8330   C 0  0  0  0  0  0  0  0  0  0  0  0
   -2.0890   11.9610   12.9860   C 0  0  0  0  0  0  0  0  0  0  0  0
   -5.8570    0.8510   16.7270   S 0  0  0  0  0  0  0  0  0  0  0  0
   -1.3430    9.9960   12.6760   N 0  0  0  0  0  0  0  0  0  0  0  0
   -1.2230   11.0810   13.4900   N 0  0  0  0  0  0  0  0  0  0  0  0
   -5.4200   -0.4870   16.1320   O 0  0  0  0  0  0  0  0  0  0  0  0
   -5.4860    1.0100   18.1140   O 0  0  0  0  0  0  0  0  0  0  0  0
   -7.3380    1.0480   16.5220   N 0  0  0  0  0  0  0  0  0  0  0  0
  6  7  2  0  0  0  0
  6 18  1  0  0  0  0
  7 16  1  0  0  0  0
 18 15  1  0  0  0  0
 18 19  1  0  0  0  0
 13 14  2  0  0  0  0
 13 12  1  0  0  0  0
 15 12  1  0  0  0  0
 16 19  2  0  0  0  0
 14  9  1  0  0  0  0
 12 11  2  0  0  0  0
  9  3  1  0  0  0  0
  9 10  2  0  0  0  0
 11 10  1  0  0  0  0
  3  4  2  0  0  0  0
  3  2  1  0  0  0  0
  4  5  1  0  0  0  0
  2  1  2  0  0  0  0
  5  8  2  0  0  0  0
  1  8  1  0  0  0  0
  8 17  1  0  0  0  0
 20 17  2  0  0  0  0
 22 17  1  0  0  0  0
 17 21  2  0  0  0  0
A    1
C2
A    2
C3
A    3
C4
A    4
C5
A    5
C6
A    6
C17
A    7
C16
A    8
C1
A    9
C7
A   10
C8
A   11
C9
A   12
C10
A   13
C11
A   14
C12
A   15
C13
A   16
C15
A   17
S1
A   18
N13
A   19
N14
A   20
O18
A   21
O19
A   22
N20
M  END
>  <InstanceId>
5N1R_8GH_A_303

>  <ChemCompId>
8GH

>  <PdbId>
5N1R

>  <ChainId>
A

>  <ResidueNumber>
303

>  <InsertionCode>


>  <Model>
1

>  <AltIds>


>  <MissingHeavyAtoms>
0

>  <ObservedFormula>
C16 N3 O2 S

>  <Name>
4-[4-(pyrazol-1-ylmethyl)phenyl]benzenesulfonamide

>  <SystematicName>
4-[4-(pyrazol-1-ylmethyl)phenyl]benzenesulfonamide

>  <Synonyms>


>  <Type>
NON-POLYMER

>  <Formula>
C16 H15 N3 O2 S

>  <MolecularWeight>
313.374

>  <ModifiedDate>
2017-12-22

>  <Parent>


>  <OneLetterCode>


>  <SubcomponentList>


>  <AmbiguousFlag>
N

>  <InChI>
InChI=1S/C16H15N3O2S/c17-22(20,21)16-8-6-15(7-9-16)14-4-2-13(3-5-14)12-19-11-1-10-18-19/h1-11H,12H2,(H2,17,20,21)

>  <InChIKey>
ISHVKZQPCLEIEP-UHFFFAOYSA-N

>  <SMILES>
c1cnn(c1)Cc2ccc(cc2)c3ccc(cc3)S(=O)(=O)N

$$$$
