5N1R_8GH_A_303


 24 26  0  0  0  0  0  0  0  0999 V2000
   -3.9437    2.5718   15.6692 C   0  0  0  0  0  0  0  0  0  0  0  0
   -3.4427    3.7165   15.0622 C   0  0  0  0  0  0  0  0  0  0  0  0
   -4.2483    4.8163   14.7957 C   0  0  0  0  0  0  0  0  0  0  0  0
   -5.6191    4.7097   15.1092 C   0  0  0  0  0  0  0  0  0  0  0  0
   -6.1329    3.5573   15.7025 C   0  0  0  0  0  0  0  0  0  0  0  0
   -5.2873    2.4944   16.0033 C   0  0  0  0  0  0  0  0  0  0  0  0
   -3.6170    6.0607   14.3181 C   0  0  0  0  0  0  0  0  0  0  0  0
   -3.0703    6.9748   15.2021 C   0  0  0  0  0  0  0  0  0  0  0  0
   -2.3930    8.0890   14.7354 C   0  0  0  0  0  0  0  0  0  0  0  0
   -2.2554    8.3191   13.3737 C   0  0  0  0  0  0  0  0  0  0  0  0
   -2.7932    7.3997   12.4881 C   0  0  0  0  0  0  0  0  0  0  0  0
   -3.4478    6.2770   12.9546 C   0  0  0  0  0  0  0  0  0  0  0  0
   -1.5372    9.5630   12.8834 C   0  0  0  0  0  0  0  0  0  0  0  0
    0.5193   10.3257   14.1454 C   0  0  0  0  0  0  0  0  0  0  0  0
    1.8449    9.9703   14.1587 C   0  0  0  0  0  0  0  0  0  0  0  0
    1.9338    8.8980   13.2692 C   0  0  0  0  0  0  0  0  0  0  0  0
   -0.1048    9.4966   13.2758 N   0  0  0  0  0  0  0  0  0  0  0  0
    0.7522    8.5871   12.7347 N   0  0  0  0  0  0  0  0  0  0  0  0
   -5.9069    1.0686   16.8921 S   0  0  0  0  0  0  0  0  0  0  0  0
   -5.3908   -0.1982   16.2108 O   0  0  0  0  0  0  0  0  0  0  0  0
   -5.4644    1.2044   18.2604 O   0  0  0  0  0  0  0  0  0  0  0  0
   -7.4096    1.1366   16.7849 N   0  0  0  0  0  0  0  0  0  0  0  0
   -7.6857    1.0375   15.8080 H   0  0  0  0  0  0  0  0  0  0  0  0
   -7.7355    2.0352   17.1408 H   0  0  0  0  0  0  0  0  0  0  0  0
 14 15  2  0  0  0
 14 17  1  0  0  0
 15 16  1  0  0  0
 17 13  1  0  0  0
 17 18  1  0  0  0
 11 12  2  0  0  0
 11 10  1  0  0  0
 13 10  1  0  0  0
 16 18  2  0  0  0
 12  7  1  0  0  0
 10  9  2  0  0  0
  7  3  1  0  0  0
  7  8  2  0  0  0
  9  8  1  0  0  0
  3  4  2  0  0  0
  3  2  1  0  0  0
  4  5  1  0  0  0
  2  1  2  0  0  0
  5  6  2  0  0  0
  1  6  1  0  0  0
  6 19  1  0  0  0
 20 19  2  0  0  0
 22 19  1  0  0  0
 19 21  2  0  0  0
 22 23  1  0  0  0
 22 24  1  0  0  0
M  END
> <minimizedAffinity>
-7.74797

$$$$
5N1R_8GH_A_303


 24 26  0  0  0  0  0  0  0  0999 V2000
   -3.9141    2.5516   15.6753 C   0  0  0  0  0  0  0  0  0  0  0  0
   -3.3507    3.6709   15.0759 C   0  0  0  0  0  0  0  0  0  0  0  0
   -4.0954    4.8135   14.8126 C   0  0  0  0  0  0  0  0  0  0  0  0
   -5.4710    4.7787   15.1211 C   0  0  0  0  0  0  0  0  0  0  0  0
   -6.0477    3.6524   15.7068 C   0  0  0  0  0  0  0  0  0  0  0  0
   -5.2611    2.5443   16.0048 C   0  0  0  0  0  0  0  0  0  0  0  0
   -3.3970    6.0248   14.3434 C   0  0  0  0  0  0  0  0  0  0  0  0
   -3.1223    7.0747   15.2026 C   0  0  0  0  0  0  0  0  0  0  0  0
   -2.3787    8.1613   14.7734 C   0  0  0  0  0  0  0  0  0  0  0  0
   -1.9008    8.2268   13.4720 C   0  0  0  0  0  0  0  0  0  0  0  0
   -2.1663    7.1720   12.6143 C   0  0  0  0  0  0  0  0  0  0  0  0
   -2.8878    6.0784   13.0502 C   0  0  0  0  0  0  0  0  0  0  0  0
   -1.1152    9.4413   13.0126 C   0  0  0  0  0  0  0  0  0  0  0  0
   -2.6560   10.3632   11.2294 C   0  0  0  0  0  0  0  0  0  0  0  0
   -3.3588   11.5288   11.0531 C   0  0  0  0  0  0  0  0  0  0  0  0
   -3.1276   12.2623   12.2182 C   0  0  0  0  0  0  0  0  0  0  0  0
   -2.0467   10.4461   12.4356 N   0  0  0  0  0  0  0  0  0  0  0  0
   -2.3429   11.6102   13.0770 N   0  0  0  0  0  0  0  0  0  0  0  0
   -5.9590    1.1492   16.8842 S   0  0  0  0  0  0  0  0  0  0  0  0
   -5.4722   -0.1408   16.2255 O   0  0  0  0  0  0  0  0  0  0  0  0
   -5.5503    1.2780   18.2637 O   0  0  0  0  0  0  0  0  0  0  0  0
   -7.4544    1.2730   16.7339 N   0  0  0  0  0  0  0  0  0  0  0  0
   -7.7064    1.1775   15.7502 H   0  0  0  0  0  0  0  0  0  0  0  0
   -7.7560    2.1858   17.0750 H   0  0  0  0  0  0  0  0  0  0  0  0
 14 15  2  0  0  0
 14 17  1  0  0  0
 15 16  1  0  0  0
 17 13  1  0  0  0
 17 18  1  0  0  0
 11 12  2  0  0  0
 11 10  1  0  0  0
 13 10  1  0  0  0
 16 18  2  0  0  0
 12  7  1  0  0  0
 10  9  2  0  0  0
  7  3  1  0  0  0
  7  8  2  0  0  0
  9  8  1  0  0  0
  3  4  2  0  0  0
  3  2  1  0  0  0
  4  5  1  0  0  0
  2  1  2  0  0  0
  5  6  2  0  0  0
  1  6  1  0  0  0
  6 19  1  0  0  0
 20 19  2  0  0  0
 22 19  1  0  0  0
 19 21  2  0  0  0
 22 23  1  0  0  0
 22 24  1  0  0  0
M  END
> <minimizedAffinity>
-7.57509

$$$$
5N1R_8GH_A_303


 24 26  0  0  0  0  0  0  0  0999 V2000
   -4.3110    2.5270   15.8054 C   0  0  0  0  0  0  0  0  0  0  0  0
   -3.7667    3.4793   14.9531 C   0  0  0  0  0  0  0  0  0  0  0  0
   -4.4803    4.6049   14.5617 C   0  0  0  0  0  0  0  0  0  0  0  0
   -5.8111    4.7210   15.0136 C   0  0  0  0  0  0  0  0  0  0  0  0
   -6.3705    3.7602   15.8551 C   0  0  0  0  0  0  0  0  0  0  0  0
   -5.6097    2.6718   16.2696 C   0  0  0  0  0  0  0  0  0  0  0  0
   -3.7825    5.6615   13.8055 C   0  0  0  0  0  0  0  0  0  0  0  0
   -4.2244    6.0631   12.5567 C   0  0  0  0  0  0  0  0  0  0  0  0
   -3.6203    7.1237   11.9023 C   0  0  0  0  0  0  0  0  0  0  0  0
   -2.5542    7.8006   12.4780 C   0  0  0  0  0  0  0  0  0  0  0  0
   -2.1178    7.4061   13.7321 C   0  0  0  0  0  0  0  0  0  0  0  0
   -2.7360    6.3637   14.3938 C   0  0  0  0  0  0  0  0  0  0  0  0
   -1.8858    8.9394   11.7300 C   0  0  0  0  0  0  0  0  0  0  0  0
   -0.2642   10.1248   13.2692 C   0  0  0  0  0  0  0  0  0  0  0  0
   -0.3424   11.1760   14.1481 C   0  0  0  0  0  0  0  0  0  0  0  0
   -1.6537   11.6404   14.0300 C   0  0  0  0  0  0  0  0  0  0  0  0
   -1.4830    9.9976   12.6935 N   0  0  0  0  0  0  0  0  0  0  0  0
   -2.3569   10.9431   13.1369 N   0  0  0  0  0  0  0  0  0  0  0  0
   -6.2685    1.5082   17.4607 S   0  0  0  0  0  0  0  0  0  0  0  0
   -6.2972    2.1748   18.8355 O   0  0  0  0  0  0  0  0  0  0  0  0
   -7.5758    1.1186   16.9852 O   0  0  0  0  0  0  0  0  0  0  0  0
   -5.3115    0.3428   17.4719 N   0  0  0  0  0  0  0  0  0  0  0  0
   -4.4014    0.6535   17.8121 H   0  0  0  0  0  0  0  0  0  0  0  0
   -5.2131   -0.0255   16.5258 H   0  0  0  0  0  0  0  0  0  0  0  0
 14 15  2  0  0  0
 14 17  1  0  0  0
 15 16  1  0  0  0
 17 13  1  0  0  0
 17 18  1  0  0  0
 11 12  2  0  0  0
 11 10  1  0  0  0
 13 10  1  0  0  0
 16 18  2  0  0  0
 12  7  1  0  0  0
 10  9  2  0  0  0
  7  3  1  0  0  0
  7  8  2  0  0  0
  9  8  1  0  0  0
  3  4  2  0  0  0
  3  2  1  0  0  0
  4  5  1  0  0  0
  2  1  2  0  0  0
  5  6  2  0  0  0
  1  6  1  0  0  0
  6 19  1  0  0  0
 20 19  2  0  0  0
 22 19  1  0  0  0
 19 21  2  0  0  0
 22 23  1  0  0  0
 22 24  1  0  0  0
M  END
> <minimizedAffinity>
-7.36819

$$$$
5N1R_8GH_A_303


 24 26  0  0  0  0  0  0  0  0999 V2000
   -6.2345    3.3591   15.7353 C   0  0  0  0  0  0  0  0  0  0  0  0
   -5.7917    4.4373   14.9798 C   0  0  0  0  0  0  0  0  0  0  0  0
   -4.4638    4.5638   14.5923 C   0  0  0  0  0  0  0  0  0  0  0  0
   -3.5575    3.5835   15.0465 C   0  0  0  0  0  0  0  0  0  0  0  0
   -3.9912    2.5075   15.8201 C   0  0  0  0  0  0  0  0  0  0  0  0
   -5.3379    2.3841   16.1461 C   0  0  0  0  0  0  0  0  0  0  0  0
   -4.0990    5.6321   13.6432 C   0  0  0  0  0  0  0  0  0  0  0  0
   -3.1354    6.5748   13.9574 C   0  0  0  0  0  0  0  0  0  0  0  0
   -2.7320    7.5106   13.0195 C   0  0  0  0  0  0  0  0  0  0  0  0
   -3.2901    7.5306   11.7490 C   0  0  0  0  0  0  0  0  0  0  0  0
   -4.2471    6.5812   11.4301 C   0  0  0  0  0  0  0  0  0  0  0  0
   -4.6315    5.6340   12.3583 C   0  0  0  0  0  0  0  0  0  0  0  0
   -2.8570    8.5846   10.7467 C   0  0  0  0  0  0  0  0  0  0  0  0
   -5.0636    9.7146   10.2391 C   0  0  0  0  0  0  0  0  0  0  0  0
   -5.9306    9.7313    9.1752 C   0  0  0  0  0  0  0  0  0  0  0  0
   -5.3088    8.9511    8.1986 C   0  0  0  0  0  0  0  0  0  0  0  0
   -4.0081    8.9471    9.8785 N   0  0  0  0  0  0  0  0  0  0  0  0
   -4.1300    8.4788    8.6057 N   0  0  0  0  0  0  0  0  0  0  0  0
   -5.9292    0.9355   17.0170 S   0  0  0  0  0  0  0  0  0  0  0  0
   -5.3793   -0.3120   16.3266 O   0  0  0  0  0  0  0  0  0  0  0  0
   -5.4981    1.0681   18.3894 O   0  0  0  0  0  0  0  0  0  0  0  0
   -7.4324    0.9693   16.9012 N   0  0  0  0  0  0  0  0  0  0  0  0
   -7.7001    0.8734   15.9217 H   0  0  0  0  0  0  0  0  0  0  0  0
   -7.7815    1.8565   17.2638 H   0  0  0  0  0  0  0  0  0  0  0  0
 14 15  2  0  0  0
 14 17  1  0  0  0
 15 16  1  0  0  0
 17 13  1  0  0  0
 17 18  1  0  0  0
 11 12  2  0  0  0
 11 10  1  0  0  0
 13 10  1  0  0  0
 16 18  2  0  0  0
 12  7  1  0  0  0
 10  9  2  0  0  0
  7  3  1  0  0  0
  7  8  2  0  0  0
  9  8  1  0  0  0
  3  4  2  0  0  0
  3  2  1  0  0  0
  4  5  1  0  0  0
  2  1  2  0  0  0
  5  6  2  0  0  0
  1  6  1  0  0  0
  6 19  1  0  0  0
 20 19  2  0  0  0
 22 19  1  0  0  0
 19 21  2  0  0  0
 22 23  1  0  0  0
 22 24  1  0  0  0
M  END
> <minimizedAffinity>
-7.29207

$$$$
5N1R_8GH_A_303


 24 26  0  0  0  0  0  0  0  0999 V2000
   -6.1463    3.3811   15.8337 C   0  0  0  0  0  0  0  0  0  0  0  0
   -5.6882    4.4847   15.1253 C   0  0  0  0  0  0  0  0  0  0  0  0
   -4.3627    4.6000   14.7264 C   0  0  0  0  0  0  0  0  0  0  0  0
   -3.4737    3.5786   15.1201 C   0  0  0  0  0  0  0  0  0  0  0  0
   -3.9224    2.4762   15.8465 C   0  0  0  0  0  0  0  0  0  0  0  0
   -5.2675    2.3674   16.1844 C   0  0  0  0  0  0  0  0  0  0  0  0
   -3.9852    5.7048   13.8252 C   0  0  0  0  0  0  0  0  0  0  0  0
   -2.9032    6.5220   14.1036 C   0  0  0  0  0  0  0  0  0  0  0  0
   -2.5001    7.4907   13.1997 C   0  0  0  0  0  0  0  0  0  0  0  0
   -3.1760    7.6704   12.0009 C   0  0  0  0  0  0  0  0  0  0  0  0
   -4.2526    6.8465   11.7168 C   0  0  0  0  0  0  0  0  0  0  0  0
   -4.6391    5.8654   12.6082 C   0  0  0  0  0  0  0  0  0  0  0  0
   -2.7376    8.7591   11.0387 C   0  0  0  0  0  0  0  0  0  0  0  0
   -2.0100    7.5752    8.9238 C   0  0  0  0  0  0  0  0  0  0  0  0
   -0.8116    7.1583    8.4006 C   0  0  0  0  0  0  0  0  0  0  0  0
    0.1469    7.5967    9.3161 C   0  0  0  0  0  0  0  0  0  0  0  0
   -1.7354    8.2081   10.0887 N   0  0  0  0  0  0  0  0  0  0  0  0
   -0.3982    8.2513   10.3422 N   0  0  0  0  0  0  0  0  0  0  0  0
   -5.8811    0.8917   16.9922 S   0  0  0  0  0  0  0  0  0  0  0  0
   -5.3244   -0.3332   16.2676 O   0  0  0  0  0  0  0  0  0  0  0  0
   -5.4745    0.9730   18.3759 O   0  0  0  0  0  0  0  0  0  0  0  0
   -7.3817    0.9374   16.8505 N   0  0  0  0  0  0  0  0  0  0  0  0
   -7.6320    0.8779   15.8635 H   0  0  0  0  0  0  0  0  0  0  0  0
   -7.7333    1.8129   17.2383 H   0  0  0  0  0  0  0  0  0  0  0  0
 14 15  2  0  0  0
 14 17  1  0  0  0
 15 16  1  0  0  0
 17 13  1  0  0  0
 17 18  1  0  0  0
 11 12  2  0  0  0
 11 10  1  0  0  0
 13 10  1  0  0  0
 16 18  2  0  0  0
 12  7  1  0  0  0
 10  9  2  0  0  0
  7  3  1  0  0  0
  7  8  2  0  0  0
  9  8  1  0  0  0
  3  4  2  0  0  0
  3  2  1  0  0  0
  4  5  1  0  0  0
  2  1  2  0  0  0
  5  6  2  0  0  0
  1  6  1  0  0  0
  6 19  1  0  0  0
 20 19  2  0  0  0
 22 19  1  0  0  0
 19 21  2  0  0  0
 22 23  1  0  0  0
 22 24  1  0  0  0
M  END
> <minimizedAffinity>
-7.16106

$$$$
5N1R_8GH_A_303


 24 26  0  0  0  0  0  0  0  0999 V2000
   -1.6119    8.9757   15.3446 C   0  0  0  0  0  0  0  0  0  0  0  0
   -2.3271    7.7851   15.3668 C   0  0  0  0  0  0  0  0  0  0  0  0
   -2.6657    7.1124   14.1996 C   0  0  0  0  0  0  0  0  0  0  0  0
   -2.3090    7.7143   12.9752 C   0  0  0  0  0  0  0  0  0  0  0  0
   -1.6064    8.9183   12.9443 C   0  0  0  0  0  0  0  0  0  0  0  0
   -1.2377    9.5385   14.1337 C   0  0  0  0  0  0  0  0  0  0  0  0
   -3.2640    5.7683   14.3019 C   0  0  0  0  0  0  0  0  0  0  0  0
   -4.5409    5.5121   13.8330 C   0  0  0  0  0  0  0  0  0  0  0  0
   -5.0514    4.2248   13.8446 C   0  0  0  0  0  0  0  0  0  0  0  0
   -4.2997    3.1658   14.3343 C   0  0  0  0  0  0  0  0  0  0  0  0
   -3.0180    3.4194   14.7944 C   0  0  0  0  0  0  0  0  0  0  0  0
   -2.5013    4.6994   14.7606 C   0  0  0  0  0  0  0  0  0  0  0  0
   -4.8899    1.7681   14.3677 C   0  0  0  0  0  0  0  0  0  0  0  0
   -6.1428    2.3944   16.4752 C   0  0  0  0  0  0  0  0  0  0  0  0
   -6.4238    1.7723   17.6659 C   0  0  0  0  0  0  0  0  0  0  0  0
   -5.8861    0.4909   17.5324 C   0  0  0  0  0  0  0  0  0  0  0  0
   -5.4653    1.5039   15.7129 N   0  0  0  0  0  0  0  0  0  0  0  0
   -5.3123    0.3064   16.3427 N   0  0  0  0  0  0  0  0  0  0  0  0
   -0.2147   11.0081   14.1088 S   0  0  0  0  0  0  0  0  0  0  0  0
    0.5457   11.0556   12.7841 O   0  0  0  0  0  0  0  0  0  0  0  0
   -1.0973   12.1349   14.3037 O   0  0  0  0  0  0  0  0  0  0  0  0
    0.7537   10.8561   15.2548 N   0  0  0  0  0  0  0  0  0  0  0  0
    1.3593   10.0534   15.0840 H   0  0  0  0  0  0  0  0  0  0  0  0
    0.2351   10.7126   16.1213 H   0  0  0  0  0  0  0  0  0  0  0  0
 14 15  2  0  0  0
 14 17  1  0  0  0
 15 16  1  0  0  0
 17 13  1  0  0  0
 17 18  1  0  0  0
 11 12  2  0  0  0
 11 10  1  0  0  0
 13 10  1  0  0  0
 16 18  2  0  0  0
 12  7  1  0  0  0
 10  9  2  0  0  0
  7  3  1  0  0  0
  7  8  2  0  0  0
  9  8  1  0  0  0
  3  4  2  0  0  0
  3  2  1  0  0  0
  4  5  1  0  0  0
  2  1  2  0  0  0
  5  6  2  0  0  0
  1  6  1  0  0  0
  6 19  1  0  0  0
 20 19  2  0  0  0
 22 19  1  0  0  0
 19 21  2  0  0  0
 22 23  1  0  0  0
 22 24  1  0  0  0
M  END
> <minimizedAffinity>
-7.05635

$$$$
5N1R_8GH_A_303


 24 26  0  0  0  0  0  0  0  0999 V2000
   -1.2430    9.3495   15.4243 C   0  0  0  0  0  0  0  0  0  0  0  0
   -2.0294    8.2050   15.3884 C   0  0  0  0  0  0  0  0  0  0  0  0
   -1.9617    7.3029   14.3343 C   0  0  0  0  0  0  0  0  0  0  0  0
   -1.1040    7.6201   13.2607 C   0  0  0  0  0  0  0  0  0  0  0  0
   -0.3246    8.7760   13.2813 C   0  0  0  0  0  0  0  0  0  0  0  0
   -0.3785    9.6311   14.3772 C   0  0  0  0  0  0  0  0  0  0  0  0
   -2.6870    6.0236   14.4459 C   0  0  0  0  0  0  0  0  0  0  0  0
   -4.0321    5.9856   14.7706 C   0  0  0  0  0  0  0  0  0  0  0  0
   -4.7232    4.7855   14.7738 C   0  0  0  0  0  0  0  0  0  0  0  0
   -4.0823    3.5947   14.4616 C   0  0  0  0  0  0  0  0  0  0  0  0
   -2.7388    3.6328   14.1266 C   0  0  0  0  0  0  0  0  0  0  0  0
   -2.0564    4.8329   14.1008 C   0  0  0  0  0  0  0  0  0  0  0  0
   -4.8505    2.2865   14.5023 C   0  0  0  0  0  0  0  0  0  0  0  0
   -4.2378    0.4376   12.8867 C   0  0  0  0  0  0  0  0  0  0  0  0
   -4.3343    0.2542   11.5300 C   0  0  0  0  0  0  0  0  0  0  0  0
   -4.9849    1.3977   11.0627 C   0  0  0  0  0  0  0  0  0  0  0  0
   -4.7984    1.6381   13.1654 N   0  0  0  0  0  0  0  0  0  0  0  0
   -5.2881    2.2434   12.0482 N   0  0  0  0  0  0  0  0  0  0  0  0
    0.7199   11.0418   14.4793 S   0  0  0  0  0  0  0  0  0  0  0  0
    1.5830   11.0853   13.2190 O   0  0  0  0  0  0  0  0  0  0  0  0
   -0.1142   12.2097   14.6434 O   0  0  0  0  0  0  0  0  0  0  0  0
    1.5863   10.8033   15.6903 N   0  0  0  0  0  0  0  0  0  0  0  0
    2.1600    9.9734   15.5398 H   0  0  0  0  0  0  0  0  0  0  0  0
    0.9948   10.6637   16.5095 H   0  0  0  0  0  0  0  0  0  0  0  0
 14 15  2  0  0  0
 14 17  1  0  0  0
 15 16  1  0  0  0
 17 13  1  0  0  0
 17 18  1  0  0  0
 11 12  2  0  0  0
 11 10  1  0  0  0
 13 10  1  0  0  0
 16 18  2  0  0  0
 12  7  1  0  0  0
 10  9  2  0  0  0
  7  3  1  0  0  0
  7  8  2  0  0  0
  9  8  1  0  0  0
  3  4  2  0  0  0
  3  2  1  0  0  0
  4  5  1  0  0  0
  2  1  2  0  0  0
  5  6  2  0  0  0
  1  6  1  0  0  0
  6 19  1  0  0  0
 20 19  2  0  0  0
 22 19  1  0  0  0
 19 21  2  0  0  0
 22 23  1  0  0  0
 22 24  1  0  0  0
M  END
> <minimizedAffinity>
-7.00746

$$$$
5N1R_8GH_A_303


 24 26  0  0  0  0  0  0  0  0999 V2000
   -1.1653    9.1676   12.7925 C   0  0  0  0  0  0  0  0  0  0  0  0
   -1.7131    7.9073   12.9948 C   0  0  0  0  0  0  0  0  0  0  0  0
   -1.9879    7.4240   14.2678 C   0  0  0  0  0  0  0  0  0  0  0  0
   -1.6331    8.2381   15.3632 C   0  0  0  0  0  0  0  0  0  0  0  0
   -1.0665    9.4972   15.1687 C   0  0  0  0  0  0  0  0  0  0  0  0
   -0.8531    9.9715   13.8785 C   0  0  0  0  0  0  0  0  0  0  0  0
   -2.7333    6.1585   14.4020 C   0  0  0  0  0  0  0  0  0  0  0  0
   -4.0649    6.1449   14.7796 C   0  0  0  0  0  0  0  0  0  0  0  0
   -4.7788    4.9584   14.8047 C   0  0  0  0  0  0  0  0  0  0  0  0
   -4.1743    3.7571   14.4616 C   0  0  0  0  0  0  0  0  0  0  0  0
   -2.8446    3.7709   14.0737 C   0  0  0  0  0  0  0  0  0  0  0  0
   -2.1403    4.9577   14.0265 C   0  0  0  0  0  0  0  0  0  0  0  0
   -4.9659    2.4639   14.5266 C   0  0  0  0  0  0  0  0  0  0  0  0
   -4.2273    0.5661   13.0244 C   0  0  0  0  0  0  0  0  0  0  0  0
   -4.2892    0.3049   11.6784 C   0  0  0  0  0  0  0  0  0  0  0  0
   -4.9904    1.3851   11.1392 C   0  0  0  0  0  0  0  0  0  0  0  0
   -4.8553    1.7482   13.2282 N   0  0  0  0  0  0  0  0  0  0  0  0
   -5.3556    2.2652   12.0721 N   0  0  0  0  0  0  0  0  0  0  0  0
   -0.2588   11.6400   13.6143 S   0  0  0  0  0  0  0  0  0  0  0  0
   -1.4107   12.6157   13.8518 O   0  0  0  0  0  0  0  0  0  0  0  0
    0.8528   11.8352   14.5159 O   0  0  0  0  0  0  0  0  0  0  0  0
    0.1785   11.6988   12.1723 N   0  0  0  0  0  0  0  0  0  0  0  0
   -0.6294   11.5574   11.5660 H   0  0  0  0  0  0  0  0  0  0  0  0
    0.8679   10.9680   11.9960 H   0  0  0  0  0  0  0  0  0  0  0  0
 14 15  2  0  0  0
 14 17  1  0  0  0
 15 16  1  0  0  0
 17 13  1  0  0  0
 17 18  1  0  0  0
 11 12  2  0  0  0
 11 10  1  0  0  0
 13 10  1  0  0  0
 16 18  2  0  0  0
 12  7  1  0  0  0
 10  9  2  0  0  0
  7  3  1  0  0  0
  7  8  2  0  0  0
  9  8  1  0  0  0
  3  4  2  0  0  0
  3  2  1  0  0  0
  4  5  1  0  0  0
  2  1  2  0  0  0
  5  6  2  0  0  0
  1  6  1  0  0  0
  6 19  1  0  0  0
 20 19  2  0  0  0
 22 19  1  0  0  0
 19 21  2  0  0  0
 22 23  1  0  0  0
 22 24  1  0  0  0
M  END
> <minimizedAffinity>
-6.74934

$$$$
5N1R_8GH_A_303


 24 26  0  0  0  0  0  0  0  0999 V2000
   -4.3200    4.5601   11.4959 C   0  0  0  0  0  0  0  0  0  0  0  0
   -3.9232    5.8156   11.9385 C   0  0  0  0  0  0  0  0  0  0  0  0
   -3.2222    5.9857   13.1256 C   0  0  0  0  0  0  0  0  0  0  0  0
   -2.9764    4.8373   13.9061 C   0  0  0  0  0  0  0  0  0  0  0  0
   -3.3870    3.5757   13.4772 C   0  0  0  0  0  0  0  0  0  0  0  0
   -4.0410    3.4352   12.2574 C   0  0  0  0  0  0  0  0  0  0  0  0
   -2.6762    7.3183   13.4438 C   0  0  0  0  0  0  0  0  0  0  0  0
   -2.3626    7.6750   14.7440 C   0  0  0  0  0  0  0  0  0  0  0  0
   -1.7581    8.8911   15.0154 C   0  0  0  0  0  0  0  0  0  0  0  0
   -1.4621    9.7822   13.9933 C   0  0  0  0  0  0  0  0  0  0  0  0
   -1.7662    9.4219   12.6907 C   0  0  0  0  0  0  0  0  0  0  0  0
   -2.3474    8.1993   12.4190 C   0  0  0  0  0  0  0  0  0  0  0  0
   -0.8288   11.1231   14.3157 C   0  0  0  0  0  0  0  0  0  0  0  0
    1.0214   11.3331   16.0292 C   0  0  0  0  0  0  0  0  0  0  0  0
    2.3528   11.0028   16.0747 C   0  0  0  0  0  0  0  0  0  0  0  0
    2.6019   10.3651   14.8580 C   0  0  0  0  0  0  0  0  0  0  0  0
    0.5486   10.9103   14.8331 N   0  0  0  0  0  0  0  0  0  0  0  0
    1.5097   10.2869   14.0969 N   0  0  0  0  0  0  0  0  0  0  0  0
   -4.4468    1.8077   11.6303 S   0  0  0  0  0  0  0  0  0  0  0  0
   -3.4319    1.4288   10.5526 O   0  0  0  0  0  0  0  0  0  0  0  0
   -4.4424    0.9106   12.7626 O   0  0  0  0  0  0  0  0  0  0  0  0
   -5.8221    1.9302   11.0240 N   0  0  0  0  0  0  0  0  0  0  0  0
   -5.7879    2.5693   10.2298 H   0  0  0  0  0  0  0  0  0  0  0  0
   -6.4710    2.2914   11.7233 H   0  0  0  0  0  0  0  0  0  0  0  0
 14 15  2  0  0  0
 14 17  1  0  0  0
 15 16  1  0  0  0
 17 13  1  0  0  0
 17 18  1  0  0  0
 11 12  2  0  0  0
 11 10  1  0  0  0
 13 10  1  0  0  0
 16 18  2  0  0  0
 12  7  1  0  0  0
 10  9  2  0  0  0
  7  3  1  0  0  0
  7  8  2  0  0  0
  9  8  1  0  0  0
  3  4  2  0  0  0
  3  2  1  0  0  0
  4  5  1  0  0  0
  2  1  2  0  0  0
  5  6  2  0  0  0
  1  6  1  0  0  0
  6 19  1  0  0  0
 20 19  2  0  0  0
 22 19  1  0  0  0
 19 21  2  0  0  0
 22 23  1  0  0  0
 22 24  1  0  0  0
M  END
> <minimizedAffinity>
-6.69240

$$$$
5N1R_8GH_A_303


 24 26  0  0  0  0  0  0  0  0999 V2000
   -3.8656    4.2562   11.5072 C   0  0  0  0  0  0  0  0  0  0  0  0
   -3.3927    5.4546   12.0265 C   0  0  0  0  0  0  0  0  0  0  0  0
   -2.9644    5.5636   13.3434 C   0  0  0  0  0  0  0  0  0  0  0  0
   -3.0830    4.4219   14.1625 C   0  0  0  0  0  0  0  0  0  0  0  0
   -3.5732    3.2201   13.6532 C   0  0  0  0  0  0  0  0  0  0  0  0
   -3.9444    3.1321   12.3154 C   0  0  0  0  0  0  0  0  0  0  0  0
   -2.3078    6.8112   13.7763 C   0  0  0  0  0  0  0  0  0  0  0  0
   -2.6592    7.4351   14.9610 C   0  0  0  0  0  0  0  0  0  0  0  0
   -1.9663    8.5494   15.4038 C   0  0  0  0  0  0  0  0  0  0  0  0
   -0.9121    9.0708   14.6668 C   0  0  0  0  0  0  0  0  0  0  0  0
   -0.5530    8.4413   13.4863 C   0  0  0  0  0  0  0  0  0  0  0  0
   -1.2294    7.3164   13.0577 C   0  0  0  0  0  0  0  0  0  0  0  0
   -0.1867   10.3117   15.1538 C   0  0  0  0  0  0  0  0  0  0  0  0
    0.5708   12.1744   13.6175 C   0  0  0  0  0  0  0  0  0  0  0  0
   -0.0564   13.1328   12.8613 C   0  0  0  0  0  0  0  0  0  0  0  0
   -1.4192   12.8767   13.0229 C   0  0  0  0  0  0  0  0  0  0  0  0
   -0.3994   11.4223   14.1885 N   0  0  0  0  0  0  0  0  0  0  0  0
   -1.6446   11.8285   13.8160 N   0  0  0  0  0  0  0  0  0  0  0  0
   -4.4408    1.5604   11.6154 S   0  0  0  0  0  0  0  0  0  0  0  0
   -3.4227    1.1524   10.5513 O   0  0  0  0  0  0  0  0  0  0  0  0
   -4.5303    0.6243   12.7119 O   0  0  0  0  0  0  0  0  0  0  0  0
   -5.7863    1.7993   10.9777 N   0  0  0  0  0  0  0  0  0  0  0  0
   -5.6856    2.4632   10.2098 H   0  0  0  0  0  0  0  0  0  0  0  0
   -6.4295    2.1784   11.6727 H   0  0  0  0  0  0  0  0  0  0  0  0
 14 15  2  0  0  0
 14 17  1  0  0  0
 15 16  1  0  0  0
 17 13  1  0  0  0
 17 18  1  0  0  0
 11 12  2  0  0  0
 11 10  1  0  0  0
 13 10  1  0  0  0
 16 18  2  0  0  0
 12  7  1  0  0  0
 10  9  2  0  0  0
  7  3  1  0  0  0
  7  8  2  0  0  0
  9  8  1  0  0  0
  3  4  2  0  0  0
  3  2  1  0  0  0
  4  5  1  0  0  0
  2  1  2  0  0  0
  5  6  2  0  0  0
  1  6  1  0  0  0
  6 19  1  0  0  0
 20 19  2  0  0  0
 22 19  1  0  0  0
 19 21  2  0  0  0
 22 23  1  0  0  0
 22 24  1  0  0  0
M  END
> <minimizedAffinity>
-6.58451

$$$$
