5OM3_DXT_B_501


 39 42  0  0  0  0  0  0  0  0999 V2000
   -2.7938   15.4444  -15.8992 C   0  0  0  0  0  0  0  0  0  0  0  0
   -1.6597   15.8670  -16.0583 O   0  0  0  0  0  0  0  0  0  0  0  0
   -3.4259   14.4652  -16.7700 C   0  0  0  0  0  0  0  0  0  0  0  0
   -4.6902   14.0089  -16.6462 C   0  0  0  0  0  0  0  0  0  0  0  0
   -5.4862   13.7702  -17.7111 O   0  0  0  0  0  0  0  0  0  0  0  0
   -5.5450   14.2963  -15.4285 C   0  0  0  0  0  0  0  0  0  0  0  0
   -5.1451   15.6705  -14.7522 C   0  0  0  0  0  0  0  0  0  0  0  0
   -6.0067   16.7812  -15.4498 C   0  0  0  0  0  0  0  0  0  0  0  0
   -7.3641   16.4312  -15.3744 O   0  0  0  0  0  0  0  0  0  0  0  0
   -5.7499   18.2338  -14.9260 C   0  0  0  0  0  0  0  0  0  0  0  0
   -6.2677   19.3846  -15.8693 C   0  0  0  0  0  0  0  0  0  0  0  0
   -7.7306   19.2656  -16.2218 C   0  0  0  0  0  0  0  0  0  0  0  0
   -5.9944   20.7383  -15.2831 C   0  0  0  0  0  0  0  0  0  0  0  0
   -6.8513   21.8079  -15.5070 C   0  0  0  0  0  0  0  0  0  0  0  0
   -6.5982   23.0722  -14.9688 C   0  0  0  0  0  0  0  0  0  0  0  0
   -5.4854   23.3005  -14.1872 C   0  0  0  0  0  0  0  0  0  0  0  0
   -4.6127   22.2197  -13.9544 C   0  0  0  0  0  0  0  0  0  0  0  0
   -3.5355   22.5118  -13.1748 O   0  0  0  0  0  0  0  0  0  0  0  0
   -4.8597   20.9451  -14.4977 C   0  0  0  0  0  0  0  0  0  0  0  0
   -3.9321   19.8451  -14.2339 C   0  0  0  0  0  0  0  0  0  0  0  0
   -2.8490   20.0324  -13.6489 O   0  0  0  0  0  0  0  0  0  0  0  0
   -4.2918   18.4840  -14.6687 C   0  0  0  0  0  0  0  0  0  0  0  0
   -3.3554   17.5121  -14.5288 C   0  0  0  0  0  0  0  0  0  0  0  0
   -2.1577   17.6704  -13.9558 O   0  0  0  0  0  0  0  0  0  0  0  0
   -3.5842   15.9856  -14.6835 C   0  0  0  0  0  0  0  0  0  0  0  0
   -3.0621   15.4149  -13.5279 O   0  0  0  0  0  0  0  0  0  0  0  0
   -5.1068   13.5750  -18.5453 H   0  0  0  0  0  0  0  0  0  0  0  0
   -7.6390   16.4009  -14.4447 H   0  0  0  0  0  0  0  0  0  0  0  0
   -3.4212   23.3793  -12.8396 H   0  0  0  0  0  0  0  0  0  0  0  0
   -1.8343   18.5313  -13.7763 H   0  0  0  0  0  0  0  0  0  0  0  0
   -3.1752   14.4522  -13.5632 H   0  0  0  0  0  0  0  0  0  0  0  0
   -2.0401   13.1924  -18.3185 O   0  0  0  0  0  0  0  0  0  0  0  0
   -2.7331   14.1818  -18.0782 C   0  0  0  0  0  0  0  0  0  0  0  0
   -2.9476   15.1758  -19.0269 N   0  0  0  0  0  0  0  0  0  0  0  0
   -3.5066   15.9553  -18.8054 H   0  0  0  0  0  0  0  0  0  0  0  0
   -2.5403   15.1000  -19.9200 H   0  0  0  0  0  0  0  0  0  0  0  0
   -5.6466   13.0384  -14.4640 N   0  0  0  0  0  0  0  0  0  0  0  0
   -6.4761   11.9259  -15.0331 C   0  0  0  0  0  0  0  0  0  0  0  0
   -6.2940   13.4412  -13.1644 C   0  0  0  0  0  0  0  0  0  0  0  0
  1 25  1  0  0  0
  1  2  2  0  0  0
  1  3  1  0  0  0
  3 33  1  0  0  0
  3  4  2  0  0  0
 32 33  2  0  0  0
 33 34  1  0  0  0
  4  5  1  0  0  0
  4  6  1  0  0  0
  6 37  1  0  0  0
  6  7  1  0  0  0
 37 38  1  0  0  0
 37 39  1  0  0  0
  7 25  1  0  0  0
  7  8  1  0  0  0
  8  9  1  0  0  0
  8 10  1  0  0  0
 10 22  1  0  0  0
 10 11  1  0  0  0
 11 13  1  0  0  0
 11 12  1  0  0  0
 13 19  1  0  0  0
 13 14  2  0  0  0
 14 15  1  0  0  0
 15 16  2  0  0  0
 16 17  1  0  0  0
 17 18  1  0  0  0
 17 19  2  0  0  0
 19 20  1  0  0  0
 20 21  2  0  0  0
 20 22  1  0  0  0
 22 23  2  0  0  0
 23 24  1  0  0  0
 23 25  1  0  0  0
 25 26  1  0  0  0
 34 35  1  0  0  0
 34 36  1  0  0  0
  5 27  1  0  0  0
  9 28  1  0  0  0
 18 29  1  0  0  0
 24 30  1  0  0  0
 26 31  1  0  0  0
M  END
> <minimizedAffinity>
-12.21988

$$$$
5OM3_DXT_B_501


 39 42  0  0  0  0  0  0  0  0999 V2000
   -3.7469   14.4901  -16.0940 C   0  0  0  0  0  0  0  0  0  0  0  0
   -2.5674   14.7175  -16.3113 O   0  0  0  0  0  0  0  0  0  0  0  0
   -4.5741   13.6262  -16.9223 C   0  0  0  0  0  0  0  0  0  0  0  0
   -5.8891   13.3872  -16.7337 C   0  0  0  0  0  0  0  0  0  0  0  0
   -6.7642   13.2799  -17.7571 O   0  0  0  0  0  0  0  0  0  0  0  0
   -6.6245   13.8178  -15.4809 C   0  0  0  0  0  0  0  0  0  0  0  0
   -5.9698   15.1091  -14.8407 C   0  0  0  0  0  0  0  0  0  0  0  0
   -6.6678   16.3447  -15.5105 C   0  0  0  0  0  0  0  0  0  0  0  0
   -8.0592   16.2258  -15.3672 O   0  0  0  0  0  0  0  0  0  0  0  0
   -6.1484   17.7366  -15.0169 C   0  0  0  0  0  0  0  0  0  0  0  0
   -6.5129   18.9535  -15.9486 C   0  0  0  0  0  0  0  0  0  0  0  0
   -7.9906   19.0781  -16.2306 C   0  0  0  0  0  0  0  0  0  0  0  0
   -5.9907   20.2453  -15.3924 C   0  0  0  0  0  0  0  0  0  0  0  0
   -6.6681   21.4417  -15.5887 C   0  0  0  0  0  0  0  0  0  0  0  0
   -6.1828   22.6484  -15.0783 C   0  0  0  0  0  0  0  0  0  0  0  0
   -5.0112   22.6916  -14.3527 C   0  0  0  0  0  0  0  0  0  0  0  0
   -4.3197   21.4816  -14.1480 C   0  0  0  0  0  0  0  0  0  0  0  0
   -3.1726   21.5936  -13.4235 O   0  0  0  0  0  0  0  0  0  0  0  0
   -4.8008   20.2637  -14.6637 C   0  0  0  0  0  0  0  0  0  0  0  0
   -4.0571   19.0257  -14.4305 C   0  0  0  0  0  0  0  0  0  0  0  0
   -2.9309   19.0326  -13.8992 O   0  0  0  0  0  0  0  0  0  0  0  0
   -4.6583   17.7417  -14.8314 C   0  0  0  0  0  0  0  0  0  0  0  0
   -3.8906   16.6281  -14.7239 C   0  0  0  0  0  0  0  0  0  0  0  0
   -2.6570   16.5873  -14.2096 O   0  0  0  0  0  0  0  0  0  0  0  0
   -4.3768   15.1603  -14.8492 C   0  0  0  0  0  0  0  0  0  0  0  0
   -3.9015   14.5155  -13.7126 O   0  0  0  0  0  0  0  0  0  0  0  0
   -6.4631   13.0208  -18.6058 H   0  0  0  0  0  0  0  0  0  0  0  0
   -8.2900   16.2455  -14.4253 H   0  0  0  0  0  0  0  0  0  0  0  0
   -2.8999   22.4314  -13.1045 H   0  0  0  0  0  0  0  0  0  0  0  0
   -2.1869   17.3831  -14.0560 H   0  0  0  0  0  0  0  0  0  0  0  0
   -4.1744   13.5848  -13.7309 H   0  0  0  0  0  0  0  0  0  0  0  0
   -3.9927   12.0829  -18.7164 O   0  0  0  0  0  0  0  0  0  0  0  0
   -4.0020   13.2261  -18.2580 C   0  0  0  0  0  0  0  0  0  0  0  0
   -3.4587   14.3005  -18.9542 N   0  0  0  0  0  0  0  0  0  0  0  0
   -3.4810   15.2032  -18.5618 H   0  0  0  0  0  0  0  0  0  0  0  0
   -3.0518   14.1585  -19.8394 H   0  0  0  0  0  0  0  0  0  0  0  0
   -6.8868   12.5982  -14.4974 N   0  0  0  0  0  0  0  0  0  0  0  0
   -7.6235   11.4655  -15.1483 C   0  0  0  0  0  0  0  0  0  0  0  0
   -7.7291   13.0518  -13.3334 C   0  0  0  0  0  0  0  0  0  0  0  0
  1 25  1  0  0  0
  1  2  2  0  0  0
  1  3  1  0  0  0
  3 33  1  0  0  0
  3  4  2  0  0  0
 32 33  2  0  0  0
 33 34  1  0  0  0
  4  5  1  0  0  0
  4  6  1  0  0  0
  6 37  1  0  0  0
  6  7  1  0  0  0
 37 38  1  0  0  0
 37 39  1  0  0  0
  7 25  1  0  0  0
  7  8  1  0  0  0
  8  9  1  0  0  0
  8 10  1  0  0  0
 10 22  1  0  0  0
 10 11  1  0  0  0
 11 13  1  0  0  0
 11 12  1  0  0  0
 13 19  1  0  0  0
 13 14  2  0  0  0
 14 15  1  0  0  0
 15 16  2  0  0  0
 16 17  1  0  0  0
 17 18  1  0  0  0
 17 19  2  0  0  0
 19 20  1  0  0  0
 20 21  2  0  0  0
 20 22  1  0  0  0
 22 23  2  0  0  0
 23 24  1  0  0  0
 23 25  1  0  0  0
 25 26  1  0  0  0
 34 35  1  0  0  0
 34 36  1  0  0  0
  5 27  1  0  0  0
  9 28  1  0  0  0
 18 29  1  0  0  0
 24 30  1  0  0  0
 26 31  1  0  0  0
M  END
> <minimizedAffinity>
-11.53905

$$$$
5OM3_DXT_B_501


 39 42  0  0  0  0  0  0  0  0999 V2000
   -7.4826   13.0979  -14.7224 C   0  0  0  0  0  0  0  0  0  0  0  0
   -8.6123   13.2533  -14.2868 O   0  0  0  0  0  0  0  0  0  0  0  0
   -6.5175   12.1634  -14.1639 C   0  0  0  0  0  0  0  0  0  0  0  0
   -5.2493   11.9975  -14.5951 C   0  0  0  0  0  0  0  0  0  0  0  0
   -4.2146   11.7890  -13.7522 O   0  0  0  0  0  0  0  0  0  0  0  0
   -4.7388   12.6129  -15.8821 C   0  0  0  0  0  0  0  0  0  0  0  0
   -5.5080   13.9526  -16.2277 C   0  0  0  0  0  0  0  0  0  0  0  0
   -4.7247   15.1146  -15.5215 C   0  0  0  0  0  0  0  0  0  0  0  0
   -3.3752   15.0645  -15.9049 O   0  0  0  0  0  0  0  0  0  0  0  0
   -5.3375   16.5395  -15.7326 C   0  0  0  0  0  0  0  0  0  0  0  0
   -4.8389   17.6372  -14.7183 C   0  0  0  0  0  0  0  0  0  0  0  0
   -3.3367   17.7761  -14.6675 C   0  0  0  0  0  0  0  0  0  0  0  0
   -5.4636   18.9711  -15.0035 C   0  0  0  0  0  0  0  0  0  0  0  0
   -4.7790   20.1549  -14.7620 C   0  0  0  0  0  0  0  0  0  0  0  0
   -5.3585   21.3998  -15.0198 C   0  0  0  0  0  0  0  0  0  0  0  0
   -6.6351   21.4956  -15.5319 C   0  0  0  0  0  0  0  0  0  0  0  0
   -7.3349   20.2988  -15.7811 C   0  0  0  0  0  0  0  0  0  0  0  0
   -8.5881   20.4635  -16.2868 O   0  0  0  0  0  0  0  0  0  0  0  0
   -6.7585   19.0420  -15.5189 C   0  0  0  0  0  0  0  0  0  0  0  0
   -7.5142   17.8193  -15.7912 C   0  0  0  0  0  0  0  0  0  0  0  0
   -8.7131   17.8555  -16.1256 O   0  0  0  0  0  0  0  0  0  0  0  0
   -6.8376   16.5161  -15.6697 C   0  0  0  0  0  0  0  0  0  0  0  0
   -7.5976   15.3995  -15.7986 C   0  0  0  0  0  0  0  0  0  0  0  0
   -8.8990   15.3824  -16.1051 O   0  0  0  0  0  0  0  0  0  0  0  0
   -7.0779   13.9460  -15.9523 C   0  0  0  0  0  0  0  0  0  0  0  0
   -7.7274   13.4380  -17.0720 O   0  0  0  0  0  0  0  0  0  0  0  0
   -4.3665   11.4114  -12.9082 H   0  0  0  0  0  0  0  0  0  0  0  0
   -3.3048   15.2145  -16.8606 H   0  0  0  0  0  0  0  0  0  0  0  0
   -8.9212   21.3255  -16.4417 H   0  0  0  0  0  0  0  0  0  0  0  0
   -9.3987   16.1743  -16.0718 H   0  0  0  0  0  0  0  0  0  0  0  0
   -7.4430   12.5231  -17.2234 H   0  0  0  0  0  0  0  0  0  0  0  0
   -6.2961   11.8542  -11.7568 O   0  0  0  0  0  0  0  0  0  0  0  0
   -6.8537   11.5731  -12.8184 C   0  0  0  0  0  0  0  0  0  0  0  0
   -7.8853   10.6425  -12.8818 N   0  0  0  0  0  0  0  0  0  0  0  0
   -8.3119   10.4385  -13.7453 H   0  0  0  0  0  0  0  0  0  0  0  0
   -8.1889   10.1876  -12.0631 H   0  0  0  0  0  0  0  0  0  0  0  0
   -4.6279   11.5416  -17.0496 N   0  0  0  0  0  0  0  0  0  0  0  0
   -3.3572   10.7463  -16.9997 C   0  0  0  0  0  0  0  0  0  0  0  0
   -4.6523   12.2370  -18.3860 C   0  0  0  0  0  0  0  0  0  0  0  0
  1 25  1  0  0  0
  1  2  2  0  0  0
  1  3  1  0  0  0
  3 33  1  0  0  0
  3  4  2  0  0  0
 32 33  2  0  0  0
 33 34  1  0  0  0
  4  5  1  0  0  0
  4  6  1  0  0  0
  6 37  1  0  0  0
  6  7  1  0  0  0
 37 38  1  0  0  0
 37 39  1  0  0  0
  7 25  1  0  0  0
  7  8  1  0  0  0
  8  9  1  0  0  0
  8 10  1  0  0  0
 10 22  1  0  0  0
 10 11  1  0  0  0
 11 13  1  0  0  0
 11 12  1  0  0  0
 13 19  1  0  0  0
 13 14  2  0  0  0
 14 15  1  0  0  0
 15 16  2  0  0  0
 16 17  1  0  0  0
 17 18  1  0  0  0
 17 19  2  0  0  0
 19 20  1  0  0  0
 20 21  2  0  0  0
 20 22  1  0  0  0
 22 23  2  0  0  0
 23 24  1  0  0  0
 23 25  1  0  0  0
 25 26  1  0  0  0
 34 35  1  0  0  0
 34 36  1  0  0  0
  5 27  1  0  0  0
  9 28  1  0  0  0
 18 29  1  0  0  0
 24 30  1  0  0  0
 26 31  1  0  0  0
M  END
> <minimizedAffinity>
-9.78582

$$$$
5OM3_DXT_B_501


 39 42  0  0  0  0  0  0  0  0999 V2000
   -5.4373   14.0163  -14.8619 C   0  0  0  0  0  0  0  0  0  0  0  0
   -6.6386   14.0143  -14.6448 O   0  0  0  0  0  0  0  0  0  0  0  0
   -4.4942   13.1121  -14.2218 C   0  0  0  0  0  0  0  0  0  0  0  0
   -3.1574   13.1158  -14.4082 C   0  0  0  0  0  0  0  0  0  0  0  0
   -2.2810   12.9008  -13.4030 O   0  0  0  0  0  0  0  0  0  0  0  0
   -2.4886   13.9275  -15.4990 C   0  0  0  0  0  0  0  0  0  0  0  0
   -3.3259   15.2239  -15.8513 C   0  0  0  0  0  0  0  0  0  0  0  0
   -2.8237   16.3573  -14.8891 C   0  0  0  0  0  0  0  0  0  0  0  0
   -1.4295   16.4770  -15.0009 O   0  0  0  0  0  0  0  0  0  0  0  0
   -3.5430   17.7358  -15.0705 C   0  0  0  0  0  0  0  0  0  0  0  0
   -3.3689   18.7422  -13.8709 C   0  0  0  0  0  0  0  0  0  0  0  0
   -1.9278   19.0097  -13.5098 C   0  0  0  0  0  0  0  0  0  0  0  0
   -4.0757   20.0387  -14.1362 C   0  0  0  0  0  0  0  0  0  0  0  0
   -3.5857   21.2414  -13.6443 C   0  0  0  0  0  0  0  0  0  0  0  0
   -4.2435   22.4508  -13.8831 C   0  0  0  0  0  0  0  0  0  0  0  0
   -5.4049   22.4921  -14.6251 C   0  0  0  0  0  0  0  0  0  0  0  0
   -5.9067   21.2761  -15.1288 C   0  0  0  0  0  0  0  0  0  0  0  0
   -7.0542   21.3869  -15.8529 O   0  0  0  0  0  0  0  0  0  0  0  0
   -5.2514   20.0542  -14.8876 C   0  0  0  0  0  0  0  0  0  0  0  0
   -5.8006   18.8104  -15.4276 C   0  0  0  0  0  0  0  0  0  0  0  0
   -6.9126   18.7781  -15.9870 O   0  0  0  0  0  0  0  0  0  0  0  0
   -5.0162   17.5689  -15.3084 C   0  0  0  0  0  0  0  0  0  0  0  0
   -5.6082   16.4121  -15.6985 C   0  0  0  0  0  0  0  0  0  0  0  0
   -6.8194   16.3144  -16.2566 O   0  0  0  0  0  0  0  0  0  0  0  0
   -4.9087   15.0414  -15.8940 C   0  0  0  0  0  0  0  0  0  0  0  0
   -5.2768   14.6170  -17.1660 O   0  0  0  0  0  0  0  0  0  0  0  0
   -2.5440   12.4108  -12.6489 H   0  0  0  0  0  0  0  0  0  0  0  0
   -1.1996   16.7483  -15.9034 H   0  0  0  0  0  0  0  0  0  0  0  0
   -7.4475   22.2275  -15.9818 H   0  0  0  0  0  0  0  0  0  0  0  0
   -7.4024   17.0478  -16.2421 H   0  0  0  0  0  0  0  0  0  0  0  0
   -4.8679   13.7570  -17.3509 H   0  0  0  0  0  0  0  0  0  0  0  0
   -4.6642   11.1907  -12.7326 O   0  0  0  0  0  0  0  0  0  0  0  0
   -5.0065   12.3340  -13.0370 C   0  0  0  0  0  0  0  0  0  0  0  0
   -5.9405   13.0441  -12.2902 N   0  0  0  0  0  0  0  0  0  0  0  0
   -6.1942   13.9567  -12.5585 H   0  0  0  0  0  0  0  0  0  0  0  0
   -6.3478   12.6341  -11.4932 H   0  0  0  0  0  0  0  0  0  0  0  0
   -2.0422   13.0211  -16.7247 N   0  0  0  0  0  0  0  0  0  0  0  0
   -0.7409   12.3133  -16.4900 C   0  0  0  0  0  0  0  0  0  0  0  0
   -1.8562   13.8756  -17.9517 C   0  0  0  0  0  0  0  0  0  0  0  0
  1 25  1  0  0  0
  1  2  2  0  0  0
  1  3  1  0  0  0
  3 33  1  0  0  0
  3  4  2  0  0  0
 32 33  2  0  0  0
 33 34  1  0  0  0
  4  5  1  0  0  0
  4  6  1  0  0  0
  6 37  1  0  0  0
  6  7  1  0  0  0
 37 38  1  0  0  0
 37 39  1  0  0  0
  7 25  1  0  0  0
  7  8  1  0  0  0
  8  9  1  0  0  0
  8 10  1  0  0  0
 10 22  1  0  0  0
 10 11  1  0  0  0
 11 13  1  0  0  0
 11 12  1  0  0  0
 13 19  1  0  0  0
 13 14  2  0  0  0
 14 15  1  0  0  0
 15 16  2  0  0  0
 16 17  1  0  0  0
 17 18  1  0  0  0
 17 19  2  0  0  0
 19 20  1  0  0  0
 20 21  2  0  0  0
 20 22  1  0  0  0
 22 23  2  0  0  0
 23 24  1  0  0  0
 23 25  1  0  0  0
 25 26  1  0  0  0
 34 35  1  0  0  0
 34 36  1  0  0  0
  5 27  1  0  0  0
  9 28  1  0  0  0
 18 29  1  0  0  0
 24 30  1  0  0  0
 26 31  1  0  0  0
M  END
> <minimizedAffinity>
-9.49976

$$$$
