5OM3_DXT_B_501
  RCSB PDB05261800243D
Coordinates from PDB:5OM3:B:501 Model:1 without hydrogens
 32 35  0  0  0  0            999 V2000
   -2.2350   16.2960  -15.9050   C 0  0  0  0  0  0  0  0  0  0  0  0
   -1.1540   16.8630  -15.8970   O 0  0  0  0  0  0  0  0  0  0  0  0
   -2.6350   15.3230  -16.9100   C 0  0  0  0  0  0  0  0  0  0  0  0
   -0.6960   15.8140  -18.3020   O 0  0  0  0  0  0  0  0  0  0  0  0
   -1.7700   15.2330  -18.1410   C 0  0  0  0  0  0  0  0  0  0  0  0
   -2.3130   14.4090  -19.1210   N 0  0  0  0  0  0  0  0  0  0  0  0
   -3.8360   14.7100  -16.9710   C 0  0  0  0  0  0  0  0  0  0  0  0
   -4.4710   14.4660  -18.1380   O 0  0  0  0  0  0  0  0  0  0  0  0
   -4.8510   14.7920  -15.8490   C 0  0  0  0  0  0  0  0  0  0  0  0
   -4.8970   13.4560  -14.9910   N 0  0  0  0  0  0  0  0  0  0  0  0
   -3.6670   13.2490  -14.1580   C 0  0  0  0  0  0  0  0  0  0  0  0
   -5.0070   12.2640  -15.9060   C 0  0  0  0  0  0  0  0  0  0  0  0
   -4.7090   16.1440  -15.0380   C 0  0  0  0  0  0  0  0  0  0  0  0
   -5.6230   17.1970  -15.7580   C 0  0  0  0  0  0  0  0  0  0  0  0
   -6.9240   16.6820  -15.8710   O 0  0  0  0  0  0  0  0  0  0  0  0
   -5.6150   18.6220  -15.1100   C 0  0  0  0  0  0  0  0  0  0  0  0
   -6.1680   19.7760  -16.0290   C 0  0  0  0  0  0  0  0  0  0  0  0
   -7.5550   19.5120  -16.5630   C 0  0  0  0  0  0  0  0  0  0  0  0
   -6.1380   21.1000  -15.3240   C 0  0  0  0  0  0  0  0  0  0  0  0
   -7.0950   22.0740  -15.5770   C 0  0  0  0  0  0  0  0  0  0  0  0
   -7.0680   23.3110  -14.9280   C 0  0  0  0  0  0  0  0  0  0  0  0
   -6.0880   23.6060  -14.0040   C 0  0  0  0  0  0  0  0  0  0  0  0
   -5.1150   22.6220  -13.7410   C 0  0  0  0  0  0  0  0  0  0  0  0
   -4.1780   22.9760  -12.8190   O 0  0  0  0  0  0  0  0  0  0  0  0
   -5.1340   21.3760  -14.3950   C 0  0  0  0  0  0  0  0  0  0  0  0
   -4.1080   20.3770  -14.0960   C 0  0  0  0  0  0  0  0  0  0  0  0
   -3.1300   20.6440  -13.3730   O 0  0  0  0  0  0  0  0  0  0  0  0
   -4.2390   19.0230  -14.6620   C 0  0  0  0  0  0  0  0  0  0  0  0
   -3.2070   18.1620  -14.4760   C 0  0  0  0  0  0  0  0  0  0  0  0
   -2.1110   18.4150  -13.7530   O 0  0  0  0  0  0  0  0  0  0  0  0
   -3.2190   16.6370  -14.7600   C 0  0  0  0  0  0  0  0  0  0  0  0
   -2.7600   16.0400  -13.5910   O 0  0  0  0  0  0  0  0  0  0  0  0
  1 31  1  0  0  0  0
  1  2  2  0  0  0  0
  1  3  1  0  0  0  0
  3  5  1  0  0  0  0
  3  7  2  0  0  0  0
  4  5  2  0  0  0  0
  5  6  1  0  0  0  0
  7  8  1  0  0  0  0
  7  9  1  0  0  0  0
  9 10  1  0  0  0  0
  9 13  1  0  0  0  0
 10 11  1  0  0  0  0
 10 12  1  0  0  0  0
 13 31  1  0  0  0  0
 13 14  1  0  0  0  0
 14 15  1  0  0  0  0
 14 16  1  0  0  0  0
 16 28  1  0  0  0  0
 16 17  1  0  0  0  0
 17 19  1  0  0  0  0
 17 18  1  0  0  0  0
 19 25  1  0  0  0  0
 19 20  2  0  0  0  0
 20 21  1  0  0  0  0
 21 22  2  0  0  0  0
 22 23  1  0  0  0  0
 23 24  1  0  0  0  0
 23 25  2  0  0  0  0
 25 26  1  0  0  0  0
 26 27  2  0  0  0  0
 26 28  1  0  0  0  0
 28 29  2  0  0  0  0
 29 30  1  0  0  0  0
 29 31  1  0  0  0  0
 31 32  1  0  0  0  0
A    1
C1
A    2
O1
A    3
C2
A    4
O21
A    5
C21
A    6
N21
A    7
C3
A    8
O3
A    9
C4
A   10
N4
A   11
C41
A   12
C42
A   13
C4A
A   14
C5
A   15
O5
A   16
C5A
A   17
C6
A   18
C61
A   19
C6A
A   20
C7
A   21
C8
A   22
C9
A   23
C10
A   24
O10
A   25
C6B
A   26
C11
A   27
O11
A   28
C5B
A   29
C12
A   30
O12
A   31
C4B
A   32
O13
M  END
>  <InstanceId>
5OM3_DXT_B_501

>  <ChemCompId>
DXT

>  <PdbId>
5OM3

>  <ChainId>
B

>  <ResidueNumber>
501

>  <InsertionCode>


>  <Model>
1

>  <AltIds>


>  <MissingHeavyAtoms>
0

>  <ObservedFormula>
C22 N2 O8

>  <Name>
(4S,4AR,5S,5AR,6R,12AS)-4-(DIMETHYLAMINO)-3,5,10,12,12A-PENTAHYDROXY-6-METHYL-1,11-DIOXO-1,4,4A,5,5A,6,11,12A-OCTAHYDROTETRACENE-2-CARBOXAMIDE

>  <SystematicName>
(4S,4aR,5S,5aR,6R,12aS)-4-dimethylamino-3,5,10,12,12a-pentahydroxy-6-methyl-1,11-dioxo-4a,5,5a,6-tetrahydro-4H-tetracene-2-carboxamide

>  <Synonyms>
DOXYTETRACYCLINE, DOXYCYCLINE

>  <Type>
NON-POLYMER

>  <Formula>
C22 H24 N2 O8

>  <MolecularWeight>
444.435

>  <ModifiedDate>
2011-06-04

>  <Parent>


>  <OneLetterCode>


>  <SubcomponentList>


>  <AmbiguousFlag>


>  <InChI>
InChI=1S/C22H24N2O8/c1-7-8-5-4-6-9(25)11(8)16(26)12-10(7)17(27)14-15(24(2)3)18(28)13(21(23)31)20(30)22(14,32)19(12)29/h4-7,10,14-15,17,25,27-29,32H,1-3H3,(H2,23,31)/t7-,10+,14+,15-,17-,22-/m0/s1

>  <InChIKey>
JBIWCJUYHHGXTC-AKNGSSGZSA-N

>  <SMILES>
C[C@H]1c2cccc(c2C(=O)C3=C([C@]4([C@@H]([C@H]([C@H]13)O)[C@@H](C(=C(C4=O)C(=O)N)O)N(C)C)O)O)O

$$$$
