2QBR_910_A_800


 31 33  0  0  0  0  0  0  0  0999 V2000
   44.4054   15.4128    1.7216 S   0  0  0  0  0  0  0  0  0  0  0  0
   45.2446   16.0473    3.0668 C   0  0  0  0  0  0  0  0  0  0  0  0
   46.2812   15.1526    3.4436 C   0  0  0  0  0  0  0  0  0  0  0  0
   46.3200   14.0104    2.5983 C   0  0  0  0  0  0  0  0  0  0  0  0
   45.3286   14.0096    1.5839 C   0  0  0  0  0  0  0  0  0  0  0  0
   47.5973   12.6328    2.8453 Br  0  0  0  0  0  0  0  0  0  0  0  0
   45.0439   12.9967    0.5172 C   0  0  0  0  0  0  0  0  0  0  0  0
   44.8126   13.3912   -0.8443 C   0  0  0  0  0  0  0  0  0  0  0  0
   44.5499   12.4092   -1.8441 C   0  0  0  0  0  0  0  0  0  0  0  0
   44.5144   11.0087   -1.4872 C   0  0  0  0  0  0  0  0  0  0  0  0
   44.7413   10.6043   -0.1295 C   0  0  0  0  0  0  0  0  0  0  0  0
   45.0066   11.6045    0.8615 C   0  0  0  0  0  0  0  0  0  0  0  0
   44.3412   12.8659   -3.1337 N   0  0  0  0  0  0  0  0  0  0  0  0
   44.4175   12.2101   -3.8640 H   0  0  0  0  0  0  0  0  0  0  0  0
   44.0142   14.2536   -3.5013 C   0  0  0  0  0  0  0  0  0  0  0  0
   42.5680   14.6172   -3.2369 C   0  0  0  0  0  0  0  0  0  0  0  0
   41.5207   13.7281   -3.6701 C   0  0  0  0  0  0  0  0  0  0  0  0
   40.1520   14.0622   -3.4196 C   0  0  0  0  0  0  0  0  0  0  0  0
   39.8500   15.2878   -2.7359 C   0  0  0  0  0  0  0  0  0  0  0  0
   40.8926   16.1819   -2.3001 C   0  0  0  0  0  0  0  0  0  0  0  0
   42.2646   15.8419   -2.5530 C   0  0  0  0  0  0  0  0  0  0  0  0
   44.8642   17.2853    3.6318 C   0  0  0  0  0  0  0  0  0  0  0  0
   44.7680   17.4229    4.8499 O   0  0  0  0  0  0  0  0  0  0  0  0
   44.6364   18.2195    2.8564 O   0  0  0  0  0  0  0  0  0  0  0  0
   44.9458   16.6998    5.4186 H   0  0  0  0  0  0  0  0  0  0  0  0
   47.2074   15.3112    4.5318 O   0  0  0  0  0  0  0  0  0  0  0  0
   48.3103   16.1861    4.2695 C   0  0  0  0  0  0  0  0  0  0  0  0
   48.2476   17.3916    5.2062 C   0  0  0  0  0  0  0  0  0  0  0  0
   49.1596   18.2372    5.1687 O   0  0  0  0  0  0  0  0  0  0  0  0
   47.2855   17.4872    5.9736 O   0  0  0  0  0  0  0  0  0  0  0  0
   49.8739   18.1298    4.5720 H   0  0  0  0  0  0  0  0  0  0  0  0
  1  2  1  0  0  0
  1  5  1  0  0  0
  2  3  2  0  0  0
  2 22  1  0  0  0
  3  4  1  0  0  0
  3 26  1  0  0  0
  4  5  2  0  0  0
  4  6  1  0  0  0
  5  7  1  0  0  0
 22 23  1  0  0  0
 22 24  2  0  0  0
  7  8  1  0  0  0
  7 12  2  0  0  0
  8  9  2  0  0  0
  9 10  1  0  0  0
  9 13  1  0  0  0
 10 11  2  0  0  0
 11 12  1  0  0  0
 26 27  1  0  0  0
 27 28  1  0  0  0
 28 29  1  0  0  0
 28 30  2  0  0  0
 13 15  1  0  0  0
 15 16  1  0  0  0
 16 17  2  0  0  0
 16 21  1  0  0  0
 17 18  1  0  0  0
 18 19  2  0  0  0
 19 20  1  0  0  0
 20 21  2  0  0  0
 23 25  1  0  0  0
 29 31  1  0  0  0
 13 14  1  0  0  0
M  END
> <minimizedAffinity>
-8.53842

$$$$
2QBR_910_A_800


 31 33  0  0  0  0  0  0  0  0999 V2000
   44.3614   15.5197    1.6714 S   0  0  0  0  0  0  0  0  0  0  0  0
   45.1928   16.0543    3.0639 C   0  0  0  0  0  0  0  0  0  0  0  0
   46.2324   15.1383    3.3759 C   0  0  0  0  0  0  0  0  0  0  0  0
   46.2797   14.0636    2.4467 C   0  0  0  0  0  0  0  0  0  0  0  0
   45.2918   14.1351    1.4313 C   0  0  0  0  0  0  0  0  0  0  0  0
   47.5627   12.6770    2.5936 Br  0  0  0  0  0  0  0  0  0  0  0  0
   45.0157   13.2047    0.2899 C   0  0  0  0  0  0  0  0  0  0  0  0
   45.0302   11.7796    0.4681 C   0  0  0  0  0  0  0  0  0  0  0  0
   44.7582   10.9133   -0.6312 C   0  0  0  0  0  0  0  0  0  0  0  0
   44.4676   11.4705   -1.9332 C   0  0  0  0  0  0  0  0  0  0  0  0
   44.4535   12.8926   -2.1225 C   0  0  0  0  0  0  0  0  0  0  0  0
   44.7263   13.7479   -1.0060 C   0  0  0  0  0  0  0  0  0  0  0  0
   44.7863    9.5526   -0.3808 N   0  0  0  0  0  0  0  0  0  0  0  0
   44.0155    9.1634    0.0921 H   0  0  0  0  0  0  0  0  0  0  0  0
   45.8762    8.6402   -0.7647 C   0  0  0  0  0  0  0  0  0  0  0  0
   47.1607    8.8888   -0.0019 C   0  0  0  0  0  0  0  0  0  0  0  0
   47.2660    8.4644    1.3707 C   0  0  0  0  0  0  0  0  0  0  0  0
   48.4781    8.6914    2.0967 C   0  0  0  0  0  0  0  0  0  0  0  0
   49.5725    9.3433    1.4350 C   0  0  0  0  0  0  0  0  0  0  0  0
   49.4739    9.7707    0.0625 C   0  0  0  0  0  0  0  0  0  0  0  0
   48.2559    9.5400   -0.6622 C   0  0  0  0  0  0  0  0  0  0  0  0
   44.8045   17.2442    3.7196 C   0  0  0  0  0  0  0  0  0  0  0  0
   44.6576   17.2761    4.9400 O   0  0  0  0  0  0  0  0  0  0  0  0
   44.6225   18.2464    3.0208 O   0  0  0  0  0  0  0  0  0  0  0  0
   44.8014   16.5031    5.4496 H   0  0  0  0  0  0  0  0  0  0  0  0
   47.1540   15.2182    4.4766 O   0  0  0  0  0  0  0  0  0  0  0  0
   48.2656   16.0985    4.2766 C   0  0  0  0  0  0  0  0  0  0  0  0
   48.1841   17.2653    5.2599 C   0  0  0  0  0  0  0  0  0  0  0  0
   47.1800   17.3778    5.9860 O   0  0  0  0  0  0  0  0  0  0  0  0
   49.1256   18.0624    5.3016 O   0  0  0  0  0  0  0  0  0  0  0  0
   46.4852   16.7521    5.9251 H   0  0  0  0  0  0  0  0  0  0  0  0
  1  2  1  0  0  0
  1  5  1  0  0  0
  2  3  2  0  0  0
  2 22  1  0  0  0
  3  4  1  0  0  0
  3 26  1  0  0  0
  4  5  2  0  0  0
  4  6  1  0  0  0
  5  7  1  0  0  0
 22 23  1  0  0  0
 22 24  2  0  0  0
  7  8  1  0  0  0
  7 12  2  0  0  0
  8  9  2  0  0  0
  9 10  1  0  0  0
  9 13  1  0  0  0
 10 11  2  0  0  0
 11 12  1  0  0  0
 26 27  1  0  0  0
 27 28  1  0  0  0
 28 29  1  0  0  0
 28 30  2  0  0  0
 13 15  1  0  0  0
 15 16  1  0  0  0
 16 17  2  0  0  0
 16 21  1  0  0  0
 17 18  1  0  0  0
 18 19  2  0  0  0
 19 20  1  0  0  0
 20 21  2  0  0  0
 23 25  1  0  0  0
 29 31  1  0  0  0
 13 14  1  0  0  0
M  END
> <minimizedAffinity>
-8.52904

$$$$
2QBR_910_A_800


 31 33  0  0  0  0  0  0  0  0999 V2000
   50.2204    8.8476    0.6462 S   0  0  0  0  0  0  0  0  0  0  0  0
   51.1924    7.7232    1.4872 C   0  0  0  0  0  0  0  0  0  0  0  0
   50.4769    7.2229    2.6074 C   0  0  0  0  0  0  0  0  0  0  0  0
   49.1772    7.7918    2.6951 C   0  0  0  0  0  0  0  0  0  0  0  0
   48.8848    8.7236    1.6665 C   0  0  0  0  0  0  0  0  0  0  0  0
   47.9769    7.3214    4.0838 Br  0  0  0  0  0  0  0  0  0  0  0  0
   47.6446    9.5273    1.4200 C   0  0  0  0  0  0  0  0  0  0  0  0
   47.4928   10.8502    1.9583 C   0  0  0  0  0  0  0  0  0  0  0  0
   46.3063   11.5992    1.7054 C   0  0  0  0  0  0  0  0  0  0  0  0
   45.2486   11.0251    0.9043 C   0  0  0  0  0  0  0  0  0  0  0  0
   45.3889    9.7033    0.3644 C   0  0  0  0  0  0  0  0  0  0  0  0
   46.5893    8.9663    0.6264 C   0  0  0  0  0  0  0  0  0  0  0  0
   46.2351   12.8677    2.2539 N   0  0  0  0  0  0  0  0  0  0  0  0
   45.4747   13.4337    1.9883 H   0  0  0  0  0  0  0  0  0  0  0  0
   47.2053   13.4388    3.2028 C   0  0  0  0  0  0  0  0  0  0  0  0
   47.0633   14.9369    3.3741 C   0  0  0  0  0  0  0  0  0  0  0  0
   48.0746   15.6693    4.0924 C   0  0  0  0  0  0  0  0  0  0  0  0
   47.9500   17.0857    4.2543 C   0  0  0  0  0  0  0  0  0  0  0  0
   46.8093   17.7515    3.6921 C   0  0  0  0  0  0  0  0  0  0  0  0
   45.7939   17.0250    2.9728 C   0  0  0  0  0  0  0  0  0  0  0  0
   45.9236   15.6040    2.8122 C   0  0  0  0  0  0  0  0  0  0  0  0
   52.4982    7.4247    1.0372 C   0  0  0  0  0  0  0  0  0  0  0  0
   53.1267    6.4753    1.5014 O   0  0  0  0  0  0  0  0  0  0  0  0
   52.9788    8.1509    0.1611 O   0  0  0  0  0  0  0  0  0  0  0  0
   52.7415    5.9382    2.1655 H   0  0  0  0  0  0  0  0  0  0  0  0
   50.9436    6.2675    3.5753 O   0  0  0  0  0  0  0  0  0  0  0  0
   51.3105    6.8179    4.8453 C   0  0  0  0  0  0  0  0  0  0  0  0
   52.8130    7.0946    4.8738 C   0  0  0  0  0  0  0  0  0  0  0  0
   53.2304    8.1209    5.4401 O   0  0  0  0  0  0  0  0  0  0  0  0
   53.5680    6.2829    4.3309 O   0  0  0  0  0  0  0  0  0  0  0  0
   52.6255    8.7136    5.8412 H   0  0  0  0  0  0  0  0  0  0  0  0
  1  2  1  0  0  0
  1  5  1  0  0  0
  2  3  2  0  0  0
  2 22  1  0  0  0
  3  4  1  0  0  0
  3 26  1  0  0  0
  4  5  2  0  0  0
  4  6  1  0  0  0
  5  7  1  0  0  0
 22 23  1  0  0  0
 22 24  2  0  0  0
  7  8  1  0  0  0
  7 12  2  0  0  0
  8  9  2  0  0  0
  9 10  1  0  0  0
  9 13  1  0  0  0
 10 11  2  0  0  0
 11 12  1  0  0  0
 26 27  1  0  0  0
 27 28  1  0  0  0
 28 29  1  0  0  0
 28 30  2  0  0  0
 13 15  1  0  0  0
 15 16  1  0  0  0
 16 17  2  0  0  0
 16 21  1  0  0  0
 17 18  1  0  0  0
 18 19  2  0  0  0
 19 20  1  0  0  0
 20 21  2  0  0  0
 23 25  1  0  0  0
 29 31  1  0  0  0
 13 14  1  0  0  0
M  END
> <minimizedAffinity>
-8.17120

$$$$
2QBR_910_A_800


 31 33  0  0  0  0  0  0  0  0999 V2000
   44.6320   15.3543    1.3876 S   0  0  0  0  0  0  0  0  0  0  0  0
   45.3078   16.0125    2.8111 C   0  0  0  0  0  0  0  0  0  0  0  0
   46.2752   15.1145    3.3353 C   0  0  0  0  0  0  0  0  0  0  0  0
   46.4004   13.9504    2.5292 C   0  0  0  0  0  0  0  0  0  0  0  0
   45.5426   13.9362    1.3996 C   0  0  0  0  0  0  0  0  0  0  0  0
   47.6149   12.5633    2.9664 Br  0  0  0  0  0  0  0  0  0  0  0  0
   45.3763   12.8998    0.3304 C   0  0  0  0  0  0  0  0  0  0  0  0
   45.7591   13.1614   -1.0289 C   0  0  0  0  0  0  0  0  0  0  0  0
   45.5977   12.1578   -2.0287 C   0  0  0  0  0  0  0  0  0  0  0  0
   45.0447   10.8698   -1.6744 C   0  0  0  0  0  0  0  0  0  0  0  0
   44.6565   10.5994   -0.3199 C   0  0  0  0  0  0  0  0  0  0  0  0
   44.8284   11.6187    0.6721 C   0  0  0  0  0  0  0  0  0  0  0  0
   45.9931   12.4825   -3.3144 N   0  0  0  0  0  0  0  0  0  0  0  0
   45.2896   12.7420   -3.9524 H   0  0  0  0  0  0  0  0  0  0  0  0
   47.3813   12.4710   -3.8051 C   0  0  0  0  0  0  0  0  0  0  0  0
   48.0617   13.8203   -3.7058 C   0  0  0  0  0  0  0  0  0  0  0  0
   49.4386   13.8932   -3.2887 C   0  0  0  0  0  0  0  0  0  0  0  0
   50.0900   15.1641   -3.1970 C   0  0  0  0  0  0  0  0  0  0  0  0
   49.3500   16.3494   -3.5258 C   0  0  0  0  0  0  0  0  0  0  0  0
   47.9724   16.2837   -3.9433 C   0  0  0  0  0  0  0  0  0  0  0  0
   47.3233   15.0062   -4.0346 C   0  0  0  0  0  0  0  0  0  0  0  0
   44.8802   17.2695    3.2944 C   0  0  0  0  0  0  0  0  0  0  0  0
   44.6302   18.1934    2.5225 O   0  0  0  0  0  0  0  0  0  0  0  0
   44.7655   17.4007    4.5173 O   0  0  0  0  0  0  0  0  0  0  0  0
   44.7245   18.0704    1.5984 H   0  0  0  0  0  0  0  0  0  0  0  0
   47.0616   15.2893    4.5263 O   0  0  0  0  0  0  0  0  0  0  0  0
   48.2346   16.0952    4.3680 C   0  0  0  0  0  0  0  0  0  0  0  0
   48.1564   17.3088    5.2931 C   0  0  0  0  0  0  0  0  0  0  0  0
   47.1216   17.4999    5.9571 O   0  0  0  0  0  0  0  0  0  0  0  0
   49.1313   18.0637    5.3519 O   0  0  0  0  0  0  0  0  0  0  0  0
   46.4022   16.9040    5.8854 H   0  0  0  0  0  0  0  0  0  0  0  0
  1  2  1  0  0  0
  1  5  1  0  0  0
  2  3  2  0  0  0
  2 22  1  0  0  0
  3  4  1  0  0  0
  3 26  1  0  0  0
  4  5  2  0  0  0
  4  6  1  0  0  0
  5  7  1  0  0  0
 22 23  1  0  0  0
 22 24  2  0  0  0
  7  8  1  0  0  0
  7 12  2  0  0  0
  8  9  2  0  0  0
  9 10  1  0  0  0
  9 13  1  0  0  0
 10 11  2  0  0  0
 11 12  1  0  0  0
 26 27  1  0  0  0
 27 28  1  0  0  0
 28 29  1  0  0  0
 28 30  2  0  0  0
 13 15  1  0  0  0
 15 16  1  0  0  0
 16 17  2  0  0  0
 16 21  1  0  0  0
 17 18  1  0  0  0
 18 19  2  0  0  0
 19 20  1  0  0  0
 20 21  2  0  0  0
 23 25  1  0  0  0
 29 31  1  0  0  0
 13 14  1  0  0  0
M  END
> <minimizedAffinity>
-7.91273

$$$$
2QBR_910_A_800


 31 33  0  0  0  0  0  0  0  0999 V2000
   46.0120   11.7846   -1.5503 S   0  0  0  0  0  0  0  0  0  0  0  0
   45.4710   10.3446   -2.2920 C   0  0  0  0  0  0  0  0  0  0  0  0
   44.2765   10.6041   -3.0152 C   0  0  0  0  0  0  0  0  0  0  0  0
   43.8905   11.9686   -2.9165 C   0  0  0  0  0  0  0  0  0  0  0  0
   44.7635   12.7592   -2.1260 C   0  0  0  0  0  0  0  0  0  0  0  0
   42.3363   12.6277   -3.7769 Br  0  0  0  0  0  0  0  0  0  0  0  0
   44.6969   14.2161   -1.7827 C   0  0  0  0  0  0  0  0  0  0  0  0
   44.3890   14.6559   -0.4505 C   0  0  0  0  0  0  0  0  0  0  0  0
   44.3373   16.0476   -0.1452 C   0  0  0  0  0  0  0  0  0  0  0  0
   44.5945   17.0228   -1.1811 C   0  0  0  0  0  0  0  0  0  0  0  0
   44.9000   16.5941   -2.5157 C   0  0  0  0  0  0  0  0  0  0  0  0
   44.9505   15.1915   -2.8037 C   0  0  0  0  0  0  0  0  0  0  0  0
   44.0387   16.3936    1.1609 N   0  0  0  0  0  0  0  0  0  0  0  0
   43.2440   15.9793    1.5686 H   0  0  0  0  0  0  0  0  0  0  0  0
   44.8137   17.3316    1.9900 C   0  0  0  0  0  0  0  0  0  0  0  0
   45.9335   16.6637    2.7606 C   0  0  0  0  0  0  0  0  0  0  0  0
   45.9190   15.2345    2.9401 C   0  0  0  0  0  0  0  0  0  0  0  0
   46.9759   14.5955    3.6629 C   0  0  0  0  0  0  0  0  0  0  0  0
   48.0371   15.4004    4.1982 C   0  0  0  0  0  0  0  0  0  0  0  0
   48.0577   16.8305    4.0227 C   0  0  0  0  0  0  0  0  0  0  0  0
   46.9953   17.4671    3.2960 C   0  0  0  0  0  0  0  0  0  0  0  0
   46.1904    9.1393   -2.1302 C   0  0  0  0  0  0  0  0  0  0  0  0
   45.9807    8.1733   -2.8615 O   0  0  0  0  0  0  0  0  0  0  0  0
   47.0361    9.0969   -1.2309 O   0  0  0  0  0  0  0  0  0  0  0  0
   45.3340    8.2288   -3.5372 H   0  0  0  0  0  0  0  0  0  0  0  0
   43.4989    9.6581   -3.7686 O   0  0  0  0  0  0  0  0  0  0  0  0
   42.3688    9.1128   -3.0786 C   0  0  0  0  0  0  0  0  0  0  0  0
   42.7782    7.8372   -2.3438 C   0  0  0  0  0  0  0  0  0  0  0  0
   43.1028    6.8340   -3.0044 O   0  0  0  0  0  0  0  0  0  0  0  0
   42.7743    7.8459   -1.1094 O   0  0  0  0  0  0  0  0  0  0  0  0
   43.0932    6.8664   -3.9408 H   0  0  0  0  0  0  0  0  0  0  0  0
  1  2  1  0  0  0
  1  5  1  0  0  0
  2  3  2  0  0  0
  2 22  1  0  0  0
  3  4  1  0  0  0
  3 26  1  0  0  0
  4  5  2  0  0  0
  4  6  1  0  0  0
  5  7  1  0  0  0
 22 23  1  0  0  0
 22 24  2  0  0  0
  7  8  1  0  0  0
  7 12  2  0  0  0
  8  9  2  0  0  0
  9 10  1  0  0  0
  9 13  1  0  0  0
 10 11  2  0  0  0
 11 12  1  0  0  0
 26 27  1  0  0  0
 27 28  1  0  0  0
 28 29  1  0  0  0
 28 30  2  0  0  0
 13 15  1  0  0  0
 15 16  1  0  0  0
 16 17  2  0  0  0
 16 21  1  0  0  0
 17 18  1  0  0  0
 18 19  2  0  0  0
 19 20  1  0  0  0
 20 21  2  0  0  0
 23 25  1  0  0  0
 29 31  1  0  0  0
 13 14  1  0  0  0
M  END
> <minimizedAffinity>
-7.67211

$$$$
2QBR_910_A_800


 31 33  0  0  0  0  0  0  0  0999 V2000
   44.7514   14.4800    0.5848 S   0  0  0  0  0  0  0  0  0  0  0  0
   45.0706   15.5330    1.8908 C   0  0  0  0  0  0  0  0  0  0  0  0
   45.9648   14.9051    2.7980 C   0  0  0  0  0  0  0  0  0  0  0  0
   46.3321   13.6050    2.3559 C   0  0  0  0  0  0  0  0  0  0  0  0
   45.7314   13.2218    1.1294 C   0  0  0  0  0  0  0  0  0  0  0  0
   47.5182   12.5134    3.3520 Br  0  0  0  0  0  0  0  0  0  0  0  0
   45.8608   11.9481    0.3510 C   0  0  0  0  0  0  0  0  0  0  0  0
   47.1107   11.5571   -0.2386 C   0  0  0  0  0  0  0  0  0  0  0  0
   47.2119   10.3372   -0.9698 C   0  0  0  0  0  0  0  0  0  0  0  0
   46.0511    9.4889   -1.1208 C   0  0  0  0  0  0  0  0  0  0  0  0
   44.7971    9.8718   -0.5382 C   0  0  0  0  0  0  0  0  0  0  0  0
   44.7145   11.0996    0.1956 C   0  0  0  0  0  0  0  0  0  0  0  0
   48.4498   10.0262   -1.5046 N   0  0  0  0  0  0  0  0  0  0  0  0
   48.5707   10.1584   -2.4727 H   0  0  0  0  0  0  0  0  0  0  0  0
   49.6004    9.5137   -0.7423 C   0  0  0  0  0  0  0  0  0  0  0  0
   49.2003    8.6492    0.4351 C   0  0  0  0  0  0  0  0  0  0  0  0
   48.8988    7.2564    0.2245 C   0  0  0  0  0  0  0  0  0  0  0  0
   48.5248    6.4319    1.3327 C   0  0  0  0  0  0  0  0  0  0  0  0
   48.4574    7.0165    2.6421 C   0  0  0  0  0  0  0  0  0  0  0  0
   48.7574    8.4090    2.8598 C   0  0  0  0  0  0  0  0  0  0  0  0
   49.1330    9.2322    1.7448 C   0  0  0  0  0  0  0  0  0  0  0  0
   44.4692   16.8104    1.9469 C   0  0  0  0  0  0  0  0  0  0  0  0
   45.0503   17.7620    2.4651 O   0  0  0  0  0  0  0  0  0  0  0  0
   43.3430   16.9321    1.4540 O   0  0  0  0  0  0  0  0  0  0  0  0
   45.9043   17.6458    2.8327 H   0  0  0  0  0  0  0  0  0  0  0  0
   46.4724   15.4493    4.0282 O   0  0  0  0  0  0  0  0  0  0  0  0
   47.7047   16.1694    3.9123 C   0  0  0  0  0  0  0  0  0  0  0  0
   47.6879   17.3765    4.8489 C   0  0  0  0  0  0  0  0  0  0  0  0
   48.7629   17.8041    5.3071 O   0  0  0  0  0  0  0  0  0  0  0  0
   46.5995   17.8917    5.1203 O   0  0  0  0  0  0  0  0  0  0  0  0
   49.5693   17.3859    5.0776 H   0  0  0  0  0  0  0  0  0  0  0  0
  1  2  1  0  0  0
  1  5  1  0  0  0
  2  3  2  0  0  0
  2 22  1  0  0  0
  3  4  1  0  0  0
  3 26  1  0  0  0
  4  5  2  0  0  0
  4  6  1  0  0  0
  5  7  1  0  0  0
 22 23  1  0  0  0
 22 24  2  0  0  0
  7  8  1  0  0  0
  7 12  2  0  0  0
  8  9  2  0  0  0
  9 10  1  0  0  0
  9 13  1  0  0  0
 10 11  2  0  0  0
 11 12  1  0  0  0
 26 27  1  0  0  0
 27 28  1  0  0  0
 28 29  1  0  0  0
 28 30  2  0  0  0
 13 15  1  0  0  0
 15 16  1  0  0  0
 16 17  2  0  0  0
 16 21  1  0  0  0
 17 18  1  0  0  0
 18 19  2  0  0  0
 19 20  1  0  0  0
 20 21  2  0  0  0
 23 25  1  0  0  0
 29 31  1  0  0  0
 13 14  1  0  0  0
M  END
> <minimizedAffinity>
-7.66606

$$$$
2QBR_910_A_800


 31 33  0  0  0  0  0  0  0  0999 V2000
   48.8572    7.6697    3.8225 S   0  0  0  0  0  0  0  0  0  0  0  0
   50.4733    7.1185    3.8434 C   0  0  0  0  0  0  0  0  0  0  0  0
   51.1671    7.6423    2.7203 C   0  0  0  0  0  0  0  0  0  0  0  0
   50.3265    8.4657    1.9228 C   0  0  0  0  0  0  0  0  0  0  0  0
   48.9992    8.5783    2.4102 C   0  0  0  0  0  0  0  0  0  0  0  0
   50.9641    9.3135    0.3528 Br  0  0  0  0  0  0  0  0  0  0  0  0
   47.8321    9.3377    1.8570 C   0  0  0  0  0  0  0  0  0  0  0  0
   47.5815   10.7006    2.2346 C   0  0  0  0  0  0  0  0  0  0  0  0
   46.4682   11.4058    1.6905 C   0  0  0  0  0  0  0  0  0  0  0  0
   45.5850   10.7468    0.7547 C   0  0  0  0  0  0  0  0  0  0  0  0
   45.8248    9.3846    0.3732 C   0  0  0  0  0  0  0  0  0  0  0  0
   46.9499    8.6924    0.9278 C   0  0  0  0  0  0  0  0  0  0  0  0
   46.2945   12.7166    2.0986 N   0  0  0  0  0  0  0  0  0  0  0  0
   45.6728   13.2744    1.5774 H   0  0  0  0  0  0  0  0  0  0  0  0
   46.9648   13.3442    3.2496 C   0  0  0  0  0  0  0  0  0  0  0  0
   46.8404   14.8535    3.2639 C   0  0  0  0  0  0  0  0  0  0  0  0
   45.6882   15.4776    2.6654 C   0  0  0  0  0  0  0  0  0  0  0  0
   45.5610   16.9029    2.6792 C   0  0  0  0  0  0  0  0  0  0  0  0
   46.5942   17.6866    3.2948 C   0  0  0  0  0  0  0  0  0  0  0  0
   47.7494   17.0690    3.8950 C   0  0  0  0  0  0  0  0  0  0  0  0
   47.8722   15.6384    3.8795 C   0  0  0  0  0  0  0  0  0  0  0  0
   50.9287    6.2681    4.8759 C   0  0  0  0  0  0  0  0  0  0  0  0
   52.1236    6.1965    5.1569 O   0  0  0  0  0  0  0  0  0  0  0  0
   50.0816    5.6054    5.4835 O   0  0  0  0  0  0  0  0  0  0  0  0
   52.7481    6.7088    4.6821 H   0  0  0  0  0  0  0  0  0  0  0  0
   52.5411    7.4090    2.3667 O   0  0  0  0  0  0  0  0  0  0  0  0
   52.7776    6.2291    1.5904 C   0  0  0  0  0  0  0  0  0  0  0  0
   53.9801    5.4728    2.1531 C   0  0  0  0  0  0  0  0  0  0  0  0
   54.1656    5.4571    3.3834 O   0  0  0  0  0  0  0  0  0  0  0  0
   54.7322    4.8971    1.3615 O   0  0  0  0  0  0  0  0  0  0  0  0
   53.5721    5.9065    3.9524 H   0  0  0  0  0  0  0  0  0  0  0  0
  1  2  1  0  0  0
  1  5  1  0  0  0
  2  3  2  0  0  0
  2 22  1  0  0  0
  3  4  1  0  0  0
  3 26  1  0  0  0
  4  5  2  0  0  0
  4  6  1  0  0  0
  5  7  1  0  0  0
 22 23  1  0  0  0
 22 24  2  0  0  0
  7  8  1  0  0  0
  7 12  2  0  0  0
  8  9  2  0  0  0
  9 10  1  0  0  0
  9 13  1  0  0  0
 10 11  2  0  0  0
 11 12  1  0  0  0
 26 27  1  0  0  0
 27 28  1  0  0  0
 28 29  1  0  0  0
 28 30  2  0  0  0
 13 15  1  0  0  0
 15 16  1  0  0  0
 16 17  2  0  0  0
 16 21  1  0  0  0
 17 18  1  0  0  0
 18 19  2  0  0  0
 19 20  1  0  0  0
 20 21  2  0  0  0
 23 25  1  0  0  0
 29 31  1  0  0  0
 13 14  1  0  0  0
M  END
> <minimizedAffinity>
-7.58627

$$$$
2QBR_910_A_800


 31 33  0  0  0  0  0  0  0  0999 V2000
   47.4969   12.0737    1.3711 S   0  0  0  0  0  0  0  0  0  0  0  0
   47.7677   10.4014    1.1564 C   0  0  0  0  0  0  0  0  0  0  0  0
   46.8477    9.8911    0.2023 C   0  0  0  0  0  0  0  0  0  0  0  0
   45.9876   10.9091   -0.2922 C   0  0  0  0  0  0  0  0  0  0  0  0
   46.2269   12.1894    0.2693 C   0  0  0  0  0  0  0  0  0  0  0  0
   44.6501   10.5413   -1.5831 Br  0  0  0  0  0  0  0  0  0  0  0  0
   45.5388   13.4958    0.0148 C   0  0  0  0  0  0  0  0  0  0  0  0
   45.0182   14.2881    1.0937 C   0  0  0  0  0  0  0  0  0  0  0  0
   44.3727   15.5314    0.8283 C   0  0  0  0  0  0  0  0  0  0  0  0
   44.2393   15.9980   -0.5336 C   0  0  0  0  0  0  0  0  0  0  0  0
   44.7533   15.2127   -1.6188 C   0  0  0  0  0  0  0  0  0  0  0  0
   45.4015   13.9673   -1.3332 C   0  0  0  0  0  0  0  0  0  0  0  0
   43.9010   16.2399    1.9193 N   0  0  0  0  0  0  0  0  0  0  0  0
   43.0728   15.9190    2.3439 H   0  0  0  0  0  0  0  0  0  0  0  0
   44.5383   17.4353    2.4964 C   0  0  0  0  0  0  0  0  0  0  0  0
   45.6854   17.1095    3.4300 C   0  0  0  0  0  0  0  0  0  0  0  0
   47.0409   17.3263    2.9934 C   0  0  0  0  0  0  0  0  0  0  0  0
   48.1301   17.0255    3.8715 C   0  0  0  0  0  0  0  0  0  0  0  0
   47.8451   16.5094    5.1804 C   0  0  0  0  0  0  0  0  0  0  0  0
   46.4916   16.2899    5.6234 C   0  0  0  0  0  0  0  0  0  0  0  0
   45.4020   16.5939    4.7390 C   0  0  0  0  0  0  0  0  0  0  0  0
   48.7832    9.7393    1.8822 C   0  0  0  0  0  0  0  0  0  0  0  0
   49.9363    9.6906    1.4579 O   0  0  0  0  0  0  0  0  0  0  0  0
   48.4677    9.2168    2.9562 O   0  0  0  0  0  0  0  0  0  0  0  0
   50.1521   10.0944    0.6404 H   0  0  0  0  0  0  0  0  0  0  0  0
   46.7366    8.5310   -0.2505 O   0  0  0  0  0  0  0  0  0  0  0  0
   47.5397    8.2014   -1.3893 C   0  0  0  0  0  0  0  0  0  0  0  0
   48.6934    7.2947   -0.9630 C   0  0  0  0  0  0  0  0  0  0  0  0
   48.4705    6.0897   -0.7478 O   0  0  0  0  0  0  0  0  0  0  0  0
   49.8170    7.7925   -0.8471 O   0  0  0  0  0  0  0  0  0  0  0  0
   47.6033    5.7487   -0.8466 H   0  0  0  0  0  0  0  0  0  0  0  0
  1  2  1  0  0  0
  1  5  1  0  0  0
  2  3  2  0  0  0
  2 22  1  0  0  0
  3  4  1  0  0  0
  3 26  1  0  0  0
  4  5  2  0  0  0
  4  6  1  0  0  0
  5  7  1  0  0  0
 22 23  1  0  0  0
 22 24  2  0  0  0
  7  8  1  0  0  0
  7 12  2  0  0  0
  8  9  2  0  0  0
  9 10  1  0  0  0
  9 13  1  0  0  0
 10 11  2  0  0  0
 11 12  1  0  0  0
 26 27  1  0  0  0
 27 28  1  0  0  0
 28 29  1  0  0  0
 28 30  2  0  0  0
 13 15  1  0  0  0
 15 16  1  0  0  0
 16 17  2  0  0  0
 16 21  1  0  0  0
 17 18  1  0  0  0
 18 19  2  0  0  0
 19 20  1  0  0  0
 20 21  2  0  0  0
 23 25  1  0  0  0
 29 31  1  0  0  0
 13 14  1  0  0  0
M  END
> <minimizedAffinity>
-7.28032

$$$$
2QBR_910_A_800


 31 33  0  0  0  0  0  0  0  0999 V2000
   45.5181   11.3892   -1.5820 S   0  0  0  0  0  0  0  0  0  0  0  0
   46.2909   10.0918   -0.7847 C   0  0  0  0  0  0  0  0  0  0  0  0
   46.7349   10.5191    0.4949 C   0  0  0  0  0  0  0  0  0  0  0  0
   46.4046   11.8805    0.7361 C   0  0  0  0  0  0  0  0  0  0  0  0
   45.7209   12.5070   -0.3372 C   0  0  0  0  0  0  0  0  0  0  0  0
   46.8620   12.7426    2.3603 Br  0  0  0  0  0  0  0  0  0  0  0  0
   45.2162   13.9117   -0.4676 C   0  0  0  0  0  0  0  0  0  0  0  0
   44.7678   14.6533    0.6778 C   0  0  0  0  0  0  0  0  0  0  0  0
   44.2975   15.9912    0.5307 C   0  0  0  0  0  0  0  0  0  0  0  0
   44.2698   16.6058   -0.7775 C   0  0  0  0  0  0  0  0  0  0  0  0
   44.7127   15.8727   -1.9285 C   0  0  0  0  0  0  0  0  0  0  0  0
   45.1847   14.5302   -1.7616 C   0  0  0  0  0  0  0  0  0  0  0  0
   43.8864   16.6425    1.6804 N   0  0  0  0  0  0  0  0  0  0  0  0
   42.9832   16.4413    2.0163 H   0  0  0  0  0  0  0  0  0  0  0  0
   44.6913   17.6124    2.4417 C   0  0  0  0  0  0  0  0  0  0  0  0
   45.7717   16.9639    3.2819 C   0  0  0  0  0  0  0  0  0  0  0  0
   45.4103   15.9739    4.2638 C   0  0  0  0  0  0  0  0  0  0  0  0
   46.4258   15.3531    5.0583 C   0  0  0  0  0  0  0  0  0  0  0  0
   47.7951   15.7344    4.8574 C   0  0  0  0  0  0  0  0  0  0  0  0
   48.1635   16.7243    3.8773 C   0  0  0  0  0  0  0  0  0  0  0  0
   47.1411   17.3438    3.0819 C   0  0  0  0  0  0  0  0  0  0  0  0
   46.4110    8.8319   -1.4130 C   0  0  0  0  0  0  0  0  0  0  0  0
   45.4371    8.2849   -1.9270 O   0  0  0  0  0  0  0  0  0  0  0  0
   47.5289    8.3066   -1.4273 O   0  0  0  0  0  0  0  0  0  0  0  0
   44.5987    8.7027   -1.9038 H   0  0  0  0  0  0  0  0  0  0  0  0
   47.4394    9.7345    1.4724 O   0  0  0  0  0  0  0  0  0  0  0  0
   48.8674    9.7876    1.3806 C   0  0  0  0  0  0  0  0  0  0  0  0
   49.4735    8.5440    2.0294 C   0  0  0  0  0  0  0  0  0  0  0  0
   49.7402    7.5578    1.3192 O   0  0  0  0  0  0  0  0  0  0  0  0
   49.6808    8.5608    3.2462 O   0  0  0  0  0  0  0  0  0  0  0  0
   49.5681    7.5832    0.3985 H   0  0  0  0  0  0  0  0  0  0  0  0
  1  2  1  0  0  0
  1  5  1  0  0  0
  2  3  2  0  0  0
  2 22  1  0  0  0
  3  4  1  0  0  0
  3 26  1  0  0  0
  4  5  2  0  0  0
  4  6  1  0  0  0
  5  7  1  0  0  0
 22 23  1  0  0  0
 22 24  2  0  0  0
  7  8  1  0  0  0
  7 12  2  0  0  0
  8  9  2  0  0  0
  9 10  1  0  0  0
  9 13  1  0  0  0
 10 11  2  0  0  0
 11 12  1  0  0  0
 26 27  1  0  0  0
 27 28  1  0  0  0
 28 29  1  0  0  0
 28 30  2  0  0  0
 13 15  1  0  0  0
 15 16  1  0  0  0
 16 17  2  0  0  0
 16 21  1  0  0  0
 17 18  1  0  0  0
 18 19  2  0  0  0
 19 20  1  0  0  0
 20 21  2  0  0  0
 23 25  1  0  0  0
 29 31  1  0  0  0
 13 14  1  0  0  0
M  END
> <minimizedAffinity>
-7.24862

$$$$
2QBR_910_A_800


 31 33  0  0  0  0  0  0  0  0999 V2000
   50.2045    9.9984   -0.5337 S   0  0  0  0  0  0  0  0  0  0  0  0
   51.5413    9.0837    0.0073 C   0  0  0  0  0  0  0  0  0  0  0  0
   51.2173    8.4534    1.2381 C   0  0  0  0  0  0  0  0  0  0  0  0
   49.8915    8.7590    1.6498 C   0  0  0  0  0  0  0  0  0  0  0  0
   49.1947    9.6169    0.7605 C   0  0  0  0  0  0  0  0  0  0  0  0
   49.1629    8.0639    3.2548 Br  0  0  0  0  0  0  0  0  0  0  0  0
   47.8027   10.1645    0.8445 C   0  0  0  0  0  0  0  0  0  0  0  0
   47.5163   11.3674    1.5752 C   0  0  0  0  0  0  0  0  0  0  0  0
   46.1849   11.8737    1.6361 C   0  0  0  0  0  0  0  0  0  0  0  0
   45.1157   11.1730    0.9607 C   0  0  0  0  0  0  0  0  0  0  0  0
   45.3906    9.9690    0.2306 C   0  0  0  0  0  0  0  0  0  0  0  0
   46.7349    9.4764    0.1777 C   0  0  0  0  0  0  0  0  0  0  0  0
   45.9883   13.0394    2.3554 N   0  0  0  0  0  0  0  0  0  0  0  0
   45.1811   13.5655    2.1531 H   0  0  0  0  0  0  0  0  0  0  0  0
   46.8892   13.5563    3.3989 C   0  0  0  0  0  0  0  0  0  0  0  0
   46.8948   15.0680    3.4890 C   0  0  0  0  0  0  0  0  0  0  0  0
   45.8132   15.8190    2.9048 C   0  0  0  0  0  0  0  0  0  0  0  0
   45.8087   17.2475    2.9900 C   0  0  0  0  0  0  0  0  0  0  0  0
   46.8924   17.9067    3.6620 C   0  0  0  0  0  0  0  0  0  0  0  0
   47.9776   17.1618    4.2482 C   0  0  0  0  0  0  0  0  0  0  0  0
   47.9773   15.7285    4.1609 C   0  0  0  0  0  0  0  0  0  0  0  0
   52.7366    9.0447   -0.7453 C   0  0  0  0  0  0  0  0  0  0  0  0
   53.6378    8.2575   -0.4627 O   0  0  0  0  0  0  0  0  0  0  0  0
   52.8373    9.8276   -1.6955 O   0  0  0  0  0  0  0  0  0  0  0  0
   53.5388    7.6728    0.2628 H   0  0  0  0  0  0  0  0  0  0  0  0
   52.0703    7.6064    2.0269 O   0  0  0  0  0  0  0  0  0  0  0  0
   51.9198    6.2021    1.7906 C   0  0  0  0  0  0  0  0  0  0  0  0
   53.2950    5.5526    1.6434 C   0  0  0  0  0  0  0  0  0  0  0  0
   53.3770    4.3126    1.5818 O   0  0  0  0  0  0  0  0  0  0  0  0
   54.2860    6.2865    1.5886 O   0  0  0  0  0  0  0  0  0  0  0  0
   52.6012    3.7890    1.6269 H   0  0  0  0  0  0  0  0  0  0  0  0
  1  2  1  0  0  0
  1  5  1  0  0  0
  2  3  2  0  0  0
  2 22  1  0  0  0
  3  4  1  0  0  0
  3 26  1  0  0  0
  4  5  2  0  0  0
  4  6  1  0  0  0
  5  7  1  0  0  0
 22 23  1  0  0  0
 22 24  2  0  0  0
  7  8  1  0  0  0
  7 12  2  0  0  0
  8  9  2  0  0  0
  9 10  1  0  0  0
  9 13  1  0  0  0
 10 11  2  0  0  0
 11 12  1  0  0  0
 26 27  1  0  0  0
 27 28  1  0  0  0
 28 29  1  0  0  0
 28 30  2  0  0  0
 13 15  1  0  0  0
 15 16  1  0  0  0
 16 17  2  0  0  0
 16 21  1  0  0  0
 17 18  1  0  0  0
 18 19  2  0  0  0
 19 20  1  0  0  0
 20 21  2  0  0  0
 23 25  1  0  0  0
 29 31  1  0  0  0
 13 14  1  0  0  0
M  END
> <minimizedAffinity>
-6.93928

$$$$
