6EXS_C3H_A_514


 24 23  0  0  0  0  0  0  0  0999 V2000
   24.5986    6.2910   31.9683 C   0  0  0  0  0  0  0  0  0  0  0  0
   25.5052    6.6091   30.8737 N   0  0  0  0  0  0  0  0  0  0  0  0
   26.4255    6.2148   31.0690 H   0  0  0  0  0  0  0  0  0  0  0  0
   25.5822    7.6218   30.7794 H   0  0  0  0  0  0  0  0  0  0  0  0
   25.0390    8.1970   33.3912 N   0  0  0  0  0  0  0  0  0  0  0  0
   25.1268    6.8872   33.2315 C   0  0  0  0  0  0  0  0  0  0  0  0
   25.6048    6.1420   34.0738 O   0  0  0  0  0  0  0  0  0  0  0  0
   25.3590    8.7910   32.6742 H   0  0  0  0  0  0  0  0  0  0  0  0
   24.4855    8.7763   34.5913 C   0  0  0  0  0  0  0  0  0  0  0  0
   22.9801   10.6159   34.7320 O   0  0  0  0  0  0  0  0  0  0  0  0
   24.0340   10.1961   34.4108 C   0  0  0  0  0  0  0  0  0  0  0  0
   24.9279   10.8992   33.8081 O   0  0  0  0  0  0  0  0  0  0  0  0
   25.7495   10.5132   33.5760 H   0  0  0  0  0  0  0  0  0  0  0  0
   24.5067    4.7685   32.0808 C   0  0  0  0  0  0  0  0  0  0  0  0
   22.8519    4.0365   32.1914 S   0  0  0  0  0  0  0  0  0  0  0  0
   22.3770    3.6820   33.9672 C   0  0  0  0  0  0  0  0  0  0  0  0
   22.3146    5.0183   34.6607 C   0  0  0  0  0  0  0  0  0  0  0  0
   23.4061    2.6900   34.5257 C   0  0  0  0  0  0  0  0  0  0  0  0
   22.8987    1.6279   35.4748 C   0  0  0  0  0  0  0  0  0  0  0  0
   23.9263    0.8510   35.9964 O   0  0  0  0  0  0  0  0  0  0  0  0
   24.3815    0.3900   35.2745 H   0  0  0  0  0  0  0  0  0  0  0  0
   21.0100    3.0071   34.0422 C   0  0  0  0  0  0  0  0  0  0  0  0
   19.9819    3.4977   33.0369 C   0  0  0  0  0  0  0  0  0  0  0  0
   18.5796    3.3245   33.5532 C   0  0  0  0  0  0  0  0  0  0  0  0
  7  6  2  0  0  0
 15 14  1  0  0  0
 15 16  1  0  0  0
 10 11  2  0  0  0
 14  1  1  0  0  0
  6  5  1  0  0  0
  6  1  1  0  0  0
 11 12  1  0  0  0
 11  9  1  0  0  0
 22 16  1  0  0  0
 22 23  1  0  0  0
 24 23  1  0  0  0
  5  9  1  0  0  0
 16 17  1  0  0  0
 16 18  1  0  0  0
  1  2  1  0  0  0
 18 19  1  0  0  0
 19 20  1  0  0  0
 12 13  1  0  0  0
  5  8  1  0  0  0
  2  3  1  0  0  0
  2  4  1  0  0  0
 20 21  1  0  0  0
M  END
> <minimizedAffinity>
-7.26381

$$$$
6EXS_C3H_A_514


 24 23  0  0  0  0  0  0  0  0999 V2000
   25.1695    6.2463   34.8833 C   0  0  0  0  0  0  0  0  0  0  0  0
   25.0234    6.6558   36.2733 N   0  0  0  0  0  0  0  0  0  0  0  0
   24.0433    6.8628   36.4655 H   0  0  0  0  0  0  0  0  0  0  0  0
   25.5867    7.4890   36.4432 H   0  0  0  0  0  0  0  0  0  0  0  0
   24.2936    8.4772   34.5566 N   0  0  0  0  0  0  0  0  0  0  0  0
   24.7227    7.3599   33.9943 C   0  0  0  0  0  0  0  0  0  0  0  0
   24.7848    7.2020   32.7842 O   0  0  0  0  0  0  0  0  0  0  0  0
   23.6134    8.4275   35.2666 H   0  0  0  0  0  0  0  0  0  0  0  0
   24.7987    9.7677   34.1544 C   0  0  0  0  0  0  0  0  0  0  0  0
   22.7975   10.9380   34.6978 O   0  0  0  0  0  0  0  0  0  0  0  0
   23.9758   10.9130   34.6675 C   0  0  0  0  0  0  0  0  0  0  0  0
   24.7193   11.8998   35.0280 O   0  0  0  0  0  0  0  0  0  0  0  0
   25.6522   11.8245   34.9829 H   0  0  0  0  0  0  0  0  0  0  0  0
   24.3143    4.9974   34.6644 C   0  0  0  0  0  0  0  0  0  0  0  0
   22.5139    5.1907   34.7517 S   0  0  0  0  0  0  0  0  0  0  0  0
   21.6319    3.8094   33.8469 C   0  0  0  0  0  0  0  0  0  0  0  0
   22.0196    2.5329   34.5476 C   0  0  0  0  0  0  0  0  0  0  0  0
   22.0311    3.9044   32.3682 C   0  0  0  0  0  0  0  0  0  0  0  0
   21.6105    5.1473   31.6167 C   0  0  0  0  0  0  0  0  0  0  0  0
   22.6983    5.8812   31.1589 O   0  0  0  0  0  0  0  0  0  0  0  0
   23.2311    6.1750   31.9143 H   0  0  0  0  0  0  0  0  0  0  0  0
   20.1178    3.9886   33.9201 C   0  0  0  0  0  0  0  0  0  0  0  0
   19.3017    2.7115   33.8154 C   0  0  0  0  0  0  0  0  0  0  0  0
   18.1473    2.8711   32.8641 C   0  0  0  0  0  0  0  0  0  0  0  0
  7  6  2  0  0  0
 15 14  1  0  0  0
 15 16  1  0  0  0
 10 11  2  0  0  0
 14  1  1  0  0  0
  6  5  1  0  0  0
  6  1  1  0  0  0
 11 12  1  0  0  0
 11  9  1  0  0  0
 22 16  1  0  0  0
 22 23  1  0  0  0
 24 23  1  0  0  0
  5  9  1  0  0  0
 16 17  1  0  0  0
 16 18  1  0  0  0
  1  2  1  0  0  0
 18 19  1  0  0  0
 19 20  1  0  0  0
 12 13  1  0  0  0
  5  8  1  0  0  0
  2  3  1  0  0  0
  2  4  1  0  0  0
 20 21  1  0  0  0
M  END
> <minimizedAffinity>
-6.81178

$$$$
6EXS_C3H_A_514


 24 23  0  0  0  0  0  0  0  0999 V2000
   20.6175    5.1146   30.4398 C   0  0  0  0  0  0  0  0  0  0  0  0
   20.2834    6.1272   31.4319 N   0  0  0  0  0  0  0  0  0  0  0  0
   20.1347    5.6805   32.3367 H   0  0  0  0  0  0  0  0  0  0  0  0
   19.4325    6.6130   31.1485 H   0  0  0  0  0  0  0  0  0  0  0  0
   18.8312    3.8159   31.4265 N   0  0  0  0  0  0  0  0  0  0  0  0
   19.4857    4.1470   30.3262 C   0  0  0  0  0  0  0  0  0  0  0  0
   19.1987    3.7111   29.2213 O   0  0  0  0  0  0  0  0  0  0  0  0
   19.3387    3.5247   32.2182 H   0  0  0  0  0  0  0  0  0  0  0  0
   17.3908    3.8711   31.4942 C   0  0  0  0  0  0  0  0  0  0  0  0
   15.9144    4.4717   33.2632 O   0  0  0  0  0  0  0  0  0  0  0  0
   16.8822    4.7068   32.6322 C   0  0  0  0  0  0  0  0  0  0  0  0
   17.6102    5.7538   32.8069 O   0  0  0  0  0  0  0  0  0  0  0  0
   18.3699    5.8901   32.2757 H   0  0  0  0  0  0  0  0  0  0  0  0
   21.8952    4.4079   30.8952 C   0  0  0  0  0  0  0  0  0  0  0  0
   23.1783    5.4217   31.6776 S   0  0  0  0  0  0  0  0  0  0  0  0
   23.5029    4.8765   33.4389 C   0  0  0  0  0  0  0  0  0  0  0  0
   23.8049    3.4017   33.3738 C   0  0  0  0  0  0  0  0  0  0  0  0
   22.2747    5.2680   34.2716 C   0  0  0  0  0  0  0  0  0  0  0  0
   21.2031    4.2179   34.4595 C   0  0  0  0  0  0  0  0  0  0  0  0
   19.9366    4.6923   34.1396 O   0  0  0  0  0  0  0  0  0  0  0  0
   19.7116    5.4328   34.7243 H   0  0  0  0  0  0  0  0  0  0  0  0
   24.7028    5.6148   34.0263 C   0  0  0  0  0  0  0  0  0  0  0  0
   25.1218    6.8745   33.2877 C   0  0  0  0  0  0  0  0  0  0  0  0
   24.9769    8.0958   34.1541 C   0  0  0  0  0  0  0  0  0  0  0  0
  7  6  2  0  0  0
 15 14  1  0  0  0
 15 16  1  0  0  0
 10 11  2  0  0  0
 14  1  1  0  0  0
  6  5  1  0  0  0
  6  1  1  0  0  0
 11 12  1  0  0  0
 11  9  1  0  0  0
 22 16  1  0  0  0
 22 23  1  0  0  0
 24 23  1  0  0  0
  5  9  1  0  0  0
 16 17  1  0  0  0
 16 18  1  0  0  0
  1  2  1  0  0  0
 18 19  1  0  0  0
 19 20  1  0  0  0
 12 13  1  0  0  0
  5  8  1  0  0  0
  2  3  1  0  0  0
  2  4  1  0  0  0
 20 21  1  0  0  0
M  END
> <minimizedAffinity>
-6.57021

$$$$
6EXS_C3H_A_514


 24 23  0  0  0  0  0  0  0  0999 V2000
   19.6841    6.0376   31.0881 C   0  0  0  0  0  0  0  0  0  0  0  0
   19.4919    6.5742   32.4283 N   0  0  0  0  0  0  0  0  0  0  0  0
   19.3888    5.8055   33.0908 H   0  0  0  0  0  0  0  0  0  0  0  0
   18.6521    7.1529   32.4456 H   0  0  0  0  0  0  0  0  0  0  0  0
   18.5392    3.9156   30.8944 N   0  0  0  0  0  0  0  0  0  0  0  0
   18.4903    5.2241   30.7096 C   0  0  0  0  0  0  0  0  0  0  0  0
   17.5108    5.7990   30.2589 O   0  0  0  0  0  0  0  0  0  0  0  0
   19.3122    3.4106   30.5528 H   0  0  0  0  0  0  0  0  0  0  0  0
   17.4866    3.2103   31.5849 C   0  0  0  0  0  0  0  0  0  0  0  0
   17.9605    2.1796   33.6784 O   0  0  0  0  0  0  0  0  0  0  0  0
   17.6872    3.1524   33.0710 C   0  0  0  0  0  0  0  0  0  0  0  0
   17.4716    4.2974   33.6180 O   0  0  0  0  0  0  0  0  0  0  0  0
   17.2576    5.0381   33.0856 H   0  0  0  0  0  0  0  0  0  0  0  0
   20.9488    5.1777   31.0984 C   0  0  0  0  0  0  0  0  0  0  0  0
   21.3125    4.2432   32.6086 S   0  0  0  0  0  0  0  0  0  0  0  0
   23.0790    4.5077   33.1692 C   0  0  0  0  0  0  0  0  0  0  0  0
   23.0463    5.6692   34.1286 C   0  0  0  0  0  0  0  0  0  0  0  0
   23.9323    4.7089   31.9097 C   0  0  0  0  0  0  0  0  0  0  0  0
   24.7071    6.0027   31.7985 C   0  0  0  0  0  0  0  0  0  0  0  0
   24.0597    6.9394   31.0018 O   0  0  0  0  0  0  0  0  0  0  0  0
   23.9654    6.5889   30.1023 H   0  0  0  0  0  0  0  0  0  0  0  0
   23.6147    3.2717   33.8868 C   0  0  0  0  0  0  0  0  0  0  0  0
   22.6113    2.5339   34.7570 C   0  0  0  0  0  0  0  0  0  0  0  0
   23.2672    1.4287   35.5390 C   0  0  0  0  0  0  0  0  0  0  0  0
  7  6  2  0  0  0
 15 14  1  0  0  0
 15 16  1  0  0  0
 10 11  2  0  0  0
 14  1  1  0  0  0
  6  5  1  0  0  0
  6  1  1  0  0  0
 11 12  1  0  0  0
 11  9  1  0  0  0
 22 16  1  0  0  0
 22 23  1  0  0  0
 24 23  1  0  0  0
  5  9  1  0  0  0
 16 17  1  0  0  0
 16 18  1  0  0  0
  1  2  1  0  0  0
 18 19  1  0  0  0
 19 20  1  0  0  0
 12 13  1  0  0  0
  5  8  1  0  0  0
  2  3  1  0  0  0
  2  4  1  0  0  0
 20 21  1  0  0  0
M  END
> <minimizedAffinity>
-6.55511

$$$$
6EXS_C3H_A_514


 24 23  0  0  0  0  0  0  0  0999 V2000
   19.5426    5.8293   31.4160 C   0  0  0  0  0  0  0  0  0  0  0  0
   19.1690    6.6342   32.5709 N   0  0  0  0  0  0  0  0  0  0  0  0
   18.7579    6.0335   33.2854 H   0  0  0  0  0  0  0  0  0  0  0  0
   18.4893    7.3401   32.2878 H   0  0  0  0  0  0  0  0  0  0  0  0
   18.3138    3.8567   30.7450 N   0  0  0  0  0  0  0  0  0  0  0  0
   18.3216    5.1742   30.8592 C   0  0  0  0  0  0  0  0  0  0  0  0
   17.3730    5.8776   30.5452 O   0  0  0  0  0  0  0  0  0  0  0  0
   19.0699    3.4084   30.3017 H   0  0  0  0  0  0  0  0  0  0  0  0
   17.2234    3.0607   31.2546 C   0  0  0  0  0  0  0  0  0  0  0  0
   17.8617    2.8005   33.5339 O   0  0  0  0  0  0  0  0  0  0  0  0
   17.0633    3.1583   32.7436 C   0  0  0  0  0  0  0  0  0  0  0  0
   15.9120    3.6387   33.0607 O   0  0  0  0  0  0  0  0  0  0  0  0
   15.3158    3.9079   32.3898 H   0  0  0  0  0  0  0  0  0  0  0  0
   20.5604    4.7844   31.8755 C   0  0  0  0  0  0  0  0  0  0  0  0
   22.0871    4.6234   30.9113 S   0  0  0  0  0  0  0  0  0  0  0  0
   23.6034    4.7772   31.9984 C   0  0  0  0  0  0  0  0  0  0  0  0
   24.1910    6.1346   31.7110 C   0  0  0  0  0  0  0  0  0  0  0  0
   24.5113    3.5798   31.6876 C   0  0  0  0  0  0  0  0  0  0  0  0
   24.4631    3.0212   30.2832 C   0  0  0  0  0  0  0  0  0  0  0  0
   25.2968    3.7112   29.4113 O   0  0  0  0  0  0  0  0  0  0  0  0
   25.0125    4.6369   29.3566 H   0  0  0  0  0  0  0  0  0  0  0  0
   23.2272    4.6895   33.4751 C   0  0  0  0  0  0  0  0  0  0  0  0
   23.4444    3.3342   34.1264 C   0  0  0  0  0  0  0  0  0  0  0  0
   22.1522    2.7507   34.6294 C   0  0  0  0  0  0  0  0  0  0  0  0
  7  6  2  0  0  0
 15 14  1  0  0  0
 15 16  1  0  0  0
 10 11  2  0  0  0
 14  1  1  0  0  0
  6  5  1  0  0  0
  6  1  1  0  0  0
 11 12  1  0  0  0
 11  9  1  0  0  0
 22 16  1  0  0  0
 22 23  1  0  0  0
 24 23  1  0  0  0
  5  9  1  0  0  0
 16 17  1  0  0  0
 16 18  1  0  0  0
  1  2  1  0  0  0
 18 19  1  0  0  0
 19 20  1  0  0  0
 12 13  1  0  0  0
  5  8  1  0  0  0
  2  3  1  0  0  0
  2  4  1  0  0  0
 20 21  1  0  0  0
M  END
> <minimizedAffinity>
-6.50566

$$$$
6EXS_C3H_A_514


 24 23  0  0  0  0  0  0  0  0999 V2000
   19.8573    5.9533   31.1707 C   0  0  0  0  0  0  0  0  0  0  0  0
   19.3340    6.6294   32.3497 N   0  0  0  0  0  0  0  0  0  0  0  0
   19.0274    5.9354   33.0315 H   0  0  0  0  0  0  0  0  0  0  0  0
   18.5435    7.2159   32.0825 H   0  0  0  0  0  0  0  0  0  0  0  0
   18.6798    3.8531   30.9385 N   0  0  0  0  0  0  0  0  0  0  0  0
   18.7780    5.1178   30.5648 C   0  0  0  0  0  0  0  0  0  0  0  0
   18.0192    5.6376   29.7602 O   0  0  0  0  0  0  0  0  0  0  0  0
   19.4830    3.2840   30.9239 H   0  0  0  0  0  0  0  0  0  0  0  0
   17.4234    3.2874   31.3671 C   0  0  0  0  0  0  0  0  0  0  0  0
   17.7630    4.1682   33.5531 O   0  0  0  0  0  0  0  0  0  0  0  0
   17.0327    3.6956   32.7573 C   0  0  0  0  0  0  0  0  0  0  0  0
   15.7994    3.4170   32.9985 O   0  0  0  0  0  0  0  0  0  0  0  0
   15.2640    3.0418   32.3273 H   0  0  0  0  0  0  0  0  0  0  0  0
   21.0386    5.0852   31.6070 C   0  0  0  0  0  0  0  0  0  0  0  0
   21.4542    5.0639   33.3714 S   0  0  0  0  0  0  0  0  0  0  0  0
   23.0125    4.0786   33.6962 C   0  0  0  0  0  0  0  0  0  0  0  0
   23.6391    3.8264   32.3493 C   0  0  0  0  0  0  0  0  0  0  0  0
   22.6051    2.8271   34.4853 C   0  0  0  0  0  0  0  0  0  0  0  0
   23.7078    1.8745   34.8890 C   0  0  0  0  0  0  0  0  0  0  0  0
   23.3792    1.1341   36.0183 O   0  0  0  0  0  0  0  0  0  0  0  0
   23.2358    1.7333   36.7674 H   0  0  0  0  0  0  0  0  0  0  0  0
   23.9852    4.8677   34.5686 C   0  0  0  0  0  0  0  0  0  0  0  0
   24.4471    6.1971   33.9962 C   0  0  0  0  0  0  0  0  0  0  0  0
   25.6085    6.7574   34.7710 C   0  0  0  0  0  0  0  0  0  0  0  0
  7  6  2  0  0  0
 15 14  1  0  0  0
 15 16  1  0  0  0
 10 11  2  0  0  0
 14  1  1  0  0  0
  6  5  1  0  0  0
  6  1  1  0  0  0
 11 12  1  0  0  0
 11  9  1  0  0  0
 22 16  1  0  0  0
 22 23  1  0  0  0
 24 23  1  0  0  0
  5  9  1  0  0  0
 16 17  1  0  0  0
 16 18  1  0  0  0
  1  2  1  0  0  0
 18 19  1  0  0  0
 19 20  1  0  0  0
 12 13  1  0  0  0
  5  8  1  0  0  0
  2  3  1  0  0  0
  2  4  1  0  0  0
 20 21  1  0  0  0
M  END
> <minimizedAffinity>
-6.45500

$$$$
6EXS_C3H_A_514


 24 23  0  0  0  0  0  0  0  0999 V2000
   21.2658    4.5620   30.7903 C   0  0  0  0  0  0  0  0  0  0  0  0
   21.5299    3.8392   29.5538 N   0  0  0  0  0  0  0  0  0  0  0  0
   21.8095    4.4986   28.8276 H   0  0  0  0  0  0  0  0  0  0  0  0
   20.6856    3.3480   29.2602 H   0  0  0  0  0  0  0  0  0  0  0  0
   19.5536    5.5342   29.3852 N   0  0  0  0  0  0  0  0  0  0  0  0
   20.1568    5.5356   30.5620 C   0  0  0  0  0  0  0  0  0  0  0  0
   19.8398    6.2843   31.4743 O   0  0  0  0  0  0  0  0  0  0  0  0
   20.0984    5.5697   28.5659 H   0  0  0  0  0  0  0  0  0  0  0  0
   18.1159    5.4818   29.2733 C   0  0  0  0  0  0  0  0  0  0  0  0
   16.5158    3.9749   30.1892 O   0  0  0  0  0  0  0  0  0  0  0  0
   17.5414    4.1427   29.6325 C   0  0  0  0  0  0  0  0  0  0  0  0
   18.3376    3.1871   29.3014 O   0  0  0  0  0  0  0  0  0  0  0  0
   19.1413    3.3787   28.8595 H   0  0  0  0  0  0  0  0  0  0  0  0
   22.5498    5.2846   31.2007 C   0  0  0  0  0  0  0  0  0  0  0  0
   23.7687    4.3451   32.1588 S   0  0  0  0  0  0  0  0  0  0  0  0
   23.3806    4.3868   33.9897 C   0  0  0  0  0  0  0  0  0  0  0  0
   23.4977    2.9658   34.4770 C   0  0  0  0  0  0  0  0  0  0  0  0
   21.9977    5.0328   34.1486 C   0  0  0  0  0  0  0  0  0  0  0  0
   20.8258    4.1082   34.3899 C   0  0  0  0  0  0  0  0  0  0  0  0
   19.6110    4.6984   34.0624 O   0  0  0  0  0  0  0  0  0  0  0  0
   19.4717    5.4812   34.6180 H   0  0  0  0  0  0  0  0  0  0  0  0
   24.3795    5.2643   34.7394 C   0  0  0  0  0  0  0  0  0  0  0  0
   24.1254    6.7600   34.6599 C   0  0  0  0  0  0  0  0  0  0  0  0
   25.2293    7.4686   33.9235 C   0  0  0  0  0  0  0  0  0  0  0  0
  7  6  2  0  0  0
 15 14  1  0  0  0
 15 16  1  0  0  0
 10 11  2  0  0  0
 14  1  1  0  0  0
  6  5  1  0  0  0
  6  1  1  0  0  0
 11 12  1  0  0  0
 11  9  1  0  0  0
 22 16  1  0  0  0
 22 23  1  0  0  0
 24 23  1  0  0  0
  5  9  1  0  0  0
 16 17  1  0  0  0
 16 18  1  0  0  0
  1  2  1  0  0  0
 18 19  1  0  0  0
 19 20  1  0  0  0
 12 13  1  0  0  0
  5  8  1  0  0  0
  2  3  1  0  0  0
  2  4  1  0  0  0
 20 21  1  0  0  0
M  END
> <minimizedAffinity>
-6.36925

$$$$
6EXS_C3H_A_514


 24 23  0  0  0  0  0  0  0  0999 V2000
   21.6332    4.9320   31.8970 C   0  0  0  0  0  0  0  0  0  0  0  0
   21.5995    5.7897   33.0735 N   0  0  0  0  0  0  0  0  0  0  0  0
   21.7483    6.7588   32.7922 H   0  0  0  0  0  0  0  0  0  0  0  0
   22.3348    5.5071   33.7215 H   0  0  0  0  0  0  0  0  0  0  0  0
   23.5539    6.2365   31.2182 N   0  0  0  0  0  0  0  0  0  0  0  0
   22.9701    5.0501   31.2421 C   0  0  0  0  0  0  0  0  0  0  0  0
   23.4789    4.0455   30.7678 O   0  0  0  0  0  0  0  0  0  0  0  0
   23.0438    7.0168   30.9019 H   0  0  0  0  0  0  0  0  0  0  0  0
   24.9208    6.4144   31.6449 C   0  0  0  0  0  0  0  0  0  0  0  0
   24.3125    7.2928   33.7728 O   0  0  0  0  0  0  0  0  0  0  0  0
   25.0556    6.6504   33.1208 C   0  0  0  0  0  0  0  0  0  0  0  0
   26.1227    6.1026   33.5875 O   0  0  0  0  0  0  0  0  0  0  0  0
   26.6778    5.6019   33.0226 H   0  0  0  0  0  0  0  0  0  0  0  0
   20.5203    5.3826   30.9496 C   0  0  0  0  0  0  0  0  0  0  0  0
   18.9361    5.8628   31.6886 S   0  0  0  0  0  0  0  0  0  0  0  0
   17.6899    4.4683   31.6036 C   0  0  0  0  0  0  0  0  0  0  0  0
   17.6029    4.0698   30.1530 C   0  0  0  0  0  0  0  0  0  0  0  0
   16.3873    4.9814   32.2319 C   0  0  0  0  0  0  0  0  0  0  0  0
   15.3139    3.9591   32.5307 C   0  0  0  0  0  0  0  0  0  0  0  0
   14.5168    4.3292   33.6073 O   0  0  0  0  0  0  0  0  0  0  0  0
   15.0645    4.4044   34.4043 H   0  0  0  0  0  0  0  0  0  0  0  0
   18.1521    3.2722   32.4316 C   0  0  0  0  0  0  0  0  0  0  0  0
   18.7763    3.6084   33.7753 C   0  0  0  0  0  0  0  0  0  0  0  0
   19.9533    2.7205   34.0743 C   0  0  0  0  0  0  0  0  0  0  0  0
  7  6  2  0  0  0
 15 14  1  0  0  0
 15 16  1  0  0  0
 10 11  2  0  0  0
 14  1  1  0  0  0
  6  5  1  0  0  0
  6  1  1  0  0  0
 11 12  1  0  0  0
 11  9  1  0  0  0
 22 16  1  0  0  0
 22 23  1  0  0  0
 24 23  1  0  0  0
  5  9  1  0  0  0
 16 17  1  0  0  0
 16 18  1  0  0  0
  1  2  1  0  0  0
 18 19  1  0  0  0
 19 20  1  0  0  0
 12 13  1  0  0  0
  5  8  1  0  0  0
  2  3  1  0  0  0
  2  4  1  0  0  0
 20 21  1  0  0  0
M  END
> <minimizedAffinity>
-6.36184

$$$$
6EXS_C3H_A_514


 24 23  0  0  0  0  0  0  0  0999 V2000
   19.1109    5.3885   32.0527 C   0  0  0  0  0  0  0  0  0  0  0  0
   19.5211    6.7369   32.4198 N   0  0  0  0  0  0  0  0  0  0  0  0
   19.6251    6.7967   33.4327 H   0  0  0  0  0  0  0  0  0  0  0  0
   18.8137    7.4035   32.1107 H   0  0  0  0  0  0  0  0  0  0  0  0
   16.7011    5.5750   32.1479 N   0  0  0  0  0  0  0  0  0  0  0  0
   17.7988    5.0826   32.6968 C   0  0  0  0  0  0  0  0  0  0  0  0
   17.7884    4.3781   33.6952 O   0  0  0  0  0  0  0  0  0  0  0  0
   16.6617    6.5341   31.9293 H   0  0  0  0  0  0  0  0  0  0  0  0
   15.5595    4.7400   31.8617 C   0  0  0  0  0  0  0  0  0  0  0  0
   13.3497    5.5154   32.2920 O   0  0  0  0  0  0  0  0  0  0  0  0
   14.3600    5.0669   32.7021 C   0  0  0  0  0  0  0  0  0  0  0  0
   14.5867    4.8443   33.9494 O   0  0  0  0  0  0  0  0  0  0  0  0
   15.4093    4.4859   34.2193 H   0  0  0  0  0  0  0  0  0  0  0  0
   20.1920    4.4175   32.5298 C   0  0  0  0  0  0  0  0  0  0  0  0
   21.8094    4.5007   31.7154 S   0  0  0  0  0  0  0  0  0  0  0  0
   23.2009    4.5973   32.9640 C   0  0  0  0  0  0  0  0  0  0  0  0
   22.7188    5.5105   34.0613 C   0  0  0  0  0  0  0  0  0  0  0  0
   24.4558    5.0635   32.2138 C   0  0  0  0  0  0  0  0  0  0  0  0
   24.4277    6.4513   31.6142 C   0  0  0  0  0  0  0  0  0  0  0  0
   25.6934    6.8957   31.2511 O   0  0  0  0  0  0  0  0  0  0  0  0
   26.2587    6.9398   32.0381 H   0  0  0  0  0  0  0  0  0  0  0  0
   23.5070    3.2205   33.5476 C   0  0  0  0  0  0  0  0  0  0  0  0
   22.5930    2.7692   34.6741 C   0  0  0  0  0  0  0  0  0  0  0  0
   23.1827    1.6116   35.4326 C   0  0  0  0  0  0  0  0  0  0  0  0
  7  6  2  0  0  0
 15 14  1  0  0  0
 15 16  1  0  0  0
 10 11  2  0  0  0
 14  1  1  0  0  0
  6  5  1  0  0  0
  6  1  1  0  0  0
 11 12  1  0  0  0
 11  9  1  0  0  0
 22 16  1  0  0  0
 22 23  1  0  0  0
 24 23  1  0  0  0
  5  9  1  0  0  0
 16 17  1  0  0  0
 16 18  1  0  0  0
  1  2  1  0  0  0
 18 19  1  0  0  0
 19 20  1  0  0  0
 12 13  1  0  0  0
  5  8  1  0  0  0
  2  3  1  0  0  0
  2  4  1  0  0  0
 20 21  1  0  0  0
M  END
> <minimizedAffinity>
-6.34164

$$$$
6EXS_C3H_A_514


 24 23  0  0  0  0  0  0  0  0999 V2000
   20.6792    4.9675   30.8542 C   0  0  0  0  0  0  0  0  0  0  0  0
   21.7382    5.9336   30.5968 N   0  0  0  0  0  0  0  0  0  0  0  0
   21.8178    6.5701   31.3899 H   0  0  0  0  0  0  0  0  0  0  0  0
   21.5162    6.4652   29.7551 H   0  0  0  0  0  0  0  0  0  0  0  0
   18.3097    5.2092   30.4315 N   0  0  0  0  0  0  0  0  0  0  0  0
   19.3856    5.6928   31.0294 C   0  0  0  0  0  0  0  0  0  0  0  0
   19.3677    6.6944   31.7291 O   0  0  0  0  0  0  0  0  0  0  0  0
   18.3513    4.9873   29.4733 H   0  0  0  0  0  0  0  0  0  0  0  0
   17.0763    4.9989   31.1503 C   0  0  0  0  0  0  0  0  0  0  0  0
   16.9846    4.0606   33.3369 O   0  0  0  0  0  0  0  0  0  0  0  0
   17.1686    3.9128   32.1817 C   0  0  0  0  0  0  0  0  0  0  0  0
   17.5282    2.7950   31.6545 O   0  0  0  0  0  0  0  0  0  0  0  0
   17.6604    2.7347   30.7288 H   0  0  0  0  0  0  0  0  0  0  0  0
   21.0439    4.1899   32.1196 C   0  0  0  0  0  0  0  0  0  0  0  0
   21.9099    5.0895   33.4338 S   0  0  0  0  0  0  0  0  0  0  0  0
   23.6959    4.5461   33.5737 C   0  0  0  0  0  0  0  0  0  0  0  0
   23.6680    3.1531   34.1476 C   0  0  0  0  0  0  0  0  0  0  0  0
   24.4286    5.5985   34.4167 C   0  0  0  0  0  0  0  0  0  0  0  0
   25.3277    6.5683   33.6837 C   0  0  0  0  0  0  0  0  0  0  0  0
   24.6769    7.7539   33.3641 O   0  0  0  0  0  0  0  0  0  0  0  0
   23.9287    7.5638   32.7767 H   0  0  0  0  0  0  0  0  0  0  0  0
   24.3664    4.5166   32.2027 C   0  0  0  0  0  0  0  0  0  0  0  0
   24.5671    3.1358   31.6019 C   0  0  0  0  0  0  0  0  0  0  0  0
   24.0436    3.0659   30.1932 C   0  0  0  0  0  0  0  0  0  0  0  0
  7  6  2  0  0  0
 15 14  1  0  0  0
 15 16  1  0  0  0
 10 11  2  0  0  0
 14  1  1  0  0  0
  6  5  1  0  0  0
  6  1  1  0  0  0
 11 12  1  0  0  0
 11  9  1  0  0  0
 22 16  1  0  0  0
 22 23  1  0  0  0
 24 23  1  0  0  0
  5  9  1  0  0  0
 16 17  1  0  0  0
 16 18  1  0  0  0
  1  2  1  0  0  0
 18 19  1  0  0  0
 19 20  1  0  0  0
 12 13  1  0  0  0
  5  8  1  0  0  0
  2  3  1  0  0  0
  2  4  1  0  0  0
 20 21  1  0  0  0
M  END
> <minimizedAffinity>
-6.19542

$$$$
