3OZP_OAN_A_1


 30 31  0  0  0  0  0  0  0  0999 V2000
   35.0376  -58.1559   39.9878 C   0  0  0  0  0  0  0  0  0  0  0  0
   34.1669  -56.9428   40.3992 C   0  0  0  0  0  0  0  0  0  0  0  0
   33.2556  -56.6276   39.3446 O   0  0  0  0  0  0  0  0  0  0  0  0
   33.4114  -57.2356   41.6749 C   0  0  0  0  0  0  0  0  0  0  0  0
   32.5913  -56.1132   42.0187 O   0  0  0  0  0  0  0  0  0  0  0  0
   34.4579  -57.4905   42.7369 C   0  0  0  0  0  0  0  0  0  0  0  0
   35.2066  -58.6804   42.3860 O   0  0  0  0  0  0  0  0  0  0  0  0
   35.4105  -59.0168   41.0623 C   0  0  0  0  0  0  0  0  0  0  0  0
   35.9778  -60.1806   40.7437 N   0  0  0  0  0  0  0  0  0  0  0  0
   32.6747  -57.3871   39.1815 H   0  0  0  0  0  0  0  0  0  0  0  0
   33.1477  -55.3252   42.1200 H   0  0  0  0  0  0  0  0  0  0  0  0
   38.2731  -56.3606   38.9239 C   0  0  0  0  0  0  0  0  0  0  0  0
   37.1537  -56.8230   39.8565 C   0  0  0  0  0  0  0  0  0  0  0  0
   37.1506  -56.4822   41.0382 O   0  0  0  0  0  0  0  0  0  0  0  0
   36.2256  -57.6211   39.2827 N   0  0  0  0  0  0  0  0  0  0  0  0
   36.3469  -57.8622   38.3360 H   0  0  0  0  0  0  0  0  0  0  0  0
   33.8028  -57.7086   44.0973 C   0  0  0  0  0  0  0  0  0  0  0  0
   32.6080  -58.4776   43.9434 O   0  0  0  0  0  0  0  0  0  0  0  0
   31.9901  -58.0030   43.3657 H   0  0  0  0  0  0  0  0  0  0  0  0
   36.3977  -61.0395   41.8781 O   0  0  0  0  0  0  0  0  0  0  0  0
   35.5227  -62.0163   42.2626 C   0  0  0  0  0  0  0  0  0  0  0  0
   35.9151  -63.1633   42.4908 O   0  0  0  0  0  0  0  0  0  0  0  0
   34.2339  -61.6622   42.4237 N   0  0  0  0  0  0  0  0  0  0  0  0
   33.9811  -60.7289   42.2385 H   0  0  0  0  0  0  0  0  0  0  0  0
   33.2779  -62.5091   42.8216 C   0  0  0  0  0  0  0  0  0  0  0  0
   31.9552  -62.0739   42.9489 C   0  0  0  0  0  0  0  0  0  0  0  0
   30.9584  -62.9739   43.3335 C   0  0  0  0  0  0  0  0  0  0  0  0
   31.2815  -64.3114   43.5771 C   0  0  0  0  0  0  0  0  0  0  0  0
   32.5975  -64.7531   43.4363 C   0  0  0  0  0  0  0  0  0  0  0  0
   33.5935  -63.8524   43.0508 C   0  0  0  0  0  0  0  0  0  0  0  0
 12 13  1  0  0  0
 13 14  2  0  0  0
 13 15  1  0  0  0
 15  1  1  0  0  0
  1  2  1  0  0  0
  1  8  1  0  0  0
  2  3  1  0  0  0
  2  4  1  0  0  0
  4  5  1  0  0  0
  4  6  1  0  0  0
  6 17  1  0  0  0
  6  7  1  0  0  0
 17 18  1  0  0  0
  7  8  1  0  0  0
  8  9  2  0  0  0
  9 20  1  0  0  0
 20 21  1  0  0  0
 21 22  2  0  0  0
 21 23  1  0  0  0
 23 25  1  0  0  0
 25 26  2  0  0  0
 25 30  1  0  0  0
 26 27  1  0  0  0
 27 28  2  0  0  0
 28 29  1  0  0  0
 29 30  2  0  0  0
 15 16  1  0  0  0
  3 10  1  0  0  0
  5 11  1  0  0  0
 18 19  1  0  0  0
 23 24  1  0  0  0
M  END
> <minimizedAffinity>
-9.79652

$$$$
3OZP_OAN_A_1


 30 31  0  0  0  0  0  0  0  0999 V2000
   34.6951  -61.1708   41.9129 C   0  0  0  0  0  0  0  0  0  0  0  0
   35.6575  -59.9576   41.9414 C   0  0  0  0  0  0  0  0  0  0  0  0
   36.4360  -59.9355   40.7431 O   0  0  0  0  0  0  0  0  0  0  0  0
   34.8856  -58.6668   42.0889 C   0  0  0  0  0  0  0  0  0  0  0  0
   35.7925  -57.5585   42.0821 O   0  0  0  0  0  0  0  0  0  0  0  0
   34.1519  -58.7615   43.4083 C   0  0  0  0  0  0  0  0  0  0  0  0
   33.1905  -59.8433   43.3373 O   0  0  0  0  0  0  0  0  0  0  0  0
   33.4413  -60.9554   42.5581 C   0  0  0  0  0  0  0  0  0  0  0  0
   32.4985  -61.8824   42.3857 N   0  0  0  0  0  0  0  0  0  0  0  0
   35.8476  -59.8486   39.9769 H   0  0  0  0  0  0  0  0  0  0  0  0
   36.4342  -57.6615   42.8022 H   0  0  0  0  0  0  0  0  0  0  0  0
   36.8999  -64.2430   42.6367 C   0  0  0  0  0  0  0  0  0  0  0  0
   36.3003  -63.0913   41.8301 C   0  0  0  0  0  0  0  0  0  0  0  0
   36.6371  -62.9117   40.6610 O   0  0  0  0  0  0  0  0  0  0  0  0
   35.4214  -62.3178   42.5059 N   0  0  0  0  0  0  0  0  0  0  0  0
   35.2533  -62.5302   43.4524 H   0  0  0  0  0  0  0  0  0  0  0  0
   33.4066  -57.4638   43.7045 C   0  0  0  0  0  0  0  0  0  0  0  0
   33.0469  -56.8198   42.4803 O   0  0  0  0  0  0  0  0  0  0  0  0
   33.8490  -56.6170   41.9739 H   0  0  0  0  0  0  0  0  0  0  0  0
   31.2188  -61.6594   43.1022 O   0  0  0  0  0  0  0  0  0  0  0  0
   30.7631  -62.6899   43.8758 C   0  0  0  0  0  0  0  0  0  0  0  0
   29.8816  -63.4483   43.4642 O   0  0  0  0  0  0  0  0  0  0  0  0
   31.3462  -62.8653   45.0764 N   0  0  0  0  0  0  0  0  0  0  0  0
   32.0532  -62.2358   45.3468 H   0  0  0  0  0  0  0  0  0  0  0  0
   31.0175  -63.8483   45.9222 C   0  0  0  0  0  0  0  0  0  0  0  0
   31.5085  -65.1430   45.7275 C   0  0  0  0  0  0  0  0  0  0  0  0
   31.1862  -66.1553   46.6345 C   0  0  0  0  0  0  0  0  0  0  0  0
   30.3848  -65.8702   47.7431 C   0  0  0  0  0  0  0  0  0  0  0  0
   29.9054  -64.5762   47.9493 C   0  0  0  0  0  0  0  0  0  0  0  0
   30.2291  -63.5643   47.0421 C   0  0  0  0  0  0  0  0  0  0  0  0
 12 13  1  0  0  0
 13 14  2  0  0  0
 13 15  1  0  0  0
 15  1  1  0  0  0
  1  2  1  0  0  0
  1  8  1  0  0  0
  2  3  1  0  0  0
  2  4  1  0  0  0
  4  5  1  0  0  0
  4  6  1  0  0  0
  6 17  1  0  0  0
  6  7  1  0  0  0
 17 18  1  0  0  0
  7  8  1  0  0  0
  8  9  2  0  0  0
  9 20  1  0  0  0
 20 21  1  0  0  0
 21 22  2  0  0  0
 21 23  1  0  0  0
 23 25  1  0  0  0
 25 26  2  0  0  0
 25 30  1  0  0  0
 26 27  1  0  0  0
 27 28  2  0  0  0
 28 29  1  0  0  0
 29 30  2  0  0  0
 15 16  1  0  0  0
  3 10  1  0  0  0
  5 11  1  0  0  0
 18 19  1  0  0  0
 23 24  1  0  0  0
M  END
> <minimizedAffinity>
-9.36393

$$$$
3OZP_OAN_A_1


 30 31  0  0  0  0  0  0  0  0999 V2000
   35.0883  -58.1704   39.9536 C   0  0  0  0  0  0  0  0  0  0  0  0
   34.1906  -56.9725   40.3512 C   0  0  0  0  0  0  0  0  0  0  0  0
   33.2605  -56.7015   39.3006 O   0  0  0  0  0  0  0  0  0  0  0  0
   33.4562  -57.2602   41.6403 C   0  0  0  0  0  0  0  0  0  0  0  0
   32.6106  -56.1529   41.9715 O   0  0  0  0  0  0  0  0  0  0  0  0
   34.5198  -57.4673   42.6956 C   0  0  0  0  0  0  0  0  0  0  0  0
   35.2957  -58.6440   42.3593 O   0  0  0  0  0  0  0  0  0  0  0  0
   35.4946  -59.0005   41.0401 C   0  0  0  0  0  0  0  0  0  0  0  0
   36.0888  -60.1552   40.7376 N   0  0  0  0  0  0  0  0  0  0  0  0
   32.6980  -57.4788   39.1583 H   0  0  0  0  0  0  0  0  0  0  0  0
   33.1473  -55.3489   42.0517 H   0  0  0  0  0  0  0  0  0  0  0  0
   38.2780  -56.3313   38.8281 C   0  0  0  0  0  0  0  0  0  0  0  0
   37.1842  -56.8102   39.7823 C   0  0  0  0  0  0  0  0  0  0  0  0
   37.2010  -56.4724   40.9647 O   0  0  0  0  0  0  0  0  0  0  0  0
   36.2547  -57.6188   39.2256 N   0  0  0  0  0  0  0  0  0  0  0  0
   36.3595  -57.8560   38.2759 H   0  0  0  0  0  0  0  0  0  0  0  0
   33.8847  -57.6760   44.0668 C   0  0  0  0  0  0  0  0  0  0  0  0
   34.9033  -57.7659   45.0654 O   0  0  0  0  0  0  0  0  0  0  0  0
   35.4850  -58.5164   44.8672 H   0  0  0  0  0  0  0  0  0  0  0  0
   36.5427  -60.9807   41.8836 O   0  0  0  0  0  0  0  0  0  0  0  0
   36.5597  -62.3341   41.6939 C   0  0  0  0  0  0  0  0  0  0  0  0
   37.1090  -62.8277   40.7059 O   0  0  0  0  0  0  0  0  0  0  0  0
   35.9956  -63.0984   42.6478 N   0  0  0  0  0  0  0  0  0  0  0  0
   35.5827  -62.6490   43.4204 H   0  0  0  0  0  0  0  0  0  0  0  0
   35.9653  -64.4350   42.6033 C   0  0  0  0  0  0  0  0  0  0  0  0
   34.8455  -65.1009   42.0956 C   0  0  0  0  0  0  0  0  0  0  0  0
   34.8366  -66.4960   42.0230 C   0  0  0  0  0  0  0  0  0  0  0  0
   35.9521  -67.2241   42.4447 C   0  0  0  0  0  0  0  0  0  0  0  0
   37.0775  -66.5628   42.9376 C   0  0  0  0  0  0  0  0  0  0  0  0
   37.0857  -65.1675   43.0090 C   0  0  0  0  0  0  0  0  0  0  0  0
 12 13  1  0  0  0
 13 14  2  0  0  0
 13 15  1  0  0  0
 15  1  1  0  0  0
  1  2  1  0  0  0
  1  8  1  0  0  0
  2  3  1  0  0  0
  2  4  1  0  0  0
  4  5  1  0  0  0
  4  6  1  0  0  0
  6 17  1  0  0  0
  6  7  1  0  0  0
 17 18  1  0  0  0
  7  8  1  0  0  0
  8  9  2  0  0  0
  9 20  1  0  0  0
 20 21  1  0  0  0
 21 22  2  0  0  0
 21 23  1  0  0  0
 23 25  1  0  0  0
 25 26  2  0  0  0
 25 30  1  0  0  0
 26 27  1  0  0  0
 27 28  2  0  0  0
 28 29  1  0  0  0
 29 30  2  0  0  0
 15 16  1  0  0  0
  3 10  1  0  0  0
  5 11  1  0  0  0
 18 19  1  0  0  0
 23 24  1  0  0  0
M  END
> <minimizedAffinity>
-9.34210

$$$$
3OZP_OAN_A_1


 30 31  0  0  0  0  0  0  0  0999 V2000
   32.2410  -65.1378   44.2794 C   0  0  0  0  0  0  0  0  0  0  0  0
   31.7420  -66.0904   45.3941 C   0  0  0  0  0  0  0  0  0  0  0  0
   32.7855  -66.9996   45.7499 O   0  0  0  0  0  0  0  0  0  0  0  0
   31.2942  -65.3061   46.6059 C   0  0  0  0  0  0  0  0  0  0  0  0
   30.8664  -66.2075   47.6332 O   0  0  0  0  0  0  0  0  0  0  0  0
   30.1532  -64.4277   46.1430 C   0  0  0  0  0  0  0  0  0  0  0  0
   30.6525  -63.4810   45.1662 O   0  0  0  0  0  0  0  0  0  0  0  0
   31.7004  -63.8189   44.3328 C   0  0  0  0  0  0  0  0  0  0  0  0
   32.2468  -62.9021   43.5335 N   0  0  0  0  0  0  0  0  0  0  0  0
   33.5482  -66.5018   46.0837 H   0  0  0  0  0  0  0  0  0  0  0  0
   30.1465  -66.7635   47.2962 H   0  0  0  0  0  0  0  0  0  0  0  0
   32.2736  -67.2077   41.0332 C   0  0  0  0  0  0  0  0  0  0  0  0
   32.7622  -66.6934   42.3872 C   0  0  0  0  0  0  0  0  0  0  0  0
   33.8150  -67.1113   42.8661 O   0  0  0  0  0  0  0  0  0  0  0  0
   31.9490  -65.7927   42.9831 N   0  0  0  0  0  0  0  0  0  0  0  0
   31.1093  -65.5569   42.5264 H   0  0  0  0  0  0  0  0  0  0  0  0
   29.5597  -63.6530   47.3155 C   0  0  0  0  0  0  0  0  0  0  0  0
   28.5245  -64.4220   47.9317 O   0  0  0  0  0  0  0  0  0  0  0  0
   27.8257  -64.6017   47.2834 H   0  0  0  0  0  0  0  0  0  0  0  0
   31.6392  -61.5493   43.5735 O   0  0  0  0  0  0  0  0  0  0  0  0
   32.4932  -60.4908   43.4385 C   0  0  0  0  0  0  0  0  0  0  0  0
   32.5787  -59.6307   44.3186 O   0  0  0  0  0  0  0  0  0  0  0  0
   33.2619  -60.4547   42.3340 N   0  0  0  0  0  0  0  0  0  0  0  0
   33.1586  -61.1755   41.6714 H   0  0  0  0  0  0  0  0  0  0  0  0
   34.1584  -59.4928   42.0875 C   0  0  0  0  0  0  0  0  0  0  0  0
   33.7416  -58.1758   41.8707 C   0  0  0  0  0  0  0  0  0  0  0  0
   34.6875  -57.1725   41.6466 C   0  0  0  0  0  0  0  0  0  0  0  0
   36.0498  -57.4833   41.6531 C   0  0  0  0  0  0  0  0  0  0  0  0
   36.4704  -58.7934   41.8842 C   0  0  0  0  0  0  0  0  0  0  0  0
   35.5237  -59.7959   42.1092 C   0  0  0  0  0  0  0  0  0  0  0  0
 12 13  1  0  0  0
 13 14  2  0  0  0
 13 15  1  0  0  0
 15  1  1  0  0  0
  1  2  1  0  0  0
  1  8  1  0  0  0
  2  3  1  0  0  0
  2  4  1  0  0  0
  4  5  1  0  0  0
  4  6  1  0  0  0
  6 17  1  0  0  0
  6  7  1  0  0  0
 17 18  1  0  0  0
  7  8  1  0  0  0
  8  9  2  0  0  0
  9 20  1  0  0  0
 20 21  1  0  0  0
 21 22  2  0  0  0
 21 23  1  0  0  0
 23 25  1  0  0  0
 25 26  2  0  0  0
 25 30  1  0  0  0
 26 27  1  0  0  0
 27 28  2  0  0  0
 28 29  1  0  0  0
 29 30  2  0  0  0
 15 16  1  0  0  0
  3 10  1  0  0  0
  5 11  1  0  0  0
 18 19  1  0  0  0
 23 24  1  0  0  0
M  END
> <minimizedAffinity>
-8.96220

$$$$
3OZP_OAN_A_1


 30 31  0  0  0  0  0  0  0  0999 V2000
   34.8557  -61.0809   41.8508 C   0  0  0  0  0  0  0  0  0  0  0  0
   35.7343  -59.8056   41.8767 C   0  0  0  0  0  0  0  0  0  0  0  0
   36.4794  -59.7124   40.6609 O   0  0  0  0  0  0  0  0  0  0  0  0
   34.8807  -58.5726   42.0642 C   0  0  0  0  0  0  0  0  0  0  0  0
   35.7101  -57.4053   42.0545 O   0  0  0  0  0  0  0  0  0  0  0  0
   34.1881  -58.7370   43.3989 C   0  0  0  0  0  0  0  0  0  0  0  0
   33.3007  -59.8805   43.3327 O   0  0  0  0  0  0  0  0  0  0  0  0
   33.6066  -60.9611   42.5292 C   0  0  0  0  0  0  0  0  0  0  0  0
   32.7247  -61.9473   42.3637 N   0  0  0  0  0  0  0  0  0  0  0  0
   35.8676  -59.6542   39.9104 H   0  0  0  0  0  0  0  0  0  0  0  0
   36.3750  -57.4752   42.7573 H   0  0  0  0  0  0  0  0  0  0  0  0
   37.2396  -64.0422   42.4596 C   0  0  0  0  0  0  0  0  0  0  0  0
   36.5335  -62.9324   41.6810 C   0  0  0  0  0  0  0  0  0  0  0  0
   36.7771  -62.7602   40.4879 O   0  0  0  0  0  0  0  0  0  0  0  0
   35.6724  -62.1846   42.4070 N   0  0  0  0  0  0  0  0  0  0  0  0
   35.5824  -62.3864   43.3663 H   0  0  0  0  0  0  0  0  0  0  0  0
   33.3643  -57.4977   43.7345 C   0  0  0  0  0  0  0  0  0  0  0  0
   32.9808  -56.8287   42.5312 O   0  0  0  0  0  0  0  0  0  0  0  0
   33.7750  -56.5598   42.0435 H   0  0  0  0  0  0  0  0  0  0  0  0
   31.4511  -61.8228   43.1141 O   0  0  0  0  0  0  0  0  0  0  0  0
   31.0131  -62.9414   43.7659 C   0  0  0  0  0  0  0  0  0  0  0  0
   30.0734  -62.8822   44.5628 O   0  0  0  0  0  0  0  0  0  0  0  0
   31.6178  -64.1065   43.4674 N   0  0  0  0  0  0  0  0  0  0  0  0
   32.3544  -64.0945   42.8143 H   0  0  0  0  0  0  0  0  0  0  0  0
   31.2725  -65.2797   44.0095 C   0  0  0  0  0  0  0  0  0  0  0  0
   31.7272  -65.6313   45.2842 C   0  0  0  0  0  0  0  0  0  0  0  0
   31.3345  -66.8443   45.8551 C   0  0  0  0  0  0  0  0  0  0  0  0
   30.4764  -67.6988   45.1579 C   0  0  0  0  0  0  0  0  0  0  0  0
   30.0082  -67.3446   43.8922 C   0  0  0  0  0  0  0  0  0  0  0  0
   30.4008  -66.1309   43.3224 C   0  0  0  0  0  0  0  0  0  0  0  0
 12 13  1  0  0  0
 13 14  2  0  0  0
 13 15  1  0  0  0
 15  1  1  0  0  0
  1  2  1  0  0  0
  1  8  1  0  0  0
  2  3  1  0  0  0
  2  4  1  0  0  0
  4  5  1  0  0  0
  4  6  1  0  0  0
  6 17  1  0  0  0
  6  7  1  0  0  0
 17 18  1  0  0  0
  7  8  1  0  0  0
  8  9  2  0  0  0
  9 20  1  0  0  0
 20 21  1  0  0  0
 21 22  2  0  0  0
 21 23  1  0  0  0
 23 25  1  0  0  0
 25 26  2  0  0  0
 25 30  1  0  0  0
 26 27  1  0  0  0
 27 28  2  0  0  0
 28 29  1  0  0  0
 29 30  2  0  0  0
 15 16  1  0  0  0
  3 10  1  0  0  0
  5 11  1  0  0  0
 18 19  1  0  0  0
 23 24  1  0  0  0
M  END
> <minimizedAffinity>
-8.91002

$$$$
3OZP_OAN_A_1


 30 31  0  0  0  0  0  0  0  0999 V2000
   31.9357  -64.7010   43.4720 C   0  0  0  0  0  0  0  0  0  0  0  0
   31.8613  -66.2385   43.3002 C   0  0  0  0  0  0  0  0  0  0  0  0
   30.5114  -66.6264   43.0369 O   0  0  0  0  0  0  0  0  0  0  0  0
   32.7660  -66.6950   42.1790 C   0  0  0  0  0  0  0  0  0  0  0  0
   32.6578  -68.1139   42.0188 O   0  0  0  0  0  0  0  0  0  0  0  0
   34.1695  -66.2982   42.5801 C   0  0  0  0  0  0  0  0  0  0  0  0
   34.2499  -64.8531   42.6494 O   0  0  0  0  0  0  0  0  0  0  0  0
   33.1466  -64.1050   43.0103 C   0  0  0  0  0  0  0  0  0  0  0  0
   33.1839  -62.7740   42.9392 N   0  0  0  0  0  0  0  0  0  0  0  0
   30.2082  -66.2061   42.2170 H   0  0  0  0  0  0  0  0  0  0  0  0
   32.8921  -68.5522   42.8518 H   0  0  0  0  0  0  0  0  0  0  0  0
   30.6131  -63.5192   46.8892 C   0  0  0  0  0  0  0  0  0  0  0  0
   30.6270  -63.7345   45.3760 C   0  0  0  0  0  0  0  0  0  0  0  0
   29.6999  -63.3204   44.6821 O   0  0  0  0  0  0  0  0  0  0  0  0
   31.6990  -64.4103   44.9052 N   0  0  0  0  0  0  0  0  0  0  0  0
   32.3649  -64.7296   45.5563 H   0  0  0  0  0  0  0  0  0  0  0  0
   35.1837  -66.7955   41.5548 C   0  0  0  0  0  0  0  0  0  0  0  0
   34.5725  -66.8735   40.2652 O   0  0  0  0  0  0  0  0  0  0  0  0
   33.8253  -67.4911   40.2983 H   0  0  0  0  0  0  0  0  0  0  0  0
   34.4678  -62.1751   42.4992 O   0  0  0  0  0  0  0  0  0  0  0  0
   34.4538  -60.8383   42.2152 C   0  0  0  0  0  0  0  0  0  0  0  0
   33.9053  -60.0358   42.9746 O   0  0  0  0  0  0  0  0  0  0  0  0
   35.0987  -60.4364   41.1040 N   0  0  0  0  0  0  0  0  0  0  0  0
   35.5288  -61.1210   40.5423 H   0  0  0  0  0  0  0  0  0  0  0  0
   35.1872  -59.1576   40.7213 C   0  0  0  0  0  0  0  0  0  0  0  0
   36.3666  -58.4363   40.9307 C   0  0  0  0  0  0  0  0  0  0  0  0
   36.4604  -57.1114   40.4980 C   0  0  0  0  0  0  0  0  0  0  0  0
   35.3806  -56.5124   39.8439 C   0  0  0  0  0  0  0  0  0  0  0  0
   34.2075  -57.2335   39.6194 C   0  0  0  0  0  0  0  0  0  0  0  0
   34.1149  -58.5588   40.0517 C   0  0  0  0  0  0  0  0  0  0  0  0
 12 13  1  0  0  0
 13 14  2  0  0  0
 13 15  1  0  0  0
 15  1  1  0  0  0
  1  2  1  0  0  0
  1  8  1  0  0  0
  2  3  1  0  0  0
  2  4  1  0  0  0
  4  5  1  0  0  0
  4  6  1  0  0  0
  6 17  1  0  0  0
  6  7  1  0  0  0
 17 18  1  0  0  0
  7  8  1  0  0  0
  8  9  2  0  0  0
  9 20  1  0  0  0
 20 21  1  0  0  0
 21 22  2  0  0  0
 21 23  1  0  0  0
 23 25  1  0  0  0
 25 26  2  0  0  0
 25 30  1  0  0  0
 26 27  1  0  0  0
 27 28  2  0  0  0
 28 29  1  0  0  0
 29 30  2  0  0  0
 15 16  1  0  0  0
  3 10  1  0  0  0
  5 11  1  0  0  0
 18 19  1  0  0  0
 23 24  1  0  0  0
M  END
> <minimizedAffinity>
-8.79934

$$$$
3OZP_OAN_A_1


 30 31  0  0  0  0  0  0  0  0999 V2000
   35.0477  -58.5122   40.1938 C   0  0  0  0  0  0  0  0  0  0  0  0
   34.1801  -57.3047   40.6279 C   0  0  0  0  0  0  0  0  0  0  0  0
   33.2286  -57.0059   39.6044 O   0  0  0  0  0  0  0  0  0  0  0  0
   33.4735  -57.5961   41.9317 C   0  0  0  0  0  0  0  0  0  0  0  0
   32.6549  -56.4793   42.2971 O   0  0  0  0  0  0  0  0  0  0  0  0
   34.5597  -57.8332   42.9573 C   0  0  0  0  0  0  0  0  0  0  0  0
   35.3073  -59.0182   42.5878 O   0  0  0  0  0  0  0  0  0  0  0  0
   35.4673  -59.3618   41.2599 C   0  0  0  0  0  0  0  0  0  0  0  0
   36.0345  -60.5222   40.9290 N   0  0  0  0  0  0  0  0  0  0  0  0
   32.6499  -57.7722   39.4672 H   0  0  0  0  0  0  0  0  0  0  0  0
   33.2067  -55.6852   42.3732 H   0  0  0  0  0  0  0  0  0  0  0  0
   38.1736  -56.6253   38.9726 C   0  0  0  0  0  0  0  0  0  0  0  0
   37.0802  -57.0705   39.9434 C   0  0  0  0  0  0  0  0  0  0  0  0
   37.0513  -56.6278   41.0905 O   0  0  0  0  0  0  0  0  0  0  0  0
   36.2043  -57.9707   39.4431 N   0  0  0  0  0  0  0  0  0  0  0  0
   36.3442  -58.2865   38.5212 H   0  0  0  0  0  0  0  0  0  0  0  0
   33.9558  -58.0482   44.3416 C   0  0  0  0  0  0  0  0  0  0  0  0
   32.9504  -57.0635   44.5913 O   0  0  0  0  0  0  0  0  0  0  0  0
   33.3470  -56.1791   44.5515 H   0  0  0  0  0  0  0  0  0  0  0  0
   36.5032  -61.3689   42.0534 O   0  0  0  0  0  0  0  0  0  0  0  0
   36.9562  -62.6175   41.7316 C   0  0  0  0  0  0  0  0  0  0  0  0
   37.0674  -63.4921   42.5943 O   0  0  0  0  0  0  0  0  0  0  0  0
   37.2290  -62.8604   40.4359 N   0  0  0  0  0  0  0  0  0  0  0  0
   37.1099  -62.1271   39.7899 H   0  0  0  0  0  0  0  0  0  0  0  0
   37.6530  -64.0437   39.9781 C   0  0  0  0  0  0  0  0  0  0  0  0
   39.0210  -64.3181   39.8867 C   0  0  0  0  0  0  0  0  0  0  0  0
   39.4536  -65.5684   39.4383 C   0  0  0  0  0  0  0  0  0  0  0  0
   38.5189  -66.5486   39.0948 C   0  0  0  0  0  0  0  0  0  0  0  0
   37.1529  -66.2841   39.1992 C   0  0  0  0  0  0  0  0  0  0  0  0
   36.7213  -65.0336   39.6486 C   0  0  0  0  0  0  0  0  0  0  0  0
 12 13  1  0  0  0
 13 14  2  0  0  0
 13 15  1  0  0  0
 15  1  1  0  0  0
  1  2  1  0  0  0
  1  8  1  0  0  0
  2  3  1  0  0  0
  2  4  1  0  0  0
  4  5  1  0  0  0
  4  6  1  0  0  0
  6 17  1  0  0  0
  6  7  1  0  0  0
 17 18  1  0  0  0
  7  8  1  0  0  0
  8  9  2  0  0  0
  9 20  1  0  0  0
 20 21  1  0  0  0
 21 22  2  0  0  0
 21 23  1  0  0  0
 23 25  1  0  0  0
 25 26  2  0  0  0
 25 30  1  0  0  0
 26 27  1  0  0  0
 27 28  2  0  0  0
 28 29  1  0  0  0
 29 30  2  0  0  0
 15 16  1  0  0  0
  3 10  1  0  0  0
  5 11  1  0  0  0
 18 19  1  0  0  0
 23 24  1  0  0  0
M  END
> <minimizedAffinity>
-8.52497

$$$$
3OZP_OAN_A_1


 30 31  0  0  0  0  0  0  0  0999 V2000
   33.0140  -60.7883   42.7995 C   0  0  0  0  0  0  0  0  0  0  0  0
   33.6338  -59.4932   43.3805 C   0  0  0  0  0  0  0  0  0  0  0  0
   34.1884  -58.7106   42.3212 O   0  0  0  0  0  0  0  0  0  0  0  0
   32.5948  -58.6949   44.1335 C   0  0  0  0  0  0  0  0  0  0  0  0
   33.1824  -57.4891   44.6348 O   0  0  0  0  0  0  0  0  0  0  0  0
   32.1197  -59.5798   45.2645 C   0  0  0  0  0  0  0  0  0  0  0  0
   31.4615  -60.7446   44.7082 O   0  0  0  0  0  0  0  0  0  0  0  0
   31.8606  -61.2627   43.4919 C   0  0  0  0  0  0  0  0  0  0  0  0
   31.1657  -62.2458   42.9189 N   0  0  0  0  0  0  0  0  0  0  0  0
   33.4867  -58.4676   41.6972 H   0  0  0  0  0  0  0  0  0  0  0  0
   33.9321  -57.7094   45.2096 H   0  0  0  0  0  0  0  0  0  0  0  0
   36.0853  -62.9767   42.0242 C   0  0  0  0  0  0  0  0  0  0  0  0
   35.1192  -61.7992   41.8951 C   0  0  0  0  0  0  0  0  0  0  0  0
   35.3183  -60.9228   41.0556 O   0  0  0  0  0  0  0  0  0  0  0  0
   34.0869  -61.8093   42.7680 N   0  0  0  0  0  0  0  0  0  0  0  0
   34.0456  -62.5418   43.4244 H   0  0  0  0  0  0  0  0  0  0  0  0
   31.1272  -58.8344   46.1513 C   0  0  0  0  0  0  0  0  0  0  0  0
   31.8050  -58.2837   47.2827 O   0  0  0  0  0  0  0  0  0  0  0  0
   32.2134  -58.9992   47.7948 H   0  0  0  0  0  0  0  0  0  0  0  0
   29.9965  -62.7532   43.6781 O   0  0  0  0  0  0  0  0  0  0  0  0
   30.1878  -63.8943   44.4056 C   0  0  0  0  0  0  0  0  0  0  0  0
   30.1468  -65.0029   43.8661 O   0  0  0  0  0  0  0  0  0  0  0  0
   30.4656  -63.7524   45.7151 N   0  0  0  0  0  0  0  0  0  0  0  0
   30.4973  -62.8419   46.0881 H   0  0  0  0  0  0  0  0  0  0  0  0
   30.7011  -64.7810   46.5374 C   0  0  0  0  0  0  0  0  0  0  0  0
   31.8247  -65.5924   46.3519 C   0  0  0  0  0  0  0  0  0  0  0  0
   32.0796  -66.6440   47.2354 C   0  0  0  0  0  0  0  0  0  0  0  0
   31.2192  -66.8757   48.3118 C   0  0  0  0  0  0  0  0  0  0  0  0
   30.1054  -66.0589   48.5092 C   0  0  0  0  0  0  0  0  0  0  0  0
   29.8518  -65.0069   47.6256 C   0  0  0  0  0  0  0  0  0  0  0  0
 12 13  1  0  0  0
 13 14  2  0  0  0
 13 15  1  0  0  0
 15  1  1  0  0  0
  1  2  1  0  0  0
  1  8  1  0  0  0
  2  3  1  0  0  0
  2  4  1  0  0  0
  4  5  1  0  0  0
  4  6  1  0  0  0
  6 17  1  0  0  0
  6  7  1  0  0  0
 17 18  1  0  0  0
  7  8  1  0  0  0
  8  9  2  0  0  0
  9 20  1  0  0  0
 20 21  1  0  0  0
 21 22  2  0  0  0
 21 23  1  0  0  0
 23 25  1  0  0  0
 25 26  2  0  0  0
 25 30  1  0  0  0
 26 27  1  0  0  0
 27 28  2  0  0  0
 28 29  1  0  0  0
 29 30  2  0  0  0
 15 16  1  0  0  0
  3 10  1  0  0  0
  5 11  1  0  0  0
 18 19  1  0  0  0
 23 24  1  0  0  0
M  END
> <minimizedAffinity>
-8.38637

$$$$
3OZP_OAN_A_1


 30 31  0  0  0  0  0  0  0  0999 V2000
   34.6042  -64.8596   43.1043 C   0  0  0  0  0  0  0  0  0  0  0  0
   33.9318  -66.2026   43.4829 C   0  0  0  0  0  0  0  0  0  0  0  0
   34.8038  -66.9527   44.3309 O   0  0  0  0  0  0  0  0  0  0  0  0
   32.6090  -65.9617   44.1729 C   0  0  0  0  0  0  0  0  0  0  0  0
   32.0210  -67.2147   44.5403 O   0  0  0  0  0  0  0  0  0  0  0  0
   31.7410  -65.2243   43.1774 C   0  0  0  0  0  0  0  0  0  0  0  0
   32.3343  -63.9318   42.9001 O   0  0  0  0  0  0  0  0  0  0  0  0
   33.7045  -63.7648   42.9409 C   0  0  0  0  0  0  0  0  0  0  0  0
   34.2378  -62.5485   42.8224 N   0  0  0  0  0  0  0  0  0  0  0  0
   34.9761  -66.4506   45.1428 H   0  0  0  0  0  0  0  0  0  0  0  0
   31.9026  -67.7610   43.7476 H   0  0  0  0  0  0  0  0  0  0  0  0
   37.3018  -65.0790   40.3661 C   0  0  0  0  0  0  0  0  0  0  0  0
   36.7010  -64.7721   41.7377 C   0  0  0  0  0  0  0  0  0  0  0  0
   37.3974  -64.2796   42.6237 O   0  0  0  0  0  0  0  0  0  0  0  0
   35.3967  -65.0997   41.8760 N   0  0  0  0  0  0  0  0  0  0  0  0
   34.9448  -65.5249   41.1116 H   0  0  0  0  0  0  0  0  0  0  0  0
   30.3398  -65.0084   43.7405 C   0  0  0  0  0  0  0  0  0  0  0  0
   29.5173  -64.3663   42.7638 O   0  0  0  0  0  0  0  0  0  0  0  0
   29.9023  -63.5068   42.5315 H   0  0  0  0  0  0  0  0  0  0  0  0
   33.2854  -61.4314   42.6086 O   0  0  0  0  0  0  0  0  0  0  0  0
   33.8278  -60.2160   42.2981 C   0  0  0  0  0  0  0  0  0  0  0  0
   33.9158  -59.3265   43.1482 O   0  0  0  0  0  0  0  0  0  0  0  0
   34.2985  -60.0512   41.0476 N   0  0  0  0  0  0  0  0  0  0  0  0
   34.2118  -60.8008   40.4153 H   0  0  0  0  0  0  0  0  0  0  0  0
   34.8775  -58.9247   40.6173 C   0  0  0  0  0  0  0  0  0  0  0  0
   34.1030  -57.8903   40.0833 C   0  0  0  0  0  0  0  0  0  0  0  0
   34.7135  -56.7048   39.6669 C   0  0  0  0  0  0  0  0  0  0  0  0
   36.0959  -56.5482   39.7972 C   0  0  0  0  0  0  0  0  0  0  0  0
   36.8704  -57.5720   40.3437 C   0  0  0  0  0  0  0  0  0  0  0  0
   36.2588  -58.7569   40.7607 C   0  0  0  0  0  0  0  0  0  0  0  0
 12 13  1  0  0  0
 13 14  2  0  0  0
 13 15  1  0  0  0
 15  1  1  0  0  0
  1  2  1  0  0  0
  1  8  1  0  0  0
  2  3  1  0  0  0
  2  4  1  0  0  0
  4  5  1  0  0  0
  4  6  1  0  0  0
  6 17  1  0  0  0
  6  7  1  0  0  0
 17 18  1  0  0  0
  7  8  1  0  0  0
  8  9  2  0  0  0
  9 20  1  0  0  0
 20 21  1  0  0  0
 21 22  2  0  0  0
 21 23  1  0  0  0
 23 25  1  0  0  0
 25 26  2  0  0  0
 25 30  1  0  0  0
 26 27  1  0  0  0
 27 28  2  0  0  0
 28 29  1  0  0  0
 29 30  2  0  0  0
 15 16  1  0  0  0
  3 10  1  0  0  0
  5 11  1  0  0  0
 18 19  1  0  0  0
 23 24  1  0  0  0
M  END
> <minimizedAffinity>
-8.30703

$$$$
3OZP_OAN_A_1


 30 31  0  0  0  0  0  0  0  0999 V2000
   34.8013  -62.6785   42.1175 C   0  0  0  0  0  0  0  0  0  0  0  0
   35.8920  -61.5971   41.9174 C   0  0  0  0  0  0  0  0  0  0  0  0
   36.7722  -61.9937   40.8638 O   0  0  0  0  0  0  0  0  0  0  0  0
   35.2655  -60.2587   41.6012 C   0  0  0  0  0  0  0  0  0  0  0  0
   36.2922  -59.2829   41.3905 O   0  0  0  0  0  0  0  0  0  0  0  0
   34.4102  -59.8995   42.7960 C   0  0  0  0  0  0  0  0  0  0  0  0
   33.3397  -60.8682   42.9187 O   0  0  0  0  0  0  0  0  0  0  0  0
   33.5282  -62.1771   42.5209 C   0  0  0  0  0  0  0  0  0  0  0  0
   32.5032  -63.0297   42.5055 N   0  0  0  0  0  0  0  0  0  0  0  0
   36.2691  -62.0853   40.0395 H   0  0  0  0  0  0  0  0  0  0  0  0
   36.8502  -59.2247   42.1818 H   0  0  0  0  0  0  0  0  0  0  0  0
   36.4329  -65.6603   43.9258 C   0  0  0  0  0  0  0  0  0  0  0  0
   36.0149  -64.7754   42.7516 C   0  0  0  0  0  0  0  0  0  0  0  0
   36.3155  -65.0888   41.6010 O   0  0  0  0  0  0  0  0  0  0  0  0
   35.3329  -63.6590   43.0925 N   0  0  0  0  0  0  0  0  0  0  0  0
   35.1797  -63.4867   44.0496 H   0  0  0  0  0  0  0  0  0  0  0  0
   33.7975  -58.5132   42.6226 C   0  0  0  0  0  0  0  0  0  0  0  0
   33.5089  -58.2788   41.2426 O   0  0  0  0  0  0  0  0  0  0  0  0
   34.3292  -58.3303   40.7274 H   0  0  0  0  0  0  0  0  0  0  0  0
   31.1990  -62.4981   42.9715 O   0  0  0  0  0  0  0  0  0  0  0  0
   30.5720  -63.1984   43.9635 C   0  0  0  0  0  0  0  0  0  0  0  0
   29.4022  -63.5681   43.8349 O   0  0  0  0  0  0  0  0  0  0  0  0
   31.2961  -63.5029   45.0568 N   0  0  0  0  0  0  0  0  0  0  0  0
   32.2291  -63.1915   45.0985 H   0  0  0  0  0  0  0  0  0  0  0  0
   30.8172  -64.2055   46.0896 C   0  0  0  0  0  0  0  0  0  0  0  0
   30.1383  -63.5621   47.1289 C   0  0  0  0  0  0  0  0  0  0  0  0
   29.6133  -64.3084   48.1867 C   0  0  0  0  0  0  0  0  0  0  0  0
   29.7549  -65.6985   48.1983 C   0  0  0  0  0  0  0  0  0  0  0  0
   30.4183  -66.3458   47.1555 C   0  0  0  0  0  0  0  0  0  0  0  0
   30.9422  -65.5986   46.0975 C   0  0  0  0  0  0  0  0  0  0  0  0
 12 13  1  0  0  0
 13 14  2  0  0  0
 13 15  1  0  0  0
 15  1  1  0  0  0
  1  2  1  0  0  0
  1  8  1  0  0  0
  2  3  1  0  0  0
  2  4  1  0  0  0
  4  5  1  0  0  0
  4  6  1  0  0  0
  6 17  1  0  0  0
  6  7  1  0  0  0
 17 18  1  0  0  0
  7  8  1  0  0  0
  8  9  2  0  0  0
  9 20  1  0  0  0
 20 21  1  0  0  0
 21 22  2  0  0  0
 21 23  1  0  0  0
 23 25  1  0  0  0
 25 26  2  0  0  0
 25 30  1  0  0  0
 26 27  1  0  0  0
 27 28  2  0  0  0
 28 29  1  0  0  0
 29 30  2  0  0  0
 15 16  1  0  0  0
  3 10  1  0  0  0
  5 11  1  0  0  0
 18 19  1  0  0  0
 23 24  1  0  0  0
M  END
> <minimizedAffinity>
-8.15813

$$$$
