3OZP_OAN_A_1
  RCSB PDB12061710113D
Coordinates from PDB:3OZP:A:1 Model:1 without hydrogens
 25 26  0  0  0  0            999 V2000
   38.3340  -56.1750   38.8300   C 0  0  0  0  0  0  0  0  0  0  0  0
   37.2970  -56.7690   39.7830   C 0  0  0  0  0  0  0  0  0  0  0  0
   37.4520  -56.6830   41.0000   O 0  0  0  0  0  0  0  0  0  0  0  0
   36.2550  -57.3850   39.1810   N 0  0  0  0  0  0  0  0  0  0  0  0
   35.1190  -57.9990   39.9070   C 0  0  0  0  0  0  0  0  0  0  0  0
   34.1790  -56.8470   40.3410   C 0  0  0  0  0  0  0  0  0  0  0  0
   33.2280  -56.5890   39.3060   O 0  0  0  0  0  0  0  0  0  0  0  0
   33.4700  -57.1930   41.6300   C 0  0  0  0  0  0  0  0  0  0  0  0
   32.5850  -56.1280   41.9950   O 0  0  0  0  0  0  0  0  0  0  0  0
   34.5520  -57.3820   42.6700   C 0  0  0  0  0  0  0  0  0  0  0  0
   33.9400  -57.6470   44.0420   C 0  0  0  0  0  0  0  0  0  0  0  0
   34.9760  -57.8040   45.0140   O 0  0  0  0  0  0  0  0  0  0  0  0
   35.3700  -58.5190   42.2990   O 0  0  0  0  0  0  0  0  0  0  0  0
   35.5690  -58.8370   40.9700   C 0  0  0  0  0  0  0  0  0  0  0  0
   36.2050  -59.9600   40.6350   N 0  0  0  0  0  0  0  0  0  0  0  0
   36.7030  -60.7930   41.7570   O 0  0  0  0  0  0  0  0  0  0  0  0
   36.3650  -62.1170   41.7330   C 0  0  0  0  0  0  0  0  0  0  0  0
   36.5270  -62.7930   40.7140   O 0  0  0  0  0  0  0  0  0  0  0  0
   35.8950  -62.6550   42.8740   N 0  0  0  0  0  0  0  0  0  0  0  0
   35.5520  -63.9420   42.9990   C 0  0  0  0  0  0  0  0  0  0  0  0
   36.5310  -64.9180   43.2090   C 0  0  0  0  0  0  0  0  0  0  0  0
   36.1600  -66.2550   43.3710   C 0  0  0  0  0  0  0  0  0  0  0  0
   34.8100  -66.6140   43.3370   C 0  0  0  0  0  0  0  0  0  0  0  0
   33.8290  -65.6410   43.1430   C 0  0  0  0  0  0  0  0  0  0  0  0
   34.2010  -64.3040   42.9820   C 0  0  0  0  0  0  0  0  0  0  0  0
  1  2  1  0  0  0  0
  2  3  2  0  0  0  0
  2  4  1  0  0  0  0
  4  5  1  0  0  0  0
  5  6  1  0  0  0  0
  5 14  1  0  0  0  0
  6  7  1  0  0  0  0
  6  8  1  0  0  0  0
  8  9  1  0  0  0  0
  8 10  1  0  0  0  0
 10 11  1  0  0  0  0
 10 13  1  0  0  0  0
 11 12  1  0  0  0  0
 13 14  1  0  0  0  0
 14 15  2  0  0  0  0
 15 16  1  0  0  0  0
 16 17  1  0  0  0  0
 17 18  2  0  0  0  0
 17 19  1  0  0  0  0
 19 20  1  0  0  0  0
 20 21  2  0  0  0  0
 20 25  1  0  0  0  0
 21 22  1  0  0  0  0
 22 23  2  0  0  0  0
 23 24  1  0  0  0  0
 24 25  2  0  0  0  0
A    1
CAH
A    2
CAG
A    3
OAN
A    4
NAI
A    5
CAB
A    6
CAC
A    7
OAJ
A    8
CAD
A    9
OAK
A   10
CAE
A   11
CAF
A   12
OAM
A   13
OAL
A   14
CAA
A   15
NAY
A   16
OAQ
A   17
CAP
A   18
OAR
A   19
NAO
A   20
CAS
A   21
CAT
A   22
CAU
A   23
CAV
A   24
CAW
A   25
CAX
M  END
>  <InstanceId>
3OZP_OAN_A_1

>  <ChemCompId>
OAN

>  <PdbId>
3OZP

>  <ChainId>
A

>  <ResidueNumber>
1

>  <InsertionCode>


>  <Model>
1

>  <AltIds>


>  <MissingHeavyAtoms>
0

>  <ObservedFormula>
C15 N3 O7

>  <Name>
O-(2-ACETAMIDO-2-DEOXY D-GLUCOPYRANOSYLIDENE) AMINO-N-PHENYLCARBAMATE

>  <SystematicName>
[(Z)-[(3R,4R,5S,6R)-3-acetamido-6-(hydroxymethyl)-4,5-bis(oxidanyl)oxan-2-ylidene]amino] N-phenylcarbamate

>  <Synonyms>
PUGNAc

>  <Type>
NON-POLYMER

>  <Formula>
C15 H19 N3 O7

>  <MolecularWeight>
353.327

>  <ModifiedDate>
2011-08-15

>  <Parent>


>  <OneLetterCode>


>  <SubcomponentList>


>  <AmbiguousFlag>
N

>  <InChI>
InChI=1S/C15H19N3O7/c1-8(20)16-11-13(22)12(21)10(7-19)24-14(11)18-25-15(23)17-9-5-3-2-4-6-9/h2-6,10-13,19,21-22H,7H2,1H3,(H,16,20)(H,17,23)/b18-14-/t10-,11-,12-,13-/m1/s1

>  <InChIKey>
PBLNJFVQMUMOJY-JXZOILRNSA-N

>  <SMILES>
CC(=O)N[C@@H]\1[C@H]([C@@H]([C@H](O/C1=N\OC(=O)Nc2ccccc2)CO)O)O

$$$$
