1H1S_4SP_A_1298


 32 35  0  0  0  0  0  0  0  0999 V2000
    4.3032   42.8517   51.6302 C   0  0  0  0  0  0  0  0  0  0  0  0
    1.9720   45.2585   54.5487 C   0  0  0  0  0  0  0  0  0  0  0  0
    4.9857   44.1048   51.3985 N   0  0  0  0  0  0  0  0  0  0  0  0
    4.6123   45.1395   52.1182 C   0  0  0  0  0  0  0  0  0  0  0  0
    3.5200   45.0805   53.0352 C   0  0  0  0  0  0  0  0  0  0  0  0
    2.9152   45.9590   53.9780 N   0  0  0  0  0  0  0  0  0  0  0  0
    1.9342   44.0045   54.1058 N   0  0  0  0  0  0  0  0  0  0  0  0
    2.8924   43.9252   53.2181 C   0  0  0  0  0  0  0  0  0  0  0  0
    3.3084   42.8438   52.4261 N   0  0  0  0  0  0  0  0  0  0  0  0
    1.3177   43.2898   54.3857 H   0  0  0  0  0  0  0  0  0  0  0  0
    4.6083   41.8053   50.9099 N   0  0  0  0  0  0  0  0  0  0  0  0
    5.0004   41.0247   51.3640 H   0  0  0  0  0  0  0  0  0  0  0  0
    5.4880   41.3690   47.3708 C   0  0  0  0  0  0  0  0  0  0  0  0
    4.2992   41.4693   46.6926 C   0  0  0  0  0  0  0  0  0  0  0  0
    3.1012   41.6844   47.4699 C   0  0  0  0  0  0  0  0  0  0  0  0
    3.2093   41.7801   48.8370 C   0  0  0  0  0  0  0  0  0  0  0  0
    4.4101   41.7368   49.5487 C   0  0  0  0  0  0  0  0  0  0  0  0
    5.5476   41.5145   48.7416 C   0  0  0  0  0  0  0  0  0  0  0  0
    5.1096   39.9589   44.6120 N   0  0  0  0  0  0  0  0  0  0  0  0
    4.2384   41.2323   44.9677 S   0  0  0  0  0  0  0  0  0  0  0  0
    4.8886   42.3791   44.3513 O   0  0  0  0  0  0  0  0  0  0  0  0
    2.8945   40.9294   44.4883 O   0  0  0  0  0  0  0  0  0  0  0  0
    6.0697   40.1061   44.9232 H   0  0  0  0  0  0  0  0  0  0  0  0
    5.0982   39.8102   43.6030 H   0  0  0  0  0  0  0  0  0  0  0  0
    5.2308   46.3112   52.0634 O   0  0  0  0  0  0  0  0  0  0  0  0
    6.6206   45.9885   51.6545 C   0  0  0  0  0  0  0  0  0  0  0  0
    7.5772   46.9631   52.4034 C   0  0  0  0  0  0  0  0  0  0  0  0
    8.9164   46.3526   52.9029 C   0  0  0  0  0  0  0  0  0  0  0  0
    9.8895   47.3115   53.5796 C   0  0  0  0  0  0  0  0  0  0  0  0
    9.1804   48.0757   54.8040 C   0  0  0  0  0  0  0  0  0  0  0  0
    7.9018   48.7083   54.2635 C   0  0  0  0  0  0  0  0  0  0  0  0
    6.8926   47.7427   53.5438 C   0  0  0  0  0  0  0  0  0  0  0  0
  1  3  2  0  0  0
  1  9  1  0  0  0
  1 11  1  0  0  0
  2  6  2  0  0  0
  2  7  1  0  0  0
 26 27  1  0  0  0
 26 25  1  0  0  0
 27 28  1  0  0  0
 27 32  1  0  0  0
 28 29  1  0  0  0
 29 30  1  0  0  0
 30 31  1  0  0  0
 31 32  1  0  0  0
 13 14  2  0  0  0
 13 18  1  0  0  0
 14 15  1  0  0  0
 14 20  1  0  0  0
 15 16  2  0  0  0
 16 17  1  0  0  0
 19 20  1  0  0  0
  3  4  1  0  0  0
  4 25  1  0  0  0
  4  5  2  0  0  0
  5  6  1  0  0  0
  5  8  1  0  0  0
  7  8  1  0  0  0
  8  9  2  0  0  0
 11 17  1  0  0  0
 17 18  2  0  0  0
 20 21  2  0  0  0
 20 22  2  0  0  0
 19 23  1  0  0  0
 19 24  1  0  0  0
  7 10  1  0  0  0
 11 12  1  0  0  0
M  END
> <minimizedAffinity>
-9.89407

$$$$
1H1S_4SP_A_1298


 32 35  0  0  0  0  0  0  0  0999 V2000
    2.4886   44.5928   54.2681 C   0  0  0  0  0  0  0  0  0  0  0  0
   -0.9533   42.6715   52.2171 C   0  0  0  0  0  0  0  0  0  0  0  0
    3.1784   44.2825   53.0361 N   0  0  0  0  0  0  0  0  0  0  0  0
    2.4834   43.7031   52.0827 C   0  0  0  0  0  0  0  0  0  0  0  0
    1.1246   43.3035   52.2601 C   0  0  0  0  0  0  0  0  0  0  0  0
    0.1024   42.7326   51.4504 N   0  0  0  0  0  0  0  0  0  0  0  0
   -0.7330   43.1861   53.4240 N   0  0  0  0  0  0  0  0  0  0  0  0
    0.5152   43.5789   53.4068 C   0  0  0  0  0  0  0  0  0  0  0  0
    1.2888   44.1875   54.4072 N   0  0  0  0  0  0  0  0  0  0  0  0
   -1.3717   43.2562   54.1698 H   0  0  0  0  0  0  0  0  0  0  0  0
    3.1464   45.1292   55.2612 N   0  0  0  0  0  0  0  0  0  0  0  0
    2.8582   44.9195   56.1789 H   0  0  0  0  0  0  0  0  0  0  0  0
    6.6621   46.0993   54.8266 C   0  0  0  0  0  0  0  0  0  0  0  0
    6.6395   47.4627   54.6713 C   0  0  0  0  0  0  0  0  0  0  0  0
    5.3529   48.1180   54.6969 C   0  0  0  0  0  0  0  0  0  0  0  0
    4.2252   47.3525   54.8766 C   0  0  0  0  0  0  0  0  0  0  0  0
    4.2220   45.9727   55.0918 C   0  0  0  0  0  0  0  0  0  0  0  0
    5.5041   45.3820   55.0464 C   0  0  0  0  0  0  0  0  0  0  0  0
    8.3700   49.3322   55.5526 N   0  0  0  0  0  0  0  0  0  0  0  0
    8.1066   48.3434   54.3444 S   0  0  0  0  0  0  0  0  0  0  0  0
    7.8642   49.1641   53.1672 O   0  0  0  0  0  0  0  0  0  0  0  0
    9.2806   47.4796   54.2867 O   0  0  0  0  0  0  0  0  0  0  0  0
    7.5795   49.9695   55.6489 H   0  0  0  0  0  0  0  0  0  0  0  0
    9.2193   49.8683   55.3743 H   0  0  0  0  0  0  0  0  0  0  0  0
    2.9821   43.4617   50.8779 O   0  0  0  0  0  0  0  0  0  0  0  0
    4.2533   42.7386   51.1308 C   0  0  0  0  0  0  0  0  0  0  0  0
    5.4011   43.5355   50.4429 C   0  0  0  0  0  0  0  0  0  0  0  0
    6.6299   42.7010   49.9852 C   0  0  0  0  0  0  0  0  0  0  0  0
    7.7308   43.4592   49.2521 C   0  0  0  0  0  0  0  0  0  0  0  0
    8.2481   44.7045   50.1283 C   0  0  0  0  0  0  0  0  0  0  0  0
    7.0230   45.5294   50.5102 C   0  0  0  0  0  0  0  0  0  0  0  0
    5.8661   44.7648   51.2489 C   0  0  0  0  0  0  0  0  0  0  0  0
  1  3  2  0  0  0
  1  9  1  0  0  0
  1 11  1  0  0  0
  2  6  2  0  0  0
  2  7  1  0  0  0
 26 27  1  0  0  0
 26 25  1  0  0  0
 27 28  1  0  0  0
 27 32  1  0  0  0
 28 29  1  0  0  0
 29 30  1  0  0  0
 30 31  1  0  0  0
 31 32  1  0  0  0
 13 14  2  0  0  0
 13 18  1  0  0  0
 14 15  1  0  0  0
 14 20  1  0  0  0
 15 16  2  0  0  0
 16 17  1  0  0  0
 19 20  1  0  0  0
  3  4  1  0  0  0
  4 25  1  0  0  0
  4  5  2  0  0  0
  5  6  1  0  0  0
  5  8  1  0  0  0
  7  8  1  0  0  0
  8  9  2  0  0  0
 11 17  1  0  0  0
 17 18  2  0  0  0
 20 21  2  0  0  0
 20 22  2  0  0  0
 19 23  1  0  0  0
 19 24  1  0  0  0
  7 10  1  0  0  0
 11 12  1  0  0  0
M  END
> <minimizedAffinity>
-9.50768

$$$$
1H1S_4SP_A_1298


 32 35  0  0  0  0  0  0  0  0999 V2000
    2.3414   44.8449   54.5786 C   0  0  0  0  0  0  0  0  0  0  0  0
   -1.2285   42.7100   53.0154 C   0  0  0  0  0  0  0  0  0  0  0  0
    2.9573   44.3507   53.3677 N   0  0  0  0  0  0  0  0  0  0  0  0
    2.2041   43.6535   52.5465 C   0  0  0  0  0  0  0  0  0  0  0  0
    0.8541   43.3063   52.8535 C   0  0  0  0  0  0  0  0  0  0  0  0
   -0.2175   42.6434   52.1911 N   0  0  0  0  0  0  0  0  0  0  0  0
   -0.9354   43.3872   54.1224 N   0  0  0  0  0  0  0  0  0  0  0  0
    0.3133   43.7524   53.9808 C   0  0  0  0  0  0  0  0  0  0  0  0
    1.1478   44.4839   54.8399 N   0  0  0  0  0  0  0  0  0  0  0  0
   -1.5302   43.5736   54.8845 H   0  0  0  0  0  0  0  0  0  0  0  0
    3.0593   45.5058   55.4472 N   0  0  0  0  0  0  0  0  0  0  0  0
    2.7056   45.6127   56.3598 H   0  0  0  0  0  0  0  0  0  0  0  0
    5.4869   48.1478   54.6620 C   0  0  0  0  0  0  0  0  0  0  0  0
    6.7000   47.5094   54.5954 C   0  0  0  0  0  0  0  0  0  0  0  0
    6.7226   46.0873   54.8457 C   0  0  0  0  0  0  0  0  0  0  0  0
    5.5397   45.4483   55.1327 C   0  0  0  0  0  0  0  0  0  0  0  0
    4.2849   46.0611   55.1533 C   0  0  0  0  0  0  0  0  0  0  0  0
    4.3219   47.4522   54.9126 C   0  0  0  0  0  0  0  0  0  0  0  0
    8.3854   49.3763   55.5652 N   0  0  0  0  0  0  0  0  0  0  0  0
    8.1652   48.4130   54.3280 S   0  0  0  0  0  0  0  0  0  0  0  0
    7.9447   49.2582   53.1639 O   0  0  0  0  0  0  0  0  0  0  0  0
    9.3499   47.5634   54.2819 O   0  0  0  0  0  0  0  0  0  0  0  0
    7.5855   50.0027   55.6550 H   0  0  0  0  0  0  0  0  0  0  0  0
    9.2329   49.9254   55.4219 H   0  0  0  0  0  0  0  0  0  0  0  0
    2.6315   43.2347   51.3631 O   0  0  0  0  0  0  0  0  0  0  0  0
    3.9557   42.6211   51.6326 C   0  0  0  0  0  0  0  0  0  0  0  0
    5.0112   43.3587   50.7564 C   0  0  0  0  0  0  0  0  0  0  0  0
    6.1305   42.4696   50.1463 C   0  0  0  0  0  0  0  0  0  0  0  0
    7.1316   43.1689   49.2336 C   0  0  0  0  0  0  0  0  0  0  0  0
    7.8134   44.4175   49.9834 C   0  0  0  0  0  0  0  0  0  0  0  0
    6.6860   45.2950   50.5185 C   0  0  0  0  0  0  0  0  0  0  0  0
    5.6302   44.5913   51.4452 C   0  0  0  0  0  0  0  0  0  0  0  0
  1  3  2  0  0  0
  1  9  1  0  0  0
  1 11  1  0  0  0
  2  6  2  0  0  0
  2  7  1  0  0  0
 26 27  1  0  0  0
 26 25  1  0  0  0
 27 28  1  0  0  0
 27 32  1  0  0  0
 28 29  1  0  0  0
 29 30  1  0  0  0
 30 31  1  0  0  0
 31 32  1  0  0  0
 13 14  2  0  0  0
 13 18  1  0  0  0
 14 15  1  0  0  0
 14 20  1  0  0  0
 15 16  2  0  0  0
 16 17  1  0  0  0
 19 20  1  0  0  0
  3  4  1  0  0  0
  4 25  1  0  0  0
  4  5  2  0  0  0
  5  6  1  0  0  0
  5  8  1  0  0  0
  7  8  1  0  0  0
  8  9  2  0  0  0
 11 17  1  0  0  0
 17 18  2  0  0  0
 20 21  2  0  0  0
 20 22  2  0  0  0
 19 23  1  0  0  0
 19 24  1  0  0  0
  7 10  1  0  0  0
 11 12  1  0  0  0
M  END
> <minimizedAffinity>
-9.46307

$$$$
1H1S_4SP_A_1298


 32 35  0  0  0  0  0  0  0  0999 V2000
    2.1619   44.9520   54.5042 C   0  0  0  0  0  0  0  0  0  0  0  0
   -1.9190   45.4304   52.8123 C   0  0  0  0  0  0  0  0  0  0  0  0
    2.3082   43.9888   53.4362 N   0  0  0  0  0  0  0  0  0  0  0  0
    1.2881   43.8268   52.6232 C   0  0  0  0  0  0  0  0  0  0  0  0
    0.0416   44.4951   52.8158 C   0  0  0  0  0  0  0  0  0  0  0  0
   -1.1965   44.5910   52.1199 N   0  0  0  0  0  0  0  0  0  0  0  0
   -1.2602   45.9225   53.8581 N   0  0  0  0  0  0  0  0  0  0  0  0
   -0.0793   45.3602   53.8153 C   0  0  0  0  0  0  0  0  0  0  0  0
    1.0243   45.5010   54.6708 N   0  0  0  0  0  0  0  0  0  0  0  0
   -1.5903   46.5706   54.5217 H   0  0  0  0  0  0  0  0  0  0  0  0
    3.1312   45.1177   55.3642 N   0  0  0  0  0  0  0  0  0  0  0  0
    3.0954   44.6150   56.2100 H   0  0  0  0  0  0  0  0  0  0  0  0
    6.6286   46.0800   54.7878 C   0  0  0  0  0  0  0  0  0  0  0  0
    6.6022   47.4429   54.6295 C   0  0  0  0  0  0  0  0  0  0  0  0
    5.3188   48.1007   54.7041 C   0  0  0  0  0  0  0  0  0  0  0  0
    4.1978   47.3379   54.9306 C   0  0  0  0  0  0  0  0  0  0  0  0
    4.2007   45.9586   55.1498 C   0  0  0  0  0  0  0  0  0  0  0  0
    5.4789   45.3655   55.0554 C   0  0  0  0  0  0  0  0  0  0  0  0
    9.2857   47.5406   54.8661 N   0  0  0  0  0  0  0  0  0  0  0  0
    8.0568   48.3200   54.2422 S   0  0  0  0  0  0  0  0  0  0  0  0
    7.9791   49.6055   54.9198 O   0  0  0  0  0  0  0  0  0  0  0  0
    8.3178   48.3717   52.8080 O   0  0  0  0  0  0  0  0  0  0  0  0
    9.1651   47.4685   55.8764 H   0  0  0  0  0  0  0  0  0  0  0  0
   10.1479   48.0458   54.6619 H   0  0  0  0  0  0  0  0  0  0  0  0
    1.3421   43.0465   51.5524 O   0  0  0  0  0  0  0  0  0  0  0  0
    2.3469   43.6857   50.6667 C   0  0  0  0  0  0  0  0  0  0  0  0
    3.2732   42.5650   50.1084 C   0  0  0  0  0  0  0  0  0  0  0  0
    4.7537   42.6078   50.5798 C   0  0  0  0  0  0  0  0  0  0  0  0
    5.6546   41.4787   50.0924 C   0  0  0  0  0  0  0  0  0  0  0  0
    5.6251   41.3760   48.4879 C   0  0  0  0  0  0  0  0  0  0  0  0
    4.1619   41.2786   48.0672 C   0  0  0  0  0  0  0  0  0  0  0  0
    3.2097   42.4207   48.5748 C   0  0  0  0  0  0  0  0  0  0  0  0
  1  3  2  0  0  0
  1  9  1  0  0  0
  1 11  1  0  0  0
  2  6  2  0  0  0
  2  7  1  0  0  0
 26 27  1  0  0  0
 26 25  1  0  0  0
 27 28  1  0  0  0
 27 32  1  0  0  0
 28 29  1  0  0  0
 29 30  1  0  0  0
 30 31  1  0  0  0
 31 32  1  0  0  0
 13 14  2  0  0  0
 13 18  1  0  0  0
 14 15  1  0  0  0
 14 20  1  0  0  0
 15 16  2  0  0  0
 16 17  1  0  0  0
 19 20  1  0  0  0
  3  4  1  0  0  0
  4 25  1  0  0  0
  4  5  2  0  0  0
  5  6  1  0  0  0
  5  8  1  0  0  0
  7  8  1  0  0  0
  8  9  2  0  0  0
 11 17  1  0  0  0
 17 18  2  0  0  0
 20 21  2  0  0  0
 20 22  2  0  0  0
 19 23  1  0  0  0
 19 24  1  0  0  0
  7 10  1  0  0  0
 11 12  1  0  0  0
M  END
> <minimizedAffinity>
-9.14323

$$$$
1H1S_4SP_A_1298


 32 35  0  0  0  0  0  0  0  0999 V2000
    5.4607   47.4648   53.9296 C   0  0  0  0  0  0  0  0  0  0  0  0
    9.8774   47.6201   54.3920 C   0  0  0  0  0  0  0  0  0  0  0  0
    5.7807   46.6857   52.7547 N   0  0  0  0  0  0  0  0  0  0  0  0
    7.0507   46.4470   52.5141 C   0  0  0  0  0  0  0  0  0  0  0  0
    8.0981   46.9969   53.3129 C   0  0  0  0  0  0  0  0  0  0  0  0
    9.5170   46.8954   53.3668 N   0  0  0  0  0  0  0  0  0  0  0  0
    8.8358   48.1423   55.0341 N   0  0  0  0  0  0  0  0  0  0  0  0
    7.7837   47.7274   54.3757 C   0  0  0  0  0  0  0  0  0  0  0  0
    6.4197   47.9725   54.5973 N   0  0  0  0  0  0  0  0  0  0  0  0
    8.8529   48.7173   55.8331 H   0  0  0  0  0  0  0  0  0  0  0  0
    4.2160   47.7657   54.1880 N   0  0  0  0  0  0  0  0  0  0  0  0
    3.9942   48.7044   54.3852 H   0  0  0  0  0  0  0  0  0  0  0  0
    1.2752   45.9409   52.9584 C   0  0  0  0  0  0  0  0  0  0  0  0
    1.0300   44.9791   53.9062 C   0  0  0  0  0  0  0  0  0  0  0  0
    1.9198   44.9164   55.0419 C   0  0  0  0  0  0  0  0  0  0  0  0
    2.9568   45.8157   55.1190 C   0  0  0  0  0  0  0  0  0  0  0  0
    3.1976   46.8385   54.1991 C   0  0  0  0  0  0  0  0  0  0  0  0
    2.3052   46.8473   53.1044 C   0  0  0  0  0  0  0  0  0  0  0  0
    0.4142   42.3769   53.5659 N   0  0  0  0  0  0  0  0  0  0  0  0
   -0.2438   43.8126   53.6784 S   0  0  0  0  0  0  0  0  0  0  0  0
   -0.8658   44.0981   52.3940 O   0  0  0  0  0  0  0  0  0  0  0  0
   -1.1482   43.7368   54.8202 O   0  0  0  0  0  0  0  0  0  0  0  0
    1.0637   42.3612   52.7796 H   0  0  0  0  0  0  0  0  0  0  0  0
   -0.3152   41.6793   53.4183 H   0  0  0  0  0  0  0  0  0  0  0  0
    7.4576   45.6634   51.5247 O   0  0  0  0  0  0  0  0  0  0  0  0
    6.2378   45.4020   50.7208 C   0  0  0  0  0  0  0  0  0  0  0  0
    5.8135   43.9233   50.9638 C   0  0  0  0  0  0  0  0  0  0  0  0
    6.2863   42.8955   49.8980 C   0  0  0  0  0  0  0  0  0  0  0  0
    5.9331   41.4355   50.1588 C   0  0  0  0  0  0  0  0  0  0  0  0
    4.3499   41.2610   50.3795 C   0  0  0  0  0  0  0  0  0  0  0  0
    3.9337   42.2436   51.4698 C   0  0  0  0  0  0  0  0  0  0  0  0
    4.3051   43.7518   51.2325 C   0  0  0  0  0  0  0  0  0  0  0  0
  1  3  2  0  0  0
  1  9  1  0  0  0
  1 11  1  0  0  0
  2  6  2  0  0  0
  2  7  1  0  0  0
 26 27  1  0  0  0
 26 25  1  0  0  0
 27 28  1  0  0  0
 27 32  1  0  0  0
 28 29  1  0  0  0
 29 30  1  0  0  0
 30 31  1  0  0  0
 31 32  1  0  0  0
 13 14  2  0  0  0
 13 18  1  0  0  0
 14 15  1  0  0  0
 14 20  1  0  0  0
 15 16  2  0  0  0
 16 17  1  0  0  0
 19 20  1  0  0  0
  3  4  1  0  0  0
  4 25  1  0  0  0
  4  5  2  0  0  0
  5  6  1  0  0  0
  5  8  1  0  0  0
  7  8  1  0  0  0
  8  9  2  0  0  0
 11 17  1  0  0  0
 17 18  2  0  0  0
 20 21  2  0  0  0
 20 22  2  0  0  0
 19 23  1  0  0  0
 19 24  1  0  0  0
  7 10  1  0  0  0
 11 12  1  0  0  0
M  END
> <minimizedAffinity>
-9.13026

$$$$
1H1S_4SP_A_1298


 32 35  0  0  0  0  0  0  0  0999 V2000
    7.6687   43.8437   49.7388 C   0  0  0  0  0  0  0  0  0  0  0  0
    9.9680   46.8736   52.0362 C   0  0  0  0  0  0  0  0  0  0  0  0
    6.5278   44.5259   50.3069 N   0  0  0  0  0  0  0  0  0  0  0  0
    6.7651   45.5678   51.0724 C   0  0  0  0  0  0  0  0  0  0  0  0
    8.0875   45.9783   51.4190 C   0  0  0  0  0  0  0  0  0  0  0  0
    8.6785   47.0512   52.1442 N   0  0  0  0  0  0  0  0  0  0  0  0
   10.2727   45.8237   51.2780 N   0  0  0  0  0  0  0  0  0  0  0  0
    9.1220   45.3255   50.9035 C   0  0  0  0  0  0  0  0  0  0  0  0
    8.8338   44.2115   50.0999 N   0  0  0  0  0  0  0  0  0  0  0  0
   11.1709   45.4926   51.0481 H   0  0  0  0  0  0  0  0  0  0  0  0
    7.4870   42.7770   49.0067 N   0  0  0  0  0  0  0  0  0  0  0  0
    8.2511   42.4278   48.4935 H   0  0  0  0  0  0  0  0  0  0  0  0
    4.4311   41.1143   50.1843 C   0  0  0  0  0  0  0  0  0  0  0  0
    3.7362   40.7960   49.0445 C   0  0  0  0  0  0  0  0  0  0  0  0
    4.3176   41.1754   47.7782 C   0  0  0  0  0  0  0  0  0  0  0  0
    5.5277   41.8277   47.7760 C   0  0  0  0  0  0  0  0  0  0  0  0
    6.2825   42.1155   48.9152 C   0  0  0  0  0  0  0  0  0  0  0  0
    5.6632   41.7327   50.1254 C   0  0  0  0  0  0  0  0  0  0  0  0
    1.2557   40.9525   50.0882 N   0  0  0  0  0  0  0  0  0  0  0  0
    2.1596   40.0611   49.1420 S   0  0  0  0  0  0  0  0  0  0  0  0
    2.3237   38.7730   49.7992 O   0  0  0  0  0  0  0  0  0  0  0  0
    1.4699   40.0362   47.8570 O   0  0  0  0  0  0  0  0  0  0  0  0
    1.6849   41.0115   51.0116 H   0  0  0  0  0  0  0  0  0  0  0  0
    0.3302   40.5315   50.1697 H   0  0  0  0  0  0  0  0  0  0  0  0
    5.7981   46.3290   51.5665 O   0  0  0  0  0  0  0  0  0  0  0  0
    5.5694   45.8101   52.9381 C   0  0  0  0  0  0  0  0  0  0  0  0
    4.1037   45.2886   53.0130 C   0  0  0  0  0  0  0  0  0  0  0  0
    3.8944   43.7918   52.6502 C   0  0  0  0  0  0  0  0  0  0  0  0
    2.4744   43.2529   52.7830 C   0  0  0  0  0  0  0  0  0  0  0  0
    1.4433   44.1421   51.9274 C   0  0  0  0  0  0  0  0  0  0  0  0
    1.6382   45.5946   52.3509 C   0  0  0  0  0  0  0  0  0  0  0  0
    3.0977   46.1662   52.2419 C   0  0  0  0  0  0  0  0  0  0  0  0
  1  3  2  0  0  0
  1  9  1  0  0  0
  1 11  1  0  0  0
  2  6  2  0  0  0
  2  7  1  0  0  0
 26 27  1  0  0  0
 26 25  1  0  0  0
 27 28  1  0  0  0
 27 32  1  0  0  0
 28 29  1  0  0  0
 29 30  1  0  0  0
 30 31  1  0  0  0
 31 32  1  0  0  0
 13 14  2  0  0  0
 13 18  1  0  0  0
 14 15  1  0  0  0
 14 20  1  0  0  0
 15 16  2  0  0  0
 16 17  1  0  0  0
 19 20  1  0  0  0
  3  4  1  0  0  0
  4 25  1  0  0  0
  4  5  2  0  0  0
  5  6  1  0  0  0
  5  8  1  0  0  0
  7  8  1  0  0  0
  8  9  2  0  0  0
 11 17  1  0  0  0
 17 18  2  0  0  0
 20 21  2  0  0  0
 20 22  2  0  0  0
 19 23  1  0  0  0
 19 24  1  0  0  0
  7 10  1  0  0  0
 11 12  1  0  0  0
M  END
> <minimizedAffinity>
-8.91777

$$$$
1H1S_4SP_A_1298


 32 35  0  0  0  0  0  0  0  0999 V2000
    4.5710   42.4969   50.5922 C   0  0  0  0  0  0  0  0  0  0  0  0
    8.4931   44.2530   49.4616 C   0  0  0  0  0  0  0  0  0  0  0  0
    4.5036   43.6411   51.4733 N   0  0  0  0  0  0  0  0  0  0  0  0
    5.5038   44.4932   51.4363 C   0  0  0  0  0  0  0  0  0  0  0  0
    6.6646   44.2773   50.6342 C   0  0  0  0  0  0  0  0  0  0  0  0
    7.8536   44.9962   50.3246 N   0  0  0  0  0  0  0  0  0  0  0  0
    7.8194   43.1500   49.1461 N   0  0  0  0  0  0  0  0  0  0  0  0
    6.7163   43.2093   49.8476 C   0  0  0  0  0  0  0  0  0  0  0  0
    5.6375   42.3144   49.9197 N   0  0  0  0  0  0  0  0  0  0  0  0
    8.0922   42.4413   48.5194 H   0  0  0  0  0  0  0  0  0  0  0  0
    3.6225   41.5990   50.6231 N   0  0  0  0  0  0  0  0  0  0  0  0
    3.4436   41.1387   51.4748 H   0  0  0  0  0  0  0  0  0  0  0  0
    1.8699   39.4093   48.2518 C   0  0  0  0  0  0  0  0  0  0  0  0
    1.2541   40.2602   47.3685 C   0  0  0  0  0  0  0  0  0  0  0  0
    1.4180   41.6792   47.5811 C   0  0  0  0  0  0  0  0  0  0  0  0
    2.1774   42.1042   48.6454 C   0  0  0  0  0  0  0  0  0  0  0  0
    2.8597   41.2627   49.5268 C   0  0  0  0  0  0  0  0  0  0  0  0
    2.6565   39.8871   49.2798 C   0  0  0  0  0  0  0  0  0  0  0  0
   -0.2199   40.8494   45.1897 N   0  0  0  0  0  0  0  0  0  0  0  0
    0.2244   39.6386   46.1082 S   0  0  0  0  0  0  0  0  0  0  0  0
   -0.9779   39.1249   46.7473 O   0  0  0  0  0  0  0  0  0  0  0  0
    0.9181   38.7122   45.2204 O   0  0  0  0  0  0  0  0  0  0  0  0
   -0.7153   41.5400   45.7537 H   0  0  0  0  0  0  0  0  0  0  0  0
   -0.8358   40.5081   44.4517 H   0  0  0  0  0  0  0  0  0  0  0  0
    5.5053   45.6267   52.1246 O   0  0  0  0  0  0  0  0  0  0  0  0
    5.8041   45.2227   53.5211 C   0  0  0  0  0  0  0  0  0  0  0  0
    6.6161   46.3726   54.1876 C   0  0  0  0  0  0  0  0  0  0  0  0
    5.9145   47.7584   54.2421 C   0  0  0  0  0  0  0  0  0  0  0  0
    6.6722   48.8759   54.9502 C   0  0  0  0  0  0  0  0  0  0  0  0
    8.1386   49.0627   54.3170 C   0  0  0  0  0  0  0  0  0  0  0  0
    8.8159   47.6958   54.3324 C   0  0  0  0  0  0  0  0  0  0  0  0
    8.0440   46.5236   53.6262 C   0  0  0  0  0  0  0  0  0  0  0  0
  1  3  2  0  0  0
  1  9  1  0  0  0
  1 11  1  0  0  0
  2  6  2  0  0  0
  2  7  1  0  0  0
 26 27  1  0  0  0
 26 25  1  0  0  0
 27 28  1  0  0  0
 27 32  1  0  0  0
 28 29  1  0  0  0
 29 30  1  0  0  0
 30 31  1  0  0  0
 31 32  1  0  0  0
 13 14  2  0  0  0
 13 18  1  0  0  0
 14 15  1  0  0  0
 14 20  1  0  0  0
 15 16  2  0  0  0
 16 17  1  0  0  0
 19 20  1  0  0  0
  3  4  1  0  0  0
  4 25  1  0  0  0
  4  5  2  0  0  0
  5  6  1  0  0  0
  5  8  1  0  0  0
  7  8  1  0  0  0
  8  9  2  0  0  0
 11 17  1  0  0  0
 17 18  2  0  0  0
 20 21  2  0  0  0
 20 22  2  0  0  0
 19 23  1  0  0  0
 19 24  1  0  0  0
  7 10  1  0  0  0
 11 12  1  0  0  0
M  END
> <minimizedAffinity>
-8.56614

$$$$
1H1S_4SP_A_1298


 32 35  0  0  0  0  0  0  0  0999 V2000
    5.8749   47.0865   53.1022 C   0  0  0  0  0  0  0  0  0  0  0  0
   10.0277   46.4020   51.6771 C   0  0  0  0  0  0  0  0  0  0  0  0
    5.5603   46.0295   52.1674 N   0  0  0  0  0  0  0  0  0  0  0  0
    6.5603   45.4841   51.5116 C   0  0  0  0  0  0  0  0  0  0  0  0
    7.9022   45.9558   51.6303 C   0  0  0  0  0  0  0  0  0  0  0  0
    9.1793   45.5716   51.1325 N   0  0  0  0  0  0  0  0  0  0  0  0
    9.4376   47.2541   52.5112 N   0  0  0  0  0  0  0  0  0  0  0  0
    8.1672   46.9417   52.4788 C   0  0  0  0  0  0  0  0  0  0  0  0
    7.0756   47.5091   53.1544 N   0  0  0  0  0  0  0  0  0  0  0  0
    9.8649   47.9667   53.0393 H   0  0  0  0  0  0  0  0  0  0  0  0
    4.9114   47.6897   53.7461 N   0  0  0  0  0  0  0  0  0  0  0  0
    5.0251   48.6413   53.9711 H   0  0  0  0  0  0  0  0  0  0  0  0
    1.4773   46.4273   53.4242 C   0  0  0  0  0  0  0  0  0  0  0  0
    1.2249   45.7747   54.6047 C   0  0  0  0  0  0  0  0  0  0  0  0
    2.2832   45.7338   55.5865 C   0  0  0  0  0  0  0  0  0  0  0  0
    3.4787   46.3468   55.2949 C   0  0  0  0  0  0  0  0  0  0  0  0
    3.7448   47.0641   54.1266 C   0  0  0  0  0  0  0  0  0  0  0  0
    2.6808   47.0632   53.1979 C   0  0  0  0  0  0  0  0  0  0  0  0
   -1.4301   45.7608   54.1385 N   0  0  0  0  0  0  0  0  0  0  0  0
   -0.2818   44.9354   54.8506 S   0  0  0  0  0  0  0  0  0  0  0  0
   -0.5618   44.9605   56.2786 O   0  0  0  0  0  0  0  0  0  0  0  0
   -0.3023   43.6196   54.2215 O   0  0  0  0  0  0  0  0  0  0  0  0
   -1.4701   46.6996   54.5353 H   0  0  0  0  0  0  0  0  0  0  0  0
   -2.3247   45.2925   54.2823 H   0  0  0  0  0  0  0  0  0  0  0  0
    6.4051   44.4434   50.7044 O   0  0  0  0  0  0  0  0  0  0  0  0
    5.2922   43.6629   51.3003 C   0  0  0  0  0  0  0  0  0  0  0  0
    5.0691   42.3991   50.4179 C   0  0  0  0  0  0  0  0  0  0  0  0
    5.5141   42.5181   48.9335 C   0  0  0  0  0  0  0  0  0  0  0  0
    5.3613   41.2668   48.0762 C   0  0  0  0  0  0  0  0  0  0  0  0
    3.8481   40.7245   48.1209 C   0  0  0  0  0  0  0  0  0  0  0  0
    3.4669   40.5666   49.5896 C   0  0  0  0  0  0  0  0  0  0  0  0
    3.6354   41.8378   50.4976 C   0  0  0  0  0  0  0  0  0  0  0  0
  1  3  2  0  0  0
  1  9  1  0  0  0
  1 11  1  0  0  0
  2  6  2  0  0  0
  2  7  1  0  0  0
 26 27  1  0  0  0
 26 25  1  0  0  0
 27 28  1  0  0  0
 27 32  1  0  0  0
 28 29  1  0  0  0
 29 30  1  0  0  0
 30 31  1  0  0  0
 31 32  1  0  0  0
 13 14  2  0  0  0
 13 18  1  0  0  0
 14 15  1  0  0  0
 14 20  1  0  0  0
 15 16  2  0  0  0
 16 17  1  0  0  0
 19 20  1  0  0  0
  3  4  1  0  0  0
  4 25  1  0  0  0
  4  5  2  0  0  0
  5  6  1  0  0  0
  5  8  1  0  0  0
  7  8  1  0  0  0
  8  9  2  0  0  0
 11 17  1  0  0  0
 17 18  2  0  0  0
 20 21  2  0  0  0
 20 22  2  0  0  0
 19 23  1  0  0  0
 19 24  1  0  0  0
  7 10  1  0  0  0
 11 12  1  0  0  0
M  END
> <minimizedAffinity>
-8.48756

$$$$
1H1S_4SP_A_1298


 32 35  0  0  0  0  0  0  0  0999 V2000
    3.4363   43.1779   52.2539 C   0  0  0  0  0  0  0  0  0  0  0  0
   -0.1220   42.3419   49.7271 C   0  0  0  0  0  0  0  0  0  0  0  0
    4.0474   42.1551   51.4353 N   0  0  0  0  0  0  0  0  0  0  0  0
    3.3147   41.6256   50.4811 C   0  0  0  0  0  0  0  0  0  0  0  0
    1.9404   41.9627   50.2942 C   0  0  0  0  0  0  0  0  0  0  0  0
    0.9156   41.6379   49.3611 N   0  0  0  0  0  0  0  0  0  0  0  0
    0.1391   43.1228   50.7721 N   0  0  0  0  0  0  0  0  0  0  0  0
    1.3918   42.8895   51.0702 C   0  0  0  0  0  0  0  0  0  0  0  0
    2.1980   43.4262   52.0860 N   0  0  0  0  0  0  0  0  0  0  0  0
   -0.4776   43.7430   51.2240 H   0  0  0  0  0  0  0  0  0  0  0  0
    4.1089   43.7038   53.2428 N   0  0  0  0  0  0  0  0  0  0  0  0
    3.9353   43.3724   54.1534 H   0  0  0  0  0  0  0  0  0  0  0  0
    6.6359   46.1810   54.2268 C   0  0  0  0  0  0  0  0  0  0  0  0
    7.0891   46.7163   53.0472 C   0  0  0  0  0  0  0  0  0  0  0  0
    6.5240   46.2063   51.8200 C   0  0  0  0  0  0  0  0  0  0  0  0
    5.5674   45.2217   51.8923 C   0  0  0  0  0  0  0  0  0  0  0  0
    5.0482   44.6976   53.0781 C   0  0  0  0  0  0  0  0  0  0  0  0
    5.6427   45.2232   54.2464 C   0  0  0  0  0  0  0  0  0  0  0  0
    9.6386   47.2400   53.7490 N   0  0  0  0  0  0  0  0  0  0  0  0
    8.3788   47.8875   53.0415 S   0  0  0  0  0  0  0  0  0  0  0  0
    7.9513   49.0042   53.8711 O   0  0  0  0  0  0  0  0  0  0  0  0
    8.8228   48.2290   51.6947 O   0  0  0  0  0  0  0  0  0  0  0  0
    9.3942   46.9759   54.7034 H   0  0  0  0  0  0  0  0  0  0  0  0
   10.4024   47.9157   53.7682 H   0  0  0  0  0  0  0  0  0  0  0  0
    3.7979   40.7529   49.6073 O   0  0  0  0  0  0  0  0  0  0  0  0
    4.5275   41.5767   48.6113 C   0  0  0  0  0  0  0  0  0  0  0  0
    3.9916   41.2025   47.1976 C   0  0  0  0  0  0  0  0  0  0  0  0
    3.2121   39.8616   47.0981 C   0  0  0  0  0  0  0  0  0  0  0  0
    2.6264   39.5161   45.7336 C   0  0  0  0  0  0  0  0  0  0  0  0
    3.7668   39.5373   44.6000 C   0  0  0  0  0  0  0  0  0  0  0  0
    4.4709   40.8875   44.6912 C   0  0  0  0  0  0  0  0  0  0  0  0
    5.0651   41.2744   46.0934 C   0  0  0  0  0  0  0  0  0  0  0  0
  1  3  2  0  0  0
  1  9  1  0  0  0
  1 11  1  0  0  0
  2  6  2  0  0  0
  2  7  1  0  0  0
 26 27  1  0  0  0
 26 25  1  0  0  0
 27 28  1  0  0  0
 27 32  1  0  0  0
 28 29  1  0  0  0
 29 30  1  0  0  0
 30 31  1  0  0  0
 31 32  1  0  0  0
 13 14  2  0  0  0
 13 18  1  0  0  0
 14 15  1  0  0  0
 14 20  1  0  0  0
 15 16  2  0  0  0
 16 17  1  0  0  0
 19 20  1  0  0  0
  3  4  1  0  0  0
  4 25  1  0  0  0
  4  5  2  0  0  0
  5  6  1  0  0  0
  5  8  1  0  0  0
  7  8  1  0  0  0
  8  9  2  0  0  0
 11 17  1  0  0  0
 17 18  2  0  0  0
 20 21  2  0  0  0
 20 22  2  0  0  0
 19 23  1  0  0  0
 19 24  1  0  0  0
  7 10  1  0  0  0
 11 12  1  0  0  0
M  END
> <minimizedAffinity>
-8.36772

$$$$
1H1S_4SP_A_1298


 32 35  0  0  0  0  0  0  0  0999 V2000
    4.8567   45.5838   52.1939 C   0  0  0  0  0  0  0  0  0  0  0  0
    8.1690   44.1952   49.5776 C   0  0  0  0  0  0  0  0  0  0  0  0
    4.2690   44.3116   51.8387 N   0  0  0  0  0  0  0  0  0  0  0  0
    4.9685   43.5186   51.0580 C   0  0  0  0  0  0  0  0  0  0  0  0
    6.2214   43.9079   50.4956 C   0  0  0  0  0  0  0  0  0  0  0  0
    7.2273   43.2977   49.6944 N   0  0  0  0  0  0  0  0  0  0  0  0
    7.8974   45.3056   50.2582 N   0  0  0  0  0  0  0  0  0  0  0  0
    6.7342   45.0892   50.8175 C   0  0  0  0  0  0  0  0  0  0  0  0
    5.9568   45.9156   51.6436 N   0  0  0  0  0  0  0  0  0  0  0  0
    8.4522   46.1160   50.3264 H   0  0  0  0  0  0  0  0  0  0  0  0
    4.1827   46.4251   52.9319 N   0  0  0  0  0  0  0  0  0  0  0  0
    4.4871   47.3606   52.9691 H   0  0  0  0  0  0  0  0  0  0  0  0
    0.6171   45.8973   53.6378 C   0  0  0  0  0  0  0  0  0  0  0  0
    0.5792   45.3567   54.8986 C   0  0  0  0  0  0  0  0  0  0  0  0
    1.8385   45.1324   55.5689 C   0  0  0  0  0  0  0  0  0  0  0  0
    3.0020   45.4706   54.9192 C   0  0  0  0  0  0  0  0  0  0  0  0
    3.0685   46.0720   53.6605 C   0  0  0  0  0  0  0  0  0  0  0  0
    1.8104   46.2585   53.0466 C   0  0  0  0  0  0  0  0  0  0  0  0
   -2.0135   45.9767   55.2988 N   0  0  0  0  0  0  0  0  0  0  0  0
   -0.9333   44.8608   55.6068 S   0  0  0  0  0  0  0  0  0  0  0  0
   -0.7464   44.8354   57.0498 O   0  0  0  0  0  0  0  0  0  0  0  0
   -1.4589   43.6371   55.0118 O   0  0  0  0  0  0  0  0  0  0  0  0
   -1.7049   46.8662   55.6912 H   0  0  0  0  0  0  0  0  0  0  0  0
   -2.9051   45.7116   55.7173 H   0  0  0  0  0  0  0  0  0  0  0  0
    4.5760   42.2907   50.7471 O   0  0  0  0  0  0  0  0  0  0  0  0
    3.2867   42.4729   50.0348 C   0  0  0  0  0  0  0  0  0  0  0  0
    3.5690   42.3830   48.5057 C   0  0  0  0  0  0  0  0  0  0  0  0
    2.3283   42.1612   47.5963 C   0  0  0  0  0  0  0  0  0  0  0  0
    2.5834   42.1370   46.0934 C   0  0  0  0  0  0  0  0  0  0  0  0
    3.7005   41.0419   45.7209 C   0  0  0  0  0  0  0  0  0  0  0  0
    4.9210   41.3260   46.5910 C   0  0  0  0  0  0  0  0  0  0  0  0
    4.6786   41.3760   48.1427 C   0  0  0  0  0  0  0  0  0  0  0  0
  1  3  2  0  0  0
  1  9  1  0  0  0
  1 11  1  0  0  0
  2  6  2  0  0  0
  2  7  1  0  0  0
 26 27  1  0  0  0
 26 25  1  0  0  0
 27 28  1  0  0  0
 27 32  1  0  0  0
 28 29  1  0  0  0
 29 30  1  0  0  0
 30 31  1  0  0  0
 31 32  1  0  0  0
 13 14  2  0  0  0
 13 18  1  0  0  0
 14 15  1  0  0  0
 14 20  1  0  0  0
 15 16  2  0  0  0
 16 17  1  0  0  0
 19 20  1  0  0  0
  3  4  1  0  0  0
  4 25  1  0  0  0
  4  5  2  0  0  0
  5  6  1  0  0  0
  5  8  1  0  0  0
  7  8  1  0  0  0
  8  9  2  0  0  0
 11 17  1  0  0  0
 17 18  2  0  0  0
 20 21  2  0  0  0
 20 22  2  0  0  0
 19 23  1  0  0  0
 19 24  1  0  0  0
  7 10  1  0  0  0
 11 12  1  0  0  0
M  END
> <minimizedAffinity>
-8.17132

$$$$
