5I9Z_627_A_1001
  RCSB PDB12061718083D
Coordinates from PDB:5I9Z:A:1001 Model:1 without hydrogens
 35 39  0  0  0  0            999 V2000
 -102.0340  -16.2260   47.2230   N 0  0  0  0  0  0  0  0  0  0  0  0
 -102.6900  -15.3280   43.7690   N 0  0  0  0  0  0  0  0  0  0  0  0
 -100.5900  -15.1880   44.0200   C 0  0  0  0  0  0  0  0  0  0  0  0
 -101.6350  -15.0250   43.1930   N 0  0  0  0  0  0  0  0  0  0  0  0
  -99.3400  -14.8820   43.5460   N 0  0  0  0  0  0  0  0  0  0  0  0
  -98.2090  -15.1270   44.2660   C 0  0  0  0  0  0  0  0  0  0  0  0
  -96.9650  -14.7470   43.7250   C 0  0  0  0  0  0  0  0  0  0  0  0
  -98.2030  -15.6460   45.3780   O 0  0  0  0  0  0  0  0  0  0  0  0
  -96.7840  -14.2660   42.4310   C 0  0  0  0  0  0  0  0  0  0  0  0
  -95.5150  -13.9020   41.9630   C 0  0  0  0  0  0  0  0  0  0  0  0
  -94.5720  -14.5140   44.0800   C 0  0  0  0  0  0  0  0  0  0  0  0
  -95.8410  -14.8700   44.5400   C 0  0  0  0  0  0  0  0  0  0  0  0
 -102.4240  -15.7210   45.0260   C 0  0  0  0  0  0  0  0  0  0  0  0
 -101.0960  -15.6280   45.1960   C 0  0  0  0  0  0  0  0  0  0  0  0
 -100.7760  -16.0270   46.5270   C 0  0  0  0  0  0  0  0  0  0  0  0
 -103.0690  -16.1880   46.1890   C 0  0  0  0  0  0  0  0  0  0  0  0
  -93.1780  -13.6800   42.3380   N 0  0  0  0  0  0  0  0  0  0  0  0
  -92.1560  -13.8550   43.3900   C 0  0  0  0  0  0  0  0  0  0  0  0
  -90.7720  -13.4290   42.9110   C 0  0  0  0  0  0  0  0  0  0  0  0
  -90.8010  -12.0240   42.4790   N 0  0  0  0  0  0  0  0  0  0  0  0
  -91.7650  -11.8900   41.3720   C 0  0  0  0  0  0  0  0  0  0  0  0
  -93.1570  -12.2870   41.8570   C 0  0  0  0  0  0  0  0  0  0  0  0
  -89.4620  -11.5800   42.0660   C 0  0  0  0  0  0  0  0  0  0  0  0
  -94.3990  -14.0190   42.7900   C 0  0  0  0  0  0  0  0  0  0  0  0
 -102.2840  -16.4680   48.5240   C 0  0  0  0  0  0  0  0  0  0  0  0
 -103.4190  -16.6580   48.9760   O 0  0  0  0  0  0  0  0  0  0  0  0
 -100.6410  -15.1650   49.7290   C 0  0  0  0  0  0  0  0  0  0  0  0
  -99.3000  -14.7990   49.6050   C 0  0  0  0  0  0  0  0  0  0  0  0
 -101.5670  -14.1930   50.1160   C 0  0  0  0  0  0  0  0  0  0  0  0
  -98.8860  -13.4920   49.8560   C 0  0  0  0  0  0  0  0  0  0  0  0
 -101.1500  -12.8810   50.3760   C 0  0  0  0  0  0  0  0  0  0  0  0
 -101.0560  -16.4860   49.4590   C 0  0  0  0  0  0  0  0  0  0  0  0
  -99.8070  -12.5280   50.2490   C 0  0  0  0  0  0  0  0  0  0  0  0
 -100.3750  -17.3350   51.5970   C 0  0  0  0  0  0  0  0  0  0  0  0
 -101.4590  -17.1570   50.6660   O 0  0  0  0  0  0  0  0  0  0  0  0
  1 15  1  0  0  0  0
  1 16  1  0  0  0  0
  1 25  1  0  0  0  0
  2  4  1  0  0  0  0
  2 13  1  0  0  0  0
  3  4  2  0  0  0  0
  3  5  1  0  0  0  0
  3 14  1  0  0  0  0
  5  6  1  0  0  0  0
  6  7  1  0  0  0  0
  6  8  2  0  0  0  0
  7  9  1  0  0  0  0
  7 12  2  0  0  0  0
  9 10  2  0  0  0  0
 10 24  1  0  0  0  0
 11 12  1  0  0  0  0
 11 24  2  0  0  0  0
 13 14  2  0  0  0  0
 13 16  1  0  0  0  0
 14 15  1  0  0  0  0
 17 18  1  0  0  0  0
 17 22  1  0  0  0  0
 17 24  1  0  0  0  0
 18 19  1  0  0  0  0
 19 20  1  0  0  0  0
 20 21  1  0  0  0  0
 20 23  1  0  0  0  0
 21 22  1  0  0  0  0
 25 26  2  0  0  0  0
 25 32  1  0  0  0  0
 27 28  1  0  0  0  0
 27 29  2  0  0  0  0
 27 32  1  0  0  0  0
 28 30  2  0  0  0  0
 29 31  1  0  0  0  0
 30 33  1  0  0  0  0
 31 33  2  0  0  0  0
 32 35  1  0  0  0  0
 34 35  1  0  0  0  0
A    1
N1
A    2
N2
A    3
C3
A    4
N4
A    5
N5
A    6
C6
A    7
C7
A    8
O8
A    9
C9
A   10
C10
A   11
C11
A   12
C12
A   13
C13
A   14
C14
A   15
C15
A   16
C16
A   17
N17
A   18
C18
A   19
C19
A   20
N20
A   21
C21
A   22
C22
A   23
C23
A   24
C24
A   25
C25
A   26
O26
A   27
C27
A   28
C28
A   29
C29
A   30
C31
A   31
C33
A   32
C20
A   33
C35
A   34
C36
A   35
O34
M  END
>  <InstanceId>
5I9Z_627_A_1001

>  <ChemCompId>
627

>  <PdbId>
5I9Z

>  <ChainId>
A

>  <ResidueNumber>
1001

>  <InsertionCode>


>  <Model>
1

>  <AltIds>


>  <MissingHeavyAtoms>
0

>  <ObservedFormula>
C26 N6 O3

>  <Name>
N-[(3E)-5-[(2R)-2-METHOXY-2-PHENYLACETYL]PYRROLO[3,4-C]PYRAZOL-3(5H)-YLIDENE]-4-(4-METHYLPIPERAZIN-1-YL)BENZAMIDE

>  <SystematicName>
N-[5-[(2R)-2-methoxy-2-phenyl-ethanoyl]-4,6-dihydro-1H-pyrrolo[3,4-c]pyrazol-3-yl]-4-(4-methylpiperazin-1-yl)benzamide

>  <Synonyms>
Danusertib; PHA-739358

>  <Type>
NON-POLYMER

>  <Formula>
C26 H30 N6 O3

>  <MolecularWeight>
474.555

>  <ModifiedDate>
2015-07-22

>  <Parent>


>  <OneLetterCode>


>  <SubcomponentList>


>  <AmbiguousFlag>
N

>  <InChI>
InChI=1S/C26H30N6O3/c1-30-12-14-31(15-13-30)20-10-8-19(9-11-20)25(33)27-24-21-16-32(17-22(21)28-29-24)26(34)23(35-2)18-6-4-3-5-7-18/h3-11,23H,12-17H2,1-2H3,(H2,27,28,29,33)/t23-/m1/s1

>  <InChIKey>
XKFTZKGMDDZMJI-HSZRJFAPSA-N

>  <SMILES>
CN1CCN(CC1)c2ccc(cc2)C(=O)Nc3c4c([nH]n3)CN(C4)C(=O)[C@@H](c5ccccc5)OC

$$$$
