5EVB_3R9_A_403


 15 16  0  0  0  0  0  0  0  0999 V2000
  -17.3575   25.7659   -1.8725 N   0  0  0  0  0  0  0  0  0  0  0  0
  -18.3408   26.3820   -2.7356 C   0  0  0  0  0  0  0  0  0  0  0  0
  -17.6697   27.3848   -3.6658 C   0  0  0  0  0  0  0  0  0  0  0  0
  -15.9376   26.8987   -3.7912 S   0  0  0  0  0  0  0  0  0  0  0  0
  -16.0212   25.7110   -2.4025 C   0  0  0  0  0  0  0  0  0  0  0  0
  -15.8012   24.2715   -2.8750 C   0  0  0  0  0  0  0  0  0  0  0  0
  -17.2731   23.3436   -2.4385 S   0  0  0  0  0  0  0  0  0  0  0  0
  -17.7105   24.5559   -1.1940 C   0  0  0  0  0  0  0  0  0  0  0  0
  -20.5310   26.7209   -2.1267 O   0  0  0  0  0  0  0  0  0  0  0  0
  -19.3766   27.0963   -1.8708 C   0  0  0  0  0  0  0  0  0  0  0  0
  -18.9337   27.9493   -1.0775 O   0  0  0  0  0  0  0  0  0  0  0  0
  -20.6752   26.0529   -2.7676 H   0  0  0  0  0  0  0  0  0  0  0  0
  -16.8050   24.3084   -0.0004 C   0  0  0  0  0  0  0  0  0  0  0  0
  -17.7597   23.7225    1.4076 S   0  0  0  0  0  0  0  0  0  0  0  0
  -18.3747   22.5536    1.0835 H   0  0  0  0  0  0  0  0  0  0  0  0
  5  6  1  0  0  0
  5  4  1  0  0  0
  5  1  1  0  0  0
  6  7  1  0  0  0
 14 13  1  0  0  0
  4  3  1  0  0  0
 13  8  1  0  0  0
  1  8  1  0  0  0
  1  2  1  0  0  0
  8  7  1  0  0  0
 11 10  2  0  0  0
  3  2  1  0  0  0
  2 10  1  0  0  0
 10  9  1  0  0  0
  9 12  1  0  0  0
 14 15  1  0  0  0
M  END
> <minimizedAffinity>
-4.73665

$$$$
5EVB_3R9_A_403


 15 16  0  0  0  0  0  0  0  0999 V2000
  -17.8103   25.2411   -2.4541 N   0  0  0  0  0  0  0  0  0  0  0  0
  -17.5784   26.6675   -2.3999 C   0  0  0  0  0  0  0  0  0  0  0  0
  -18.8574   27.3937   -2.0025 C   0  0  0  0  0  0  0  0  0  0  0  0
  -19.8812   26.1986   -1.1217 S   0  0  0  0  0  0  0  0  0  0  0  0
  -18.8654   24.7561   -1.6047 C   0  0  0  0  0  0  0  0  0  0  0  0
  -18.1853   24.1121   -0.3936 C   0  0  0  0  0  0  0  0  0  0  0  0
  -16.4164   24.1852   -0.6830 S   0  0  0  0  0  0  0  0  0  0  0  0
  -16.6771   24.3666   -2.4461 C   0  0  0  0  0  0  0  0  0  0  0  0
  -18.0457   27.1169   -4.6049 O   0  0  0  0  0  0  0  0  0  0  0  0
  -17.1226   27.1449   -3.7766 C   0  0  0  0  0  0  0  0  0  0  0  0
  -15.9202   27.4561   -3.8784 O   0  0  0  0  0  0  0  0  0  0  0  0
  -18.9042   26.8501   -4.3408 H   0  0  0  0  0  0  0  0  0  0  0  0
  -17.0369   22.9921   -2.9820 C   0  0  0  0  0  0  0  0  0  0  0  0
  -15.8718   21.7563   -2.3884 S   0  0  0  0  0  0  0  0  0  0  0  0
  -15.9102   21.7127   -1.0296 H   0  0  0  0  0  0  0  0  0  0  0  0
  5  6  1  0  0  0
  5  4  1  0  0  0
  5  1  1  0  0  0
  6  7  1  0  0  0
 14 13  1  0  0  0
  4  3  1  0  0  0
 13  8  1  0  0  0
  1  8  1  0  0  0
  1  2  1  0  0  0
  8  7  1  0  0  0
 11 10  2  0  0  0
  3  2  1  0  0  0
  2 10  1  0  0  0
 10  9  1  0  0  0
  9 12  1  0  0  0
 14 15  1  0  0  0
M  END
> <minimizedAffinity>
-4.55119

$$$$
5EVB_3R9_A_403


 15 16  0  0  0  0  0  0  0  0999 V2000
  -18.5711   24.7773   -1.0235 N   0  0  0  0  0  0  0  0  0  0  0  0
  -18.9908   26.0224   -0.4194 C   0  0  0  0  0  0  0  0  0  0  0  0
  -20.0813   25.7650    0.6130 C   0  0  0  0  0  0  0  0  0  0  0  0
  -19.9058   24.0484    1.1371 S   0  0  0  0  0  0  0  0  0  0  0  0
  -18.7440   23.6068   -0.2051 C   0  0  0  0  0  0  0  0  0  0  0  0
  -17.3584   23.2508    0.3403 C   0  0  0  0  0  0  0  0  0  0  0  0
  -16.1929   24.4003   -0.3935 S   0  0  0  0  0  0  0  0  0  0  0  0
  -17.3287   24.7504   -1.7339 C   0  0  0  0  0  0  0  0  0  0  0  0
  -20.6799   26.6416   -1.8498 O   0  0  0  0  0  0  0  0  0  0  0  0
  -19.5251   26.9446   -1.5126 C   0  0  0  0  0  0  0  0  0  0  0  0
  -18.7409   27.8234   -1.9200 O   0  0  0  0  0  0  0  0  0  0  0  0
  -21.1230   25.9357   -1.4217 H   0  0  0  0  0  0  0  0  0  0  0  0
  -17.2633   23.5697   -2.6865 C   0  0  0  0  0  0  0  0  0  0  0  0
  -15.5583   23.2147   -3.1385 S   0  0  0  0  0  0  0  0  0  0  0  0
  -14.8478   22.9064   -2.0206 H   0  0  0  0  0  0  0  0  0  0  0  0
  5  6  1  0  0  0
  5  4  1  0  0  0
  5  1  1  0  0  0
  6  7  1  0  0  0
 14 13  1  0  0  0
  4  3  1  0  0  0
 13  8  1  0  0  0
  1  8  1  0  0  0
  1  2  1  0  0  0
  8  7  1  0  0  0
 11 10  2  0  0  0
  3  2  1  0  0  0
  2 10  1  0  0  0
 10  9  1  0  0  0
  9 12  1  0  0  0
 14 15  1  0  0  0
M  END
> <minimizedAffinity>
-4.49297

$$$$
5EVB_3R9_A_403


 15 16  0  0  0  0  0  0  0  0999 V2000
  -17.3772   25.8984   -1.6825 N   0  0  0  0  0  0  0  0  0  0  0  0
  -18.7614   25.4962   -1.7992 C   0  0  0  0  0  0  0  0  0  0  0  0
  -19.5848   26.6185   -2.4187 C   0  0  0  0  0  0  0  0  0  0  0  0
  -18.4375   27.6507   -3.3516 S   0  0  0  0  0  0  0  0  0  0  0  0
  -16.9394   26.8825   -2.6362 C   0  0  0  0  0  0  0  0  0  0  0  0
  -16.1291   26.1297   -3.6948 C   0  0  0  0  0  0  0  0  0  0  0  0
  -16.0366   24.4176   -3.1673 S   0  0  0  0  0  0  0  0  0  0  0  0
  -16.3891   24.8839   -1.4739 C   0  0  0  0  0  0  0  0  0  0  0  0
  -19.7872   24.0329   -0.3539 O   0  0  0  0  0  0  0  0  0  0  0  0
  -19.2990   25.1720   -0.4075 C   0  0  0  0  0  0  0  0  0  0  0  0
  -19.2023   26.0786    0.4422 O   0  0  0  0  0  0  0  0  0  0  0  0
  -19.7688   23.4792   -1.1097 H   0  0  0  0  0  0  0  0  0  0  0  0
  -15.1097   25.4690   -0.9025 C   0  0  0  0  0  0  0  0  0  0  0  0
  -13.7183   24.3707   -1.2111 S   0  0  0  0  0  0  0  0  0  0  0  0
  -13.5571   24.2089   -2.5518 H   0  0  0  0  0  0  0  0  0  0  0  0
  5  6  1  0  0  0
  5  4  1  0  0  0
  5  1  1  0  0  0
  6  7  1  0  0  0
 14 13  1  0  0  0
  4  3  1  0  0  0
 13  8  1  0  0  0
  1  8  1  0  0  0
  1  2  1  0  0  0
  8  7  1  0  0  0
 11 10  2  0  0  0
  3  2  1  0  0  0
  2 10  1  0  0  0
 10  9  1  0  0  0
  9 12  1  0  0  0
 14 15  1  0  0  0
M  END
> <minimizedAffinity>
-4.01762

$$$$
5EVB_3R9_A_403


 15 16  0  0  0  0  0  0  0  0999 V2000
  -18.3402   24.5172   -0.6999 N   0  0  0  0  0  0  0  0  0  0  0  0
  -17.9781   24.2223    0.6688 C   0  0  0  0  0  0  0  0  0  0  0  0
  -17.5102   22.7773    0.7894 C   0  0  0  0  0  0  0  0  0  0  0  0
  -16.9551   22.2723   -0.8504 S   0  0  0  0  0  0  0  0  0  0  0  0
  -17.6700   23.7272   -1.6981 C   0  0  0  0  0  0  0  0  0  0  0  0
  -16.5833   24.6214   -2.3008 C   0  0  0  0  0  0  0  0  0  0  0  0
  -16.7525   26.2386   -1.5430 S   0  0  0  0  0  0  0  0  0  0  0  0
  -18.4511   25.8889   -1.0939 C   0  0  0  0  0  0  0  0  0  0  0  0
  -18.9381   25.1757    2.5267 O   0  0  0  0  0  0  0  0  0  0  0  0
  -19.1982   24.4436    1.5596 C   0  0  0  0  0  0  0  0  0  0  0  0
  -20.2408   23.8527    1.2176 O   0  0  0  0  0  0  0  0  0  0  0  0
  -18.0796   25.5387    2.6220 H   0  0  0  0  0  0  0  0  0  0  0  0
  -19.2800   26.0346   -2.3578 C   0  0  0  0  0  0  0  0  0  0  0  0
  -18.7869   27.5035   -3.2724 S   0  0  0  0  0  0  0  0  0  0  0  0
  -17.4776   27.3996   -3.6252 H   0  0  0  0  0  0  0  0  0  0  0  0
  5  6  1  0  0  0
  5  4  1  0  0  0
  5  1  1  0  0  0
  6  7  1  0  0  0
 14 13  1  0  0  0
  4  3  1  0  0  0
 13  8  1  0  0  0
  1  8  1  0  0  0
  1  2  1  0  0  0
  8  7  1  0  0  0
 11 10  2  0  0  0
  3  2  1  0  0  0
  2 10  1  0  0  0
 10  9  1  0  0  0
  9 12  1  0  0  0
 14 15  1  0  0  0
M  END
> <minimizedAffinity>
-3.90574

$$$$
5EVB_3R9_A_403


 15 16  0  0  0  0  0  0  0  0999 V2000
  -18.0961   25.3835   -1.4568 N   0  0  0  0  0  0  0  0  0  0  0  0
  -16.9986   26.3149   -1.5961 C   0  0  0  0  0  0  0  0  0  0  0  0
  -17.2113   27.1994   -2.8183 C   0  0  0  0  0  0  0  0  0  0  0  0
  -18.9829   27.2024   -3.1556 S   0  0  0  0  0  0  0  0  0  0  0  0
  -19.3481   25.8189   -2.0159 C   0  0  0  0  0  0  0  0  0  0  0  0
  -20.2152   26.2703   -0.8377 C   0  0  0  0  0  0  0  0  0  0  0  0
  -19.2853   25.9342    0.6591 S   0  0  0  0  0  0  0  0  0  0  0  0
  -18.2758   24.7272   -0.1974 C   0  0  0  0  0  0  0  0  0  0  0  0
  -14.9194   25.7310   -0.8097 O   0  0  0  0  0  0  0  0  0  0  0  0
  -15.7004   25.5266   -1.7517 C   0  0  0  0  0  0  0  0  0  0  0  0
  -15.5991   24.8357   -2.7839 O   0  0  0  0  0  0  0  0  0  0  0  0
  -15.1731   26.2932   -0.1043 H   0  0  0  0  0  0  0  0  0  0  0  0
  -19.1187   23.4727   -0.3443 C   0  0  0  0  0  0  0  0  0  0  0  0
  -19.9320   23.0709    1.2095 S   0  0  0  0  0  0  0  0  0  0  0  0
  -20.7467   24.0973    1.5734 H   0  0  0  0  0  0  0  0  0  0  0  0
  5  6  1  0  0  0
  5  4  1  0  0  0
  5  1  1  0  0  0
  6  7  1  0  0  0
 14 13  1  0  0  0
  4  3  1  0  0  0
 13  8  1  0  0  0
  1  8  1  0  0  0
  1  2  1  0  0  0
  8  7  1  0  0  0
 11 10  2  0  0  0
  3  2  1  0  0  0
  2 10  1  0  0  0
 10  9  1  0  0  0
  9 12  1  0  0  0
 14 15  1  0  0  0
M  END
> <minimizedAffinity>
-3.85177

$$$$
5EVB_3R9_A_403


 15 16  0  0  0  0  0  0  0  0999 V2000
  -17.0158   24.0396   -2.7915 N   0  0  0  0  0  0  0  0  0  0  0  0
  -16.0662   22.9516   -2.8678 C   0  0  0  0  0  0  0  0  0  0  0  0
  -14.9249   23.3147   -3.8097 C   0  0  0  0  0  0  0  0  0  0  0  0
  -14.8622   25.1156   -3.8801 S   0  0  0  0  0  0  0  0  0  0  0  0
  -16.4757   25.3477   -3.0500 C   0  0  0  0  0  0  0  0  0  0  0  0
  -16.3184   26.0286   -1.6878 C   0  0  0  0  0  0  0  0  0  0  0  0
  -16.9823   24.9042   -0.4578 S   0  0  0  0  0  0  0  0  0  0  0  0
  -17.9476   24.0544   -1.7050 C   0  0  0  0  0  0  0  0  0  0  0  0
  -16.6881   20.7560   -2.5945 O   0  0  0  0  0  0  0  0  0  0  0  0
  -16.7836   21.7072   -3.3850 C   0  0  0  0  0  0  0  0  0  0  0  0
  -17.3202   21.8098   -4.5052 O   0  0  0  0  0  0  0  0  0  0  0  0
  -16.2381   20.8670   -1.7801 H   0  0  0  0  0  0  0  0  0  0  0  0
  -19.1427   24.9385   -2.0151 C   0  0  0  0  0  0  0  0  0  0  0  0
  -19.8882   25.5509   -0.4963 S   0  0  0  0  0  0  0  0  0  0  0  0
  -18.9749   26.2867    0.1923 H   0  0  0  0  0  0  0  0  0  0  0  0
  5  6  1  0  0  0
  5  4  1  0  0  0
  5  1  1  0  0  0
  6  7  1  0  0  0
 14 13  1  0  0  0
  4  3  1  0  0  0
 13  8  1  0  0  0
  1  8  1  0  0  0
  1  2  1  0  0  0
  8  7  1  0  0  0
 11 10  2  0  0  0
  3  2  1  0  0  0
  2 10  1  0  0  0
 10  9  1  0  0  0
  9 12  1  0  0  0
 14 15  1  0  0  0
M  END
> <minimizedAffinity>
-3.81604

$$$$
5EVB_3R9_A_403


 15 16  0  0  0  0  0  0  0  0999 V2000
  -17.2347   24.6976   -1.7785 N   0  0  0  0  0  0  0  0  0  0  0  0
  -17.5125   23.2903   -1.9624 C   0  0  0  0  0  0  0  0  0  0  0  0
  -17.1620   22.5154   -0.6982 C   0  0  0  0  0  0  0  0  0  0  0  0
  -17.2161   23.6941    0.6656 S   0  0  0  0  0  0  0  0  0  0  0  0
  -17.2958   25.1649   -0.4193 C   0  0  0  0  0  0  0  0  0  0  0  0
  -18.6291   25.9032   -0.2743 C   0  0  0  0  0  0  0  0  0  0  0  0
  -19.4038   25.9129   -1.8923 S   0  0  0  0  0  0  0  0  0  0  0  0
  -17.8239   25.6320   -2.6889 C   0  0  0  0  0  0  0  0  0  0  0  0
  -15.4758   23.0489   -2.9996 O   0  0  0  0  0  0  0  0  0  0  0  0
  -16.6779   22.7721   -3.1310 C   0  0  0  0  0  0  0  0  0  0  0  0
  -17.3053   22.1902   -4.0371 O   0  0  0  0  0  0  0  0  0  0  0  0
  -15.1800   23.5003   -2.2336 H   0  0  0  0  0  0  0  0  0  0  0  0
  -17.0824   26.9571   -2.6763 C   0  0  0  0  0  0  0  0  0  0  0  0
  -15.6703   26.9029   -3.7901 S   0  0  0  0  0  0  0  0  0  0  0  0
  -16.1014   26.6624   -5.0573 H   0  0  0  0  0  0  0  0  0  0  0  0
  5  6  1  0  0  0
  5  4  1  0  0  0
  5  1  1  0  0  0
  6  7  1  0  0  0
 14 13  1  0  0  0
  4  3  1  0  0  0
 13  8  1  0  0  0
  1  8  1  0  0  0
  1  2  1  0  0  0
  8  7  1  0  0  0
 11 10  2  0  0  0
  3  2  1  0  0  0
  2 10  1  0  0  0
 10  9  1  0  0  0
  9 12  1  0  0  0
 14 15  1  0  0  0
M  END
> <minimizedAffinity>
-3.81322

$$$$
5EVB_3R9_A_403


 15 16  0  0  0  0  0  0  0  0999 V2000
  -17.6724   24.8573   -1.5952 N   0  0  0  0  0  0  0  0  0  0  0  0
  -18.2055   24.5499   -0.2866 C   0  0  0  0  0  0  0  0  0  0  0  0
  -18.3248   23.0414   -0.1083 C   0  0  0  0  0  0  0  0  0  0  0  0
  -17.1557   22.2885   -1.2565 S   0  0  0  0  0  0  0  0  0  0  0  0
  -16.8396   23.8380   -2.1759 C   0  0  0  0  0  0  0  0  0  0  0  0
  -15.3935   24.3114   -2.0068 C   0  0  0  0  0  0  0  0  0  0  0  0
  -15.4576   25.9447   -1.2678 S   0  0  0  0  0  0  0  0  0  0  0  0
  -17.1457   26.1685   -1.8244 C   0  0  0  0  0  0  0  0  0  0  0  0
  -20.2656   25.0445   -1.1776 O   0  0  0  0  0  0  0  0  0  0  0  0
  -19.5833   25.1939   -0.1524 C   0  0  0  0  0  0  0  0  0  0  0  0
  -19.8095   25.7856    0.9209 O   0  0  0  0  0  0  0  0  0  0  0  0
  -19.9233   24.5577   -1.9014 H   0  0  0  0  0  0  0  0  0  0  0  0
  -17.0820   26.4859   -3.3080 C   0  0  0  0  0  0  0  0  0  0  0  0
  -18.5154   27.4499   -3.8113 S   0  0  0  0  0  0  0  0  0  0  0  0
  -18.5391   28.6212   -3.1206 H   0  0  0  0  0  0  0  0  0  0  0  0
  5  6  1  0  0  0
  5  4  1  0  0  0
  5  1  1  0  0  0
  6  7  1  0  0  0
 14 13  1  0  0  0
  4  3  1  0  0  0
 13  8  1  0  0  0
  1  8  1  0  0  0
  1  2  1  0  0  0
  8  7  1  0  0  0
 11 10  2  0  0  0
  3  2  1  0  0  0
  2 10  1  0  0  0
 10  9  1  0  0  0
  9 12  1  0  0  0
 14 15  1  0  0  0
M  END
> <minimizedAffinity>
-3.78869

$$$$
5EVB_3R9_A_403


 15 16  0  0  0  0  0  0  0  0999 V2000
  -18.8758   24.2600   -0.5787 N   0  0  0  0  0  0  0  0  0  0  0  0
  -17.7101   24.8525   -1.1963 C   0  0  0  0  0  0  0  0  0  0  0  0
  -18.1259   25.9870   -2.1244 C   0  0  0  0  0  0  0  0  0  0  0  0
  -19.7403   26.5567   -1.5577 S   0  0  0  0  0  0  0  0  0  0  0  0
  -20.0106   25.1335   -0.4408 C   0  0  0  0  0  0  0  0  0  0  0  0
  -20.0489   25.5658    1.0274 C   0  0  0  0  0  0  0  0  0  0  0  0
  -18.7293   24.6887    1.8687 S   0  0  0  0  0  0  0  0  0  0  0  0
  -18.6897   23.4430    0.5819 C   0  0  0  0  0  0  0  0  0  0  0  0
  -15.8697   23.5100   -1.5016 O   0  0  0  0  0  0  0  0  0  0  0  0
  -16.9761   23.7779   -1.9947 C   0  0  0  0  0  0  0  0  0  0  0  0
  -17.5592   23.3572   -3.0126 O   0  0  0  0  0  0  0  0  0  0  0  0
  -15.5925   23.9351   -0.7139 H   0  0  0  0  0  0  0  0  0  0  0  0
  -19.8831   22.5328    0.8130 C   0  0  0  0  0  0  0  0  0  0  0  0
  -19.4057   21.0983    1.7885 S   0  0  0  0  0  0  0  0  0  0  0  0
  -18.9357   21.5082    2.9972 H   0  0  0  0  0  0  0  0  0  0  0  0
  5  6  1  0  0  0
  5  4  1  0  0  0
  5  1  1  0  0  0
  6  7  1  0  0  0
 14 13  1  0  0  0
  4  3  1  0  0  0
 13  8  1  0  0  0
  1  8  1  0  0  0
  1  2  1  0  0  0
  8  7  1  0  0  0
 11 10  2  0  0  0
  3  2  1  0  0  0
  2 10  1  0  0  0
 10  9  1  0  0  0
  9 12  1  0  0  0
 14 15  1  0  0  0
M  END
> <minimizedAffinity>
-3.72827

$$$$
