4YGF_AZM_A_303
  RCSB PDB12061716263D
Coordinates from PDB:4YGF:A:303 Model:1 without hydrogens
 13 13  0  0  0  0            999 V2000
  -10.6140  -39.7310  -77.0970   C 0  0  0  0  0  0  0  0  0  0  0  0
  -11.4820  -41.2740  -78.8790   C 0  0  0  0  0  0  0  0  0  0  0  0
  -12.6220  -43.5080  -79.1400   C 0  0  0  0  0  0  0  0  0  0  0  0
  -13.1990  -44.5860  -80.0690   C 0  0  0  0  0  0  0  0  0  0  0  0
   -8.5240  -38.7950  -75.5160   N 0  0  0  0  0  0  0  0  0  0  0  0
  -10.9110  -40.1110  -79.3180   N 0  0  0  0  0  0  0  0  0  0  0  0
  -10.4540  -39.2840  -78.3730   N 0  0  0  0  0  0  0  0  0  0  0  0
  -12.0430  -42.3150  -79.6900   N 0  0  0  0  0  0  0  0  0  0  0  0
  -10.8430  -37.6150  -75.5950   O 0  0  0  0  0  0  0  0  0  0  0  0
  -10.6760  -39.8250  -74.5010   O 0  0  0  0  0  0  0  0  0  0  0  0
  -12.6640  -43.6880  -77.9570   O 0  0  0  0  0  0  0  0  0  0  0  0
  -10.1690  -38.9510  -75.5990   S 0  0  0  0  0  0  0  0  0  0  0  0
  -11.3930  -41.2220  -77.1570   S 0  0  0  0  0  0  0  0  0  0  0  0
  1  7  2  0  0  0  0
  1 12  1  0  0  0  0
  1 13  1  0  0  0  0
  2  6  2  0  0  0  0
  2  8  1  0  0  0  0
  2 13  1  0  0  0  0
  3  4  1  0  0  0  0
  3  8  1  0  0  0  0
  3 11  2  0  0  0  0
  5 12  1  0  0  0  0
  6  7  1  0  0  0  0
  9 12  2  0  0  0  0
 10 12  2  0  0  0  0
A    1
C1
A    2
C2
A    3
C3
A    4
C4
A    5
N1
A    6
N2
A    7
N3
A    8
N4
A    9
O1
A   10
O2
A   11
O3
A   12
S1
A   13
S2
M  END
>  <InstanceId>
4YGF_AZM_A_303

>  <ChemCompId>
AZM

>  <PdbId>
4YGF

>  <ChainId>
A

>  <ResidueNumber>
303

>  <InsertionCode>


>  <Model>
1

>  <AltIds>


>  <MissingHeavyAtoms>
0

>  <ObservedFormula>
C4 N4 O3 S2

>  <Name>
5-ACETAMIDO-1,3,4-THIADIAZOLE-2-SULFONAMIDE

>  <SystematicName>
N-(5-sulfamoyl-1,3,4-thiadiazol-2-yl)ethanamide

>  <Synonyms>


>  <Type>
NON-POLYMER

>  <Formula>
C4 H6 N4 O3 S2

>  <MolecularWeight>
222.245

>  <ModifiedDate>
2011-06-04

>  <Parent>


>  <OneLetterCode>


>  <SubcomponentList>


>  <AmbiguousFlag>
N

>  <InChI>
InChI=1S/C4H6N4O3S2/c1-2(9)6-3-7-8-4(12-3)13(5,10)11/h1H3,(H2,5,10,11)(H,6,7,9)

>  <InChIKey>
BZKPWHYZMXOIDC-UHFFFAOYSA-N

>  <SMILES>
CC(=O)Nc1nnc(s1)S(=O)(=O)N

$$$$
