5SYM_71Q_A_301


 29 31  0  0  0  0  0  0  0  0999 V2000
   -9.3196  -12.9979   -2.2101 C   0  0  0  0  0  0  0  0  0  0  0  0
  -10.5605  -12.4536   -2.2012 N   0  0  0  0  0  0  0  0  0  0  0  0
   -9.0746  -14.1987   -2.2657 O   0  0  0  0  0  0  0  0  0  0  0  0
  -10.5481  -11.4706   -2.2544 H   0  0  0  0  0  0  0  0  0  0  0  0
  -13.4545  -14.7770   -1.7077 C   0  0  0  0  0  0  0  0  0  0  0  0
  -11.8682  -12.9841   -2.1324 C   0  0  0  0  0  0  0  0  0  0  0  0
  -12.1415  -14.3209   -1.8337 C   0  0  0  0  0  0  0  0  0  0  0  0
  -12.9478  -12.1153   -2.3239 C   0  0  0  0  0  0  0  0  0  0  0  0
  -12.6569  -10.4539   -2.7521 Cl  0  0  0  0  0  0  0  0  0  0  0  0
  -14.2515  -12.5588   -2.2048 C   0  0  0  0  0  0  0  0  0  0  0  0
  -14.5006  -13.8839   -1.9006 C   0  0  0  0  0  0  0  0  0  0  0  0
  -13.7279  -16.2065   -1.3572 C   0  0  0  0  0  0  0  0  0  0  0  0
  -13.1084  -17.0714   -2.1605 F   0  0  0  0  0  0  0  0  0  0  0  0
  -13.3622  -16.5179   -0.1143 F   0  0  0  0  0  0  0  0  0  0  0  0
  -15.0184  -16.5260   -1.4209 F   0  0  0  0  0  0  0  0  0  0  0  0
   -8.2003  -11.9773   -2.1237 C   0  0  0  0  0  0  0  0  0  0  0  0
   -8.6009  -10.6787   -2.6531 N   0  0  0  0  0  0  0  0  0  0  0  0
   -8.3329   -8.2341   -4.0708 N   0  0  0  0  0  0  0  0  0  0  0  0
   -7.7636   -9.6019   -2.1360 C   0  0  0  0  0  0  0  0  0  0  0  0
   -8.2951   -8.2725   -2.6051 C   0  0  0  0  0  0  0  0  0  0  0  0
   -9.0789   -9.3558   -4.6485 C   0  0  0  0  0  0  0  0  0  0  0  0
   -8.5540  -10.6673   -4.1145 C   0  0  0  0  0  0  0  0  0  0  0  0
   -7.6574   -6.0993   -4.1581 O   0  0  0  0  0  0  0  0  0  0  0  0
   -7.9211   -7.1408   -4.7437 C   0  0  0  0  0  0  0  0  0  0  0  0
   -7.8699   -7.1263   -6.2270 C   0  0  0  0  0  0  0  0  0  0  0  0
   -8.0984   -6.1304   -7.1206 C   0  0  0  0  0  0  0  0  0  0  0  0
   -7.7712   -6.6540   -8.4048 C   0  0  0  0  0  0  0  0  0  0  0  0
   -7.3719   -7.9060   -8.2209 C   0  0  0  0  0  0  0  0  0  0  0  0
   -7.4220   -8.2428   -6.8869 O   0  0  0  0  0  0  0  0  0  0  0  0
 27 28  2  0  0  0
 27 26  1  0  0  0
 28 29  1  0  0  0
 26 25  2  0  0  0
 29 25  1  0  0  0
 25 24  1  0  0  0
 24 23  2  0  0  0
 24 18  1  0  0  0
 21 18  1  0  0  0
 21 22  1  0  0  0
 18 20  1  0  0  0
 22 17  1  0  0  0
 20 19  1  0  0  0
  9  8  1  0  0  0
 17 19  1  0  0  0
 17 16  1  0  0  0
  8  6  2  0  0  0
  8 10  1  0  0  0
  2  6  1  0  0  0
  2  1  1  0  0  0
  6  7  1  0  0  0
 10 11  2  0  0  0
 16  1  1  0  0  0
  1  3  2  0  0  0
 13 12  1  0  0  0
  7  5  2  0  0  0
 11  5  1  0  0  0
  5 12  1  0  0  0
 15 12  1  0  0  0
 12 14  1  0  0  0
  2  4  1  0  0  0
M  END
> <minimizedAffinity>
-10.40417

$$$$
5SYM_71Q_A_301


 29 31  0  0  0  0  0  0  0  0999 V2000
   -7.4919  -10.5839   -2.7514 C   0  0  0  0  0  0  0  0  0  0  0  0
   -8.4801  -11.3470   -3.2778 N   0  0  0  0  0  0  0  0  0  0  0  0
   -7.3483  -10.3374   -1.5581 O   0  0  0  0  0  0  0  0  0  0  0  0
   -8.3666  -11.5089   -4.2423 H   0  0  0  0  0  0  0  0  0  0  0  0
  -12.0221  -12.0409   -2.2829 C   0  0  0  0  0  0  0  0  0  0  0  0
   -9.6373  -11.9619   -2.7495 C   0  0  0  0  0  0  0  0  0  0  0  0
  -10.8979  -11.3603   -2.7527 C   0  0  0  0  0  0  0  0  0  0  0  0
   -9.5257  -13.2607   -2.2418 C   0  0  0  0  0  0  0  0  0  0  0  0
   -7.9667  -14.0300   -2.1662 Cl  0  0  0  0  0  0  0  0  0  0  0  0
  -10.6329  -13.9411   -1.7709 C   0  0  0  0  0  0  0  0  0  0  0  0
  -11.8730  -13.3310   -1.7903 C   0  0  0  0  0  0  0  0  0  0  0  0
  -13.3702  -11.3914   -2.3223 C   0  0  0  0  0  0  0  0  0  0  0  0
  -13.5365  -10.5909   -3.3754 F   0  0  0  0  0  0  0  0  0  0  0  0
  -14.3717  -12.2697   -2.3547 F   0  0  0  0  0  0  0  0  0  0  0  0
  -13.6195  -10.6322   -1.2579 F   0  0  0  0  0  0  0  0  0  0  0  0
   -6.5404  -10.0116   -3.7853 C   0  0  0  0  0  0  0  0  0  0  0  0
   -7.2486   -9.3424   -4.8705 N   0  0  0  0  0  0  0  0  0  0  0  0
   -7.6922   -7.4265   -6.9175 N   0  0  0  0  0  0  0  0  0  0  0  0
   -7.5539   -7.9541   -4.5425 C   0  0  0  0  0  0  0  0  0  0  0  0
   -8.3963   -7.3457   -5.6334 C   0  0  0  0  0  0  0  0  0  0  0  0
   -7.2710   -8.7908   -7.2486 C   0  0  0  0  0  0  0  0  0  0  0  0
   -6.4760   -9.3866   -6.1112 C   0  0  0  0  0  0  0  0  0  0  0  0
   -8.3774   -5.3935   -7.5646 O   0  0  0  0  0  0  0  0  0  0  0  0
   -7.6782   -6.3775   -7.7644 C   0  0  0  0  0  0  0  0  0  0  0  0
   -6.8933   -6.4178   -9.0235 C   0  0  0  0  0  0  0  0  0  0  0  0
   -6.0811   -5.4965   -9.6016 C   0  0  0  0  0  0  0  0  0  0  0  0
   -5.4880   -6.1300  -10.7317 C   0  0  0  0  0  0  0  0  0  0  0  0
   -5.9619   -7.3688  -10.7726 C   0  0  0  0  0  0  0  0  0  0  0  0
   -6.8404   -7.5893   -9.7359 O   0  0  0  0  0  0  0  0  0  0  0  0
 27 28  2  0  0  0
 27 26  1  0  0  0
 28 29  1  0  0  0
 26 25  2  0  0  0
 29 25  1  0  0  0
 25 24  1  0  0  0
 24 23  2  0  0  0
 24 18  1  0  0  0
 21 18  1  0  0  0
 21 22  1  0  0  0
 18 20  1  0  0  0
 22 17  1  0  0  0
 20 19  1  0  0  0
  9  8  1  0  0  0
 17 19  1  0  0  0
 17 16  1  0  0  0
  8  6  2  0  0  0
  8 10  1  0  0  0
  2  6  1  0  0  0
  2  1  1  0  0  0
  6  7  1  0  0  0
 10 11  2  0  0  0
 16  1  1  0  0  0
  1  3  2  0  0  0
 13 12  1  0  0  0
  7  5  2  0  0  0
 11  5  1  0  0  0
  5 12  1  0  0  0
 15 12  1  0  0  0
 12 14  1  0  0  0
  2  4  1  0  0  0
M  END
> <minimizedAffinity>
-10.35683

$$$$
5SYM_71Q_A_301


 29 31  0  0  0  0  0  0  0  0999 V2000
   -7.6332   -8.0408   -3.4717 C   0  0  0  0  0  0  0  0  0  0  0  0
   -8.0911   -6.9085   -4.0582 N   0  0  0  0  0  0  0  0  0  0  0  0
   -6.5666   -8.5894   -3.7300 O   0  0  0  0  0  0  0  0  0  0  0  0
   -8.9186   -6.5708   -3.6452 H   0  0  0  0  0  0  0  0  0  0  0  0
   -6.5275   -4.1503   -6.0494 C   0  0  0  0  0  0  0  0  0  0  0  0
   -7.6444   -6.1049   -5.1311 C   0  0  0  0  0  0  0  0  0  0  0  0
   -7.0138   -4.8708   -4.9575 C   0  0  0  0  0  0  0  0  0  0  0  0
   -7.7961   -6.5926   -6.4335 C   0  0  0  0  0  0  0  0  0  0  0  0
   -8.6243   -8.0990   -6.7032 Cl  0  0  0  0  0  0  0  0  0  0  0  0
   -7.3210   -5.8843   -7.5213 C   0  0  0  0  0  0  0  0  0  0  0  0
   -6.6926   -4.6686   -7.3274 C   0  0  0  0  0  0  0  0  0  0  0  0
   -5.8273   -2.8436   -5.8417 C   0  0  0  0  0  0  0  0  0  0  0  0
   -6.4366   -2.0570   -4.9543 F   0  0  0  0  0  0  0  0  0  0  0  0
   -4.5716   -2.9861   -5.4194 F   0  0  0  0  0  0  0  0  0  0  0  0
   -5.7310   -2.1162   -6.9521 F   0  0  0  0  0  0  0  0  0  0  0  0
   -8.5795   -8.6241   -2.4392 C   0  0  0  0  0  0  0  0  0  0  0  0
   -9.0525   -9.9509   -2.8171 N   0  0  0  0  0  0  0  0  0  0  0  0
  -10.3272  -12.4663   -2.4922 N   0  0  0  0  0  0  0  0  0  0  0  0
   -8.4494  -10.9947   -1.9956 C   0  0  0  0  0  0  0  0  0  0  0  0
   -8.8652  -12.3497   -2.5065 C   0  0  0  0  0  0  0  0  0  0  0  0
  -10.9899  -11.3805   -3.2204 C   0  0  0  0  0  0  0  0  0  0  0  0
  -10.5087  -10.0399   -2.7184 C   0  0  0  0  0  0  0  0  0  0  0  0
  -10.2765  -14.5996   -1.8082 O   0  0  0  0  0  0  0  0  0  0  0  0
  -10.9258  -13.5920   -2.0538 C   0  0  0  0  0  0  0  0  0  0  0  0
  -12.4035  -13.6853   -1.9500 C   0  0  0  0  0  0  0  0  0  0  0  0
  -13.3862  -12.8698   -2.4103 C   0  0  0  0  0  0  0  0  0  0  0  0
  -14.6206  -13.5259   -2.1352 C   0  0  0  0  0  0  0  0  0  0  0  0
  -14.3233  -14.6739   -1.5396 C   0  0  0  0  0  0  0  0  0  0  0  0
  -12.9607  -14.8118   -1.3995 O   0  0  0  0  0  0  0  0  0  0  0  0
 27 28  2  0  0  0
 27 26  1  0  0  0
 28 29  1  0  0  0
 26 25  2  0  0  0
 29 25  1  0  0  0
 25 24  1  0  0  0
 24 23  2  0  0  0
 24 18  1  0  0  0
 21 18  1  0  0  0
 21 22  1  0  0  0
 18 20  1  0  0  0
 22 17  1  0  0  0
 20 19  1  0  0  0
  9  8  1  0  0  0
 17 19  1  0  0  0
 17 16  1  0  0  0
  8  6  2  0  0  0
  8 10  1  0  0  0
  2  6  1  0  0  0
  2  1  1  0  0  0
  6  7  1  0  0  0
 10 11  2  0  0  0
 16  1  1  0  0  0
  1  3  2  0  0  0
 13 12  1  0  0  0
  7  5  2  0  0  0
 11  5  1  0  0  0
  5 12  1  0  0  0
 15 12  1  0  0  0
 12 14  1  0  0  0
  2  4  1  0  0  0
M  END
> <minimizedAffinity>
-9.40908

$$$$
5SYM_71Q_A_301


 29 31  0  0  0  0  0  0  0  0999 V2000
   -9.4796  -11.2356   -2.5270 C   0  0  0  0  0  0  0  0  0  0  0  0
  -10.7845  -11.0285   -2.2264 N   0  0  0  0  0  0  0  0  0  0  0  0
   -9.0161  -12.2744   -2.9867 O   0  0  0  0  0  0  0  0  0  0  0  0
  -10.9742  -10.0990   -1.9634 H   0  0  0  0  0  0  0  0  0  0  0  0
  -13.0465  -14.0068   -2.0514 C   0  0  0  0  0  0  0  0  0  0  0  0
  -11.9333  -11.8509   -2.2068 C   0  0  0  0  0  0  0  0  0  0  0  0
  -11.8804  -13.2451   -2.1407 C   0  0  0  0  0  0  0  0  0  0  0  0
  -13.1898  -11.2359   -2.2028 C   0  0  0  0  0  0  0  0  0  0  0  0
  -13.3072   -9.5051   -2.3393 Cl  0  0  0  0  0  0  0  0  0  0  0  0
  -14.3501  -11.9822   -2.1183 C   0  0  0  0  0  0  0  0  0  0  0  0
  -14.2759  -13.3605   -2.0457 C   0  0  0  0  0  0  0  0  0  0  0  0
  -12.9693  -15.4984   -1.9507 C   0  0  0  0  0  0  0  0  0  0  0  0
  -13.7578  -16.1248   -2.8243 F   0  0  0  0  0  0  0  0  0  0  0  0
  -11.7391  -15.9715   -2.1467 F   0  0  0  0  0  0  0  0  0  0  0  0
  -13.3251  -15.9639   -0.7557 F   0  0  0  0  0  0  0  0  0  0  0  0
   -8.5838  -10.0488   -2.2256 C   0  0  0  0  0  0  0  0  0  0  0  0
   -8.0594   -9.4357   -3.4406 N   0  0  0  0  0  0  0  0  0  0  0  0
   -7.7955   -7.4822   -5.4831 N   0  0  0  0  0  0  0  0  0  0  0  0
   -9.0967   -9.2662   -4.4523 C   0  0  0  0  0  0  0  0  0  0  0  0
   -8.4842   -8.7534   -5.7297 C   0  0  0  0  0  0  0  0  0  0  0  0
   -6.8101   -7.5714   -4.4016 C   0  0  0  0  0  0  0  0  0  0  0  0
   -7.4467   -8.1391   -3.1554 C   0  0  0  0  0  0  0  0  0  0  0  0
   -8.4746   -6.5926   -7.4244 O   0  0  0  0  0  0  0  0  0  0  0  0
   -7.9204   -6.4511   -6.3427 C   0  0  0  0  0  0  0  0  0  0  0  0
   -7.3019   -5.1328   -6.0554 C   0  0  0  0  0  0  0  0  0  0  0  0
   -7.4241   -4.3000   -4.9905 C   0  0  0  0  0  0  0  0  0  0  0  0
   -6.4948   -3.2395   -5.1955 C   0  0  0  0  0  0  0  0  0  0  0  0
   -5.8768   -3.4844   -6.3440 C   0  0  0  0  0  0  0  0  0  0  0  0
   -6.3493   -4.6450   -6.9141 O   0  0  0  0  0  0  0  0  0  0  0  0
 27 28  2  0  0  0
 27 26  1  0  0  0
 28 29  1  0  0  0
 26 25  2  0  0  0
 29 25  1  0  0  0
 25 24  1  0  0  0
 24 23  2  0  0  0
 24 18  1  0  0  0
 21 18  1  0  0  0
 21 22  1  0  0  0
 18 20  1  0  0  0
 22 17  1  0  0  0
 20 19  1  0  0  0
  9  8  1  0  0  0
 17 19  1  0  0  0
 17 16  1  0  0  0
  8  6  2  0  0  0
  8 10  1  0  0  0
  2  6  1  0  0  0
  2  1  1  0  0  0
  6  7  1  0  0  0
 10 11  2  0  0  0
 16  1  1  0  0  0
  1  3  2  0  0  0
 13 12  1  0  0  0
  7  5  2  0  0  0
 11  5  1  0  0  0
  5 12  1  0  0  0
 15 12  1  0  0  0
 12 14  1  0  0  0
  2  4  1  0  0  0
M  END
> <minimizedAffinity>
-9.08952

$$$$
5SYM_71Q_A_301


 29 31  0  0  0  0  0  0  0  0999 V2000
  -12.0573  -10.8327   -2.8978 C   0  0  0  0  0  0  0  0  0  0  0  0
  -10.7695  -11.2538   -2.8840 N   0  0  0  0  0  0  0  0  0  0  0  0
  -12.4860   -9.8900   -3.5558 O   0  0  0  0  0  0  0  0  0  0  0  0
  -10.6439  -12.0856   -2.3725 H   0  0  0  0  0  0  0  0  0  0  0  0
   -8.2857   -9.1741   -4.7609 C   0  0  0  0  0  0  0  0  0  0  0  0
   -9.5669  -10.7638   -3.4408 C   0  0  0  0  0  0  0  0  0  0  0  0
   -9.5083   -9.6608   -4.2958 C   0  0  0  0  0  0  0  0  0  0  0  0
   -8.3665  -11.3839   -3.0781 C   0  0  0  0  0  0  0  0  0  0  0  0
   -8.3938  -12.7946   -2.0597 Cl  0  0  0  0  0  0  0  0  0  0  0  0
   -7.1513  -10.9112   -3.5367 C   0  0  0  0  0  0  0  0  0  0  0  0
   -7.1143   -9.8133   -4.3757 C   0  0  0  0  0  0  0  0  0  0  0  0
   -8.2402   -7.9723   -5.6522 C   0  0  0  0  0  0  0  0  0  0  0  0
   -8.4184   -6.8255   -4.9963 F   0  0  0  0  0  0  0  0  0  0  0  0
   -7.0880   -7.8547   -6.3109 F   0  0  0  0  0  0  0  0  0  0  0  0
   -9.1733   -7.9859   -6.6012 F   0  0  0  0  0  0  0  0  0  0  0  0
  -12.9742  -11.6294   -1.9887 C   0  0  0  0  0  0  0  0  0  0  0  0
  -13.1482  -13.0012   -2.4520 N   0  0  0  0  0  0  0  0  0  0  0  0
  -14.0825  -15.6813   -2.4053 N   0  0  0  0  0  0  0  0  0  0  0  0
  -12.6058  -13.9662   -1.5018 C   0  0  0  0  0  0  0  0  0  0  0  0
  -12.6900  -15.3546   -2.0809 C   0  0  0  0  0  0  0  0  0  0  0  0
  -14.7100  -14.6855   -3.2790 C   0  0  0  0  0  0  0  0  0  0  0  0
  -14.5587  -13.3018   -2.6933 C   0  0  0  0  0  0  0  0  0  0  0  0
  -13.8808  -17.8004   -1.7056 O   0  0  0  0  0  0  0  0  0  0  0  0
  -14.5955  -16.8916   -2.1060 C   0  0  0  0  0  0  0  0  0  0  0  0
  -16.0272  -17.1996   -2.3473 C   0  0  0  0  0  0  0  0  0  0  0  0
  -17.1303  -16.9803   -1.5872 C   0  0  0  0  0  0  0  0  0  0  0  0
  -18.2519  -17.3595   -2.3799 C   0  0  0  0  0  0  0  0  0  0  0  0
  -17.7767  -17.7757   -3.5469 C   0  0  0  0  0  0  0  0  0  0  0  0
  -16.4023  -17.6989   -3.5691 O   0  0  0  0  0  0  0  0  0  0  0  0
 27 28  2  0  0  0
 27 26  1  0  0  0
 28 29  1  0  0  0
 26 25  2  0  0  0
 29 25  1  0  0  0
 25 24  1  0  0  0
 24 23  2  0  0  0
 24 18  1  0  0  0
 21 18  1  0  0  0
 21 22  1  0  0  0
 18 20  1  0  0  0
 22 17  1  0  0  0
 20 19  1  0  0  0
  9  8  1  0  0  0
 17 19  1  0  0  0
 17 16  1  0  0  0
  8  6  2  0  0  0
  8 10  1  0  0  0
  2  6  1  0  0  0
  2  1  1  0  0  0
  6  7  1  0  0  0
 10 11  2  0  0  0
 16  1  1  0  0  0
  1  3  2  0  0  0
 13 12  1  0  0  0
  7  5  2  0  0  0
 11  5  1  0  0  0
  5 12  1  0  0  0
 15 12  1  0  0  0
 12 14  1  0  0  0
  2  4  1  0  0  0
M  END
> <minimizedAffinity>
-9.07190

$$$$
5SYM_71Q_A_301


 29 31  0  0  0  0  0  0  0  0999 V2000
  -11.7203  -10.7220   -3.4731 C   0  0  0  0  0  0  0  0  0  0  0  0
  -10.4044  -10.6743   -3.1536 N   0  0  0  0  0  0  0  0  0  0  0  0
  -12.1919  -10.4444   -4.5712 O   0  0  0  0  0  0  0  0  0  0  0  0
  -10.2152  -11.0295   -2.2551 H   0  0  0  0  0  0  0  0  0  0  0  0
   -8.0676   -8.7666   -5.3710 C   0  0  0  0  0  0  0  0  0  0  0  0
   -9.2436  -10.2277   -3.8240 C   0  0  0  0  0  0  0  0  0  0  0  0
   -9.2533   -9.2198   -4.7910 C   0  0  0  0  0  0  0  0  0  0  0  0
   -8.0131  -10.7885   -3.4657 C   0  0  0  0  0  0  0  0  0  0  0  0
   -7.9570  -12.0848   -2.3062 Cl  0  0  0  0  0  0  0  0  0  0  0  0
   -6.8341  -10.3486   -4.0374 C   0  0  0  0  0  0  0  0  0  0  0  0
   -6.8644   -9.3444   -4.9868 C   0  0  0  0  0  0  0  0  0  0  0  0
   -8.0944   -7.6644   -6.3836 C   0  0  0  0  0  0  0  0  0  0  0  0
   -8.2257   -6.4546   -5.8391 F   0  0  0  0  0  0  0  0  0  0  0  0
   -6.9963   -7.6213   -7.1371 F   0  0  0  0  0  0  0  0  0  0  0  0
   -9.0973   -7.7724   -7.2519 F   0  0  0  0  0  0  0  0  0  0  0  0
  -12.6169  -11.1430   -2.3238 C   0  0  0  0  0  0  0  0  0  0  0  0
  -13.0950  -12.5125   -2.4752 N   0  0  0  0  0  0  0  0  0  0  0  0
  -14.1039  -15.0379   -1.6613 N   0  0  0  0  0  0  0  0  0  0  0  0
  -12.2468  -13.4634   -1.7649 C   0  0  0  0  0  0  0  0  0  0  0  0
  -12.7017  -14.8697   -2.0571 C   0  0  0  0  0  0  0  0  0  0  0  0
  -14.9885  -14.0397   -2.2693 C   0  0  0  0  0  0  0  0  0  0  0  0
  -14.4719  -12.6461   -2.0014 C   0  0  0  0  0  0  0  0  0  0  0  0
  -13.7631  -17.1052   -0.8667 O   0  0  0  0  0  0  0  0  0  0  0  0
  -14.5087  -16.1452   -1.0074 C   0  0  0  0  0  0  0  0  0  0  0  0
  -15.9048  -16.2834   -0.5229 C   0  0  0  0  0  0  0  0  0  0  0  0
  -16.9972  -16.8541   -1.0920 C   0  0  0  0  0  0  0  0  0  0  0  0
  -18.0330  -16.8123   -0.1145 C   0  0  0  0  0  0  0  0  0  0  0  0
  -17.5219  -16.2340    0.9650 C   0  0  0  0  0  0  0  0  0  0  0  0
  -16.2068  -15.8851    0.7549 O   0  0  0  0  0  0  0  0  0  0  0  0
 27 28  2  0  0  0
 27 26  1  0  0  0
 28 29  1  0  0  0
 26 25  2  0  0  0
 29 25  1  0  0  0
 25 24  1  0  0  0
 24 23  2  0  0  0
 24 18  1  0  0  0
 21 18  1  0  0  0
 21 22  1  0  0  0
 18 20  1  0  0  0
 22 17  1  0  0  0
 20 19  1  0  0  0
  9  8  1  0  0  0
 17 19  1  0  0  0
 17 16  1  0  0  0
  8  6  2  0  0  0
  8 10  1  0  0  0
  2  6  1  0  0  0
  2  1  1  0  0  0
  6  7  1  0  0  0
 10 11  2  0  0  0
 16  1  1  0  0  0
  1  3  2  0  0  0
 13 12  1  0  0  0
  7  5  2  0  0  0
 11  5  1  0  0  0
  5 12  1  0  0  0
 15 12  1  0  0  0
 12 14  1  0  0  0
  2  4  1  0  0  0
M  END
> <minimizedAffinity>
-8.94661

$$$$
5SYM_71Q_A_301


 29 31  0  0  0  0  0  0  0  0999 V2000
  -11.9839  -13.5913   -1.8710 C   0  0  0  0  0  0  0  0  0  0  0  0
  -12.4228  -14.8084   -1.4688 N   0  0  0  0  0  0  0  0  0  0  0  0
  -12.6750  -12.5806   -1.9489 O   0  0  0  0  0  0  0  0  0  0  0  0
  -11.6965  -15.4667   -1.3776 H   0  0  0  0  0  0  0  0  0  0  0  0
  -15.6297  -15.5980    0.2946 C   0  0  0  0  0  0  0  0  0  0  0  0
  -13.6919  -15.3423   -1.1513 C   0  0  0  0  0  0  0  0  0  0  0  0
  -14.3451  -15.1051    0.0603 C   0  0  0  0  0  0  0  0  0  0  0  0
  -14.3512  -16.1072   -2.1194 C   0  0  0  0  0  0  0  0  0  0  0  0
  -13.5549  -16.4753   -3.6222 Cl  0  0  0  0  0  0  0  0  0  0  0  0
  -15.6219  -16.6026   -1.8948 C   0  0  0  0  0  0  0  0  0  0  0  0
  -16.2544  -16.3498   -0.6921 C   0  0  0  0  0  0  0  0  0  0  0  0
  -16.3264  -15.3081    1.5875 C   0  0  0  0  0  0  0  0  0  0  0  0
  -15.9348  -14.1645    2.1497 F   0  0  0  0  0  0  0  0  0  0  0  0
  -17.6506  -15.2318    1.4608 F   0  0  0  0  0  0  0  0  0  0  0  0
  -16.1279  -16.2437    2.5131 F   0  0  0  0  0  0  0  0  0  0  0  0
  -10.5163  -13.5633   -2.2550 C   0  0  0  0  0  0  0  0  0  0  0  0
   -9.9487  -12.2238   -2.1527 N   0  0  0  0  0  0  0  0  0  0  0  0
   -8.2931  -10.0228   -2.8402 N   0  0  0  0  0  0  0  0  0  0  0  0
   -8.5115  -12.2625   -1.9051 C   0  0  0  0  0  0  0  0  0  0  0  0
   -7.9955  -10.8655   -1.6773 C   0  0  0  0  0  0  0  0  0  0  0  0
   -9.7150  -10.0292   -3.1963 C   0  0  0  0  0  0  0  0  0  0  0  0
  -10.2092  -11.4464   -3.3634 C   0  0  0  0  0  0  0  0  0  0  0  0
   -6.3207   -8.9645   -2.7367 O   0  0  0  0  0  0  0  0  0  0  0  0
   -7.3684   -9.1744   -3.3329 C   0  0  0  0  0  0  0  0  0  0  0  0
   -7.6283   -8.3854   -4.5629 C   0  0  0  0  0  0  0  0  0  0  0  0
   -8.0142   -7.0952   -4.7337 C   0  0  0  0  0  0  0  0  0  0  0  0
   -7.9758   -6.8419   -6.1352 C   0  0  0  0  0  0  0  0  0  0  0  0
   -7.5777   -7.9647   -6.7197 C   0  0  0  0  0  0  0  0  0  0  0  0
   -7.3559   -8.9496   -5.7837 O   0  0  0  0  0  0  0  0  0  0  0  0
 27 28  2  0  0  0
 27 26  1  0  0  0
 28 29  1  0  0  0
 26 25  2  0  0  0
 29 25  1  0  0  0
 25 24  1  0  0  0
 24 23  2  0  0  0
 24 18  1  0  0  0
 21 18  1  0  0  0
 21 22  1  0  0  0
 18 20  1  0  0  0
 22 17  1  0  0  0
 20 19  1  0  0  0
  9  8  1  0  0  0
 17 19  1  0  0  0
 17 16  1  0  0  0
  8  6  2  0  0  0
  8 10  1  0  0  0
  2  6  1  0  0  0
  2  1  1  0  0  0
  6  7  1  0  0  0
 10 11  2  0  0  0
 16  1  1  0  0  0
  1  3  2  0  0  0
 13 12  1  0  0  0
  7  5  2  0  0  0
 11  5  1  0  0  0
  5 12  1  0  0  0
 15 12  1  0  0  0
 12 14  1  0  0  0
  2  4  1  0  0  0
M  END
> <minimizedAffinity>
-8.94544

$$$$
5SYM_71Q_A_301


 29 31  0  0  0  0  0  0  0  0999 V2000
   -8.3315  -10.3848   -3.0129 C   0  0  0  0  0  0  0  0  0  0  0  0
   -9.3133  -11.0148   -3.7021 N   0  0  0  0  0  0  0  0  0  0  0  0
   -8.3086  -10.2311   -1.7958 O   0  0  0  0  0  0  0  0  0  0  0  0
   -9.1016  -11.1237   -4.6574 H   0  0  0  0  0  0  0  0  0  0  0  0
  -12.0030  -13.1263   -2.1775 C   0  0  0  0  0  0  0  0  0  0  0  0
  -10.5737  -11.5500   -3.3537 C   0  0  0  0  0  0  0  0  0  0  0  0
  -10.7338  -12.6814   -2.5505 C   0  0  0  0  0  0  0  0  0  0  0  0
  -11.7224  -10.8840   -3.7944 C   0  0  0  0  0  0  0  0  0  0  0  0
  -11.5741   -9.5026   -4.8422 Cl  0  0  0  0  0  0  0  0  0  0  0  0
  -12.9834  -11.3194   -3.4331 C   0  0  0  0  0  0  0  0  0  0  0  0
  -13.1201  -12.4366   -2.6308 C   0  0  0  0  0  0  0  0  0  0  0  0
  -12.1542  -14.3231   -1.2910 C   0  0  0  0  0  0  0  0  0  0  0  0
  -11.2185  -14.3964   -0.3442 F   0  0  0  0  0  0  0  0  0  0  0  0
  -13.3290  -14.3624   -0.6636 F   0  0  0  0  0  0  0  0  0  0  0  0
  -12.0827  -15.4776   -1.9494 F   0  0  0  0  0  0  0  0  0  0  0  0
   -7.2188   -9.8394   -3.8883 C   0  0  0  0  0  0  0  0  0  0  0  0
   -7.7194   -8.9111   -4.8956 N   0  0  0  0  0  0  0  0  0  0  0  0
   -7.6018   -6.8545   -6.8487 N   0  0  0  0  0  0  0  0  0  0  0  0
   -7.5016   -7.5219   -4.5071 C   0  0  0  0  0  0  0  0  0  0  0  0
   -8.1491   -6.6041   -5.5112 C   0  0  0  0  0  0  0  0  0  0  0  0
   -7.7030   -8.2610   -7.2487 C   0  0  0  0  0  0  0  0  0  0  0  0
   -7.0924   -9.1532   -6.1943 C   0  0  0  0  0  0  0  0  0  0  0  0
   -7.5788   -4.6788   -7.3845 O   0  0  0  0  0  0  0  0  0  0  0  0
   -7.2793   -5.8315   -7.6654 C   0  0  0  0  0  0  0  0  0  0  0  0
   -6.6407   -6.0731   -8.9833 C   0  0  0  0  0  0  0  0  0  0  0  0
   -5.7320   -5.3478   -9.6838 C   0  0  0  0  0  0  0  0  0  0  0  0
   -5.3781   -6.1295  -10.8213 C   0  0  0  0  0  0  0  0  0  0  0  0
   -6.0744   -7.2567  -10.7468 C   0  0  0  0  0  0  0  0  0  0  0  0
   -6.8743   -7.2625   -9.6263 O   0  0  0  0  0  0  0  0  0  0  0  0
 27 28  2  0  0  0
 27 26  1  0  0  0
 28 29  1  0  0  0
 26 25  2  0  0  0
 29 25  1  0  0  0
 25 24  1  0  0  0
 24 23  2  0  0  0
 24 18  1  0  0  0
 21 18  1  0  0  0
 21 22  1  0  0  0
 18 20  1  0  0  0
 22 17  1  0  0  0
 20 19  1  0  0  0
  9  8  1  0  0  0
 17 19  1  0  0  0
 17 16  1  0  0  0
  8  6  2  0  0  0
  8 10  1  0  0  0
  2  6  1  0  0  0
  2  1  1  0  0  0
  6  7  1  0  0  0
 10 11  2  0  0  0
 16  1  1  0  0  0
  1  3  2  0  0  0
 13 12  1  0  0  0
  7  5  2  0  0  0
 11  5  1  0  0  0
  5 12  1  0  0  0
 15 12  1  0  0  0
 12 14  1  0  0  0
  2  4  1  0  0  0
M  END
> <minimizedAffinity>
-8.43308

$$$$
5SYM_71Q_A_301


 29 31  0  0  0  0  0  0  0  0999 V2000
  -10.1053  -10.6160   -2.9312 C   0  0  0  0  0  0  0  0  0  0  0  0
  -10.4418  -11.4911   -1.9530 N   0  0  0  0  0  0  0  0  0  0  0  0
  -10.5519  -10.6267   -4.0739 O   0  0  0  0  0  0  0  0  0  0  0  0
  -10.0533  -11.2570   -1.0793 H   0  0  0  0  0  0  0  0  0  0  0  0
  -13.3500  -13.8490   -1.9468 C   0  0  0  0  0  0  0  0  0  0  0  0
  -11.2268  -12.6651   -1.9090 C   0  0  0  0  0  0  0  0  0  0  0  0
  -12.6235  -12.6576   -1.9192 C   0  0  0  0  0  0  0  0  0  0  0  0
  -10.5721  -13.9014   -1.9054 C   0  0  0  0  0  0  0  0  0  0  0  0
   -8.8344  -13.9609   -1.8370 Cl  0  0  0  0  0  0  0  0  0  0  0  0
  -11.2833  -15.0863   -1.9289 C   0  0  0  0  0  0  0  0  0  0  0  0
  -12.6651  -15.0573   -1.9470 C   0  0  0  0  0  0  0  0  0  0  0  0
  -14.8462  -13.8212   -1.9882 C   0  0  0  0  0  0  0  0  0  0  0  0
  -15.3536  -14.4513   -3.0478 F   0  0  0  0  0  0  0  0  0  0  0  0
  -15.4081  -14.3760   -0.9150 F   0  0  0  0  0  0  0  0  0  0  0  0
  -15.3481  -12.5894   -2.0351 F   0  0  0  0  0  0  0  0  0  0  0  0
   -9.0769   -9.5847   -2.5061 C   0  0  0  0  0  0  0  0  0  0  0  0
   -8.3639   -9.0197   -3.6460 N   0  0  0  0  0  0  0  0  0  0  0  0
   -7.7585   -7.1392   -5.6843 N   0  0  0  0  0  0  0  0  0  0  0  0
   -9.2333   -8.8698   -4.8078 C   0  0  0  0  0  0  0  0  0  0  0  0
   -8.4256   -8.4084   -5.9930 C   0  0  0  0  0  0  0  0  0  0  0  0
   -6.9494   -7.2058   -4.4639 C   0  0  0  0  0  0  0  0  0  0  0  0
   -7.7773   -7.7228   -3.3114 C   0  0  0  0  0  0  0  0  0  0  0  0
   -8.1202   -6.3057   -7.7326 O   0  0  0  0  0  0  0  0  0  0  0  0
   -7.7331   -6.1357   -6.5844 C   0  0  0  0  0  0  0  0  0  0  0  0
   -7.1406   -4.8172   -6.2477 C   0  0  0  0  0  0  0  0  0  0  0  0
   -7.3881   -3.9599   -5.2247 C   0  0  0  0  0  0  0  0  0  0  0  0
   -6.4276   -2.9129   -5.3309 C   0  0  0  0  0  0  0  0  0  0  0  0
   -5.6706   -3.1888   -6.3853 C   0  0  0  0  0  0  0  0  0  0  0  0
   -6.0801   -4.3574   -6.9871 O   0  0  0  0  0  0  0  0  0  0  0  0
 27 28  2  0  0  0
 27 26  1  0  0  0
 28 29  1  0  0  0
 26 25  2  0  0  0
 29 25  1  0  0  0
 25 24  1  0  0  0
 24 23  2  0  0  0
 24 18  1  0  0  0
 21 18  1  0  0  0
 21 22  1  0  0  0
 18 20  1  0  0  0
 22 17  1  0  0  0
 20 19  1  0  0  0
  9  8  1  0  0  0
 17 19  1  0  0  0
 17 16  1  0  0  0
  8  6  2  0  0  0
  8 10  1  0  0  0
  2  6  1  0  0  0
  2  1  1  0  0  0
  6  7  1  0  0  0
 10 11  2  0  0  0
 16  1  1  0  0  0
  1  3  2  0  0  0
 13 12  1  0  0  0
  7  5  2  0  0  0
 11  5  1  0  0  0
  5 12  1  0  0  0
 15 12  1  0  0  0
 12 14  1  0  0  0
  2  4  1  0  0  0
M  END
> <minimizedAffinity>
-7.91781

$$$$
5SYM_71Q_A_301


 29 31  0  0  0  0  0  0  0  0999 V2000
   -7.6743   -7.9294   -3.7157 C   0  0  0  0  0  0  0  0  0  0  0  0
   -8.1978   -7.2230   -4.7466 N   0  0  0  0  0  0  0  0  0  0  0  0
   -6.4828   -8.1777   -3.5615 O   0  0  0  0  0  0  0  0  0  0  0  0
   -9.1603   -7.0456   -4.6399 H   0  0  0  0  0  0  0  0  0  0  0  0
   -7.0043   -6.8400   -8.2745 C   0  0  0  0  0  0  0  0  0  0  0  0
   -7.6686   -6.6845   -5.9409 C   0  0  0  0  0  0  0  0  0  0  0  0
   -7.4627   -7.4373   -7.0994 C   0  0  0  0  0  0  0  0  0  0  0  0
   -7.3824   -5.3157   -5.9822 C   0  0  0  0  0  0  0  0  0  0  0  0
   -7.5707   -4.3481   -4.5482 Cl  0  0  0  0  0  0  0  0  0  0  0  0
   -6.9246   -4.7163   -7.1404 C   0  0  0  0  0  0  0  0  0  0  0  0
   -6.7350   -5.4774   -8.2785 C   0  0  0  0  0  0  0  0  0  0  0  0
   -6.8184   -7.6571   -9.5150 C   0  0  0  0  0  0  0  0  0  0  0  0
   -7.7008   -8.6502   -9.6264 F   0  0  0  0  0  0  0  0  0  0  0  0
   -6.9169   -6.9383  -10.6327 F   0  0  0  0  0  0  0  0  0  0  0  0
   -5.6224   -8.2364   -9.5888 F   0  0  0  0  0  0  0  0  0  0  0  0
   -8.7096   -8.4333   -2.7276 C   0  0  0  0  0  0  0  0  0  0  0  0
   -9.1394   -9.7936   -3.0304 N   0  0  0  0  0  0  0  0  0  0  0  0
  -10.2930  -12.3424   -2.5502 N   0  0  0  0  0  0  0  0  0  0  0  0
   -8.4624  -10.7748   -2.1896 C   0  0  0  0  0  0  0  0  0  0  0  0
   -8.8389  -12.1668   -2.6261 C   0  0  0  0  0  0  0  0  0  0  0  0
  -11.0279  -11.3176   -3.2974 C   0  0  0  0  0  0  0  0  0  0  0  0
  -10.5858   -9.9377   -2.8717 C   0  0  0  0  0  0  0  0  0  0  0  0
  -10.1264  -14.4397   -1.7789 O   0  0  0  0  0  0  0  0  0  0  0  0
  -10.8266  -13.4713   -2.0416 C   0  0  0  0  0  0  0  0  0  0  0  0
  -12.2941  -13.6203   -1.8768 C   0  0  0  0  0  0  0  0  0  0  0  0
  -13.3224  -12.8138   -2.2440 C   0  0  0  0  0  0  0  0  0  0  0  0
  -14.5214  -13.5258   -1.9520 C   0  0  0  0  0  0  0  0  0  0  0  0
  -14.1607  -14.6949   -1.4381 C   0  0  0  0  0  0  0  0  0  0  0  0
  -12.7894  -14.7944   -1.3680 O   0  0  0  0  0  0  0  0  0  0  0  0
 27 28  2  0  0  0
 27 26  1  0  0  0
 28 29  1  0  0  0
 26 25  2  0  0  0
 29 25  1  0  0  0
 25 24  1  0  0  0
 24 23  2  0  0  0
 24 18  1  0  0  0
 21 18  1  0  0  0
 21 22  1  0  0  0
 18 20  1  0  0  0
 22 17  1  0  0  0
 20 19  1  0  0  0
  9  8  1  0  0  0
 17 19  1  0  0  0
 17 16  1  0  0  0
  8  6  2  0  0  0
  8 10  1  0  0  0
  2  6  1  0  0  0
  2  1  1  0  0  0
  6  7  1  0  0  0
 10 11  2  0  0  0
 16  1  1  0  0  0
  1  3  2  0  0  0
 13 12  1  0  0  0
  7  5  2  0  0  0
 11  5  1  0  0  0
  5 12  1  0  0  0
 15 12  1  0  0  0
 12 14  1  0  0  0
  2  4  1  0  0  0
M  END
> <minimizedAffinity>
-7.85724

$$$$
