5KZ0_6YL_A_1501


 31 33  0  0  0  0  0  0  0  0999 V2000
   30.0053   45.5030    8.3888 C   0  0  0  0  0  0  0  0  0  0  0  0
   27.7691   45.8220    9.1779 C   0  0  0  0  0  0  0  0  0  0  0  0
   28.8226   46.3035    8.3744 C   0  0  0  0  0  0  0  0  0  0  0  0
   30.1202   44.3057    9.1540 C   0  0  0  0  0  0  0  0  0  0  0  0
   28.9921   43.9178    9.9250 C   0  0  0  0  0  0  0  0  0  0  0  0
   27.8315   44.6722    9.9328 N   0  0  0  0  0  0  0  0  0  0  0  0
   29.0431   42.7413   10.7069 N   0  0  0  0  0  0  0  0  0  0  0  0
   29.8591   42.1906   10.7152 H   0  0  0  0  0  0  0  0  0  0  0  0
   28.2624   42.4725   11.2433 H   0  0  0  0  0  0  0  0  0  0  0  0
   29.8394   48.1425    6.9885 C   0  0  0  0  0  0  0  0  0  0  0  0
   28.7303   47.5476    7.5742 C   0  0  0  0  0  0  0  0  0  0  0  0
   27.6501   48.4384    7.1838 C   0  0  0  0  0  0  0  0  0  0  0  0
   26.1930   48.3937    7.4743 C   0  0  0  0  0  0  0  0  0  0  0  0
   30.2286   50.1759    5.5906 C   0  0  0  0  0  0  0  0  0  0  0  0
   28.0899   49.4579    6.4393 N   0  0  0  0  0  0  0  0  0  0  0  0
   29.4099   49.2498    6.3407 N   0  0  0  0  0  0  0  0  0  0  0  0
   31.2193   43.4656    9.2427 O   0  0  0  0  0  0  0  0  0  0  0  0
   32.6373   41.9810    8.0762 C   0  0  0  0  0  0  0  0  0  0  0  0
   32.3162   43.4667    8.2960 C   0  0  0  0  0  0  0  0  0  0  0  0
   35.6995   45.4934    8.6081 C   0  0  0  0  0  0  0  0  0  0  0  0
   35.7534   45.6734   10.0047 C   0  0  0  0  0  0  0  0  0  0  0  0
   33.6424   44.4496   10.2537 C   0  0  0  0  0  0  0  0  0  0  0  0
   34.6071   44.7824    8.0165 C   0  0  0  0  0  0  0  0  0  0  0  0
   33.5386   44.2380    8.8371 C   0  0  0  0  0  0  0  0  0  0  0  0
   34.7290   45.1506   10.8109 C   0  0  0  0  0  0  0  0  0  0  0  0
   34.7804   45.3195   12.1278 F   0  0  0  0  0  0  0  0  0  0  0  0
   34.6845   44.6700    6.5274 C   0  0  0  0  0  0  0  0  0  0  0  0
   34.0866   45.5083    4.2668 C   0  0  0  0  0  0  0  0  0  0  0  0
   33.2420   46.7927    6.1876 C   0  0  0  0  0  0  0  0  0  0  0  0
   34.0216   45.6382    5.7186 N   0  0  0  0  0  0  0  0  0  0  0  0
   35.3288   43.7122    6.0947 O   0  0  0  0  0  0  0  0  0  0  0  0
 28 30  1  0  0  0
 14 16  1  0  0  0
 30 29  1  0  0  0
 30 27  1  0  0  0
 31 27  2  0  0  0
 16 15  1  0  0  0
 16 10  1  0  0  0
 15 12  2  0  0  0
 27 23  1  0  0  0
 10 11  2  0  0  0
 12 13  1  0  0  0
 12 11  1  0  0  0
 11  3  1  0  0  0
 23 20  2  0  0  0
 23 24  1  0  0  0
 18 19  1  0  0  0
 19 24  1  0  0  0
 19 17  1  0  0  0
  1  3  2  0  0  0
  1  4  1  0  0  0
  3  2  1  0  0  0
 20 21  1  0  0  0
 24 22  2  0  0  0
 17  4  1  0  0  0
  4  5  2  0  0  0
  2  6  2  0  0  0
  5  6  1  0  0  0
  5  7  1  0  0  0
 21 25  2  0  0  0
 22 25  1  0  0  0
 25 26  1  0  0  0
  7  8  1  0  0  0
  7  9  1  0  0  0
M  END
> <minimizedAffinity>
-9.02899

$$$$
5KZ0_6YL_A_1501


 31 33  0  0  0  0  0  0  0  0999 V2000
   35.0747   46.1405    7.5066 C   0  0  0  0  0  0  0  0  0  0  0  0
   36.4039   47.9975    6.7930 C   0  0  0  0  0  0  0  0  0  0  0  0
   36.3708   46.6416    7.1771 C   0  0  0  0  0  0  0  0  0  0  0  0
   33.8979   46.9433    7.4529 C   0  0  0  0  0  0  0  0  0  0  0  0
   34.0536   48.2964    7.0501 C   0  0  0  0  0  0  0  0  0  0  0  0
   35.2962   48.8124    6.7248 N   0  0  0  0  0  0  0  0  0  0  0  0
   32.9254   49.1452    6.9783 N   0  0  0  0  0  0  0  0  0  0  0  0
   32.0327   48.7977    7.2055 H   0  0  0  0  0  0  0  0  0  0  0  0
   33.0324   50.0837    6.7011 H   0  0  0  0  0  0  0  0  0  0  0  0
   37.6174   44.5025    6.7217 C   0  0  0  0  0  0  0  0  0  0  0  0
   37.5801   45.7874    7.2461 C   0  0  0  0  0  0  0  0  0  0  0  0
   38.9191   45.9469    7.7887 C   0  0  0  0  0  0  0  0  0  0  0  0
   39.5577   47.0879    8.4956 C   0  0  0  0  0  0  0  0  0  0  0  0
   39.3373   42.6967    6.5774 C   0  0  0  0  0  0  0  0  0  0  0  0
   39.6670   44.8554    7.5977 N   0  0  0  0  0  0  0  0  0  0  0  0
   38.8545   44.0067    6.9535 N   0  0  0  0  0  0  0  0  0  0  0  0
   32.6016   46.5582    7.7578 O   0  0  0  0  0  0  0  0  0  0  0  0
   31.2154   45.9328    5.9515 C   0  0  0  0  0  0  0  0  0  0  0  0
   31.9486   45.3962    7.1898 C   0  0  0  0  0  0  0  0  0  0  0  0
   30.2433   42.9610    9.8001 C   0  0  0  0  0  0  0  0  0  0  0  0
   29.0452   43.6607   10.0467 C   0  0  0  0  0  0  0  0  0  0  0  0
   29.7350   45.4147    8.4772 C   0  0  0  0  0  0  0  0  0  0  0  0
   31.2063   43.4862    8.8805 C   0  0  0  0  0  0  0  0  0  0  0  0
   30.9712   44.7428    8.1897 C   0  0  0  0  0  0  0  0  0  0  0  0
   28.8031   44.8754    9.3844 C   0  0  0  0  0  0  0  0  0  0  0  0
   27.6730   45.5345    9.6163 F   0  0  0  0  0  0  0  0  0  0  0  0
   32.4263   42.6366    8.7197 C   0  0  0  0  0  0  0  0  0  0  0  0
   34.8066   42.1584    9.2449 C   0  0  0  0  0  0  0  0  0  0  0  0
   33.7995   44.1186   10.3383 C   0  0  0  0  0  0  0  0  0  0  0  0
   33.6160   42.9825    9.4240 N   0  0  0  0  0  0  0  0  0  0  0  0
   32.3126   41.6737    7.9582 O   0  0  0  0  0  0  0  0  0  0  0  0
 28 30  1  0  0  0
 14 16  1  0  0  0
 30 29  1  0  0  0
 30 27  1  0  0  0
 31 27  2  0  0  0
 16 15  1  0  0  0
 16 10  1  0  0  0
 15 12  2  0  0  0
 27 23  1  0  0  0
 10 11  2  0  0  0
 12 13  1  0  0  0
 12 11  1  0  0  0
 11  3  1  0  0  0
 23 20  2  0  0  0
 23 24  1  0  0  0
 18 19  1  0  0  0
 19 24  1  0  0  0
 19 17  1  0  0  0
  1  3  2  0  0  0
  1  4  1  0  0  0
  3  2  1  0  0  0
 20 21  1  0  0  0
 24 22  2  0  0  0
 17  4  1  0  0  0
  4  5  2  0  0  0
  2  6  2  0  0  0
  5  6  1  0  0  0
  5  7  1  0  0  0
 21 25  2  0  0  0
 22 25  1  0  0  0
 25 26  1  0  0  0
  7  8  1  0  0  0
  7  9  1  0  0  0
M  END
> <minimizedAffinity>
-8.15061

$$$$
5KZ0_6YL_A_1501


 31 33  0  0  0  0  0  0  0  0999 V2000
   32.0488   45.7985    6.1764 C   0  0  0  0  0  0  0  0  0  0  0  0
   31.7573   48.0698    5.4830 C   0  0  0  0  0  0  0  0  0  0  0  0
   31.2391   46.9746    6.2035 C   0  0  0  0  0  0  0  0  0  0  0  0
   33.2892   45.7288    5.4772 C   0  0  0  0  0  0  0  0  0  0  0  0
   33.7115   46.8964    4.7874 C   0  0  0  0  0  0  0  0  0  0  0  0
   32.9492   48.0519    4.7938 N   0  0  0  0  0  0  0  0  0  0  0  0
   34.9316   46.8913    4.0734 N   0  0  0  0  0  0  0  0  0  0  0  0
   35.4885   46.0797    4.0563 H   0  0  0  0  0  0  0  0  0  0  0  0
   35.2243   47.6994    3.5933 H   0  0  0  0  0  0  0  0  0  0  0  0
   28.9570   47.9438    6.6389 C   0  0  0  0  0  0  0  0  0  0  0  0
   29.9502   47.0197    6.9338 C   0  0  0  0  0  0  0  0  0  0  0  0
   29.3620   46.2600    8.0245 C   0  0  0  0  0  0  0  0  0  0  0  0
   29.8893   45.1175    8.8156 C   0  0  0  0  0  0  0  0  0  0  0  0
   26.6783   48.4422    7.5327 C   0  0  0  0  0  0  0  0  0  0  0  0
   28.1390   46.7013    8.3358 N   0  0  0  0  0  0  0  0  0  0  0  0
   27.9261   47.7135    7.4841 N   0  0  0  0  0  0  0  0  0  0  0  0
   34.1421   44.6401    5.3826 O   0  0  0  0  0  0  0  0  0  0  0  0
   35.6615   42.9404    5.9974 C   0  0  0  0  0  0  0  0  0  0  0  0
   35.2282   44.3812    6.3060 C   0  0  0  0  0  0  0  0  0  0  0  0
   34.6072   45.7467    9.9668 C   0  0  0  0  0  0  0  0  0  0  0  0
   33.8540   44.6837   10.5040 C   0  0  0  0  0  0  0  0  0  0  0  0
   34.0097   43.4826    8.3713 C   0  0  0  0  0  0  0  0  0  0  0  0
   35.0736   45.6860    8.6149 C   0  0  0  0  0  0  0  0  0  0  0  0
   34.7803   44.5373    7.7747 C   0  0  0  0  0  0  0  0  0  0  0  0
   33.5648   43.5657    9.7045 C   0  0  0  0  0  0  0  0  0  0  0  0
   32.8555   42.5632   10.2115 F   0  0  0  0  0  0  0  0  0  0  0  0
   35.8586   46.8834    8.1837 C   0  0  0  0  0  0  0  0  0  0  0  0
   38.0394   48.0049    7.7873 C   0  0  0  0  0  0  0  0  0  0  0  0
   38.1147   45.6769    8.5793 C   0  0  0  0  0  0  0  0  0  0  0  0
   37.2826   46.8246    8.1909 N   0  0  0  0  0  0  0  0  0  0  0  0
   35.1955   47.8683    7.8518 O   0  0  0  0  0  0  0  0  0  0  0  0
 28 30  1  0  0  0
 14 16  1  0  0  0
 30 29  1  0  0  0
 30 27  1  0  0  0
 31 27  2  0  0  0
 16 15  1  0  0  0
 16 10  1  0  0  0
 15 12  2  0  0  0
 27 23  1  0  0  0
 10 11  2  0  0  0
 12 13  1  0  0  0
 12 11  1  0  0  0
 11  3  1  0  0  0
 23 20  2  0  0  0
 23 24  1  0  0  0
 18 19  1  0  0  0
 19 24  1  0  0  0
 19 17  1  0  0  0
  1  3  2  0  0  0
  1  4  1  0  0  0
  3  2  1  0  0  0
 20 21  1  0  0  0
 24 22  2  0  0  0
 17  4  1  0  0  0
  4  5  2  0  0  0
  2  6  2  0  0  0
  5  6  1  0  0  0
  5  7  1  0  0  0
 21 25  2  0  0  0
 22 25  1  0  0  0
 25 26  1  0  0  0
  7  8  1  0  0  0
  7  9  1  0  0  0
M  END
> <minimizedAffinity>
-8.10647

$$$$
5KZ0_6YL_A_1501


 31 33  0  0  0  0  0  0  0  0999 V2000
   29.6752   46.1137    8.1289 C   0  0  0  0  0  0  0  0  0  0  0  0
   27.4341   46.1230    8.9671 C   0  0  0  0  0  0  0  0  0  0  0  0
   28.3986   46.7535    8.1550 C   0  0  0  0  0  0  0  0  0  0  0  0
   29.9609   44.9263    8.8643 C   0  0  0  0  0  0  0  0  0  0  0  0
   28.9097   44.3796    9.6474 C   0  0  0  0  0  0  0  0  0  0  0  0
   27.6614   44.9762    9.6943 N   0  0  0  0  0  0  0  0  0  0  0  0
   29.1297   43.2041   10.4013 N   0  0  0  0  0  0  0  0  0  0  0  0
   30.0103   42.7643   10.3817 H   0  0  0  0  0  0  0  0  0  0  0  0
   28.4023   42.8253   10.9460 H   0  0  0  0  0  0  0  0  0  0  0  0
   29.1174   48.6611    6.6780 C   0  0  0  0  0  0  0  0  0  0  0  0
   28.1284   47.9909    7.3852 C   0  0  0  0  0  0  0  0  0  0  0  0
   26.9523   48.8078    7.1362 C   0  0  0  0  0  0  0  0  0  0  0  0
   25.5467   48.6640    7.5978 C   0  0  0  0  0  0  0  0  0  0  0  0
   29.1999   50.7201    5.2661 C   0  0  0  0  0  0  0  0  0  0  0  0
   27.2309   49.8569    6.3558 N   0  0  0  0  0  0  0  0  0  0  0  0
   28.5405   49.7387    6.0983 N   0  0  0  0  0  0  0  0  0  0  0  0
   31.1614   44.2349    8.9131 O   0  0  0  0  0  0  0  0  0  0  0  0
   31.3367   42.0571    8.0175 C   0  0  0  0  0  0  0  0  0  0  0  0
   31.7310   43.5234    7.7868 C   0  0  0  0  0  0  0  0  0  0  0  0
   35.3755   45.0024    7.3595 C   0  0  0  0  0  0  0  0  0  0  0  0
   36.1438   43.8556    7.6431 C   0  0  0  0  0  0  0  0  0  0  0  0
   34.0932   42.5574    7.9972 C   0  0  0  0  0  0  0  0  0  0  0  0
   33.9460   44.9360    7.3915 C   0  0  0  0  0  0  0  0  0  0  0  0
   33.2632   43.6952    7.7167 C   0  0  0  0  0  0  0  0  0  0  0  0
   35.4977   42.6486    7.9567 C   0  0  0  0  0  0  0  0  0  0  0  0
   36.2222   41.5672    8.2230 F   0  0  0  0  0  0  0  0  0  0  0  0
   33.2656   46.2281    7.0695 C   0  0  0  0  0  0  0  0  0  0  0  0
   32.3340   47.8193    5.4050 C   0  0  0  0  0  0  0  0  0  0  0  0
   33.2774   45.7222    4.5306 C   0  0  0  0  0  0  0  0  0  0  0  0
   32.9802   46.5473    5.7102 N   0  0  0  0  0  0  0  0  0  0  0  0
   33.0014   46.9497    8.0335 O   0  0  0  0  0  0  0  0  0  0  0  0
 28 30  1  0  0  0
 14 16  1  0  0  0
 30 29  1  0  0  0
 30 27  1  0  0  0
 31 27  2  0  0  0
 16 15  1  0  0  0
 16 10  1  0  0  0
 15 12  2  0  0  0
 27 23  1  0  0  0
 10 11  2  0  0  0
 12 13  1  0  0  0
 12 11  1  0  0  0
 11  3  1  0  0  0
 23 20  2  0  0  0
 23 24  1  0  0  0
 18 19  1  0  0  0
 19 24  1  0  0  0
 19 17  1  0  0  0
  1  3  2  0  0  0
  1  4  1  0  0  0
  3  2  1  0  0  0
 20 21  1  0  0  0
 24 22  2  0  0  0
 17  4  1  0  0  0
  4  5  2  0  0  0
  2  6  2  0  0  0
  5  6  1  0  0  0
  5  7  1  0  0  0
 21 25  2  0  0  0
 22 25  1  0  0  0
 25 26  1  0  0  0
  7  8  1  0  0  0
  7  9  1  0  0  0
M  END
> <minimizedAffinity>
-8.06504

$$$$
5KZ0_6YL_A_1501


 31 33  0  0  0  0  0  0  0  0999 V2000
   33.1019   44.5338    7.6926 C   0  0  0  0  0  0  0  0  0  0  0  0
   34.1403   42.4101    8.0620 C   0  0  0  0  0  0  0  0  0  0  0  0
   34.3126   43.7823    7.7891 C   0  0  0  0  0  0  0  0  0  0  0  0
   31.8126   43.9489    7.8593 C   0  0  0  0  0  0  0  0  0  0  0  0
   31.7626   42.5561    8.1329 C   0  0  0  0  0  0  0  0  0  0  0  0
   32.9178   41.7998    8.2320 N   0  0  0  0  0  0  0  0  0  0  0  0
   30.5143   41.9158    8.3069 N   0  0  0  0  0  0  0  0  0  0  0  0
   29.6809   42.4357    8.2404 H   0  0  0  0  0  0  0  0  0  0  0  0
   30.4784   40.9500    8.4947 H   0  0  0  0  0  0  0  0  0  0  0  0
   35.9169   45.7076    8.0256 C   0  0  0  0  0  0  0  0  0  0  0  0
   35.6411   44.4133    7.6062 C   0  0  0  0  0  0  0  0  0  0  0  0
   36.9058   43.9921    7.0267 C   0  0  0  0  0  0  0  0  0  0  0  0
   37.3102   42.7123    6.3880 C   0  0  0  0  0  0  0  0  0  0  0  0
   37.9165   47.2034    7.9604 C   0  0  0  0  0  0  0  0  0  0  0  0
   37.8325   44.9528    7.1019 N   0  0  0  0  0  0  0  0  0  0  0  0
   37.2054   45.9701    7.7078 N   0  0  0  0  0  0  0  0  0  0  0  0
   30.5832   44.5843    7.7785 O   0  0  0  0  0  0  0  0  0  0  0  0
   29.1891   44.6920    9.6812 C   0  0  0  0  0  0  0  0  0  0  0  0
   30.0942   45.5274    8.7637 C   0  0  0  0  0  0  0  0  0  0  0  0
   29.1319   48.8446    6.8345 C   0  0  0  0  0  0  0  0  0  0  0  0
   27.7266   48.7816    6.9177 C   0  0  0  0  0  0  0  0  0  0  0  0
   27.8850   46.6751    8.1639 C   0  0  0  0  0  0  0  0  0  0  0  0
   29.9337   47.8145    7.4217 C   0  0  0  0  0  0  0  0  0  0  0  0
   29.3199   46.6904    8.1080 C   0  0  0  0  0  0  0  0  0  0  0  0
   27.1192   47.7023    7.5802 C   0  0  0  0  0  0  0  0  0  0  0  0
   25.7942   47.6436    7.6594 F   0  0  0  0  0  0  0  0  0  0  0  0
   31.4062   48.0148    7.2551 C   0  0  0  0  0  0  0  0  0  0  0  0
   33.5011   47.6510    5.9707 C   0  0  0  0  0  0  0  0  0  0  0  0
   31.4384   46.7007    5.0248 C   0  0  0  0  0  0  0  0  0  0  0  0
   32.0608   47.4668    6.1139 N   0  0  0  0  0  0  0  0  0  0  0  0
   31.9654   48.6518    8.1503 O   0  0  0  0  0  0  0  0  0  0  0  0
 28 30  1  0  0  0
 14 16  1  0  0  0
 30 29  1  0  0  0
 30 27  1  0  0  0
 31 27  2  0  0  0
 16 15  1  0  0  0
 16 10  1  0  0  0
 15 12  2  0  0  0
 27 23  1  0  0  0
 10 11  2  0  0  0
 12 13  1  0  0  0
 12 11  1  0  0  0
 11  3  1  0  0  0
 23 20  2  0  0  0
 23 24  1  0  0  0
 18 19  1  0  0  0
 19 24  1  0  0  0
 19 17  1  0  0  0
  1  3  2  0  0  0
  1  4  1  0  0  0
  3  2  1  0  0  0
 20 21  1  0  0  0
 24 22  2  0  0  0
 17  4  1  0  0  0
  4  5  2  0  0  0
  2  6  2  0  0  0
  5  6  1  0  0  0
  5  7  1  0  0  0
 21 25  2  0  0  0
 22 25  1  0  0  0
 25 26  1  0  0  0
  7  8  1  0  0  0
  7  9  1  0  0  0
M  END
> <minimizedAffinity>
-7.92795

$$$$
5KZ0_6YL_A_1501


 31 33  0  0  0  0  0  0  0  0999 V2000
   35.6823   48.1378    7.4600 C   0  0  0  0  0  0  0  0  0  0  0  0
   38.0398   48.5404    7.5312 C   0  0  0  0  0  0  0  0  0  0  0  0
   36.7608   49.0411    7.2138 C   0  0  0  0  0  0  0  0  0  0  0  0
   35.8753   46.8276    7.9876 C   0  0  0  0  0  0  0  0  0  0  0  0
   37.2097   46.4326    8.2712 C   0  0  0  0  0  0  0  0  0  0  0  0
   38.2768   47.2845    8.0432 N   0  0  0  0  0  0  0  0  0  0  0  0
   37.4681   45.1450    8.7945 N   0  0  0  0  0  0  0  0  0  0  0  0
   36.7232   44.5239    8.9639 H   0  0  0  0  0  0  0  0  0  0  0  0
   38.3929   44.8694    8.9897 H   0  0  0  0  0  0  0  0  0  0  0  0
   35.6700   50.6348    5.5992 C   0  0  0  0  0  0  0  0  0  0  0  0
   36.5341   50.3968    6.6593 C   0  0  0  0  0  0  0  0  0  0  0  0
   37.0394   51.7259    6.9604 C   0  0  0  0  0  0  0  0  0  0  0  0
   38.0082   52.1941    7.9859 C   0  0  0  0  0  0  0  0  0  0  0  0
   34.9496   52.6556    4.3195 C   0  0  0  0  0  0  0  0  0  0  0  0
   36.5175   52.6524    6.1502 N   0  0  0  0  0  0  0  0  0  0  0  0
   35.6984   51.9631    5.3444 N   0  0  0  0  0  0  0  0  0  0  0  0
   34.9031   45.8762    8.2548 O   0  0  0  0  0  0  0  0  0  0  0  0
   34.3744   45.2796   10.4774 C   0  0  0  0  0  0  0  0  0  0  0  0
   33.8606   46.0421    9.2472 C   0  0  0  0  0  0  0  0  0  0  0  0
   30.3306   45.6042    7.5152 C   0  0  0  0  0  0  0  0  0  0  0  0
   30.0239   44.2855    7.9062 C   0  0  0  0  0  0  0  0  0  0  0  0
   32.1469   44.1431    9.1262 C   0  0  0  0  0  0  0  0  0  0  0  0
   31.5591   46.2100    7.9309 C   0  0  0  0  0  0  0  0  0  0  0  0
   32.5085   45.4827    8.7561 C   0  0  0  0  0  0  0  0  0  0  0  0
   30.9309   43.5710    8.7060 C   0  0  0  0  0  0  0  0  0  0  0  0
   30.6411   42.3282    9.0754 F   0  0  0  0  0  0  0  0  0  0  0  0
   31.7478   47.6102    7.4412 C   0  0  0  0  0  0  0  0  0  0  0  0
   32.4893   49.1984    5.6810 C   0  0  0  0  0  0  0  0  0  0  0  0
   32.6996   46.8002    5.1740 C   0  0  0  0  0  0  0  0  0  0  0  0
   32.2907   47.8283    6.1417 N   0  0  0  0  0  0  0  0  0  0  0  0
   31.4179   48.5018    8.2260 O   0  0  0  0  0  0  0  0  0  0  0  0
 28 30  1  0  0  0
 14 16  1  0  0  0
 30 29  1  0  0  0
 30 27  1  0  0  0
 31 27  2  0  0  0
 16 15  1  0  0  0
 16 10  1  0  0  0
 15 12  2  0  0  0
 27 23  1  0  0  0
 10 11  2  0  0  0
 12 13  1  0  0  0
 12 11  1  0  0  0
 11  3  1  0  0  0
 23 20  2  0  0  0
 23 24  1  0  0  0
 18 19  1  0  0  0
 19 24  1  0  0  0
 19 17  1  0  0  0
  1  3  2  0  0  0
  1  4  1  0  0  0
  3  2  1  0  0  0
 20 21  1  0  0  0
 24 22  2  0  0  0
 17  4  1  0  0  0
  4  5  2  0  0  0
  2  6  2  0  0  0
  5  6  1  0  0  0
  5  7  1  0  0  0
 21 25  2  0  0  0
 22 25  1  0  0  0
 25 26  1  0  0  0
  7  8  1  0  0  0
  7  9  1  0  0  0
M  END
> <minimizedAffinity>
-7.77674

$$$$
5KZ0_6YL_A_1501


 31 33  0  0  0  0  0  0  0  0999 V2000
   29.1915   46.6793    7.2153 C   0  0  0  0  0  0  0  0  0  0  0  0
   27.5146   46.5471    8.9168 C   0  0  0  0  0  0  0  0  0  0  0  0
   28.0216   47.2487    7.8042 C   0  0  0  0  0  0  0  0  0  0  0  0
   29.8060   45.4911    7.7080 C   0  0  0  0  0  0  0  0  0  0  0  0
   29.2049   44.8691    8.8346 C   0  0  0  0  0  0  0  0  0  0  0  0
   28.0711   45.3964    9.4285 N   0  0  0  0  0  0  0  0  0  0  0  0
   29.7672   43.6888    9.3722 N   0  0  0  0  0  0  0  0  0  0  0  0
   30.5735   43.2976    8.9645 H   0  0  0  0  0  0  0  0  0  0  0  0
   29.3526   43.2579   10.1542 H   0  0  0  0  0  0  0  0  0  0  0  0
   28.1491   49.4967    6.6787 C   0  0  0  0  0  0  0  0  0  0  0  0
   27.4048   48.4886    7.2761 C   0  0  0  0  0  0  0  0  0  0  0  0
   26.0501   49.0106    7.2051 C   0  0  0  0  0  0  0  0  0  0  0  0
   24.7572   48.4396    7.6654 C   0  0  0  0  0  0  0  0  0  0  0  0
   27.6285   51.7169    5.6589 C   0  0  0  0  0  0  0  0  0  0  0  0
   26.0095   50.2121    6.6202 N   0  0  0  0  0  0  0  0  0  0  0  0
   27.2877   50.4747    6.3157 N   0  0  0  0  0  0  0  0  0  0  0  0
   30.9405   44.8642    7.2165 O   0  0  0  0  0  0  0  0  0  0  0  0
   32.6981   45.5594    5.8013 C   0  0  0  0  0  0  0  0  0  0  0  0
   32.2695   45.4387    7.2711 C   0  0  0  0  0  0  0  0  0  0  0  0
   35.2891   44.1310    9.4675 C   0  0  0  0  0  0  0  0  0  0  0  0
   34.9560   42.7648    9.5595 C   0  0  0  0  0  0  0  0  0  0  0  0
   32.9510   43.1521    8.2010 C   0  0  0  0  0  0  0  0  0  0  0  0
   34.4489   45.0279    8.7337 C   0  0  0  0  0  0  0  0  0  0  0  0
   33.2437   44.5524    8.0758 C   0  0  0  0  0  0  0  0  0  0  0  0
   33.7954   42.2902    8.9266 C   0  0  0  0  0  0  0  0  0  0  0  0
   33.4820   41.0020    9.0127 F   0  0  0  0  0  0  0  0  0  0  0  0
   34.9278   46.4444    8.7226 C   0  0  0  0  0  0  0  0  0  0  0  0
   36.2677   48.2606    7.6848 C   0  0  0  0  0  0  0  0  0  0  0  0
   36.2837   46.0790    6.5477 C   0  0  0  0  0  0  0  0  0  0  0  0
   35.7901   46.8819    7.6756 N   0  0  0  0  0  0  0  0  0  0  0  0
   34.5365   47.1501    9.6547 O   0  0  0  0  0  0  0  0  0  0  0  0
 28 30  1  0  0  0
 14 16  1  0  0  0
 30 29  1  0  0  0
 30 27  1  0  0  0
 31 27  2  0  0  0
 16 15  1  0  0  0
 16 10  1  0  0  0
 15 12  2  0  0  0
 27 23  1  0  0  0
 10 11  2  0  0  0
 12 13  1  0  0  0
 12 11  1  0  0  0
 11  3  1  0  0  0
 23 20  2  0  0  0
 23 24  1  0  0  0
 18 19  1  0  0  0
 19 24  1  0  0  0
 19 17  1  0  0  0
  1  3  2  0  0  0
  1  4  1  0  0  0
  3  2  1  0  0  0
 20 21  1  0  0  0
 24 22  2  0  0  0
 17  4  1  0  0  0
  4  5  2  0  0  0
  2  6  2  0  0  0
  5  6  1  0  0  0
  5  7  1  0  0  0
 21 25  2  0  0  0
 22 25  1  0  0  0
 25 26  1  0  0  0
  7  8  1  0  0  0
  7  9  1  0  0  0
M  END
> <minimizedAffinity>
-7.74117

$$$$
5KZ0_6YL_A_1501


 31 33  0  0  0  0  0  0  0  0999 V2000
   29.0737   48.6980    5.9763 C   0  0  0  0  0  0  0  0  0  0  0  0
   27.1708   49.8996    6.7884 C   0  0  0  0  0  0  0  0  0  0  0  0
   28.2801   49.8839    5.9187 C   0  0  0  0  0  0  0  0  0  0  0  0
   28.7736   47.6072    6.8438 C   0  0  0  0  0  0  0  0  0  0  0  0
   27.6286   47.7352    7.6745 C   0  0  0  0  0  0  0  0  0  0  0  0
   26.8393   48.8720    7.6427 N   0  0  0  0  0  0  0  0  0  0  0  0
   27.2781   46.6892    8.5584 N   0  0  0  0  0  0  0  0  0  0  0  0
   27.8262   45.8723    8.5964 H   0  0  0  0  0  0  0  0  0  0  0  0
   26.4858   46.7776    9.1361 H   0  0  0  0  0  0  0  0  0  0  0  0
   29.5584   51.9731    5.3374 C   0  0  0  0  0  0  0  0  0  0  0  0
   28.6167   51.0066    5.0115 C   0  0  0  0  0  0  0  0  0  0  0  0
   28.1680   51.4326    3.6962 C   0  0  0  0  0  0  0  0  0  0  0  0
   27.1635   50.8482    2.7695 C   0  0  0  0  0  0  0  0  0  0  0  0
   30.4701   54.0092    4.2135 C   0  0  0  0  0  0  0  0  0  0  0  0
   28.7912   52.5447    3.2936 N   0  0  0  0  0  0  0  0  0  0  0  0
   29.6202   52.8429    4.3031 N   0  0  0  0  0  0  0  0  0  0  0  0
   29.4793   46.4220    6.9810 O   0  0  0  0  0  0  0  0  0  0  0  0
   31.3132   46.0119    5.5514 C   0  0  0  0  0  0  0  0  0  0  0  0
   30.9257   46.3399    7.0009 C   0  0  0  0  0  0  0  0  0  0  0  0
   33.1323   44.1596    9.4563 C   0  0  0  0  0  0  0  0  0  0  0  0
   32.1969   43.1696    9.8181 C   0  0  0  0  0  0  0  0  0  0  0  0
   30.5108   44.2242    8.3826 C   0  0  0  0  0  0  0  0  0  0  0  0
   32.7621   45.1998    8.5453 C   0  0  0  0  0  0  0  0  0  0  0  0
   31.4243   45.2570    7.9810 C   0  0  0  0  0  0  0  0  0  0  0  0
   30.9007   43.2106    9.2787 C   0  0  0  0  0  0  0  0  0  0  0  0
   30.0193   42.2766    9.6190 F   0  0  0  0  0  0  0  0  0  0  0  0
   33.8560   46.1770    8.2546 C   0  0  0  0  0  0  0  0  0  0  0  0
   35.8306   46.8694    6.9160 C   0  0  0  0  0  0  0  0  0  0  0  0
   34.7342   44.7634    6.2715 C   0  0  0  0  0  0  0  0  0  0  0  0
   34.7547   45.9196    7.1789 N   0  0  0  0  0  0  0  0  0  0  0  0
   33.9075   47.1605    8.9962 O   0  0  0  0  0  0  0  0  0  0  0  0
 28 30  1  0  0  0
 14 16  1  0  0  0
 30 29  1  0  0  0
 30 27  1  0  0  0
 31 27  2  0  0  0
 16 15  1  0  0  0
 16 10  1  0  0  0
 15 12  2  0  0  0
 27 23  1  0  0  0
 10 11  2  0  0  0
 12 13  1  0  0  0
 12 11  1  0  0  0
 11  3  1  0  0  0
 23 20  2  0  0  0
 23 24  1  0  0  0
 18 19  1  0  0  0
 19 24  1  0  0  0
 19 17  1  0  0  0
  1  3  2  0  0  0
  1  4  1  0  0  0
  3  2  1  0  0  0
 20 21  1  0  0  0
 24 22  2  0  0  0
 17  4  1  0  0  0
  4  5  2  0  0  0
  2  6  2  0  0  0
  5  6  1  0  0  0
  5  7  1  0  0  0
 21 25  2  0  0  0
 22 25  1  0  0  0
 25 26  1  0  0  0
  7  8  1  0  0  0
  7  9  1  0  0  0
M  END
> <minimizedAffinity>
-7.72316

$$$$
5KZ0_6YL_A_1501


 31 33  0  0  0  0  0  0  0  0999 V2000
   32.3640   44.4802    7.5727 C   0  0  0  0  0  0  0  0  0  0  0  0
   32.1166   42.4686    8.8444 C   0  0  0  0  0  0  0  0  0  0  0  0
   31.5470   43.6932    8.4403 C   0  0  0  0  0  0  0  0  0  0  0  0
   33.6583   44.0660    7.1418 C   0  0  0  0  0  0  0  0  0  0  0  0
   34.1278   42.8109    7.6125 C   0  0  0  0  0  0  0  0  0  0  0  0
   33.3604   42.0249    8.4549 N   0  0  0  0  0  0  0  0  0  0  0  0
   35.4041   42.3441    7.2230 N   0  0  0  0  0  0  0  0  0  0  0  0
   35.9656   42.8880    6.6245 H   0  0  0  0  0  0  0  0  0  0  0  0
   35.7314   41.4752    7.5502 H   0  0  0  0  0  0  0  0  0  0  0  0
   29.5363   45.1973    8.2625 C   0  0  0  0  0  0  0  0  0  0  0  0
   30.2064   44.1489    8.8783 C   0  0  0  0  0  0  0  0  0  0  0  0
   29.2755   43.7461    9.9193 C   0  0  0  0  0  0  0  0  0  0  0  0
   29.3643   42.6795   10.9507 C   0  0  0  0  0  0  0  0  0  0  0  0
   27.3359   46.3323    8.5942 C   0  0  0  0  0  0  0  0  0  0  0  0
   28.1656   44.4913    9.9104 N   0  0  0  0  0  0  0  0  0  0  0  0
   28.3547   45.3536    8.9024 N   0  0  0  0  0  0  0  0  0  0  0  0
   34.5294   44.7544    6.3118 O   0  0  0  0  0  0  0  0  0  0  0  0
   34.2239   45.7590    4.1968 C   0  0  0  0  0  0  0  0  0  0  0  0
   34.2272   46.0361    5.7074 C   0  0  0  0  0  0  0  0  0  0  0  0
   36.5368   48.5593    7.6953 C   0  0  0  0  0  0  0  0  0  0  0  0
   37.2737   49.1138    6.6297 C   0  0  0  0  0  0  0  0  0  0  0  0
   36.0501   47.7053    5.0377 C   0  0  0  0  0  0  0  0  0  0  0  0
   35.5400   47.5644    7.4390 C   0  0  0  0  0  0  0  0  0  0  0  0
   35.2713   47.1079    6.0859 C   0  0  0  0  0  0  0  0  0  0  0  0
   37.0231   48.6841    5.3162 C   0  0  0  0  0  0  0  0  0  0  0  0
   37.7172   49.2077    4.3116 F   0  0  0  0  0  0  0  0  0  0  0  0
   34.8402   47.0691    8.6641 C   0  0  0  0  0  0  0  0  0  0  0  0
   34.7311   45.5344   10.6143 C   0  0  0  0  0  0  0  0  0  0  0  0
   36.7078   45.3468    9.1618 C   0  0  0  0  0  0  0  0  0  0  0  0
   35.4316   46.0242    9.4318 N   0  0  0  0  0  0  0  0  0  0  0  0
   33.7641   47.6119    8.9233 O   0  0  0  0  0  0  0  0  0  0  0  0
 28 30  1  0  0  0
 14 16  1  0  0  0
 30 29  1  0  0  0
 30 27  1  0  0  0
 31 27  2  0  0  0
 16 15  1  0  0  0
 16 10  1  0  0  0
 15 12  2  0  0  0
 27 23  1  0  0  0
 10 11  2  0  0  0
 12 13  1  0  0  0
 12 11  1  0  0  0
 11  3  1  0  0  0
 23 20  2  0  0  0
 23 24  1  0  0  0
 18 19  1  0  0  0
 19 24  1  0  0  0
 19 17  1  0  0  0
  1  3  2  0  0  0
  1  4  1  0  0  0
  3  2  1  0  0  0
 20 21  1  0  0  0
 24 22  2  0  0  0
 17  4  1  0  0  0
  4  5  2  0  0  0
  2  6  2  0  0  0
  5  6  1  0  0  0
  5  7  1  0  0  0
 21 25  2  0  0  0
 22 25  1  0  0  0
 25 26  1  0  0  0
  7  8  1  0  0  0
  7  9  1  0  0  0
M  END
> <minimizedAffinity>
-7.65737

$$$$
5KZ0_6YL_A_1501


 31 33  0  0  0  0  0  0  0  0999 V2000
   34.1736   48.3474    7.0440 C   0  0  0  0  0  0  0  0  0  0  0  0
   34.8000   50.1966    5.6609 C   0  0  0  0  0  0  0  0  0  0  0  0
   35.2038   49.2368    6.6112 C   0  0  0  0  0  0  0  0  0  0  0  0
   32.8358   48.4170    6.5564 C   0  0  0  0  0  0  0  0  0  0  0  0
   32.5459   49.4251    5.5989 C   0  0  0  0  0  0  0  0  0  0  0  0
   33.5220   50.3030    5.1596 N   0  0  0  0  0  0  0  0  0  0  0  0
   31.2376   49.5477    5.0777 N   0  0  0  0  0  0  0  0  0  0  0  0
   30.5289   48.9333    5.3771 H   0  0  0  0  0  0  0  0  0  0  0  0
   31.0351   50.2474    4.4154 H   0  0  0  0  0  0  0  0  0  0  0  0
   37.1918   47.9357    7.4427 C   0  0  0  0  0  0  0  0  0  0  0  0
   36.5863   49.1471    7.1377 C   0  0  0  0  0  0  0  0  0  0  0  0
   37.6220   50.1112    7.4701 C   0  0  0  0  0  0  0  0  0  0  0  0
   37.6391   51.5952    7.3864 C   0  0  0  0  0  0  0  0  0  0  0  0
   39.4214   47.2430    8.3311 C   0  0  0  0  0  0  0  0  0  0  0  0
   38.7285   49.5159    7.9266 N   0  0  0  0  0  0  0  0  0  0  0  0
   38.4364   48.2085    7.8972 N   0  0  0  0  0  0  0  0  0  0  0  0
   31.7662   47.6112    6.9151 O   0  0  0  0  0  0  0  0  0  0  0  0
   31.2914   45.9493    5.3064 C   0  0  0  0  0  0  0  0  0  0  0  0
   31.7495   46.1713    6.7554 C   0  0  0  0  0  0  0  0  0  0  0  0
   30.1385   43.7154    9.4059 C   0  0  0  0  0  0  0  0  0  0  0  0
   28.9076   44.3642    9.6296 C   0  0  0  0  0  0  0  0  0  0  0  0
   29.5278   46.1147    8.0275 C   0  0  0  0  0  0  0  0  0  0  0  0
   31.0832   44.2651    8.4816 C   0  0  0  0  0  0  0  0  0  0  0  0
   30.7958   45.4946    7.7626 C   0  0  0  0  0  0  0  0  0  0  0  0
   28.6148   45.5521    8.9399 C   0  0  0  0  0  0  0  0  0  0  0  0
   27.4539   46.1631    9.1502 F   0  0  0  0  0  0  0  0  0  0  0  0
   32.3421   43.4695    8.3471 C   0  0  0  0  0  0  0  0  0  0  0  0
   34.7536   43.1460    8.8482 C   0  0  0  0  0  0  0  0  0  0  0  0
   33.6674   45.1183    9.8395 C   0  0  0  0  0  0  0  0  0  0  0  0
   33.5255   43.9188    9.0020 N   0  0  0  0  0  0  0  0  0  0  0  0
   32.2640   42.4558    7.6498 O   0  0  0  0  0  0  0  0  0  0  0  0
 28 30  1  0  0  0
 14 16  1  0  0  0
 30 29  1  0  0  0
 30 27  1  0  0  0
 31 27  2  0  0  0
 16 15  1  0  0  0
 16 10  1  0  0  0
 15 12  2  0  0  0
 27 23  1  0  0  0
 10 11  2  0  0  0
 12 13  1  0  0  0
 12 11  1  0  0  0
 11  3  1  0  0  0
 23 20  2  0  0  0
 23 24  1  0  0  0
 18 19  1  0  0  0
 19 24  1  0  0  0
 19 17  1  0  0  0
  1  3  2  0  0  0
  1  4  1  0  0  0
  3  2  1  0  0  0
 20 21  1  0  0  0
 24 22  2  0  0  0
 17  4  1  0  0  0
  4  5  2  0  0  0
  2  6  2  0  0  0
  5  6  1  0  0  0
  5  7  1  0  0  0
 21 25  2  0  0  0
 22 25  1  0  0  0
 25 26  1  0  0  0
  7  8  1  0  0  0
  7  9  1  0  0  0
M  END
> <minimizedAffinity>
-7.47926

$$$$
