6DIL_TPV_B_201


 44 47  0  0  0  0  0  0  0  0999 V2000
   10.4300   19.4490   63.6343 C   0  0  0  0  0  0  0  0  0  0  0  0
   14.0597   19.7551   64.2559 O   0  0  0  0  0  0  0  0  0  0  0  0
   12.8073   19.2530   64.1927 C   0  0  0  0  0  0  0  0  0  0  0  0
   11.7300   19.9685   63.6347 C   0  0  0  0  0  0  0  0  0  0  0  0
   12.0884   21.2209   63.1225 C   0  0  0  0  0  0  0  0  0  0  0  0
   13.3283   21.8335   63.3239 C   0  0  0  0  0  0  0  0  0  0  0  0
   14.4789   20.8346   63.4320 C   0  0  0  0  0  0  0  0  0  0  0  0
   12.6809   18.1287   64.7482 O   0  0  0  0  0  0  0  0  0  0  0  0
   11.1699   22.0307   62.5536 O   0  0  0  0  0  0  0  0  0  0  0  0
   10.3071   21.7101   62.3783 H   0  0  0  0  0  0  0  0  0  0  0  0
   14.7929   20.4631   61.9713 C   0  0  0  0  0  0  0  0  0  0  0  0
   14.5440   21.5341   60.9441 C   0  0  0  0  0  0  0  0  0  0  0  0
   15.8319   21.9922   60.2453 C   0  0  0  0  0  0  0  0  0  0  0  0
   15.7212   21.4476   64.1055 C   0  0  0  0  0  0  0  0  0  0  0  0
   16.0302   22.9017   63.7772 C   0  0  0  0  0  0  0  0  0  0  0  0
   16.2115   23.6682   64.9295 C   0  0  0  0  0  0  0  0  0  0  0  0
   15.2708   23.6726   65.9551 C   0  0  0  0  0  0  0  0  0  0  0  0
   15.4606   24.4720   67.0755 C   0  0  0  0  0  0  0  0  0  0  0  0
   16.6397   25.1953   67.2496 C   0  0  0  0  0  0  0  0  0  0  0  0
   17.5529   25.2575   66.1974 C   0  0  0  0  0  0  0  0  0  0  0  0
   17.3556   24.4383   65.0962 C   0  0  0  0  0  0  0  0  0  0  0  0
   10.0714   18.5566   62.6252 C   0  0  0  0  0  0  0  0  0  0  0  0
   10.9629   18.1584   61.6424 C   0  0  0  0  0  0  0  0  0  0  0  0
   10.5866   17.2555   60.6296 C   0  0  0  0  0  0  0  0  0  0  0  0
    9.2970   16.7536   60.5413 C   0  0  0  0  0  0  0  0  0  0  0  0
    8.3981   17.0397   61.5954 C   0  0  0  0  0  0  0  0  0  0  0  0
    8.7817   17.9716   62.5462 C   0  0  0  0  0  0  0  0  0  0  0  0
    7.1172   16.6214   61.4810 N   0  0  0  0  0  0  0  0  0  0  0  0
    6.4645   17.0920   60.9137 H   0  0  0  0  0  0  0  0  0  0  0  0
    6.7094   15.2709   62.3507 S   0  0  0  0  0  0  0  0  0  0  0  0
    5.3350   14.7734   61.9889 O   0  0  0  0  0  0  0  0  0  0  0  0
    7.7807   14.1770   62.0491 O   0  0  0  0  0  0  0  0  0  0  0  0
    6.9175   15.8285   64.0021 C   0  0  0  0  0  0  0  0  0  0  0  0
    7.9359   15.3640   64.7533 N   0  0  0  0  0  0  0  0  0  0  0  0
    8.0978   15.8400   66.0651 C   0  0  0  0  0  0  0  0  0  0  0  0
    7.1842   16.7408   66.6210 C   0  0  0  0  0  0  0  0  0  0  0  0
    6.1206   17.2017   65.8271 C   0  0  0  0  0  0  0  0  0  0  0  0
    5.9784   16.6953   64.5344 C   0  0  0  0  0  0  0  0  0  0  0  0
    7.3782   17.3556   67.8508 C   0  0  0  0  0  0  0  0  0  0  0  0
    7.0924   16.6094   68.9032 F   0  0  0  0  0  0  0  0  0  0  0  0
    6.7953   18.5422   67.8729 F   0  0  0  0  0  0  0  0  0  0  0  0
    8.7030   17.5970   67.9636 F   0  0  0  0  0  0  0  0  0  0  0  0
    9.8920   18.9230   64.9536 C   0  0  0  0  0  0  0  0  0  0  0  0
    9.5862   19.9803   66.0021 C   0  0  0  0  0  0  0  0  0  0  0  0
  2  3  1  0  0  0
  2  7  1  0  0  0
  3  4  1  0  0  0
  3  8  2  0  0  0
  4  5  2  0  0  0
  4  1  1  0  0  0
  5  6  1  0  0  0
  5  9  1  0  0  0
  6  7  1  0  0  0
  7 11  1  0  0  0
  7 14  1  0  0  0
 11 12  1  0  0  0
 12 13  1  0  0  0
 14 15  1  0  0  0
 15 16  1  0  0  0
 16 17  2  0  0  0
 16 21  1  0  0  0
 17 18  1  0  0  0
 18 19  2  0  0  0
 19 20  1  0  0  0
 20 21  2  0  0  0
  1 43  1  0  0  0
  1 22  1  0  0  0
 43 44  1  0  0  0
 22 23  2  0  0  0
 22 27  1  0  0  0
 23 24  1  0  0  0
 24 25  2  0  0  0
 25 26  1  0  0  0
 26 28  1  0  0  0
 26 27  2  0  0  0
 28 30  1  0  0  0
 30 31  2  0  0  0
 30 32  2  0  0  0
 30 33  1  0  0  0
 33 34  2  0  0  0
 33 38  1  0  0  0
 34 35  1  0  0  0
 35 36  2  0  0  0
 36 37  1  0  0  0
 36 39  1  0  0  0
 37 38  2  0  0  0
 39 40  1  0  0  0
 39 41  1  0  0  0
 39 42  1  0  0  0
  9 10  1  0  0  0
 28 29  1  0  0  0
M  END
> <minimizedAffinity>
-11.40895

$$$$
6DIL_TPV_B_201


 44 47  0  0  0  0  0  0  0  0999 V2000
   10.7110   19.5782   63.6707 C   0  0  0  0  0  0  0  0  0  0  0  0
   13.4121   22.0221   63.0490 O   0  0  0  0  0  0  0  0  0  0  0  0
   12.1874   21.4594   63.1382 C   0  0  0  0  0  0  0  0  0  0  0  0
   11.9840   20.1603   63.6431 C   0  0  0  0  0  0  0  0  0  0  0  0
   13.1577   19.5316   64.0746 C   0  0  0  0  0  0  0  0  0  0  0  0
   14.4476   20.0159   63.8402 C   0  0  0  0  0  0  0  0  0  0  0  0
   14.5166   21.5414   63.8031 C   0  0  0  0  0  0  0  0  0  0  0  0
   11.2644   22.1696   62.6564 O   0  0  0  0  0  0  0  0  0  0  0  0
   13.1325   18.2818   64.5851 O   0  0  0  0  0  0  0  0  0  0  0  0
   12.3128   17.8703   64.7764 H   0  0  0  0  0  0  0  0  0  0  0  0
   14.5289   21.9535   65.2864 C   0  0  0  0  0  0  0  0  0  0  0  0
   14.5961   23.4305   65.5662 C   0  0  0  0  0  0  0  0  0  0  0  0
   14.6247   23.7457   67.0684 C   0  0  0  0  0  0  0  0  0  0  0  0
   15.7880   22.0500   63.0975 C   0  0  0  0  0  0  0  0  0  0  0  0
   16.2274   21.2947   61.8508 C   0  0  0  0  0  0  0  0  0  0  0  0
   16.8416   22.1363   60.9220 C   0  0  0  0  0  0  0  0  0  0  0  0
   18.1688   21.9562   60.5441 C   0  0  0  0  0  0  0  0  0  0  0  0
   18.7649   22.8302   59.6435 C   0  0  0  0  0  0  0  0  0  0  0  0
   18.0234   23.8308   59.0168 C   0  0  0  0  0  0  0  0  0  0  0  0
   16.7168   24.0673   59.4428 C   0  0  0  0  0  0  0  0  0  0  0  0
   16.1335   23.1732   60.3277 C   0  0  0  0  0  0  0  0  0  0  0  0
   10.3752   18.6670   62.6705 C   0  0  0  0  0  0  0  0  0  0  0  0
   11.2982   18.2236   61.7374 C   0  0  0  0  0  0  0  0  0  0  0  0
   10.9447   17.3023   60.7330 C   0  0  0  0  0  0  0  0  0  0  0  0
    9.6489   16.8261   60.6026 C   0  0  0  0  0  0  0  0  0  0  0  0
    8.7130   17.1595   61.6095 C   0  0  0  0  0  0  0  0  0  0  0  0
    9.0771   18.1080   62.5515 C   0  0  0  0  0  0  0  0  0  0  0  0
    7.4289   16.7660   61.4511 N   0  0  0  0  0  0  0  0  0  0  0  0
    6.7959   17.2686   60.8890 H   0  0  0  0  0  0  0  0  0  0  0  0
    6.9823   15.3890   62.2578 S   0  0  0  0  0  0  0  0  0  0  0  0
    5.6251   14.9059   61.8194 O   0  0  0  0  0  0  0  0  0  0  0  0
    8.0655   14.3033   61.9690 O   0  0  0  0  0  0  0  0  0  0  0  0
    7.1170   15.8926   63.9340 C   0  0  0  0  0  0  0  0  0  0  0  0
    8.1118   15.4165   64.7091 N   0  0  0  0  0  0  0  0  0  0  0  0
    8.2149   15.8495   66.0415 C   0  0  0  0  0  0  0  0  0  0  0  0
    7.2670   16.7185   66.5906 C   0  0  0  0  0  0  0  0  0  0  0  0
    6.2287   17.1918   65.7709 C   0  0  0  0  0  0  0  0  0  0  0  0
    6.1450   16.7280   64.4572 C   0  0  0  0  0  0  0  0  0  0  0  0
    7.4034   17.2935   67.8471 C   0  0  0  0  0  0  0  0  0  0  0  0
    7.2545   16.4631   68.8641 F   0  0  0  0  0  0  0  0  0  0  0  0
    6.6579   18.3815   67.9423 F   0  0  0  0  0  0  0  0  0  0  0  0
    8.6827   17.7170   67.9475 F   0  0  0  0  0  0  0  0  0  0  0  0
   10.2270   19.0297   65.0017 C   0  0  0  0  0  0  0  0  0  0  0  0
    9.7882   20.0726   66.0169 C   0  0  0  0  0  0  0  0  0  0  0  0
  2  3  1  0  0  0
  2  7  1  0  0  0
  3  4  1  0  0  0
  3  8  2  0  0  0
  4  5  2  0  0  0
  4  1  1  0  0  0
  5  6  1  0  0  0
  5  9  1  0  0  0
  6  7  1  0  0  0
  7 11  1  0  0  0
  7 14  1  0  0  0
 11 12  1  0  0  0
 12 13  1  0  0  0
 14 15  1  0  0  0
 15 16  1  0  0  0
 16 17  2  0  0  0
 16 21  1  0  0  0
 17 18  1  0  0  0
 18 19  2  0  0  0
 19 20  1  0  0  0
 20 21  2  0  0  0
  1 43  1  0  0  0
  1 22  1  0  0  0
 43 44  1  0  0  0
 22 23  2  0  0  0
 22 27  1  0  0  0
 23 24  1  0  0  0
 24 25  2  0  0  0
 25 26  1  0  0  0
 26 28  1  0  0  0
 26 27  2  0  0  0
 28 30  1  0  0  0
 30 31  2  0  0  0
 30 32  2  0  0  0
 30 33  1  0  0  0
 33 34  2  0  0  0
 33 38  1  0  0  0
 34 35  1  0  0  0
 35 36  2  0  0  0
 36 37  1  0  0  0
 36 39  1  0  0  0
 37 38  2  0  0  0
 39 40  1  0  0  0
 39 41  1  0  0  0
 39 42  1  0  0  0
  9 10  1  0  0  0
 28 29  1  0  0  0
M  END
> <minimizedAffinity>
-11.35549

$$$$
6DIL_TPV_B_201


 44 47  0  0  0  0  0  0  0  0999 V2000
   11.1694   18.9164   63.7391 C   0  0  0  0  0  0  0  0  0  0  0  0
   13.0713   21.9816   62.9379 O   0  0  0  0  0  0  0  0  0  0  0  0
   12.0528   21.1078   63.0917 C   0  0  0  0  0  0  0  0  0  0  0  0
   12.2306   19.8246   63.6445 C   0  0  0  0  0  0  0  0  0  0  0  0
   13.5441   19.5612   64.0501 C   0  0  0  0  0  0  0  0  0  0  0  0
   14.6428   20.3716   63.7513 C   0  0  0  0  0  0  0  0  0  0  0  0
   14.2865   21.8544   63.6637 C   0  0  0  0  0  0  0  0  0  0  0  0
   10.9562   21.5165   62.6236 O   0  0  0  0  0  0  0  0  0  0  0  0
   13.8797   18.3745   64.6001 O   0  0  0  0  0  0  0  0  0  0  0  0
   13.2113   17.7615   64.8355 H   0  0  0  0  0  0  0  0  0  0  0  0
   14.2264   22.3141   65.1318 C   0  0  0  0  0  0  0  0  0  0  0  0
   15.0282   23.5392   65.4789 C   0  0  0  0  0  0  0  0  0  0  0  0
   14.6186   24.1501   66.8265 C   0  0  0  0  0  0  0  0  0  0  0  0
   15.3473   22.6639   62.8942 C   0  0  0  0  0  0  0  0  0  0  0  0
   15.2960   22.5889   61.3746 C   0  0  0  0  0  0  0  0  0  0  0  0
   16.5633   22.7182   60.8041 C   0  0  0  0  0  0  0  0  0  0  0  0
   17.5515   21.7587   61.0033 C   0  0  0  0  0  0  0  0  0  0  0  0
   18.8151   21.9305   60.4518 C   0  0  0  0  0  0  0  0  0  0  0  0
   19.0872   23.0006   59.6007 C   0  0  0  0  0  0  0  0  0  0  0  0
   18.1308   24.0051   59.4552 C   0  0  0  0  0  0  0  0  0  0  0  0
   16.8700   23.8065   59.9971 C   0  0  0  0  0  0  0  0  0  0  0  0
   10.3405   18.9773   64.8583 C   0  0  0  0  0  0  0  0  0  0  0  0
   10.8231   19.3003   66.1161 C   0  0  0  0  0  0  0  0  0  0  0  0
    9.9737   19.3586   67.2375 C   0  0  0  0  0  0  0  0  0  0  0  0
    8.6234   19.0560   67.1470 C   0  0  0  0  0  0  0  0  0  0  0  0
    8.0737   18.8444   65.8610 C   0  0  0  0  0  0  0  0  0  0  0  0
    8.9437   18.7413   64.7876 C   0  0  0  0  0  0  0  0  0  0  0  0
    6.7770   18.4719   65.7681 N   0  0  0  0  0  0  0  0  0  0  0  0
    6.0485   19.1317   65.7111 H   0  0  0  0  0  0  0  0  0  0  0  0
    6.4849   16.8407   65.7555 S   0  0  0  0  0  0  0  0  0  0  0  0
    7.2284   16.1365   66.8596 O   0  0  0  0  0  0  0  0  0  0  0  0
    4.9464   16.6378   65.9203 O   0  0  0  0  0  0  0  0  0  0  0  0
    6.9423   16.4044   64.1179 C   0  0  0  0  0  0  0  0  0  0  0  0
    6.0397   16.4723   63.1190 N   0  0  0  0  0  0  0  0  0  0  0  0
    6.4322   16.1403   61.8116 C   0  0  0  0  0  0  0  0  0  0  0  0
    7.7263   15.6837   61.5434 C   0  0  0  0  0  0  0  0  0  0  0  0
    8.6483   15.6054   62.6006 C   0  0  0  0  0  0  0  0  0  0  0  0
    8.2211   15.9254   63.8901 C   0  0  0  0  0  0  0  0  0  0  0  0
    8.2096   15.4872   60.2566 C   0  0  0  0  0  0  0  0  0  0  0  0
    7.3166   15.0636   59.3796 F   0  0  0  0  0  0  0  0  0  0  0  0
    9.3107   14.7556   60.2817 F   0  0  0  0  0  0  0  0  0  0  0  0
    8.5860   16.6983   59.7901 F   0  0  0  0  0  0  0  0  0  0  0  0
   10.2998   18.7337   62.5074 C   0  0  0  0  0  0  0  0  0  0  0  0
   10.9517   17.9912   61.3521 C   0  0  0  0  0  0  0  0  0  0  0  0
  2  3  1  0  0  0
  2  7  1  0  0  0
  3  4  1  0  0  0
  3  8  2  0  0  0
  4  5  2  0  0  0
  4  1  1  0  0  0
  5  6  1  0  0  0
  5  9  1  0  0  0
  6  7  1  0  0  0
  7 11  1  0  0  0
  7 14  1  0  0  0
 11 12  1  0  0  0
 12 13  1  0  0  0
 14 15  1  0  0  0
 15 16  1  0  0  0
 16 17  2  0  0  0
 16 21  1  0  0  0
 17 18  1  0  0  0
 18 19  2  0  0  0
 19 20  1  0  0  0
 20 21  2  0  0  0
  1 43  1  0  0  0
  1 22  1  0  0  0
 43 44  1  0  0  0
 22 23  2  0  0  0
 22 27  1  0  0  0
 23 24  1  0  0  0
 24 25  2  0  0  0
 25 26  1  0  0  0
 26 28  1  0  0  0
 26 27  2  0  0  0
 28 30  1  0  0  0
 30 31  2  0  0  0
 30 32  2  0  0  0
 30 33  1  0  0  0
 33 34  2  0  0  0
 33 38  1  0  0  0
 34 35  1  0  0  0
 35 36  2  0  0  0
 36 37  1  0  0  0
 36 39  1  0  0  0
 37 38  2  0  0  0
 39 40  1  0  0  0
 39 41  1  0  0  0
 39 42  1  0  0  0
  9 10  1  0  0  0
 28 29  1  0  0  0
M  END
> <minimizedAffinity>
-9.68428

$$$$
6DIL_TPV_B_201


 44 47  0  0  0  0  0  0  0  0999 V2000
   11.9307   19.1876   63.6448 C   0  0  0  0  0  0  0  0  0  0  0  0
   13.4044   22.5726   63.4874 O   0  0  0  0  0  0  0  0  0  0  0  0
   12.5148   21.5575   63.4347 C   0  0  0  0  0  0  0  0  0  0  0  0
   12.8562   20.2313   63.7639 C   0  0  0  0  0  0  0  0  0  0  0  0
   14.1824   20.0768   64.1839 C   0  0  0  0  0  0  0  0  0  0  0  0
   15.1641   21.0669   64.0871 C   0  0  0  0  0  0  0  0  0  0  0  0
   14.6058   22.4804   64.2410 C   0  0  0  0  0  0  0  0  0  0  0  0
   11.3846   21.8937   62.9896 O   0  0  0  0  0  0  0  0  0  0  0  0
   14.6665   18.8663   64.5352 O   0  0  0  0  0  0  0  0  0  0  0  0
   14.0847   18.1374   64.6260 H   0  0  0  0  0  0  0  0  0  0  0  0
   14.4430   22.6568   65.7617 C   0  0  0  0  0  0  0  0  0  0  0  0
   14.5468   24.0646   66.2832 C   0  0  0  0  0  0  0  0  0  0  0  0
   15.8248   24.2981   67.1010 C   0  0  0  0  0  0  0  0  0  0  0  0
   15.5626   23.5489   63.6793 C   0  0  0  0  0  0  0  0  0  0  0  0
   16.9904   23.1059   63.3918 C   0  0  0  0  0  0  0  0  0  0  0  0
   17.2960   23.1850   62.0321 C   0  0  0  0  0  0  0  0  0  0  0  0
   16.3123   23.0511   61.0569 C   0  0  0  0  0  0  0  0  0  0  0  0
   16.6505   23.0995   59.7103 C   0  0  0  0  0  0  0  0  0  0  0  0
   17.9525   23.3934   59.3076 C   0  0  0  0  0  0  0  0  0  0  0  0
   18.9579   23.4544   60.2720 C   0  0  0  0  0  0  0  0  0  0  0  0
   18.5982   23.4230   61.6108 C   0  0  0  0  0  0  0  0  0  0  0  0
   10.9585   19.0455   64.6337 C   0  0  0  0  0  0  0  0  0  0  0  0
   11.2158   19.3253   65.9658 C   0  0  0  0  0  0  0  0  0  0  0  0
   10.2235   19.1778   66.9538 C   0  0  0  0  0  0  0  0  0  0  0  0
    8.9552   18.7068   66.6498 C   0  0  0  0  0  0  0  0  0  0  0  0
    8.6199   18.5304   65.2870 C   0  0  0  0  0  0  0  0  0  0  0  0
    9.6323   18.6325   64.3467 C   0  0  0  0  0  0  0  0  0  0  0  0
    7.4143   17.9977   64.9840 N   0  0  0  0  0  0  0  0  0  0  0  0
    6.6424   18.5594   64.7436 H   0  0  0  0  0  0  0  0  0  0  0  0
    7.3113   16.3446   65.0409 S   0  0  0  0  0  0  0  0  0  0  0  0
    8.5796   15.6938   64.5557 O   0  0  0  0  0  0  0  0  0  0  0  0
    7.0256   15.9426   66.5215 O   0  0  0  0  0  0  0  0  0  0  0  0
    5.8726   16.0392   64.0827 C   0  0  0  0  0  0  0  0  0  0  0  0
    4.6753   15.8874   64.6831 N   0  0  0  0  0  0  0  0  0  0  0  0
    3.5327   15.6660   63.8963 C   0  0  0  0  0  0  0  0  0  0  0  0
    3.6295   15.5412   62.5070 C   0  0  0  0  0  0  0  0  0  0  0  0
    4.8887   15.6874   61.9011 C   0  0  0  0  0  0  0  0  0  0  0  0
    6.0059   15.8887   62.7129 C   0  0  0  0  0  0  0  0  0  0  0  0
    2.5216   15.4733   61.6728 C   0  0  0  0  0  0  0  0  0  0  0  0
    2.0464   16.6400   61.2739 F   0  0  0  0  0  0  0  0  0  0  0  0
    1.6000   14.6786   62.1898 F   0  0  0  0  0  0  0  0  0  0  0  0
    2.9259   14.8710   60.5327 F   0  0  0  0  0  0  0  0  0  0  0  0
   11.2695   18.9970   62.2908 C   0  0  0  0  0  0  0  0  0  0  0  0
   11.7068   17.7629   61.5184 C   0  0  0  0  0  0  0  0  0  0  0  0
  2  3  1  0  0  0
  2  7  1  0  0  0
  3  4  1  0  0  0
  3  8  2  0  0  0
  4  5  2  0  0  0
  4  1  1  0  0  0
  5  6  1  0  0  0
  5  9  1  0  0  0
  6  7  1  0  0  0
  7 11  1  0  0  0
  7 14  1  0  0  0
 11 12  1  0  0  0
 12 13  1  0  0  0
 14 15  1  0  0  0
 15 16  1  0  0  0
 16 17  2  0  0  0
 16 21  1  0  0  0
 17 18  1  0  0  0
 18 19  2  0  0  0
 19 20  1  0  0  0
 20 21  2  0  0  0
  1 43  1  0  0  0
  1 22  1  0  0  0
 43 44  1  0  0  0
 22 23  2  0  0  0
 22 27  1  0  0  0
 23 24  1  0  0  0
 24 25  2  0  0  0
 25 26  1  0  0  0
 26 28  1  0  0  0
 26 27  2  0  0  0
 28 30  1  0  0  0
 30 31  2  0  0  0
 30 32  2  0  0  0
 30 33  1  0  0  0
 33 34  2  0  0  0
 33 38  1  0  0  0
 34 35  1  0  0  0
 35 36  2  0  0  0
 36 37  1  0  0  0
 36 39  1  0  0  0
 37 38  2  0  0  0
 39 40  1  0  0  0
 39 41  1  0  0  0
 39 42  1  0  0  0
  9 10  1  0  0  0
 28 29  1  0  0  0
M  END
> <minimizedAffinity>
-9.62635

$$$$
6DIL_TPV_B_201


 44 47  0  0  0  0  0  0  0  0999 V2000
   14.4613   21.9467   63.4416 C   0  0  0  0  0  0  0  0  0  0  0  0
   12.8689   18.7663   64.4435 O   0  0  0  0  0  0  0  0  0  0  0  0
   13.7870   19.7415   64.2688 C   0  0  0  0  0  0  0  0  0  0  0  0
   13.4780   20.9753   63.6637 C   0  0  0  0  0  0  0  0  0  0  0  0
   12.1324   21.1052   63.3007 C   0  0  0  0  0  0  0  0  0  0  0  0
   11.2045   20.0602   63.3127 C   0  0  0  0  0  0  0  0  0  0  0  0
   11.4734   19.0335   64.4113 C   0  0  0  0  0  0  0  0  0  0  0  0
   14.9516   19.4134   64.6216 O   0  0  0  0  0  0  0  0  0  0  0  0
   11.6749   22.2293   62.7089 O   0  0  0  0  0  0  0  0  0  0  0  0
   12.2248   22.9858   62.6518 H   0  0  0  0  0  0  0  0  0  0  0  0
   10.8994   19.6844   65.6829 C   0  0  0  0  0  0  0  0  0  0  0  0
   10.7239   18.7797   66.8725 C   0  0  0  0  0  0  0  0  0  0  0  0
    9.3007   18.8284   67.4460 C   0  0  0  0  0  0  0  0  0  0  0  0
   10.7726   17.6895   64.1368 C   0  0  0  0  0  0  0  0  0  0  0  0
    9.2850   17.7460   63.8181 C   0  0  0  0  0  0  0  0  0  0  0  0
    8.9658   16.9906   62.6886 C   0  0  0  0  0  0  0  0  0  0  0  0
    8.1002   15.9033   62.7621 C   0  0  0  0  0  0  0  0  0  0  0  0
    7.8275   15.1481   61.6283 C   0  0  0  0  0  0  0  0  0  0  0  0
    8.3199   15.5248   60.3796 C   0  0  0  0  0  0  0  0  0  0  0  0
    9.2461   16.5648   60.3069 C   0  0  0  0  0  0  0  0  0  0  0  0
    9.4907   17.3183   61.4449 C   0  0  0  0  0  0  0  0  0  0  0  0
   14.9059   22.1560   62.1370 C   0  0  0  0  0  0  0  0  0  0  0  0
   14.5264   21.3342   61.0883 C   0  0  0  0  0  0  0  0  0  0  0  0
   14.9830   21.5583   59.7754 C   0  0  0  0  0  0  0  0  0  0  0  0
   15.8656   22.5847   59.4747 C   0  0  0  0  0  0  0  0  0  0  0  0
   16.1752   23.5158   60.4936 C   0  0  0  0  0  0  0  0  0  0  0  0
   15.7534   23.2369   61.7835 C   0  0  0  0  0  0  0  0  0  0  0  0
   17.0943   24.4732   60.2336 N   0  0  0  0  0  0  0  0  0  0  0  0
   16.9078   25.2216   59.6217 H   0  0  0  0  0  0  0  0  0  0  0  0
   18.5527   24.3140   61.0044 S   0  0  0  0  0  0  0  0  0  0  0  0
   19.1413   22.9434   60.7980 O   0  0  0  0  0  0  0  0  0  0  0  0
   19.5078   25.4078   60.4330 O   0  0  0  0  0  0  0  0  0  0  0  0
   18.1353   24.7328   62.6572 C   0  0  0  0  0  0  0  0  0  0  0  0
   17.9678   26.0230   63.0100 N   0  0  0  0  0  0  0  0  0  0  0  0
   17.6118   26.3353   64.3327 C   0  0  0  0  0  0  0  0  0  0  0  0
   17.4885   25.3330   65.2998 C   0  0  0  0  0  0  0  0  0  0  0  0
   17.6820   23.9954   64.9159 C   0  0  0  0  0  0  0  0  0  0  0  0
   18.0521   23.7211   63.5986 C   0  0  0  0  0  0  0  0  0  0  0  0
   16.9952   25.5677   66.5764 C   0  0  0  0  0  0  0  0  0  0  0  0
   17.2437   26.7711   67.0623 F   0  0  0  0  0  0  0  0  0  0  0  0
   17.3410   24.5880   67.3943 F   0  0  0  0  0  0  0  0  0  0  0  0
   15.6476   25.5145   66.4916 F   0  0  0  0  0  0  0  0  0  0  0  0
   14.2635   23.2991   64.1039 C   0  0  0  0  0  0  0  0  0  0  0  0
   14.1273   23.2711   65.6177 C   0  0  0  0  0  0  0  0  0  0  0  0
  2  3  1  0  0  0
  2  7  1  0  0  0
  3  4  1  0  0  0
  3  8  2  0  0  0
  4  5  2  0  0  0
  4  1  1  0  0  0
  5  6  1  0  0  0
  5  9  1  0  0  0
  6  7  1  0  0  0
  7 11  1  0  0  0
  7 14  1  0  0  0
 11 12  1  0  0  0
 12 13  1  0  0  0
 14 15  1  0  0  0
 15 16  1  0  0  0
 16 17  2  0  0  0
 16 21  1  0  0  0
 17 18  1  0  0  0
 18 19  2  0  0  0
 19 20  1  0  0  0
 20 21  2  0  0  0
  1 43  1  0  0  0
  1 22  1  0  0  0
 43 44  1  0  0  0
 22 23  2  0  0  0
 22 27  1  0  0  0
 23 24  1  0  0  0
 24 25  2  0  0  0
 25 26  1  0  0  0
 26 28  1  0  0  0
 26 27  2  0  0  0
 28 30  1  0  0  0
 30 31  2  0  0  0
 30 32  2  0  0  0
 30 33  1  0  0  0
 33 34  2  0  0  0
 33 38  1  0  0  0
 34 35  1  0  0  0
 35 36  2  0  0  0
 36 37  1  0  0  0
 36 39  1  0  0  0
 37 38  2  0  0  0
 39 40  1  0  0  0
 39 41  1  0  0  0
 39 42  1  0  0  0
  9 10  1  0  0  0
 28 29  1  0  0  0
M  END
> <minimizedAffinity>
-9.57048

$$$$
6DIL_TPV_B_201


 44 47  0  0  0  0  0  0  0  0999 V2000
   10.7549   18.5805   63.5222 C   0  0  0  0  0  0  0  0  0  0  0  0
   12.7999   21.6075   62.9650 O   0  0  0  0  0  0  0  0  0  0  0  0
   11.8302   20.7789   63.4097 C   0  0  0  0  0  0  0  0  0  0  0  0
   11.8029   19.4058   63.0971 C   0  0  0  0  0  0  0  0  0  0  0  0
   12.8879   18.9812   62.3215 C   0  0  0  0  0  0  0  0  0  0  0  0
   13.8070   19.8377   61.7092 C   0  0  0  0  0  0  0  0  0  0  0  0
   14.0523   21.1191   62.5036 C   0  0  0  0  0  0  0  0  0  0  0  0
   10.9191   21.3623   64.0563 O   0  0  0  0  0  0  0  0  0  0  0  0
   13.0086   17.6925   61.9369 O   0  0  0  0  0  0  0  0  0  0  0  0
   12.4361   17.0418   62.2929 H   0  0  0  0  0  0  0  0  0  0  0  0
   15.0389   20.6946   63.6066 C   0  0  0  0  0  0  0  0  0  0  0  0
   15.3647   21.7345   64.6443 C   0  0  0  0  0  0  0  0  0  0  0  0
   14.4695   21.6287   65.8870 C   0  0  0  0  0  0  0  0  0  0  0  0
   14.6685   22.2332   61.6365 C   0  0  0  0  0  0  0  0  0  0  0  0
   15.2758   21.8085   60.3067 C   0  0  0  0  0  0  0  0  0  0  0  0
   16.5770   22.2892   60.1517 C   0  0  0  0  0  0  0  0  0  0  0  0
   17.6625   21.6537   60.7472 C   0  0  0  0  0  0  0  0  0  0  0  0
   18.9427   22.1742   60.6047 C   0  0  0  0  0  0  0  0  0  0  0  0
   19.1839   23.2699   59.7770 C   0  0  0  0  0  0  0  0  0  0  0  0
   18.0975   23.9580   59.2375 C   0  0  0  0  0  0  0  0  0  0  0  0
   16.8301   23.4126   59.3747 C   0  0  0  0  0  0  0  0  0  0  0  0
   10.3460   18.6578   64.8526 C   0  0  0  0  0  0  0  0  0  0  0  0
   11.2506   18.7590   65.8970 C   0  0  0  0  0  0  0  0  0  0  0  0
   10.8228   18.8370   67.2361 C   0  0  0  0  0  0  0  0  0  0  0  0
    9.4804   18.7748   67.5784 C   0  0  0  0  0  0  0  0  0  0  0  0
    8.5260   18.7971   66.5347 C   0  0  0  0  0  0  0  0  0  0  0  0
    8.9794   18.6665   65.2320 C   0  0  0  0  0  0  0  0  0  0  0  0
    7.2192   18.6576   66.8538 N   0  0  0  0  0  0  0  0  0  0  0  0
    6.6018   19.4244   66.8670 H   0  0  0  0  0  0  0  0  0  0  0  0
    6.7171   17.1217   67.2212 S   0  0  0  0  0  0  0  0  0  0  0  0
    7.8261   16.3084   67.8345 O   0  0  0  0  0  0  0  0  0  0  0  0
    5.5193   17.2441   68.2141 O   0  0  0  0  0  0  0  0  0  0  0  0
    6.1141   16.5585   65.6719 C   0  0  0  0  0  0  0  0  0  0  0  0
    4.8053   16.6725   65.3695 N   0  0  0  0  0  0  0  0  0  0  0  0
    4.3471   16.2361   64.1152 C   0  0  0  0  0  0  0  0  0  0  0  0
    5.2169   15.6315   63.2025 C   0  0  0  0  0  0  0  0  0  0  0  0
    6.5746   15.5080   63.5422 C   0  0  0  0  0  0  0  0  0  0  0  0
    6.9934   15.9353   64.8030 C   0  0  0  0  0  0  0  0  0  0  0  0
    4.8523   15.3210   61.8991 C   0  0  0  0  0  0  0  0  0  0  0  0
    3.9048   16.0843   61.3838 F   0  0  0  0  0  0  0  0  0  0  0  0
    4.6076   14.0269   61.7821 F   0  0  0  0  0  0  0  0  0  0  0  0
    5.9320   15.5605   61.1225 F   0  0  0  0  0  0  0  0  0  0  0  0
    9.5182   18.5200   62.6427 C   0  0  0  0  0  0  0  0  0  0  0  0
    9.4321   17.3159   61.7188 C   0  0  0  0  0  0  0  0  0  0  0  0
  2  3  1  0  0  0
  2  7  1  0  0  0
  3  4  1  0  0  0
  3  8  2  0  0  0
  4  5  2  0  0  0
  4  1  1  0  0  0
  5  6  1  0  0  0
  5  9  1  0  0  0
  6  7  1  0  0  0
  7 11  1  0  0  0
  7 14  1  0  0  0
 11 12  1  0  0  0
 12 13  1  0  0  0
 14 15  1  0  0  0
 15 16  1  0  0  0
 16 17  2  0  0  0
 16 21  1  0  0  0
 17 18  1  0  0  0
 18 19  2  0  0  0
 19 20  1  0  0  0
 20 21  2  0  0  0
  1 43  1  0  0  0
  1 22  1  0  0  0
 43 44  1  0  0  0
 22 23  2  0  0  0
 22 27  1  0  0  0
 23 24  1  0  0  0
 24 25  2  0  0  0
 25 26  1  0  0  0
 26 28  1  0  0  0
 26 27  2  0  0  0
 28 30  1  0  0  0
 30 31  2  0  0  0
 30 32  2  0  0  0
 30 33  1  0  0  0
 33 34  2  0  0  0
 33 38  1  0  0  0
 34 35  1  0  0  0
 35 36  2  0  0  0
 36 37  1  0  0  0
 36 39  1  0  0  0
 37 38  2  0  0  0
 39 40  1  0  0  0
 39 41  1  0  0  0
 39 42  1  0  0  0
  9 10  1  0  0  0
 28 29  1  0  0  0
M  END
> <minimizedAffinity>
-9.51917

$$$$
6DIL_TPV_B_201


 44 47  0  0  0  0  0  0  0  0999 V2000
   11.8709   19.1897   63.6214 C   0  0  0  0  0  0  0  0  0  0  0  0
   13.6993   22.2383   62.6125 O   0  0  0  0  0  0  0  0  0  0  0  0
   12.6997   21.3591   62.8412 C   0  0  0  0  0  0  0  0  0  0  0  0
   12.9146   20.1067   63.4488 C   0  0  0  0  0  0  0  0  0  0  0  0
   14.2442   19.8813   63.8237 C   0  0  0  0  0  0  0  0  0  0  0  0
   15.3203   20.6914   63.4507 C   0  0  0  0  0  0  0  0  0  0  0  0
   14.9388   22.1632   63.3037 C   0  0  0  0  0  0  0  0  0  0  0  0
   11.5827   21.7295   62.3899 O   0  0  0  0  0  0  0  0  0  0  0  0
   14.6152   18.7275   64.4188 O   0  0  0  0  0  0  0  0  0  0  0  0
   13.9641   18.1175   64.7050 H   0  0  0  0  0  0  0  0  0  0  0  0
   14.9184   22.6925   64.7493 C   0  0  0  0  0  0  0  0  0  0  0  0
   14.3370   24.0664   64.9467 C   0  0  0  0  0  0  0  0  0  0  0  0
   15.2568   24.9843   65.7641 C   0  0  0  0  0  0  0  0  0  0  0  0
   15.9621   22.9490   62.4622 C   0  0  0  0  0  0  0  0  0  0  0  0
   15.8165   22.8600   60.9494 C   0  0  0  0  0  0  0  0  0  0  0  0
   17.0559   22.8414   60.3076 C   0  0  0  0  0  0  0  0  0  0  0  0
   18.1007   22.0451   60.7671 C   0  0  0  0  0  0  0  0  0  0  0  0
   19.3346   22.0728   60.1292 C   0  0  0  0  0  0  0  0  0  0  0  0
   19.5205   22.8054   58.9577 C   0  0  0  0  0  0  0  0  0  0  0  0
   18.5067   23.6632   58.5321 C   0  0  0  0  0  0  0  0  0  0  0  0
   17.2767   23.6073   59.1699 C   0  0  0  0  0  0  0  0  0  0  0  0
   11.0568   19.3135   64.7462 C   0  0  0  0  0  0  0  0  0  0  0  0
   10.8299   20.5341   65.3609 C   0  0  0  0  0  0  0  0  0  0  0  0
   10.0044   20.6440   66.4963 C   0  0  0  0  0  0  0  0  0  0  0  0
    9.4125   19.5335   67.0787 C   0  0  0  0  0  0  0  0  0  0  0  0
    9.5204   18.2931   66.4074 C   0  0  0  0  0  0  0  0  0  0  0  0
   10.3815   18.2088   65.3252 C   0  0  0  0  0  0  0  0  0  0  0  0
    9.0147   17.1907   67.0057 N   0  0  0  0  0  0  0  0  0  0  0  0
    9.4234   16.8027   67.8129 H   0  0  0  0  0  0  0  0  0  0  0  0
    7.6675   16.5308   66.3017 S   0  0  0  0  0  0  0  0  0  0  0  0
    7.5785   16.8814   64.8399 O   0  0  0  0  0  0  0  0  0  0  0  0
    7.7516   14.9834   66.4857 O   0  0  0  0  0  0  0  0  0  0  0  0
    6.3837   17.1545   67.3236 C   0  0  0  0  0  0  0  0  0  0  0  0
    5.1597   17.3899   66.8101 N   0  0  0  0  0  0  0  0  0  0  0  0
    4.1401   17.8678   67.6502 C   0  0  0  0  0  0  0  0  0  0  0  0
    4.3932   18.1591   68.9941 C   0  0  0  0  0  0  0  0  0  0  0  0
    5.6794   17.9214   69.5069 C   0  0  0  0  0  0  0  0  0  0  0  0
    6.6739   17.4634   68.6415 C   0  0  0  0  0  0  0  0  0  0  0  0
    3.3935   18.4878   69.9000 C   0  0  0  0  0  0  0  0  0  0  0  0
    2.6852   19.5596   69.5908 F   0  0  0  0  0  0  0  0  0  0  0  0
    3.8737   18.5115   71.1318 F   0  0  0  0  0  0  0  0  0  0  0  0
    2.4962   17.4776   69.8770 F   0  0  0  0  0  0  0  0  0  0  0  0
   10.9877   18.9084   62.4183 C   0  0  0  0  0  0  0  0  0  0  0  0
   11.4675   17.7941   61.5023 C   0  0  0  0  0  0  0  0  0  0  0  0
  2  3  1  0  0  0
  2  7  1  0  0  0
  3  4  1  0  0  0
  3  8  2  0  0  0
  4  5  2  0  0  0
  4  1  1  0  0  0
  5  6  1  0  0  0
  5  9  1  0  0  0
  6  7  1  0  0  0
  7 11  1  0  0  0
  7 14  1  0  0  0
 11 12  1  0  0  0
 12 13  1  0  0  0
 14 15  1  0  0  0
 15 16  1  0  0  0
 16 17  2  0  0  0
 16 21  1  0  0  0
 17 18  1  0  0  0
 18 19  2  0  0  0
 19 20  1  0  0  0
 20 21  2  0  0  0
  1 43  1  0  0  0
  1 22  1  0  0  0
 43 44  1  0  0  0
 22 23  2  0  0  0
 22 27  1  0  0  0
 23 24  1  0  0  0
 24 25  2  0  0  0
 25 26  1  0  0  0
 26 28  1  0  0  0
 26 27  2  0  0  0
 28 30  1  0  0  0
 30 31  2  0  0  0
 30 32  2  0  0  0
 30 33  1  0  0  0
 33 34  2  0  0  0
 33 38  1  0  0  0
 34 35  1  0  0  0
 35 36  2  0  0  0
 36 37  1  0  0  0
 36 39  1  0  0  0
 37 38  2  0  0  0
 39 40  1  0  0  0
 39 41  1  0  0  0
 39 42  1  0  0  0
  9 10  1  0  0  0
 28 29  1  0  0  0
M  END
> <minimizedAffinity>
-9.43564

$$$$
6DIL_TPV_B_201


 44 47  0  0  0  0  0  0  0  0999 V2000
    9.4441   17.5880   65.8017 C   0  0  0  0  0  0  0  0  0  0  0  0
    5.9787   16.3313   66.0611 O   0  0  0  0  0  0  0  0  0  0  0  0
    7.3285   16.3821   66.0708 C   0  0  0  0  0  0  0  0  0  0  0  0
    8.0448   17.5736   65.8443 C   0  0  0  0  0  0  0  0  0  0  0  0
    7.2295   18.6945   65.6491 C   0  0  0  0  0  0  0  0  0  0  0  0
    5.8450   18.6444   65.4655 C   0  0  0  0  0  0  0  0  0  0  0  0
    5.1817   17.4965   66.2244 C   0  0  0  0  0  0  0  0  0  0  0  0
    7.8793   15.2583   66.2197 O   0  0  0  0  0  0  0  0  0  0  0  0
    7.7628   19.9135   65.4195 O   0  0  0  0  0  0  0  0  0  0  0  0
    8.6851   20.0473   65.5167 H   0  0  0  0  0  0  0  0  0  0  0  0
    5.0669   18.0172   67.6686 C   0  0  0  0  0  0  0  0  0  0  0  0
    3.7619   17.7527   68.3696 C   0  0  0  0  0  0  0  0  0  0  0  0
    3.0139   19.0437   68.7309 C   0  0  0  0  0  0  0  0  0  0  0  0
    3.7862   17.1588   65.6664 C   0  0  0  0  0  0  0  0  0  0  0  0
    3.3721   17.8672   64.3841 C   0  0  0  0  0  0  0  0  0  0  0  0
    3.2703   16.9816   63.3100 C   0  0  0  0  0  0  0  0  0  0  0  0
    2.0736   16.8093   62.6208 C   0  0  0  0  0  0  0  0  0  0  0  0
    1.9921   15.8953   61.5777 C   0  0  0  0  0  0  0  0  0  0  0  0
    3.1242   15.2180   61.1269 C   0  0  0  0  0  0  0  0  0  0  0  0
    4.3081   15.3259   61.8560 C   0  0  0  0  0  0  0  0  0  0  0  0
    4.3752   16.2569   62.8814 C   0  0  0  0  0  0  0  0  0  0  0  0
   10.0697   17.7366   64.5649 C   0  0  0  0  0  0  0  0  0  0  0  0
    9.5406   17.2005   63.4022 C   0  0  0  0  0  0  0  0  0  0  0  0
   10.1836   17.3594   62.1597 C   0  0  0  0  0  0  0  0  0  0  0  0
   11.3959   18.0227   62.0446 C   0  0  0  0  0  0  0  0  0  0  0  0
   11.9012   18.6880   63.1859 C   0  0  0  0  0  0  0  0  0  0  0  0
   11.2740   18.4678   64.4016 C   0  0  0  0  0  0  0  0  0  0  0  0
   13.1191   19.2705   63.1054 N   0  0  0  0  0  0  0  0  0  0  0  0
   13.9381   18.8070   63.3946 H   0  0  0  0  0  0  0  0  0  0  0  0
   13.1533   20.8096   62.4919 S   0  0  0  0  0  0  0  0  0  0  0  0
   13.9392   20.8770   61.2092 O   0  0  0  0  0  0  0  0  0  0  0  0
   11.6764   21.2512   62.2489 O   0  0  0  0  0  0  0  0  0  0  0  0
   13.8032   21.7226   63.8430 C   0  0  0  0  0  0  0  0  0  0  0  0
   14.6384   22.7580   63.6249 N   0  0  0  0  0  0  0  0  0  0  0  0
   15.1296   23.4896   64.7190 C   0  0  0  0  0  0  0  0  0  0  0  0
   14.8128   23.1220   66.0304 C   0  0  0  0  0  0  0  0  0  0  0  0
   13.9527   22.0305   66.2376 C   0  0  0  0  0  0  0  0  0  0  0  0
   13.4970   21.3143   65.1299 C   0  0  0  0  0  0  0  0  0  0  0  0
   15.1449   23.8942   67.1356 C   0  0  0  0  0  0  0  0  0  0  0  0
   16.3831   24.3554   67.1470 F   0  0  0  0  0  0  0  0  0  0  0  0
   14.8035   23.2751   68.2530 F   0  0  0  0  0  0  0  0  0  0  0  0
   14.3764   25.0044   67.0833 F   0  0  0  0  0  0  0  0  0  0  0  0
   10.1604   18.4685   66.8108 C   0  0  0  0  0  0  0  0  0  0  0  0
    9.3337   18.8859   68.0163 C   0  0  0  0  0  0  0  0  0  0  0  0
  2  3  1  0  0  0
  2  7  1  0  0  0
  3  4  1  0  0  0
  3  8  2  0  0  0
  4  5  2  0  0  0
  4  1  1  0  0  0
  5  6  1  0  0  0
  5  9  1  0  0  0
  6  7  1  0  0  0
  7 11  1  0  0  0
  7 14  1  0  0  0
 11 12  1  0  0  0
 12 13  1  0  0  0
 14 15  1  0  0  0
 15 16  1  0  0  0
 16 17  2  0  0  0
 16 21  1  0  0  0
 17 18  1  0  0  0
 18 19  2  0  0  0
 19 20  1  0  0  0
 20 21  2  0  0  0
  1 43  1  0  0  0
  1 22  1  0  0  0
 43 44  1  0  0  0
 22 23  2  0  0  0
 22 27  1  0  0  0
 23 24  1  0  0  0
 24 25  2  0  0  0
 25 26  1  0  0  0
 26 28  1  0  0  0
 26 27  2  0  0  0
 28 30  1  0  0  0
 30 31  2  0  0  0
 30 32  2  0  0  0
 30 33  1  0  0  0
 33 34  2  0  0  0
 33 38  1  0  0  0
 34 35  1  0  0  0
 35 36  2  0  0  0
 36 37  1  0  0  0
 36 39  1  0  0  0
 37 38  2  0  0  0
 39 40  1  0  0  0
 39 41  1  0  0  0
 39 42  1  0  0  0
  9 10  1  0  0  0
 28 29  1  0  0  0
M  END
> <minimizedAffinity>
-9.35540

$$$$
6DIL_TPV_B_201


 44 47  0  0  0  0  0  0  0  0999 V2000
   13.7014   20.8297   63.7700 C   0  0  0  0  0  0  0  0  0  0  0  0
   10.2402   19.7986   62.9876 O   0  0  0  0  0  0  0  0  0  0  0  0
   11.3677   20.5362   63.0848 C   0  0  0  0  0  0  0  0  0  0  0  0
   12.5636   20.0266   63.6269 C   0  0  0  0  0  0  0  0  0  0  0  0
   12.4813   18.6842   64.0147 C   0  0  0  0  0  0  0  0  0  0  0  0
   11.2932   17.9514   64.0841 C   0  0  0  0  0  0  0  0  0  0  0  0
   10.2646   18.3786   63.0387 C   0  0  0  0  0  0  0  0  0  0  0  0
   11.2247   21.7349   62.7226 O   0  0  0  0  0  0  0  0  0  0  0  0
   13.5431   18.0473   64.5533 O   0  0  0  0  0  0  0  0  0  0  0  0
   14.3850   18.4585   64.5543 H   0  0  0  0  0  0  0  0  0  0  0  0
   10.7299   17.6822   61.7469 C   0  0  0  0  0  0  0  0  0  0  0  0
    9.6446   17.1760   60.8358 C   0  0  0  0  0  0  0  0  0  0  0  0
    9.6070   15.6432   60.7579 C   0  0  0  0  0  0  0  0  0  0  0  0
    8.8388   17.9253   63.4053 C   0  0  0  0  0  0  0  0  0  0  0  0
    8.7189   16.8019   64.4257 C   0  0  0  0  0  0  0  0  0  0  0  0
    8.0000   17.1987   65.5544 C   0  0  0  0  0  0  0  0  0  0  0  0
    8.6383   17.5013   66.7535 C   0  0  0  0  0  0  0  0  0  0  0  0
    7.8948   17.8599   67.8710 C   0  0  0  0  0  0  0  0  0  0  0  0
    6.5139   18.0336   67.7887 C   0  0  0  0  0  0  0  0  0  0  0  0
    5.8573   17.6612   66.6161 C   0  0  0  0  0  0  0  0  0  0  0  0
    6.6174   17.3244   65.5064 C   0  0  0  0  0  0  0  0  0  0  0  0
   14.4488   21.1319   62.6327 C   0  0  0  0  0  0  0  0  0  0  0  0
   13.8670   21.2657   61.3826 C   0  0  0  0  0  0  0  0  0  0  0  0
   14.6346   21.5719   60.2426 C   0  0  0  0  0  0  0  0  0  0  0  0
   16.0126   21.7133   60.3070 C   0  0  0  0  0  0  0  0  0  0  0  0
   16.6233   21.7069   61.5829 C   0  0  0  0  0  0  0  0  0  0  0  0
   15.8494   21.3509   62.6756 C   0  0  0  0  0  0  0  0  0  0  0  0
   17.9727   21.7652   61.6514 N   0  0  0  0  0  0  0  0  0  0  0  0
   18.5370   20.9756   61.4859 H   0  0  0  0  0  0  0  0  0  0  0  0
   18.6215   23.2423   62.0301 S   0  0  0  0  0  0  0  0  0  0  0  0
   17.8869   23.8934   63.1721 O   0  0  0  0  0  0  0  0  0  0  0  0
   20.1190   23.0151   62.4057 O   0  0  0  0  0  0  0  0  0  0  0  0
   18.5440   24.0769   60.4878 C   0  0  0  0  0  0  0  0  0  0  0  0
   17.8842   25.2475   60.3806 N   0  0  0  0  0  0  0  0  0  0  0  0
   17.8532   25.9105   59.1424 C   0  0  0  0  0  0  0  0  0  0  0  0
   18.4444   25.3445   58.0088 C   0  0  0  0  0  0  0  0  0  0  0  0
   19.1145   24.1163   58.1375 C   0  0  0  0  0  0  0  0  0  0  0  0
   19.1111   23.4756   59.3773 C   0  0  0  0  0  0  0  0  0  0  0  0
   18.5740   26.0212   56.8032 C   0  0  0  0  0  0  0  0  0  0  0  0
   19.6806   26.7315   56.6739 F   0  0  0  0  0  0  0  0  0  0  0  0
   17.4748   26.7056   56.5354 F   0  0  0  0  0  0  0  0  0  0  0  0
   18.6654   25.0829   55.8350 F   0  0  0  0  0  0  0  0  0  0  0  0
   13.5594   22.0933   64.6006 C   0  0  0  0  0  0  0  0  0  0  0  0
   13.9969   21.9736   66.0515 C   0  0  0  0  0  0  0  0  0  0  0  0
  2  3  1  0  0  0
  2  7  1  0  0  0
  3  4  1  0  0  0
  3  8  2  0  0  0
  4  5  2  0  0  0
  4  1  1  0  0  0
  5  6  1  0  0  0
  5  9  1  0  0  0
  6  7  1  0  0  0
  7 11  1  0  0  0
  7 14  1  0  0  0
 11 12  1  0  0  0
 12 13  1  0  0  0
 14 15  1  0  0  0
 15 16  1  0  0  0
 16 17  2  0  0  0
 16 21  1  0  0  0
 17 18  1  0  0  0
 18 19  2  0  0  0
 19 20  1  0  0  0
 20 21  2  0  0  0
  1 43  1  0  0  0
  1 22  1  0  0  0
 43 44  1  0  0  0
 22 23  2  0  0  0
 22 27  1  0  0  0
 23 24  1  0  0  0
 24 25  2  0  0  0
 25 26  1  0  0  0
 26 28  1  0  0  0
 26 27  2  0  0  0
 28 30  1  0  0  0
 30 31  2  0  0  0
 30 32  2  0  0  0
 30 33  1  0  0  0
 33 34  2  0  0  0
 33 38  1  0  0  0
 34 35  1  0  0  0
 35 36  2  0  0  0
 36 37  1  0  0  0
 36 39  1  0  0  0
 37 38  2  0  0  0
 39 40  1  0  0  0
 39 41  1  0  0  0
 39 42  1  0  0  0
  9 10  1  0  0  0
 28 29  1  0  0  0
M  END
> <minimizedAffinity>
-9.23694

$$$$
6DIL_TPV_B_201


 44 47  0  0  0  0  0  0  0  0999 V2000
   10.5957   18.5619   63.7017 C   0  0  0  0  0  0  0  0  0  0  0  0
   14.1066   19.4979   64.3747 O   0  0  0  0  0  0  0  0  0  0  0  0
   12.9659   18.7803   64.2816 C   0  0  0  0  0  0  0  0  0  0  0  0
   11.7804   19.3072   63.7332 C   0  0  0  0  0  0  0  0  0  0  0  0
   11.9095   20.6195   63.2637 C   0  0  0  0  0  0  0  0  0  0  0  0
   13.0171   21.4390   63.4981 C   0  0  0  0  0  0  0  0  0  0  0  0
   14.3286   20.6613   63.5891 C   0  0  0  0  0  0  0  0  0  0  0  0
   13.0416   17.6344   64.8009 O   0  0  0  0  0  0  0  0  0  0  0  0
   10.8632   21.2682   62.7091 O   0  0  0  0  0  0  0  0  0  0  0  0
   10.0736   20.8029   62.5141 H   0  0  0  0  0  0  0  0  0  0  0  0
   14.7133   20.3998   62.1215 C   0  0  0  0  0  0  0  0  0  0  0  0
   16.0719   20.8846   61.6932 C   0  0  0  0  0  0  0  0  0  0  0  0
   15.9954   22.0131   60.6551 C   0  0  0  0  0  0  0  0  0  0  0  0
   15.4356   21.4665   64.2955 C   0  0  0  0  0  0  0  0  0  0  0  0
   15.0060   22.7418   65.0073 C   0  0  0  0  0  0  0  0  0  0  0  0
   15.9991   23.7218   64.9637 C   0  0  0  0  0  0  0  0  0  0  0  0
   15.9128   24.8787   65.7324 C   0  0  0  0  0  0  0  0  0  0  0  0
   16.8988   25.8534   65.6430 C   0  0  0  0  0  0  0  0  0  0  0  0
   18.0436   25.6478   64.8744 C   0  0  0  0  0  0  0  0  0  0  0  0
   18.1049   24.5291   64.0439 C   0  0  0  0  0  0  0  0  0  0  0  0
   17.1213   23.5588   64.1614 C   0  0  0  0  0  0  0  0  0  0  0  0
    9.7706   18.5779   64.8252 C   0  0  0  0  0  0  0  0  0  0  0  0
   10.0520   19.3575   65.9352 C   0  0  0  0  0  0  0  0  0  0  0  0
    9.2088   19.3639   67.0628 C   0  0  0  0  0  0  0  0  0  0  0  0
    8.0803   18.5613   67.1350 C   0  0  0  0  0  0  0  0  0  0  0  0
    7.6953   17.8488   65.9753 C   0  0  0  0  0  0  0  0  0  0  0  0
    8.5731   17.8219   64.9036 C   0  0  0  0  0  0  0  0  0  0  0  0
    6.6430   17.0034   66.0584 N   0  0  0  0  0  0  0  0  0  0  0  0
    6.7607   16.0262   66.0792 H   0  0  0  0  0  0  0  0  0  0  0  0
    5.1441   17.7072   66.1232 S   0  0  0  0  0  0  0  0  0  0  0  0
    4.5158   17.5479   67.4823 O   0  0  0  0  0  0  0  0  0  0  0  0
    5.3200   19.2192   65.7790 O   0  0  0  0  0  0  0  0  0  0  0  0
    4.3156   16.9156   64.7934 C   0  0  0  0  0  0  0  0  0  0  0  0
    3.1171   17.3677   64.3734 N   0  0  0  0  0  0  0  0  0  0  0  0
    2.4813   16.7338   63.2930 C   0  0  0  0  0  0  0  0  0  0  0  0
    3.0448   15.6061   62.6881 C   0  0  0  0  0  0  0  0  0  0  0  0
    4.2874   15.1409   63.1500 C   0  0  0  0  0  0  0  0  0  0  0  0
    4.8835   15.7824   64.2366 C   0  0  0  0  0  0  0  0  0  0  0  0
    2.5384   15.0350   61.5281 C   0  0  0  0  0  0  0  0  0  0  0  0
    1.6702   15.7806   60.8676 F   0  0  0  0  0  0  0  0  0  0  0  0
    2.1052   13.8086   61.7661 F   0  0  0  0  0  0  0  0  0  0  0  0
    3.5764   14.8967   60.6739 F   0  0  0  0  0  0  0  0  0  0  0  0
    9.7247   18.6944   62.4646 C   0  0  0  0  0  0  0  0  0  0  0  0
   10.0104   17.6957   61.3547 C   0  0  0  0  0  0  0  0  0  0  0  0
  2  3  1  0  0  0
  2  7  1  0  0  0
  3  4  1  0  0  0
  3  8  2  0  0  0
  4  5  2  0  0  0
  4  1  1  0  0  0
  5  6  1  0  0  0
  5  9  1  0  0  0
  6  7  1  0  0  0
  7 11  1  0  0  0
  7 14  1  0  0  0
 11 12  1  0  0  0
 12 13  1  0  0  0
 14 15  1  0  0  0
 15 16  1  0  0  0
 16 17  2  0  0  0
 16 21  1  0  0  0
 17 18  1  0  0  0
 18 19  2  0  0  0
 19 20  1  0  0  0
 20 21  2  0  0  0
  1 43  1  0  0  0
  1 22  1  0  0  0
 43 44  1  0  0  0
 22 23  2  0  0  0
 22 27  1  0  0  0
 23 24  1  0  0  0
 24 25  2  0  0  0
 25 26  1  0  0  0
 26 28  1  0  0  0
 26 27  2  0  0  0
 28 30  1  0  0  0
 30 31  2  0  0  0
 30 32  2  0  0  0
 30 33  1  0  0  0
 33 34  2  0  0  0
 33 38  1  0  0  0
 34 35  1  0  0  0
 35 36  2  0  0  0
 36 37  1  0  0  0
 36 39  1  0  0  0
 37 38  2  0  0  0
 39 40  1  0  0  0
 39 41  1  0  0  0
 39 42  1  0  0  0
  9 10  1  0  0  0
 28 29  1  0  0  0
M  END
> <minimizedAffinity>
-9.04768

$$$$
