5AA9_5P8_A_2402


 32 35  0  0  0  0  0  0  0  0999 V2000
   34.7641   47.0480    9.0271 C   0  0  0  0  0  0  0  0  0  0  0  0
   35.1572   46.8427   10.3701 C   0  0  0  0  0  0  0  0  0  0  0  0
   30.1882   45.8948    8.5025 C   0  0  0  0  0  0  0  0  0  0  0  0
   33.8138   44.7790   10.4602 C   0  0  0  0  0  0  0  0  0  0  0  0
   28.0505   46.5125    9.3238 C   0  0  0  0  0  0  0  0  0  0  0  0
   28.3014   48.9449    7.1639 C   0  0  0  0  0  0  0  0  0  0  0  0
   29.1572   46.8577    8.5114 C   0  0  0  0  0  0  0  0  0  0  0  0
   29.3142   48.1244    7.7135 C   0  0  0  0  0  0  0  0  0  0  0  0
   33.8844   46.1188    8.3804 C   0  0  0  0  0  0  0  0  0  0  0  0
   33.3846   44.9461    9.0933 C   0  0  0  0  0  0  0  0  0  0  0  0
   30.1655   44.6814    9.2306 C   0  0  0  0  0  0  0  0  0  0  0  0
   34.6843   45.7193   11.0707 C   0  0  0  0  0  0  0  0  0  0  0  0
   30.5434   48.8196    7.3205 C   0  0  0  0  0  0  0  0  0  0  0  0
   29.0097   44.4359   10.0134 C   0  0  0  0  0  0  0  0  0  0  0  0
   33.5304   46.4297    6.9557 C   0  0  0  0  0  0  0  0  0  0  0  0
   32.0073   48.4925    7.5821 C   0  0  0  0  0  0  0  0  0  0  0  0
   32.4232   43.8933    8.4672 C   0  0  0  0  0  0  0  0  0  0  0  0
   33.0713   42.4980    8.3990 C   0  0  0  0  0  0  0  0  0  0  0  0
   28.3703   51.1054    5.8160 C   0  0  0  0  0  0  0  0  0  0  0  0
   32.3941   47.7348    5.1824 C   0  0  0  0  0  0  0  0  0  0  0  0
   27.9653   45.3396   10.0567 N   0  0  0  0  0  0  0  0  0  0  0  0
   30.2893   49.9280    6.6148 N   0  0  0  0  0  0  0  0  0  0  0  0
   28.9603   49.9863    6.5330 N   0  0  0  0  0  0  0  0  0  0  0  0
   32.6601   47.5303    6.6167 N   0  0  0  0  0  0  0  0  0  0  0  0
   28.9110   43.2528   10.7740 N   0  0  0  0  0  0  0  0  0  0  0  0
   34.0468   45.6659    6.1273 O   0  0  0  0  0  0  0  0  0  0  0  0
   31.1830   43.7213    9.2425 O   0  0  0  0  0  0  0  0  0  0  0  0
   35.0629   45.5372   12.3385 F   0  0  0  0  0  0  0  0  0  0  0  0
   29.6433   42.5949   10.7581 H   0  0  0  0  0  0  0  0  0  0  0  0
   28.1099   43.0846   11.3209 H   0  0  0  0  0  0  0  0  0  0  0  0
   26.8721   48.8159    7.1981 C   0  0  0  0  0  0  0  0  0  0  0  0
   25.7185   48.7381    7.2383 N   0  0  0  0  0  0  0  0  0  0  0  0
 20 24  1  0  0  0
 26 15  2  0  0  0
 19 23  1  0  0  0
 24 15  1  0  0  0
 24 16  1  0  0  0
 22 23  1  0  0  0
 22 13  2  0  0  0
 23  6  1  0  0  0
 15  9  1  0  0  0
  6 31  1  0  0  0
  6  8  2  0  0  0
 13 16  1  0  0  0
 13  8  1  0  0  0
 31 32  3  0  0  0
  8  7  1  0  0  0
  9  1  2  0  0  0
  9 10  1  0  0  0
 18 17  1  0  0  0
 17 10  1  0  0  0
 17 27  1  0  0  0
  3  7  2  0  0  0
  3 11  1  0  0  0
  7  5  1  0  0  0
  1  2  1  0  0  0
 10  4  2  0  0  0
 27 11  1  0  0  0
 11 14  2  0  0  0
  5 21  2  0  0  0
 14 21  1  0  0  0
 14 25  1  0  0  0
  2 12  2  0  0  0
  4 12  1  0  0  0
 12 28  1  0  0  0
 25 29  1  0  0  0
 25 30  1  0  0  0
M  END
> <minimizedAffinity>
-10.64218

$$$$
5AA9_5P8_A_2402


 32 35  0  0  0  0  0  0  0  0999 V2000
   36.9491   43.9642    7.4484 C   0  0  0  0  0  0  0  0  0  0  0  0
   37.4357   43.7406    6.1393 C   0  0  0  0  0  0  0  0  0  0  0  0
   33.1021   46.7417    7.2753 C   0  0  0  0  0  0  0  0  0  0  0  0
   36.9487   46.0820    5.5457 C   0  0  0  0  0  0  0  0  0  0  0  0
   30.9164   46.7673    6.3546 C   0  0  0  0  0  0  0  0  0  0  0  0
   30.1819   44.8948    8.9234 C   0  0  0  0  0  0  0  0  0  0  0  0
   31.7904   46.2252    7.3274 C   0  0  0  0  0  0  0  0  0  0  0  0
   31.4435   45.1746    8.3480 C   0  0  0  0  0  0  0  0  0  0  0  0
   36.4508   45.2548    7.8246 C   0  0  0  0  0  0  0  0  0  0  0  0
   36.4416   46.3580    6.8676 C   0  0  0  0  0  0  0  0  0  0  0  0
   33.5518   47.7104    6.3466 C   0  0  0  0  0  0  0  0  0  0  0  0
   37.4330   44.7918    5.2058 C   0  0  0  0  0  0  0  0  0  0  0  0
   32.3170   44.1846    8.9849 C   0  0  0  0  0  0  0  0  0  0  0  0
   32.5945   48.1847    5.4152 C   0  0  0  0  0  0  0  0  0  0  0  0
   35.9589   45.3846    9.2363 C   0  0  0  0  0  0  0  0  0  0  0  0
   33.8067   43.9127    8.8259 C   0  0  0  0  0  0  0  0  0  0  0  0
   35.9136   47.7863    7.1933 C   0  0  0  0  0  0  0  0  0  0  0  0
   37.0264   48.8451    7.0828 C   0  0  0  0  0  0  0  0  0  0  0  0
   29.4060   43.1704   10.6305 C   0  0  0  0  0  0  0  0  0  0  0  0
   34.3627   44.9538   11.0817 C   0  0  0  0  0  0  0  0  0  0  0  0
   31.2933   47.7200    5.4217 N   0  0  0  0  0  0  0  0  0  0  0  0
   31.6494   43.4052    9.8440 N   0  0  0  0  0  0  0  0  0  0  0  0
   30.3901   43.8385    9.7940 N   0  0  0  0  0  0  0  0  0  0  0  0
   34.7341   44.7560    9.6701 N   0  0  0  0  0  0  0  0  0  0  0  0
   32.9635   49.1459    4.4520 N   0  0  0  0  0  0  0  0  0  0  0  0
   36.6913   46.0672    9.9671 O   0  0  0  0  0  0  0  0  0  0  0  0
   34.8507   48.2249    6.2733 O   0  0  0  0  0  0  0  0  0  0  0  0
   37.8950   44.5674    3.9730 F   0  0  0  0  0  0  0  0  0  0  0  0
   33.8853   49.4910    4.4290 H   0  0  0  0  0  0  0  0  0  0  0  0
   32.2995   49.4721    3.8025 H   0  0  0  0  0  0  0  0  0  0  0  0
   28.9021   45.5111    8.7164 C   0  0  0  0  0  0  0  0  0  0  0  0
   27.8666   46.0082    8.5783 N   0  0  0  0  0  0  0  0  0  0  0  0
 20 24  1  0  0  0
 26 15  2  0  0  0
 19 23  1  0  0  0
 24 15  1  0  0  0
 24 16  1  0  0  0
 22 23  1  0  0  0
 22 13  2  0  0  0
 23  6  1  0  0  0
 15  9  1  0  0  0
  6 31  1  0  0  0
  6  8  2  0  0  0
 13 16  1  0  0  0
 13  8  1  0  0  0
 31 32  3  0  0  0
  8  7  1  0  0  0
  9  1  2  0  0  0
  9 10  1  0  0  0
 18 17  1  0  0  0
 17 10  1  0  0  0
 17 27  1  0  0  0
  3  7  2  0  0  0
  3 11  1  0  0  0
  7  5  1  0  0  0
  1  2  1  0  0  0
 10  4  2  0  0  0
 27 11  1  0  0  0
 11 14  2  0  0  0
  5 21  2  0  0  0
 14 21  1  0  0  0
 14 25  1  0  0  0
  2 12  2  0  0  0
  4 12  1  0  0  0
 12 28  1  0  0  0
 25 29  1  0  0  0
 25 30  1  0  0  0
M  END
> <minimizedAffinity>
-8.30949

$$$$
5AA9_5P8_A_2402


 32 35  0  0  0  0  0  0  0  0999 V2000
   36.5515   44.9726    6.9181 C   0  0  0  0  0  0  0  0  0  0  0  0
   36.9305   45.1360    5.5654 C   0  0  0  0  0  0  0  0  0  0  0  0
   32.6778   47.5651    7.8217 C   0  0  0  0  0  0  0  0  0  0  0  0
   36.3743   47.5334    5.6870 C   0  0  0  0  0  0  0  0  0  0  0  0
   30.4233   47.7750    7.1151 C   0  0  0  0  0  0  0  0  0  0  0  0
   29.9209   45.2416    9.1087 C   0  0  0  0  0  0  0  0  0  0  0  0
   31.3796   47.0128    7.8282 C   0  0  0  0  0  0  0  0  0  0  0  0
   31.1280   45.7100    8.5391 C   0  0  0  0  0  0  0  0  0  0  0  0
   36.0741   46.0919    7.6763 C   0  0  0  0  0  0  0  0  0  0  0  0
   35.9756   47.4161    7.0683 C   0  0  0  0  0  0  0  0  0  0  0  0
   33.0402   48.7670    7.1681 C   0  0  0  0  0  0  0  0  0  0  0  0
   36.8409   46.4041    4.9648 C   0  0  0  0  0  0  0  0  0  0  0  0
   32.0603   44.6108    8.8059 C   0  0  0  0  0  0  0  0  0  0  0  0
   32.0049   49.4499    6.4821 C   0  0  0  0  0  0  0  0  0  0  0  0
   35.6992   45.8098    9.1016 C   0  0  0  0  0  0  0  0  0  0  0  0
   33.5342   44.4412    8.4636 C   0  0  0  0  0  0  0  0  0  0  0  0
   35.4630   48.6807    7.8186 C   0  0  0  0  0  0  0  0  0  0  0  0
   36.5530   49.7636    7.9225 C   0  0  0  0  0  0  0  0  0  0  0  0
   29.3046   43.0880   10.3218 C   0  0  0  0  0  0  0  0  0  0  0  0
   34.2649   44.8339   10.8706 C   0  0  0  0  0  0  0  0  0  0  0  0
   30.7130   48.9604    6.4586 N   0  0  0  0  0  0  0  0  0  0  0  0
   31.4732   43.6030    9.4622 N   0  0  0  0  0  0  0  0  0  0  0  0
   30.2101   43.9928    9.6317 N   0  0  0  0  0  0  0  0  0  0  0  0
   34.5203   45.0468    9.4357 N   0  0  0  0  0  0  0  0  0  0  0  0
   32.2842   50.6517    5.7995 N   0  0  0  0  0  0  0  0  0  0  0  0
   36.4831   46.2862    9.9352 O   0  0  0  0  0  0  0  0  0  0  0  0
   34.3238   49.3228    7.1417 O   0  0  0  0  0  0  0  0  0  0  0  0
   37.2016   46.5448    3.6867 F   0  0  0  0  0  0  0  0  0  0  0  0
   33.1977   51.0188    5.8030 H   0  0  0  0  0  0  0  0  0  0  0  0
   31.5658   51.1236    5.3196 H   0  0  0  0  0  0  0  0  0  0  0  0
   28.6227   45.8500    9.1804 C   0  0  0  0  0  0  0  0  0  0  0  0
   27.5647   46.3141    9.2430 N   0  0  0  0  0  0  0  0  0  0  0  0
 20 24  1  0  0  0
 26 15  2  0  0  0
 19 23  1  0  0  0
 24 15  1  0  0  0
 24 16  1  0  0  0
 22 23  1  0  0  0
 22 13  2  0  0  0
 23  6  1  0  0  0
 15  9  1  0  0  0
  6 31  1  0  0  0
  6  8  2  0  0  0
 13 16  1  0  0  0
 13  8  1  0  0  0
 31 32  3  0  0  0
  8  7  1  0  0  0
  9  1  2  0  0  0
  9 10  1  0  0  0
 18 17  1  0  0  0
 17 10  1  0  0  0
 17 27  1  0  0  0
  3  7  2  0  0  0
  3 11  1  0  0  0
  7  5  1  0  0  0
  1  2  1  0  0  0
 10  4  2  0  0  0
 27 11  1  0  0  0
 11 14  2  0  0  0
  5 21  2  0  0  0
 14 21  1  0  0  0
 14 25  1  0  0  0
  2 12  2  0  0  0
  4 12  1  0  0  0
 12 28  1  0  0  0
 25 29  1  0  0  0
 25 30  1  0  0  0
M  END
> <minimizedAffinity>
-8.26737

$$$$
5AA9_5P8_A_2402


 32 35  0  0  0  0  0  0  0  0999 V2000
   35.6608   46.5233    8.8804 C   0  0  0  0  0  0  0  0  0  0  0  0
   35.7776   46.2830   10.2692 C   0  0  0  0  0  0  0  0  0  0  0  0
   31.0752   46.8231    7.6862 C   0  0  0  0  0  0  0  0  0  0  0  0
   33.8520   44.7484   10.1777 C   0  0  0  0  0  0  0  0  0  0  0  0
   29.1499   48.1211    8.1706 C   0  0  0  0  0  0  0  0  0  0  0  0
   30.4554   50.2271    6.0480 C   0  0  0  0  0  0  0  0  0  0  0  0
   30.4109   48.0578    7.5302 C   0  0  0  0  0  0  0  0  0  0  0  0
   31.0698   49.1650    6.7519 C   0  0  0  0  0  0  0  0  0  0  0  0
   34.6315   45.8786    8.1184 C   0  0  0  0  0  0  0  0  0  0  0  0
   33.6924   44.9624    8.7601 C   0  0  0  0  0  0  0  0  0  0  0  0
   30.5687   45.7207    8.4150 C   0  0  0  0  0  0  0  0  0  0  0  0
   34.8811   45.4045   10.9024 C   0  0  0  0  0  0  0  0  0  0  0  0
   32.4979   49.4196    6.5409 C   0  0  0  0  0  0  0  0  0  0  0  0
   29.2975   45.8922    9.0178 C   0  0  0  0  0  0  0  0  0  0  0  0
   34.5961   46.2023    6.6536 C   0  0  0  0  0  0  0  0  0  0  0  0
   33.7318   48.6688    7.0228 C   0  0  0  0  0  0  0  0  0  0  0  0
   32.5445   44.2270    8.0076 C   0  0  0  0  0  0  0  0  0  0  0  0
   32.7211   42.6978    8.0518 C   0  0  0  0  0  0  0  0  0  0  0  0
   31.3910   52.1782    4.7036 C   0  0  0  0  0  0  0  0  0  0  0  0
   34.1895   47.6926    4.7164 C   0  0  0  0  0  0  0  0  0  0  0  0
   28.5971   47.0768    8.8944 N   0  0  0  0  0  0  0  0  0  0  0  0
   32.7082   50.5099    5.7937 N   0  0  0  0  0  0  0  0  0  0  0  0
   31.4909   50.9739    5.5126 N   0  0  0  0  0  0  0  0  0  0  0  0
   34.1747   47.4977    6.1764 N   0  0  0  0  0  0  0  0  0  0  0  0
   28.7248   44.8440    9.7670 N   0  0  0  0  0  0  0  0  0  0  0  0
   34.9547   45.2697    5.9201 O   0  0  0  0  0  0  0  0  0  0  0  0
   31.2184   44.4940    8.5895 O   0  0  0  0  0  0  0  0  0  0  0  0
   35.0021   45.1864   12.2144 F   0  0  0  0  0  0  0  0  0  0  0  0
   29.2062   43.9912    9.8681 H   0  0  0  0  0  0  0  0  0  0  0  0
   27.8437   44.9650   10.1891 H   0  0  0  0  0  0  0  0  0  0  0  0
   29.0686   50.5514    5.8684 C   0  0  0  0  0  0  0  0  0  0  0  0
   27.9481   50.7897    5.7060 N   0  0  0  0  0  0  0  0  0  0  0  0
 20 24  1  0  0  0
 26 15  2  0  0  0
 19 23  1  0  0  0
 24 15  1  0  0  0
 24 16  1  0  0  0
 22 23  1  0  0  0
 22 13  2  0  0  0
 23  6  1  0  0  0
 15  9  1  0  0  0
  6 31  1  0  0  0
  6  8  2  0  0  0
 13 16  1  0  0  0
 13  8  1  0  0  0
 31 32  3  0  0  0
  8  7  1  0  0  0
  9  1  2  0  0  0
  9 10  1  0  0  0
 18 17  1  0  0  0
 17 10  1  0  0  0
 17 27  1  0  0  0
  3  7  2  0  0  0
  3 11  1  0  0  0
  7  5  1  0  0  0
  1  2  1  0  0  0
 10  4  2  0  0  0
 27 11  1  0  0  0
 11 14  2  0  0  0
  5 21  2  0  0  0
 14 21  1  0  0  0
 14 25  1  0  0  0
  2 12  2  0  0  0
  4 12  1  0  0  0
 12 28  1  0  0  0
 25 29  1  0  0  0
 25 30  1  0  0  0
M  END
> <minimizedAffinity>
-8.09519

$$$$
5AA9_5P8_A_2402


 32 35  0  0  0  0  0  0  0  0999 V2000
   35.9988   48.0615    6.8617 C   0  0  0  0  0  0  0  0  0  0  0  0
   37.1551   48.2493    7.6541 C   0  0  0  0  0  0  0  0  0  0  0  0
   33.8199   44.0395    8.1343 C   0  0  0  0  0  0  0  0  0  0  0  0
   37.6446   45.8374    7.5326 C   0  0  0  0  0  0  0  0  0  0  0  0
   32.7997   43.0441   10.0302 C   0  0  0  0  0  0  0  0  0  0  0  0
   30.2315   44.8676    9.1795 C   0  0  0  0  0  0  0  0  0  0  0  0
   32.7128   44.0202    9.0085 C   0  0  0  0  0  0  0  0  0  0  0  0
   31.5903   45.0034    8.8108 C   0  0  0  0  0  0  0  0  0  0  0  0
   35.6466   46.7527    6.3942 C   0  0  0  0  0  0  0  0  0  0  0  0
   36.4753   45.5959    6.7231 C   0  0  0  0  0  0  0  0  0  0  0  0
   34.9430   43.1842    8.2353 C   0  0  0  0  0  0  0  0  0  0  0  0
   37.9632   47.1461    7.9804 C   0  0  0  0  0  0  0  0  0  0  0  0
   31.6293   46.3361    8.2017 C   0  0  0  0  0  0  0  0  0  0  0  0
   34.9282   42.2447    9.2964 C   0  0  0  0  0  0  0  0  0  0  0  0
   34.4017   46.6642    5.5611 C   0  0  0  0  0  0  0  0  0  0  0  0
   32.7790   47.1259    7.5911 C   0  0  0  0  0  0  0  0  0  0  0  0
   36.1612   44.1425    6.2608 C   0  0  0  0  0  0  0  0  0  0  0  0
   37.2671   43.5827    5.3470 C   0  0  0  0  0  0  0  0  0  0  0  0
   28.2158   46.4077    8.9458 C   0  0  0  0  0  0  0  0  0  0  0  0
   31.9491   46.7339    5.2163 C   0  0  0  0  0  0  0  0  0  0  0  0
   33.8685   42.1751   10.1804 N   0  0  0  0  0  0  0  0  0  0  0  0
   30.4276   46.9253    8.2064 N   0  0  0  0  0  0  0  0  0  0  0  0
   29.6149   46.0438    8.7882 N   0  0  0  0  0  0  0  0  0  0  0  0
   33.0912   46.8387    6.1405 N   0  0  0  0  0  0  0  0  0  0  0  0
   36.0123   41.3603    9.4707 N   0  0  0  0  0  0  0  0  0  0  0  0
   34.6105   46.4320    4.3615 O   0  0  0  0  0  0  0  0  0  0  0  0
   36.0538   43.1972    7.3849 O   0  0  0  0  0  0  0  0  0  0  0  0
   39.0522   47.3370    8.7296 F   0  0  0  0  0  0  0  0  0  0  0  0
   36.7779   41.3923    8.8526 H   0  0  0  0  0  0  0  0  0  0  0  0
   36.0036   40.7107   10.2104 H   0  0  0  0  0  0  0  0  0  0  0  0
   29.5411   43.7873    9.8252 C   0  0  0  0  0  0  0  0  0  0  0  0
   28.9594   42.9300   10.3402 N   0  0  0  0  0  0  0  0  0  0  0  0
 20 24  1  0  0  0
 26 15  2  0  0  0
 19 23  1  0  0  0
 24 15  1  0  0  0
 24 16  1  0  0  0
 22 23  1  0  0  0
 22 13  2  0  0  0
 23  6  1  0  0  0
 15  9  1  0  0  0
  6 31  1  0  0  0
  6  8  2  0  0  0
 13 16  1  0  0  0
 13  8  1  0  0  0
 31 32  3  0  0  0
  8  7  1  0  0  0
  9  1  2  0  0  0
  9 10  1  0  0  0
 18 17  1  0  0  0
 17 10  1  0  0  0
 17 27  1  0  0  0
  3  7  2  0  0  0
  3 11  1  0  0  0
  7  5  1  0  0  0
  1  2  1  0  0  0
 10  4  2  0  0  0
 27 11  1  0  0  0
 11 14  2  0  0  0
  5 21  2  0  0  0
 14 21  1  0  0  0
 14 25  1  0  0  0
  2 12  2  0  0  0
  4 12  1  0  0  0
 12 28  1  0  0  0
 25 29  1  0  0  0
 25 30  1  0  0  0
M  END
> <minimizedAffinity>
-7.97217

$$$$
5AA9_5P8_A_2402


 32 35  0  0  0  0  0  0  0  0999 V2000
   36.8830   44.1123    7.3009 C   0  0  0  0  0  0  0  0  0  0  0  0
   37.4623   43.9506    6.0209 C   0  0  0  0  0  0  0  0  0  0  0  0
   33.8843   47.7932    7.2496 C   0  0  0  0  0  0  0  0  0  0  0  0
   37.6408   46.3964    5.7798 C   0  0  0  0  0  0  0  0  0  0  0  0
   31.9059   48.5132    6.1571 C   0  0  0  0  0  0  0  0  0  0  0  0
   30.4169   46.5640    8.3084 C   0  0  0  0  0  0  0  0  0  0  0  0
   32.4905   47.6344    7.1005 C   0  0  0  0  0  0  0  0  0  0  0  0
   31.7711   46.5812    7.9000 C   0  0  0  0  0  0  0  0  0  0  0  0
   36.6712   45.4242    7.8391 C   0  0  0  0  0  0  0  0  0  0  0  0
   37.0530   46.6117    7.0794 C   0  0  0  0  0  0  0  0  0  0  0  0
   34.6709   48.7286    6.5359 C   0  0  0  0  0  0  0  0  0  0  0  0
   37.8347   45.0835    5.2763 C   0  0  0  0  0  0  0  0  0  0  0  0
   32.2885   45.3204    8.4398 C   0  0  0  0  0  0  0  0  0  0  0  0
   33.9844   49.5587    5.6147 C   0  0  0  0  0  0  0  0  0  0  0  0
   36.0509   45.4836    9.2041 C   0  0  0  0  0  0  0  0  0  0  0  0
   33.6745   44.6939    8.3697 C   0  0  0  0  0  0  0  0  0  0  0  0
   36.8527   48.0699    7.5878 C   0  0  0  0  0  0  0  0  0  0  0  0
   38.1950   48.8068    7.7511 C   0  0  0  0  0  0  0  0  0  0  0  0
   29.0334   44.8851    9.6338 C   0  0  0  0  0  0  0  0  0  0  0  0
   34.1770   45.2358   10.8060 C   0  0  0  0  0  0  0  0  0  0  0  0
   32.6192   49.4530    5.4303 N   0  0  0  0  0  0  0  0  0  0  0  0
   31.3474   44.6321    9.0969 N   0  0  0  0  0  0  0  0  0  0  0  0
   30.2488   45.3814    9.0083 N   0  0  0  0  0  0  0  0  0  0  0  0
   34.6649   45.1428    9.4193 N   0  0  0  0  0  0  0  0  0  0  0  0
   34.6960   50.5128    4.8589 N   0  0  0  0  0  0  0  0  0  0  0  0
   36.8290   45.8452   10.0987 O   0  0  0  0  0  0  0  0  0  0  0  0
   36.0545   48.8918    6.6627 O   0  0  0  0  0  0  0  0  0  0  0  0
   38.3805   44.9171    4.0688 F   0  0  0  0  0  0  0  0  0  0  0  0
   35.6694   50.6055    4.9740 H   0  0  0  0  0  0  0  0  0  0  0  0
   34.2196   51.0864    4.2160 H   0  0  0  0  0  0  0  0  0  0  0  0
   29.3632   47.5149    8.0939 C   0  0  0  0  0  0  0  0  0  0  0  0
   28.5191   48.2801    7.8922 N   0  0  0  0  0  0  0  0  0  0  0  0
 20 24  1  0  0  0
 26 15  2  0  0  0
 19 23  1  0  0  0
 24 15  1  0  0  0
 24 16  1  0  0  0
 22 23  1  0  0  0
 22 13  2  0  0  0
 23  6  1  0  0  0
 15  9  1  0  0  0
  6 31  1  0  0  0
  6  8  2  0  0  0
 13 16  1  0  0  0
 13  8  1  0  0  0
 31 32  3  0  0  0
  8  7  1  0  0  0
  9  1  2  0  0  0
  9 10  1  0  0  0
 18 17  1  0  0  0
 17 10  1  0  0  0
 17 27  1  0  0  0
  3  7  2  0  0  0
  3 11  1  0  0  0
  7  5  1  0  0  0
  1  2  1  0  0  0
 10  4  2  0  0  0
 27 11  1  0  0  0
 11 14  2  0  0  0
  5 21  2  0  0  0
 14 21  1  0  0  0
 14 25  1  0  0  0
  2 12  2  0  0  0
  4 12  1  0  0  0
 12 28  1  0  0  0
 25 29  1  0  0  0
 25 30  1  0  0  0
M  END
> <minimizedAffinity>
-7.83893

$$$$
5AA9_5P8_A_2402


 32 35  0  0  0  0  0  0  0  0999 V2000
   36.2238   45.6882    8.8926 C   0  0  0  0  0  0  0  0  0  0  0  0
   36.1055   45.8455   10.2932 C   0  0  0  0  0  0  0  0  0  0  0  0
   32.4701   47.6408    6.7383 C   0  0  0  0  0  0  0  0  0  0  0  0
   33.6887   45.3868   10.1526 C   0  0  0  0  0  0  0  0  0  0  0  0
   31.3933   49.7417    6.5085 C   0  0  0  0  0  0  0  0  0  0  0  0
   33.7131   50.3029    4.2841 C   0  0  0  0  0  0  0  0  0  0  0  0
   32.5064   48.9334    6.1743 C   0  0  0  0  0  0  0  0  0  0  0  0
   33.6772   49.3409    5.3206 C   0  0  0  0  0  0  0  0  0  0  0  0
   35.0703   45.3794    8.0991 C   0  0  0  0  0  0  0  0  0  0  0  0
   33.7590   45.2179    8.7217 C   0  0  0  0  0  0  0  0  0  0  0  0
   31.4378   47.1543    7.5754 C   0  0  0  0  0  0  0  0  0  0  0  0
   34.8503   45.6941   10.9080 C   0  0  0  0  0  0  0  0  0  0  0  0
   35.0591   48.8533    5.3582 C   0  0  0  0  0  0  0  0  0  0  0  0
   30.3713   48.0473    7.8474 C   0  0  0  0  0  0  0  0  0  0  0  0
   35.3056   45.2335    6.6243 C   0  0  0  0  0  0  0  0  0  0  0  0
   35.7302   47.8104    6.2416 C   0  0  0  0  0  0  0  0  0  0  0  0
   32.4574   44.8885    7.9330 C   0  0  0  0  0  0  0  0  0  0  0  0
   31.8615   43.5330    8.3559 C   0  0  0  0  0  0  0  0  0  0  0  0
   35.5782   51.1302    2.7589 C   0  0  0  0  0  0  0  0  0  0  0  0
   35.8223   46.0974    4.3603 C   0  0  0  0  0  0  0  0  0  0  0  0
   30.3494   49.3235    7.3182 N   0  0  0  0  0  0  0  0  0  0  0  0
   35.8292   49.4567    4.4450 N   0  0  0  0  0  0  0  0  0  0  0  0
   35.0177   50.3099    3.8208 N   0  0  0  0  0  0  0  0  0  0  0  0
   35.6065   46.3731    5.7911 N   0  0  0  0  0  0  0  0  0  0  0  0
   29.3064   47.6422    8.6780 N   0  0  0  0  0  0  0  0  0  0  0  0
   35.2166   44.0686    6.2101 O   0  0  0  0  0  0  0  0  0  0  0  0
   31.3913   45.8805    8.1522 O   0  0  0  0  0  0  0  0  0  0  0  0
   34.7523   45.8455   12.2313 F   0  0  0  0  0  0  0  0  0  0  0  0
   29.3014   46.7374    9.0659 H   0  0  0  0  0  0  0  0  0  0  0  0
   28.5679   48.2643    8.8701 H   0  0  0  0  0  0  0  0  0  0  0  0
   32.6785   51.1443    3.7529 C   0  0  0  0  0  0  0  0  0  0  0  0
   31.8622   51.8455    3.3278 N   0  0  0  0  0  0  0  0  0  0  0  0
 20 24  1  0  0  0
 26 15  2  0  0  0
 19 23  1  0  0  0
 24 15  1  0  0  0
 24 16  1  0  0  0
 22 23  1  0  0  0
 22 13  2  0  0  0
 23  6  1  0  0  0
 15  9  1  0  0  0
  6 31  1  0  0  0
  6  8  2  0  0  0
 13 16  1  0  0  0
 13  8  1  0  0  0
 31 32  3  0  0  0
  8  7  1  0  0  0
  9  1  2  0  0  0
  9 10  1  0  0  0
 18 17  1  0  0  0
 17 10  1  0  0  0
 17 27  1  0  0  0
  3  7  2  0  0  0
  3 11  1  0  0  0
  7  5  1  0  0  0
  1  2  1  0  0  0
 10  4  2  0  0  0
 27 11  1  0  0  0
 11 14  2  0  0  0
  5 21  2  0  0  0
 14 21  1  0  0  0
 14 25  1  0  0  0
  2 12  2  0  0  0
  4 12  1  0  0  0
 12 28  1  0  0  0
 25 29  1  0  0  0
 25 30  1  0  0  0
M  END
> <minimizedAffinity>
-7.81779

$$$$
