4ZEC_C84_A_601


 56 59  0  0  0  0  0  0  0  0999 V2000
  -13.0369  -28.4011   24.6752 N   0  0  0  0  0  0  0  0  0  0  0  0
  -12.5498  -28.9677   23.5264 C   0  0  0  0  0  0  0  0  0  0  0  0
  -13.2070  -28.4086   22.4706 N   0  0  0  0  0  0  0  0  0  0  0  0
  -14.1062  -27.4407   22.9729 C   0  0  0  0  0  0  0  0  0  0  0  0
  -14.0020  -27.4203   24.3806 C   0  0  0  0  0  0  0  0  0  0  0  0
  -14.7874  -26.5165   25.1119 N   0  0  0  0  0  0  0  0  0  0  0  0
  -15.6412  -25.6550   24.4655 C   0  0  0  0  0  0  0  0  0  0  0  0
  -15.7691  -25.6639   23.0906 N   0  0  0  0  0  0  0  0  0  0  0  0
  -15.0529  -26.5375   22.3217 C   0  0  0  0  0  0  0  0  0  0  0  0
  -10.5603  -28.9086   26.9314 C   0  0  0  0  0  0  0  0  0  0  0  0
  -11.5126  -27.9033   26.4406 O   0  0  0  0  0  0  0  0  0  0  0  0
  -11.2399  -30.2112   26.8251 C   0  0  0  0  0  0  0  0  0  0  0  0
  -12.6689  -29.8948   26.7602 C   0  0  0  0  0  0  0  0  0  0  0  0
  -13.3373  -30.8494   26.0714 O   0  0  0  0  0  0  0  0  0  0  0  0
  -12.7317  -28.5320   26.1214 C   0  0  0  0  0  0  0  0  0  0  0  0
  -12.9621  -30.9276   25.1803 H   0  0  0  0  0  0  0  0  0  0  0  0
   -9.4866  -28.9019   26.1537 O   0  0  0  0  0  0  0  0  0  0  0  0
   -8.7917  -27.6130   25.5827 P   0  0  0  0  0  0  0  0  0  0  0  0
   -8.8703  -26.4306   26.6152 O   0  0  0  0  0  0  0  0  0  0  0  0
   -7.3139  -27.9040   25.1481 O   0  0  0  0  0  0  0  0  0  0  0  0
   -8.4022  -26.6791   27.4276 H   0  0  0  0  0  0  0  0  0  0  0  0
   -9.5046  -25.7437   23.7154 C   0  0  0  0  0  0  0  0  0  0  0  0
   -8.8071  -24.9664   24.3347 O   0  0  0  0  0  0  0  0  0  0  0  0
   -9.6150  -27.1168   24.2142 N   0  0  0  0  0  0  0  0  0  0  0  0
  -10.1852  -27.7601   23.7343 H   0  0  0  0  0  0  0  0  0  0  0  0
  -10.2746  -25.3367   22.4753 C   0  0  0  0  0  0  0  0  0  0  0  0
  -10.7458  -26.4559   21.8326 O   0  0  0  0  0  0  0  0  0  0  0  0
   -9.9977  -26.9856   21.5154 H   0  0  0  0  0  0  0  0  0  0  0  0
   -9.5512  -24.3821   21.5103 C   0  0  0  0  0  0  0  0  0  0  0  0
   -9.0889  -23.2665   22.2179 O   0  0  0  0  0  0  0  0  0  0  0  0
   -8.4345  -23.5492   22.8758 H   0  0  0  0  0  0  0  0  0  0  0  0
   -8.9035  -25.2201   19.1371 C   0  0  0  0  0  0  0  0  0  0  0  0
   -8.4984  -25.0572   20.5634 C   0  0  0  0  0  0  0  0  0  0  0  0
   -7.0419  -24.7910   20.7887 C   0  0  0  0  0  0  0  0  0  0  0  0
  -15.1311  -26.5238   20.8611 N   0  0  0  0  0  0  0  0  0  0  0  0
  -14.2811  -26.5374   20.3646 H   0  0  0  0  0  0  0  0  0  0  0  0
  -16.5282  -26.4873   19.9709 P   0  0  0  0  0  0  0  0  0  0  0  0
  -17.3468  -27.7297   20.3053 O   0  0  0  0  0  0  0  0  0  0  0  0
  -17.3585  -25.2916   20.4145 O   0  0  0  0  0  0  0  0  0  0  0  0
  -18.1801  -25.2597   19.8998 H   0  0  0  0  0  0  0  0  0  0  0  0
  -16.1454  -26.4277   18.4268 O   0  0  0  0  0  0  0  0  0  0  0  0
  -15.7421  -27.5904   17.7430 C   0  0  0  0  0  0  0  0  0  0  0  0
  -14.2658  -27.6611   17.4710 C   0  0  0  0  0  0  0  0  0  0  0  0
  -13.5249  -28.0446   18.6770 O   0  0  0  0  0  0  0  0  0  0  0  0
  -13.9376  -28.5960   16.3932 C   0  0  0  0  0  0  0  0  0  0  0  0
  -12.5420  -28.7479   16.1389 O   0  0  0  0  0  0  0  0  0  0  0  0
  -14.8098  -28.7031   15.1550 C   0  0  0  0  0  0  0  0  0  0  0  0
  -16.1677  -28.0885   15.3353 O   0  0  0  0  0  0  0  0  0  0  0  0
  -16.7122  -27.9592   16.6256 C   0  0  0  0  0  0  0  0  0  0  0  0
  -17.9115  -27.2480   16.5934 O   0  0  0  0  0  0  0  0  0  0  0  0
  -13.7927  -28.9355   18.9514 H   0  0  0  0  0  0  0  0  0  0  0  0
  -12.2070  -27.9556   15.6906 H   0  0  0  0  0  0  0  0  0  0  0  0
  -17.7389  -26.3355   16.3134 H   0  0  0  0  0  0  0  0  0  0  0  0
  -15.0170  -30.0917   14.6398 C   0  0  0  0  0  0  0  0  0  0  0  0
  -14.1550  -30.4876   13.6292 O   0  0  0  0  0  0  0  0  0  0  0  0
  -13.2450  -30.4954   13.9649 H   0  0  0  0  0  0  0  0  0  0  0  0
 55 54  1  0  0  0
 54 47  1  0  0  0
 48 47  1  0  0  0
 48 49  1  0  0  0
 47 45  1  0  0  0
 50 49  1  0  0  0
 49 42  1  0  0  0
 46 45  1  0  0  0
 45 43  1  0  0  0
 43 42  1  0  0  0
 43 44  1  0  0  0
 42 41  1  0  0  0
 41 37  1  0  0  0
 37 38  2  0  0  0
 37 39  1  0  0  0
 37 35  1  0  0  0
 35  9  1  0  0  0
  9  4  2  0  0  0
  9  8  1  0  0  0
  3  4  1  0  0  0
  3  2  2  0  0  0
  4  5  1  0  0  0
  8  7  2  0  0  0
  2  1  1  0  0  0
  5  1  1  0  0  0
  5  6  2  0  0  0
  7  6  1  0  0  0
  1 15  1  0  0  0
 14 13  1  0  0  0
 20 18  2  0  0  0
 15 11  1  0  0  0
 15 13  1  0  0  0
 17 18  1  0  0  0
 17 10  1  0  0  0
 11 10  1  0  0  0
 13 12  1  0  0  0
 12 10  1  0  0  0
 18 24  1  0  0  0
 18 19  1  0  0  0
 27 26  1  0  0  0
 24 22  1  0  0  0
 22 23  2  0  0  0
 22 26  1  0  0  0
 30 29  1  0  0  0
 26 29  1  0  0  0
 29 33  1  0  0  0
 32 33  1  0  0  0
 33 34  1  0  0  0
 14 16  1  0  0  0
 35 36  1  0  0  0
 30 31  1  0  0  0
 27 28  1  0  0  0
 24 25  1  0  0  0
 19 21  1  0  0  0
 39 40  1  0  0  0
 44 51  1  0  0  0
 46 52  1  0  0  0
 55 56  1  0  0  0
 50 53  1  0  0  0
M  END
> <minimizedAffinity>
-11.62587

$$$$
4ZEC_C84_A_601


 56 59  0  0  0  0  0  0  0  0999 V2000
  -13.2469  -28.7932   24.6977 N   0  0  0  0  0  0  0  0  0  0  0  0
  -12.6059  -29.0460   23.5131 C   0  0  0  0  0  0  0  0  0  0  0  0
  -13.2553  -28.3610   22.5292 N   0  0  0  0  0  0  0  0  0  0  0  0
  -14.3116  -27.6325   23.1219 C   0  0  0  0  0  0  0  0  0  0  0  0
  -14.3128  -27.8939   24.5093 C   0  0  0  0  0  0  0  0  0  0  0  0
  -15.2644  -27.2620   25.3239 N   0  0  0  0  0  0  0  0  0  0  0  0
  -16.1786  -26.3920   24.7796 C   0  0  0  0  0  0  0  0  0  0  0  0
  -16.2049  -26.1292   23.4243 N   0  0  0  0  0  0  0  0  0  0  0  0
  -15.3230  -26.7321   22.5721 C   0  0  0  0  0  0  0  0  0  0  0  0
  -10.9618  -28.9467   27.1950 C   0  0  0  0  0  0  0  0  0  0  0  0
  -12.1925  -28.2658   26.7710 O   0  0  0  0  0  0  0  0  0  0  0  0
  -11.0568  -30.3279   26.6916 C   0  0  0  0  0  0  0  0  0  0  0  0
  -12.4836  -30.5491   26.4435 C   0  0  0  0  0  0  0  0  0  0  0  0
  -12.6600  -31.4599   25.4578 O   0  0  0  0  0  0  0  0  0  0  0  0
  -13.0316  -29.1855   26.1124 C   0  0  0  0  0  0  0  0  0  0  0  0
  -12.2148  -31.1546   24.6519 H   0  0  0  0  0  0  0  0  0  0  0  0
   -9.9207  -28.3415   26.6404 O   0  0  0  0  0  0  0  0  0  0  0  0
   -9.7369  -26.7851   26.5226 P   0  0  0  0  0  0  0  0  0  0  0  0
  -10.4398  -26.0462   27.7185 O   0  0  0  0  0  0  0  0  0  0  0  0
   -8.2229  -26.3941   26.4110 O   0  0  0  0  0  0  0  0  0  0  0  0
  -10.0346  -26.3257   28.5543 H   0  0  0  0  0  0  0  0  0  0  0  0
  -10.8806  -24.8579   24.9517 C   0  0  0  0  0  0  0  0  0  0  0  0
  -10.6673  -24.0893   25.8672 O   0  0  0  0  0  0  0  0  0  0  0  0
  -10.4825  -26.2576   25.1216 N   0  0  0  0  0  0  0  0  0  0  0  0
  -10.6575  -26.9004   24.3967 H   0  0  0  0  0  0  0  0  0  0  0  0
  -11.5601  -24.4266   23.6677 C   0  0  0  0  0  0  0  0  0  0  0  0
  -10.7215  -23.6079   22.9505 O   0  0  0  0  0  0  0  0  0  0  0  0
  -10.5612  -22.7920   23.4500 H   0  0  0  0  0  0  0  0  0  0  0  0
  -12.9665  -23.8213   23.8146 C   0  0  0  0  0  0  0  0  0  0  0  0
  -13.6425  -24.4618   24.8596 O   0  0  0  0  0  0  0  0  0  0  0  0
  -13.1775  -24.2967   25.6947 H   0  0  0  0  0  0  0  0  0  0  0  0
  -13.5557  -21.5907   22.6184 C   0  0  0  0  0  0  0  0  0  0  0  0
  -13.0219  -22.2539   23.8433 C   0  0  0  0  0  0  0  0  0  0  0  0
  -13.3339  -21.5609   25.1338 C   0  0  0  0  0  0  0  0  0  0  0  0
  -15.2971  -26.4236   21.1425 N   0  0  0  0  0  0  0  0  0  0  0  0
  -14.4331  -26.1527   20.7560 H   0  0  0  0  0  0  0  0  0  0  0  0
  -16.5977  -26.4912   20.1181 P   0  0  0  0  0  0  0  0  0  0  0  0
  -17.3535  -27.7892   20.3816 O   0  0  0  0  0  0  0  0  0  0  0  0
  -17.5523  -25.3582   20.4658 O   0  0  0  0  0  0  0  0  0  0  0  0
  -18.3187  -25.3873   19.8720 H   0  0  0  0  0  0  0  0  0  0  0  0
  -16.0686  -26.4073   18.6189 O   0  0  0  0  0  0  0  0  0  0  0  0
  -15.7106  -27.5752   17.9189 C   0  0  0  0  0  0  0  0  0  0  0  0
  -14.2375  -27.7015   17.6493 C   0  0  0  0  0  0  0  0  0  0  0  0
  -13.5162  -28.1323   18.8512 O   0  0  0  0  0  0  0  0  0  0  0  0
  -13.9442  -28.6330   16.5586 C   0  0  0  0  0  0  0  0  0  0  0  0
  -12.5552  -28.8374   16.3053 O   0  0  0  0  0  0  0  0  0  0  0  0
  -14.8165  -28.6865   15.3169 C   0  0  0  0  0  0  0  0  0  0  0  0
  -16.1490  -28.0203   15.5032 O   0  0  0  0  0  0  0  0  0  0  0  0
  -16.6916  -27.8880   16.7940 C   0  0  0  0  0  0  0  0  0  0  0  0
  -17.8611  -27.1286   16.7696 O   0  0  0  0  0  0  0  0  0  0  0  0
  -13.8206  -29.0156   19.1119 H   0  0  0  0  0  0  0  0  0  0  0  0
  -12.1871  -28.0528   15.8696 H   0  0  0  0  0  0  0  0  0  0  0  0
  -17.6509  -26.2197   16.5035 H   0  0  0  0  0  0  0  0  0  0  0  0
  -15.0780  -30.0579   14.7808 C   0  0  0  0  0  0  0  0  0  0  0  0
  -14.4278  -30.3696   13.5971 O   0  0  0  0  0  0  0  0  0  0  0  0
  -13.4686  -30.3530   13.7410 H   0  0  0  0  0  0  0  0  0  0  0  0
 55 54  1  0  0  0
 54 47  1  0  0  0
 48 47  1  0  0  0
 48 49  1  0  0  0
 47 45  1  0  0  0
 50 49  1  0  0  0
 49 42  1  0  0  0
 46 45  1  0  0  0
 45 43  1  0  0  0
 43 42  1  0  0  0
 43 44  1  0  0  0
 42 41  1  0  0  0
 41 37  1  0  0  0
 37 38  2  0  0  0
 37 39  1  0  0  0
 37 35  1  0  0  0
 35  9  1  0  0  0
  9  4  2  0  0  0
  9  8  1  0  0  0
  3  4  1  0  0  0
  3  2  2  0  0  0
  4  5  1  0  0  0
  8  7  2  0  0  0
  2  1  1  0  0  0
  5  1  1  0  0  0
  5  6  2  0  0  0
  7  6  1  0  0  0
  1 15  1  0  0  0
 14 13  1  0  0  0
 20 18  2  0  0  0
 15 11  1  0  0  0
 15 13  1  0  0  0
 17 18  1  0  0  0
 17 10  1  0  0  0
 11 10  1  0  0  0
 13 12  1  0  0  0
 12 10  1  0  0  0
 18 24  1  0  0  0
 18 19  1  0  0  0
 27 26  1  0  0  0
 24 22  1  0  0  0
 22 23  2  0  0  0
 22 26  1  0  0  0
 30 29  1  0  0  0
 26 29  1  0  0  0
 29 33  1  0  0  0
 32 33  1  0  0  0
 33 34  1  0  0  0
 14 16  1  0  0  0
 35 36  1  0  0  0
 30 31  1  0  0  0
 27 28  1  0  0  0
 24 25  1  0  0  0
 19 21  1  0  0  0
 39 40  1  0  0  0
 44 51  1  0  0  0
 46 52  1  0  0  0
 55 56  1  0  0  0
 50 53  1  0  0  0
M  END
> <minimizedAffinity>
-11.32824

$$$$
4ZEC_C84_A_601


 56 59  0  0  0  0  0  0  0  0999 V2000
  -13.6337  -23.4206   23.8595 N   0  0  0  0  0  0  0  0  0  0  0  0
  -14.8387  -23.9429   24.2510 C   0  0  0  0  0  0  0  0  0  0  0  0
  -15.1897  -24.9081   23.3543 N   0  0  0  0  0  0  0  0  0  0  0  0
  -14.1577  -25.0151   22.3944 C   0  0  0  0  0  0  0  0  0  0  0  0
  -13.1531  -24.0749   22.7101 C   0  0  0  0  0  0  0  0  0  0  0  0
  -12.0046  -24.0049   21.9072 N   0  0  0  0  0  0  0  0  0  0  0  0
  -11.8550  -24.8475   20.8318 C   0  0  0  0  0  0  0  0  0  0  0  0
  -12.8286  -25.7673   20.4961 N   0  0  0  0  0  0  0  0  0  0  0  0
  -13.9828  -25.8683   21.2208 C   0  0  0  0  0  0  0  0  0  0  0  0
  -12.2967  -22.1466   26.7006 C   0  0  0  0  0  0  0  0  0  0  0  0
  -11.9677  -22.9062   25.4868 O   0  0  0  0  0  0  0  0  0  0  0  0
  -13.3431  -21.1833   26.3168 C   0  0  0  0  0  0  0  0  0  0  0  0
  -13.2394  -21.0634   24.8603 C   0  0  0  0  0  0  0  0  0  0  0  0
  -14.4393  -20.7428   24.3221 O   0  0  0  0  0  0  0  0  0  0  0  0
  -12.7075  -22.3963   24.4023 C   0  0  0  0  0  0  0  0  0  0  0  0
  -15.0932  -21.4167   24.5654 H   0  0  0  0  0  0  0  0  0  0  0  0
  -12.7727  -22.9798   27.6154 O   0  0  0  0  0  0  0  0  0  0  0  0
  -12.1896  -24.4047   27.9313 P   0  0  0  0  0  0  0  0  0  0  0  0
  -10.6305  -24.4280   27.7339 O   0  0  0  0  0  0  0  0  0  0  0  0
  -12.5981  -24.8853   29.3664 O   0  0  0  0  0  0  0  0  0  0  0  0
  -10.2175  -23.8008   28.3478 H   0  0  0  0  0  0  0  0  0  0  0  0
  -12.1689  -26.7819   26.5754 C   0  0  0  0  0  0  0  0  0  0  0  0
  -11.1261  -27.0169   27.1513 O   0  0  0  0  0  0  0  0  0  0  0  0
  -12.8317  -25.5038   26.8465 N   0  0  0  0  0  0  0  0  0  0  0  0
  -13.6718  -25.2877   26.3809 H   0  0  0  0  0  0  0  0  0  0  0  0
  -12.7836  -27.7441   25.5790 C   0  0  0  0  0  0  0  0  0  0  0  0
  -13.9176  -27.1897   25.0365 O   0  0  0  0  0  0  0  0  0  0  0  0
  -14.5835  -27.0702   25.7316 H   0  0  0  0  0  0  0  0  0  0  0  0
  -13.0288  -29.1768   26.0820 C   0  0  0  0  0  0  0  0  0  0  0  0
  -12.4945  -29.3168   27.3681 O   0  0  0  0  0  0  0  0  0  0  0  0
  -12.9591  -28.7223   27.9777 H   0  0  0  0  0  0  0  0  0  0  0  0
  -14.6815  -30.8073   24.9142 C   0  0  0  0  0  0  0  0  0  0  0  0
  -14.4941  -29.7078   25.9047 C   0  0  0  0  0  0  0  0  0  0  0  0
  -15.3976  -29.7605   27.0979 C   0  0  0  0  0  0  0  0  0  0  0  0
  -15.0000  -26.8744   20.9164 N   0  0  0  0  0  0  0  0  0  0  0  0
  -14.8340  -27.7922   21.2317 H   0  0  0  0  0  0  0  0  0  0  0  0
  -16.4079  -26.6012   20.0864 P   0  0  0  0  0  0  0  0  0  0  0  0
  -17.3695  -27.7492   20.3748 O   0  0  0  0  0  0  0  0  0  0  0  0
  -17.0623  -25.3421   20.6363 O   0  0  0  0  0  0  0  0  0  0  0  0
  -17.8885  -25.1717   20.1576 H   0  0  0  0  0  0  0  0  0  0  0  0
  -16.0692  -26.4875   18.5350 O   0  0  0  0  0  0  0  0  0  0  0  0
  -15.6976  -27.6274   17.7972 C   0  0  0  0  0  0  0  0  0  0  0  0
  -14.2298  -27.7033   17.4833 C   0  0  0  0  0  0  0  0  0  0  0  0
  -13.4619  -28.1404   18.6537 O   0  0  0  0  0  0  0  0  0  0  0  0
  -13.9410  -28.5998   16.3625 C   0  0  0  0  0  0  0  0  0  0  0  0
  -12.5544  -28.7566   16.0654 O   0  0  0  0  0  0  0  0  0  0  0  0
  -14.8466  -28.6503   15.1449 C   0  0  0  0  0  0  0  0  0  0  0  0
  -16.1921  -28.0287   15.3845 O   0  0  0  0  0  0  0  0  0  0  0  0
  -16.7010  -27.9429   16.6930 C   0  0  0  0  0  0  0  0  0  0  0  0
  -17.8924  -27.2184   16.7198 O   0  0  0  0  0  0  0  0  0  0  0  0
  -13.7328  -29.0383   18.9012 H   0  0  0  0  0  0  0  0  0  0  0  0
  -12.2221  -27.9514   15.6387 H   0  0  0  0  0  0  0  0  0  0  0  0
  -17.7166  -26.2977   16.4700 H   0  0  0  0  0  0  0  0  0  0  0  0
  -15.0834  -30.0159   14.5832 C   0  0  0  0  0  0  0  0  0  0  0  0
  -14.1125  -30.4775   13.7083 O   0  0  0  0  0  0  0  0  0  0  0  0
  -13.2674  -30.5600   14.1773 H   0  0  0  0  0  0  0  0  0  0  0  0
 55 54  1  0  0  0
 54 47  1  0  0  0
 48 47  1  0  0  0
 48 49  1  0  0  0
 47 45  1  0  0  0
 50 49  1  0  0  0
 49 42  1  0  0  0
 46 45  1  0  0  0
 45 43  1  0  0  0
 43 42  1  0  0  0
 43 44  1  0  0  0
 42 41  1  0  0  0
 41 37  1  0  0  0
 37 38  2  0  0  0
 37 39  1  0  0  0
 37 35  1  0  0  0
 35  9  1  0  0  0
  9  4  2  0  0  0
  9  8  1  0  0  0
  3  4  1  0  0  0
  3  2  2  0  0  0
  4  5  1  0  0  0
  8  7  2  0  0  0
  2  1  1  0  0  0
  5  1  1  0  0  0
  5  6  2  0  0  0
  7  6  1  0  0  0
  1 15  1  0  0  0
 14 13  1  0  0  0
 20 18  2  0  0  0
 15 11  1  0  0  0
 15 13  1  0  0  0
 17 18  1  0  0  0
 17 10  1  0  0  0
 11 10  1  0  0  0
 13 12  1  0  0  0
 12 10  1  0  0  0
 18 24  1  0  0  0
 18 19  1  0  0  0
 27 26  1  0  0  0
 24 22  1  0  0  0
 22 23  2  0  0  0
 22 26  1  0  0  0
 30 29  1  0  0  0
 26 29  1  0  0  0
 29 33  1  0  0  0
 32 33  1  0  0  0
 33 34  1  0  0  0
 14 16  1  0  0  0
 35 36  1  0  0  0
 30 31  1  0  0  0
 27 28  1  0  0  0
 24 25  1  0  0  0
 19 21  1  0  0  0
 39 40  1  0  0  0
 44 51  1  0  0  0
 46 52  1  0  0  0
 55 56  1  0  0  0
 50 53  1  0  0  0
M  END
> <minimizedAffinity>
-11.08794

$$$$
4ZEC_C84_A_601


 56 59  0  0  0  0  0  0  0  0999 V2000
  -13.0950  -23.7033   23.2147 N   0  0  0  0  0  0  0  0  0  0  0  0
  -12.8475  -23.6106   24.5594 C   0  0  0  0  0  0  0  0  0  0  0  0
  -13.7574  -24.3911   25.2090 N   0  0  0  0  0  0  0  0  0  0  0  0
  -14.5748  -25.0158   24.2398 C   0  0  0  0  0  0  0  0  0  0  0  0
  -14.1571  -24.5906   22.9601 C   0  0  0  0  0  0  0  0  0  0  0  0
  -14.8084  -25.0956   21.8247 N   0  0  0  0  0  0  0  0  0  0  0  0
  -15.8347  -26.0003   21.9559 C   0  0  0  0  0  0  0  0  0  0  0  0
  -16.2689  -26.4225   23.1970 N   0  0  0  0  0  0  0  0  0  0  0  0
  -15.6950  -25.9488   24.3431 C   0  0  0  0  0  0  0  0  0  0  0  0
  -10.3616  -23.8537   21.2177 C   0  0  0  0  0  0  0  0  0  0  0  0
  -11.7982  -24.1572   21.2651 O   0  0  0  0  0  0  0  0  0  0  0  0
  -10.1675  -22.6359   22.0236 C   0  0  0  0  0  0  0  0  0  0  0  0
  -11.4888  -22.0070   22.0937 C   0  0  0  0  0  0  0  0  0  0  0  0
  -11.6137  -21.2868   23.2330 O   0  0  0  0  0  0  0  0  0  0  0  0
  -12.4642  -23.1504   21.9907 C   0  0  0  0  0  0  0  0  0  0  0  0
  -11.4675  -21.8645   23.9984 H   0  0  0  0  0  0  0  0  0  0  0  0
   -9.6899  -24.8591   21.7616 O   0  0  0  0  0  0  0  0  0  0  0  0
  -10.1774  -26.3526   21.8068 P   0  0  0  0  0  0  0  0  0  0  0  0
   -8.9549  -27.3393   21.8559 O   0  0  0  0  0  0  0  0  0  0  0  0
  -11.1656  -26.5965   22.9990 O   0  0  0  0  0  0  0  0  0  0  0  0
   -8.4396  -27.1758   22.6613 H   0  0  0  0  0  0  0  0  0  0  0  0
  -11.4684  -28.0485   20.0902 C   0  0  0  0  0  0  0  0  0  0  0  0
  -11.2031  -28.9317   20.8802 O   0  0  0  0  0  0  0  0  0  0  0  0
  -11.0160  -26.6899   20.3997 N   0  0  0  0  0  0  0  0  0  0  0  0
  -11.2095  -25.9610   19.7669 H   0  0  0  0  0  0  0  0  0  0  0  0
  -12.2189  -28.3087   18.7997 C   0  0  0  0  0  0  0  0  0  0  0  0
  -11.4288  -27.9733   17.7269 O   0  0  0  0  0  0  0  0  0  0  0  0
  -11.2525  -27.0195   17.7408 H   0  0  0  0  0  0  0  0  0  0  0  0
  -13.6230  -27.6895   18.6948 C   0  0  0  0  0  0  0  0  0  0  0  0
  -13.5960  -26.3852   19.2021 O   0  0  0  0  0  0  0  0  0  0  0  0
  -13.0072  -25.8389   18.6583 H   0  0  0  0  0  0  0  0  0  0  0  0
  -14.7991  -29.2223   16.9568 C   0  0  0  0  0  0  0  0  0  0  0  0
  -14.3242  -27.8508   17.3009 C   0  0  0  0  0  0  0  0  0  0  0  0
  -15.1702  -26.7308   16.7787 C   0  0  0  0  0  0  0  0  0  0  0  0
  -16.1014  -26.4266   25.6646 N   0  0  0  0  0  0  0  0  0  0  0  0
  -16.2552  -25.7479   26.3610 H   0  0  0  0  0  0  0  0  0  0  0  0
  -16.3251  -28.0125   26.0894 P   0  0  0  0  0  0  0  0  0  0  0  0
  -17.3952  -28.0760   27.1741 O   0  0  0  0  0  0  0  0  0  0  0  0
  -16.8819  -28.7653   24.8898 O   0  0  0  0  0  0  0  0  0  0  0  0
  -17.0173  -29.6962   25.1266 H   0  0  0  0  0  0  0  0  0  0  0  0
  -14.9356  -28.6046   26.5925 O   0  0  0  0  0  0  0  0  0  0  0  0
  -13.9333  -28.9623   25.6708 C   0  0  0  0  0  0  0  0  0  0  0  0
  -13.7117  -30.4438   25.5498 C   0  0  0  0  0  0  0  0  0  0  0  0
  -14.7609  -31.0697   24.7385 O   0  0  0  0  0  0  0  0  0  0  0  0
  -12.4060  -30.7711   24.9742 C   0  0  0  0  0  0  0  0  0  0  0  0
  -12.1721  -32.1647   24.7785 O   0  0  0  0  0  0  0  0  0  0  0  0
  -11.1647  -29.9790   25.3445 C   0  0  0  0  0  0  0  0  0  0  0  0
  -11.4775  -28.6634   25.9969 O   0  0  0  0  0  0  0  0  0  0  0  0
  -12.7191  -28.0445   25.7653 C   0  0  0  0  0  0  0  0  0  0  0  0
  -12.8678  -26.9085   26.5607 O   0  0  0  0  0  0  0  0  0  0  0  0
  -14.7260  -30.7159   23.8360 H   0  0  0  0  0  0  0  0  0  0  0  0
  -12.0136  -32.5895   25.6361 H   0  0  0  0  0  0  0  0  0  0  0  0
  -12.9005  -27.1696   27.4943 H   0  0  0  0  0  0  0  0  0  0  0  0
  -10.2258  -29.7006   24.2142 C   0  0  0  0  0  0  0  0  0  0  0  0
   -9.2642  -28.7337   24.4620 O   0  0  0  0  0  0  0  0  0  0  0  0
   -8.6845  -29.0309   25.1807 H   0  0  0  0  0  0  0  0  0  0  0  0
 55 54  1  0  0  0
 54 47  1  0  0  0
 48 47  1  0  0  0
 48 49  1  0  0  0
 47 45  1  0  0  0
 50 49  1  0  0  0
 49 42  1  0  0  0
 46 45  1  0  0  0
 45 43  1  0  0  0
 43 42  1  0  0  0
 43 44  1  0  0  0
 42 41  1  0  0  0
 41 37  1  0  0  0
 37 38  2  0  0  0
 37 39  1  0  0  0
 37 35  1  0  0  0
 35  9  1  0  0  0
  9  4  2  0  0  0
  9  8  1  0  0  0
  3  4  1  0  0  0
  3  2  2  0  0  0
  4  5  1  0  0  0
  8  7  2  0  0  0
  2  1  1  0  0  0
  5  1  1  0  0  0
  5  6  2  0  0  0
  7  6  1  0  0  0
  1 15  1  0  0  0
 14 13  1  0  0  0
 20 18  2  0  0  0
 15 11  1  0  0  0
 15 13  1  0  0  0
 17 18  1  0  0  0
 17 10  1  0  0  0
 11 10  1  0  0  0
 13 12  1  0  0  0
 12 10  1  0  0  0
 18 24  1  0  0  0
 18 19  1  0  0  0
 27 26  1  0  0  0
 24 22  1  0  0  0
 22 23  2  0  0  0
 22 26  1  0  0  0
 30 29  1  0  0  0
 26 29  1  0  0  0
 29 33  1  0  0  0
 32 33  1  0  0  0
 33 34  1  0  0  0
 14 16  1  0  0  0
 35 36  1  0  0  0
 30 31  1  0  0  0
 27 28  1  0  0  0
 24 25  1  0  0  0
 19 21  1  0  0  0
 39 40  1  0  0  0
 44 51  1  0  0  0
 46 52  1  0  0  0
 55 56  1  0  0  0
 50 53  1  0  0  0
M  END
> <minimizedAffinity>
-10.77366

$$$$
4ZEC_C84_A_601


 56 59  0  0  0  0  0  0  0  0999 V2000
  -14.5080  -27.1863   25.2606 N   0  0  0  0  0  0  0  0  0  0  0  0
  -15.8595  -26.9736   25.1814 C   0  0  0  0  0  0  0  0  0  0  0  0
  -16.1316  -26.4526   23.9511 N   0  0  0  0  0  0  0  0  0  0  0  0
  -14.9194  -26.3694   23.2291 C   0  0  0  0  0  0  0  0  0  0  0  0
  -13.8744  -26.8425   24.0520 C   0  0  0  0  0  0  0  0  0  0  0  0
  -12.5669  -26.8791   23.5446 N   0  0  0  0  0  0  0  0  0  0  0  0
  -12.3075  -26.4679   22.2591 C   0  0  0  0  0  0  0  0  0  0  0  0
  -13.3107  -25.9905   21.4390 N   0  0  0  0  0  0  0  0  0  0  0  0
  -14.6009  -25.9038   21.8809 C   0  0  0  0  0  0  0  0  0  0  0  0
  -12.3776  -29.7325   25.9388 C   0  0  0  0  0  0  0  0  0  0  0  0
  -12.4348  -28.2869   25.6835 O   0  0  0  0  0  0  0  0  0  0  0  0
  -13.6110  -30.0746   26.6680 C   0  0  0  0  0  0  0  0  0  0  0  0
  -14.0853  -28.8099   27.2352 C   0  0  0  0  0  0  0  0  0  0  0  0
  -15.4312  -28.8274   27.3792 O   0  0  0  0  0  0  0  0  0  0  0  0
  -13.5926  -27.7528   26.2817 C   0  0  0  0  0  0  0  0  0  0  0  0
  -15.8463  -28.9948   26.5186 H   0  0  0  0  0  0  0  0  0  0  0  0
  -12.3534  -30.3750   24.7793 O   0  0  0  0  0  0  0  0  0  0  0  0
  -11.1225  -30.4338   23.8039 P   0  0  0  0  0  0  0  0  0  0  0  0
  -10.0884  -31.5209   24.2722 O   0  0  0  0  0  0  0  0  0  0  0  0
  -11.5769  -30.6684   22.3220 O   0  0  0  0  0  0  0  0  0  0  0  0
  -10.5106  -32.3942   24.2626 H   0  0  0  0  0  0  0  0  0  0  0  0
   -9.0027  -28.7948   23.2473 C   0  0  0  0  0  0  0  0  0  0  0  0
   -8.4836  -29.7637   22.7315 O   0  0  0  0  0  0  0  0  0  0  0  0
  -10.3298  -28.9618   23.8449 N   0  0  0  0  0  0  0  0  0  0  0  0
  -10.7636  -28.1921   24.2793 H   0  0  0  0  0  0  0  0  0  0  0  0
   -8.3192  -27.4440   23.3146 C   0  0  0  0  0  0  0  0  0  0  0  0
   -9.0303  -26.6038   24.1369 O   0  0  0  0  0  0  0  0  0  0  0  0
   -9.9044  -26.4371   23.7509 H   0  0  0  0  0  0  0  0  0  0  0  0
   -7.9884  -26.7830   21.9657 C   0  0  0  0  0  0  0  0  0  0  0  0
   -8.9076  -25.7587   21.7110 O   0  0  0  0  0  0  0  0  0  0  0  0
   -8.8211  -25.0705   22.3891 H   0  0  0  0  0  0  0  0  0  0  0  0
   -6.0764  -26.0418   20.3692 C   0  0  0  0  0  0  0  0  0  0  0  0
   -6.4821  -26.3965   21.7602 C   0  0  0  0  0  0  0  0  0  0  0  0
   -5.7684  -25.6503   22.8450 C   0  0  0  0  0  0  0  0  0  0  0  0
  -15.6869  -25.4553   21.0096 N   0  0  0  0  0  0  0  0  0  0  0  0
  -15.8129  -24.4839   20.9108 H   0  0  0  0  0  0  0  0  0  0  0  0
  -16.7231  -26.4426   20.1746 P   0  0  0  0  0  0  0  0  0  0  0  0
  -16.6110  -27.8528   20.7439 O   0  0  0  0  0  0  0  0  0  0  0  0
  -18.1506  -25.9844   20.4358 O   0  0  0  0  0  0  0  0  0  0  0  0
  -18.7672  -26.5556   19.9516 H   0  0  0  0  0  0  0  0  0  0  0  0
  -16.3375  -26.3943   18.6307 O   0  0  0  0  0  0  0  0  0  0  0  0
  -15.9001  -27.5550   17.9647 C   0  0  0  0  0  0  0  0  0  0  0  0
  -14.4102  -27.6336   17.7837 C   0  0  0  0  0  0  0  0  0  0  0  0
  -13.7474  -28.0302   19.0302 O   0  0  0  0  0  0  0  0  0  0  0  0
  -14.0221  -28.5633   16.7214 C   0  0  0  0  0  0  0  0  0  0  0  0
  -12.6144  -28.7227   16.5525 O   0  0  0  0  0  0  0  0  0  0  0  0
  -14.8170  -28.6562   15.4311 C   0  0  0  0  0  0  0  0  0  0  0  0
  -16.1796  -28.0339   15.5319 O   0  0  0  0  0  0  0  0  0  0  0  0
  -16.8017  -27.9097   16.7871 C   0  0  0  0  0  0  0  0  0  0  0  0
  -17.9924  -27.1904   16.6863 O   0  0  0  0  0  0  0  0  0  0  0  0
  -14.0372  -28.9212   19.2812 H   0  0  0  0  0  0  0  0  0  0  0  0
  -12.2475  -27.9296   16.1314 H   0  0  0  0  0  0  0  0  0  0  0  0
  -17.7972  -26.2772   16.4240 H   0  0  0  0  0  0  0  0  0  0  0  0
  -15.0005  -30.0399   14.8942 C   0  0  0  0  0  0  0  0  0  0  0  0
  -14.3991  -30.2895   13.6707 O   0  0  0  0  0  0  0  0  0  0  0  0
  -13.4375  -30.1976   13.7584 H   0  0  0  0  0  0  0  0  0  0  0  0
 55 54  1  0  0  0
 54 47  1  0  0  0
 48 47  1  0  0  0
 48 49  1  0  0  0
 47 45  1  0  0  0
 50 49  1  0  0  0
 49 42  1  0  0  0
 46 45  1  0  0  0
 45 43  1  0  0  0
 43 42  1  0  0  0
 43 44  1  0  0  0
 42 41  1  0  0  0
 41 37  1  0  0  0
 37 38  2  0  0  0
 37 39  1  0  0  0
 37 35  1  0  0  0
 35  9  1  0  0  0
  9  4  2  0  0  0
  9  8  1  0  0  0
  3  4  1  0  0  0
  3  2  2  0  0  0
  4  5  1  0  0  0
  8  7  2  0  0  0
  2  1  1  0  0  0
  5  1  1  0  0  0
  5  6  2  0  0  0
  7  6  1  0  0  0
  1 15  1  0  0  0
 14 13  1  0  0  0
 20 18  2  0  0  0
 15 11  1  0  0  0
 15 13  1  0  0  0
 17 18  1  0  0  0
 17 10  1  0  0  0
 11 10  1  0  0  0
 13 12  1  0  0  0
 12 10  1  0  0  0
 18 24  1  0  0  0
 18 19  1  0  0  0
 27 26  1  0  0  0
 24 22  1  0  0  0
 22 23  2  0  0  0
 22 26  1  0  0  0
 30 29  1  0  0  0
 26 29  1  0  0  0
 29 33  1  0  0  0
 32 33  1  0  0  0
 33 34  1  0  0  0
 14 16  1  0  0  0
 35 36  1  0  0  0
 30 31  1  0  0  0
 27 28  1  0  0  0
 24 25  1  0  0  0
 19 21  1  0  0  0
 39 40  1  0  0  0
 44 51  1  0  0  0
 46 52  1  0  0  0
 55 56  1  0  0  0
 50 53  1  0  0  0
M  END
> <minimizedAffinity>
-10.60640

$$$$
4ZEC_C84_A_601


 56 59  0  0  0  0  0  0  0  0999 V2000
  -13.0157  -28.2304   24.6184 N   0  0  0  0  0  0  0  0  0  0  0  0
  -12.6876  -28.9427   23.4946 C   0  0  0  0  0  0  0  0  0  0  0  0
  -13.3228  -28.3692   22.4332 N   0  0  0  0  0  0  0  0  0  0  0  0
  -14.0410  -27.2461   22.9028 C   0  0  0  0  0  0  0  0  0  0  0  0
  -13.8470  -27.1414   24.2972 C   0  0  0  0  0  0  0  0  0  0  0  0
  -14.4476  -26.0821   24.9941 N   0  0  0  0  0  0  0  0  0  0  0  0
  -15.2081  -25.1522   24.3263 C   0  0  0  0  0  0  0  0  0  0  0  0
  -15.4219  -25.2398   22.9649 N   0  0  0  0  0  0  0  0  0  0  0  0
  -14.8877  -26.2618   22.2317 C   0  0  0  0  0  0  0  0  0  0  0  0
  -10.4845  -28.8806   26.7754 C   0  0  0  0  0  0  0  0  0  0  0  0
  -11.3419  -27.8033   26.2630 O   0  0  0  0  0  0  0  0  0  0  0  0
  -11.3150  -30.0972   26.7981 C   0  0  0  0  0  0  0  0  0  0  0  0
  -12.6993  -29.6176   26.7839 C   0  0  0  0  0  0  0  0  0  0  0  0
  -13.5130  -30.5288   26.2008 O   0  0  0  0  0  0  0  0  0  0  0  0
  -12.6423  -28.3018   26.0527 C   0  0  0  0  0  0  0  0  0  0  0  0
  -13.2030  -30.7093   25.2996 H   0  0  0  0  0  0  0  0  0  0  0  0
   -9.4653  -29.0529   25.9452 O   0  0  0  0  0  0  0  0  0  0  0  0
   -8.3284  -28.0010   25.6788 P   0  0  0  0  0  0  0  0  0  0  0  0
   -7.2439  -28.0486   26.8154 O   0  0  0  0  0  0  0  0  0  0  0  0
   -7.6889  -28.1957   24.2608 O   0  0  0  0  0  0  0  0  0  0  0  0
   -6.8315  -28.9264   26.8322 H   0  0  0  0  0  0  0  0  0  0  0  0
   -8.8183  -25.5830   26.8632 C   0  0  0  0  0  0  0  0  0  0  0  0
   -8.1854  -26.0020   27.8109 O   0  0  0  0  0  0  0  0  0  0  0  0
   -8.9941  -26.4670   25.7083 N   0  0  0  0  0  0  0  0  0  0  0  0
   -9.5144  -26.1519   24.9342 H   0  0  0  0  0  0  0  0  0  0  0  0
   -9.4458  -24.2036   26.8487 C   0  0  0  0  0  0  0  0  0  0  0  0
   -8.7107  -23.3504   27.6358 O   0  0  0  0  0  0  0  0  0  0  0  0
   -8.7498  -23.6472   28.5584 H   0  0  0  0  0  0  0  0  0  0  0  0
  -10.9471  -24.1377   27.1767 C   0  0  0  0  0  0  0  0  0  0  0  0
  -11.6766  -24.7351   26.1423 O   0  0  0  0  0  0  0  0  0  0  0  0
  -11.4435  -25.6748   26.0831 H   0  0  0  0  0  0  0  0  0  0  0  0
  -10.3752  -24.2515   29.7092 C   0  0  0  0  0  0  0  0  0  0  0  0
  -11.3378  -24.5992   28.6241 C   0  0  0  0  0  0  0  0  0  0  0  0
  -12.7812  -24.5956   29.0236 C   0  0  0  0  0  0  0  0  0  0  0  0
  -15.0545  -26.3405   20.7807 N   0  0  0  0  0  0  0  0  0  0  0  0
  -14.2361  -26.3759   20.2346 H   0  0  0  0  0  0  0  0  0  0  0  0
  -16.5034  -26.3750   19.9775 P   0  0  0  0  0  0  0  0  0  0  0  0
  -17.2725  -27.6149   20.4210 O   0  0  0  0  0  0  0  0  0  0  0  0
  -17.3318  -25.1751   20.4132 O   0  0  0  0  0  0  0  0  0  0  0  0
  -18.1835  -25.1844   19.9491 H   0  0  0  0  0  0  0  0  0  0  0  0
  -16.2162  -26.3845   18.4116 O   0  0  0  0  0  0  0  0  0  0  0  0
  -15.7921  -27.5625   17.7679 C   0  0  0  0  0  0  0  0  0  0  0  0
  -14.3109  -27.6281   17.5223 C   0  0  0  0  0  0  0  0  0  0  0  0
  -13.5871  -27.9708   18.7508 O   0  0  0  0  0  0  0  0  0  0  0  0
  -13.9571  -28.5902   16.4771 C   0  0  0  0  0  0  0  0  0  0  0  0
  -12.5563  -28.7371   16.2503 O   0  0  0  0  0  0  0  0  0  0  0  0
  -14.8076  -28.7398   15.2283 C   0  0  0  0  0  0  0  0  0  0  0  0
  -16.1733  -28.1321   15.3686 O   0  0  0  0  0  0  0  0  0  0  0  0
  -16.7403  -27.9711   16.6456 C   0  0  0  0  0  0  0  0  0  0  0  0
  -17.9447  -27.2715   16.5735 O   0  0  0  0  0  0  0  0  0  0  0  0
  -13.8522  -28.8560   19.0460 H   0  0  0  0  0  0  0  0  0  0  0  0
  -12.2202  -27.9550   15.7853 H   0  0  0  0  0  0  0  0  0  0  0  0
  -17.7749  -26.3658   16.2705 H   0  0  0  0  0  0  0  0  0  0  0  0
  -14.9947  -30.1442   14.7494 C   0  0  0  0  0  0  0  0  0  0  0  0
  -14.4330  -30.4335   13.5158 O   0  0  0  0  0  0  0  0  0  0  0  0
  -13.4699  -30.3294   13.5666 H   0  0  0  0  0  0  0  0  0  0  0  0
 55 54  1  0  0  0
 54 47  1  0  0  0
 48 47  1  0  0  0
 48 49  1  0  0  0
 47 45  1  0  0  0
 50 49  1  0  0  0
 49 42  1  0  0  0
 46 45  1  0  0  0
 45 43  1  0  0  0
 43 42  1  0  0  0
 43 44  1  0  0  0
 42 41  1  0  0  0
 41 37  1  0  0  0
 37 38  2  0  0  0
 37 39  1  0  0  0
 37 35  1  0  0  0
 35  9  1  0  0  0
  9  4  2  0  0  0
  9  8  1  0  0  0
  3  4  1  0  0  0
  3  2  2  0  0  0
  4  5  1  0  0  0
  8  7  2  0  0  0
  2  1  1  0  0  0
  5  1  1  0  0  0
  5  6  2  0  0  0
  7  6  1  0  0  0
  1 15  1  0  0  0
 14 13  1  0  0  0
 20 18  2  0  0  0
 15 11  1  0  0  0
 15 13  1  0  0  0
 17 18  1  0  0  0
 17 10  1  0  0  0
 11 10  1  0  0  0
 13 12  1  0  0  0
 12 10  1  0  0  0
 18 24  1  0  0  0
 18 19  1  0  0  0
 27 26  1  0  0  0
 24 22  1  0  0  0
 22 23  2  0  0  0
 22 26  1  0  0  0
 30 29  1  0  0  0
 26 29  1  0  0  0
 29 33  1  0  0  0
 32 33  1  0  0  0
 33 34  1  0  0  0
 14 16  1  0  0  0
 35 36  1  0  0  0
 30 31  1  0  0  0
 27 28  1  0  0  0
 24 25  1  0  0  0
 19 21  1  0  0  0
 39 40  1  0  0  0
 44 51  1  0  0  0
 46 52  1  0  0  0
 55 56  1  0  0  0
 50 53  1  0  0  0
M  END
> <minimizedAffinity>
-10.34404

$$$$
4ZEC_C84_A_601


 56 59  0  0  0  0  0  0  0  0999 V2000
  -14.5759  -27.3470   24.9675 N   0  0  0  0  0  0  0  0  0  0  0  0
  -15.9287  -27.3161   24.7507 C   0  0  0  0  0  0  0  0  0  0  0  0
  -16.1418  -26.8362   23.4924 N   0  0  0  0  0  0  0  0  0  0  0  0
  -14.8846  -26.5926   22.8941 C   0  0  0  0  0  0  0  0  0  0  0  0
  -13.8747  -26.9223   23.8238 C   0  0  0  0  0  0  0  0  0  0  0  0
  -12.5293  -26.7847   23.4503 N   0  0  0  0  0  0  0  0  0  0  0  0
  -12.1982  -26.3431   22.1916 C   0  0  0  0  0  0  0  0  0  0  0  0
  -13.1678  -26.0035   21.2689 N   0  0  0  0  0  0  0  0  0  0  0  0
  -14.4960  -26.0892   21.5782 C   0  0  0  0  0  0  0  0  0  0  0  0
  -12.4812  -29.7916   26.0249 C   0  0  0  0  0  0  0  0  0  0  0  0
  -12.5238  -28.3870   25.5967 O   0  0  0  0  0  0  0  0  0  0  0  0
  -13.7422  -30.0454   26.7428 C   0  0  0  0  0  0  0  0  0  0  0  0
  -14.2331  -28.7224   27.1366 C   0  0  0  0  0  0  0  0  0  0  0  0
  -15.5835  -28.7241   27.2308 O   0  0  0  0  0  0  0  0  0  0  0  0
  -13.7014  -27.7864   26.0828 C   0  0  0  0  0  0  0  0  0  0  0  0
  -15.9666  -28.9936   26.3814 H   0  0  0  0  0  0  0  0  0  0  0  0
  -12.4157  -30.5680   24.9522 O   0  0  0  0  0  0  0  0  0  0  0  0
  -11.2274  -30.5909   23.9239 P   0  0  0  0  0  0  0  0  0  0  0  0
  -10.0852  -31.5553   24.4095 O   0  0  0  0  0  0  0  0  0  0  0  0
  -11.7235  -30.9612   22.4837 O   0  0  0  0  0  0  0  0  0  0  0  0
  -10.4314  -32.4589   24.4758 H   0  0  0  0  0  0  0  0  0  0  0  0
   -9.2177  -28.8440   23.2920 C   0  0  0  0  0  0  0  0  0  0  0  0
   -8.5893  -29.8152   22.9232 O   0  0  0  0  0  0  0  0  0  0  0  0
  -10.5621  -29.0592   23.8330 N   0  0  0  0  0  0  0  0  0  0  0  0
  -11.0843  -28.2868   24.1492 H   0  0  0  0  0  0  0  0  0  0  0  0
   -8.6528  -27.4389   23.2356 C   0  0  0  0  0  0  0  0  0  0  0  0
   -8.4708  -27.0634   21.9266 O   0  0  0  0  0  0  0  0  0  0  0  0
   -7.8007  -27.6327   21.5170 H   0  0  0  0  0  0  0  0  0  0  0  0
   -7.3994  -27.1769   24.0878 C   0  0  0  0  0  0  0  0  0  0  0  0
   -7.4446  -27.9716   25.2392 O   0  0  0  0  0  0  0  0  0  0  0  0
   -7.4215  -28.9079   24.9870 H   0  0  0  0  0  0  0  0  0  0  0  0
   -5.1462  -26.0272   23.4923 C   0  0  0  0  0  0  0  0  0  0  0  0
   -6.0394  -27.2074   23.3068 C   0  0  0  0  0  0  0  0  0  0  0  0
   -5.3384  -28.5173   23.1184 C   0  0  0  0  0  0  0  0  0  0  0  0
  -15.5383  -25.7894   20.5967 N   0  0  0  0  0  0  0  0  0  0  0  0
  -15.8452  -24.8559   20.5367 H   0  0  0  0  0  0  0  0  0  0  0  0
  -16.2465  -26.8869   19.5770 P   0  0  0  0  0  0  0  0  0  0  0  0
  -17.2714  -27.6914   20.3694 O   0  0  0  0  0  0  0  0  0  0  0  0
  -17.0239  -26.1304   18.5096 O   0  0  0  0  0  0  0  0  0  0  0  0
  -17.4436  -26.7631   17.9059 H   0  0  0  0  0  0  0  0  0  0  0  0
  -15.1097  -27.8169   18.9627 O   0  0  0  0  0  0  0  0  0  0  0  0
  -14.7438  -27.7015   17.6081 C   0  0  0  0  0  0  0  0  0  0  0  0
  -15.4841  -28.6340   16.6911 C   0  0  0  0  0  0  0  0  0  0  0  0
  -16.8410  -28.1456   16.4252 O   0  0  0  0  0  0  0  0  0  0  0  0
  -14.7921  -28.8350   15.4167 C   0  0  0  0  0  0  0  0  0  0  0  0
  -15.4861  -29.6624   14.4845 O   0  0  0  0  0  0  0  0  0  0  0  0
  -13.2805  -28.9645   15.3568 C   0  0  0  0  0  0  0  0  0  0  0  0
  -12.5976  -28.4850   16.6050 O   0  0  0  0  0  0  0  0  0  0  0  0
  -13.2363  -27.5478   17.4368 C   0  0  0  0  0  0  0  0  0  0  0  0
  -12.5037  -27.3340   18.6042 O   0  0  0  0  0  0  0  0  0  0  0  0
  -16.7934  -27.2935   15.9641 H   0  0  0  0  0  0  0  0  0  0  0  0
  -15.4362  -30.5871   14.7732 H   0  0  0  0  0  0  0  0  0  0  0  0
  -12.4876  -28.1492   19.1296 H   0  0  0  0  0  0  0  0  0  0  0  0
  -12.6273  -28.2748   14.2017 C   0  0  0  0  0  0  0  0  0  0  0  0
  -12.2293  -29.1002   13.1618 O   0  0  0  0  0  0  0  0  0  0  0  0
  -13.0082  -29.5260   12.7707 H   0  0  0  0  0  0  0  0  0  0  0  0
 55 54  1  0  0  0
 54 47  1  0  0  0
 48 47  1  0  0  0
 48 49  1  0  0  0
 47 45  1  0  0  0
 50 49  1  0  0  0
 49 42  1  0  0  0
 46 45  1  0  0  0
 45 43  1  0  0  0
 43 42  1  0  0  0
 43 44  1  0  0  0
 42 41  1  0  0  0
 41 37  1  0  0  0
 37 38  2  0  0  0
 37 39  1  0  0  0
 37 35  1  0  0  0
 35  9  1  0  0  0
  9  4  2  0  0  0
  9  8  1  0  0  0
  3  4  1  0  0  0
  3  2  2  0  0  0
  4  5  1  0  0  0
  8  7  2  0  0  0
  2  1  1  0  0  0
  5  1  1  0  0  0
  5  6  2  0  0  0
  7  6  1  0  0  0
  1 15  1  0  0  0
 14 13  1  0  0  0
 20 18  2  0  0  0
 15 11  1  0  0  0
 15 13  1  0  0  0
 17 18  1  0  0  0
 17 10  1  0  0  0
 11 10  1  0  0  0
 13 12  1  0  0  0
 12 10  1  0  0  0
 18 24  1  0  0  0
 18 19  1  0  0  0
 27 26  1  0  0  0
 24 22  1  0  0  0
 22 23  2  0  0  0
 22 26  1  0  0  0
 30 29  1  0  0  0
 26 29  1  0  0  0
 29 33  1  0  0  0
 32 33  1  0  0  0
 33 34  1  0  0  0
 14 16  1  0  0  0
 35 36  1  0  0  0
 30 31  1  0  0  0
 27 28  1  0  0  0
 24 25  1  0  0  0
 19 21  1  0  0  0
 39 40  1  0  0  0
 44 51  1  0  0  0
 46 52  1  0  0  0
 55 56  1  0  0  0
 50 53  1  0  0  0
M  END
> <minimizedAffinity>
-10.24173

$$$$
4ZEC_C84_A_601


 56 59  0  0  0  0  0  0  0  0999 V2000
  -12.1522  -24.4226   26.1379 N   0  0  0  0  0  0  0  0  0  0  0  0
  -13.0279  -25.4611   26.3184 C   0  0  0  0  0  0  0  0  0  0  0  0
  -13.8402  -25.5208   25.2250 N   0  0  0  0  0  0  0  0  0  0  0  0
  -13.4379  -24.5119   24.3206 C   0  0  0  0  0  0  0  0  0  0  0  0
  -12.3545  -23.8072   24.8887 C   0  0  0  0  0  0  0  0  0  0  0  0
  -11.7620  -22.7625   24.1634 N   0  0  0  0  0  0  0  0  0  0  0  0
  -12.2245  -22.4349   22.9113 C   0  0  0  0  0  0  0  0  0  0  0  0
  -13.2899  -23.1016   22.3394 N   0  0  0  0  0  0  0  0  0  0  0  0
  -13.9284  -24.1108   23.0036 C   0  0  0  0  0  0  0  0  0  0  0  0
   -9.7956  -25.1196   28.4708 C   0  0  0  0  0  0  0  0  0  0  0  0
   -9.9808  -24.8035   27.0481 O   0  0  0  0  0  0  0  0  0  0  0  0
  -10.8325  -24.3703   29.2012 C   0  0  0  0  0  0  0  0  0  0  0  0
  -11.2465  -23.3001   28.2904 C   0  0  0  0  0  0  0  0  0  0  0  0
  -12.5310  -22.9441   28.5263 O   0  0  0  0  0  0  0  0  0  0  0  0
  -11.0174  -23.8599   26.9108 C   0  0  0  0  0  0  0  0  0  0  0  0
  -13.1048  -23.7200   28.4276 H   0  0  0  0  0  0  0  0  0  0  0  0
   -9.9764  -26.4206   28.6510 O   0  0  0  0  0  0  0  0  0  0  0  0
   -9.4569  -27.5477   27.6866 P   0  0  0  0  0  0  0  0  0  0  0  0
   -8.7035  -26.9271   26.4547 O   0  0  0  0  0  0  0  0  0  0  0  0
   -8.5627  -28.5858   28.4484 O   0  0  0  0  0  0  0  0  0  0  0  0
   -7.9309  -26.4296   26.7653 H   0  0  0  0  0  0  0  0  0  0  0  0
  -10.6337  -29.2869   25.9316 C   0  0  0  0  0  0  0  0  0  0  0  0
   -9.5379  -29.3970   25.4204 O   0  0  0  0  0  0  0  0  0  0  0  0
  -10.7701  -28.3864   27.0791 N   0  0  0  0  0  0  0  0  0  0  0  0
  -11.6524  -28.2727   27.5010 H   0  0  0  0  0  0  0  0  0  0  0  0
  -11.8529  -30.0209   25.4107 C   0  0  0  0  0  0  0  0  0  0  0  0
  -11.4680  -30.9684   24.4933 O   0  0  0  0  0  0  0  0  0  0  0  0
  -11.0751  -30.5308   23.7218 H   0  0  0  0  0  0  0  0  0  0  0  0
  -12.9994  -29.1422   24.8823 C   0  0  0  0  0  0  0  0  0  0  0  0
  -13.2573  -29.4671   23.5455 O   0  0  0  0  0  0  0  0  0  0  0  0
  -13.5600  -30.3869   23.4889 H   0  0  0  0  0  0  0  0  0  0  0  0
  -15.5868  -29.1536   25.1246 C   0  0  0  0  0  0  0  0  0  0  0  0
  -14.2637  -29.0623   25.8073 C   0  0  0  0  0  0  0  0  0  0  0  0
  -14.2049  -29.6734   27.1733 C   0  0  0  0  0  0  0  0  0  0  0  0
  -15.0211  -24.8672   22.3924 N   0  0  0  0  0  0  0  0  0  0  0  0
  -15.9188  -24.4640   22.4207 H   0  0  0  0  0  0  0  0  0  0  0  0
  -14.8769  -26.3448   21.6564 P   0  0  0  0  0  0  0  0  0  0  0  0
  -13.5680  -26.9839   22.1078 O   0  0  0  0  0  0  0  0  0  0  0  0
  -15.9936  -27.2500   22.1561 O   0  0  0  0  0  0  0  0  0  0  0  0
  -15.9196  -28.1191   21.7317 H   0  0  0  0  0  0  0  0  0  0  0  0
  -14.9201  -26.1332   20.0791 O   0  0  0  0  0  0  0  0  0  0  0  0
  -14.9608  -27.2389   19.2086 C   0  0  0  0  0  0  0  0  0  0  0  0
  -13.6183  -27.6432   18.6674 C   0  0  0  0  0  0  0  0  0  0  0  0
  -12.8481  -28.3877   19.6689 O   0  0  0  0  0  0  0  0  0  0  0  0
  -13.7235  -28.4508   17.4508 C   0  0  0  0  0  0  0  0  0  0  0  0
  -12.4778  -28.9145   16.9325 O   0  0  0  0  0  0  0  0  0  0  0  0
  -14.7600  -28.1354   16.3871 C   0  0  0  0  0  0  0  0  0  0  0  0
  -15.8513  -27.2285   16.8777 O   0  0  0  0  0  0  0  0  0  0  0  0
  -16.1459  -27.1667   18.2516 C   0  0  0  0  0  0  0  0  0  0  0  0
  -17.0903  -26.1753   18.5166 O   0  0  0  0  0  0  0  0  0  0  0  0
  -13.3118  -29.2114   19.8865 H   0  0  0  0  0  0  0  0  0  0  0  0
  -12.0031  -28.1750   16.5219 H   0  0  0  0  0  0  0  0  0  0  0  0
  -16.7119  -25.3056   18.3131 H   0  0  0  0  0  0  0  0  0  0  0  0
  -15.4189  -29.3260   15.7668 C   0  0  0  0  0  0  0  0  0  0  0  0
  -15.4263  -29.3491   14.3810 O   0  0  0  0  0  0  0  0  0  0  0  0
  -14.5142  -29.3886   14.0534 H   0  0  0  0  0  0  0  0  0  0  0  0
 55 54  1  0  0  0
 54 47  1  0  0  0
 48 47  1  0  0  0
 48 49  1  0  0  0
 47 45  1  0  0  0
 50 49  1  0  0  0
 49 42  1  0  0  0
 46 45  1  0  0  0
 45 43  1  0  0  0
 43 42  1  0  0  0
 43 44  1  0  0  0
 42 41  1  0  0  0
 41 37  1  0  0  0
 37 38  2  0  0  0
 37 39  1  0  0  0
 37 35  1  0  0  0
 35  9  1  0  0  0
  9  4  2  0  0  0
  9  8  1  0  0  0
  3  4  1  0  0  0
  3  2  2  0  0  0
  4  5  1  0  0  0
  8  7  2  0  0  0
  2  1  1  0  0  0
  5  1  1  0  0  0
  5  6  2  0  0  0
  7  6  1  0  0  0
  1 15  1  0  0  0
 14 13  1  0  0  0
 20 18  2  0  0  0
 15 11  1  0  0  0
 15 13  1  0  0  0
 17 18  1  0  0  0
 17 10  1  0  0  0
 11 10  1  0  0  0
 13 12  1  0  0  0
 12 10  1  0  0  0
 18 24  1  0  0  0
 18 19  1  0  0  0
 27 26  1  0  0  0
 24 22  1  0  0  0
 22 23  2  0  0  0
 22 26  1  0  0  0
 30 29  1  0  0  0
 26 29  1  0  0  0
 29 33  1  0  0  0
 32 33  1  0  0  0
 33 34  1  0  0  0
 14 16  1  0  0  0
 35 36  1  0  0  0
 30 31  1  0  0  0
 27 28  1  0  0  0
 24 25  1  0  0  0
 19 21  1  0  0  0
 39 40  1  0  0  0
 44 51  1  0  0  0
 46 52  1  0  0  0
 55 56  1  0  0  0
 50 53  1  0  0  0
M  END
> <minimizedAffinity>
-10.01992

$$$$
4ZEC_C84_A_601


 56 59  0  0  0  0  0  0  0  0999 V2000
  -11.3316  -29.0188   23.1007 N   0  0  0  0  0  0  0  0  0  0  0  0
  -10.7732  -28.1549   24.0062 C   0  0  0  0  0  0  0  0  0  0  0  0
  -10.2517  -27.1013   23.3155 N   0  0  0  0  0  0  0  0  0  0  0  0
  -10.5224  -27.2965   21.9421 C   0  0  0  0  0  0  0  0  0  0  0  0
  -11.2191  -28.5151   21.7916 C   0  0  0  0  0  0  0  0  0  0  0  0
  -11.6213  -28.9197   20.5098 N   0  0  0  0  0  0  0  0  0  0  0  0
  -11.3485  -28.1352   19.4148 C   0  0  0  0  0  0  0  0  0  0  0  0
  -10.6585  -26.9451   19.5350 N   0  0  0  0  0  0  0  0  0  0  0  0
  -10.2154  -26.5069   20.7511 C   0  0  0  0  0  0  0  0  0  0  0  0
  -13.6530  -30.7329   24.8769 C   0  0  0  0  0  0  0  0  0  0  0  0
  -13.4115  -30.0821   23.5822 O   0  0  0  0  0  0  0  0  0  0  0  0
  -12.3629  -31.3031   25.3022 C   0  0  0  0  0  0  0  0  0  0  0  0
  -11.5665  -31.4074   24.0770 C   0  0  0  0  0  0  0  0  0  0  0  0
  -10.2456  -31.3151   24.3583 O   0  0  0  0  0  0  0  0  0  0  0  0
  -12.0756  -30.2993   23.1926 C   0  0  0  0  0  0  0  0  0  0  0  0
  -10.0695  -30.4760   24.8118 H   0  0  0  0  0  0  0  0  0  0  0  0
  -14.0460  -29.8187   25.7530 O   0  0  0  0  0  0  0  0  0  0  0  0
  -15.0362  -28.6378   25.4446 P   0  0  0  0  0  0  0  0  0  0  0  0
  -16.3932  -29.1814   24.8670 O   0  0  0  0  0  0  0  0  0  0  0  0
  -15.2647  -27.7376   26.7075 O   0  0  0  0  0  0  0  0  0  0  0  0
  -16.8178  -29.7546   25.5242 H   0  0  0  0  0  0  0  0  0  0  0  0
  -15.1251  -26.5702   23.6539 C   0  0  0  0  0  0  0  0  0  0  0  0
  -16.2705  -26.4003   24.0189 O   0  0  0  0  0  0  0  0  0  0  0  0
  -14.3633  -27.6626   24.2644 N   0  0  0  0  0  0  0  0  0  0  0  0
  -13.4368  -27.8259   23.9741 H   0  0  0  0  0  0  0  0  0  0  0  0
  -14.4766  -25.7167   22.5827 C   0  0  0  0  0  0  0  0  0  0  0  0
  -15.1058  -24.4971   22.5161 O   0  0  0  0  0  0  0  0  0  0  0  0
  -16.0247  -24.6225   22.2318 H   0  0  0  0  0  0  0  0  0  0  0  0
  -14.3308  -26.3642   21.1952 C   0  0  0  0  0  0  0  0  0  0  0  0
  -14.0372  -27.7246   21.3445 O   0  0  0  0  0  0  0  0  0  0  0  0
  -14.7786  -28.1689   21.7848 H   0  0  0  0  0  0  0  0  0  0  0  0
  -15.2864  -26.5309   18.7842 C   0  0  0  0  0  0  0  0  0  0  0  0
  -15.4787  -26.0352   20.1780 C   0  0  0  0  0  0  0  0  0  0  0  0
  -16.8959  -26.0187   20.6615 C   0  0  0  0  0  0  0  0  0  0  0  0
   -9.5336  -25.2222   20.9074 N   0  0  0  0  0  0  0  0  0  0  0  0
   -8.5591  -25.2099   20.7685 H   0  0  0  0  0  0  0  0  0  0  0  0
  -10.2616  -23.7859   21.2984 P   0  0  0  0  0  0  0  0  0  0  0  0
   -9.2221  -22.8781   21.9472 O   0  0  0  0  0  0  0  0  0  0  0  0
  -10.6971  -23.0942   20.0147 O   0  0  0  0  0  0  0  0  0  0  0  0
  -11.1252  -22.2510   20.2310 H   0  0  0  0  0  0  0  0  0  0  0  0
  -11.4813  -24.0843   22.2771 O   0  0  0  0  0  0  0  0  0  0  0  0
  -11.6878  -23.2966   23.4256 C   0  0  0  0  0  0  0  0  0  0  0  0
  -11.7885  -24.0858   24.7006 C   0  0  0  0  0  0  0  0  0  0  0  0
  -10.4640  -24.5135   25.1624 O   0  0  0  0  0  0  0  0  0  0  0  0
  -12.4481  -23.3384   25.7728 C   0  0  0  0  0  0  0  0  0  0  0  0
  -12.5116  -24.0204   27.0243 O   0  0  0  0  0  0  0  0  0  0  0  0
  -13.6464  -22.4506   25.4878 C   0  0  0  0  0  0  0  0  0  0  0  0
  -13.8072  -22.1269   24.0306 O   0  0  0  0  0  0  0  0  0  0  0  0
  -12.6921  -22.1768   23.1749 C   0  0  0  0  0  0  0  0  0  0  0  0
  -13.0708  -21.9766   21.8476 O   0  0  0  0  0  0  0  0  0  0  0  0
   -9.9259  -23.7332   25.3685 H   0  0  0  0  0  0  0  0  0  0  0  0
  -13.1726  -24.7285   26.9735 H   0  0  0  0  0  0  0  0  0  0  0  0
  -13.6298  -22.7138   21.5562 H   0  0  0  0  0  0  0  0  0  0  0  0
  -13.6714  -21.1552   26.2346 C   0  0  0  0  0  0  0  0  0  0  0  0
  -12.7291  -21.0300   27.2433 O   0  0  0  0  0  0  0  0  0  0  0  0
  -11.8387  -21.0624   26.8598 H   0  0  0  0  0  0  0  0  0  0  0  0
 55 54  1  0  0  0
 54 47  1  0  0  0
 48 47  1  0  0  0
 48 49  1  0  0  0
 47 45  1  0  0  0
 50 49  1  0  0  0
 49 42  1  0  0  0
 46 45  1  0  0  0
 45 43  1  0  0  0
 43 42  1  0  0  0
 43 44  1  0  0  0
 42 41  1  0  0  0
 41 37  1  0  0  0
 37 38  2  0  0  0
 37 39  1  0  0  0
 37 35  1  0  0  0
 35  9  1  0  0  0
  9  4  2  0  0  0
  9  8  1  0  0  0
  3  4  1  0  0  0
  3  2  2  0  0  0
  4  5  1  0  0  0
  8  7  2  0  0  0
  2  1  1  0  0  0
  5  1  1  0  0  0
  5  6  2  0  0  0
  7  6  1  0  0  0
  1 15  1  0  0  0
 14 13  1  0  0  0
 20 18  2  0  0  0
 15 11  1  0  0  0
 15 13  1  0  0  0
 17 18  1  0  0  0
 17 10  1  0  0  0
 11 10  1  0  0  0
 13 12  1  0  0  0
 12 10  1  0  0  0
 18 24  1  0  0  0
 18 19  1  0  0  0
 27 26  1  0  0  0
 24 22  1  0  0  0
 22 23  2  0  0  0
 22 26  1  0  0  0
 30 29  1  0  0  0
 26 29  1  0  0  0
 29 33  1  0  0  0
 32 33  1  0  0  0
 33 34  1  0  0  0
 14 16  1  0  0  0
 35 36  1  0  0  0
 30 31  1  0  0  0
 27 28  1  0  0  0
 24 25  1  0  0  0
 19 21  1  0  0  0
 39 40  1  0  0  0
 44 51  1  0  0  0
 46 52  1  0  0  0
 55 56  1  0  0  0
 50 53  1  0  0  0
M  END
> <minimizedAffinity>
-9.87632

$$$$
4ZEC_C84_A_601


 56 59  0  0  0  0  0  0  0  0999 V2000
  -12.2463  -29.1925   24.4877 N   0  0  0  0  0  0  0  0  0  0  0  0
  -11.4623  -28.5454   25.4067 C   0  0  0  0  0  0  0  0  0  0  0  0
  -10.4019  -28.0005   24.7453 N   0  0  0  0  0  0  0  0  0  0  0  0
  -10.5459  -28.2870   23.3687 C   0  0  0  0  0  0  0  0  0  0  0  0
  -11.7251  -29.0421   23.1892 C   0  0  0  0  0  0  0  0  0  0  0  0
  -12.0977  -29.4318   21.8940 N   0  0  0  0  0  0  0  0  0  0  0  0
  -11.3291  -29.0753   20.8118 C   0  0  0  0  0  0  0  0  0  0  0  0
  -10.1656  -28.3471   20.9629 N   0  0  0  0  0  0  0  0  0  0  0  0
   -9.7325  -27.9591   22.1996 C   0  0  0  0  0  0  0  0  0  0  0  0
  -15.5727  -28.9058   25.0660 C   0  0  0  0  0  0  0  0  0  0  0  0
  -14.5832  -29.1655   24.0117 O   0  0  0  0  0  0  0  0  0  0  0  0
  -15.0298  -29.4988   26.3004 C   0  0  0  0  0  0  0  0  0  0  0  0
  -14.0359  -30.4772   25.8518 C   0  0  0  0  0  0  0  0  0  0  0  0
  -13.0681  -30.6352   26.7849 O   0  0  0  0  0  0  0  0  0  0  0  0
  -13.5293  -29.9360   24.5403 C   0  0  0  0  0  0  0  0  0  0  0  0
  -12.6498  -29.7788   26.9651 H   0  0  0  0  0  0  0  0  0  0  0  0
  -15.7036  -27.5957   25.2219 O   0  0  0  0  0  0  0  0  0  0  0  0
  -15.3040  -26.5138   24.1541 P   0  0  0  0  0  0  0  0  0  0  0  0
  -16.0872  -25.1727   24.3956 O   0  0  0  0  0  0  0  0  0  0  0  0
  -13.7539  -26.2813   24.1270 O   0  0  0  0  0  0  0  0  0  0  0  0
  -15.8600  -24.8184   25.2695 H   0  0  0  0  0  0  0  0  0  0  0  0
  -15.7946  -26.1609   21.4850 C   0  0  0  0  0  0  0  0  0  0  0  0
  -15.5244  -24.9910   21.6652 O   0  0  0  0  0  0  0  0  0  0  0  0
  -15.7423  -27.0645   22.6370 N   0  0  0  0  0  0  0  0  0  0  0  0
  -15.9697  -28.0146   22.5157 H   0  0  0  0  0  0  0  0  0  0  0  0
  -16.2042  -26.7028   20.1303 C   0  0  0  0  0  0  0  0  0  0  0  0
  -17.1128  -27.7206   20.2924 O   0  0  0  0  0  0  0  0  0  0  0  0
  -16.6897  -28.4611   20.7547 H   0  0  0  0  0  0  0  0  0  0  0  0
  -15.0587  -27.1006   19.1841 C   0  0  0  0  0  0  0  0  0  0  0  0
  -14.0873  -27.8092   19.9007 O   0  0  0  0  0  0  0  0  0  0  0  0
  -14.4716  -28.6335   20.2380 H   0  0  0  0  0  0  0  0  0  0  0  0
  -16.6909  -27.1500   17.1625 C   0  0  0  0  0  0  0  0  0  0  0  0
  -15.5044  -27.7580   17.8314 C   0  0  0  0  0  0  0  0  0  0  0  0
  -14.4583  -28.3025   16.9083 C   0  0  0  0  0  0  0  0  0  0  0  0
   -8.5343  -27.1388   22.3757 N   0  0  0  0  0  0  0  0  0  0  0  0
   -7.8882  -27.4268   23.0604 H   0  0  0  0  0  0  0  0  0  0  0  0
   -8.1716  -25.7662   21.5212 P   0  0  0  0  0  0  0  0  0  0  0  0
   -6.6602  -25.7017   21.3291 O   0  0  0  0  0  0  0  0  0  0  0  0
   -8.7785  -25.8825   20.1304 O   0  0  0  0  0  0  0  0  0  0  0  0
   -8.5726  -25.0837   19.6200 H   0  0  0  0  0  0  0  0  0  0  0  0
   -8.7211  -24.5069   22.3254 O   0  0  0  0  0  0  0  0  0  0  0  0
  -10.1057  -24.2833   22.4480 C   0  0  0  0  0  0  0  0  0  0  0  0
  -10.6033  -23.0861   21.6881 C   0  0  0  0  0  0  0  0  0  0  0  0
  -10.7199  -23.3810   20.2563 O   0  0  0  0  0  0  0  0  0  0  0  0
  -11.8948  -22.6048   22.1818 C   0  0  0  0  0  0  0  0  0  0  0  0
  -12.4419  -21.5080   21.4517 O   0  0  0  0  0  0  0  0  0  0  0  0
  -12.2065  -22.5792   23.6676 C   0  0  0  0  0  0  0  0  0  0  0  0
  -11.2705  -23.4255   24.4811 O   0  0  0  0  0  0  0  0  0  0  0  0
  -10.5930  -24.4997   23.8767 C   0  0  0  0  0  0  0  0  0  0  0  0
   -9.6768  -25.0728   24.7584 O   0  0  0  0  0  0  0  0  0  0  0  0
  -11.3792  -24.0799   20.1228 H   0  0  0  0  0  0  0  0  0  0  0  0
  -11.9467  -20.7008   21.6615 H   0  0  0  0  0  0  0  0  0  0  0  0
   -8.9777  -24.4315   24.9603 H   0  0  0  0  0  0  0  0  0  0  0  0
  -13.5994  -22.9825   24.0333 C   0  0  0  0  0  0  0  0  0  0  0  0
  -14.5773  -22.6568   23.1067 O   0  0  0  0  0  0  0  0  0  0  0  0
  -14.4067  -23.1292   22.2769 H   0  0  0  0  0  0  0  0  0  0  0  0
 55 54  1  0  0  0
 54 47  1  0  0  0
 48 47  1  0  0  0
 48 49  1  0  0  0
 47 45  1  0  0  0
 50 49  1  0  0  0
 49 42  1  0  0  0
 46 45  1  0  0  0
 45 43  1  0  0  0
 43 42  1  0  0  0
 43 44  1  0  0  0
 42 41  1  0  0  0
 41 37  1  0  0  0
 37 38  2  0  0  0
 37 39  1  0  0  0
 37 35  1  0  0  0
 35  9  1  0  0  0
  9  4  2  0  0  0
  9  8  1  0  0  0
  3  4  1  0  0  0
  3  2  2  0  0  0
  4  5  1  0  0  0
  8  7  2  0  0  0
  2  1  1  0  0  0
  5  1  1  0  0  0
  5  6  2  0  0  0
  7  6  1  0  0  0
  1 15  1  0  0  0
 14 13  1  0  0  0
 20 18  2  0  0  0
 15 11  1  0  0  0
 15 13  1  0  0  0
 17 18  1  0  0  0
 17 10  1  0  0  0
 11 10  1  0  0  0
 13 12  1  0  0  0
 12 10  1  0  0  0
 18 24  1  0  0  0
 18 19  1  0  0  0
 27 26  1  0  0  0
 24 22  1  0  0  0
 22 23  2  0  0  0
 22 26  1  0  0  0
 30 29  1  0  0  0
 26 29  1  0  0  0
 29 33  1  0  0  0
 32 33  1  0  0  0
 33 34  1  0  0  0
 14 16  1  0  0  0
 35 36  1  0  0  0
 30 31  1  0  0  0
 27 28  1  0  0  0
 24 25  1  0  0  0
 19 21  1  0  0  0
 39 40  1  0  0  0
 44 51  1  0  0  0
 46 52  1  0  0  0
 55 56  1  0  0  0
 50 53  1  0  0  0
M  END
> <minimizedAffinity>
-9.77275

$$$$
