3LGS_SAH_A_268
  RCSB PDB12061709363D
Coordinates from PDB:3LGS:A:268 Model:1 without hydrogens
 17 19  0  0  0  0            999 V2000
   21.5800   -7.9660    8.5140   C 0  0  0  0  0  0  0  0  0  0  0  0
   22.0840   -9.2510    8.8970   O 0  0  0  0  0  0  0  0  0  0  0  0
   21.4010   -7.1640    9.7920   C 0  0  0  0  0  0  0  0  0  0  0  0
   20.0400   -6.7200    9.9090   O 0  0  0  0  0  0  0  0  0  0  0  0
   21.7490   -8.1080   10.9350   C 0  0  0  0  0  0  0  0  0  0  0  0
   20.5550   -8.4860   11.6440   O 0  0  0  0  0  0  0  0  0  0  0  0
   22.3580   -9.3410   10.3010   C 0  0  0  0  0  0  0  0  0  0  0  0
   23.8220   -9.4950   10.5860   N 0  0  0  0  0  0  0  0  0  0  0  0
   24.6880  -10.2080    9.8320   C 0  0  0  0  0  0  0  0  0  0  0  0
   25.9410  -10.1740   10.3520   N 0  0  0  0  0  0  0  0  0  0  0  0
   25.9020   -9.4290   11.4660   C 0  0  0  0  0  0  0  0  0  0  0  0
   26.8840   -8.9870   12.4920   C 0  0  0  0  0  0  0  0  0  0  0  0
   28.2000   -9.3300   12.4340   N 0  0  0  0  0  0  0  0  0  0  0  0
   26.4270   -8.2060   13.4920   N 0  0  0  0  0  0  0  0  0  0  0  0
   25.1400   -7.8430   13.5600   C 0  0  0  0  0  0  0  0  0  0  0  0
   24.2020   -8.2120   12.6700   N 0  0  0  0  0  0  0  0  0  0  0  0
   24.5060   -8.9900   11.6130   C 0  0  0  0  0  0  0  0  0  0  0  0
  1  2  1  0  0  0  0
  1  3  1  0  0  0  0
  2  7  1  0  0  0  0
  3  4  1  0  0  0  0
  3  5  1  0  0  0  0
  5  6  1  0  0  0  0
  5  7  1  0  0  0  0
  7  8  1  0  0  0  0
  8  9  1  0  0  0  0
  8 17  1  0  0  0  0
  9 10  2  0  0  0  0
 10 11  1  0  0  0  0
 11 12  1  0  0  0  0
 11 17  2  0  0  0  0
 12 13  1  0  0  0  0
 12 14  2  0  0  0  0
 14 15  1  0  0  0  0
 15 16  2  0  0  0  0
 16 17  1  0  0  0  0
A    1
C4'
A    2
O4'
A    3
C3'
A    4
O3'
A    5
C2'
A    6
O2'
A    7
C1'
A    8
N9
A    9
C8
A   10
N7
A   11
C5
A   12
C6
A   13
N6
A   14
N1
A   15
C2
A   16
N3
A   17
C4
M  END
>  <InstanceId>
3LGS_SAH_A_268

>  <ChemCompId>
SAH

>  <PdbId>
3LGS

>  <ChainId>
A

>  <ResidueNumber>
268

>  <InsertionCode>


>  <Model>
1

>  <AltIds>


>  <MissingHeavyAtoms>
9

>  <ObservedFormula>
C9 N5 O3

>  <Name>
S-ADENOSYL-L-HOMOCYSTEINE

>  <SystematicName>
(2S)-2-amino-4-[[(2S,3S,4R,5R)-5-(6-aminopurin-9-yl)-3,4-dihydroxy-oxolan-2-yl]methylsulfanyl]butanoic acid

>  <Synonyms>


>  <Type>
L-PEPTIDE LINKING

>  <Formula>
C14 H20 N6 O5 S

>  <MolecularWeight>
384.411

>  <ModifiedDate>
2011-06-04

>  <Parent>
CYS

>  <OneLetterCode>
C

>  <SubcomponentList>


>  <AmbiguousFlag>
N

>  <InChI>
InChI=1S/C14H20N6O5S/c15-6(14(23)24)1-2-26-3-7-9(21)10(22)13(25-7)20-5-19-8-11(16)17-4-18-12(8)20/h4-7,9-10,13,21-22H,1-3,15H2,(H,23,24)(H2,16,17,18)/t6-,7+,9+,10+,13+/m0/s1

>  <InChIKey>
ZJUKTBDSGOFHSH-WFMPWKQPSA-N

>  <SMILES>
c1nc(c2c(n1)n(cn2)[C@H]3[C@@H]([C@@H]([C@H](O3)CSCC[C@@H](C(=O)O)N)O)O)N

$$$$
