3LGS_SAH_A_268


 21 23  0  0  0  0  0  0  0  0999 V2000
   23.6868   -9.4461   10.3950 N   0  0  0  0  0  0  0  0  0  0  0  0
   24.5508  -10.1306    9.6128 C   0  0  0  0  0  0  0  0  0  0  0  0
   25.8058  -10.1131   10.1286 N   0  0  0  0  0  0  0  0  0  0  0  0
   25.7703   -9.4080   11.2685 C   0  0  0  0  0  0  0  0  0  0  0  0
   26.7558   -9.0011   12.3056 C   0  0  0  0  0  0  0  0  0  0  0  0
   28.0720   -9.3398   12.2302 N   0  0  0  0  0  0  0  0  0  0  0  0
   26.3017   -8.2567   13.3344 N   0  0  0  0  0  0  0  0  0  0  0  0
   25.0145   -7.8984   13.4204 C   0  0  0  0  0  0  0  0  0  0  0  0
   24.0734   -8.2371   12.5216 N   0  0  0  0  0  0  0  0  0  0  0  0
   24.3743   -8.9767   11.4365 C   0  0  0  0  0  0  0  0  0  0  0  0
   28.3981   -9.8834   11.4769 H   0  0  0  0  0  0  0  0  0  0  0  0
   28.6979   -9.0411   12.9290 H   0  0  0  0  0  0  0  0  0  0  0  0
   21.4284   -7.7475    8.4789 C   0  0  0  0  0  0  0  0  0  0  0  0
   21.9495   -9.0574    8.7326 O   0  0  0  0  0  0  0  0  0  0  0  0
   21.2351   -7.0806    9.8303 C   0  0  0  0  0  0  0  0  0  0  0  0
   19.8677   -6.6694    9.9863 O   0  0  0  0  0  0  0  0  0  0  0  0
   21.5937   -8.1299   10.8739 C   0  0  0  0  0  0  0  0  0  0  0  0
   20.4035   -8.5937   11.5369 O   0  0  0  0  0  0  0  0  0  0  0  0
   22.2215   -9.2844   10.1215 C   0  0  0  0  0  0  0  0  0  0  0  0
   19.2863   -7.4412    9.9014 H   0  0  0  0  0  0  0  0  0  0  0  0
   19.7917   -8.9638   10.8814 H   0  0  0  0  0  0  0  0  0  0  0  0
 13 14  1  0  0  0
 13 15  1  0  0  0
 14 19  1  0  0  0
 15 16  1  0  0  0
 15 17  1  0  0  0
 17 18  1  0  0  0
 17 19  1  0  0  0
 19  1  1  0  0  0
  1  2  1  0  0  0
  1 10  1  0  0  0
  2  3  2  0  0  0
  3  4  1  0  0  0
  4  5  1  0  0  0
  4 10  2  0  0  0
  5  6  1  0  0  0
  5  7  2  0  0  0
  7  8  1  0  0  0
  8  9  2  0  0  0
  9 10  1  0  0  0
 16 20  1  0  0  0
 18 21  1  0  0  0
  6 11  1  0  0  0
  6 12  1  0  0  0
M  END
> <minimizedAffinity>
-8.44147

$$$$
3LGS_SAH_A_268


 21 23  0  0  0  0  0  0  0  0999 V2000
   23.0766   -8.7078   10.8017 N   0  0  0  0  0  0  0  0  0  0  0  0
   23.6062   -9.4577    9.8097 C   0  0  0  0  0  0  0  0  0  0  0  0
   24.9070   -9.7561   10.0556 N   0  0  0  0  0  0  0  0  0  0  0  0
   25.2411   -9.1965   11.2272 C   0  0  0  0  0  0  0  0  0  0  0  0
   26.4672   -9.1224   12.0660 C   0  0  0  0  0  0  0  0  0  0  0  0
   27.6377   -9.7106   11.6961 N   0  0  0  0  0  0  0  0  0  0  0  0
   26.3890   -8.4264   13.2186 N   0  0  0  0  0  0  0  0  0  0  0  0
   25.2526   -7.8262   13.5943 C   0  0  0  0  0  0  0  0  0  0  0  0
   24.1099   -7.8592   12.8863 N   0  0  0  0  0  0  0  0  0  0  0  0
   24.0321   -8.5128   11.7109 C   0  0  0  0  0  0  0  0  0  0  0  0
   27.6892  -10.2175   10.8537 H   0  0  0  0  0  0  0  0  0  0  0  0
   28.4328   -9.6291   12.2709 H   0  0  0  0  0  0  0  0  0  0  0  0
   19.8511   -9.7071   11.3069 C   0  0  0  0  0  0  0  0  0  0  0  0
   20.8887   -8.8869   11.8571 O   0  0  0  0  0  0  0  0  0  0  0  0
   19.8629   -9.4836    9.8041 C   0  0  0  0  0  0  0  0  0  0  0  0
   18.5726   -9.0326    9.3625 O   0  0  0  0  0  0  0  0  0  0  0  0
   20.9142   -8.4130    9.5447 C   0  0  0  0  0  0  0  0  0  0  0  0
   20.2781   -7.1745    9.1805 O   0  0  0  0  0  0  0  0  0  0  0  0
   21.6593   -8.2205   10.8489 C   0  0  0  0  0  0  0  0  0  0  0  0
   18.3403   -8.2131    9.8266 H   0  0  0  0  0  0  0  0  0  0  0  0
   19.6805   -6.8964    9.8922 H   0  0  0  0  0  0  0  0  0  0  0  0
 13 14  1  0  0  0
 13 15  1  0  0  0
 14 19  1  0  0  0
 15 16  1  0  0  0
 15 17  1  0  0  0
 17 18  1  0  0  0
 17 19  1  0  0  0
 19  1  1  0  0  0
  1  2  1  0  0  0
  1 10  1  0  0  0
  2  3  2  0  0  0
  3  4  1  0  0  0
  4  5  1  0  0  0
  4 10  2  0  0  0
  5  6  1  0  0  0
  5  7  2  0  0  0
  7  8  1  0  0  0
  8  9  2  0  0  0
  9 10  1  0  0  0
 16 20  1  0  0  0
 18 21  1  0  0  0
  6 11  1  0  0  0
  6 12  1  0  0  0
M  END
> <minimizedAffinity>
-7.75973

$$$$
3LGS_SAH_A_268


 21 23  0  0  0  0  0  0  0  0999 V2000
   22.8019   -8.9034   10.4449 N   0  0  0  0  0  0  0  0  0  0  0  0
   22.4684   -8.4631   11.6785 C   0  0  0  0  0  0  0  0  0  0  0  0
   23.5335   -8.4919   12.5189 N   0  0  0  0  0  0  0  0  0  0  0  0
   24.5859   -8.9566   11.8304 C   0  0  0  0  0  0  0  0  0  0  0  0
   26.0158   -9.2409   12.1253 C   0  0  0  0  0  0  0  0  0  0  0  0
   26.5573   -9.0417   13.3581 N   0  0  0  0  0  0  0  0  0  0  0  0
   26.7713   -9.7284   11.1201 N   0  0  0  0  0  0  0  0  0  0  0  0
   26.2557   -9.9474    9.9040 C   0  0  0  0  0  0  0  0  0  0  0  0
   24.9753   -9.7069    9.5707 N   0  0  0  0  0  0  0  0  0  0  0  0
   24.0965   -9.2213   10.4690 C   0  0  0  0  0  0  0  0  0  0  0  0
   26.0013   -8.6856   14.0883 H   0  0  0  0  0  0  0  0  0  0  0  0
   27.5051   -9.2537   13.5196 H   0  0  0  0  0  0  0  0  0  0  0  0
   20.8824   -7.0242    8.3374 C   0  0  0  0  0  0  0  0  0  0  0  0
   22.0271   -7.8846    8.3726 O   0  0  0  0  0  0  0  0  0  0  0  0
   19.8215   -7.6658    9.2157 C   0  0  0  0  0  0  0  0  0  0  0  0
   18.6211   -7.8855    8.4582 O   0  0  0  0  0  0  0  0  0  0  0  0
   20.4043   -8.9940    9.6794 C   0  0  0  0  0  0  0  0  0  0  0  0
   19.7415  -10.0836    9.0126 O   0  0  0  0  0  0  0  0  0  0  0  0
   21.8643   -8.9841    9.2777 C   0  0  0  0  0  0  0  0  0  0  0  0
   18.8191   -8.4511    7.6954 H   0  0  0  0  0  0  0  0  0  0  0  0
   19.8441   -9.9858    8.0530 H   0  0  0  0  0  0  0  0  0  0  0  0
 13 14  1  0  0  0
 13 15  1  0  0  0
 14 19  1  0  0  0
 15 16  1  0  0  0
 15 17  1  0  0  0
 17 18  1  0  0  0
 17 19  1  0  0  0
 19  1  1  0  0  0
  1  2  1  0  0  0
  1 10  1  0  0  0
  2  3  2  0  0  0
  3  4  1  0  0  0
  4  5  1  0  0  0
  4 10  2  0  0  0
  5  6  1  0  0  0
  5  7  2  0  0  0
  7  8  1  0  0  0
  8  9  2  0  0  0
  9 10  1  0  0  0
 16 20  1  0  0  0
 18 21  1  0  0  0
  6 11  1  0  0  0
  6 12  1  0  0  0
M  END
> <minimizedAffinity>
-7.29995

$$$$
3LGS_SAH_A_268


 21 23  0  0  0  0  0  0  0  0999 V2000
   22.1729   -8.5562   10.7749 N   0  0  0  0  0  0  0  0  0  0  0  0
   21.4507   -8.8825   11.8698 C   0  0  0  0  0  0  0  0  0  0  0  0
   20.1860   -9.2462   11.5380 N   0  0  0  0  0  0  0  0  0  0  0  0
   20.0715   -9.1600   10.2050 C   0  0  0  0  0  0  0  0  0  0  0  0
   18.9952   -9.3979    9.2063 C   0  0  0  0  0  0  0  0  0  0  0  0
   17.7463   -9.8026    9.5661 N   0  0  0  0  0  0  0  0  0  0  0  0
   19.2933   -9.1795    7.9093 N   0  0  0  0  0  0  0  0  0  0  0  0
   20.5102   -8.7657    7.5342 C   0  0  0  0  0  0  0  0  0  0  0  0
   21.5269   -8.5379    8.3841 N   0  0  0  0  0  0  0  0  0  0  0  0
   21.3820   -8.7090    9.7125 C   0  0  0  0  0  0  0  0  0  0  0  0
   17.5342   -9.9605   10.5144 H   0  0  0  0  0  0  0  0  0  0  0  0
   17.0552   -9.9373    8.8780 H   0  0  0  0  0  0  0  0  0  0  0  0
   25.3425   -9.5666   10.0068 C   0  0  0  0  0  0  0  0  0  0  0  0
   24.3335   -8.6139    9.6517 O   0  0  0  0  0  0  0  0  0  0  0  0
   25.3649   -9.6400   11.5243 C   0  0  0  0  0  0  0  0  0  0  0  0
   26.6807   -9.3359   12.0133 O   0  0  0  0  0  0  0  0  0  0  0  0
   24.3662   -8.5992   12.0120 C   0  0  0  0  0  0  0  0  0  0  0  0
   25.0621   -7.4819   12.5940 O   0  0  0  0  0  0  0  0  0  0  0  0
   23.6093   -8.1264   10.7886 C   0  0  0  0  0  0  0  0  0  0  0  0
   26.9415   -8.4517   11.7115 H   0  0  0  0  0  0  0  0  0  0  0  0
   25.6599   -7.0947   11.9354 H   0  0  0  0  0  0  0  0  0  0  0  0
 13 14  1  0  0  0
 13 15  1  0  0  0
 14 19  1  0  0  0
 15 16  1  0  0  0
 15 17  1  0  0  0
 17 18  1  0  0  0
 17 19  1  0  0  0
 19  1  1  0  0  0
  1  2  1  0  0  0
  1 10  1  0  0  0
  2  3  2  0  0  0
  3  4  1  0  0  0
  4  5  1  0  0  0
  4 10  2  0  0  0
  5  6  1  0  0  0
  5  7  2  0  0  0
  7  8  1  0  0  0
  8  9  2  0  0  0
  9 10  1  0  0  0
 16 20  1  0  0  0
 18 21  1  0  0  0
  6 11  1  0  0  0
  6 12  1  0  0  0
M  END
> <minimizedAffinity>
-6.27273

$$$$
3LGS_SAH_A_268


 21 23  0  0  0  0  0  0  0  0999 V2000
   23.6816   -8.6571   10.6740 N   0  0  0  0  0  0  0  0  0  0  0  0
   24.0368   -8.0354    9.5276 C   0  0  0  0  0  0  0  0  0  0  0  0
   22.9499   -7.5815    8.8537 N   0  0  0  0  0  0  0  0  0  0  0  0
   21.8613   -7.9069    9.5655 C   0  0  0  0  0  0  0  0  0  0  0  0
   20.3924   -7.7280    9.4154 C   0  0  0  0  0  0  0  0  0  0  0  0
   19.8425   -7.1032    8.3383 N   0  0  0  0  0  0  0  0  0  0  0  0
   19.6040   -8.2285   10.3884 N   0  0  0  0  0  0  0  0  0  0  0  0
   20.1223   -8.8610   11.4487 C   0  0  0  0  0  0  0  0  0  0  0  0
   21.4386   -9.0510   11.6471 N   0  0  0  0  0  0  0  0  0  0  0  0
   22.3520   -8.6103   10.7603 C   0  0  0  0  0  0  0  0  0  0  0  0
   20.4227   -6.7396    7.6309 H   0  0  0  0  0  0  0  0  0  0  0  0
   18.8646   -7.0148    8.2667 H   0  0  0  0  0  0  0  0  0  0  0  0
   25.3743   -8.0440   13.5751 C   0  0  0  0  0  0  0  0  0  0  0  0
   24.3496   -8.8680   13.0068 O   0  0  0  0  0  0  0  0  0  0  0  0
   26.4958   -7.9675   12.5529 C   0  0  0  0  0  0  0  0  0  0  0  0
   27.7257   -8.4278   13.1348 O   0  0  0  0  0  0  0  0  0  0  0  0
   26.0821   -8.8768   11.4036 C   0  0  0  0  0  0  0  0  0  0  0  0
   26.8896  -10.0681   11.4014 O   0  0  0  0  0  0  0  0  0  0  0  0
   24.6392   -9.2588   11.6586 C   0  0  0  0  0  0  0  0  0  0  0  0
   27.6136   -9.3385   13.4495 H   0  0  0  0  0  0  0  0  0  0  0  0
   26.7895  -10.5281   12.2495 H   0  0  0  0  0  0  0  0  0  0  0  0
 13 14  1  0  0  0
 13 15  1  0  0  0
 14 19  1  0  0  0
 15 16  1  0  0  0
 15 17  1  0  0  0
 17 18  1  0  0  0
 17 19  1  0  0  0
 19  1  1  0  0  0
  1  2  1  0  0  0
  1 10  1  0  0  0
  2  3  2  0  0  0
  3  4  1  0  0  0
  4  5  1  0  0  0
  4 10  2  0  0  0
  5  6  1  0  0  0
  5  7  2  0  0  0
  7  8  1  0  0  0
  8  9  2  0  0  0
  9 10  1  0  0  0
 16 20  1  0  0  0
 18 21  1  0  0  0
  6 11  1  0  0  0
  6 12  1  0  0  0
M  END
> <minimizedAffinity>
-6.17243

$$$$
3LGS_SAH_A_268


 21 23  0  0  0  0  0  0  0  0999 V2000
   22.0174   -7.5713    9.3072 N   0  0  0  0  0  0  0  0  0  0  0  0
   22.5557   -7.6888   10.5414 C   0  0  0  0  0  0  0  0  0  0  0  0
   21.8155   -8.5105   11.3278 N   0  0  0  0  0  0  0  0  0  0  0  0
   20.7742   -8.9431   10.6025 C   0  0  0  0  0  0  0  0  0  0  0  0
   19.6059   -9.8340   10.8341 C   0  0  0  0  0  0  0  0  0  0  0  0
   19.3809  -10.4413   12.0314 N   0  0  0  0  0  0  0  0  0  0  0  0
   18.7488  -10.0121    9.8082 N   0  0  0  0  0  0  0  0  0  0  0  0
   18.9416   -9.4119    8.6270 C   0  0  0  0  0  0  0  0  0  0  0  0
   19.9780   -8.6008    8.3509 N   0  0  0  0  0  0  0  0  0  0  0  0
   20.9169   -8.3234    9.2763 C   0  0  0  0  0  0  0  0  0  0  0  0
   20.0098  -10.3077   12.7770 H   0  0  0  0  0  0  0  0  0  0  0  0
   18.5892  -11.0140   12.1518 H   0  0  0  0  0  0  0  0  0  0  0  0
   23.9076   -4.8100    8.6292 C   0  0  0  0  0  0  0  0  0  0  0  0
   23.8933   -6.2375    8.5105 O   0  0  0  0  0  0  0  0  0  0  0  0
   22.5194   -4.3223    8.2503 C   0  0  0  0  0  0  0  0  0  0  0  0
   22.6052   -3.3842    7.1660 O   0  0  0  0  0  0  0  0  0  0  0  0
   21.7408   -5.5580    7.8196 C   0  0  0  0  0  0  0  0  0  0  0  0
   21.5457   -5.5464    6.3938 O   0  0  0  0  0  0  0  0  0  0  0  0
   22.5943   -6.7524    8.1915 C   0  0  0  0  0  0  0  0  0  0  0  0
   23.0366   -3.8062    6.4067 H   0  0  0  0  0  0  0  0  0  0  0  0
   22.4077   -5.5179    5.9497 H   0  0  0  0  0  0  0  0  0  0  0  0
 13 14  1  0  0  0
 13 15  1  0  0  0
 14 19  1  0  0  0
 15 16  1  0  0  0
 15 17  1  0  0  0
 17 18  1  0  0  0
 17 19  1  0  0  0
 19  1  1  0  0  0
  1  2  1  0  0  0
  1 10  1  0  0  0
  2  3  2  0  0  0
  3  4  1  0  0  0
  4  5  1  0  0  0
  4 10  2  0  0  0
  5  6  1  0  0  0
  5  7  2  0  0  0
  7  8  1  0  0  0
  8  9  2  0  0  0
  9 10  1  0  0  0
 16 20  1  0  0  0
 18 21  1  0  0  0
  6 11  1  0  0  0
  6 12  1  0  0  0
M  END
> <minimizedAffinity>
-5.52657

$$$$
