4ZLS_G61_B_201


 47 49  0  0  0  0  0  0  0  0999 V2000
   14.4539   20.4478   18.5788 C   0  0  0  0  0  0  0  0  0  0  0  0
   14.4060   20.4310   17.1106 N   0  0  0  0  0  0  0  0  0  0  0  0
   13.2635   20.6075   16.4280 C   0  0  0  0  0  0  0  0  0  0  0  0
   12.1782   20.6397   17.0239 O   0  0  0  0  0  0  0  0  0  0  0  0
   15.2409   20.2853   16.6097 H   0  0  0  0  0  0  0  0  0  0  0  0
   13.3784   20.7426   15.0900 O   0  0  0  0  0  0  0  0  0  0  0  0
   13.0117   21.9245   14.4095 C   0  0  0  0  0  0  0  0  0  0  0  0
   13.2890   23.1754   15.2897 C   0  0  0  0  0  0  0  0  0  0  0  0
   13.8749   22.0218   13.1516 C   0  0  0  0  0  0  0  0  0  0  0  0
   11.5329   21.9849   14.0438 C   0  0  0  0  0  0  0  0  0  0  0  0
   15.5031   21.4486   19.0773 C   0  0  0  0  0  0  0  0  0  0  0  0
   15.1678   21.9628   20.3629 O   0  0  0  0  0  0  0  0  0  0  0  0
   14.3247   22.4396   20.3107 H   0  0  0  0  0  0  0  0  0  0  0  0
   15.5941   22.6501   18.1193 C   0  0  0  0  0  0  0  0  0  0  0  0
   17.0125   22.9487   17.9495 N   0  0  0  0  0  0  0  0  0  0  0  0
   17.5781   22.5421   16.4760 S   0  0  0  0  0  0  0  0  0  0  0  0
   16.4106   22.1467   15.6507 O   0  0  0  0  0  0  0  0  0  0  0  0
   18.5596   21.4463   16.7320 O   0  0  0  0  0  0  0  0  0  0  0  0
   19.7694   25.8887   14.3272 C   0  0  0  0  0  0  0  0  0  0  0  0
   18.3830   25.7874   14.2145 C   0  0  0  0  0  0  0  0  0  0  0  0
   17.7057   24.8197   14.9569 C   0  0  0  0  0  0  0  0  0  0  0  0
   18.3989   23.9048   15.7325 C   0  0  0  0  0  0  0  0  0  0  0  0
   19.7739   24.0080   15.8199 C   0  0  0  0  0  0  0  0  0  0  0  0
   20.4601   25.0401   15.1806 C   0  0  0  0  0  0  0  0  0  0  0  0
   20.4346   26.8620   13.6533 O   0  0  0  0  0  0  0  0  0  0  0  0
   20.3241   28.1172   14.3349 C   0  0  0  0  0  0  0  0  0  0  0  0
   17.4768   24.1788   18.5307 C   0  0  0  0  0  0  0  0  0  0  0  0
   18.5301   23.8736   19.6150 C   0  0  0  0  0  0  0  0  0  0  0  0
   19.7765   24.7300   19.3684 C   0  0  0  0  0  0  0  0  0  0  0  0
   17.9682   24.1836   21.0114 C   0  0  0  0  0  0  0  0  0  0  0  0
   14.7045   19.0271   19.0875 C   0  0  0  0  0  0  0  0  0  0  0  0
   12.5221   17.7784   18.6344 C   0  0  0  0  0  0  0  0  0  0  0  0
   11.4170   17.0666   19.0947 C   0  0  0  0  0  0  0  0  0  0  0  0
   11.0696   17.0944   20.4473 C   0  0  0  0  0  0  0  0  0  0  0  0
   11.9199   17.7404   21.3360 C   0  0  0  0  0  0  0  0  0  0  0  0
   13.0865   18.3596   20.8932 C   0  0  0  0  0  0  0  0  0  0  0  0
   13.3989   18.3617   19.5422 C   0  0  0  0  0  0  0  0  0  0  0  0
   10.4706   16.5271   18.2157 C   0  0  0  0  0  0  0  0  0  0  0  0
   10.3938   16.9883   16.9011 C   0  0  0  0  0  0  0  0  0  0  0  0
    9.4486   16.4395   16.0405 C   0  0  0  0  0  0  0  0  0  0  0  0
    8.5867   15.4342   16.5016 C   0  0  0  0  0  0  0  0  0  0  0  0
    8.6633   14.9764   17.8100 C   0  0  0  0  0  0  0  0  0  0  0  0
    9.6163   15.5315   18.6696 C   0  0  0  0  0  0  0  0  0  0  0  0
    7.8543   14.0077   18.3044 O   0  0  0  0  0  0  0  0  0  0  0  0
    6.9433   13.4964   17.3172 C   0  0  0  0  0  0  0  0  0  0  0  0
    9.3489   16.8671   14.7547 O   0  0  0  0  0  0  0  0  0  0  0  0
   10.5331   16.6657   13.9866 C   0  0  0  0  0  0  0  0  0  0  0  0
 10  7  1  0  0  0
  8  7  1  0  0  0
 30 28  1  0  0  0
  9  7  1  0  0  0
  7  6  1  0  0  0
 29 28  1  0  0  0
 28 27  1  0  0  0
  4  3  2  0  0  0
  6  3  1  0  0  0
  3  2  1  0  0  0
 27 15  1  0  0  0
 18 16  2  0  0  0
 15 16  1  0  0  0
 15 14  1  0  0  0
  2  1  1  0  0  0
 11  1  1  0  0  0
 11 12  1  0  0  0
 11 14  1  0  0  0
 21 20  2  0  0  0
 21 22  1  0  0  0
 16 22  1  0  0  0
 16 17  2  0  0  0
  1 31  1  0  0  0
 47 46  1  0  0  0
 20 19  1  0  0  0
 46 40  1  0  0  0
 22 23  2  0  0  0
 40 39  2  0  0  0
 40 41  1  0  0  0
 26 25  1  0  0  0
 39 38  1  0  0  0
 41 42  2  0  0  0
 19 25  1  0  0  0
 19 24  2  0  0  0
 31 37  1  0  0  0
 45 44  1  0  0  0
 38 33  1  0  0  0
 38 43  2  0  0  0
 32 33  2  0  0  0
 32 37  1  0  0  0
 42 43  1  0  0  0
 42 44  1  0  0  0
 33 34  1  0  0  0
 23 24  1  0  0  0
 37 36  2  0  0  0
 34 35  2  0  0  0
 36 35  1  0  0  0
 12 13  1  0  0  0
  2  5  1  0  0  0
M  END
> <minimizedAffinity>
-9.58600

$$$$
4ZLS_G61_B_201


 47 49  0  0  0  0  0  0  0  0999 V2000
   17.2835   22.1214   18.5713 C   0  0  0  0  0  0  0  0  0  0  0  0
   18.3004   23.1417   18.8598 N   0  0  0  0  0  0  0  0  0  0  0  0
   19.4938   22.8346   19.3925 C   0  0  0  0  0  0  0  0  0  0  0  0
   19.7189   21.6875   19.8017 O   0  0  0  0  0  0  0  0  0  0  0  0
   18.0997   24.0835   18.6552 H   0  0  0  0  0  0  0  0  0  0  0  0
   20.4008   23.8326   19.4487 O   0  0  0  0  0  0  0  0  0  0  0  0
   20.6694   24.5518   20.6340 C   0  0  0  0  0  0  0  0  0  0  0  0
   19.4468   24.5093   21.5931 C   0  0  0  0  0  0  0  0  0  0  0  0
   21.8494   23.8737   21.3302 C   0  0  0  0  0  0  0  0  0  0  0  0
   20.9699   26.0277   20.3980 C   0  0  0  0  0  0  0  0  0  0  0  0
   17.2884   21.7543   17.0827 C   0  0  0  0  0  0  0  0  0  0  0  0
   17.9360   20.5062   16.8528 O   0  0  0  0  0  0  0  0  0  0  0  0
   18.8629   20.5666   17.1320 H   0  0  0  0  0  0  0  0  0  0  0  0
   18.0528   22.8165   16.2721 C   0  0  0  0  0  0  0  0  0  0  0  0
   17.0551   23.7341   15.7313 N   0  0  0  0  0  0  0  0  0  0  0  0
   17.4125   25.3001   16.0076 S   0  0  0  0  0  0  0  0  0  0  0  0
   16.9734   25.6140   17.3893 O   0  0  0  0  0  0  0  0  0  0  0  0
   16.6900   26.0518   14.9386 O   0  0  0  0  0  0  0  0  0  0  0  0
   21.8177   26.2774   15.5000 C   0  0  0  0  0  0  0  0  0  0  0  0
   21.2077   26.4638   16.7401 C   0  0  0  0  0  0  0  0  0  0  0  0
   19.8817   26.0673   16.9162 C   0  0  0  0  0  0  0  0  0  0  0  0
   19.1400   25.5751   15.8548 C   0  0  0  0  0  0  0  0  0  0  0  0
   19.7544   25.4126   14.6280 C   0  0  0  0  0  0  0  0  0  0  0  0
   21.1105   25.6913   14.4598 C   0  0  0  0  0  0  0  0  0  0  0  0
   23.1241   26.6073   15.3311 O   0  0  0  0  0  0  0  0  0  0  0  0
   23.7410   26.8972   16.5911 C   0  0  0  0  0  0  0  0  0  0  0  0
   16.5015   23.3879   14.4506 C   0  0  0  0  0  0  0  0  0  0  0  0
   15.2920   22.4513   14.6458 C   0  0  0  0  0  0  0  0  0  0  0  0
   14.1154   23.2519   15.2136 C   0  0  0  0  0  0  0  0  0  0  0  0
   14.8792   21.8215   13.3062 C   0  0  0  0  0  0  0  0  0  0  0  0
   15.9207   22.6237   19.0511 C   0  0  0  0  0  0  0  0  0  0  0  0
   14.0679   20.9064   18.6698 C   0  0  0  0  0  0  0  0  0  0  0  0
   13.3728   19.7672   19.0686 C   0  0  0  0  0  0  0  0  0  0  0  0
   13.4883   19.2880   20.3755 C   0  0  0  0  0  0  0  0  0  0  0  0
   14.4045   19.8957   21.2248 C   0  0  0  0  0  0  0  0  0  0  0  0
   15.1834   20.9671   20.7936 C   0  0  0  0  0  0  0  0  0  0  0  0
   15.0293   21.4611   19.5071 C   0  0  0  0  0  0  0  0  0  0  0  0
   12.3467   19.2204   18.2891 C   0  0  0  0  0  0  0  0  0  0  0  0
   11.5283   20.0535   17.5256 C   0  0  0  0  0  0  0  0  0  0  0  0
   10.5147   19.4929   16.7552 C   0  0  0  0  0  0  0  0  0  0  0  0
   10.3268   18.1034   16.7550 C   0  0  0  0  0  0  0  0  0  0  0  0
   11.1412   17.2753   17.5155 C   0  0  0  0  0  0  0  0  0  0  0  0
   12.1588   17.8450   18.2868 C   0  0  0  0  0  0  0  0  0  0  0  0
   11.0013   15.9274   17.5499 O   0  0  0  0  0  0  0  0  0  0  0  0
    9.7178   15.5212   18.0534 C   0  0  0  0  0  0  0  0  0  0  0  0
    9.7010   20.2773   16.0010 O   0  0  0  0  0  0  0  0  0  0  0  0
   10.3942   21.2648   15.2415 C   0  0  0  0  0  0  0  0  0  0  0  0
 10  7  1  0  0  0
  8  7  1  0  0  0
 30 28  1  0  0  0
  9  7  1  0  0  0
  7  6  1  0  0  0
 29 28  1  0  0  0
 28 27  1  0  0  0
  4  3  2  0  0  0
  6  3  1  0  0  0
  3  2  1  0  0  0
 27 15  1  0  0  0
 18 16  2  0  0  0
 15 16  1  0  0  0
 15 14  1  0  0  0
  2  1  1  0  0  0
 11  1  1  0  0  0
 11 12  1  0  0  0
 11 14  1  0  0  0
 21 20  2  0  0  0
 21 22  1  0  0  0
 16 22  1  0  0  0
 16 17  2  0  0  0
  1 31  1  0  0  0
 47 46  1  0  0  0
 20 19  1  0  0  0
 46 40  1  0  0  0
 22 23  2  0  0  0
 40 39  2  0  0  0
 40 41  1  0  0  0
 26 25  1  0  0  0
 39 38  1  0  0  0
 41 42  2  0  0  0
 19 25  1  0  0  0
 19 24  2  0  0  0
 31 37  1  0  0  0
 45 44  1  0  0  0
 38 33  1  0  0  0
 38 43  2  0  0  0
 32 33  2  0  0  0
 32 37  1  0  0  0
 42 43  1  0  0  0
 42 44  1  0  0  0
 33 34  1  0  0  0
 23 24  1  0  0  0
 37 36  2  0  0  0
 34 35  2  0  0  0
 36 35  1  0  0  0
 12 13  1  0  0  0
  2  5  1  0  0  0
M  END
> <minimizedAffinity>
-9.56834

$$$$
4ZLS_G61_B_201


 47 49  0  0  0  0  0  0  0  0999 V2000
   14.4197   20.1014   18.2929 C   0  0  0  0  0  0  0  0  0  0  0  0
   14.0757   20.3755   16.8912 N   0  0  0  0  0  0  0  0  0  0  0  0
   12.8677   20.8328   16.5252 C   0  0  0  0  0  0  0  0  0  0  0  0
   11.9466   20.8948   17.3509 O   0  0  0  0  0  0  0  0  0  0  0  0
   14.7548   20.2185   16.1960 H   0  0  0  0  0  0  0  0  0  0  0  0
   12.7332   21.2075   15.2355 O   0  0  0  0  0  0  0  0  0  0  0  0
   11.7512   20.6590   14.3815 C   0  0  0  0  0  0  0  0  0  0  0  0
   11.0782   19.4218   15.0391 C   0  0  0  0  0  0  0  0  0  0  0  0
   10.6802   21.7273   14.1607 C   0  0  0  0  0  0  0  0  0  0  0  0
   12.3042   20.1783   13.0446 C   0  0  0  0  0  0  0  0  0  0  0  0
   15.7176   20.8175   18.6845 C   0  0  0  0  0  0  0  0  0  0  0  0
   15.8858   20.8618   20.0985 O   0  0  0  0  0  0  0  0  0  0  0  0
   15.1559   21.3624   20.4954 H   0  0  0  0  0  0  0  0  0  0  0  0
   15.6967   22.2738   18.1857 C   0  0  0  0  0  0  0  0  0  0  0  0
   17.0829   22.6542   17.9340 N   0  0  0  0  0  0  0  0  0  0  0  0
   17.5383   22.4185   16.3869 S   0  0  0  0  0  0  0  0  0  0  0  0
   16.3146   22.0969   15.6126 O   0  0  0  0  0  0  0  0  0  0  0  0
   18.5443   21.3166   16.4479 O   0  0  0  0  0  0  0  0  0  0  0  0
   19.5754   26.0001   14.4787 C   0  0  0  0  0  0  0  0  0  0  0  0
   18.2066   25.8057   14.2954 C   0  0  0  0  0  0  0  0  0  0  0  0
   17.5686   24.7618   14.9659 C   0  0  0  0  0  0  0  0  0  0  0  0
   18.2906   23.8662   15.7377 C   0  0  0  0  0  0  0  0  0  0  0  0
   19.6491   24.0627   15.8953 C   0  0  0  0  0  0  0  0  0  0  0  0
   20.2866   25.1670   15.3306 C   0  0  0  0  0  0  0  0  0  0  0  0
   20.1978   27.0458   13.8762 O   0  0  0  0  0  0  0  0  0  0  0  0
   20.5420   28.0524   14.8356 C   0  0  0  0  0  0  0  0  0  0  0  0
   17.5456   23.8433   18.5961 C   0  0  0  0  0  0  0  0  0  0  0  0
   18.3281   23.4565   19.8675 C   0  0  0  0  0  0  0  0  0  0  0  0
   19.8177   23.3339   19.5301 C   0  0  0  0  0  0  0  0  0  0  0  0
   18.1399   24.5221   20.9586 C   0  0  0  0  0  0  0  0  0  0  0  0
   14.4938   18.5880   18.5031 C   0  0  0  0  0  0  0  0  0  0  0  0
   12.2114   17.4592   18.2939 C   0  0  0  0  0  0  0  0  0  0  0  0
   11.1009   16.8567   18.8801 C   0  0  0  0  0  0  0  0  0  0  0  0
   10.8552   17.0021   20.2473 C   0  0  0  0  0  0  0  0  0  0  0  0
   11.8061   17.6503   21.0255 C   0  0  0  0  0  0  0  0  0  0  0  0
   12.9734   18.1578   20.4595 C   0  0  0  0  0  0  0  0  0  0  0  0
   13.1862   18.0447   19.0940 C   0  0  0  0  0  0  0  0  0  0  0  0
   10.0616   16.3216   18.1101 C   0  0  0  0  0  0  0  0  0  0  0  0
    9.1051   15.4965   18.7025 C   0  0  0  0  0  0  0  0  0  0  0  0
    8.0779   14.9750   17.9227 C   0  0  0  0  0  0  0  0  0  0  0  0
    8.0157   15.2820   16.5560 C   0  0  0  0  0  0  0  0  0  0  0  0
    8.9682   16.1026   15.9672 C   0  0  0  0  0  0  0  0  0  0  0  0
    9.9975   16.6244   16.7568 C   0  0  0  0  0  0  0  0  0  0  0  0
    8.9529   16.4296   14.6518 O   0  0  0  0  0  0  0  0  0  0  0  0
    7.9732   15.6826   13.9116 C   0  0  0  0  0  0  0  0  0  0  0  0
    7.1313   14.1684   18.4701 O   0  0  0  0  0  0  0  0  0  0  0  0
    6.1771   14.8609   19.2716 C   0  0  0  0  0  0  0  0  0  0  0  0
 10  7  1  0  0  0
  8  7  1  0  0  0
 30 28  1  0  0  0
  9  7  1  0  0  0
  7  6  1  0  0  0
 29 28  1  0  0  0
 28 27  1  0  0  0
  4  3  2  0  0  0
  6  3  1  0  0  0
  3  2  1  0  0  0
 27 15  1  0  0  0
 18 16  2  0  0  0
 15 16  1  0  0  0
 15 14  1  0  0  0
  2  1  1  0  0  0
 11  1  1  0  0  0
 11 12  1  0  0  0
 11 14  1  0  0  0
 21 20  2  0  0  0
 21 22  1  0  0  0
 16 22  1  0  0  0
 16 17  2  0  0  0
  1 31  1  0  0  0
 47 46  1  0  0  0
 20 19  1  0  0  0
 46 40  1  0  0  0
 22 23  2  0  0  0
 40 39  2  0  0  0
 40 41  1  0  0  0
 26 25  1  0  0  0
 39 38  1  0  0  0
 41 42  2  0  0  0
 19 25  1  0  0  0
 19 24  2  0  0  0
 31 37  1  0  0  0
 45 44  1  0  0  0
 38 33  1  0  0  0
 38 43  2  0  0  0
 32 33  2  0  0  0
 32 37  1  0  0  0
 42 43  1  0  0  0
 42 44  1  0  0  0
 33 34  1  0  0  0
 23 24  1  0  0  0
 37 36  2  0  0  0
 34 35  2  0  0  0
 36 35  1  0  0  0
 12 13  1  0  0  0
  2  5  1  0  0  0
M  END
> <minimizedAffinity>
-9.39823

$$$$
4ZLS_G61_B_201


 47 49  0  0  0  0  0  0  0  0999 V2000
   17.9107   24.6208   18.6957 C   0  0  0  0  0  0  0  0  0  0  0  0
   18.6928   25.6876   18.0567 N   0  0  0  0  0  0  0  0  0  0  0  0
   19.6272   25.4335   17.1267 C   0  0  0  0  0  0  0  0  0  0  0  0
   19.9679   24.2674   16.8856 O   0  0  0  0  0  0  0  0  0  0  0  0
   18.5260   26.6215   18.3196 H   0  0  0  0  0  0  0  0  0  0  0  0
   20.1515   26.5045   16.4943 O   0  0  0  0  0  0  0  0  0  0  0  0
   20.0177   26.7085   15.1033 C   0  0  0  0  0  0  0  0  0  0  0  0
   18.5650   26.4069   14.6396 C   0  0  0  0  0  0  0  0  0  0  0  0
   20.3159   28.1809   14.8202 C   0  0  0  0  0  0  0  0  0  0  0  0
   20.9232   25.8134   14.2648 C   0  0  0  0  0  0  0  0  0  0  0  0
   16.4450   24.6791   18.2494 C   0  0  0  0  0  0  0  0  0  0  0  0
   15.7953   25.8503   18.7352 O   0  0  0  0  0  0  0  0  0  0  0  0
   15.7953   25.8413   19.7051 H   0  0  0  0  0  0  0  0  0  0  0  0
   15.6690   23.4696   18.8013 C   0  0  0  0  0  0  0  0  0  0  0  0
   15.8438   22.3825   17.8435 N   0  0  0  0  0  0  0  0  0  0  0  0
   16.4218   21.0192   18.5242 S   0  0  0  0  0  0  0  0  0  0  0  0
   17.3092   21.4273   19.6406 O   0  0  0  0  0  0  0  0  0  0  0  0
   17.1107   20.2987   17.4124 O   0  0  0  0  0  0  0  0  0  0  0  0
   13.2244   18.2786   20.2228 C   0  0  0  0  0  0  0  0  0  0  0  0
   13.6191   19.4070   20.9409 C   0  0  0  0  0  0  0  0  0  0  0  0
   14.5274   20.2982   20.3689 C   0  0  0  0  0  0  0  0  0  0  0  0
   15.1069   20.0312   19.1393 C   0  0  0  0  0  0  0  0  0  0  0  0
   14.7178   18.8998   18.4482 C   0  0  0  0  0  0  0  0  0  0  0  0
   13.7249   18.0575   18.9475 C   0  0  0  0  0  0  0  0  0  0  0  0
   12.2991   17.4328   20.7447 O   0  0  0  0  0  0  0  0  0  0  0  0
   11.1850   17.2886   19.8556 C   0  0  0  0  0  0  0  0  0  0  0  0
   14.8241   22.2509   16.8388 C   0  0  0  0  0  0  0  0  0  0  0  0
   15.4790   21.9804   15.4691 C   0  0  0  0  0  0  0  0  0  0  0  0
   14.3934   21.9196   14.3895 C   0  0  0  0  0  0  0  0  0  0  0  0
   16.4787   23.0950   15.1227 C   0  0  0  0  0  0  0  0  0  0  0  0
   18.0703   24.7238   20.2135 C   0  0  0  0  0  0  0  0  0  0  0  0
   20.2311   23.3676   20.3512 C   0  0  0  0  0  0  0  0  0  0  0  0
   21.5944   23.2875   20.6250 C   0  0  0  0  0  0  0  0  0  0  0  0
   22.2306   24.2939   21.3552 C   0  0  0  0  0  0  0  0  0  0  0  0
   21.5038   25.4297   21.6895 C   0  0  0  0  0  0  0  0  0  0  0  0
   20.1673   25.5622   21.3198 C   0  0  0  0  0  0  0  0  0  0  0  0
   19.5347   24.5379   20.6318 C   0  0  0  0  0  0  0  0  0  0  0  0
   22.3168   22.1051   20.4266 C   0  0  0  0  0  0  0  0  0  0  0  0
   21.7534   20.8752   20.7684 C   0  0  0  0  0  0  0  0  0  0  0  0
   22.4848   19.7099   20.5626 C   0  0  0  0  0  0  0  0  0  0  0  0
   23.7744   19.7836   20.0172 C   0  0  0  0  0  0  0  0  0  0  0  0
   24.3345   21.0078   19.6780 C   0  0  0  0  0  0  0  0  0  0  0  0
   23.5937   22.1752   19.8864 C   0  0  0  0  0  0  0  0  0  0  0  0
   25.5759   21.1331   19.1482 O   0  0  0  0  0  0  0  0  0  0  0  0
   26.0070   19.9407   18.4714 C   0  0  0  0  0  0  0  0  0  0  0  0
   21.9641   18.4971   20.8852 O   0  0  0  0  0  0  0  0  0  0  0  0
   22.7711   17.3956   20.4752 C   0  0  0  0  0  0  0  0  0  0  0  0
 10  7  1  0  0  0
  8  7  1  0  0  0
 30 28  1  0  0  0
  9  7  1  0  0  0
  7  6  1  0  0  0
 29 28  1  0  0  0
 28 27  1  0  0  0
  4  3  2  0  0  0
  6  3  1  0  0  0
  3  2  1  0  0  0
 27 15  1  0  0  0
 18 16  2  0  0  0
 15 16  1  0  0  0
 15 14  1  0  0  0
  2  1  1  0  0  0
 11  1  1  0  0  0
 11 12  1  0  0  0
 11 14  1  0  0  0
 21 20  2  0  0  0
 21 22  1  0  0  0
 16 22  1  0  0  0
 16 17  2  0  0  0
  1 31  1  0  0  0
 47 46  1  0  0  0
 20 19  1  0  0  0
 46 40  1  0  0  0
 22 23  2  0  0  0
 40 39  2  0  0  0
 40 41  1  0  0  0
 26 25  1  0  0  0
 39 38  1  0  0  0
 41 42  2  0  0  0
 19 25  1  0  0  0
 19 24  2  0  0  0
 31 37  1  0  0  0
 45 44  1  0  0  0
 38 33  1  0  0  0
 38 43  2  0  0  0
 32 33  2  0  0  0
 32 37  1  0  0  0
 42 43  1  0  0  0
 42 44  1  0  0  0
 33 34  1  0  0  0
 23 24  1  0  0  0
 37 36  2  0  0  0
 34 35  2  0  0  0
 36 35  1  0  0  0
 12 13  1  0  0  0
  2  5  1  0  0  0
M  END
> <minimizedAffinity>
-9.38027

$$$$
4ZLS_G61_B_201


 47 49  0  0  0  0  0  0  0  0999 V2000
   16.6098   22.7288   15.7626 C   0  0  0  0  0  0  0  0  0  0  0  0
   15.2813   22.1105   15.8675 N   0  0  0  0  0  0  0  0  0  0  0  0
   14.6967   21.4863   14.8326 C   0  0  0  0  0  0  0  0  0  0  0  0
   15.2002   21.5444   13.7026 O   0  0  0  0  0  0  0  0  0  0  0  0
   14.8029   22.1555   16.7268 H   0  0  0  0  0  0  0  0  0  0  0  0
   13.5584   20.8132   15.1030 O   0  0  0  0  0  0  0  0  0  0  0  0
   12.3150   21.1583   14.5291 C   0  0  0  0  0  0  0  0  0  0  0  0
   11.1412   20.6778   15.4278 C   0  0  0  0  0  0  0  0  0  0  0  0
   12.2550   22.6830   14.4358 C   0  0  0  0  0  0  0  0  0  0  0  0
   12.0806   20.5336   13.1583 C   0  0  0  0  0  0  0  0  0  0  0  0
   17.5749   22.1211   16.7873 C   0  0  0  0  0  0  0  0  0  0  0  0
   18.6210   21.3907   16.1533 O   0  0  0  0  0  0  0  0  0  0  0  0
   18.2415   20.6531   15.6504 H   0  0  0  0  0  0  0  0  0  0  0  0
   16.8292   21.1371   17.7068 C   0  0  0  0  0  0  0  0  0  0  0  0
   16.7851   21.7474   19.0317 N   0  0  0  0  0  0  0  0  0  0  0  0
   15.2670   21.9714   19.5806 S   0  0  0  0  0  0  0  0  0  0  0  0
   14.6630   23.0585   18.7721 O   0  0  0  0  0  0  0  0  0  0  0  0
   15.4275   22.2894   21.0308 O   0  0  0  0  0  0  0  0  0  0  0  0
   12.6722   18.2517   19.3576 C   0  0  0  0  0  0  0  0  0  0  0  0
   12.3636   19.3572   18.5655 C   0  0  0  0  0  0  0  0  0  0  0  0
   13.2212   20.4576   18.5635 C   0  0  0  0  0  0  0  0  0  0  0  0
   14.3230   20.5015   19.4021 C   0  0  0  0  0  0  0  0  0  0  0  0
   14.6053   19.4048   20.1935 C   0  0  0  0  0  0  0  0  0  0  0  0
   13.8290   18.2484   20.1241 C   0  0  0  0  0  0  0  0  0  0  0  0
   11.8759   17.1522   19.3262 O   0  0  0  0  0  0  0  0  0  0  0  0
   10.5536   17.4706   19.7764 C   0  0  0  0  0  0  0  0  0  0  0  0
   17.7792   21.3021   19.9698 C   0  0  0  0  0  0  0  0  0  0  0  0
   19.0405   22.1804   19.8431 C   0  0  0  0  0  0  0  0  0  0  0  0
   18.6894   23.6287   20.1991 C   0  0  0  0  0  0  0  0  0  0  0  0
   20.1422   21.6770   20.7889 C   0  0  0  0  0  0  0  0  0  0  0  0
   16.4693   24.2448   15.9105 C   0  0  0  0  0  0  0  0  0  0  0  0
   18.8087   25.2354   16.1807 C   0  0  0  0  0  0  0  0  0  0  0  0
   19.9661   25.7751   15.6248 C   0  0  0  0  0  0  0  0  0  0  0  0
   19.9703   26.2363   14.3064 C   0  0  0  0  0  0  0  0  0  0  0  0
   18.8380   26.0286   13.5288 C   0  0  0  0  0  0  0  0  0  0  0  0
   17.7160   25.3880   14.0497 C   0  0  0  0  0  0  0  0  0  0  0  0
   17.7082   24.9725   15.3726 C   0  0  0  0  0  0  0  0  0  0  0  0
   21.0687   26.1230   16.4139 C   0  0  0  0  0  0  0  0  0  0  0  0
   20.9886   26.0387   17.8043 C   0  0  0  0  0  0  0  0  0  0  0  0
   22.0946   26.3865   18.5729 C   0  0  0  0  0  0  0  0  0  0  0  0
   23.2722   26.8168   17.9451 C   0  0  0  0  0  0  0  0  0  0  0  0
   23.3509   26.9010   16.5616 C   0  0  0  0  0  0  0  0  0  0  0  0
   22.2359   26.5490   15.7948 C   0  0  0  0  0  0  0  0  0  0  0  0
   24.4647   27.3104   15.9066 O   0  0  0  0  0  0  0  0  0  0  0  0
   25.0639   28.4679   16.5125 C   0  0  0  0  0  0  0  0  0  0  0  0
   22.0481   26.3151   19.9290 O   0  0  0  0  0  0  0  0  0  0  0  0
   22.2587   25.0028   20.4449 C   0  0  0  0  0  0  0  0  0  0  0  0
 10  7  1  0  0  0
  8  7  1  0  0  0
 30 28  1  0  0  0
  9  7  1  0  0  0
  7  6  1  0  0  0
 29 28  1  0  0  0
 28 27  1  0  0  0
  4  3  2  0  0  0
  6  3  1  0  0  0
  3  2  1  0  0  0
 27 15  1  0  0  0
 18 16  2  0  0  0
 15 16  1  0  0  0
 15 14  1  0  0  0
  2  1  1  0  0  0
 11  1  1  0  0  0
 11 12  1  0  0  0
 11 14  1  0  0  0
 21 20  2  0  0  0
 21 22  1  0  0  0
 16 22  1  0  0  0
 16 17  2  0  0  0
  1 31  1  0  0  0
 47 46  1  0  0  0
 20 19  1  0  0  0
 46 40  1  0  0  0
 22 23  2  0  0  0
 40 39  2  0  0  0
 40 41  1  0  0  0
 26 25  1  0  0  0
 39 38  1  0  0  0
 41 42  2  0  0  0
 19 25  1  0  0  0
 19 24  2  0  0  0
 31 37  1  0  0  0
 45 44  1  0  0  0
 38 33  1  0  0  0
 38 43  2  0  0  0
 32 33  2  0  0  0
 32 37  1  0  0  0
 42 43  1  0  0  0
 42 44  1  0  0  0
 33 34  1  0  0  0
 23 24  1  0  0  0
 37 36  2  0  0  0
 34 35  2  0  0  0
 36 35  1  0  0  0
 12 13  1  0  0  0
  2  5  1  0  0  0
M  END
> <minimizedAffinity>
-9.09608

$$$$
4ZLS_G61_B_201


 47 49  0  0  0  0  0  0  0  0999 V2000
   16.6451   24.0886   15.2294 C   0  0  0  0  0  0  0  0  0  0  0  0
   17.8386   24.5354   14.4985 N   0  0  0  0  0  0  0  0  0  0  0  0
   18.0865   25.8320   14.2540 C   0  0  0  0  0  0  0  0  0  0  0  0
   17.2308   26.6906   14.5083 O   0  0  0  0  0  0  0  0  0  0  0  0
   18.4790   23.8604   14.1768 H   0  0  0  0  0  0  0  0  0  0  0  0
   19.2951   26.1233   13.7284 O   0  0  0  0  0  0  0  0  0  0  0  0
   20.4079   26.4725   14.5248 C   0  0  0  0  0  0  0  0  0  0  0  0
   21.4688   25.3364   14.5175 C   0  0  0  0  0  0  0  0  0  0  0  0
   21.0401   27.7235   13.9145 C   0  0  0  0  0  0  0  0  0  0  0  0
   20.0589   26.7151   15.9889 C   0  0  0  0  0  0  0  0  0  0  0  0
   16.8777   24.1553   16.7433 C   0  0  0  0  0  0  0  0  0  0  0  0
   16.5583   25.4414   17.2666 O   0  0  0  0  0  0  0  0  0  0  0  0
   17.1358   26.1076   16.8623 H   0  0  0  0  0  0  0  0  0  0  0  0
   18.3586   23.8895   17.0695 C   0  0  0  0  0  0  0  0  0  0  0  0
   18.3957   23.2688   18.3897 N   0  0  0  0  0  0  0  0  0  0  0  0
   18.1572   21.6572   18.3439 S   0  0  0  0  0  0  0  0  0  0  0  0
   19.0039   21.0572   19.4039 O   0  0  0  0  0  0  0  0  0  0  0  0
   18.5230   21.2557   16.9529 O   0  0  0  0  0  0  0  0  0  0  0  0
   13.8785   20.3953   19.1922 C   0  0  0  0  0  0  0  0  0  0  0  0
   14.5984   21.0914   20.1629 C   0  0  0  0  0  0  0  0  0  0  0  0
   15.8755   21.5638   19.8592 C   0  0  0  0  0  0  0  0  0  0  0  0
   16.4696   21.2743   18.6417 C   0  0  0  0  0  0  0  0  0  0  0  0
   15.7494   20.5687   17.6971 C   0  0  0  0  0  0  0  0  0  0  0  0
   14.4287   20.1893   17.9350 C   0  0  0  0  0  0  0  0  0  0  0  0
   12.6132   19.9789   19.4558 O   0  0  0  0  0  0  0  0  0  0  0  0
   12.5937   19.1005   20.5873 C   0  0  0  0  0  0  0  0  0  0  0  0
   19.3842   23.7754   19.3023 C   0  0  0  0  0  0  0  0  0  0  0  0
   18.7606   23.9362   20.7036 C   0  0  0  0  0  0  0  0  0  0  0  0
   19.7592   24.6425   21.6264 C   0  0  0  0  0  0  0  0  0  0  0  0
   17.4682   24.7639   20.6242 C   0  0  0  0  0  0  0  0  0  0  0  0
   16.2617   22.6868   14.7521 C   0  0  0  0  0  0  0  0  0  0  0  0
   14.1489   21.2910   14.4124 C   0  0  0  0  0  0  0  0  0  0  0  0
   12.7654   21.1510   14.4903 C   0  0  0  0  0  0  0  0  0  0  0  0
   11.9474   22.2726   14.6441 C   0  0  0  0  0  0  0  0  0  0  0  0
   12.5494   23.5086   14.8440 C   0  0  0  0  0  0  0  0  0  0  0  0
   13.9362   23.6355   14.8778 C   0  0  0  0  0  0  0  0  0  0  0  0
   14.7380   22.5214   14.6815 C   0  0  0  0  0  0  0  0  0  0  0  0
   12.1270   19.9509   14.1561 C   0  0  0  0  0  0  0  0  0  0  0  0
   12.3872   19.3378   12.9301 C   0  0  0  0  0  0  0  0  0  0  0  0
   11.7454   18.1444   12.6152 C   0  0  0  0  0  0  0  0  0  0  0  0
   10.8476   17.5738   13.5286 C   0  0  0  0  0  0  0  0  0  0  0  0
   10.5888   18.1849   14.7481 C   0  0  0  0  0  0  0  0  0  0  0  0
   11.2380   19.3837   15.0588 C   0  0  0  0  0  0  0  0  0  0  0  0
    9.7306   17.6747   15.6649 O   0  0  0  0  0  0  0  0  0  0  0  0
   10.2502   17.7464   17.0030 C   0  0  0  0  0  0  0  0  0  0  0  0
   11.9775   17.5229   11.4294 O   0  0  0  0  0  0  0  0  0  0  0  0
   10.8049   16.9891   10.8190 C   0  0  0  0  0  0  0  0  0  0  0  0
 10  7  1  0  0  0
  8  7  1  0  0  0
 30 28  1  0  0  0
  9  7  1  0  0  0
  7  6  1  0  0  0
 29 28  1  0  0  0
 28 27  1  0  0  0
  4  3  2  0  0  0
  6  3  1  0  0  0
  3  2  1  0  0  0
 27 15  1  0  0  0
 18 16  2  0  0  0
 15 16  1  0  0  0
 15 14  1  0  0  0
  2  1  1  0  0  0
 11  1  1  0  0  0
 11 12  1  0  0  0
 11 14  1  0  0  0
 21 20  2  0  0  0
 21 22  1  0  0  0
 16 22  1  0  0  0
 16 17  2  0  0  0
  1 31  1  0  0  0
 47 46  1  0  0  0
 20 19  1  0  0  0
 46 40  1  0  0  0
 22 23  2  0  0  0
 40 39  2  0  0  0
 40 41  1  0  0  0
 26 25  1  0  0  0
 39 38  1  0  0  0
 41 42  2  0  0  0
 19 25  1  0  0  0
 19 24  2  0  0  0
 31 37  1  0  0  0
 45 44  1  0  0  0
 38 33  1  0  0  0
 38 43  2  0  0  0
 32 33  2  0  0  0
 32 37  1  0  0  0
 42 43  1  0  0  0
 42 44  1  0  0  0
 33 34  1  0  0  0
 23 24  1  0  0  0
 37 36  2  0  0  0
 34 35  2  0  0  0
 36 35  1  0  0  0
 12 13  1  0  0  0
  2  5  1  0  0  0
M  END
> <minimizedAffinity>
-9.04466

$$$$
4ZLS_G61_B_201


 47 49  0  0  0  0  0  0  0  0999 V2000
   19.0237   23.8404   18.0145 C   0  0  0  0  0  0  0  0  0  0  0  0
   18.8053   25.0826   17.2611 N   0  0  0  0  0  0  0  0  0  0  0  0
   19.8202   25.8531   16.8383 C   0  0  0  0  0  0  0  0  0  0  0  0
   20.9793   25.6164   17.2050 O   0  0  0  0  0  0  0  0  0  0  0  0
   17.8825   25.3597   17.0593 H   0  0  0  0  0  0  0  0  0  0  0  0
   19.4975   26.8708   16.0124 O   0  0  0  0  0  0  0  0  0  0  0  0
   19.5939   26.7709   14.6070 C   0  0  0  0  0  0  0  0  0  0  0  0
   18.1824   26.6694   13.9639 C   0  0  0  0  0  0  0  0  0  0  0  0
   20.2633   28.0471   14.0967 C   0  0  0  0  0  0  0  0  0  0  0  0
   20.3632   25.5428   14.1334 C   0  0  0  0  0  0  0  0  0  0  0  0
   18.1080   22.7238   17.4993 C   0  0  0  0  0  0  0  0  0  0  0  0
   18.5092   22.2698   16.2098 O   0  0  0  0  0  0  0  0  0  0  0  0
   18.4472   23.0013   15.5758 H   0  0  0  0  0  0  0  0  0  0  0  0
   16.6618   23.2351   17.3690 C   0  0  0  0  0  0  0  0  0  0  0  0
   15.7870   22.0849   17.5727 N   0  0  0  0  0  0  0  0  0  0  0  0
   14.9348   22.1693   18.9594 S   0  0  0  0  0  0  0  0  0  0  0  0
   13.9512   23.2689   18.8046 O   0  0  0  0  0  0  0  0  0  0  0  0
   15.9575   22.3939   20.0240 O   0  0  0  0  0  0  0  0  0  0  0  0
   12.6620   18.3757   19.9900 C   0  0  0  0  0  0  0  0  0  0  0  0
   12.0931   19.3070   19.1216 C   0  0  0  0  0  0  0  0  0  0  0  0
   12.8372   20.4203   18.7302 C   0  0  0  0  0  0  0  0  0  0  0  0
   14.0949   20.6569   19.2606 C   0  0  0  0  0  0  0  0  0  0  0  0
   14.6374   19.7332   20.1331 C   0  0  0  0  0  0  0  0  0  0  0  0
   13.9603   18.5549   20.4461 C   0  0  0  0  0  0  0  0  0  0  0  0
   11.9696   17.2596   20.3346 O   0  0  0  0  0  0  0  0  0  0  0  0
   10.6175   17.3370   19.8676 C   0  0  0  0  0  0  0  0  0  0  0  0
   15.1193   21.5797   16.4042 C   0  0  0  0  0  0  0  0  0  0  0  0
   14.9344   22.7185   15.3809 C   0  0  0  0  0  0  0  0  0  0  0  0
   15.3818   22.2362   13.9971 C   0  0  0  0  0  0  0  0  0  0  0  0
   13.4605   23.1489   15.3174 C   0  0  0  0  0  0  0  0  0  0  0  0
   18.8326   24.1197   19.5062 C   0  0  0  0  0  0  0  0  0  0  0  0
   21.3242   23.6351   19.7967 C   0  0  0  0  0  0  0  0  0  0  0  0
   22.5558   23.9333   20.3747 C   0  0  0  0  0  0  0  0  0  0  0  0
   22.6293   24.7577   21.4998 C   0  0  0  0  0  0  0  0  0  0  0  0
   21.4662   25.3710   21.9483 C   0  0  0  0  0  0  0  0  0  0  0  0
   20.2491   25.1623   21.3035 C   0  0  0  0  0  0  0  0  0  0  0  0
   20.1811   24.3083   20.2132 C   0  0  0  0  0  0  0  0  0  0  0  0
   23.7172   23.2286   20.0373 C   0  0  0  0  0  0  0  0  0  0  0  0
   24.9258   23.9071   19.8773 C   0  0  0  0  0  0  0  0  0  0  0  0
   26.0706   23.1906   19.5438 C   0  0  0  0  0  0  0  0  0  0  0  0
   25.9977   21.8009   19.3721 C   0  0  0  0  0  0  0  0  0  0  0  0
   24.7946   21.1266   19.5309 C   0  0  0  0  0  0  0  0  0  0  0  0
   23.6478   21.8526   19.8671 C   0  0  0  0  0  0  0  0  0  0  0  0
   24.6711   19.7856   19.3763 O   0  0  0  0  0  0  0  0  0  0  0  0
   25.6161   19.2521   18.4340 C   0  0  0  0  0  0  0  0  0  0  0  0
   27.2624   23.8224   19.3810 O   0  0  0  0  0  0  0  0  0  0  0  0
   28.3871   22.9465   19.4037 C   0  0  0  0  0  0  0  0  0  0  0  0
 10  7  1  0  0  0
  8  7  1  0  0  0
 30 28  1  0  0  0
  9  7  1  0  0  0
  7  6  1  0  0  0
 29 28  1  0  0  0
 28 27  1  0  0  0
  4  3  2  0  0  0
  6  3  1  0  0  0
  3  2  1  0  0  0
 27 15  1  0  0  0
 18 16  2  0  0  0
 15 16  1  0  0  0
 15 14  1  0  0  0
  2  1  1  0  0  0
 11  1  1  0  0  0
 11 12  1  0  0  0
 11 14  1  0  0  0
 21 20  2  0  0  0
 21 22  1  0  0  0
 16 22  1  0  0  0
 16 17  2  0  0  0
  1 31  1  0  0  0
 47 46  1  0  0  0
 20 19  1  0  0  0
 46 40  1  0  0  0
 22 23  2  0  0  0
 40 39  2  0  0  0
 40 41  1  0  0  0
 26 25  1  0  0  0
 39 38  1  0  0  0
 41 42  2  0  0  0
 19 25  1  0  0  0
 19 24  2  0  0  0
 31 37  1  0  0  0
 45 44  1  0  0  0
 38 33  1  0  0  0
 38 43  2  0  0  0
 32 33  2  0  0  0
 32 37  1  0  0  0
 42 43  1  0  0  0
 42 44  1  0  0  0
 33 34  1  0  0  0
 23 24  1  0  0  0
 37 36  2  0  0  0
 34 35  2  0  0  0
 36 35  1  0  0  0
 12 13  1  0  0  0
  2  5  1  0  0  0
M  END
> <minimizedAffinity>
-8.92588

$$$$
4ZLS_G61_B_201


 47 49  0  0  0  0  0  0  0  0999 V2000
   16.7474   24.3829   16.7575 C   0  0  0  0  0  0  0  0  0  0  0  0
   15.5739   23.6351   16.2864 N   0  0  0  0  0  0  0  0  0  0  0  0
   15.6807   22.4507   15.6633 C   0  0  0  0  0  0  0  0  0  0  0  0
   16.7921   22.0188   15.3283 O   0  0  0  0  0  0  0  0  0  0  0  0
   14.6779   24.0158   16.4327 H   0  0  0  0  0  0  0  0  0  0  0  0
   14.5280   21.7864   15.4353 O   0  0  0  0  0  0  0  0  0  0  0  0
   13.7983   21.9175   14.2334 C   0  0  0  0  0  0  0  0  0  0  0  0
   14.7580   22.0672   13.0198 C   0  0  0  0  0  0  0  0  0  0  0  0
   12.9821   20.6387   14.0450 C   0  0  0  0  0  0  0  0  0  0  0  0
   12.8856   23.1384   14.2032 C   0  0  0  0  0  0  0  0  0  0  0  0
   16.7302   24.5161   18.2848 C   0  0  0  0  0  0  0  0  0  0  0  0
   16.1669   25.7583   18.6963 O   0  0  0  0  0  0  0  0  0  0  0  0
   16.7079   26.4875   18.3551 H   0  0  0  0  0  0  0  0  0  0  0  0
   18.1639   24.4627   18.8428 C   0  0  0  0  0  0  0  0  0  0  0  0
   18.1717   23.4478   19.8915 N   0  0  0  0  0  0  0  0  0  0  0  0
   18.2464   21.9280   19.3078 S   0  0  0  0  0  0  0  0  0  0  0  0
   19.1700   21.1657   20.1831 O   0  0  0  0  0  0  0  0  0  0  0  0
   18.7106   22.0824   17.8969 O   0  0  0  0  0  0  0  0  0  0  0  0
   14.0305   20.2429   19.2280 C   0  0  0  0  0  0  0  0  0  0  0  0
   14.9289   19.9035   18.2167 C   0  0  0  0  0  0  0  0  0  0  0  0
   16.2505   20.3426   18.3007 C   0  0  0  0  0  0  0  0  0  0  0  0
   16.6571   21.1814   19.3254 C   0  0  0  0  0  0  0  0  0  0  0  0
   15.7501   21.5224   20.3103 C   0  0  0  0  0  0  0  0  0  0  0  0
   14.4573   20.9996   20.3101 C   0  0  0  0  0  0  0  0  0  0  0  0
   12.7562   19.7758   19.1870 O   0  0  0  0  0  0  0  0  0  0  0  0
   12.7374   18.3812   18.8595 C   0  0  0  0  0  0  0  0  0  0  0  0
   18.9414   23.7542   21.0663 C   0  0  0  0  0  0  0  0  0  0  0  0
   20.2680   24.4248   20.6556 C   0  0  0  0  0  0  0  0  0  0  0  0
   20.5276   25.6342   21.5598 C   0  0  0  0  0  0  0  0  0  0  0  0
   21.4341   23.4324   20.7864 C   0  0  0  0  0  0  0  0  0  0  0  0
   16.7963   25.7367   16.0472 C   0  0  0  0  0  0  0  0  0  0  0  0
   19.3182   26.1448   16.0159 C   0  0  0  0  0  0  0  0  0  0  0  0
   20.5294   26.1846   15.3294 C   0  0  0  0  0  0  0  0  0  0  0  0
   20.5517   26.2107   13.9331 C   0  0  0  0  0  0  0  0  0  0  0  0
   19.3509   26.0685   13.2490 C   0  0  0  0  0  0  0  0  0  0  0  0
   18.1473   25.9164   13.9337 C   0  0  0  0  0  0  0  0  0  0  0  0
   18.1329   25.9345   15.3202 C   0  0  0  0  0  0  0  0  0  0  0  0
   21.7358   26.4667   15.9807 C   0  0  0  0  0  0  0  0  0  0  0  0
   22.8115   26.9923   15.2643 C   0  0  0  0  0  0  0  0  0  0  0  0
   24.0024   27.2687   15.9281 C   0  0  0  0  0  0  0  0  0  0  0  0
   24.1086   27.0164   17.3033 C   0  0  0  0  0  0  0  0  0  0  0  0
   23.0379   26.4927   18.0152 C   0  0  0  0  0  0  0  0  0  0  0  0
   21.8434   26.2182   17.3423 C   0  0  0  0  0  0  0  0  0  0  0  0
   23.0892   26.2311   19.3443 O   0  0  0  0  0  0  0  0  0  0  0  0
   24.2090   25.4025   19.6980 C   0  0  0  0  0  0  0  0  0  0  0  0
   25.0680   27.7809   15.2585 O   0  0  0  0  0  0  0  0  0  0  0  0
   25.7647   28.7976   15.9751 C   0  0  0  0  0  0  0  0  0  0  0  0
 10  7  1  0  0  0
  8  7  1  0  0  0
 30 28  1  0  0  0
  9  7  1  0  0  0
  7  6  1  0  0  0
 29 28  1  0  0  0
 28 27  1  0  0  0
  4  3  2  0  0  0
  6  3  1  0  0  0
  3  2  1  0  0  0
 27 15  1  0  0  0
 18 16  2  0  0  0
 15 16  1  0  0  0
 15 14  1  0  0  0
  2  1  1  0  0  0
 11  1  1  0  0  0
 11 12  1  0  0  0
 11 14  1  0  0  0
 21 20  2  0  0  0
 21 22  1  0  0  0
 16 22  1  0  0  0
 16 17  2  0  0  0
  1 31  1  0  0  0
 47 46  1  0  0  0
 20 19  1  0  0  0
 46 40  1  0  0  0
 22 23  2  0  0  0
 40 39  2  0  0  0
 40 41  1  0  0  0
 26 25  1  0  0  0
 39 38  1  0  0  0
 41 42  2  0  0  0
 19 25  1  0  0  0
 19 24  2  0  0  0
 31 37  1  0  0  0
 45 44  1  0  0  0
 38 33  1  0  0  0
 38 43  2  0  0  0
 32 33  2  0  0  0
 32 37  1  0  0  0
 42 43  1  0  0  0
 42 44  1  0  0  0
 33 34  1  0  0  0
 23 24  1  0  0  0
 37 36  2  0  0  0
 34 35  2  0  0  0
 36 35  1  0  0  0
 12 13  1  0  0  0
  2  5  1  0  0  0
M  END
> <minimizedAffinity>
-8.91343

$$$$
4ZLS_G61_B_201


 47 49  0  0  0  0  0  0  0  0999 V2000
   17.8862   23.7627   18.2089 C   0  0  0  0  0  0  0  0  0  0  0  0
   18.2773   25.0567   17.6338 N   0  0  0  0  0  0  0  0  0  0  0  0
   19.3666   25.1990   16.8620 C   0  0  0  0  0  0  0  0  0  0  0  0
   20.1679   24.2634   16.7336 O   0  0  0  0  0  0  0  0  0  0  0  0
   17.7211   25.8472   17.8208 H   0  0  0  0  0  0  0  0  0  0  0  0
   19.5209   26.3952   16.2562 O   0  0  0  0  0  0  0  0  0  0  0  0
   19.5840   26.5355   14.8524 C   0  0  0  0  0  0  0  0  0  0  0  0
   18.2529   26.0780   14.1927 C   0  0  0  0  0  0  0  0  0  0  0  0
   19.7876   28.0189   14.5436 C   0  0  0  0  0  0  0  0  0  0  0  0
   20.6846   25.7031   14.2043 C   0  0  0  0  0  0  0  0  0  0  0  0
   16.4394   23.4172   17.8371 C   0  0  0  0  0  0  0  0  0  0  0  0
   15.5984   23.3758   18.9862 O   0  0  0  0  0  0  0  0  0  0  0  0
   15.9086   22.6822   19.5891 H   0  0  0  0  0  0  0  0  0  0  0  0
   16.3735   22.0275   17.1781 C   0  0  0  0  0  0  0  0  0  0  0  0
   15.0032   21.8463   16.7102 N   0  0  0  0  0  0  0  0  0  0  0  0
   14.7628   22.4180   15.2030 S   0  0  0  0  0  0  0  0  0  0  0  0
   15.9108   21.9728   14.3757 O   0  0  0  0  0  0  0  0  0  0  0  0
   14.6512   23.8979   15.3684 O   0  0  0  0  0  0  0  0  0  0  0  0
   10.8830   20.5975   13.7025 C   0  0  0  0  0  0  0  0  0  0  0  0
   10.8500   21.7769   14.4461 C   0  0  0  0  0  0  0  0  0  0  0  0
   12.0496   22.3846   14.8175 C   0  0  0  0  0  0  0  0  0  0  0  0
   13.2668   21.7866   14.5347 C   0  0  0  0  0  0  0  0  0  0  0  0
   13.2816   20.6092   13.8120 C   0  0  0  0  0  0  0  0  0  0  0  0
   12.1006   20.0465   13.3289 C   0  0  0  0  0  0  0  0  0  0  0  0
    9.7234   20.0260   13.2869 O   0  0  0  0  0  0  0  0  0  0  0  0
    9.9396   19.2375   12.1106 C   0  0  0  0  0  0  0  0  0  0  0  0
   14.3688   20.6066   17.0669 C   0  0  0  0  0  0  0  0  0  0  0  0
   13.3594   20.8511   18.2069 C   0  0  0  0  0  0  0  0  0  0  0  0
   12.0230   20.1904   17.8531 C   0  0  0  0  0  0  0  0  0  0  0  0
   13.8852   20.2611   19.5249 C   0  0  0  0  0  0  0  0  0  0  0  0
   18.1150   23.7975   19.7209 C   0  0  0  0  0  0  0  0  0  0  0  0
   20.6163   23.5424   20.1743 C   0  0  0  0  0  0  0  0  0  0  0  0
   21.6878   22.8006   20.6659 C   0  0  0  0  0  0  0  0  0  0  0  0
   21.5469   21.4341   20.9180 C   0  0  0  0  0  0  0  0  0  0  0  0
   20.2869   20.8635   20.7886 C   0  0  0  0  0  0  0  0  0  0  0  0
   19.1878   21.6279   20.4037 C   0  0  0  0  0  0  0  0  0  0  0  0
   19.3485   22.9747   20.1151 C   0  0  0  0  0  0  0  0  0  0  0  0
   22.9923   23.3081   20.6741 C   0  0  0  0  0  0  0  0  0  0  0  0
   23.9292   22.8446   19.7499 C   0  0  0  0  0  0  0  0  0  0  0  0
   25.2205   23.3615   19.7710 C   0  0  0  0  0  0  0  0  0  0  0  0
   25.5652   24.3374   20.7169 C   0  0  0  0  0  0  0  0  0  0  0  0
   24.6325   24.7976   21.6366 C   0  0  0  0  0  0  0  0  0  0  0  0
   23.3360   24.2747   21.6093 C   0  0  0  0  0  0  0  0  0  0  0  0
   24.9150   25.7388   22.5702 O   0  0  0  0  0  0  0  0  0  0  0  0
   25.7628   25.2371   23.6168 C   0  0  0  0  0  0  0  0  0  0  0  0
   26.1556   22.9306   18.8843 O   0  0  0  0  0  0  0  0  0  0  0  0
   26.4919   23.8932   17.8878 C   0  0  0  0  0  0  0  0  0  0  0  0
 10  7  1  0  0  0
  8  7  1  0  0  0
 30 28  1  0  0  0
  9  7  1  0  0  0
  7  6  1  0  0  0
 29 28  1  0  0  0
 28 27  1  0  0  0
  4  3  2  0  0  0
  6  3  1  0  0  0
  3  2  1  0  0  0
 27 15  1  0  0  0
 18 16  2  0  0  0
 15 16  1  0  0  0
 15 14  1  0  0  0
  2  1  1  0  0  0
 11  1  1  0  0  0
 11 12  1  0  0  0
 11 14  1  0  0  0
 21 20  2  0  0  0
 21 22  1  0  0  0
 16 22  1  0  0  0
 16 17  2  0  0  0
  1 31  1  0  0  0
 47 46  1  0  0  0
 20 19  1  0  0  0
 46 40  1  0  0  0
 22 23  2  0  0  0
 40 39  2  0  0  0
 40 41  1  0  0  0
 26 25  1  0  0  0
 39 38  1  0  0  0
 41 42  2  0  0  0
 19 25  1  0  0  0
 19 24  2  0  0  0
 31 37  1  0  0  0
 45 44  1  0  0  0
 38 33  1  0  0  0
 38 43  2  0  0  0
 32 33  2  0  0  0
 32 37  1  0  0  0
 42 43  1  0  0  0
 42 44  1  0  0  0
 33 34  1  0  0  0
 23 24  1  0  0  0
 37 36  2  0  0  0
 34 35  2  0  0  0
 36 35  1  0  0  0
 12 13  1  0  0  0
  2  5  1  0  0  0
M  END
> <minimizedAffinity>
-8.90128

$$$$
4ZLS_G61_B_201


 47 49  0  0  0  0  0  0  0  0999 V2000
   17.7668   23.6624   17.8324 C   0  0  0  0  0  0  0  0  0  0  0  0
   18.1410   24.8077   16.9920 N   0  0  0  0  0  0  0  0  0  0  0  0
   19.1283   24.7397   16.0848 C   0  0  0  0  0  0  0  0  0  0  0  0
   19.8624   23.7434   16.0337 O   0  0  0  0  0  0  0  0  0  0  0  0
   17.6506   25.6548   17.0977 H   0  0  0  0  0  0  0  0  0  0  0  0
   19.2596   25.7999   15.2598 O   0  0  0  0  0  0  0  0  0  0  0  0
   20.3459   26.6986   15.3415 C   0  0  0  0  0  0  0  0  0  0  0  0
   20.7338   26.9606   16.8238 C   0  0  0  0  0  0  0  0  0  0  0  0
   21.5389   26.0483   14.6409 C   0  0  0  0  0  0  0  0  0  0  0  0
   20.0545   28.0658   14.7332 C   0  0  0  0  0  0  0  0  0  0  0  0
   16.2966   23.2857   17.6151 C   0  0  0  0  0  0  0  0  0  0  0  0
   15.5909   23.1940   18.8494 O   0  0  0  0  0  0  0  0  0  0  0  0
   15.9840   22.4952   19.3954 H   0  0  0  0  0  0  0  0  0  0  0  0
   16.1919   21.9106   16.9311 C   0  0  0  0  0  0  0  0  0  0  0  0
   14.7868   21.7146   16.5890 N   0  0  0  0  0  0  0  0  0  0  0  0
   14.4147   22.2431   15.0929 S   0  0  0  0  0  0  0  0  0  0  0  0
   15.5393   21.8675   14.2016 O   0  0  0  0  0  0  0  0  0  0  0  0
   14.2069   23.7138   15.2473 O   0  0  0  0  0  0  0  0  0  0  0  0
   10.5703   20.5102   13.4087 C   0  0  0  0  0  0  0  0  0  0  0  0
   11.7931   19.9254   13.0805 C   0  0  0  0  0  0  0  0  0  0  0  0
   12.9603   20.3991   13.6803 C   0  0  0  0  0  0  0  0  0  0  0  0
   12.9302   21.4959   14.5259 C   0  0  0  0  0  0  0  0  0  0  0  0
   11.7125   22.0748   14.8274 C   0  0  0  0  0  0  0  0  0  0  0  0
   10.5214   21.5442   14.3328 C   0  0  0  0  0  0  0  0  0  0  0  0
    9.4210   20.0222   12.8748 O   0  0  0  0  0  0  0  0  0  0  0  0
    9.3377   20.3340   11.4791 C   0  0  0  0  0  0  0  0  0  0  0  0
   14.1902   20.4848   17.0342 C   0  0  0  0  0  0  0  0  0  0  0  0
   13.2249   20.7710   18.2023 C   0  0  0  0  0  0  0  0  0  0  0  0
   11.8786   20.0931   17.9272 C   0  0  0  0  0  0  0  0  0  0  0  0
   13.8042   20.2347   19.5209 C   0  0  0  0  0  0  0  0  0  0  0  0
   18.0830   23.9890   19.2930 C   0  0  0  0  0  0  0  0  0  0  0  0
   20.5295   23.6540   19.9485 C   0  0  0  0  0  0  0  0  0  0  0  0
   21.5277   22.8917   20.5505 C   0  0  0  0  0  0  0  0  0  0  0  0
   21.3095   21.5439   20.8446 C   0  0  0  0  0  0  0  0  0  0  0  0
   20.0396   21.0189   20.6406 C   0  0  0  0  0  0  0  0  0  0  0  0
   19.0067   21.8095   20.1418 C   0  0  0  0  0  0  0  0  0  0  0  0
   19.2466   23.1352   19.8137 C   0  0  0  0  0  0  0  0  0  0  0  0
   22.8485   23.3467   20.6396 C   0  0  0  0  0  0  0  0  0  0  0  0
   23.1946   24.3088   21.5890 C   0  0  0  0  0  0  0  0  0  0  0  0
   24.5123   24.7481   21.6649 C   0  0  0  0  0  0  0  0  0  0  0  0
   25.4737   24.2224   20.7902 C   0  0  0  0  0  0  0  0  0  0  0  0
   25.1284   23.2656   19.8454 C   0  0  0  0  0  0  0  0  0  0  0  0
   23.8024   22.8275   19.7750 C   0  0  0  0  0  0  0  0  0  0  0  0
   26.0192   22.7262   18.9776 O   0  0  0  0  0  0  0  0  0  0  0  0
   26.5371   23.6940   18.0499 C   0  0  0  0  0  0  0  0  0  0  0  0
   24.8808   25.6840   22.5785 O   0  0  0  0  0  0  0  0  0  0  0  0
   25.7790   25.1968   23.5728 C   0  0  0  0  0  0  0  0  0  0  0  0
 10  7  1  0  0  0
  8  7  1  0  0  0
 30 28  1  0  0  0
  9  7  1  0  0  0
  7  6  1  0  0  0
 29 28  1  0  0  0
 28 27  1  0  0  0
  4  3  2  0  0  0
  6  3  1  0  0  0
  3  2  1  0  0  0
 27 15  1  0  0  0
 18 16  2  0  0  0
 15 16  1  0  0  0
 15 14  1  0  0  0
  2  1  1  0  0  0
 11  1  1  0  0  0
 11 12  1  0  0  0
 11 14  1  0  0  0
 21 20  2  0  0  0
 21 22  1  0  0  0
 16 22  1  0  0  0
 16 17  2  0  0  0
  1 31  1  0  0  0
 47 46  1  0  0  0
 20 19  1  0  0  0
 46 40  1  0  0  0
 22 23  2  0  0  0
 40 39  2  0  0  0
 40 41  1  0  0  0
 26 25  1  0  0  0
 39 38  1  0  0  0
 41 42  2  0  0  0
 19 25  1  0  0  0
 19 24  2  0  0  0
 31 37  1  0  0  0
 45 44  1  0  0  0
 38 33  1  0  0  0
 38 43  2  0  0  0
 32 33  2  0  0  0
 32 37  1  0  0  0
 42 43  1  0  0  0
 42 44  1  0  0  0
 33 34  1  0  0  0
 23 24  1  0  0  0
 37 36  2  0  0  0
 34 35  2  0  0  0
 36 35  1  0  0  0
 12 13  1  0  0  0
  2  5  1  0  0  0
M  END
> <minimizedAffinity>
-8.84014

$$$$
