3TSK_QEG_A_306


 47 49  0  0  0  0  0  0  0  0999 V2000
    7.8198   25.1113    3.3529 C   0  0  0  0  0  0  0  0  0  0  0  0
    7.1020   22.7937    4.8875 O   0  0  0  0  0  0  0  0  0  0  0  0
    6.3581   23.7105    4.7988 C   0  0  0  0  0  0  0  0  0  0  0  0
    6.6214   24.8134    4.1142 N   0  0  0  0  0  0  0  0  0  0  0  0
    5.9253   25.5095    4.1229 H   0  0  0  0  0  0  0  0  0  0  0  0
    5.0223   23.6296    5.4913 C   0  0  0  0  0  0  0  0  0  0  0  0
    4.7807   22.4933    6.4670 C   0  0  0  0  0  0  0  0  0  0  0  0
    2.8595   21.5932    7.8672 C   0  0  0  0  0  0  0  0  0  0  0  0
    1.0435   22.9217    6.3598 C   0  0  0  0  0  0  0  0  0  0  0  0
    0.5502   22.1673    7.4067 C   0  0  0  0  0  0  0  0  0  0  0  0
    1.4979   21.4960    8.1647 C   0  0  0  0  0  0  0  0  0  0  0  0
    3.3207   22.3716    6.8113 C   0  0  0  0  0  0  0  0  0  0  0  0
    2.3863   23.0307    6.0494 C   0  0  0  0  0  0  0  0  0  0  0  0
   -1.8277   23.4685    7.1235 S   0  0  0  0  0  0  0  0  0  0  0  0
   -0.9535   22.1379    7.6471 C   0  0  0  0  0  0  0  0  0  0  0  0
   -1.9293   21.3652    8.2175 C   0  0  0  0  0  0  0  0  0  0  0  0
   -3.2449   21.9330    8.1826 C   0  0  0  0  0  0  0  0  0  0  0  0
   -3.3818   23.1374    7.5845 C   0  0  0  0  0  0  0  0  0  0  0  0
   -4.4968   21.3305    8.6512 C   0  0  0  0  0  0  0  0  0  0  0  0
   -4.5183   20.0148    8.9814 C   0  0  0  0  0  0  0  0  0  0  0  0
   -5.6637   19.4217    9.4407 C   0  0  0  0  0  0  0  0  0  0  0  0
   -6.7827   20.1801    9.6189 C   0  0  0  0  0  0  0  0  0  0  0  0
   -6.7606   21.5140    9.3183 C   0  0  0  0  0  0  0  0  0  0  0  0
   -5.6131   22.0985    8.8434 C   0  0  0  0  0  0  0  0  0  0  0  0
    8.6043   26.2285    4.0260 C   0  0  0  0  0  0  0  0  0  0  0  0
    9.8000   26.2114    4.1731 O   0  0  0  0  0  0  0  0  0  0  0  0
    7.9242   27.2695    4.4393 N   0  0  0  0  0  0  0  0  0  0  0  0
    6.9468   27.3025    4.3255 H   0  0  0  0  0  0  0  0  0  0  0  0
    8.6232   28.3670    5.0629 C   0  0  0  0  0  0  0  0  0  0  0  0
    7.9232   28.8900    6.2863 C   0  0  0  0  0  0  0  0  0  0  0  0
    6.9046   28.4295    6.6819 O   0  0  0  0  0  0  0  0  0  0  0  0
    8.5017   29.8769    6.9154 N   0  0  0  0  0  0  0  0  0  0  0  0
    9.3473   30.2493    6.5753 H   0  0  0  0  0  0  0  0  0  0  0  0
    8.0925   30.2488    7.7300 H   0  0  0  0  0  0  0  0  0  0  0  0
    8.8801   29.4988    4.1168 C   0  0  0  0  0  0  0  0  0  0  0  0
    7.7490   29.9890    3.2432 C   0  0  0  0  0  0  0  0  0  0  0  0
    7.5879   29.7341    1.7965 C   0  0  0  0  0  0  0  0  0  0  0  0
    8.2632   30.4210    1.0389 O   0  0  0  0  0  0  0  0  0  0  0  0
    6.8001   28.8906    1.3373 O   0  0  0  0  0  0  0  0  0  0  0  0
    6.2845   28.3662    1.9179 H   0  0  0  0  0  0  0  0  0  0  0  0
    7.3832   25.4066    1.8974 C   0  0  0  0  0  0  0  0  0  0  0  0
    8.4830   25.9177    0.9353 C   0  0  0  0  0  0  0  0  0  0  0  0
    9.3570   24.9482    0.1319 C   0  0  0  0  0  0  0  0  0  0  0  0
   10.2606   25.2573   -0.5859 O   0  0  0  0  0  0  0  0  0  0  0  0
    9.0507   23.6751    0.2170 N   0  0  0  0  0  0  0  0  0  0  0  0
    8.3117   23.3844    0.7989 H   0  0  0  0  0  0  0  0  0  0  0  0
    9.5599   23.0106   -0.3011 H   0  0  0  0  0  0  0  0  0  0  0  0
 30 29  1  0  0  0
 30 32  1  0  0  0
 30 31  2  0  0  0
 27 29  1  0  0  0
 27 25  1  0  0  0
 26 25  2  0  0  0
 29 35  1  0  0  0
  4  1  1  0  0  0
  4  3  1  0  0  0
  2  3  2  0  0  0
 35 36  1  0  0  0
 36 37  1  0  0  0
 45 43  1  0  0  0
 37 39  1  0  0  0
 37 38  2  0  0  0
 25  1  1  0  0  0
  1 41  1  0  0  0
 14 15  1  0  0  0
 14 18  1  0  0  0
 41 42  1  0  0  0
 42 43  1  0  0  0
 43 44  2  0  0  0
  3  6  1  0  0  0
  6  7  1  0  0  0
  7 12  1  0  0  0
  8 11  2  0  0  0
  8 12  1  0  0  0
  9 10  2  0  0  0
  9 13  1  0  0  0
 10 11  1  0  0  0
 10 15  1  0  0  0
 15 16  2  0  0  0
 16 17  1  0  0  0
 17 19  1  0  0  0
 17 18  2  0  0  0
 19 20  2  0  0  0
 19 24  1  0  0  0
 20 21  1  0  0  0
 21 22  2  0  0  0
 22 23  1  0  0  0
 23 24  2  0  0  0
 12 13  2  0  0  0
  4  5  1  0  0  0
 45 46  1  0  0  0
 45 47  1  0  0  0
 27 28  1  0  0  0
 39 40  1  0  0  0
 32 33  1  0  0  0
 32 34  1  0  0  0
M  END
> <minimizedAffinity>
-10.61156

$$$$
3TSK_QEG_A_306


 47 49  0  0  0  0  0  0  0  0999 V2000
    8.7515   27.6890    3.2597 C   0  0  0  0  0  0  0  0  0  0  0  0
    9.5247   25.3662    4.7591 O   0  0  0  0  0  0  0  0  0  0  0  0
    8.4000   25.7359    4.7601 C   0  0  0  0  0  0  0  0  0  0  0  0
    7.9701   26.7994    4.0979 N   0  0  0  0  0  0  0  0  0  0  0  0
    7.0123   27.0100    4.1843 H   0  0  0  0  0  0  0  0  0  0  0  0
    7.3808   24.9542    5.5480 C   0  0  0  0  0  0  0  0  0  0  0  0
    6.9084   23.6215    4.9986 C   0  0  0  0  0  0  0  0  0  0  0  0
    5.4737   22.1908    6.5338 C   0  0  0  0  0  0  0  0  0  0  0  0
    3.2274   23.4977    5.7713 C   0  0  0  0  0  0  0  0  0  0  0  0
    3.0746   22.4903    6.7043 C   0  0  0  0  0  0  0  0  0  0  0  0
    4.2378   21.8351    7.0798 C   0  0  0  0  0  0  0  0  0  0  0  0
    5.5909   23.2183    5.6043 C   0  0  0  0  0  0  0  0  0  0  0  0
    4.4409   23.8644    5.2196 C   0  0  0  0  0  0  0  0  0  0  0  0
    1.5195   20.8263    8.2013 S   0  0  0  0  0  0  0  0  0  0  0  0
    1.6810   22.1902    7.2406 C   0  0  0  0  0  0  0  0  0  0  0  0
    0.3936   22.6531    7.1881 C   0  0  0  0  0  0  0  0  0  0  0  0
   -0.5621   21.8587    7.9024 C   0  0  0  0  0  0  0  0  0  0  0  0
   -0.0958   20.7705    8.5548 C   0  0  0  0  0  0  0  0  0  0  0  0
   -1.9930   22.1216    8.0845 C   0  0  0  0  0  0  0  0  0  0  0  0
   -2.4430   23.4010    8.0509 C   0  0  0  0  0  0  0  0  0  0  0  0
   -3.7745   23.6842    8.1981 C   0  0  0  0  0  0  0  0  0  0  0  0
   -4.6646   22.6592    8.3257 C   0  0  0  0  0  0  0  0  0  0  0  0
   -4.2226   21.3651    8.3289 C   0  0  0  0  0  0  0  0  0  0  0  0
   -2.8846   21.0894    8.1966 C   0  0  0  0  0  0  0  0  0  0  0  0
    8.4246   29.1392    3.5865 C   0  0  0  0  0  0  0  0  0  0  0  0
    7.6856   29.8235    2.9255 O   0  0  0  0  0  0  0  0  0  0  0  0
    8.9692   29.6444    4.6660 N   0  0  0  0  0  0  0  0  0  0  0  0
    9.5737   29.0997    5.2201 H   0  0  0  0  0  0  0  0  0  0  0  0
    8.6731   31.0080    5.0338 C   0  0  0  0  0  0  0  0  0  0  0  0
    9.7416   31.9763    4.6087 C   0  0  0  0  0  0  0  0  0  0  0  0
   10.5235   32.4362    5.3723 O   0  0  0  0  0  0  0  0  0  0  0  0
    9.7848   32.2813    3.3399 N   0  0  0  0  0  0  0  0  0  0  0  0
    9.1291   31.8917    2.7174 H   0  0  0  0  0  0  0  0  0  0  0  0
   10.4731   32.9008    3.0057 H   0  0  0  0  0  0  0  0  0  0  0  0
    8.4155   31.1664    6.5003 C   0  0  0  0  0  0  0  0  0  0  0  0
    7.0444   30.8311    7.0396 C   0  0  0  0  0  0  0  0  0  0  0  0
    6.5531   29.4858    7.4038 C   0  0  0  0  0  0  0  0  0  0  0  0
    6.8863   28.5619    6.6708 O   0  0  0  0  0  0  0  0  0  0  0  0
    5.8192   29.2709    8.3826 O   0  0  0  0  0  0  0  0  0  0  0  0
    5.5653   29.9784    8.9421 H   0  0  0  0  0  0  0  0  0  0  0  0
    8.4998   27.2797    1.7881 C   0  0  0  0  0  0  0  0  0  0  0  0
    9.3324   26.0916    1.2482 C   0  0  0  0  0  0  0  0  0  0  0  0
    8.7138   24.7023    1.0573 C   0  0  0  0  0  0  0  0  0  0  0  0
    7.7574   24.2807    1.6358 O   0  0  0  0  0  0  0  0  0  0  0  0
    9.3201   23.9020    0.2123 N   0  0  0  0  0  0  0  0  0  0  0  0
   10.1115   24.2161   -0.2819 H   0  0  0  0  0  0  0  0  0  0  0  0
    8.9835   22.9874    0.0726 H   0  0  0  0  0  0  0  0  0  0  0  0
 30 29  1  0  0  0
 30 32  1  0  0  0
 30 31  2  0  0  0
 27 29  1  0  0  0
 27 25  1  0  0  0
 26 25  2  0  0  0
 29 35  1  0  0  0
  4  1  1  0  0  0
  4  3  1  0  0  0
  2  3  2  0  0  0
 35 36  1  0  0  0
 36 37  1  0  0  0
 45 43  1  0  0  0
 37 39  1  0  0  0
 37 38  2  0  0  0
 25  1  1  0  0  0
  1 41  1  0  0  0
 14 15  1  0  0  0
 14 18  1  0  0  0
 41 42  1  0  0  0
 42 43  1  0  0  0
 43 44  2  0  0  0
  3  6  1  0  0  0
  6  7  1  0  0  0
  7 12  1  0  0  0
  8 11  2  0  0  0
  8 12  1  0  0  0
  9 10  2  0  0  0
  9 13  1  0  0  0
 10 11  1  0  0  0
 10 15  1  0  0  0
 15 16  2  0  0  0
 16 17  1  0  0  0
 17 19  1  0  0  0
 17 18  2  0  0  0
 19 20  2  0  0  0
 19 24  1  0  0  0
 20 21  1  0  0  0
 21 22  2  0  0  0
 22 23  1  0  0  0
 23 24  2  0  0  0
 12 13  2  0  0  0
  4  5  1  0  0  0
 45 46  1  0  0  0
 45 47  1  0  0  0
 27 28  1  0  0  0
 39 40  1  0  0  0
 32 33  1  0  0  0
 32 34  1  0  0  0
M  END
> <minimizedAffinity>
-10.58271

$$$$
3TSK_QEG_A_306


 47 49  0  0  0  0  0  0  0  0999 V2000
    7.8586   25.3676    3.5456 C   0  0  0  0  0  0  0  0  0  0  0  0
    5.6658   24.8849    5.3345 O   0  0  0  0  0  0  0  0  0  0  0  0
    6.3094   23.9841    4.9150 C   0  0  0  0  0  0  0  0  0  0  0  0
    7.3305   24.1283    4.0838 N   0  0  0  0  0  0  0  0  0  0  0  0
    7.7820   23.3010    3.7990 H   0  0  0  0  0  0  0  0  0  0  0  0
    5.9667   22.5833    5.3518 C   0  0  0  0  0  0  0  0  0  0  0  0
    5.5007   22.3639    6.7787 C   0  0  0  0  0  0  0  0  0  0  0  0
    3.2150   23.1291    5.9713 C   0  0  0  0  0  0  0  0  0  0  0  0
    1.9833   21.8383    8.0089 C   0  0  0  0  0  0  0  0  0  0  0  0
    1.1711   22.5180    7.1218 C   0  0  0  0  0  0  0  0  0  0  0  0
    1.8233   23.1713    6.0869 C   0  0  0  0  0  0  0  0  0  0  0  0
    4.0002   22.4251    6.8776 C   0  0  0  0  0  0  0  0  0  0  0  0
    3.3613   21.7845    7.9118 C   0  0  0  0  0  0  0  0  0  0  0  0
   -1.2039   23.8056    6.7623 S   0  0  0  0  0  0  0  0  0  0  0  0
   -0.3364   22.4918    7.3370 C   0  0  0  0  0  0  0  0  0  0  0  0
   -1.3205   21.7327    7.9115 C   0  0  0  0  0  0  0  0  0  0  0  0
   -2.6364   22.2963    7.8385 C   0  0  0  0  0  0  0  0  0  0  0  0
   -2.7651   23.4837    7.2055 C   0  0  0  0  0  0  0  0  0  0  0  0
   -3.8951   21.7040    8.3018 C   0  0  0  0  0  0  0  0  0  0  0  0
   -3.9703   20.3619    8.4846 C   0  0  0  0  0  0  0  0  0  0  0  0
   -5.1227   19.7750    8.9342 C   0  0  0  0  0  0  0  0  0  0  0  0
   -6.1908   20.5600    9.2534 C   0  0  0  0  0  0  0  0  0  0  0  0
   -6.1128   21.9169    9.1018 C   0  0  0  0  0  0  0  0  0  0  0  0
   -4.9594   22.4969    8.6357 C   0  0  0  0  0  0  0  0  0  0  0  0
    8.1070   25.2263    2.0506 C   0  0  0  0  0  0  0  0  0  0  0  0
    7.8172   24.2452    1.4143 O   0  0  0  0  0  0  0  0  0  0  0  0
    8.6448   26.2511    1.4361 N   0  0  0  0  0  0  0  0  0  0  0  0
    8.8860   27.0624    1.9389 H   0  0  0  0  0  0  0  0  0  0  0  0
    8.8796   26.1776    0.0142 C   0  0  0  0  0  0  0  0  0  0  0  0
   10.2319   25.6179   -0.3296 C   0  0  0  0  0  0  0  0  0  0  0  0
   10.4216   24.9641   -1.3005 O   0  0  0  0  0  0  0  0  0  0  0  0
   11.2086   25.9009    0.4893 N   0  0  0  0  0  0  0  0  0  0  0  0
   11.0364   26.4448    1.2916 H   0  0  0  0  0  0  0  0  0  0  0  0
   12.1174   25.5703    0.3044 H   0  0  0  0  0  0  0  0  0  0  0  0
    8.7016   27.4984   -0.6684 C   0  0  0  0  0  0  0  0  0  0  0  0
    8.8764   28.7644    0.1375 C   0  0  0  0  0  0  0  0  0  0  0  0
    8.0170   29.2178    1.2509 C   0  0  0  0  0  0  0  0  0  0  0  0
    8.4724   30.0960    1.9743 O   0  0  0  0  0  0  0  0  0  0  0  0
    6.8950   28.7384    1.4839 O   0  0  0  0  0  0  0  0  0  0  0  0
    6.5482   28.0670    0.9298 H   0  0  0  0  0  0  0  0  0  0  0  0
    9.1068   25.7415    4.3814 C   0  0  0  0  0  0  0  0  0  0  0  0
    9.0810   27.1203    5.0847 C   0  0  0  0  0  0  0  0  0  0  0  0
    7.7607   27.8048    5.4557 C   0  0  0  0  0  0  0  0  0  0  0  0
    7.0410   27.4879    6.3550 O   0  0  0  0  0  0  0  0  0  0  0  0
    7.3792   28.7975    4.6870 N   0  0  0  0  0  0  0  0  0  0  0  0
    7.9475   29.0854    3.9364 H   0  0  0  0  0  0  0  0  0  0  0  0
    6.5247   29.2545    4.8609 H   0  0  0  0  0  0  0  0  0  0  0  0
 30 29  1  0  0  0
 30 32  1  0  0  0
 30 31  2  0  0  0
 27 29  1  0  0  0
 27 25  1  0  0  0
 26 25  2  0  0  0
 29 35  1  0  0  0
  4  1  1  0  0  0
  4  3  1  0  0  0
  2  3  2  0  0  0
 35 36  1  0  0  0
 36 37  1  0  0  0
 45 43  1  0  0  0
 37 39  1  0  0  0
 37 38  2  0  0  0
 25  1  1  0  0  0
  1 41  1  0  0  0
 14 15  1  0  0  0
 14 18  1  0  0  0
 41 42  1  0  0  0
 42 43  1  0  0  0
 43 44  2  0  0  0
  3  6  1  0  0  0
  6  7  1  0  0  0
  7 12  1  0  0  0
  8 11  2  0  0  0
  8 12  1  0  0  0
  9 10  2  0  0  0
  9 13  1  0  0  0
 10 11  1  0  0  0
 10 15  1  0  0  0
 15 16  2  0  0  0
 16 17  1  0  0  0
 17 19  1  0  0  0
 17 18  2  0  0  0
 19 20  2  0  0  0
 19 24  1  0  0  0
 20 21  1  0  0  0
 21 22  2  0  0  0
 22 23  1  0  0  0
 23 24  2  0  0  0
 12 13  2  0  0  0
  4  5  1  0  0  0
 45 46  1  0  0  0
 45 47  1  0  0  0
 27 28  1  0  0  0
 39 40  1  0  0  0
 32 33  1  0  0  0
 32 34  1  0  0  0
M  END
> <minimizedAffinity>
-10.27641

$$$$
3TSK_QEG_A_306


 47 49  0  0  0  0  0  0  0  0999 V2000
    8.1437   26.9945    5.5643 C   0  0  0  0  0  0  0  0  0  0  0  0
    8.3680   24.1326    5.5336 O   0  0  0  0  0  0  0  0  0  0  0  0
    7.3155   24.6551    5.3890 C   0  0  0  0  0  0  0  0  0  0  0  0
    7.1334   25.9670    5.3964 N   0  0  0  0  0  0  0  0  0  0  0  0
    6.2081   26.2802    5.2742 H   0  0  0  0  0  0  0  0  0  0  0  0
    6.1009   23.7903    5.1713 C   0  0  0  0  0  0  0  0  0  0  0  0
    5.8121   22.6840    6.1683 C   0  0  0  0  0  0  0  0  0  0  0  0
    3.8360   21.8039    7.5032 C   0  0  0  0  0  0  0  0  0  0  0  0
    2.0985   23.2792    6.0404 C   0  0  0  0  0  0  0  0  0  0  0  0
    1.5596   22.4989    7.0451 C   0  0  0  0  0  0  0  0  0  0  0  0
    2.4677   21.7523    7.7808 C   0  0  0  0  0  0  0  0  0  0  0  0
    4.3439   22.6100    6.4904 C   0  0  0  0  0  0  0  0  0  0  0  0
    3.4487   23.3441    5.7503 C   0  0  0  0  0  0  0  0  0  0  0  0
   -0.7768   23.8496    6.6653 S   0  0  0  0  0  0  0  0  0  0  0  0
    0.0531   22.5238    7.2673 C   0  0  0  0  0  0  0  0  0  0  0  0
   -0.9507   21.8088    7.8638 C   0  0  0  0  0  0  0  0  0  0  0  0
   -2.2492   22.4105    7.7831 C   0  0  0  0  0  0  0  0  0  0  0  0
   -2.3449   23.5860    7.1226 C   0  0  0  0  0  0  0  0  0  0  0  0
   -3.5230   21.8680    8.2657 C   0  0  0  0  0  0  0  0  0  0  0  0
   -4.5587   22.7123    8.4999 C   0  0  0  0  0  0  0  0  0  0  0  0
   -5.7690   22.2405    8.9328 C   0  0  0  0  0  0  0  0  0  0  0  0
   -5.9484   20.8967    9.0774 C   0  0  0  0  0  0  0  0  0  0  0  0
   -4.9189   20.0362    8.8130 C   0  0  0  0  0  0  0  0  0  0  0  0
   -3.7036   20.5175    8.3945 C   0  0  0  0  0  0  0  0  0  0  0  0
    7.6544   28.0568    6.5384 C   0  0  0  0  0  0  0  0  0  0  0  0
    6.4906   28.2988    6.7348 O   0  0  0  0  0  0  0  0  0  0  0  0
    8.5666   28.7165    7.2090 N   0  0  0  0  0  0  0  0  0  0  0  0
    9.5225   28.5308    7.0637 H   0  0  0  0  0  0  0  0  0  0  0  0
    8.1550   29.7181    8.1626 C   0  0  0  0  0  0  0  0  0  0  0  0
    8.4613   31.1192    7.7120 C   0  0  0  0  0  0  0  0  0  0  0  0
    9.0232   31.3514    6.6940 O   0  0  0  0  0  0  0  0  0  0  0  0
    8.0609   32.0864    8.4923 N   0  0  0  0  0  0  0  0  0  0  0  0
    7.5955   31.8787    9.3346 H   0  0  0  0  0  0  0  0  0  0  0  0
    8.2243   33.0235    8.2383 H   0  0  0  0  0  0  0  0  0  0  0  0
    8.7417   29.4952    9.5221 C   0  0  0  0  0  0  0  0  0  0  0  0
    8.1684   28.4012   10.3925 C   0  0  0  0  0  0  0  0  0  0  0  0
    8.7522   27.8873   11.6490 C   0  0  0  0  0  0  0  0  0  0  0  0
    8.2912   26.8368   12.0799 O   0  0  0  0  0  0  0  0  0  0  0  0
    9.6491   28.4769   12.2742 O   0  0  0  0  0  0  0  0  0  0  0  0
   10.0006   29.2800   11.9434 H   0  0  0  0  0  0  0  0  0  0  0  0
    8.5086   27.5208    4.1550 C   0  0  0  0  0  0  0  0  0  0  0  0
    9.3728   26.5893    3.2708 C   0  0  0  0  0  0  0  0  0  0  0  0
    8.7534   25.7534    2.1451 C   0  0  0  0  0  0  0  0  0  0  0  0
    8.2148   26.1878    1.1712 O   0  0  0  0  0  0  0  0  0  0  0  0
    8.7889   24.4503    2.2952 N   0  0  0  0  0  0  0  0  0  0  0  0
    9.2246   24.0576    3.0858 H   0  0  0  0  0  0  0  0  0  0  0  0
    8.3796   23.8654    1.6173 H   0  0  0  0  0  0  0  0  0  0  0  0
 30 29  1  0  0  0
 30 32  1  0  0  0
 30 31  2  0  0  0
 27 29  1  0  0  0
 27 25  1  0  0  0
 26 25  2  0  0  0
 29 35  1  0  0  0
  4  1  1  0  0  0
  4  3  1  0  0  0
  2  3  2  0  0  0
 35 36  1  0  0  0
 36 37  1  0  0  0
 45 43  1  0  0  0
 37 39  1  0  0  0
 37 38  2  0  0  0
 25  1  1  0  0  0
  1 41  1  0  0  0
 14 15  1  0  0  0
 14 18  1  0  0  0
 41 42  1  0  0  0
 42 43  1  0  0  0
 43 44  2  0  0  0
  3  6  1  0  0  0
  6  7  1  0  0  0
  7 12  1  0  0  0
  8 11  2  0  0  0
  8 12  1  0  0  0
  9 10  2  0  0  0
  9 13  1  0  0  0
 10 11  1  0  0  0
 10 15  1  0  0  0
 15 16  2  0  0  0
 16 17  1  0  0  0
 17 19  1  0  0  0
 17 18  2  0  0  0
 19 20  2  0  0  0
 19 24  1  0  0  0
 20 21  1  0  0  0
 21 22  2  0  0  0
 22 23  1  0  0  0
 23 24  2  0  0  0
 12 13  2  0  0  0
  4  5  1  0  0  0
 45 46  1  0  0  0
 45 47  1  0  0  0
 27 28  1  0  0  0
 39 40  1  0  0  0
 32 33  1  0  0  0
 32 34  1  0  0  0
M  END
> <minimizedAffinity>
-10.15251

$$$$
3TSK_QEG_A_306


 47 49  0  0  0  0  0  0  0  0999 V2000
    7.4108   28.0037    5.3039 C   0  0  0  0  0  0  0  0  0  0  0  0
    8.8434   25.6742    4.4307 O   0  0  0  0  0  0  0  0  0  0  0  0
    7.6748   25.6279    4.6145 C   0  0  0  0  0  0  0  0  0  0  0  0
    6.9484   26.6580    5.0215 N   0  0  0  0  0  0  0  0  0  0  0  0
    5.9861   26.4917    5.1463 H   0  0  0  0  0  0  0  0  0  0  0  0
    6.9526   24.3293    4.3643 C   0  0  0  0  0  0  0  0  0  0  0  0
    6.8832   23.3119    5.4875 C   0  0  0  0  0  0  0  0  0  0  0  0
    4.3876   23.7877    5.4021 C   0  0  0  0  0  0  0  0  0  0  0  0
    3.8872   21.8795    7.2578 C   0  0  0  0  0  0  0  0  0  0  0  0
    2.7962   22.5686    6.7644 C   0  0  0  0  0  0  0  0  0  0  0  0
    3.0761   23.5406    5.8157 C   0  0  0  0  0  0  0  0  0  0  0  0
    5.4608   23.0661    5.9131 C   0  0  0  0  0  0  0  0  0  0  0  0
    5.1917   22.1090    6.8616 C   0  0  0  0  0  0  0  0  0  0  0  0
    1.2783   20.8172    8.1984 S   0  0  0  0  0  0  0  0  0  0  0  0
    1.4077   22.2126    7.2791 C   0  0  0  0  0  0  0  0  0  0  0  0
    0.1076   22.6393    7.2284 C   0  0  0  0  0  0  0  0  0  0  0  0
   -0.8301   21.7970    7.9107 C   0  0  0  0  0  0  0  0  0  0  0  0
   -0.3376   20.7042    8.5355 C   0  0  0  0  0  0  0  0  0  0  0  0
   -2.2696   22.0128    8.0874 C   0  0  0  0  0  0  0  0  0  0  0  0
   -3.0918   20.9411    8.2128 C   0  0  0  0  0  0  0  0  0  0  0  0
   -4.4386   21.1035    8.3982 C   0  0  0  0  0  0  0  0  0  0  0  0
   -4.9495   22.3625    8.5122 C   0  0  0  0  0  0  0  0  0  0  0  0
   -4.1229   23.4478    8.4185 C   0  0  0  0  0  0  0  0  0  0  0  0
   -2.7759   23.2777    8.2169 C   0  0  0  0  0  0  0  0  0  0  0  0
    8.2193   28.5375    4.1300 C   0  0  0  0  0  0  0  0  0  0  0  0
    9.2586   29.1349    4.2503 O   0  0  0  0  0  0  0  0  0  0  0  0
    7.7531   28.3012    2.9283 N   0  0  0  0  0  0  0  0  0  0  0  0
    6.9068   27.8124    2.8102 H   0  0  0  0  0  0  0  0  0  0  0  0
    8.4938   28.7653    1.7802 C   0  0  0  0  0  0  0  0  0  0  0  0
    7.9924   30.0796    1.2498 C   0  0  0  0  0  0  0  0  0  0  0  0
    7.2575   30.1524    0.3222 O   0  0  0  0  0  0  0  0  0  0  0  0
    8.3922   31.1543    1.8742 N   0  0  0  0  0  0  0  0  0  0  0  0
    9.0025   31.0787    2.6429 H   0  0  0  0  0  0  0  0  0  0  0  0
    8.0834   32.0404    1.5762 H   0  0  0  0  0  0  0  0  0  0  0  0
    8.5239   27.7615    0.6695 C   0  0  0  0  0  0  0  0  0  0  0  0
    7.9099   26.4005    0.9008 C   0  0  0  0  0  0  0  0  0  0  0  0
    8.5533   25.0955    0.6420 C   0  0  0  0  0  0  0  0  0  0  0  0
    8.6153   24.7357   -0.5278 O   0  0  0  0  0  0  0  0  0  0  0  0
    8.9980   24.3651    1.5429 O   0  0  0  0  0  0  0  0  0  0  0  0
    8.9499   24.6416    2.4369 H   0  0  0  0  0  0  0  0  0  0  0  0
    8.1702   27.9596    6.6521 C   0  0  0  0  0  0  0  0  0  0  0  0
    7.6730   28.9219    7.7581 C   0  0  0  0  0  0  0  0  0  0  0  0
    8.2961   30.3089    7.9515 C   0  0  0  0  0  0  0  0  0  0  0  0
    8.2518   30.9583    8.9533 O   0  0  0  0  0  0  0  0  0  0  0  0
    8.8919   30.8344    6.9071 N   0  0  0  0  0  0  0  0  0  0  0  0
    8.9470   30.3275    6.0649 H   0  0  0  0  0  0  0  0  0  0  0  0
    9.2839   31.7356    6.9657 H   0  0  0  0  0  0  0  0  0  0  0  0
 30 29  1  0  0  0
 30 32  1  0  0  0
 30 31  2  0  0  0
 27 29  1  0  0  0
 27 25  1  0  0  0
 26 25  2  0  0  0
 29 35  1  0  0  0
  4  1  1  0  0  0
  4  3  1  0  0  0
  2  3  2  0  0  0
 35 36  1  0  0  0
 36 37  1  0  0  0
 45 43  1  0  0  0
 37 39  1  0  0  0
 37 38  2  0  0  0
 25  1  1  0  0  0
  1 41  1  0  0  0
 14 15  1  0  0  0
 14 18  1  0  0  0
 41 42  1  0  0  0
 42 43  1  0  0  0
 43 44  2  0  0  0
  3  6  1  0  0  0
  6  7  1  0  0  0
  7 12  1  0  0  0
  8 11  2  0  0  0
  8 12  1  0  0  0
  9 10  2  0  0  0
  9 13  1  0  0  0
 10 11  1  0  0  0
 10 15  1  0  0  0
 15 16  2  0  0  0
 16 17  1  0  0  0
 17 19  1  0  0  0
 17 18  2  0  0  0
 19 20  2  0  0  0
 19 24  1  0  0  0
 20 21  1  0  0  0
 21 22  2  0  0  0
 22 23  1  0  0  0
 23 24  2  0  0  0
 12 13  2  0  0  0
  4  5  1  0  0  0
 45 46  1  0  0  0
 45 47  1  0  0  0
 27 28  1  0  0  0
 39 40  1  0  0  0
 32 33  1  0  0  0
 32 34  1  0  0  0
M  END
> <minimizedAffinity>
-10.00206

$$$$
3TSK_QEG_A_306


 47 49  0  0  0  0  0  0  0  0999 V2000
    8.1003   27.7660    3.3308 C   0  0  0  0  0  0  0  0  0  0  0  0
    6.7216   27.0195    5.7357 O   0  0  0  0  0  0  0  0  0  0  0  0
    7.4042   26.2376    5.1662 C   0  0  0  0  0  0  0  0  0  0  0  0
    8.0658   26.5071    4.0509 N   0  0  0  0  0  0  0  0  0  0  0  0
    8.5938   25.7700    3.6672 H   0  0  0  0  0  0  0  0  0  0  0  0
    7.5491   24.8507    5.7373 C   0  0  0  0  0  0  0  0  0  0  0  0
    6.9345   23.6886    4.9802 C   0  0  0  0  0  0  0  0  0  0  0  0
    5.5105   22.2951    6.5589 C   0  0  0  0  0  0  0  0  0  0  0  0
    3.2453   23.5059    5.6999 C   0  0  0  0  0  0  0  0  0  0  0  0
    3.1020   22.5400    6.6772 C   0  0  0  0  0  0  0  0  0  0  0  0
    4.2749   21.9337    7.1016 C   0  0  0  0  0  0  0  0  0  0  0  0
    5.6176   23.2804    5.5835 C   0  0  0  0  0  0  0  0  0  0  0  0
    4.4583   23.8776    5.1505 C   0  0  0  0  0  0  0  0  0  0  0  0
    1.5601   20.8945    8.2077 S   0  0  0  0  0  0  0  0  0  0  0  0
    1.7076   22.2294    7.2051 C   0  0  0  0  0  0  0  0  0  0  0  0
    0.4120   22.6644    7.1210 C   0  0  0  0  0  0  0  0  0  0  0  0
   -0.5373   21.8745    7.8486 C   0  0  0  0  0  0  0  0  0  0  0  0
   -0.0585   20.8176    8.5421 C   0  0  0  0  0  0  0  0  0  0  0  0
   -1.9754   22.1143    8.0037 C   0  0  0  0  0  0  0  0  0  0  0  0
   -2.8164   21.0566    8.1230 C   0  0  0  0  0  0  0  0  0  0  0  0
   -4.1629   21.2415    8.2884 C   0  0  0  0  0  0  0  0  0  0  0  0
   -4.6551   22.5091    8.3885 C   0  0  0  0  0  0  0  0  0  0  0  0
   -3.8099   23.5806    8.3008 C   0  0  0  0  0  0  0  0  0  0  0  0
   -2.4631   23.3878    8.1193 C   0  0  0  0  0  0  0  0  0  0  0  0
    8.4835   27.5282    1.8771 C   0  0  0  0  0  0  0  0  0  0  0  0
    8.2979   28.3297    0.9969 O   0  0  0  0  0  0  0  0  0  0  0  0
    9.0696   26.3911    1.5932 N   0  0  0  0  0  0  0  0  0  0  0  0
    9.2319   25.7250    2.2998 H   0  0  0  0  0  0  0  0  0  0  0  0
    9.4745   26.1259    0.2339 C   0  0  0  0  0  0  0  0  0  0  0  0
    8.9412   24.8234   -0.2944 C   0  0  0  0  0  0  0  0  0  0  0  0
    8.4651   24.7228   -1.3757 O   0  0  0  0  0  0  0  0  0  0  0  0
    9.0414   23.7867    0.4929 N   0  0  0  0  0  0  0  0  0  0  0  0
    9.4389   23.8852    1.3882 H   0  0  0  0  0  0  0  0  0  0  0  0
    8.7196   22.9066    0.1913 H   0  0  0  0  0  0  0  0  0  0  0  0
   10.9612   26.1606    0.0582 C   0  0  0  0  0  0  0  0  0  0  0  0
   11.5264   26.3519   -1.3300 C   0  0  0  0  0  0  0  0  0  0  0  0
   12.8999   26.7837   -1.6630 C   0  0  0  0  0  0  0  0  0  0  0  0
   13.1997   27.9356   -1.3715 O   0  0  0  0  0  0  0  0  0  0  0  0
   13.7257   26.0495   -2.2303 O   0  0  0  0  0  0  0  0  0  0  0  0
   13.4950   25.1689   -2.4525 H   0  0  0  0  0  0  0  0  0  0  0  0
    9.0430   28.7181    4.1061 C   0  0  0  0  0  0  0  0  0  0  0  0
    8.4334   30.0591    4.5822 C   0  0  0  0  0  0  0  0  0  0  0  0
    9.3067   31.1671    5.1812 C   0  0  0  0  0  0  0  0  0  0  0  0
    9.1810   31.6397    6.2712 O   0  0  0  0  0  0  0  0  0  0  0  0
   10.2441   31.6584    4.4054 N   0  0  0  0  0  0  0  0  0  0  0  0
   10.3760   31.2930    3.5008 H   0  0  0  0  0  0  0  0  0  0  0  0
   10.8156   32.3923    4.7280 H   0  0  0  0  0  0  0  0  0  0  0  0
 30 29  1  0  0  0
 30 32  1  0  0  0
 30 31  2  0  0  0
 27 29  1  0  0  0
 27 25  1  0  0  0
 26 25  2  0  0  0
 29 35  1  0  0  0
  4  1  1  0  0  0
  4  3  1  0  0  0
  2  3  2  0  0  0
 35 36  1  0  0  0
 36 37  1  0  0  0
 45 43  1  0  0  0
 37 39  1  0  0  0
 37 38  2  0  0  0
 25  1  1  0  0  0
  1 41  1  0  0  0
 14 15  1  0  0  0
 14 18  1  0  0  0
 41 42  1  0  0  0
 42 43  1  0  0  0
 43 44  2  0  0  0
  3  6  1  0  0  0
  6  7  1  0  0  0
  7 12  1  0  0  0
  8 11  2  0  0  0
  8 12  1  0  0  0
  9 10  2  0  0  0
  9 13  1  0  0  0
 10 11  1  0  0  0
 10 15  1  0  0  0
 15 16  2  0  0  0
 16 17  1  0  0  0
 17 19  1  0  0  0
 17 18  2  0  0  0
 19 20  2  0  0  0
 19 24  1  0  0  0
 20 21  1  0  0  0
 21 22  2  0  0  0
 22 23  1  0  0  0
 23 24  2  0  0  0
 12 13  2  0  0  0
  4  5  1  0  0  0
 45 46  1  0  0  0
 45 47  1  0  0  0
 27 28  1  0  0  0
 39 40  1  0  0  0
 32 33  1  0  0  0
 32 34  1  0  0  0
M  END
> <minimizedAffinity>
-9.92977

$$$$
3TSK_QEG_A_306


 47 49  0  0  0  0  0  0  0  0999 V2000
    7.1819   27.5666    5.4478 C   0  0  0  0  0  0  0  0  0  0  0  0
    8.5280   25.0311    5.4239 O   0  0  0  0  0  0  0  0  0  0  0  0
    7.3800   25.1054    5.1439 C   0  0  0  0  0  0  0  0  0  0  0  0
    6.6917   26.2370    5.1376 N   0  0  0  0  0  0  0  0  0  0  0  0
    5.7400   26.1680    4.8950 H   0  0  0  0  0  0  0  0  0  0  0  0
    6.6452   23.8477    4.7582 C   0  0  0  0  0  0  0  0  0  0  0  0
    6.3737   22.8103    5.8312 C   0  0  0  0  0  0  0  0  0  0  0  0
    4.4010   21.9110    7.1585 C   0  0  0  0  0  0  0  0  0  0  0  0
    2.6704   23.4776    5.7852 C   0  0  0  0  0  0  0  0  0  0  0  0
    2.1316   22.6657    6.7646 C   0  0  0  0  0  0  0  0  0  0  0  0
    3.0361   21.8726    7.4546 C   0  0  0  0  0  0  0  0  0  0  0  0
    4.9091   22.7495    6.1724 C   0  0  0  0  0  0  0  0  0  0  0  0
    4.0171   23.5300    5.4774 C   0  0  0  0  0  0  0  0  0  0  0  0
   -0.1992   24.0288    6.3947 S   0  0  0  0  0  0  0  0  0  0  0  0
    0.6292   22.7085    7.0107 C   0  0  0  0  0  0  0  0  0  0  0  0
   -0.3707   22.0151    7.6383 C   0  0  0  0  0  0  0  0  0  0  0  0
   -1.6652   22.6264    7.5661 C   0  0  0  0  0  0  0  0  0  0  0  0
   -1.7617   23.7887    6.8828 C   0  0  0  0  0  0  0  0  0  0  0  0
   -2.9354   22.1053    8.0806 C   0  0  0  0  0  0  0  0  0  0  0  0
   -3.9543   22.9657    8.3301 C   0  0  0  0  0  0  0  0  0  0  0  0
   -5.1611   22.5140    8.7929 C   0  0  0  0  0  0  0  0  0  0  0  0
   -5.3556   21.1740    8.9525 C   0  0  0  0  0  0  0  0  0  0  0  0
   -4.3438   20.2973    8.6731 C   0  0  0  0  0  0  0  0  0  0  0  0
   -3.1315   20.7586    8.2244 C   0  0  0  0  0  0  0  0  0  0  0  0
    8.1712   28.0221    4.3845 C   0  0  0  0  0  0  0  0  0  0  0  0
    9.3619   28.0787    4.5593 O   0  0  0  0  0  0  0  0  0  0  0  0
    7.6811   28.3424    3.2122 N   0  0  0  0  0  0  0  0  0  0  0  0
    6.7110   28.3000    3.0499 H   0  0  0  0  0  0  0  0  0  0  0  0
    8.5788   28.7582    2.1618 C   0  0  0  0  0  0  0  0  0  0  0  0
    8.3240   30.1639    1.6935 C   0  0  0  0  0  0  0  0  0  0  0  0
    7.3923   30.7980    2.0621 O   0  0  0  0  0  0  0  0  0  0  0  0
    9.1948   30.6721    0.8641 N   0  0  0  0  0  0  0  0  0  0  0  0
    9.9635   30.1338    0.5665 H   0  0  0  0  0  0  0  0  0  0  0  0
    9.0828   31.5936    0.5362 H   0  0  0  0  0  0  0  0  0  0  0  0
    8.5574   27.8322    0.9852 C   0  0  0  0  0  0  0  0  0  0  0  0
    8.8045   26.3591    1.2130 C   0  0  0  0  0  0  0  0  0  0  0  0
    7.7752   25.3276    1.4588 C   0  0  0  0  0  0  0  0  0  0  0  0
    8.0923   24.1676    1.2226 O   0  0  0  0  0  0  0  0  0  0  0  0
    6.6301   25.5907    1.8616 O   0  0  0  0  0  0  0  0  0  0  0  0
    6.3892   26.4782    2.0417 H   0  0  0  0  0  0  0  0  0  0  0  0
    7.7456   27.5285    6.8891 C   0  0  0  0  0  0  0  0  0  0  0  0
    7.3254   28.6859    7.8272 C   0  0  0  0  0  0  0  0  0  0  0  0
    7.9288   28.8400    9.2278 C   0  0  0  0  0  0  0  0  0  0  0  0
    8.9886   29.3308    9.4790 O   0  0  0  0  0  0  0  0  0  0  0  0
    7.2292   28.3504   10.2243 N   0  0  0  0  0  0  0  0  0  0  0  0
    6.3515   27.9385   10.0539 H   0  0  0  0  0  0  0  0  0  0  0  0
    7.5822   28.3951   11.1422 H   0  0  0  0  0  0  0  0  0  0  0  0
 30 29  1  0  0  0
 30 32  1  0  0  0
 30 31  2  0  0  0
 27 29  1  0  0  0
 27 25  1  0  0  0
 26 25  2  0  0  0
 29 35  1  0  0  0
  4  1  1  0  0  0
  4  3  1  0  0  0
  2  3  2  0  0  0
 35 36  1  0  0  0
 36 37  1  0  0  0
 45 43  1  0  0  0
 37 39  1  0  0  0
 37 38  2  0  0  0
 25  1  1  0  0  0
  1 41  1  0  0  0
 14 15  1  0  0  0
 14 18  1  0  0  0
 41 42  1  0  0  0
 42 43  1  0  0  0
 43 44  2  0  0  0
  3  6  1  0  0  0
  6  7  1  0  0  0
  7 12  1  0  0  0
  8 11  2  0  0  0
  8 12  1  0  0  0
  9 10  2  0  0  0
  9 13  1  0  0  0
 10 11  1  0  0  0
 10 15  1  0  0  0
 15 16  2  0  0  0
 16 17  1  0  0  0
 17 19  1  0  0  0
 17 18  2  0  0  0
 19 20  2  0  0  0
 19 24  1  0  0  0
 20 21  1  0  0  0
 21 22  2  0  0  0
 22 23  1  0  0  0
 23 24  2  0  0  0
 12 13  2  0  0  0
  4  5  1  0  0  0
 45 46  1  0  0  0
 45 47  1  0  0  0
 27 28  1  0  0  0
 39 40  1  0  0  0
 32 33  1  0  0  0
 32 34  1  0  0  0
M  END
> <minimizedAffinity>
-9.87151

$$$$
3TSK_QEG_A_306


 47 49  0  0  0  0  0  0  0  0999 V2000
    8.2010   28.2259    6.3512 C   0  0  0  0  0  0  0  0  0  0  0  0
    9.1359   25.7957    5.1423 O   0  0  0  0  0  0  0  0  0  0  0  0
    7.9779   26.0377    5.1885 C   0  0  0  0  0  0  0  0  0  0  0  0
    7.4724   27.1340    5.7337 N   0  0  0  0  0  0  0  0  0  0  0  0
    6.4915   27.2171    5.7180 H   0  0  0  0  0  0  0  0  0  0  0  0
    7.0074   25.0553    4.5856 C   0  0  0  0  0  0  0  0  0  0  0  0
    7.0286   23.6213    5.0799 C   0  0  0  0  0  0  0  0  0  0  0  0
    5.5638   22.2353    6.6276 C   0  0  0  0  0  0  0  0  0  0  0  0
    3.3266   23.4773    5.7403 C   0  0  0  0  0  0  0  0  0  0  0  0
    3.1568   22.5075    6.7094 C   0  0  0  0  0  0  0  0  0  0  0  0
    4.3156   21.8851    7.1486 C   0  0  0  0  0  0  0  0  0  0  0  0
    5.6976   23.2249    5.6600 C   0  0  0  0  0  0  0  0  0  0  0  0
    4.5523   23.8380    5.2123 C   0  0  0  0  0  0  0  0  0  0  0  0
    1.5636   20.8441    8.1663 S   0  0  0  0  0  0  0  0  0  0  0  0
    1.7506   22.2101    7.2134 C   0  0  0  0  0  0  0  0  0  0  0  0
    0.4660   22.6770    7.1334 C   0  0  0  0  0  0  0  0  0  0  0  0
   -0.5077   21.8835    7.8238 C   0  0  0  0  0  0  0  0  0  0  0  0
   -0.0595   20.7921    8.4834 C   0  0  0  0  0  0  0  0  0  0  0  0
   -1.9416   22.1503    7.9745 C   0  0  0  0  0  0  0  0  0  0  0  0
   -2.7979   21.1102    8.1336 C   0  0  0  0  0  0  0  0  0  0  0  0
   -4.1409   21.3211    8.2963 C   0  0  0  0  0  0  0  0  0  0  0  0
   -4.6138   22.5987    8.3530 C   0  0  0  0  0  0  0  0  0  0  0  0
   -3.7529   23.6536    8.2250 C   0  0  0  0  0  0  0  0  0  0  0  0
   -2.4098   23.4343    8.0465 C   0  0  0  0  0  0  0  0  0  0  0  0
    7.3657   28.8541    7.4577 C   0  0  0  0  0  0  0  0  0  0  0  0
    6.2673   29.3180    7.2851 O   0  0  0  0  0  0  0  0  0  0  0  0
    7.8791   28.8577    8.6634 N   0  0  0  0  0  0  0  0  0  0  0  0
    8.7742   28.4808    8.8242 H   0  0  0  0  0  0  0  0  0  0  0  0
    7.1180   29.4201    9.7527 C   0  0  0  0  0  0  0  0  0  0  0  0
    7.6432   30.7526   10.2097 C   0  0  0  0  0  0  0  0  0  0  0  0
    8.5660   31.2851    9.6891 O   0  0  0  0  0  0  0  0  0  0  0  0
    7.0200   31.3167   11.2087 N   0  0  0  0  0  0  0  0  0  0  0  0
    6.2553   30.8629   11.6312 H   0  0  0  0  0  0  0  0  0  0  0  0
    7.3146   32.1959   11.5394 H   0  0  0  0  0  0  0  0  0  0  0  0
    7.0226   28.4957   10.9268 C   0  0  0  0  0  0  0  0  0  0  0  0
    8.2967   27.9615   11.5388 C   0  0  0  0  0  0  0  0  0  0  0  0
    8.3964   26.9084   12.5707 C   0  0  0  0  0  0  0  0  0  0  0  0
    8.7122   25.7890   12.1848 O   0  0  0  0  0  0  0  0  0  0  0  0
    8.1567   27.1084   13.7730 O   0  0  0  0  0  0  0  0  0  0  0  0
    7.9154   27.9649   14.0664 H   0  0  0  0  0  0  0  0  0  0  0  0
    8.6247   29.1973    5.2229 C   0  0  0  0  0  0  0  0  0  0  0  0
    7.5772   29.4723    4.1168 C   0  0  0  0  0  0  0  0  0  0  0  0
    7.8940   29.2306    2.6368 C   0  0  0  0  0  0  0  0  0  0  0  0
    8.0568   30.0796    1.8122 O   0  0  0  0  0  0  0  0  0  0  0  0
    7.9488   27.9792    2.2459 N   0  0  0  0  0  0  0  0  0  0  0  0
    7.8193   27.2535    2.8986 H   0  0  0  0  0  0  0  0  0  0  0  0
    8.1195   27.7659    1.3001 H   0  0  0  0  0  0  0  0  0  0  0  0
 30 29  1  0  0  0
 30 32  1  0  0  0
 30 31  2  0  0  0
 27 29  1  0  0  0
 27 25  1  0  0  0
 26 25  2  0  0  0
 29 35  1  0  0  0
  4  1  1  0  0  0
  4  3  1  0  0  0
  2  3  2  0  0  0
 35 36  1  0  0  0
 36 37  1  0  0  0
 45 43  1  0  0  0
 37 39  1  0  0  0
 37 38  2  0  0  0
 25  1  1  0  0  0
  1 41  1  0  0  0
 14 15  1  0  0  0
 14 18  1  0  0  0
 41 42  1  0  0  0
 42 43  1  0  0  0
 43 44  2  0  0  0
  3  6  1  0  0  0
  6  7  1  0  0  0
  7 12  1  0  0  0
  8 11  2  0  0  0
  8 12  1  0  0  0
  9 10  2  0  0  0
  9 13  1  0  0  0
 10 11  1  0  0  0
 10 15  1  0  0  0
 15 16  2  0  0  0
 16 17  1  0  0  0
 17 19  1  0  0  0
 17 18  2  0  0  0
 19 20  2  0  0  0
 19 24  1  0  0  0
 20 21  1  0  0  0
 21 22  2  0  0  0
 22 23  1  0  0  0
 23 24  2  0  0  0
 12 13  2  0  0  0
  4  5  1  0  0  0
 45 46  1  0  0  0
 45 47  1  0  0  0
 27 28  1  0  0  0
 39 40  1  0  0  0
 32 33  1  0  0  0
 32 34  1  0  0  0
M  END
> <minimizedAffinity>
-9.58721

$$$$
3TSK_QEG_A_306


 47 49  0  0  0  0  0  0  0  0999 V2000
    8.2882   29.0634    5.4936 C   0  0  0  0  0  0  0  0  0  0  0  0
    9.8961   27.1664    4.0592 O   0  0  0  0  0  0  0  0  0  0  0  0
    9.0535   26.7985    4.8051 C   0  0  0  0  0  0  0  0  0  0  0  0
    8.2770   27.6128    5.5040 N   0  0  0  0  0  0  0  0  0  0  0  0
    7.6180   27.1855    6.0975 H   0  0  0  0  0  0  0  0  0  0  0  0
    8.8301   25.3178    4.9729 C   0  0  0  0  0  0  0  0  0  0  0  0
    7.9034   24.6112    4.0017 C   0  0  0  0  0  0  0  0  0  0  0  0
    6.7047   23.0426    5.6031 C   0  0  0  0  0  0  0  0  0  0  0  0
    4.3163   24.1997    5.0625 C   0  0  0  0  0  0  0  0  0  0  0  0
    4.3124   23.1616    5.9741 C   0  0  0  0  0  0  0  0  0  0  0  0
    5.5460   22.5844    6.2353 C   0  0  0  0  0  0  0  0  0  0  0  0
    6.6720   24.0982    4.6985 C   0  0  0  0  0  0  0  0  0  0  0  0
    5.4513   24.6675    4.4267 C   0  0  0  0  0  0  0  0  0  0  0  0
    3.0813   21.7217    7.9333 S   0  0  0  0  0  0  0  0  0  0  0  0
    2.9923   22.7474    6.6109 C   0  0  0  0  0  0  0  0  0  0  0  0
    1.6397   22.8953    6.4583 C   0  0  0  0  0  0  0  0  0  0  0  0
    0.8436   22.1633    7.3989 C   0  0  0  0  0  0  0  0  0  0  0  0
    1.5006   21.4358    8.3296 C   0  0  0  0  0  0  0  0  0  0  0  0
   -0.6165   22.1633    7.5330 C   0  0  0  0  0  0  0  0  0  0  0  0
   -1.3335   23.1802    6.9923 C   0  0  0  0  0  0  0  0  0  0  0  0
   -2.6996   23.2048    7.0808 C   0  0  0  0  0  0  0  0  0  0  0  0
   -3.3487   22.1630    7.6744 C   0  0  0  0  0  0  0  0  0  0  0  0
   -2.6351   21.1186    8.1943 C   0  0  0  0  0  0  0  0  0  0  0  0
   -1.2649   21.1083    8.1158 C   0  0  0  0  0  0  0  0  0  0  0  0
    7.9235   29.6005    6.8703 C   0  0  0  0  0  0  0  0  0  0  0  0
    7.2218   30.5636    7.0480 O   0  0  0  0  0  0  0  0  0  0  0  0
    8.3894   28.9488    7.9072 N   0  0  0  0  0  0  0  0  0  0  0  0
    8.9623   28.1581    7.7817 H   0  0  0  0  0  0  0  0  0  0  0  0
    8.0536   29.4027    9.2351 C   0  0  0  0  0  0  0  0  0  0  0  0
    9.2484   29.8817   10.0118 C   0  0  0  0  0  0  0  0  0  0  0  0
    9.8396   30.8687    9.7247 O   0  0  0  0  0  0  0  0  0  0  0  0
    9.6032   29.1638   11.0430 N   0  0  0  0  0  0  0  0  0  0  0  0
    9.1029   28.3467   11.2694 H   0  0  0  0  0  0  0  0  0  0  0  0
   10.3710   29.4395   11.5941 H   0  0  0  0  0  0  0  0  0  0  0  0
    7.3277   28.3641   10.0329 C   0  0  0  0  0  0  0  0  0  0  0  0
    6.1096   28.7750   10.8269 C   0  0  0  0  0  0  0  0  0  0  0  0
    6.0133   28.8600   12.2991 C   0  0  0  0  0  0  0  0  0  0  0  0
    7.0373   29.1632   12.9003 O   0  0  0  0  0  0  0  0  0  0  0  0
    4.9695   28.6201   12.9282 O   0  0  0  0  0  0  0  0  0  0  0  0
    4.1874   28.3884   12.4670 H   0  0  0  0  0  0  0  0  0  0  0  0
    7.3582   29.5262    4.3459 C   0  0  0  0  0  0  0  0  0  0  0  0
    7.6203   30.9388    3.7697 C   0  0  0  0  0  0  0  0  0  0  0  0
    8.9028   31.7115    4.0978 C   0  0  0  0  0  0  0  0  0  0  0  0
    9.9673   31.5445    3.5818 O   0  0  0  0  0  0  0  0  0  0  0  0
    8.8208   32.6025    5.0576 N   0  0  0  0  0  0  0  0  0  0  0  0
    7.9593   32.7661    5.5051 H   0  0  0  0  0  0  0  0  0  0  0  0
    9.6209   33.1073    5.3303 H   0  0  0  0  0  0  0  0  0  0  0  0
 30 29  1  0  0  0
 30 32  1  0  0  0
 30 31  2  0  0  0
 27 29  1  0  0  0
 27 25  1  0  0  0
 26 25  2  0  0  0
 29 35  1  0  0  0
  4  1  1  0  0  0
  4  3  1  0  0  0
  2  3  2  0  0  0
 35 36  1  0  0  0
 36 37  1  0  0  0
 45 43  1  0  0  0
 37 39  1  0  0  0
 37 38  2  0  0  0
 25  1  1  0  0  0
  1 41  1  0  0  0
 14 15  1  0  0  0
 14 18  1  0  0  0
 41 42  1  0  0  0
 42 43  1  0  0  0
 43 44  2  0  0  0
  3  6  1  0  0  0
  6  7  1  0  0  0
  7 12  1  0  0  0
  8 11  2  0  0  0
  8 12  1  0  0  0
  9 10  2  0  0  0
  9 13  1  0  0  0
 10 11  1  0  0  0
 10 15  1  0  0  0
 15 16  2  0  0  0
 16 17  1  0  0  0
 17 19  1  0  0  0
 17 18  2  0  0  0
 19 20  2  0  0  0
 19 24  1  0  0  0
 20 21  1  0  0  0
 21 22  2  0  0  0
 22 23  1  0  0  0
 23 24  2  0  0  0
 12 13  2  0  0  0
  4  5  1  0  0  0
 45 46  1  0  0  0
 45 47  1  0  0  0
 27 28  1  0  0  0
 39 40  1  0  0  0
 32 33  1  0  0  0
 32 34  1  0  0  0
M  END
> <minimizedAffinity>
-9.32440

$$$$
3TSK_QEG_A_306


 47 49  0  0  0  0  0  0  0  0999 V2000
    8.5259   27.8362    2.9196 C   0  0  0  0  0  0  0  0  0  0  0  0
    9.8546   25.7034    4.3079 O   0  0  0  0  0  0  0  0  0  0  0  0
    8.7055   25.9187    4.4946 C   0  0  0  0  0  0  0  0  0  0  0  0
    8.0272   26.8862    3.8960 N   0  0  0  0  0  0  0  0  0  0  0  0
    7.0774   26.9701    4.1413 H   0  0  0  0  0  0  0  0  0  0  0  0
    7.9512   25.0416    5.4602 C   0  0  0  0  0  0  0  0  0  0  0  0
    7.4742   23.6830    4.9826 C   0  0  0  0  0  0  0  0  0  0  0  0
    4.9674   24.1044    4.9963 C   0  0  0  0  0  0  0  0  0  0  0  0
    4.5777   22.1586    6.8394 C   0  0  0  0  0  0  0  0  0  0  0  0
    3.4544   22.8304    6.3971 C   0  0  0  0  0  0  0  0  0  0  0  0
    3.6779   23.8221    5.4539 C   0  0  0  0  0  0  0  0  0  0  0  0
    6.0742   23.3994    5.4564 C   0  0  0  0  0  0  0  0  0  0  0  0
    5.8613   22.4228    6.3992 C   0  0  0  0  0  0  0  0  0  0  0  0
    2.0546   21.1094    7.9803 S   0  0  0  0  0  0  0  0  0  0  0  0
    2.0940   22.4361    6.9569 C   0  0  0  0  0  0  0  0  0  0  0  0
    0.7710   22.7831    6.8928 C   0  0  0  0  0  0  0  0  0  0  0  0
   -0.1097   21.9430    7.6499 C   0  0  0  0  0  0  0  0  0  0  0  0
    0.4514   20.9306    8.3480 C   0  0  0  0  0  0  0  0  0  0  0  0
   -1.5574   22.0895    7.8304 C   0  0  0  0  0  0  0  0  0  0  0  0
   -2.3145   20.9856    8.0510 C   0  0  0  0  0  0  0  0  0  0  0  0
   -3.6666   21.0849    8.2430 C   0  0  0  0  0  0  0  0  0  0  0  0
   -4.2486   22.3176    8.2661 C   0  0  0  0  0  0  0  0  0  0  0  0
   -3.4875   23.4377    8.0758 C   0  0  0  0  0  0  0  0  0  0  0  0
   -2.1351   23.3295    7.8683 C   0  0  0  0  0  0  0  0  0  0  0  0
    7.9724   29.2243    3.2084 C   0  0  0  0  0  0  0  0  0  0  0  0
    7.5643   29.5703    4.2879 O   0  0  0  0  0  0  0  0  0  0  0  0
    7.9718   30.0837    2.2192 N   0  0  0  0  0  0  0  0  0  0  0  0
    8.3037   29.8200    1.3307 H   0  0  0  0  0  0  0  0  0  0  0  0
    7.4794   31.4209    2.4465 C   0  0  0  0  0  0  0  0  0  0  0  0
    6.4480   31.8462    1.4387 C   0  0  0  0  0  0  0  0  0  0  0  0
    6.2155   31.2157    0.4618 O   0  0  0  0  0  0  0  0  0  0  0  0
    5.7959   32.9474    1.6969 N   0  0  0  0  0  0  0  0  0  0  0  0
    5.9996   33.4607    2.5120 H   0  0  0  0  0  0  0  0  0  0  0  0
    5.1003   33.2646    1.0765 H   0  0  0  0  0  0  0  0  0  0  0  0
    8.5765   32.4390    2.4928 C   0  0  0  0  0  0  0  0  0  0  0  0
    9.2217   32.7547    3.8221 C   0  0  0  0  0  0  0  0  0  0  0  0
    8.5730   33.4154    4.9739 C   0  0  0  0  0  0  0  0  0  0  0  0
    9.2753   33.6202    5.9571 O   0  0  0  0  0  0  0  0  0  0  0  0
    7.3737   33.7385    4.9867 O   0  0  0  0  0  0  0  0  0  0  0  0
    6.8380   33.5812    4.2342 H   0  0  0  0  0  0  0  0  0  0  0  0
    8.1879   27.2788    1.5156 C   0  0  0  0  0  0  0  0  0  0  0  0
    9.2475   26.3578    0.8632 C   0  0  0  0  0  0  0  0  0  0  0  0
    8.8480   25.0725    0.1299 C   0  0  0  0  0  0  0  0  0  0  0  0
    8.4979   25.0017   -1.0101 O   0  0  0  0  0  0  0  0  0  0  0  0
    8.8570   23.9673    0.8374 N   0  0  0  0  0  0  0  0  0  0  0  0
    9.1398   23.9886    1.7801 H   0  0  0  0  0  0  0  0  0  0  0  0
    8.5809   23.1169    0.4253 H   0  0  0  0  0  0  0  0  0  0  0  0
 30 29  1  0  0  0
 30 32  1  0  0  0
 30 31  2  0  0  0
 27 29  1  0  0  0
 27 25  1  0  0  0
 26 25  2  0  0  0
 29 35  1  0  0  0
  4  1  1  0  0  0
  4  3  1  0  0  0
  2  3  2  0  0  0
 35 36  1  0  0  0
 36 37  1  0  0  0
 45 43  1  0  0  0
 37 39  1  0  0  0
 37 38  2  0  0  0
 25  1  1  0  0  0
  1 41  1  0  0  0
 14 15  1  0  0  0
 14 18  1  0  0  0
 41 42  1  0  0  0
 42 43  1  0  0  0
 43 44  2  0  0  0
  3  6  1  0  0  0
  6  7  1  0  0  0
  7 12  1  0  0  0
  8 11  2  0  0  0
  8 12  1  0  0  0
  9 10  2  0  0  0
  9 13  1  0  0  0
 10 11  1  0  0  0
 10 15  1  0  0  0
 15 16  2  0  0  0
 16 17  1  0  0  0
 17 19  1  0  0  0
 17 18  2  0  0  0
 19 20  2  0  0  0
 19 24  1  0  0  0
 20 21  1  0  0  0
 21 22  2  0  0  0
 22 23  1  0  0  0
 23 24  2  0  0  0
 12 13  2  0  0  0
  4  5  1  0  0  0
 45 46  1  0  0  0
 45 47  1  0  0  0
 27 28  1  0  0  0
 39 40  1  0  0  0
 32 33  1  0  0  0
 32 34  1  0  0  0
M  END
> <minimizedAffinity>
-9.24723

$$$$
