6HT1_GQ5_A_210
  RCSB PDB10131806253D
Coordinates from PDB:6HT1:A:210 Model:1 without hydrogens
 29 33  0  0  0  0            999 V2000
  -14.7090    3.7530   49.6890   C 0  0  0  0  0  0  0  0  0  0  0  0
  -15.1850    1.4410   50.1650   C 0  0  0  0  0  0  0  0  0  0  0  0
  -14.3490    5.0890   49.8600   N 0  0  0  0  0  0  0  0  0  0  0  0
  -11.1860    8.3860   46.5750   C 0  0  0  0  0  0  0  0  0  0  0  0
  -15.2860    0.3550   51.0660   N 0  0  0  0  0  0  0  0  0  0  0  0
  -15.1240    0.3720   52.4140   C 0  0  0  0  0  0  0  0  0  0  0  0
  -12.5600    6.4070   46.5590   C 0  0  0  0  0  0  0  0  0  0  0  0
  -16.3510   -5.2730   54.1540   N 0  0  0  0  0  0  0  0  0  0  0  0
  -14.9250    4.7590   47.7340   N 0  0  0  0  0  0  0  0  0  0  0  0
  -14.4870    5.6350   48.6660   C 0  0  0  0  0  0  0  0  0  0  0  0
  -15.0560    1.4050   53.0770   O 0  0  0  0  0  0  0  0  0  0  0  0
  -15.1430   -0.9610   53.0850   C 0  0  0  0  0  0  0  0  0  0  0  0
  -14.2890   -1.1830   54.1700   C 0  0  0  0  0  0  0  0  0  0  0  0
  -14.2760   -2.4010   54.8360   C 0  0  0  0  0  0  0  0  0  0  0  0
  -15.1490   -3.3880   54.4150   C 0  0  0  0  0  0  0  0  0  0  0  0
  -15.3390   -4.6620   54.8370   N 0  0  0  0  0  0  0  0  0  0  0  0
  -14.5570   -5.4110   55.8040   C 0  0  0  0  0  0  0  0  0  0  0  0
  -16.7790   -4.3940   53.2730   C 0  0  0  0  0  0  0  0  0  0  0  0
  -16.0510   -3.1750   53.3630   C 0  0  0  0  0  0  0  0  0  0  0  0
  -16.0250   -1.9650   52.6740   C 0  0  0  0  0  0  0  0  0  0  0  0
  -14.7510    2.6980   50.5970   C 0  0  0  0  0  0  0  0  0  0  0  0
  -15.5830    1.2480   48.8340   C 0  0  0  0  0  0  0  0  0  0  0  0
  -15.5390    2.2970   47.9230   C 0  0  0  0  0  0  0  0  0  0  0  0
  -15.0880    3.5390   48.3670   C 0  0  0  0  0  0  0  0  0  0  0  0
  -14.1440    7.0510   48.3310   C 0  0  0  0  0  0  0  0  0  0  0  0
  -12.7800    7.1850   47.7970   N 0  0  0  0  0  0  0  0  0  0  0  0
  -12.4260    8.5850   47.4360   C 0  0  0  0  0  0  0  0  0  0  0  0
  -12.1900    9.4700   48.6410   C 0  0  0  0  0  0  0  0  0  0  0  0
  -11.6230    7.2690   45.6900   C 0  0  0  0  0  0  0  0  0  0  0  0
 29  7  1  0  0  0  0
 29  4  1  0  0  0  0
  7 26  1  0  0  0  0
  4 27  1  0  0  0  0
 27 26  1  0  0  0  0
 27 28  1  0  0  0  0
  9 24  1  0  0  0  0
  9 10  2  0  0  0  0
 26 25  1  0  0  0  0
 23 24  2  0  0  0  0
 23 22  1  0  0  0  0
 25 10  1  0  0  0  0
 24  1  1  0  0  0  0
 10  3  1  0  0  0  0
 22  2  2  0  0  0  0
  1  3  1  0  0  0  0
  1 21  2  0  0  0  0
  2 21  1  0  0  0  0
  2  5  1  0  0  0  0
  5  6  1  0  0  0  0
  6 11  2  0  0  0  0
  6 12  1  0  0  0  0
 20 12  2  0  0  0  0
 20 19  1  0  0  0  0
 12 13  1  0  0  0  0
 18 19  1  0  0  0  0
 18  8  2  0  0  0  0
 19 15  2  0  0  0  0
  8 16  1  0  0  0  0
 13 14  2  0  0  0  0
 15 14  1  0  0  0  0
 15 16  1  0  0  0  0
 16 17  1  0  0  0  0
A    1
C7
A    2
C9
A    3
N1
A    4
C2
A    5
N2
A    6
C10
A    7
C4
A    8
N3
A    9
N5
A   10
C6
A   11
O
A   12
C11
A   13
C18
A   14
C17
A   15
C16
A   16
N4
A   17
C15
A   18
C14
A   19
C13
A   20
C12
A   21
C8
A   22
C19
A   23
C20
A   24
C21
A   25
C5
A   26
N
A   27
C1
A   28
C
A   29
C3
M  END
>  <InstanceId>
6HT1_GQ5_A_210

>  <ChemCompId>
GQ5

>  <PdbId>
6HT1

>  <ChainId>
A

>  <ResidueNumber>
210

>  <InsertionCode>


>  <Model>
1

>  <AltIds>


>  <MissingHeavyAtoms>
0

>  <ObservedFormula>
C22 N6 O

>  <Name>
1-methyl-~{N}-[2-[[(2~{S})-2-methylpyrrolidin-1-yl]methyl]-3~{H}-benzimidazol-5-yl]indazole-5-carboxamide

>  <SystematicName>
1-methyl-~{N}-[2-[[(2~{S})-2-methylpyrrolidin-1-yl]methyl]-3~{H}-benzimidazol-5-yl]indazole-5-carboxamide

>  <Synonyms>


>  <Type>
NON-POLYMER

>  <Formula>
C22 H24 N6 O

>  <MolecularWeight>
388.466

>  <ModifiedDate>
2018-10-12

>  <Parent>


>  <OneLetterCode>


>  <SubcomponentList>


>  <AmbiguousFlag>
N

>  <InChI>
InChI=1S/C22H24N6O/c1-14-4-3-9-28(14)13-21-25-18-7-6-17(11-19(18)26-21)24-22(29)15-5-8-20-16(10-15)12-23-27(20)2/h5-8,10-12,14H,3-4,9,13H2,1-2H3,(H,24,29)(H,25,26)/t14-/m0/s1

>  <InChIKey>
QGNDVASWIHEXCL-AWEZNQCLSA-N

>  <SMILES>
C[C@H]1CCCN1Cc2[nH]c3cc(ccc3n2)NC(=O)c4ccc5c(c4)cnn5C

$$$$
