5VP9_9H7_A_1201
  RCSB PDB12061720033D
Coordinates from PDB:5VP9:A:1201 Model:1 without hydrogens
 54 60  0  0  0  0            999 V2000
  -13.1050  -14.1590   14.9730   C 0  0  0  0  0  0  0  0  0  0  0  0
  -13.9010  -17.2790   17.0240   C 0  0  0  0  0  0  0  0  0  0  0  0
  -13.3620  -19.1390   15.6460   C 0  0  0  0  0  0  0  0  0  0  0  0
  -15.9140  -20.1600   15.6720   C 0  0  0  0  0  0  0  0  0  0  0  0
  -16.6870  -23.2950   18.5010   C 0  0  0  0  0  0  0  0  0  0  0  0
  -15.7870  -24.2740   16.3500   C 0  0  0  0  0  0  0  0  0  0  0  0
  -14.7950  -25.3080   15.7450   C 0  0  0  0  0  0  0  0  0  0  0  0
  -15.0610  -17.9730   17.1630   C 0  0  0  0  0  0  0  0  0  0  0  0
  -17.3320  -20.1260   16.2420   C 0  0  0  0  0  0  0  0  0  0  0  0
  -16.4660  -21.8420   17.9750   C 0  0  0  0  0  0  0  0  0  0  0  0
  -15.5940  -24.2220   17.8870   C 0  0  0  0  0  0  0  0  0  0  0  0
  -13.7290  -24.9510   14.9780   C 0  0  0  0  0  0  0  0  0  0  0  0
  -13.3870  -23.4690   14.6370   C 0  0  0  0  0  0  0  0  0  0  0  0
  -12.6770  -23.7870   13.3130   C 0  0  0  0  0  0  0  0  0  0  0  0
  -14.1660  -13.1580   12.7480   C 0  0  0  0  0  0  0  0  0  0  0  0
  -13.9590  -14.2540   13.6960   C 0  0  0  0  0  0  0  0  0  0  0  0
  -13.1740  -15.2310   16.1020   C 0  0  0  0  0  0  0  0  0  0  0  0
  -12.7440  -18.4190   16.5800   C 0  0  0  0  0  0  0  0  0  0  0  0
  -17.5800  -21.4820   16.9230   C 0  0  0  0  0  0  0  0  0  0  0  0
  -12.1640  -22.6510   14.1920   C 0  0  0  0  0  0  0  0  0  0  0  0
  -12.9990  -20.6360   15.6410   C 0  0  0  0  0  0  0  0  0  0  0  0
  -10.9230  -23.1230   14.9770   C 0  0  0  0  0  0  0  0  0  0  0  0
   -8.0940  -21.8920   17.5470   C 0  0  0  0  0  0  0  0  0  0  0  0
   -6.8350  -21.2940   16.9210   C 0  0  0  0  0  0  0  0  0  0  0  0
   -6.7160  -22.3210   18.0560   C 0  0  0  0  0  0  0  0  0  0  0  0
  -18.5580  -18.6020   14.6370   C 0  0  0  0  0  0  0  0  0  0  0  0
  -19.9580  -17.2250   13.1700   C 0  0  0  0  0  0  0  0  0  0  0  0
  -20.5490  -16.5530   14.4380   C 0  0  0  0  0  0  0  0  0  0  0  0
  -21.1180  -17.4890   12.1730   C 0  0  0  0  0  0  0  0  0  0  0  0
  -18.9010  -16.3050   12.4980   C 0  0  0  0  0  0  0  0  0  0  0  0
  -11.4450  -13.8980   17.4180   C 0  0  0  0  0  0  0  0  0  0  0  0
  -10.5560  -13.7410   18.6920   C 0  0  0  0  0  0  0  0  0  0  0  0
   -9.6190  -12.5310   18.8180   C 0  0  0  0  0  0  0  0  0  0  0  0
   -9.5610  -11.4820   17.6900   C 0  0  0  0  0  0  0  0  0  0  0  0
  -10.4320  -11.6400   16.4360   C 0  0  0  0  0  0  0  0  0  0  0  0
  -11.3810  -12.8660   16.3100   C 0  0  0  0  0  0  0  0  0  0  0  0
  -15.1250  -13.7070   11.5770   C 0  0  0  0  0  0  0  0  0  0  0  0
  -15.4570  -15.1000   11.8610   C 0  0  0  0  0  0  0  0  0  0  0  0
  -14.9070  -19.1610   16.1370   N 0  0  0  0  0  0  0  0  0  0  0  0
  -12.5040  -21.2010   14.3840   N 0  0  0  0  0  0  0  0  0  0  0  0
  -10.3160  -22.3600   15.7950   N 0  0  0  0  0  0  0  0  0  0  0  0
  -18.3020  -19.9460   15.1810   N 0  0  0  0  0  0  0  0  0  0  0  0
  -12.3430  -15.0660   17.2890   N 0  0  0  0  0  0  0  0  0  0  0  0
  -12.2150  -13.0140   15.0970   N 0  0  0  0  0  0  0  0  0  0  0  0
  -14.0490  -16.3480   15.9780   O 0  0  0  0  0  0  0  0  0  0  0  0
  -15.5940  -20.9990   14.8870   O 0  0  0  0  0  0  0  0  0  0  0  0
  -13.1500  -21.3130   16.6060   O 0  0  0  0  0  0  0  0  0  0  0  0
  -10.4170  -24.3910   14.7680   O 0  0  0  0  0  0  0  0  0  0  0  0
   -8.1030  -23.7300   15.4830   O 0  0  0  0  0  0  0  0  0  0  0  0
   -9.4240  -24.2690   17.3180   O 0  0  0  0  0  0  0  0  0  0  0  0
  -18.0570  -17.6500   15.1500   O 0  0  0  0  0  0  0  0  0  0  0  0
  -19.3870  -18.4970   13.4840   O 0  0  0  0  0  0  0  0  0  0  0  0
   -8.9710  -23.1290   16.5040   S 0  0  0  0  0  0  0  0  0  0  0  0
  -14.7460  -15.4990   13.1960   S 0  0  0  0  0  0  0  0  0  0  0  0
  1 16  1  0  0  0  0
  1 17  2  0  0  0  0
  1 44  1  0  0  0  0
  2  8  1  0  0  0  0
  2 18  1  0  0  0  0
  2 45  1  0  0  0  0
  3 18  1  0  0  0  0
  3 21  1  0  0  0  0
  3 39  1  0  0  0  0
  4  9  1  0  0  0  0
  4 39  1  0  0  0  0
  4 46  2  0  0  0  0
  5 10  1  0  0  0  0
  5 11  1  0  0  0  0
  6  7  1  0  0  0  0
  6 11  1  0  0  0  0
  7 12  2  0  0  0  0
  8 39  1  0  0  0  0
  9 19  1  0  0  0  0
  9 42  1  0  0  0  0
 10 19  1  0  0  0  0
 12 13  1  0  0  0  0
 13 14  1  0  0  0  0
 13 20  1  0  0  0  0
 14 20  1  0  0  0  0
 15 16  2  0  0  0  0
 15 37  1  0  0  0  0
 16 54  1  0  0  0  0
 17 43  1  0  0  0  0
 17 45  1  0  0  0  0
 20 22  1  0  0  0  0
 20 40  1  0  0  0  0
 21 40  1  0  0  0  0
 21 47  2  0  0  0  0
 22 41  1  0  0  0  0
 22 48  2  0  0  0  0
 23 24  1  0  0  0  0
 23 25  1  0  0  0  0
 23 53  1  0  0  0  0
 24 25  1  0  0  0  0
 26 42  1  0  0  0  0
 26 51  2  0  0  0  0
 26 52  1  0  0  0  0
 27 28  1  0  0  0  0
 27 29  1  0  0  0  0
 27 30  1  0  0  0  0
 27 52  1  0  0  0  0
 31 32  1  0  0  0  0
 31 36  1  0  0  0  0
 31 43  2  0  0  0  0
 32 33  2  0  0  0  0
 33 34  1  0  0  0  0
 34 35  2  0  0  0  0
 35 36  1  0  0  0  0
 36 44  2  0  0  0  0
 37 38  2  0  0  0  0
 38 54  1  0  0  0  0
 41 53  1  0  0  0  0
 49 53  2  0  0  0  0
 50 53  2  0  0  0  0
A    1
C10
A    2
C13
A    3
C15
A    4
C17
A    5
C20
A    6
C21
A    7
C22
A    8
C01
A    9
C02
A   10
C03
A   11
C04
A   12
C05
A   13
C06
A   14
C07
A   15
C08
A   16
C09
A   17
C11
A   18
C14
A   19
C19
A   20
C23
A   21
C25
A   22
C27
A   23
C33
A   24
C34
A   25
C35
A   26
C37
A   27
C40
A   28
C41
A   29
C42
A   30
C43
A   31
C45
A   32
C46
A   33
C47
A   34
C48
A   35
C49
A   36
C50
A   37
C52
A   38
C54
A   39
N16
A   40
N24
A   41
N29
A   42
N36
A   43
N44
A   44
N51
A   45
O12
A   46
O18
A   47
O26
A   48
O28
A   49
O31
A   50
O32
A   51
O38
A   52
O39
A   53
S30
A   54
S53
M  END
>  <InstanceId>
5VP9_9H7_A_1201

>  <ChemCompId>
9H7

>  <PdbId>
5VP9

>  <ChainId>
A

>  <ResidueNumber>
1201

>  <InsertionCode>


>  <Model>
1

>  <AltIds>


>  <MissingHeavyAtoms>
0

>  <ObservedFormula>
C38 N6 O8 S2

>  <Name>
tert-butyl [(2R,6S,12Z,13aS,14aR,16aS)-14a-[(cyclopropylsulfonyl)carbamoyl]-5,16-dioxo-2-{[3-(thiophen-2-yl)quinoxalin-2-yl]oxy}-1,2,3,5,6,7,8,9,10,11,13a,14,14a,15,16,16a-hexadecahydrocyclopropa[e]pyrrolo[1,2-a][1,4]diazacyclopentadecin-6-yl]carbamate

>  <SystematicName>
~{tert}-butyl ~{N}-[(1~{S},4~{R},6~{S},7~{Z},14~{S},18~{R})-4-(cyclopropylsulfonylcarbamoyl)-2,15-bis(oxidanylidene)-18-(3-thiophen-2-ylquinoxalin-2-yl)oxy-3,16-diazatricyclo[14.3.0.0^{4,6}]nonadec-7-en-14-yl]carbamate

>  <Synonyms>


>  <Type>
NON-POLYMER

>  <Formula>
C38 H46 N6 O8 S2

>  <MolecularWeight>
778.937

>  <ModifiedDate>
2017-06-16

>  <Parent>


>  <OneLetterCode>


>  <SubcomponentList>


>  <AmbiguousFlag>
N

>  <InChI>
InChI=1S/C38H46N6O8S2/c1-37(2,3)52-36(48)41-28-15-8-6-4-5-7-12-23-21-38(23,35(47)43-54(49,50)25-17-18-25)42-32(45)29-20-24(22-44(29)34(28)46)51-33-31(30-16-11-19-53-30)39-26-13-9-10-14-27(26)40-33/h7,9-14,16,19,23-25,28-29H,4-6,8,15,17-18,20-22H2,1-3H3,(H,41,48)(H,42,45)(H,43,47)/b12-7-/t23-,24-,28+,29+,38-/m1/s1

>  <InChIKey>
XPJKLRKWYFSTBR-LZFWIHPHSA-N

>  <SMILES>
CC(C)(C)OC(=O)N[C@H]1CCCCC/C=C\[C@@H]2C[C@]2(NC(=O)[C@@H]3C[C@H](CN3C1=O)Oc4c(nc5ccccc5n4)c6cccs6)C(=O)NS(=O)(=O)C7CC7

$$$$
