5VP9_9H7_A_1201


 57 63  0  0  0  0  0  0  0  0999 V2000
  -14.1285  -17.5241   17.6529 C   0  0  0  0  0  0  0  0  0  0  0  0
  -13.5252  -19.2101   16.0900 C   0  0  0  0  0  0  0  0  0  0  0  0
  -16.0384  -20.3202   16.0053 C   0  0  0  0  0  0  0  0  0  0  0  0
  -16.6914  -23.7582   18.4918 C   0  0  0  0  0  0  0  0  0  0  0  0
  -15.7609  -24.4750   16.2523 C   0  0  0  0  0  0  0  0  0  0  0  0
  -14.7332  -25.4039   15.5448 C   0  0  0  0  0  0  0  0  0  0  0  0
  -15.2623  -18.2704   17.7170 C   0  0  0  0  0  0  0  0  0  0  0  0
  -17.4555  -20.3971   16.5732 C   0  0  0  0  0  0  0  0  0  0  0  0
  -16.5243  -22.2513   18.1200 C   0  0  0  0  0  0  0  0  0  0  0  0
  -15.5668  -24.5761   17.7867 C   0  0  0  0  0  0  0  0  0  0  0  0
  -13.6824  -24.9306   14.8210 C   0  0  0  0  0  0  0  0  0  0  0  0
  -13.3951  -23.4098   14.6364 C   0  0  0  0  0  0  0  0  0  0  0  0
  -12.6767  -23.5625   13.2878 C   0  0  0  0  0  0  0  0  0  0  0  0
  -12.9318  -18.5691   17.0949 C   0  0  0  0  0  0  0  0  0  0  0  0
  -17.6528  -21.8246   17.1092 C   0  0  0  0  0  0  0  0  0  0  0  0
  -12.2035  -22.5061   14.2810 C   0  0  0  0  0  0  0  0  0  0  0  0
  -13.1081  -20.6843   15.9301 C   0  0  0  0  0  0  0  0  0  0  0  0
  -15.0673  -19.3390   16.5734 N   0  0  0  0  0  0  0  0  0  0  0  0
  -12.5955  -21.0972   14.6221 N   0  0  0  0  0  0  0  0  0  0  0  0
  -15.6898  -21.0609   15.1379 O   0  0  0  0  0  0  0  0  0  0  0  0
  -13.2325  -21.4629   16.8193 O   0  0  0  0  0  0  0  0  0  0  0  0
  -12.5022  -20.4095   13.9239 H   0  0  0  0  0  0  0  0  0  0  0  0
  -10.9446  -23.0118   15.0149 C   0  0  0  0  0  0  0  0  0  0  0  0
  -10.4257  -22.3656   15.9807 N   0  0  0  0  0  0  0  0  0  0  0  0
  -10.3251  -24.1741   14.5990 O   0  0  0  0  0  0  0  0  0  0  0  0
  -10.7847  -21.5195   16.3336 H   0  0  0  0  0  0  0  0  0  0  0  0
   -8.1910  -23.6495   15.5020 O   0  0  0  0  0  0  0  0  0  0  0  0
   -9.4279  -24.3417   17.3442 O   0  0  0  0  0  0  0  0  0  0  0  0
   -9.0355  -23.1397   16.5901 S   0  0  0  0  0  0  0  0  0  0  0  0
   -8.1527  -21.9473   17.6790 C   0  0  0  0  0  0  0  0  0  0  0  0
   -6.9238  -21.2882   17.0546 C   0  0  0  0  0  0  0  0  0  0  0  0
   -6.7527  -22.3765   18.1239 C   0  0  0  0  0  0  0  0  0  0  0  0
  -19.3462  -18.9932   15.6478 C   0  0  0  0  0  0  0  0  0  0  0  0
  -18.4336  -20.1431   15.5350 N   0  0  0  0  0  0  0  0  0  0  0  0
  -19.3606  -18.3443   16.6474 O   0  0  0  0  0  0  0  0  0  0  0  0
  -18.4880  -20.7396   14.7537 H   0  0  0  0  0  0  0  0  0  0  0  0
  -20.1689  -18.6834   14.5276 O   0  0  0  0  0  0  0  0  0  0  0  0
  -19.6399  -17.8305   13.5101 C   0  0  0  0  0  0  0  0  0  0  0  0
  -18.3570  -17.1087   14.0016 C   0  0  0  0  0  0  0  0  0  0  0  0
  -20.7221  -16.7565   13.2192 C   0  0  0  0  0  0  0  0  0  0  0  0
  -19.3570  -18.6403   12.2141 C   0  0  0  0  0  0  0  0  0  0  0  0
  -14.3123  -16.4954   16.7091 O   0  0  0  0  0  0  0  0  0  0  0  0
  -13.1188  -14.4580   15.6520 C   0  0  0  0  0  0  0  0  0  0  0  0
  -13.3468  -15.4550   16.8279 C   0  0  0  0  0  0  0  0  0  0  0  0
  -11.5773  -14.2087   18.1746 C   0  0  0  0  0  0  0  0  0  0  0  0
  -10.7483  -14.0601   19.4894 C   0  0  0  0  0  0  0  0  0  0  0  0
   -9.7128  -12.9325   19.6091 C   0  0  0  0  0  0  0  0  0  0  0  0
   -9.4979  -11.9573   18.4348 C   0  0  0  0  0  0  0  0  0  0  0  0
  -10.3102  -12.1075   17.1411 C   0  0  0  0  0  0  0  0  0  0  0  0
  -11.3591  -13.2499   17.0215 C   0  0  0  0  0  0  0  0  0  0  0  0
  -12.5700  -15.2981   18.0521 N   0  0  0  0  0  0  0  0  0  0  0  0
  -12.1359  -13.3910   15.7703 N   0  0  0  0  0  0  0  0  0  0  0  0
  -14.4299  -15.7885   13.7575 C   0  0  0  0  0  0  0  0  0  0  0  0
  -13.9072  -14.5482   14.3332 C   0  0  0  0  0  0  0  0  0  0  0  0
  -15.1748  -15.4062   12.3823 C   0  0  0  0  0  0  0  0  0  0  0  0
  -15.0735  -13.9635   12.1826 C   0  0  0  0  0  0  0  0  0  0  0  0
  -14.2763  -13.3681   13.3896 S   0  0  0  0  0  0  0  0  0  0  0  0
 43 54  1  0  0  0
 43 44  2  0  0  0
 43 52  1  0  0  0
  1  7  1  0  0  0
  1 14  1  0  0  0
  1 42  1  0  0  0
  2 14  1  0  0  0
  2 17  1  0  0  0
  2 18  1  0  0  0
  3  8  1  0  0  0
  3 18  1  0  0  0
  3 20  2  0  0  0
  4  9  1  0  0  0
  4 10  1  0  0  0
  5  6  1  0  0  0
  5 10  1  0  0  0
  6 11  2  0  0  0
  7 18  1  0  0  0
  8 15  1  0  0  0
  8 34  1  0  0  0
  9 15  1  0  0  0
 11 12  1  0  0  0
 12 13  1  0  0  0
 12 16  1  0  0  0
 13 16  1  0  0  0
 53 54  2  0  0  0
 53 55  1  0  0  0
 54 57  1  0  0  0
 44 51  1  0  0  0
 44 42  1  0  0  0
 16 23  1  0  0  0
 16 19  1  0  0  0
 17 19  1  0  0  0
 17 21  2  0  0  0
 23 24  1  0  0  0
 23 25  2  0  0  0
 30 31  1  0  0  0
 30 32  1  0  0  0
 30 29  1  0  0  0
 31 32  1  0  0  0
 33 34  1  0  0  0
 33 35  2  0  0  0
 33 37  1  0  0  0
 38 39  1  0  0  0
 38 40  1  0  0  0
 38 41  1  0  0  0
 38 37  1  0  0  0
 45 46  1  0  0  0
 45 50  1  0  0  0
 45 51  2  0  0  0
 46 47  2  0  0  0
 47 48  1  0  0  0
 48 49  2  0  0  0
 49 50  1  0  0  0
 50 52  2  0  0  0
 55 56  2  0  0  0
 56 57  1  0  0  0
 24 29  1  0  0  0
 27 29  2  0  0  0
 28 29  2  0  0  0
 19 22  1  0  0  0
 24 26  1  0  0  0
 34 36  1  0  0  0
M  END
> <minimizedAffinity>
-11.70521

$$$$
5VP9_9H7_A_1201


 57 63  0  0  0  0  0  0  0  0999 V2000
  -14.1342  -17.3944   17.0706 C   0  0  0  0  0  0  0  0  0  0  0  0
  -13.6154  -19.2699   15.7059 C   0  0  0  0  0  0  0  0  0  0  0  0
  -16.1292  -20.3652   15.8982 C   0  0  0  0  0  0  0  0  0  0  0  0
  -16.6463  -23.4535   18.8348 C   0  0  0  0  0  0  0  0  0  0  0  0
  -15.8374  -24.4563   16.6587 C   0  0  0  0  0  0  0  0  0  0  0  0
  -14.8491  -25.4746   16.0218 C   0  0  0  0  0  0  0  0  0  0  0  0
  -15.2627  -18.1190   17.2900 C   0  0  0  0  0  0  0  0  0  0  0  0
  -17.5137  -20.3597   16.5462 C   0  0  0  0  0  0  0  0  0  0  0  0
  -16.4999  -22.0075   18.2652 C   0  0  0  0  0  0  0  0  0  0  0  0
  -15.5610  -24.3621   18.1809 C   0  0  0  0  0  0  0  0  0  0  0  0
  -13.8390  -25.1045   15.1883 C   0  0  0  0  0  0  0  0  0  0  0  0
  -13.5625  -23.6215   14.7959 C   0  0  0  0  0  0  0  0  0  0  0  0
  -12.9178  -23.9498   13.4414 C   0  0  0  0  0  0  0  0  0  0  0  0
  -12.9690  -18.5099   16.5875 C   0  0  0  0  0  0  0  0  0  0  0  0
  -17.6813  -21.7059   17.2699 C   0  0  0  0  0  0  0  0  0  0  0  0
  -12.3921  -22.7784   14.2648 C   0  0  0  0  0  0  0  0  0  0  0  0
  -13.2071  -20.7552   15.7136 C   0  0  0  0  0  0  0  0  0  0  0  0
  -15.1293  -19.3260   16.2835 N   0  0  0  0  0  0  0  0  0  0  0  0
  -12.7656  -21.3350   14.4435 N   0  0  0  0  0  0  0  0  0  0  0  0
  -15.8276  -21.2128   15.1151 O   0  0  0  0  0  0  0  0  0  0  0  0
  -13.2832  -21.4132   16.7003 O   0  0  0  0  0  0  0  0  0  0  0  0
  -12.7102  -20.7425   13.6592 H   0  0  0  0  0  0  0  0  0  0  0  0
  -11.0953  -23.1946   14.9889 C   0  0  0  0  0  0  0  0  0  0  0  0
  -10.5947  -22.4931   15.9254 N   0  0  0  0  0  0  0  0  0  0  0  0
  -10.4221  -24.3345   14.5953 O   0  0  0  0  0  0  0  0  0  0  0  0
  -10.9921  -21.6569   16.2602 H   0  0  0  0  0  0  0  0  0  0  0  0
   -8.2823  -23.6280   15.4396 O   0  0  0  0  0  0  0  0  0  0  0  0
   -9.4650  -24.3986   17.2862 O   0  0  0  0  0  0  0  0  0  0  0  0
   -9.1548  -23.1740   16.5303 S   0  0  0  0  0  0  0  0  0  0  0  0
   -8.3484  -21.9256   17.6158 C   0  0  0  0  0  0  0  0  0  0  0  0
   -6.9761  -21.4475   17.1437 C   0  0  0  0  0  0  0  0  0  0  0  0
   -7.0878  -22.4022   18.3409 C   0  0  0  0  0  0  0  0  0  0  0  0
  -19.5394  -19.1509   15.6314 C   0  0  0  0  0  0  0  0  0  0  0  0
  -18.5463  -20.2339   15.5378 N   0  0  0  0  0  0  0  0  0  0  0  0
  -19.5661  -18.4535   16.5975 O   0  0  0  0  0  0  0  0  0  0  0  0
  -18.5840  -20.8728   14.7897 H   0  0  0  0  0  0  0  0  0  0  0  0
  -20.4245  -18.9622   14.5320 O   0  0  0  0  0  0  0  0  0  0  0  0
  -20.1979  -17.8540   13.6584 C   0  0  0  0  0  0  0  0  0  0  0  0
  -21.1305  -16.6658   14.0147 C   0  0  0  0  0  0  0  0  0  0  0  0
  -20.5482  -18.3353   12.2249 C   0  0  0  0  0  0  0  0  0  0  0  0
  -18.7063  -17.4201   13.7055 C   0  0  0  0  0  0  0  0  0  0  0  0
  -14.3689  -16.4934   16.0143 O   0  0  0  0  0  0  0  0  0  0  0  0
  -15.0215  -14.1281   16.8344 C   0  0  0  0  0  0  0  0  0  0  0  0
  -13.9721  -15.1609   16.3236 C   0  0  0  0  0  0  0  0  0  0  0  0
  -12.1720  -13.3662   16.5156 C   0  0  0  0  0  0  0  0  0  0  0  0
  -10.6795  -12.9383   16.3501 C   0  0  0  0  0  0  0  0  0  0  0  0
  -10.2611  -11.5005   16.6902 C   0  0  0  0  0  0  0  0  0  0  0  0
  -11.3130  -10.4911   17.1910 C   0  0  0  0  0  0  0  0  0  0  0  0
  -12.7807  -10.9118   17.3488 C   0  0  0  0  0  0  0  0  0  0  0  0
  -13.2029  -12.3687   17.0043 C   0  0  0  0  0  0  0  0  0  0  0  0
  -12.5808  -14.7478   16.1816 N   0  0  0  0  0  0  0  0  0  0  0  0
  -14.6199  -12.7664   17.1552 N   0  0  0  0  0  0  0  0  0  0  0  0
  -17.4969  -14.5325   15.9473 C   0  0  0  0  0  0  0  0  0  0  0  0
  -16.5057  -14.4894   17.0235 C   0  0  0  0  0  0  0  0  0  0  0  0
  -18.9063  -14.9486   16.6052 C   0  0  0  0  0  0  0  0  0  0  0  0
  -18.7132  -15.1384   18.0398 C   0  0  0  0  0  0  0  0  0  0  0  0
  -17.2084  -14.8572   18.3616 S   0  0  0  0  0  0  0  0  0  0  0  0
 43 54  1  0  0  0
 43 44  2  0  0  0
 43 52  1  0  0  0
  1  7  1  0  0  0
  1 14  1  0  0  0
  1 42  1  0  0  0
  2 14  1  0  0  0
  2 17  1  0  0  0
  2 18  1  0  0  0
  3  8  1  0  0  0
  3 18  1  0  0  0
  3 20  2  0  0  0
  4  9  1  0  0  0
  4 10  1  0  0  0
  5  6  1  0  0  0
  5 10  1  0  0  0
  6 11  2  0  0  0
  7 18  1  0  0  0
  8 15  1  0  0  0
  8 34  1  0  0  0
  9 15  1  0  0  0
 11 12  1  0  0  0
 12 13  1  0  0  0
 12 16  1  0  0  0
 13 16  1  0  0  0
 53 54  2  0  0  0
 53 55  1  0  0  0
 54 57  1  0  0  0
 44 51  1  0  0  0
 44 42  1  0  0  0
 16 23  1  0  0  0
 16 19  1  0  0  0
 17 19  1  0  0  0
 17 21  2  0  0  0
 23 24  1  0  0  0
 23 25  2  0  0  0
 30 31  1  0  0  0
 30 32  1  0  0  0
 30 29  1  0  0  0
 31 32  1  0  0  0
 33 34  1  0  0  0
 33 35  2  0  0  0
 33 37  1  0  0  0
 38 39  1  0  0  0
 38 40  1  0  0  0
 38 41  1  0  0  0
 38 37  1  0  0  0
 45 46  1  0  0  0
 45 50  1  0  0  0
 45 51  2  0  0  0
 46 47  2  0  0  0
 47 48  1  0  0  0
 48 49  2  0  0  0
 49 50  1  0  0  0
 50 52  2  0  0  0
 55 56  2  0  0  0
 56 57  1  0  0  0
 24 29  1  0  0  0
 27 29  2  0  0  0
 28 29  2  0  0  0
 19 22  1  0  0  0
 24 26  1  0  0  0
 34 36  1  0  0  0
M  END
> <minimizedAffinity>
-10.84705

$$$$
5VP9_9H7_A_1201


 57 63  0  0  0  0  0  0  0  0999 V2000
  -14.0512  -17.4267   17.3500 C   0  0  0  0  0  0  0  0  0  0  0  0
  -13.4899  -19.2206   15.8954 C   0  0  0  0  0  0  0  0  0  0  0  0
  -16.0113  -20.3145   15.9362 C   0  0  0  0  0  0  0  0  0  0  0  0
  -16.6364  -23.5684   18.6657 C   0  0  0  0  0  0  0  0  0  0  0  0
  -15.7552  -24.4446   16.4632 C   0  0  0  0  0  0  0  0  0  0  0  0
  -14.7478  -25.4277   15.8015 C   0  0  0  0  0  0  0  0  0  0  0  0
  -15.1882  -18.1581   17.4873 C   0  0  0  0  0  0  0  0  0  0  0  0
  -17.4173  -20.3413   16.5355 C   0  0  0  0  0  0  0  0  0  0  0  0
  -16.4672  -22.0920   18.1879 C   0  0  0  0  0  0  0  0  0  0  0  0
  -15.5313  -24.4415   17.9968 C   0  0  0  0  0  0  0  0  0  0  0  0
  -13.7087  -25.0135   15.0265 C   0  0  0  0  0  0  0  0  0  0  0  0
  -13.4154  -23.5112   14.7321 C   0  0  0  0  0  0  0  0  0  0  0  0
  -12.7251  -23.7617   13.3835 C   0  0  0  0  0  0  0  0  0  0  0  0
  -12.8725  -18.5167   16.8420 C   0  0  0  0  0  0  0  0  0  0  0  0
  -17.6129  -21.7271   17.1722 C   0  0  0  0  0  0  0  0  0  0  0  0
  -12.2254  -22.6433   14.2922 C   0  0  0  0  0  0  0  0  0  0  0  0
  -13.0854  -20.7055   15.8293 C   0  0  0  0  0  0  0  0  0  0  0  0
  -15.0229  -19.3042   16.4164 N   0  0  0  0  0  0  0  0  0  0  0  0
  -12.6016  -21.2113   14.5431 N   0  0  0  0  0  0  0  0  0  0  0  0
  -15.6847  -21.1157   15.1152 O   0  0  0  0  0  0  0  0  0  0  0  0
  -13.1970  -21.4202   16.7722 O   0  0  0  0  0  0  0  0  0  0  0  0
  -12.5178  -20.5738   13.7975 H   0  0  0  0  0  0  0  0  0  0  0  0
  -10.9554  -23.1070   15.0346 C   0  0  0  0  0  0  0  0  0  0  0  0
  -10.4640  -22.4435   16.0031 N   0  0  0  0  0  0  0  0  0  0  0  0
  -10.2957  -24.2487   14.6238 O   0  0  0  0  0  0  0  0  0  0  0  0
  -10.8527  -21.6093   16.3529 H   0  0  0  0  0  0  0  0  0  0  0  0
   -8.1903  -23.6630   15.5400 O   0  0  0  0  0  0  0  0  0  0  0  0
   -9.4118  -24.3793   17.3833 O   0  0  0  0  0  0  0  0  0  0  0  0
   -9.0533  -23.1713   16.6220 S   0  0  0  0  0  0  0  0  0  0  0  0
   -8.2101  -21.9455   17.7052 C   0  0  0  0  0  0  0  0  0  0  0  0
   -6.9605  -21.3029   17.1049 C   0  0  0  0  0  0  0  0  0  0  0  0
   -6.8262  -22.3587   18.2115 C   0  0  0  0  0  0  0  0  0  0  0  0
  -19.4086  -19.0730   15.6256 C   0  0  0  0  0  0  0  0  0  0  0  0
  -18.4142  -20.1517   15.5015 N   0  0  0  0  0  0  0  0  0  0  0  0
  -19.4679  -18.4349   16.6304 O   0  0  0  0  0  0  0  0  0  0  0  0
  -18.4267  -20.7444   14.7155 H   0  0  0  0  0  0  0  0  0  0  0  0
  -20.2548  -18.8157   14.5097 O   0  0  0  0  0  0  0  0  0  0  0  0
  -19.8489  -17.8263   13.5616 C   0  0  0  0  0  0  0  0  0  0  0  0
  -19.6707  -18.4485   12.1510 C   0  0  0  0  0  0  0  0  0  0  0  0
  -18.4711  -17.2911   14.0355 C   0  0  0  0  0  0  0  0  0  0  0  0
  -20.8708  -16.6561   13.5250 C   0  0  0  0  0  0  0  0  0  0  0  0
  -14.2472  -16.4639   16.3413 O   0  0  0  0  0  0  0  0  0  0  0  0
  -14.7134  -14.0322   17.0913 C   0  0  0  0  0  0  0  0  0  0  0  0
  -15.1936  -15.4638   16.7058 C   0  0  0  0  0  0  0  0  0  0  0  0
  -17.6010  -14.7128   17.0779 C   0  0  0  0  0  0  0  0  0  0  0  0
  -19.1261  -15.0475   17.0851 C   0  0  0  0  0  0  0  0  0  0  0  0
  -20.1387  -13.9611   17.4756 C   0  0  0  0  0  0  0  0  0  0  0  0
  -19.6458  -12.5513   17.8574 C   0  0  0  0  0  0  0  0  0  0  0  0
  -18.1459  -12.2249   17.8544 C   0  0  0  0  0  0  0  0  0  0  0  0
  -17.1214  -13.3263   17.4582 C   0  0  0  0  0  0  0  0  0  0  0  0
  -16.6219  -15.7584   16.7101 N   0  0  0  0  0  0  0  0  0  0  0  0
  -15.6771  -13.0060   17.4609 N   0  0  0  0  0  0  0  0  0  0  0  0
  -12.4313  -13.3586   15.9011 C   0  0  0  0  0  0  0  0  0  0  0  0
  -13.2254  -13.6385   17.0985 C   0  0  0  0  0  0  0  0  0  0  0  0
  -10.9389  -12.9970   16.3851 C   0  0  0  0  0  0  0  0  0  0  0  0
  -10.8902  -13.0723   17.8422 C   0  0  0  0  0  0  0  0  0  0  0  0
  -12.3136  -13.4783   18.3484 S   0  0  0  0  0  0  0  0  0  0  0  0
 43 54  1  0  0  0
 43 44  2  0  0  0
 43 52  1  0  0  0
  1  7  1  0  0  0
  1 14  1  0  0  0
  1 42  1  0  0  0
  2 14  1  0  0  0
  2 17  1  0  0  0
  2 18  1  0  0  0
  3  8  1  0  0  0
  3 18  1  0  0  0
  3 20  2  0  0  0
  4  9  1  0  0  0
  4 10  1  0  0  0
  5  6  1  0  0  0
  5 10  1  0  0  0
  6 11  2  0  0  0
  7 18  1  0  0  0
  8 15  1  0  0  0
  8 34  1  0  0  0
  9 15  1  0  0  0
 11 12  1  0  0  0
 12 13  1  0  0  0
 12 16  1  0  0  0
 13 16  1  0  0  0
 53 54  2  0  0  0
 53 55  1  0  0  0
 54 57  1  0  0  0
 44 51  1  0  0  0
 44 42  1  0  0  0
 16 23  1  0  0  0
 16 19  1  0  0  0
 17 19  1  0  0  0
 17 21  2  0  0  0
 23 24  1  0  0  0
 23 25  2  0  0  0
 30 31  1  0  0  0
 30 32  1  0  0  0
 30 29  1  0  0  0
 31 32  1  0  0  0
 33 34  1  0  0  0
 33 35  2  0  0  0
 33 37  1  0  0  0
 38 39  1  0  0  0
 38 40  1  0  0  0
 38 41  1  0  0  0
 38 37  1  0  0  0
 45 46  1  0  0  0
 45 50  1  0  0  0
 45 51  2  0  0  0
 46 47  2  0  0  0
 47 48  1  0  0  0
 48 49  2  0  0  0
 49 50  1  0  0  0
 50 52  2  0  0  0
 55 56  2  0  0  0
 56 57  1  0  0  0
 24 29  1  0  0  0
 27 29  2  0  0  0
 28 29  2  0  0  0
 19 22  1  0  0  0
 24 26  1  0  0  0
 34 36  1  0  0  0
M  END
> <minimizedAffinity>
-9.93743

$$$$
