4M0E_1YL_A_604


 21 24  0  0  0  0  0  0  0  0999 V2000
  -22.0818  -40.4357   26.7248 C   0  0  0  0  0  0  0  0  0  0  0  0
  -21.0664  -40.7638   25.5346 C   0  0  0  0  0  0  0  0  0  0  0  0
  -21.3888  -40.4842   24.1371 C   0  0  0  0  0  0  0  0  0  0  0  0
  -20.4394  -40.8107   23.0836 C   0  0  0  0  0  0  0  0  0  0  0  0
  -19.1551  -41.4244   23.4354 C   0  0  0  0  0  0  0  0  0  0  0  0
  -18.8253  -41.7086   24.8408 C   0  0  0  0  0  0  0  0  0  0  0  0
  -19.7927  -41.3650   25.8793 C   0  0  0  0  0  0  0  0  0  0  0  0
  -19.5238  -41.6185   27.2944 C   0  0  0  0  0  0  0  0  0  0  0  0
  -18.2490  -42.2279   27.6756 C   0  0  0  0  0  0  0  0  0  0  0  0
  -17.2718  -42.5431   26.6401 C   0  0  0  0  0  0  0  0  0  0  0  0
  -17.5355  -42.3117   25.2229 C   0  0  0  0  0  0  0  0  0  0  0  0
  -16.4680  -42.6753   24.2383 C   0  0  0  0  0  0  0  0  0  0  0  0
  -16.6008  -42.4875   22.9978 O   0  0  0  0  0  0  0  0  0  0  0  0
  -15.2085  -43.2751   24.6548 C   0  0  0  0  0  0  0  0  0  0  0  0
  -14.3317  -43.5786   23.7704 O   0  0  0  0  0  0  0  0  0  0  0  0
  -14.9754  -43.5365   26.1684 C   0  0  0  0  0  0  0  0  0  0  0  0
  -15.9523  -43.1930   27.0831 C   0  0  0  0  0  0  0  0  0  0  0  0
  -15.5243  -43.5192   28.4605 O   0  0  0  0  0  0  0  0  0  0  0  0
  -14.3721  -44.4641   28.3541 C   0  0  0  0  0  0  0  0  0  0  0  0
  -13.7101  -44.1642   26.9419 C   0  0  0  0  0  0  0  0  0  0  0  0
  -12.5209  -43.0719   27.0048 C   0  0  0  0  0  0  0  0  0  0  0  0
  4  5  2  0  0  0
  4  3  1  0  0  0
 13 12  2  0  0  0
  5  6  1  0  0  0
 15 14  2  0  0  0
  3  2  2  0  0  0
 12 14  1  0  0  0
 12 11  1  0  0  0
 14 16  1  0  0  0
  6 11  2  0  0  0
  6  7  1  0  0  0
 11 10  1  0  0  0
  2  7  1  0  0  0
  2  1  1  0  0  0
  7  8  2  0  0  0
 16 20  1  0  0  0
 16 17  2  0  0  0
 10 17  1  0  0  0
 10  9  2  0  0  0
 20 21  1  0  0  0
 20 19  1  0  0  0
 17 18  1  0  0  0
  8  9  1  0  0  0
 19 18  1  0  0  0
M  END
> <minimizedAffinity>
-11.96506

$$$$
4M0E_1YL_A_604


 21 24  0  0  0  0  0  0  0  0999 V2000
  -21.5891  -40.3626   22.4303 C   0  0  0  0  0  0  0  0  0  0  0  0
  -21.2243  -40.6769   23.9546 C   0  0  0  0  0  0  0  0  0  0  0  0
  -22.1682  -40.4422   25.0451 C   0  0  0  0  0  0  0  0  0  0  0  0
  -21.7899  -40.7309   26.4204 C   0  0  0  0  0  0  0  0  0  0  0  0
  -20.4519  -41.2592   26.7042 C   0  0  0  0  0  0  0  0  0  0  0  0
  -19.4973  -41.4972   25.6102 C   0  0  0  0  0  0  0  0  0  0  0  0
  -19.9042  -41.2055   24.2384 C   0  0  0  0  0  0  0  0  0  0  0  0
  -19.0036  -41.4233   23.1068 C   0  0  0  0  0  0  0  0  0  0  0  0
  -17.6627  -41.9521   23.3596 C   0  0  0  0  0  0  0  0  0  0  0  0
  -17.2683  -42.2709   24.7268 C   0  0  0  0  0  0  0  0  0  0  0  0
  -18.1513  -42.0411   25.8667 C   0  0  0  0  0  0  0  0  0  0  0  0
  -17.6488  -42.3972   27.2312 C   0  0  0  0  0  0  0  0  0  0  0  0
  -18.3524  -42.2547   28.2686 O   0  0  0  0  0  0  0  0  0  0  0  0
  -16.3096  -42.9270   27.4443 C   0  0  0  0  0  0  0  0  0  0  0  0
  -15.9237  -43.2052   28.6347 O   0  0  0  0  0  0  0  0  0  0  0  0
  -15.3860  -43.1284   26.2115 C   0  0  0  0  0  0  0  0  0  0  0  0
  -15.8478  -42.8121   24.9483 C   0  0  0  0  0  0  0  0  0  0  0  0
  -14.8162  -43.0859   23.9249 O   0  0  0  0  0  0  0  0  0  0  0  0
  -13.5108  -43.2245   24.6380 C   0  0  0  0  0  0  0  0  0  0  0  0
  -13.8819  -43.6947   26.1089 C   0  0  0  0  0  0  0  0  0  0  0  0
  -13.8971  -45.3004   26.2893 C   0  0  0  0  0  0  0  0  0  0  0  0
  4  5  2  0  0  0
  4  3  1  0  0  0
 13 12  2  0  0  0
  5  6  1  0  0  0
 15 14  2  0  0  0
  3  2  2  0  0  0
 12 14  1  0  0  0
 12 11  1  0  0  0
 14 16  1  0  0  0
  6 11  2  0  0  0
  6  7  1  0  0  0
 11 10  1  0  0  0
  2  7  1  0  0  0
  2  1  1  0  0  0
  7  8  2  0  0  0
 16 20  1  0  0  0
 16 17  2  0  0  0
 10 17  1  0  0  0
 10  9  2  0  0  0
 20 21  1  0  0  0
 20 19  1  0  0  0
 17 18  1  0  0  0
  8  9  1  0  0  0
 19 18  1  0  0  0
M  END
> <minimizedAffinity>
-10.82262

$$$$
4M0E_1YL_A_604


 21 24  0  0  0  0  0  0  0  0999 V2000
  -14.4551  -43.9008   28.3157 C   0  0  0  0  0  0  0  0  0  0  0  0
  -14.9041  -43.5802   26.8155 C   0  0  0  0  0  0  0  0  0  0  0  0
  -14.0380  -43.8485   25.6696 C   0  0  0  0  0  0  0  0  0  0  0  0
  -14.4822  -43.5294   24.3210 C   0  0  0  0  0  0  0  0  0  0  0  0
  -15.8072  -42.9347   24.1203 C   0  0  0  0  0  0  0  0  0  0  0  0
  -16.6835  -42.6620   25.2703 C   0  0  0  0  0  0  0  0  0  0  0  0
  -16.2165  -42.9979   26.6126 C   0  0  0  0  0  0  0  0  0  0  0  0
  -17.0406  -42.7550   27.7962 C   0  0  0  0  0  0  0  0  0  0  0  0
  -18.3688  -42.1646   27.6262 C   0  0  0  0  0  0  0  0  0  0  0  0
  -18.8456  -41.8573   26.2829 C   0  0  0  0  0  0  0  0  0  0  0  0
  -18.0257  -42.0781   25.0951 C   0  0  0  0  0  0  0  0  0  0  0  0
  -18.6064  -41.7238   23.7614 C   0  0  0  0  0  0  0  0  0  0  0  0
  -17.9785  -41.9036   22.6821 O   0  0  0  0  0  0  0  0  0  0  0  0
  -19.9349  -41.1429   23.6300 C   0  0  0  0  0  0  0  0  0  0  0  0
  -20.3811  -40.8468   22.4654 O   0  0  0  0  0  0  0  0  0  0  0  0
  -20.7663  -40.8923   24.9182 C   0  0  0  0  0  0  0  0  0  0  0  0
  -20.2404  -41.2273   26.1511 C   0  0  0  0  0  0  0  0  0  0  0  0
  -21.1955  -40.9138   27.2356 O   0  0  0  0  0  0  0  0  0  0  0  0
  -22.2185  -39.9838   26.6696 C   0  0  0  0  0  0  0  0  0  0  0  0
  -22.2455  -40.2854   25.1105 C   0  0  0  0  0  0  0  0  0  0  0  0
  -23.3421  -41.3938   24.6859 C   0  0  0  0  0  0  0  0  0  0  0  0
  4  5  2  0  0  0
  4  3  1  0  0  0
 13 12  2  0  0  0
  5  6  1  0  0  0
 15 14  2  0  0  0
  3  2  2  0  0  0
 12 14  1  0  0  0
 12 11  1  0  0  0
 14 16  1  0  0  0
  6 11  2  0  0  0
  6  7  1  0  0  0
 11 10  1  0  0  0
  2  7  1  0  0  0
  2  1  1  0  0  0
  7  8  2  0  0  0
 16 20  1  0  0  0
 16 17  2  0  0  0
 10 17  1  0  0  0
 10  9  2  0  0  0
 20 21  1  0  0  0
 20 19  1  0  0  0
 17 18  1  0  0  0
  8  9  1  0  0  0
 19 18  1  0  0  0
M  END
> <minimizedAffinity>
-10.57465

$$$$
4M0E_1YL_A_604


 21 24  0  0  0  0  0  0  0  0999 V2000
  -14.2323  -43.7405   25.1483 C   0  0  0  0  0  0  0  0  0  0  0  0
  -15.4773  -43.2174   26.0037 C   0  0  0  0  0  0  0  0  0  0  0  0
  -15.4884  -43.2539   27.4645 C   0  0  0  0  0  0  0  0  0  0  0  0
  -16.6485  -42.7786   28.2034 C   0  0  0  0  0  0  0  0  0  0  0  0
  -17.8085  -42.2628   27.4700 C   0  0  0  0  0  0  0  0  0  0  0  0
  -17.8031  -42.2239   25.9992 C   0  0  0  0  0  0  0  0  0  0  0  0
  -16.6239  -42.7006   25.2819 C   0  0  0  0  0  0  0  0  0  0  0  0
  -16.5545  -42.6853   23.8211 C   0  0  0  0  0  0  0  0  0  0  0  0
  -17.6966  -42.1737   23.0626 C   0  0  0  0  0  0  0  0  0  0  0  0
  -18.8616  -41.6705   23.7809 C   0  0  0  0  0  0  0  0  0  0  0  0
  -18.9504  -41.6970   25.2380 C   0  0  0  0  0  0  0  0  0  0  0  0
  -20.1928  -41.1612   25.8788 C   0  0  0  0  0  0  0  0  0  0  0  0
  -20.3447  -41.1231   27.1306 O   0  0  0  0  0  0  0  0  0  0  0  0
  -21.3078  -40.6544   25.0917 C   0  0  0  0  0  0  0  0  0  0  0  0
  -22.3542  -40.2172   25.6893 O   0  0  0  0  0  0  0  0  0  0  0  0
  -21.1912  -40.6711   23.5426 C   0  0  0  0  0  0  0  0  0  0  0  0
  -20.0427  -41.1541   22.9454 C   0  0  0  0  0  0  0  0  0  0  0  0
  -20.1389  -41.0722   21.4721 O   0  0  0  0  0  0  0  0  0  0  0  0
  -21.5806  -40.8768   21.1327 C   0  0  0  0  0  0  0  0  0  0  0  0
  -22.2231  -40.1810   22.4076 C   0  0  0  0  0  0  0  0  0  0  0  0
  -22.2170  -38.5667   22.3345 C   0  0  0  0  0  0  0  0  0  0  0  0
  4  5  2  0  0  0
  4  3  1  0  0  0
 13 12  2  0  0  0
  5  6  1  0  0  0
 15 14  2  0  0  0
  3  2  2  0  0  0
 12 14  1  0  0  0
 12 11  1  0  0  0
 14 16  1  0  0  0
  6 11  2  0  0  0
  6  7  1  0  0  0
 11 10  1  0  0  0
  2  7  1  0  0  0
  2  1  1  0  0  0
  7  8  2  0  0  0
 16 20  1  0  0  0
 16 17  2  0  0  0
 10 17  1  0  0  0
 10  9  2  0  0  0
 20 21  1  0  0  0
 20 19  1  0  0  0
 17 18  1  0  0  0
  8  9  1  0  0  0
 19 18  1  0  0  0
M  END
> <minimizedAffinity>
-10.30142

$$$$
