3PB7_PBD_X_390


 24 25  0  0  0  0  0  0  0  0999 V2000
    4.5405   49.7356   18.0012 N   0  0  0  0  0  0  0  0  0  0  0  0
    4.6866   49.5932   17.0381 H   0  0  0  0  0  0  0  0  0  0  0  0
    2.5726   50.0738   19.3682 C   0  0  0  0  0  0  0  0  0  0  0  0
    1.3526   49.5269   19.8589 C   0  0  0  0  0  0  0  0  0  0  0  0
    2.9922   48.0024   18.1147 C   0  0  0  0  0  0  0  0  0  0  0  0
    3.3671   49.2817   18.5112 C   0  0  0  0  0  0  0  0  0  0  0  0
    0.9721   48.2159   19.4543 C   0  0  0  0  0  0  0  0  0  0  0  0
    1.8312   47.4479   18.6471 C   0  0  0  0  0  0  0  0  0  0  0  0
   -1.4398   47.9109   19.3210 C   0  0  0  0  0  0  0  0  0  0  0  0
   -0.1532   47.5265   19.9313 O   0  0  0  0  0  0  0  0  0  0  0  0
    1.0739   45.9124   16.8771 C   0  0  0  0  0  0  0  0  0  0  0  0
    1.4153   46.1692   18.2717 O   0  0  0  0  0  0  0  0  0  0  0  0
    5.7370   52.0791   18.5161 S   0  0  0  0  0  0  0  0  0  0  0  0
    5.5126   50.3518   18.6653 C   0  0  0  0  0  0  0  0  0  0  0  0
    6.2947   49.6224   19.4202 N   0  0  0  0  0  0  0  0  0  0  0  0
    6.5122   48.7115   19.1167 H   0  0  0  0  0  0  0  0  0  0  0  0
    6.8710   50.0840   20.7015 C   0  0  0  0  0  0  0  0  0  0  0  0
    7.9797   49.1333   21.0339 C   0  0  0  0  0  0  0  0  0  0  0  0
    8.7756   49.6244   22.1988 C   0  0  0  0  0  0  0  0  0  0  0  0
    7.9250   47.2263   24.7676 C   0  0  0  0  0  0  0  0  0  0  0  0
    7.8042   47.6765   23.5065 C   0  0  0  0  0  0  0  0  0  0  0  0
    9.0828   49.0390   24.5735 C   0  0  0  0  0  0  0  0  0  0  0  0
    8.6598   48.1139   25.4704 N   0  0  0  0  0  0  0  0  0  0  0  0
    8.5653   48.7485   23.3774 N   0  0  0  0  0  0  0  0  0  0  0  0
  9 10  1  0  0  0
 11 12  1  0  0  0
 13 14  2  0  0  0
 20 21  2  0  0  0
 20 23  1  0  0  0
  3  4  2  0  0  0
  3  6  1  0  0  0
  4  7  1  0  0  0
 21 24  1  0  0  0
 22 23  2  0  0  0
 22 24  1  0  0  0
  5  6  2  0  0  0
  5  8  1  0  0  0
 18 17  1  0  0  0
 18 19  1  0  0  0
 17 15  1  0  0  0
 19 24  1  0  0  0
 15 14  1  0  0  0
  1 14  1  0  0  0
  1  6  1  0  0  0
 10  7  1  0  0  0
 12  8  1  0  0  0
  7  8  2  0  0  0
 15 16  1  0  0  0
  1  2  1  0  0  0
M  END
> <minimizedAffinity>
-6.07017

$$$$
3PB7_PBD_X_390


 24 25  0  0  0  0  0  0  0  0999 V2000
    5.5022   50.4006   18.4075 N   0  0  0  0  0  0  0  0  0  0  0  0
    5.4125   51.3500   18.1632 H   0  0  0  0  0  0  0  0  0  0  0  0
    4.1934   48.4403   17.8599 C   0  0  0  0  0  0  0  0  0  0  0  0
    2.9565   47.7510   18.0125 C   0  0  0  0  0  0  0  0  0  0  0  0
    3.3561   50.2515   19.2941 C   0  0  0  0  0  0  0  0  0  0  0  0
    4.3515   49.6868   18.5037 C   0  0  0  0  0  0  0  0  0  0  0  0
    1.9376   48.3322   18.8195 C   0  0  0  0  0  0  0  0  0  0  0  0
    2.1265   49.6050   19.3884 C   0  0  0  0  0  0  0  0  0  0  0  0
    0.5364   46.3412   18.8437 C   0  0  0  0  0  0  0  0  0  0  0  0
    0.6469   47.8056   18.9805 O   0  0  0  0  0  0  0  0  0  0  0  0
    1.4229   51.1452   21.1765 C   0  0  0  0  0  0  0  0  0  0  0  0
    1.1020   50.1341   20.1755 O   0  0  0  0  0  0  0  0  0  0  0  0
    7.8691   49.8355   17.2816 S   0  0  0  0  0  0  0  0  0  0  0  0
    6.7370   49.9525   18.6085 C   0  0  0  0  0  0  0  0  0  0  0  0
    7.0673   49.5957   19.8239 N   0  0  0  0  0  0  0  0  0  0  0  0
    7.4154   48.6849   19.9601 H   0  0  0  0  0  0  0  0  0  0  0  0
    6.9494   50.4782   21.0047 C   0  0  0  0  0  0  0  0  0  0  0  0
    8.3001   50.5025   21.6516 C   0  0  0  0  0  0  0  0  0  0  0  0
    8.8712   49.1258   21.7518 C   0  0  0  0  0  0  0  0  0  0  0  0
    7.8150   47.2234   24.6395 C   0  0  0  0  0  0  0  0  0  0  0  0
    7.9600   47.3378   23.3077 C   0  0  0  0  0  0  0  0  0  0  0  0
    8.6244   49.1777   24.2039 C   0  0  0  0  0  0  0  0  0  0  0  0
    8.1530   48.3994   25.2094 N   0  0  0  0  0  0  0  0  0  0  0  0
    8.5148   48.5094   23.0532 N   0  0  0  0  0  0  0  0  0  0  0  0
  9 10  1  0  0  0
 11 12  1  0  0  0
 13 14  2  0  0  0
 20 21  2  0  0  0
 20 23  1  0  0  0
  3  4  2  0  0  0
  3  6  1  0  0  0
  4  7  1  0  0  0
 21 24  1  0  0  0
 22 23  2  0  0  0
 22 24  1  0  0  0
  5  6  2  0  0  0
  5  8  1  0  0  0
 18 17  1  0  0  0
 18 19  1  0  0  0
 17 15  1  0  0  0
 19 24  1  0  0  0
 15 14  1  0  0  0
  1 14  1  0  0  0
  1  6  1  0  0  0
 10  7  1  0  0  0
 12  8  1  0  0  0
  7  8  2  0  0  0
 15 16  1  0  0  0
  1  2  1  0  0  0
M  END
> <minimizedAffinity>
-6.00016

$$$$
3PB7_PBD_X_390


 24 25  0  0  0  0  0  0  0  0999 V2000
    7.1038   49.0125   18.3408 N   0  0  0  0  0  0  0  0  0  0  0  0
    7.3709   48.0923   18.1146 H   0  0  0  0  0  0  0  0  0  0  0  0
    5.2805   50.2997   19.2760 C   0  0  0  0  0  0  0  0  0  0  0  0
    3.8705   50.4762   19.3707 C   0  0  0  0  0  0  0  0  0  0  0  0
    4.9358   48.3838   17.7764 C   0  0  0  0  0  0  0  0  0  0  0  0
    5.7732   49.2413   18.4820 C   0  0  0  0  0  0  0  0  0  0  0  0
    3.0149   49.5954   18.6500 C   0  0  0  0  0  0  0  0  0  0  0  0
    3.5578   48.5204   17.9227 C   0  0  0  0  0  0  0  0  0  0  0  0
    1.0506   49.8641   20.0634 C   0  0  0  0  0  0  0  0  0  0  0  0
    1.6137   49.6016   18.7256 O   0  0  0  0  0  0  0  0  0  0  0  0
    3.0114   47.2809   15.8662 C   0  0  0  0  0  0  0  0  0  0  0  0
    2.6813   47.6846   17.2284 O   0  0  0  0  0  0  0  0  0  0  0  0
    8.3566   51.1184   17.2525 S   0  0  0  0  0  0  0  0  0  0  0  0
    8.0836   49.8999   18.4759 C   0  0  0  0  0  0  0  0  0  0  0  0
    8.8359   49.8217   19.5443 N   0  0  0  0  0  0  0  0  0  0  0  0
    9.5619   49.1569   19.5512 H   0  0  0  0  0  0  0  0  0  0  0  0
    8.6610   50.6719   20.7417 C   0  0  0  0  0  0  0  0  0  0  0  0
    7.9328   49.8377   21.7504 C   0  0  0  0  0  0  0  0  0  0  0  0
    8.6294   48.5349   21.9717 C   0  0  0  0  0  0  0  0  0  0  0  0
    8.0525   47.1394   25.2570 C   0  0  0  0  0  0  0  0  0  0  0  0
    7.8816   47.0938   23.9241 C   0  0  0  0  0  0  0  0  0  0  0  0
    9.0009   48.8727   24.3850 C   0  0  0  0  0  0  0  0  0  0  0  0
    8.6841   48.2909   25.5683 N   0  0  0  0  0  0  0  0  0  0  0  0
    8.5184   48.1216   23.3921 N   0  0  0  0  0  0  0  0  0  0  0  0
  9 10  1  0  0  0
 11 12  1  0  0  0
 13 14  2  0  0  0
 20 21  2  0  0  0
 20 23  1  0  0  0
  3  4  2  0  0  0
  3  6  1  0  0  0
  4  7  1  0  0  0
 21 24  1  0  0  0
 22 23  2  0  0  0
 22 24  1  0  0  0
  5  6  2  0  0  0
  5  8  1  0  0  0
 18 17  1  0  0  0
 18 19  1  0  0  0
 17 15  1  0  0  0
 19 24  1  0  0  0
 15 14  1  0  0  0
  1 14  1  0  0  0
  1  6  1  0  0  0
 10  7  1  0  0  0
 12  8  1  0  0  0
  7  8  2  0  0  0
 15 16  1  0  0  0
  1  2  1  0  0  0
M  END
> <minimizedAffinity>
-5.88653

$$$$
3PB7_PBD_X_390


 24 25  0  0  0  0  0  0  0  0999 V2000
    8.1685   49.3452   19.0774 N   0  0  0  0  0  0  0  0  0  0  0  0
    8.8771   48.6617   19.0798 H   0  0  0  0  0  0  0  0  0  0  0  0
    8.0255   51.6582   19.7740 C   0  0  0  0  0  0  0  0  0  0  0  0
    8.1052   52.5868   20.8510 C   0  0  0  0  0  0  0  0  0  0  0  0
    8.4876   49.8163   21.3336 C   0  0  0  0  0  0  0  0  0  0  0  0
    8.2320   50.2893   20.0508 C   0  0  0  0  0  0  0  0  0  0  0  0
    8.3701   52.1009   22.1628 C   0  0  0  0  0  0  0  0  0  0  0  0
    8.6278   50.7337   22.3717 C   0  0  0  0  0  0  0  0  0  0  0  0
    7.9690   54.2593   23.2157 C   0  0  0  0  0  0  0  0  0  0  0  0
    8.5625   52.9112   23.2923 O   0  0  0  0  0  0  0  0  0  0  0  0
    8.4767   48.9561   24.0692 C   0  0  0  0  0  0  0  0  0  0  0  0
    8.8788   50.3016   23.6752 O   0  0  0  0  0  0  0  0  0  0  0  0
    7.6711   49.5357   16.4496 S   0  0  0  0  0  0  0  0  0  0  0  0
    7.2506   49.2467   18.1217 C   0  0  0  0  0  0  0  0  0  0  0  0
    6.0291   48.9380   18.4770 N   0  0  0  0  0  0  0  0  0  0  0  0
    5.8168   47.9882   18.6259 H   0  0  0  0  0  0  0  0  0  0  0  0
    4.9489   49.9296   18.6683 C   0  0  0  0  0  0  0  0  0  0  0  0
    3.8400   49.5314   17.7435 C   0  0  0  0  0  0  0  0  0  0  0  0
    3.5817   48.0619   17.8179 C   0  0  0  0  0  0  0  0  0  0  0  0
    0.4498   47.8651   19.6139 C   0  0  0  0  0  0  0  0  0  0  0  0
    1.5878   48.5191   19.3223 C   0  0  0  0  0  0  0  0  0  0  0  0
    1.6136   46.6462   18.2635 C   0  0  0  0  0  0  0  0  0  0  0  0
    0.4881   46.6537   19.0198 N   0  0  0  0  0  0  0  0  0  0  0  0
    2.2645   47.7975   18.4468 N   0  0  0  0  0  0  0  0  0  0  0  0
  9 10  1  0  0  0
 11 12  1  0  0  0
 13 14  2  0  0  0
 20 21  2  0  0  0
 20 23  1  0  0  0
  3  4  2  0  0  0
  3  6  1  0  0  0
  4  7  1  0  0  0
 21 24  1  0  0  0
 22 23  2  0  0  0
 22 24  1  0  0  0
  5  6  2  0  0  0
  5  8  1  0  0  0
 18 17  1  0  0  0
 18 19  1  0  0  0
 17 15  1  0  0  0
 19 24  1  0  0  0
 15 14  1  0  0  0
  1 14  1  0  0  0
  1  6  1  0  0  0
 10  7  1  0  0  0
 12  8  1  0  0  0
  7  8  2  0  0  0
 15 16  1  0  0  0
  1  2  1  0  0  0
M  END
> <minimizedAffinity>
-5.75238

$$$$
3PB7_PBD_X_390


 24 25  0  0  0  0  0  0  0  0999 V2000
    7.4203   51.5415   18.8756 N   0  0  0  0  0  0  0  0  0  0  0  0
    6.9824   52.4231   18.8619 H   0  0  0  0  0  0  0  0  0  0  0  0
    8.1297   49.7323   20.3176 C   0  0  0  0  0  0  0  0  0  0  0  0
    8.5830   49.3456   21.6112 C   0  0  0  0  0  0  0  0  0  0  0  0
    8.0257   52.0730   21.0585 C   0  0  0  0  0  0  0  0  0  0  0  0
    7.8524   51.0966   20.0832 C   0  0  0  0  0  0  0  0  0  0  0  0
    8.7568   50.3461   22.6091 C   0  0  0  0  0  0  0  0  0  0  0  0
    8.4076   51.6820   22.3392 C   0  0  0  0  0  0  0  0  0  0  0  0
    8.5413   48.8632   24.5281 C   0  0  0  0  0  0  0  0  0  0  0  0
    9.1095   50.0924   23.9434 O   0  0  0  0  0  0  0  0  0  0  0  0
    8.0628   53.9748   23.1688 C   0  0  0  0  0  0  0  0  0  0  0  0
    8.5984   52.6298   23.3462 O   0  0  0  0  0  0  0  0  0  0  0  0
    9.0681   50.8034   16.8935 S   0  0  0  0  0  0  0  0  0  0  0  0
    7.5262   50.9120   17.7101 C   0  0  0  0  0  0  0  0  0  0  0  0
    6.4411   50.3901   17.1966 N   0  0  0  0  0  0  0  0  0  0  0  0
    5.8926   50.9535   16.6041 H   0  0  0  0  0  0  0  0  0  0  0  0
    5.9894   49.0055   17.4527 C   0  0  0  0  0  0  0  0  0  0  0  0
    4.8734   49.1013   18.4472 C   0  0  0  0  0  0  0  0  0  0  0  0
    3.5770   49.4056   17.7703 C   0  0  0  0  0  0  0  0  0  0  0  0
    0.8594   47.5388   19.2546 C   0  0  0  0  0  0  0  0  0  0  0  0
    1.5842   48.6673   19.1601 C   0  0  0  0  0  0  0  0  0  0  0  0
    2.4513   47.2134   17.8320 C   0  0  0  0  0  0  0  0  0  0  0  0
    1.4391   46.5922   18.4867 N   0  0  0  0  0  0  0  0  0  0  0  0
    2.5159   48.4825   18.2421 N   0  0  0  0  0  0  0  0  0  0  0  0
  9 10  1  0  0  0
 11 12  1  0  0  0
 13 14  2  0  0  0
 20 21  2  0  0  0
 20 23  1  0  0  0
  3  4  2  0  0  0
  3  6  1  0  0  0
  4  7  1  0  0  0
 21 24  1  0  0  0
 22 23  2  0  0  0
 22 24  1  0  0  0
  5  6  2  0  0  0
  5  8  1  0  0  0
 18 17  1  0  0  0
 18 19  1  0  0  0
 17 15  1  0  0  0
 19 24  1  0  0  0
 15 14  1  0  0  0
  1 14  1  0  0  0
  1  6  1  0  0  0
 10  7  1  0  0  0
 12  8  1  0  0  0
  7  8  2  0  0  0
 15 16  1  0  0  0
  1  2  1  0  0  0
M  END
> <minimizedAffinity>
-5.62326

$$$$
3PB7_PBD_X_390


 24 25  0  0  0  0  0  0  0  0999 V2000
    7.9989   50.2353   17.7624 N   0  0  0  0  0  0  0  0  0  0  0  0
    8.7693   49.7595   17.3759 H   0  0  0  0  0  0  0  0  0  0  0  0
    5.9477   49.0974   18.3569 C   0  0  0  0  0  0  0  0  0  0  0  0
    4.6672   48.6447   17.9281 C   0  0  0  0  0  0  0  0  0  0  0  0
    6.3634   50.0269   16.1205 C   0  0  0  0  0  0  0  0  0  0  0  0
    6.7679   49.7718   17.4265 C   0  0  0  0  0  0  0  0  0  0  0  0
    4.2562   48.9041   16.5899 C   0  0  0  0  0  0  0  0  0  0  0  0
    5.1380   49.5269   15.6877 C   0  0  0  0  0  0  0  0  0  0  0  0
    2.9587   46.9741   15.8691 C   0  0  0  0  0  0  0  0  0  0  0  0
    3.0642   48.4381   16.0146 O   0  0  0  0  0  0  0  0  0  0  0  0
    4.2270   51.0998   14.0261 C   0  0  0  0  0  0  0  0  0  0  0  0
    4.6909   49.7647   14.3867 O   0  0  0  0  0  0  0  0  0  0  0  0
    8.1269   52.9051   17.9741 S   0  0  0  0  0  0  0  0  0  0  0  0
    8.2733   51.2637   18.5578 C   0  0  0  0  0  0  0  0  0  0  0  0
    8.6634   51.0039   19.7800 N   0  0  0  0  0  0  0  0  0  0  0  0
    9.5897   50.6987   19.9149 H   0  0  0  0  0  0  0  0  0  0  0  0
    7.7969   51.1412   20.9705 C   0  0  0  0  0  0  0  0  0  0  0  0
    8.5913   50.6313   22.1334 C   0  0  0  0  0  0  0  0  0  0  0  0
    8.8695   49.1703   21.9930 C   0  0  0  0  0  0  0  0  0  0  0  0
    7.7674   47.0251   24.6869 C   0  0  0  0  0  0  0  0  0  0  0  0
    7.9595   47.2436   23.3742 C   0  0  0  0  0  0  0  0  0  0  0  0
    8.5274   49.0302   24.4302 C   0  0  0  0  0  0  0  0  0  0  0  0
    8.0440   48.1646   25.3554 N   0  0  0  0  0  0  0  0  0  0  0  0
    8.4843   48.4473   23.2297 N   0  0  0  0  0  0  0  0  0  0  0  0
  9 10  1  0  0  0
 11 12  1  0  0  0
 13 14  2  0  0  0
 20 21  2  0  0  0
 20 23  1  0  0  0
  3  4  2  0  0  0
  3  6  1  0  0  0
  4  7  1  0  0  0
 21 24  1  0  0  0
 22 23  2  0  0  0
 22 24  1  0  0  0
  5  6  2  0  0  0
  5  8  1  0  0  0
 18 17  1  0  0  0
 18 19  1  0  0  0
 17 15  1  0  0  0
 19 24  1  0  0  0
 15 14  1  0  0  0
  1 14  1  0  0  0
  1  6  1  0  0  0
 10  7  1  0  0  0
 12  8  1  0  0  0
  7  8  2  0  0  0
 15 16  1  0  0  0
  1  2  1  0  0  0
M  END
> <minimizedAffinity>
-5.53844

$$$$
3PB7_PBD_X_390


 24 25  0  0  0  0  0  0  0  0999 V2000
    3.9670   47.9083   16.6583 N   0  0  0  0  0  0  0  0  0  0  0  0
    4.1055   47.0678   16.1648 H   0  0  0  0  0  0  0  0  0  0  0  0
    2.8100   48.9732   18.4976 C   0  0  0  0  0  0  0  0  0  0  0  0
    1.7296   48.9109   19.4235 C   0  0  0  0  0  0  0  0  0  0  0  0
    2.0908   46.8362   17.5209 C   0  0  0  0  0  0  0  0  0  0  0  0
    2.9640   47.9174   17.5731 C   0  0  0  0  0  0  0  0  0  0  0  0
    0.8386   47.8016   19.3705 C   0  0  0  0  0  0  0  0  0  0  0  0
    1.0746   46.7478   18.4688 C   0  0  0  0  0  0  0  0  0  0  0  0
   -1.2038   48.6549   20.3848 C   0  0  0  0  0  0  0  0  0  0  0  0
   -0.2079   47.5722   20.2768 O   0  0  0  0  0  0  0  0  0  0  0  0
   -0.9854   45.7462   17.5644 C   0  0  0  0  0  0  0  0  0  0  0  0
    0.1726   45.6824   18.4491 O   0  0  0  0  0  0  0  0  0  0  0  0
    4.2448   50.2175   15.3243 S   0  0  0  0  0  0  0  0  0  0  0  0
    4.7816   48.9147   16.3590 C   0  0  0  0  0  0  0  0  0  0  0  0
    5.9927   48.8889   16.8551 N   0  0  0  0  0  0  0  0  0  0  0  0
    6.6379   48.2542   16.4674 H   0  0  0  0  0  0  0  0  0  0  0  0
    6.4503   49.7554   17.9626 C   0  0  0  0  0  0  0  0  0  0  0  0
    7.8189   49.2758   18.3376 C   0  0  0  0  0  0  0  0  0  0  0  0
    8.6993   50.4184   18.7262 C   0  0  0  0  0  0  0  0  0  0  0  0
    8.6562   50.4273   22.3416 C   0  0  0  0  0  0  0  0  0  0  0  0
    8.7961   49.7672   21.1786 C   0  0  0  0  0  0  0  0  0  0  0  0
    8.3186   51.8148   20.7215 C   0  0  0  0  0  0  0  0  0  0  0  0
    8.2782   51.6946   22.0717 N   0  0  0  0  0  0  0  0  0  0  0  0
    8.6518   50.6348   20.1930 N   0  0  0  0  0  0  0  0  0  0  0  0
  9 10  1  0  0  0
 11 12  1  0  0  0
 13 14  2  0  0  0
 20 21  2  0  0  0
 20 23  1  0  0  0
  3  4  2  0  0  0
  3  6  1  0  0  0
  4  7  1  0  0  0
 21 24  1  0  0  0
 22 23  2  0  0  0
 22 24  1  0  0  0
  5  6  2  0  0  0
  5  8  1  0  0  0
 18 17  1  0  0  0
 18 19  1  0  0  0
 17 15  1  0  0  0
 19 24  1  0  0  0
 15 14  1  0  0  0
  1 14  1  0  0  0
  1  6  1  0  0  0
 10  7  1  0  0  0
 12  8  1  0  0  0
  7  8  2  0  0  0
 15 16  1  0  0  0
  1  2  1  0  0  0
M  END
> <minimizedAffinity>
-5.49391

$$$$
3PB7_PBD_X_390


 24 25  0  0  0  0  0  0  0  0999 V2000
    3.8235   48.5091   18.0452 N   0  0  0  0  0  0  0  0  0  0  0  0
    4.1523   48.7289   18.9467 H   0  0  0  0  0  0  0  0  0  0  0  0
    2.4896   46.8223   16.9355 C   0  0  0  0  0  0  0  0  0  0  0  0
    1.2843   46.0636   16.9363 C   0  0  0  0  0  0  0  0  0  0  0  0
    1.7839   47.9377   19.0083 C   0  0  0  0  0  0  0  0  0  0  0  0
    2.6983   47.7527   17.9767 C   0  0  0  0  0  0  0  0  0  0  0  0
    0.3481   46.2567   17.9914 C   0  0  0  0  0  0  0  0  0  0  0  0
    0.5791   47.2405   18.9703 C   0  0  0  0  0  0  0  0  0  0  0  0
   -1.9353   46.1820   17.1494 C   0  0  0  0  0  0  0  0  0  0  0  0
   -0.9119   45.6435   18.0651 O   0  0  0  0  0  0  0  0  0  0  0  0
   -1.2242   48.5702   19.9922 C   0  0  0  0  0  0  0  0  0  0  0  0
   -0.3642   47.3922   19.9882 O   0  0  0  0  0  0  0  0  0  0  0  0
    3.8143   50.1191   15.9012 S   0  0  0  0  0  0  0  0  0  0  0  0
    4.5276   48.9841   17.0233 C   0  0  0  0  0  0  0  0  0  0  0  0
    5.7603   48.5664   16.8839 N   0  0  0  0  0  0  0  0  0  0  0  0
    5.9037   47.6345   16.6006 H   0  0  0  0  0  0  0  0  0  0  0  0
    6.9507   49.4098   17.1262 C   0  0  0  0  0  0  0  0  0  0  0  0
    7.3077   49.2332   18.5701 C   0  0  0  0  0  0  0  0  0  0  0  0
    8.5710   49.9580   18.9023 C   0  0  0  0  0  0  0  0  0  0  0  0
    8.4197   51.6129   22.1135 C   0  0  0  0  0  0  0  0  0  0  0  0
    8.3444   51.6613   20.7719 C   0  0  0  0  0  0  0  0  0  0  0  0
    8.8401   49.6439   21.3323 C   0  0  0  0  0  0  0  0  0  0  0  0
    8.8081   50.3721   22.4759 N   0  0  0  0  0  0  0  0  0  0  0  0
    8.5390   50.4412   20.3045 N   0  0  0  0  0  0  0  0  0  0  0  0
  9 10  1  0  0  0
 11 12  1  0  0  0
 13 14  2  0  0  0
 20 21  2  0  0  0
 20 23  1  0  0  0
  3  4  2  0  0  0
  3  6  1  0  0  0
  4  7  1  0  0  0
 21 24  1  0  0  0
 22 23  2  0  0  0
 22 24  1  0  0  0
  5  6  2  0  0  0
  5  8  1  0  0  0
 18 17  1  0  0  0
 18 19  1  0  0  0
 17 15  1  0  0  0
 19 24  1  0  0  0
 15 14  1  0  0  0
  1 14  1  0  0  0
  1  6  1  0  0  0
 10  7  1  0  0  0
 12  8  1  0  0  0
  7  8  2  0  0  0
 15 16  1  0  0  0
  1  2  1  0  0  0
M  END
> <minimizedAffinity>
-5.23328

$$$$
3PB7_PBD_X_390


 24 25  0  0  0  0  0  0  0  0999 V2000
    8.1516   51.3468   18.6315 N   0  0  0  0  0  0  0  0  0  0  0  0
    8.7511   52.0406   18.2731 H   0  0  0  0  0  0  0  0  0  0  0  0
    8.6330   49.6340   20.2718 C   0  0  0  0  0  0  0  0  0  0  0  0
    8.8403   49.3230   21.6461 C   0  0  0  0  0  0  0  0  0  0  0  0
    8.3019   51.9966   20.8607 C   0  0  0  0  0  0  0  0  0  0  0  0
    8.3570   50.9732   19.9204 C   0  0  0  0  0  0  0  0  0  0  0  0
    8.7804   50.3716   22.6075 C   0  0  0  0  0  0  0  0  0  0  0  0
    8.4418   51.6776   22.2089 C   0  0  0  0  0  0  0  0  0  0  0  0
    8.4857   48.8572   24.4911 C   0  0  0  0  0  0  0  0  0  0  0  0
    8.8764   50.1905   23.9957 O   0  0  0  0  0  0  0  0  0  0  0  0
    8.0329   54.0331   22.7998 C   0  0  0  0  0  0  0  0  0  0  0  0
    8.3988   52.6747   23.1851 O   0  0  0  0  0  0  0  0  0  0  0  0
    7.6478   49.7112   16.5676 S   0  0  0  0  0  0  0  0  0  0  0  0
    7.2265   50.8743   17.8028 C   0  0  0  0  0  0  0  0  0  0  0  0
    6.0017   51.3160   17.9383 N   0  0  0  0  0  0  0  0  0  0  0  0
    5.7805   52.1927   17.5489 H   0  0  0  0  0  0  0  0  0  0  0  0
    4.9304   50.5776   18.6410 C   0  0  0  0  0  0  0  0  0  0  0  0
    4.6919   51.3023   19.9300 C   0  0  0  0  0  0  0  0  0  0  0  0
    3.2549   51.2248   20.3305 C   0  0  0  0  0  0  0  0  0  0  0  0
    1.3027   53.8772   18.8383 C   0  0  0  0  0  0  0  0  0  0  0  0
    1.7126   52.5967   18.8518 C   0  0  0  0  0  0  0  0  0  0  0  0
    2.7128   53.6262   20.4546 C   0  0  0  0  0  0  0  0  0  0  0  0
    1.9819   54.5540   19.7883 N   0  0  0  0  0  0  0  0  0  0  0  0
    2.5247   52.4353   19.8811 N   0  0  0  0  0  0  0  0  0  0  0  0
  9 10  1  0  0  0
 11 12  1  0  0  0
 13 14  2  0  0  0
 20 21  2  0  0  0
 20 23  1  0  0  0
  3  4  2  0  0  0
  3  6  1  0  0  0
  4  7  1  0  0  0
 21 24  1  0  0  0
 22 23  2  0  0  0
 22 24  1  0  0  0
  5  6  2  0  0  0
  5  8  1  0  0  0
 18 17  1  0  0  0
 18 19  1  0  0  0
 17 15  1  0  0  0
 19 24  1  0  0  0
 15 14  1  0  0  0
  1 14  1  0  0  0
  1  6  1  0  0  0
 10  7  1  0  0  0
 12  8  1  0  0  0
  7  8  2  0  0  0
 15 16  1  0  0  0
  1  2  1  0  0  0
M  END
> <minimizedAffinity>
-5.01109

$$$$
3PB7_PBD_X_390


 24 25  0  0  0  0  0  0  0  0999 V2000
    3.1733   50.2068   18.4592 N   0  0  0  0  0  0  0  0  0  0  0  0
    3.1146   51.1606   18.2222 H   0  0  0  0  0  0  0  0  0  0  0  0
    1.5792   48.4176   18.7959 C   0  0  0  0  0  0  0  0  0  0  0  0
    0.4703   47.9336   19.5472 C   0  0  0  0  0  0  0  0  0  0  0  0
    1.6154   50.4548   20.1696 C   0  0  0  0  0  0  0  0  0  0  0  0
    2.1152   49.6809   19.1276 C   0  0  0  0  0  0  0  0  0  0  0  0
   -0.0418   48.7287   20.6115 C   0  0  0  0  0  0  0  0  0  0  0  0
    0.4919   50.0065   20.8595 C   0  0  0  0  0  0  0  0  0  0  0  0
   -2.4740   48.6900   20.7174 C   0  0  0  0  0  0  0  0  0  0  0  0
   -1.1801   48.4136   21.3693 O   0  0  0  0  0  0  0  0  0  0  0  0
    0.0593   52.2042   21.8830 C   0  0  0  0  0  0  0  0  0  0  0  0
   -0.0388   50.7492   21.9157 O   0  0  0  0  0  0  0  0  0  0  0  0
    4.3994   48.8330   16.5103 S   0  0  0  0  0  0  0  0  0  0  0  0
    4.2798   49.5697   18.0912 C   0  0  0  0  0  0  0  0  0  0  0  0
    5.2636   49.5062   18.9524 N   0  0  0  0  0  0  0  0  0  0  0  0
    5.0927   49.0703   19.8185 H   0  0  0  0  0  0  0  0  0  0  0  0
    6.6161   50.0498   18.7030 C   0  0  0  0  0  0  0  0  0  0  0  0
    7.4923   49.5238   19.7980 C   0  0  0  0  0  0  0  0  0  0  0  0
    7.2001   50.2079   21.0935 C   0  0  0  0  0  0  0  0  0  0  0  0
    9.1067   49.0147   23.9245 C   0  0  0  0  0  0  0  0  0  0  0  0
    8.7021   50.0231   23.1325 C   0  0  0  0  0  0  0  0  0  0  0  0
    7.8756   48.1973   22.3496 C   0  0  0  0  0  0  0  0  0  0  0  0
    8.6614   47.8535   23.3999 N   0  0  0  0  0  0  0  0  0  0  0  0
    7.8982   49.5251   22.2101 N   0  0  0  0  0  0  0  0  0  0  0  0
  9 10  1  0  0  0
 11 12  1  0  0  0
 13 14  2  0  0  0
 20 21  2  0  0  0
 20 23  1  0  0  0
  3  4  2  0  0  0
  3  6  1  0  0  0
  4  7  1  0  0  0
 21 24  1  0  0  0
 22 23  2  0  0  0
 22 24  1  0  0  0
  5  6  2  0  0  0
  5  8  1  0  0  0
 18 17  1  0  0  0
 18 19  1  0  0  0
 17 15  1  0  0  0
 19 24  1  0  0  0
 15 14  1  0  0  0
  1 14  1  0  0  0
  1  6  1  0  0  0
 10  7  1  0  0  0
 12  8  1  0  0  0
  7  8  2  0  0  0
 15 16  1  0  0  0
  1  2  1  0  0  0
M  END
> <minimizedAffinity>
-4.85327

$$$$
