1K21_IGN_H_999
  RCSB PDB12061703023D
Coordinates from PDB:1K21:H:999 Model:1 without hydrogens
 31 32  0  0  0  0            999 V2000
   16.1560  -11.6220   20.2070   C 0  0  0  0  0  0  0  0  0  0  0  0
   15.4510  -12.5640   19.8270   O 0  0  0  0  0  0  0  0  0  0  0  0
   15.6340  -10.3970   20.3990   N 0  0  0  0  0  0  0  0  0  0  0  0
   14.2220  -10.0260   20.1930   C 0  0  0  0  0  0  0  0  0  0  0  0
   13.4950   -9.7650   21.5200   C 0  0  0  0  0  0  0  0  0  0  0  0
   12.0090  -10.0930   21.4210   C 0  0  0  0  0  0  0  0  0  0  0  0
   11.6090  -11.1220   22.3900   N 0  0  0  0  0  0  0  0  0  0  0  0
   11.0030  -10.8830   23.6710   C 0  0  0  0  0  0  0  0  0  0  0  0
   10.6870  -11.9160   24.4420   N 0  0  0  0  0  0  0  0  0  0  0  0
   10.7580   -9.6370   24.0780   N 0  0  0  0  0  0  0  0  0  0  0  0
   17.9500  -13.2540   21.0630   N 0  0  0  0  0  0  0  0  0  0  0  0
   17.6790  -11.8530   20.4870   C 0  0  0  0  0  0  0  0  0  0  0  0
   18.4230  -11.6090   19.1400   C 0  0  0  0  0  0  0  0  0  0  0  0
   19.8990  -12.0490   19.1810   C 0  0  0  0  0  0  0  0  0  0  0  0
   20.0010  -13.5800   19.4210   C 0  0  0  0  0  0  0  0  0  0  0  0
   18.8870  -14.1930   20.3230   C 0  0  0  0  0  0  0  0  0  0  0  0
   16.5740  -12.9000   22.8600   O 0  0  0  0  0  0  0  0  0  0  0  0
   17.3450  -13.6610   22.2510   C 0  0  0  0  0  0  0  0  0  0  0  0
   17.5520  -15.0700   22.9300   C 0  0  0  0  0  0  0  0  0  0  0  0
   17.9260  -15.0000   24.4670   C 0  0  0  0  0  0  0  0  0  0  0  0
   20.4370  -14.8210   23.5540   C 0  0  0  0  0  0  0  0  0  0  0  0
   19.4520  -14.7400   24.8050   C 0  0  0  0  0  0  0  0  0  0  0  0
   19.7200  -13.3720   25.5260   C 0  0  0  0  0  0  0  0  0  0  0  0
   21.2120  -13.2650   25.9910   C 0  0  0  0  0  0  0  0  0  0  0  0
   22.1600  -13.3700   24.7530   C 0  0  0  0  0  0  0  0  0  0  0  0
   21.9280  -14.7230   24.0130   C 0  0  0  0  0  0  0  0  0  0  0  0
   16.2730  -15.8300   22.8380   N 0  0  0  0  0  0  0  0  0  0  0  0
   15.6600  -16.2720   21.5460   C 0  0  0  0  0  0  0  0  0  0  0  0
   14.2430  -16.7860   21.7690   C 0  0  0  0  0  0  0  0  0  0  0  0
   13.8040  -16.9480   22.9320   O 0  0  0  0  0  0  0  0  0  0  0  0
   13.5190  -17.0470   20.7800   O 0  0  0  0  0  0  0  0  0  0  0  0
  1  2  2  0  0  0  0
  1  3  1  0  0  0  0
  1 12  1  0  0  0  0
  3  4  1  0  0  0  0
  4  5  1  0  0  0  0
  5  6  1  0  0  0  0
  6  7  1  0  0  0  0
  7  8  1  0  0  0  0
  8  9  2  0  0  0  0
  8 10  1  0  0  0  0
 11 12  1  0  0  0  0
 11 16  1  0  0  0  0
 11 18  1  0  0  0  0
 12 13  1  0  0  0  0
 13 14  1  0  0  0  0
 14 15  1  0  0  0  0
 15 16  1  0  0  0  0
 17 18  2  0  0  0  0
 18 19  1  0  0  0  0
 19 20  1  0  0  0  0
 19 27  1  0  0  0  0
 20 22  1  0  0  0  0
 21 22  1  0  0  0  0
 21 26  1  0  0  0  0
 22 23  1  0  0  0  0
 23 24  1  0  0  0  0
 24 25  1  0  0  0  0
 25 26  1  0  0  0  0
 27 28  1  0  0  0  0
 28 29  1  0  0  0  0
 29 30  2  0  0  0  0
 29 31  1  0  0  0  0
A    1
C1
A    2
O2
A    3
N3
A    4
C4
A    5
C5
A    6
C6
A    7
N7
A    8
C8
A    9
N9
A   10
N10
A   11
N11
A   12
C12
A   13
C13
A   14
C14
A   15
C15
A   16
C16
A   17
O31
A   18
C32
A   19
C33
A   20
C34
A   21
C51
A   22
C52
A   23
C53
A   24
C54
A   25
C55
A   26
C56
A   27
N21
A   28
C22
A   29
C23
A   30
O24
A   31
O25
M  END
>  <InstanceId>
1K21_IGN_H_999

>  <ChemCompId>
IGN

>  <PdbId>
1K21

>  <ChainId>
H

>  <ResidueNumber>
999

>  <InsertionCode>


>  <Model>
1

>  <AltIds>


>  <MissingHeavyAtoms>
0

>  <ObservedFormula>
C21 N6 O4

>  <Name>
{[(1R)-2-((2S)-2-{[(3-{[AMINO(IMINO)METHYL]AMINO}PROPYL)AMINO]CARBONYL}PIPERIDINYL)-1-(CYCLOHEXYLMETHYL)-2-OXOETHYL]AMINO}ACETIC ACID

>  <SystematicName>
2-[[(2R)-1-[(2S)-2-(3-carbamimidamidopropylcarbamoyl)piperidin-1-yl]-3-cyclohexyl-1-oxo-propan-2-yl]amino]ethanoic acid

>  <Synonyms>
INOGATRAN (ASTRA-ZENECA)

>  <Type>
NON-POLYMER

>  <Formula>
C21 H38 N6 O4

>  <MolecularWeight>
438.564

>  <ModifiedDate>
2011-06-04

>  <Parent>


>  <OneLetterCode>


>  <SubcomponentList>


>  <AmbiguousFlag>
N

>  <InChI>
InChI=1S/C21H38N6O4/c22-21(23)25-11-6-10-24-19(30)17-9-4-5-12-27(17)20(31)16(26-14-18(28)29)13-15-7-2-1-3-8-15/h15-17,26H,1-14H2,(H,24,30)(H,28,29)(H4,22,23,25)/t16-,17+/m1/s1

>  <InChIKey>
CDPROXZBMHOBTQ-SJORKVTESA-N

>  <SMILES>
C1CCC(CC1)C[C@H](C(=O)N2CCCC[C@H]2C(=O)NCCCNC(=N)N)NCC(=O)O

$$$$
