1K21_IGN_H_999


 38 39  0  0  0  0  0  0  0  0999 V2000
   17.8251  -13.3402   20.8461 N   0  0  0  0  0  0  0  0  0  0  0  0
   17.4442  -12.0542   20.0915 C   0  0  0  0  0  0  0  0  0  0  0  0
   18.3041  -11.8388   18.8103 C   0  0  0  0  0  0  0  0  0  0  0  0
   19.8095  -12.0590   19.0536 C   0  0  0  0  0  0  0  0  0  0  0  0
   20.0807  -13.5295   19.4730 C   0  0  0  0  0  0  0  0  0  0  0  0
   18.9571  -14.2040   20.3174 C   0  0  0  0  0  0  0  0  0  0  0  0
   16.2119  -13.0124   22.4392 O   0  0  0  0  0  0  0  0  0  0  0  0
   17.1419  -13.7118   22.0029 C   0  0  0  0  0  0  0  0  0  0  0  0
   15.9480  -12.0698   19.6307 C   0  0  0  0  0  0  0  0  0  0  0  0
   15.5322  -12.9947   18.9233 O   0  0  0  0  0  0  0  0  0  0  0  0
   15.1313  -11.0765   20.0262 N   0  0  0  0  0  0  0  0  0  0  0  0
   15.5215  -10.3691   20.5887 H   0  0  0  0  0  0  0  0  0  0  0  0
   13.7010  -10.9581   19.6882 C   0  0  0  0  0  0  0  0  0  0  0  0
   13.0150   -9.8297   20.4716 C   0  0  0  0  0  0  0  0  0  0  0  0
   13.1952   -9.9996   21.9763 C   0  0  0  0  0  0  0  0  0  0  0  0
   11.9412  -10.3821   22.6389 N   0  0  0  0  0  0  0  0  0  0  0  0
   11.3330   -9.6536   22.9009 H   0  0  0  0  0  0  0  0  0  0  0  0
   11.5219  -11.7235   22.9391 C   0  0  0  0  0  0  0  0  0  0  0  0
   10.4091  -11.9145   23.6366 N   0  0  0  0  0  0  0  0  0  0  0  0
   12.2455  -12.7639   22.5242 N   0  0  0  0  0  0  0  0  0  0  0  0
    9.8795  -11.1419   23.9399 H   0  0  0  0  0  0  0  0  0  0  0  0
   13.0700  -12.6152   22.0072 H   0  0  0  0  0  0  0  0  0  0  0  0
   11.9552  -13.6807   22.7350 H   0  0  0  0  0  0  0  0  0  0  0  0
   17.4487  -15.0047   22.8534 C   0  0  0  0  0  0  0  0  0  0  0  0
   16.1985  -15.8102   22.9542 N   0  0  0  0  0  0  0  0  0  0  0  0
   15.5123  -15.2029   23.4023 H   0  0  0  0  0  0  0  0  0  0  0  0
   15.5009  -16.4130   21.7751 C   0  0  0  0  0  0  0  0  0  0  0  0
   14.1249  -15.7869   21.5841 C   0  0  0  0  0  0  0  0  0  0  0  0
   13.1014  -16.3609   22.0253 O   0  0  0  0  0  0  0  0  0  0  0  0
   14.0235  -14.6931   20.9810 O   0  0  0  0  0  0  0  0  0  0  0  0
   14.7903  -14.2665   20.6523 H   0  0  0  0  0  0  0  0  0  0  0  0
   17.9158  -14.7086   24.3371 C   0  0  0  0  0  0  0  0  0  0  0  0
   19.7371  -13.6619   25.9978 C   0  0  0  0  0  0  0  0  0  0  0  0
   19.2296  -13.8374   24.4967 C   0  0  0  0  0  0  0  0  0  0  0  0
   20.4438  -14.3557   23.6480 C   0  0  0  0  0  0  0  0  0  0  0  0
   21.6430  -13.3497   23.7107 C   0  0  0  0  0  0  0  0  0  0  0  0
   22.1089  -13.1748   25.1921 C   0  0  0  0  0  0  0  0  0  0  0  0
   20.9286  -12.6526   26.0675 C   0  0  0  0  0  0  0  0  0  0  0  0
  9 10  2  0  0  0
  9 11  1  0  0  0
  9  2  1  0  0  0
 11 13  1  0  0  0
 13 14  1  0  0  0
 14 15  1  0  0  0
 15 16  1  0  0  0
 16 18  1  0  0  0
 18 19  2  0  0  0
 18 20  1  0  0  0
  1  2  1  0  0  0
  1  6  1  0  0  0
  1  8  1  0  0  0
  2  3  1  0  0  0
  3  4  1  0  0  0
  4  5  1  0  0  0
  5  6  1  0  0  0
  7  8  2  0  0  0
  8 24  1  0  0  0
 24 32  1  0  0  0
 24 25  1  0  0  0
 32 34  1  0  0  0
 33 34  1  0  0  0
 33 38  1  0  0  0
 34 35  1  0  0  0
 35 36  1  0  0  0
 36 37  1  0  0  0
 37 38  1  0  0  0
 25 27  1  0  0  0
 27 28  1  0  0  0
 28 29  2  0  0  0
 28 30  1  0  0  0
 11 12  1  0  0  0
 16 17  1  0  0  0
 19 21  1  0  0  0
 20 22  1  0  0  0
 20 23  1  0  0  0
 25 26  1  0  0  0
 30 31  1  0  0  0
M  END
> <minimizedAffinity>
-8.49379

$$$$
1K21_IGN_H_999


 38 39  0  0  0  0  0  0  0  0999 V2000
   17.8115  -13.2734   20.7270 N   0  0  0  0  0  0  0  0  0  0  0  0
   17.4270  -12.0131   19.9322 C   0  0  0  0  0  0  0  0  0  0  0  0
   18.3038  -11.8219   18.6586 C   0  0  0  0  0  0  0  0  0  0  0  0
   19.8078  -12.0169   18.9302 C   0  0  0  0  0  0  0  0  0  0  0  0
   20.0900  -13.4721   19.3935 C   0  0  0  0  0  0  0  0  0  0  0  0
   18.9617  -14.1373   20.2391 C   0  0  0  0  0  0  0  0  0  0  0  0
   16.1705  -12.9226   22.2864 O   0  0  0  0  0  0  0  0  0  0  0  0
   17.1153  -13.6220   21.8832 C   0  0  0  0  0  0  0  0  0  0  0  0
   15.9383  -12.0594   19.4496 C   0  0  0  0  0  0  0  0  0  0  0  0
   15.5898  -12.8982   18.6107 O   0  0  0  0  0  0  0  0  0  0  0  0
   15.0546  -11.1885   19.9697 N   0  0  0  0  0  0  0  0  0  0  0  0
   15.3931  -10.5454   20.6339 H   0  0  0  0  0  0  0  0  0  0  0  0
   13.6219  -11.1159   19.6290 C   0  0  0  0  0  0  0  0  0  0  0  0
   12.7555  -10.7753   20.8500 C   0  0  0  0  0  0  0  0  0  0  0  0
   12.4830  -12.0067   21.7073 C   0  0  0  0  0  0  0  0  0  0  0  0
   12.4998  -13.2423   20.9130 N   0  0  0  0  0  0  0  0  0  0  0  0
   11.9915  -13.2395   20.0699 H   0  0  0  0  0  0  0  0  0  0  0  0
   13.1912  -14.4548   21.2554 C   0  0  0  0  0  0  0  0  0  0  0  0
   12.8208  -15.1295   22.3365 N   0  0  0  0  0  0  0  0  0  0  0  0
   14.1958  -14.8942   20.4966 N   0  0  0  0  0  0  0  0  0  0  0  0
   12.0782  -14.7995   22.8924 H   0  0  0  0  0  0  0  0  0  0  0  0
   14.4655  -14.3889   19.6959 H   0  0  0  0  0  0  0  0  0  0  0  0
   14.6679  -15.7240   20.7372 H   0  0  0  0  0  0  0  0  0  0  0  0
   17.4243  -14.8877   22.7731 C   0  0  0  0  0  0  0  0  0  0  0  0
   16.1877  -15.7154   22.8608 N   0  0  0  0  0  0  0  0  0  0  0  0
   15.5529  -15.3420   22.1552 H   0  0  0  0  0  0  0  0  0  0  0  0
   16.1678  -17.2013   22.6814 C   0  0  0  0  0  0  0  0  0  0  0  0
   14.9920  -17.8193   23.4279 C   0  0  0  0  0  0  0  0  0  0  0  0
   13.8352  -17.7579   22.9488 O   0  0  0  0  0  0  0  0  0  0  0  0
   15.1898  -18.3892   24.5263 O   0  0  0  0  0  0  0  0  0  0  0  0
   16.0556  -18.4335   24.8819 H   0  0  0  0  0  0  0  0  0  0  0  0
   17.8458  -14.5466   24.2607 C   0  0  0  0  0  0  0  0  0  0  0  0
   19.7198  -13.6358   25.9427 C   0  0  0  0  0  0  0  0  0  0  0  0
   19.2044  -13.7508   24.4384 C   0  0  0  0  0  0  0  0  0  0  0  0
   20.3894  -14.3147   23.5777 C   0  0  0  0  0  0  0  0  0  0  0  0
   21.6408  -13.3762   23.6616 C   0  0  0  0  0  0  0  0  0  0  0  0
   22.1147  -13.2591   25.1462 C   0  0  0  0  0  0  0  0  0  0  0  0
   20.9638  -12.6936   26.0337 C   0  0  0  0  0  0  0  0  0  0  0  0
  9 10  2  0  0  0
  9 11  1  0  0  0
  9  2  1  0  0  0
 11 13  1  0  0  0
 13 14  1  0  0  0
 14 15  1  0  0  0
 15 16  1  0  0  0
 16 18  1  0  0  0
 18 19  2  0  0  0
 18 20  1  0  0  0
  1  2  1  0  0  0
  1  6  1  0  0  0
  1  8  1  0  0  0
  2  3  1  0  0  0
  3  4  1  0  0  0
  4  5  1  0  0  0
  5  6  1  0  0  0
  7  8  2  0  0  0
  8 24  1  0  0  0
 24 32  1  0  0  0
 24 25  1  0  0  0
 32 34  1  0  0  0
 33 34  1  0  0  0
 33 38  1  0  0  0
 34 35  1  0  0  0
 35 36  1  0  0  0
 36 37  1  0  0  0
 37 38  1  0  0  0
 25 27  1  0  0  0
 27 28  1  0  0  0
 28 29  2  0  0  0
 28 30  1  0  0  0
 11 12  1  0  0  0
 16 17  1  0  0  0
 19 21  1  0  0  0
 20 22  1  0  0  0
 20 23  1  0  0  0
 25 26  1  0  0  0
 30 31  1  0  0  0
M  END
> <minimizedAffinity>
-8.10102

$$$$
1K21_IGN_H_999


 38 39  0  0  0  0  0  0  0  0999 V2000
   17.8616  -13.2628   20.7680 N   0  0  0  0  0  0  0  0  0  0  0  0
   17.5013  -12.0108   19.9491 C   0  0  0  0  0  0  0  0  0  0  0  0
   18.3683  -11.8714   18.6621 C   0  0  0  0  0  0  0  0  0  0  0  0
   19.8696  -12.1002   18.9218 C   0  0  0  0  0  0  0  0  0  0  0  0
   20.1187  -13.5517   19.4148 C   0  0  0  0  0  0  0  0  0  0  0  0
   18.9831  -14.1676   20.2873 C   0  0  0  0  0  0  0  0  0  0  0  0
   16.2483  -12.8339   22.3368 O   0  0  0  0  0  0  0  0  0  0  0  0
   17.1697  -13.5669   21.9393 C   0  0  0  0  0  0  0  0  0  0  0  0
   16.0065  -12.0284   19.4839 C   0  0  0  0  0  0  0  0  0  0  0  0
   15.6163  -12.9030   18.7018 O   0  0  0  0  0  0  0  0  0  0  0  0
   15.1631  -11.0930   19.9569 N   0  0  0  0  0  0  0  0  0  0  0  0
   15.5337  -10.4240   20.5767 H   0  0  0  0  0  0  0  0  0  0  0  0
   13.7305  -10.9855   19.6253 C   0  0  0  0  0  0  0  0  0  0  0  0
   13.0493   -9.8339   20.3785 C   0  0  0  0  0  0  0  0  0  0  0  0
   13.1120  -10.0349   21.8889 C   0  0  0  0  0  0  0  0  0  0  0  0
   11.8170  -10.4551   22.4402 N   0  0  0  0  0  0  0  0  0  0  0  0
   11.1105   -9.7716   22.4947 H   0  0  0  0  0  0  0  0  0  0  0  0
   11.4880  -11.7738   22.9073 C   0  0  0  0  0  0  0  0  0  0  0  0
   10.4561  -11.9331   23.7266 N   0  0  0  0  0  0  0  0  0  0  0  0
   12.2142  -12.8245   22.5242 N   0  0  0  0  0  0  0  0  0  0  0  0
    9.9240  -11.1531   24.0056 H   0  0  0  0  0  0  0  0  0  0  0  0
   12.9784  -12.6993   21.9163 H   0  0  0  0  0  0  0  0  0  0  0  0
   11.9862  -13.7254   22.8493 H   0  0  0  0  0  0  0  0  0  0  0  0
   17.4555  -14.8201   22.8542 C   0  0  0  0  0  0  0  0  0  0  0  0
   16.2348  -15.6753   22.8769 N   0  0  0  0  0  0  0  0  0  0  0  0
   15.5598  -15.2121   22.2684 H   0  0  0  0  0  0  0  0  0  0  0  0
   16.2227  -17.1173   22.4759 C   0  0  0  0  0  0  0  0  0  0  0  0
   16.9689  -17.9676   23.4966 C   0  0  0  0  0  0  0  0  0  0  0  0
   16.5635  -18.0362   24.6809 O   0  0  0  0  0  0  0  0  0  0  0  0
   17.9928  -18.5978   23.1434 O   0  0  0  0  0  0  0  0  0  0  0  0
   18.2934  -18.5446   22.2575 H   0  0  0  0  0  0  0  0  0  0  0  0
   17.7834  -14.4611   24.3610 C   0  0  0  0  0  0  0  0  0  0  0  0
   19.6755  -13.7752   26.1274 C   0  0  0  0  0  0  0  0  0  0  0  0
   19.1586  -13.7181   24.6203 C   0  0  0  0  0  0  0  0  0  0  0  0
   20.3318  -14.2121   23.7024 C   0  0  0  0  0  0  0  0  0  0  0  0
   21.6030  -13.3149   23.8838 C   0  0  0  0  0  0  0  0  0  0  0  0
   22.0784  -13.3670   25.3717 C   0  0  0  0  0  0  0  0  0  0  0  0
   20.9393  -12.8749   26.3163 C   0  0  0  0  0  0  0  0  0  0  0  0
  9 10  2  0  0  0
  9 11  1  0  0  0
  9  2  1  0  0  0
 11 13  1  0  0  0
 13 14  1  0  0  0
 14 15  1  0  0  0
 15 16  1  0  0  0
 16 18  1  0  0  0
 18 19  2  0  0  0
 18 20  1  0  0  0
  1  2  1  0  0  0
  1  6  1  0  0  0
  1  8  1  0  0  0
  2  3  1  0  0  0
  3  4  1  0  0  0
  4  5  1  0  0  0
  5  6  1  0  0  0
  7  8  2  0  0  0
  8 24  1  0  0  0
 24 32  1  0  0  0
 24 25  1  0  0  0
 32 34  1  0  0  0
 33 34  1  0  0  0
 33 38  1  0  0  0
 34 35  1  0  0  0
 35 36  1  0  0  0
 36 37  1  0  0  0
 37 38  1  0  0  0
 25 27  1  0  0  0
 27 28  1  0  0  0
 28 29  2  0  0  0
 28 30  1  0  0  0
 11 12  1  0  0  0
 16 17  1  0  0  0
 19 21  1  0  0  0
 20 22  1  0  0  0
 20 23  1  0  0  0
 25 26  1  0  0  0
 30 31  1  0  0  0
M  END
> <minimizedAffinity>
-7.61398

$$$$
1K21_IGN_H_999


 38 39  0  0  0  0  0  0  0  0999 V2000
   16.6292  -16.2989   22.6936 N   0  0  0  0  0  0  0  0  0  0  0  0
   15.8824  -17.4488   21.9949 C   0  0  0  0  0  0  0  0  0  0  0  0
   15.7704  -18.7178   22.8918 C   0  0  0  0  0  0  0  0  0  0  0  0
   17.1011  -19.0912   23.5727 C   0  0  0  0  0  0  0  0  0  0  0  0
   17.5519  -17.9602   24.5368 C   0  0  0  0  0  0  0  0  0  0  0  0
   17.1802  -16.5128   24.0929 C   0  0  0  0  0  0  0  0  0  0  0  0
   16.3496  -14.8889   20.9099 O   0  0  0  0  0  0  0  0  0  0  0  0
   16.8011  -15.0729   22.0530 C   0  0  0  0  0  0  0  0  0  0  0  0
   14.4211  -17.0437   21.6054 C   0  0  0  0  0  0  0  0  0  0  0  0
   13.6008  -16.7753   22.4909 O   0  0  0  0  0  0  0  0  0  0  0  0
   14.0842  -16.9811   20.3044 N   0  0  0  0  0  0  0  0  0  0  0  0
   14.7816  -17.2060   19.6469 H   0  0  0  0  0  0  0  0  0  0  0  0
   12.7587  -16.6041   19.7803 C   0  0  0  0  0  0  0  0  0  0  0  0
   12.8563  -15.5412   18.6764 C   0  0  0  0  0  0  0  0  0  0  0  0
   13.6824  -14.3400   19.1239 C   0  0  0  0  0  0  0  0  0  0  0  0
   12.9399  -13.4802   20.0551 N   0  0  0  0  0  0  0  0  0  0  0  0
   12.2166  -12.9299   19.6765 H   0  0  0  0  0  0  0  0  0  0  0  0
   13.1737  -13.3696   21.4687 C   0  0  0  0  0  0  0  0  0  0  0  0
   14.1688  -12.6070   21.9039 N   0  0  0  0  0  0  0  0  0  0  0  0
   12.4011  -14.0293   22.3326 N   0  0  0  0  0  0  0  0  0  0  0  0
   14.7354  -12.1226   21.2608 H   0  0  0  0  0  0  0  0  0  0  0  0
   11.6646  -14.5933   22.0030 H   0  0  0  0  0  0  0  0  0  0  0  0
   12.5673  -13.9522   23.2999 H   0  0  0  0  0  0  0  0  0  0  0  0
   17.5488  -13.8299   22.6737 C   0  0  0  0  0  0  0  0  0  0  0  0
   17.0804  -12.6002   21.9734 N   0  0  0  0  0  0  0  0  0  0  0  0
   16.8274  -11.9409   22.7094 H   0  0  0  0  0  0  0  0  0  0  0  0
   17.9173  -11.8265   21.0032 C   0  0  0  0  0  0  0  0  0  0  0  0
   17.0723  -11.3338   19.8348 C   0  0  0  0  0  0  0  0  0  0  0  0
   17.0735  -11.9554   18.7461 O   0  0  0  0  0  0  0  0  0  0  0  0
   16.3760  -10.3007   19.9699 O   0  0  0  0  0  0  0  0  0  0  0  0
   16.3771   -9.8382   20.7848 H   0  0  0  0  0  0  0  0  0  0  0  0
   19.1230  -13.8717   22.5083 C   0  0  0  0  0  0  0  0  0  0  0  0
   19.4327  -13.8792   25.1681 C   0  0  0  0  0  0  0  0  0  0  0  0
   19.9710  -13.3797   23.7530 C   0  0  0  0  0  0  0  0  0  0  0  0
   21.4938  -13.7504   23.6722 C   0  0  0  0  0  0  0  0  0  0  0  0
   22.2980  -13.0787   24.8366 C   0  0  0  0  0  0  0  0  0  0  0  0
   21.7393  -13.5638   26.2131 C   0  0  0  0  0  0  0  0  0  0  0  0
   20.2263  -13.2056   26.3342 C   0  0  0  0  0  0  0  0  0  0  0  0
  9 10  2  0  0  0
  9 11  1  0  0  0
  9  2  1  0  0  0
 11 13  1  0  0  0
 13 14  1  0  0  0
 14 15  1  0  0  0
 15 16  1  0  0  0
 16 18  1  0  0  0
 18 19  2  0  0  0
 18 20  1  0  0  0
  1  2  1  0  0  0
  1  6  1  0  0  0
  1  8  1  0  0  0
  2  3  1  0  0  0
  3  4  1  0  0  0
  4  5  1  0  0  0
  5  6  1  0  0  0
  7  8  2  0  0  0
  8 24  1  0  0  0
 24 32  1  0  0  0
 24 25  1  0  0  0
 32 34  1  0  0  0
 33 34  1  0  0  0
 33 38  1  0  0  0
 34 35  1  0  0  0
 35 36  1  0  0  0
 36 37  1  0  0  0
 37 38  1  0  0  0
 25 27  1  0  0  0
 27 28  1  0  0  0
 28 29  2  0  0  0
 28 30  1  0  0  0
 11 12  1  0  0  0
 16 17  1  0  0  0
 19 21  1  0  0  0
 20 22  1  0  0  0
 20 23  1  0  0  0
 25 26  1  0  0  0
 30 31  1  0  0  0
M  END
> <minimizedAffinity>
-7.23597

$$$$
1K21_IGN_H_999


 38 39  0  0  0  0  0  0  0  0999 V2000
   16.4816  -15.5029   21.8746 N   0  0  0  0  0  0  0  0  0  0  0  0
   15.3936  -16.2378   21.0720 C   0  0  0  0  0  0  0  0  0  0  0  0
   14.7295  -17.3891   21.8850 C   0  0  0  0  0  0  0  0  0  0  0  0
   15.7554  -18.2826   22.6084 C   0  0  0  0  0  0  0  0  0  0  0  0
   16.5462  -17.4570   23.6596 C   0  0  0  0  0  0  0  0  0  0  0  0
   16.8053  -15.9662   23.2845 C   0  0  0  0  0  0  0  0  0  0  0  0
   16.9038  -14.0361   20.1663 O   0  0  0  0  0  0  0  0  0  0  0  0
   17.1658  -14.4237   21.3177 C   0  0  0  0  0  0  0  0  0  0  0  0
   14.2401  -15.2737   20.6346 C   0  0  0  0  0  0  0  0  0  0  0  0
   13.9734  -15.1388   19.4348 O   0  0  0  0  0  0  0  0  0  0  0  0
   13.5450  -14.6144   21.5791 N   0  0  0  0  0  0  0  0  0  0  0  0
   13.8048  -14.7641   22.5169 H   0  0  0  0  0  0  0  0  0  0  0  0
   12.4270  -13.6865   21.3283 C   0  0  0  0  0  0  0  0  0  0  0  0
   12.5249  -12.4195   22.1902 C   0  0  0  0  0  0  0  0  0  0  0  0
   13.2740  -11.3047   21.4680 C   0  0  0  0  0  0  0  0  0  0  0  0
   14.6675  -11.6739   21.1859 N   0  0  0  0  0  0  0  0  0  0  0  0
   15.1578  -12.1474   21.8963 H   0  0  0  0  0  0  0  0  0  0  0  0
   15.3798  -11.4064   19.9668 C   0  0  0  0  0  0  0  0  0  0  0  0
   15.0498  -12.0674   18.8642 N   0  0  0  0  0  0  0  0  0  0  0  0
   16.3637  -10.5066   19.9454 N   0  0  0  0  0  0  0  0  0  0  0  0
   14.3224  -12.7304   18.8869 H   0  0  0  0  0  0  0  0  0  0  0  0
   16.6035  -10.0198   20.7668 H   0  0  0  0  0  0  0  0  0  0  0  0
   16.8503  -10.3291   19.1081 H   0  0  0  0  0  0  0  0  0  0  0  0
   18.2967  -13.6010   22.0480 C   0  0  0  0  0  0  0  0  0  0  0  0
   18.6971  -12.4664   21.1681 N   0  0  0  0  0  0  0  0  0  0  0  0
   18.8040  -11.6610   21.7848 H   0  0  0  0  0  0  0  0  0  0  0  0
   19.9156  -12.4786   20.2988 C   0  0  0  0  0  0  0  0  0  0  0  0
   19.5483  -12.1787   18.8507 C   0  0  0  0  0  0  0  0  0  0  0  0
   20.4448  -11.9533   18.0039 O   0  0  0  0  0  0  0  0  0  0  0  0
   18.3420  -12.1581   18.5121 O   0  0  0  0  0  0  0  0  0  0  0  0
   17.6741  -12.3270   19.1473 H   0  0  0  0  0  0  0  0  0  0  0  0
   19.6132  -14.4298   22.3430 C   0  0  0  0  0  0  0  0  0  0  0  0
   21.4849  -13.2434   23.8464 C   0  0  0  0  0  0  0  0  0  0  0  0
   20.2476  -14.2469   23.7834 C   0  0  0  0  0  0  0  0  0  0  0  0
   19.2191  -13.7937   24.8788 C   0  0  0  0  0  0  0  0  0  0  0  0
   19.8713  -13.8111   26.3030 C   0  0  0  0  0  0  0  0  0  0  0  0
   21.0947  -12.8393   26.3356 C   0  0  0  0  0  0  0  0  0  0  0  0
   22.1448  -13.2627   25.2632 C   0  0  0  0  0  0  0  0  0  0  0  0
  9 10  2  0  0  0
  9 11  1  0  0  0
  9  2  1  0  0  0
 11 13  1  0  0  0
 13 14  1  0  0  0
 14 15  1  0  0  0
 15 16  1  0  0  0
 16 18  1  0  0  0
 18 19  2  0  0  0
 18 20  1  0  0  0
  1  2  1  0  0  0
  1  6  1  0  0  0
  1  8  1  0  0  0
  2  3  1  0  0  0
  3  4  1  0  0  0
  4  5  1  0  0  0
  5  6  1  0  0  0
  7  8  2  0  0  0
  8 24  1  0  0  0
 24 32  1  0  0  0
 24 25  1  0  0  0
 32 34  1  0  0  0
 33 34  1  0  0  0
 33 38  1  0  0  0
 34 35  1  0  0  0
 35 36  1  0  0  0
 36 37  1  0  0  0
 37 38  1  0  0  0
 25 27  1  0  0  0
 27 28  1  0  0  0
 28 29  2  0  0  0
 28 30  1  0  0  0
 11 12  1  0  0  0
 16 17  1  0  0  0
 19 21  1  0  0  0
 20 22  1  0  0  0
 20 23  1  0  0  0
 25 26  1  0  0  0
 30 31  1  0  0  0
M  END
> <minimizedAffinity>
-7.09806

$$$$
1K21_IGN_H_999


 38 39  0  0  0  0  0  0  0  0999 V2000
   17.1154  -15.8743   22.6164 N   0  0  0  0  0  0  0  0  0  0  0  0
   16.1187  -17.0191   22.3629 C   0  0  0  0  0  0  0  0  0  0  0  0
   15.5490  -17.6160   23.6845 C   0  0  0  0  0  0  0  0  0  0  0  0
   16.6389  -17.8897   24.7386 C   0  0  0  0  0  0  0  0  0  0  0  0
   17.3259  -16.5634   25.1639 C   0  0  0  0  0  0  0  0  0  0  0  0
   17.4513  -15.4845   24.0456 C   0  0  0  0  0  0  0  0  0  0  0  0
   17.4337  -15.5104   20.3772 O   0  0  0  0  0  0  0  0  0  0  0  0
   17.7065  -15.2000   21.5492 C   0  0  0  0  0  0  0  0  0  0  0  0
   14.8891  -16.5454   21.5174 C   0  0  0  0  0  0  0  0  0  0  0  0
   14.6068  -17.1273   20.4636 O   0  0  0  0  0  0  0  0  0  0  0  0
   14.1474  -15.5148   21.9621 N   0  0  0  0  0  0  0  0  0  0  0  0
   14.4228  -15.0931   22.8080 H   0  0  0  0  0  0  0  0  0  0  0  0
   12.9569  -14.9635   21.2893 C   0  0  0  0  0  0  0  0  0  0  0  0
   13.3213  -13.8617   20.2839 C   0  0  0  0  0  0  0  0  0  0  0  0
   12.7143  -12.5190   20.6766 C   0  0  0  0  0  0  0  0  0  0  0  0
   13.5829  -11.3946   20.3038 N   0  0  0  0  0  0  0  0  0  0  0  0
   14.3792  -11.6038   19.7640 H   0  0  0  0  0  0  0  0  0  0  0  0
   13.3755  -10.0168   20.6558 C   0  0  0  0  0  0  0  0  0  0  0  0
   14.4136   -9.1902   20.6806 N   0  0  0  0  0  0  0  0  0  0  0  0
   12.1539   -9.5755   20.9576 N   0  0  0  0  0  0  0  0  0  0  0  0
   15.3129   -9.5225   20.4567 H   0  0  0  0  0  0  0  0  0  0  0  0
   11.3882  -10.1940   20.9373 H   0  0  0  0  0  0  0  0  0  0  0  0
   12.0177   -8.6313   21.2007 H   0  0  0  0  0  0  0  0  0  0  0  0
   18.7391  -14.0159   21.6935 C   0  0  0  0  0  0  0  0  0  0  0  0
   18.7540  -13.2454   20.4175 N   0  0  0  0  0  0  0  0  0  0  0  0
   18.0130  -13.6462   19.8424 H   0  0  0  0  0  0  0  0  0  0  0  0
   18.5722  -11.7617   20.3405 C   0  0  0  0  0  0  0  0  0  0  0  0
   17.0931  -11.4022   20.2705 C   0  0  0  0  0  0  0  0  0  0  0  0
   16.3280  -11.6813   21.2234 O   0  0  0  0  0  0  0  0  0  0  0  0
   16.6463  -10.8256   19.2515 O   0  0  0  0  0  0  0  0  0  0  0  0
   17.2207  -10.6182   18.5408 H   0  0  0  0  0  0  0  0  0  0  0  0
   20.2289  -14.4836   21.9558 C   0  0  0  0  0  0  0  0  0  0  0  0
   20.0382  -12.9396   24.1353 C   0  0  0  0  0  0  0  0  0  0  0  0
   20.8689  -14.0408   23.3360 C   0  0  0  0  0  0  0  0  0  0  0  0
   21.1414  -15.2310   24.3221 C   0  0  0  0  0  0  0  0  0  0  0  0
   21.9372  -14.7462   25.5812 C   0  0  0  0  0  0  0  0  0  0  0  0
   21.1160  -13.6517   26.3361 C   0  0  0  0  0  0  0  0  0  0  0  0
   20.8313  -12.4461   25.3887 C   0  0  0  0  0  0  0  0  0  0  0  0
  9 10  2  0  0  0
  9 11  1  0  0  0
  9  2  1  0  0  0
 11 13  1  0  0  0
 13 14  1  0  0  0
 14 15  1  0  0  0
 15 16  1  0  0  0
 16 18  1  0  0  0
 18 19  2  0  0  0
 18 20  1  0  0  0
  1  2  1  0  0  0
  1  6  1  0  0  0
  1  8  1  0  0  0
  2  3  1  0  0  0
  3  4  1  0  0  0
  4  5  1  0  0  0
  5  6  1  0  0  0
  7  8  2  0  0  0
  8 24  1  0  0  0
 24 32  1  0  0  0
 24 25  1  0  0  0
 32 34  1  0  0  0
 33 34  1  0  0  0
 33 38  1  0  0  0
 34 35  1  0  0  0
 35 36  1  0  0  0
 36 37  1  0  0  0
 37 38  1  0  0  0
 25 27  1  0  0  0
 27 28  1  0  0  0
 28 29  2  0  0  0
 28 30  1  0  0  0
 11 12  1  0  0  0
 16 17  1  0  0  0
 19 21  1  0  0  0
 20 22  1  0  0  0
 20 23  1  0  0  0
 25 26  1  0  0  0
 30 31  1  0  0  0
M  END
> <minimizedAffinity>
-6.85946

$$$$
1K21_IGN_H_999


 38 39  0  0  0  0  0  0  0  0999 V2000
   17.5540  -13.6391   20.7190 N   0  0  0  0  0  0  0  0  0  0  0  0
   18.9329  -14.2700   20.9814 C   0  0  0  0  0  0  0  0  0  0  0  0
   20.1033  -13.3733   20.4780 C   0  0  0  0  0  0  0  0  0  0  0  0
   19.8708  -12.8238   19.0575 C   0  0  0  0  0  0  0  0  0  0  0  0
   18.6221  -11.9008   19.0318 C   0  0  0  0  0  0  0  0  0  0  0  0
   17.4732  -12.2997   20.0072 C   0  0  0  0  0  0  0  0  0  0  0  0
   16.4473  -15.3806   21.7141 O   0  0  0  0  0  0  0  0  0  0  0  0
   16.3892  -14.2866   21.1275 C   0  0  0  0  0  0  0  0  0  0  0  0
   19.1805  -14.5167   22.5075 C   0  0  0  0  0  0  0  0  0  0  0  0
   19.4715  -15.6498   22.9078 O   0  0  0  0  0  0  0  0  0  0  0  0
   19.0851  -13.4816   23.3615 N   0  0  0  0  0  0  0  0  0  0  0  0
   18.8506  -12.6041   22.9817 H   0  0  0  0  0  0  0  0  0  0  0  0
   19.3021  -13.5505   24.8182 C   0  0  0  0  0  0  0  0  0  0  0  0
   20.5353  -12.7473   25.2560 C   0  0  0  0  0  0  0  0  0  0  0  0
   21.6143  -13.6499   25.8448 C   0  0  0  0  0  0  0  0  0  0  0  0
   22.8854  -13.5304   25.1183 N   0  0  0  0  0  0  0  0  0  0  0  0
   23.5568  -12.9133   25.4893 H   0  0  0  0  0  0  0  0  0  0  0  0
   23.2376  -14.2330   23.9151 C   0  0  0  0  0  0  0  0  0  0  0  0
   24.2960  -13.8372   23.2191 N   0  0  0  0  0  0  0  0  0  0  0  0
   22.5063  -15.2685   23.5015 N   0  0  0  0  0  0  0  0  0  0  0  0
   24.8316  -13.0720   23.5300 H   0  0  0  0  0  0  0  0  0  0  0  0
   21.7223  -15.5569   24.0225 H   0  0  0  0  0  0  0  0  0  0  0  0
   22.7503  -15.7446   22.6750 H   0  0  0  0  0  0  0  0  0  0  0  0
   14.9279  -13.7330   20.9098 C   0  0  0  0  0  0  0  0  0  0  0  0
   14.6855  -12.6415   21.8956 N   0  0  0  0  0  0  0  0  0  0  0  0
   15.5968  -12.2178   22.0703 H   0  0  0  0  0  0  0  0  0  0  0  0
   13.7448  -11.5016   21.6589 C   0  0  0  0  0  0  0  0  0  0  0  0
   14.2055  -10.6584   20.4763 C   0  0  0  0  0  0  0  0  0  0  0  0
   13.7001  -10.8291   19.3419 O   0  0  0  0  0  0  0  0  0  0  0  0
   15.0953   -9.7924   20.6460 O   0  0  0  0  0  0  0  0  0  0  0  0
   15.4712   -9.6671   21.4951 H   0  0  0  0  0  0  0  0  0  0  0  0
   13.7873  -14.8077   21.1366 C   0  0  0  0  0  0  0  0  0  0  0  0
   13.7957  -17.3258   20.2257 C   0  0  0  0  0  0  0  0  0  0  0  0
   13.4987  -15.7883   19.9260 C   0  0  0  0  0  0  0  0  0  0  0  0
   12.0361  -15.6932   19.3648 C   0  0  0  0  0  0  0  0  0  0  0  0
   11.8774  -16.5495   18.0628 C   0  0  0  0  0  0  0  0  0  0  0  0
   12.1954  -18.0477   18.3738 C   0  0  0  0  0  0  0  0  0  0  0  0
   13.6468  -18.1841   18.9278 C   0  0  0  0  0  0  0  0  0  0  0  0
  9 10  2  0  0  0
  9 11  1  0  0  0
  9  2  1  0  0  0
 11 13  1  0  0  0
 13 14  1  0  0  0
 14 15  1  0  0  0
 15 16  1  0  0  0
 16 18  1  0  0  0
 18 19  2  0  0  0
 18 20  1  0  0  0
  1  2  1  0  0  0
  1  6  1  0  0  0
  1  8  1  0  0  0
  2  3  1  0  0  0
  3  4  1  0  0  0
  4  5  1  0  0  0
  5  6  1  0  0  0
  7  8  2  0  0  0
  8 24  1  0  0  0
 24 32  1  0  0  0
 24 25  1  0  0  0
 32 34  1  0  0  0
 33 34  1  0  0  0
 33 38  1  0  0  0
 34 35  1  0  0  0
 35 36  1  0  0  0
 36 37  1  0  0  0
 37 38  1  0  0  0
 25 27  1  0  0  0
 27 28  1  0  0  0
 28 29  2  0  0  0
 28 30  1  0  0  0
 11 12  1  0  0  0
 16 17  1  0  0  0
 19 21  1  0  0  0
 20 22  1  0  0  0
 20 23  1  0  0  0
 25 26  1  0  0  0
 30 31  1  0  0  0
M  END
> <minimizedAffinity>
-6.71812

$$$$
1K21_IGN_H_999


 38 39  0  0  0  0  0  0  0  0999 V2000
   14.8131  -12.0623   21.4637 N   0  0  0  0  0  0  0  0  0  0  0  0
   13.4393  -12.7204   21.6816 C   0  0  0  0  0  0  0  0  0  0  0  0
   12.2602  -11.7307   21.4411 C   0  0  0  0  0  0  0  0  0  0  0  0
   12.4723  -10.3665   22.1251 C   0  0  0  0  0  0  0  0  0  0  0  0
   13.7186   -9.6527   21.5344 C   0  0  0  0  0  0  0  0  0  0  0  0
   14.8815  -10.5914   21.0906 C   0  0  0  0  0  0  0  0  0  0  0  0
   15.9369  -14.0085   21.9078 O   0  0  0  0  0  0  0  0  0  0  0  0
   15.9848  -12.8037   21.6068 C   0  0  0  0  0  0  0  0  0  0  0  0
   13.2129  -13.9317   20.7158 C   0  0  0  0  0  0  0  0  0  0  0  0
   12.4303  -14.8342   21.0346 O   0  0  0  0  0  0  0  0  0  0  0  0
   13.8683  -13.9632   19.5413 N   0  0  0  0  0  0  0  0  0  0  0  0
   14.4774  -13.2151   19.3448 H   0  0  0  0  0  0  0  0  0  0  0  0
   13.7514  -15.0237   18.5237 C   0  0  0  0  0  0  0  0  0  0  0  0
   14.7946  -16.1324   18.7240 C   0  0  0  0  0  0  0  0  0  0  0  0
   14.1973  -17.3458   19.4286 C   0  0  0  0  0  0  0  0  0  0  0  0
   12.9300  -17.7665   18.8162 N   0  0  0  0  0  0  0  0  0  0  0  0
   12.9346  -17.9308   17.8455 H   0  0  0  0  0  0  0  0  0  0  0  0
   11.6842  -17.9601   19.5060 C   0  0  0  0  0  0  0  0  0  0  0  0
   11.6363  -17.7835   20.8205 N   0  0  0  0  0  0  0  0  0  0  0  0
   10.5900  -18.3167   18.8324 N   0  0  0  0  0  0  0  0  0  0  0  0
   12.4478  -17.5202   21.3117 H   0  0  0  0  0  0  0  0  0  0  0  0
   10.6325  -18.4460   17.8574 H   0  0  0  0  0  0  0  0  0  0  0  0
    9.7397  -18.4506   19.3102 H   0  0  0  0  0  0  0  0  0  0  0  0
   17.4418  -12.2319   21.4085 C   0  0  0  0  0  0  0  0  0  0  0  0
   17.5985  -11.8247   19.9832 N   0  0  0  0  0  0  0  0  0  0  0  0
   18.5994  -11.6888   19.8416 H   0  0  0  0  0  0  0  0  0  0  0  0
   17.1319  -12.6521   18.8264 C   0  0  0  0  0  0  0  0  0  0  0  0
   16.3567  -11.7985   17.8303 C   0  0  0  0  0  0  0  0  0  0  0  0
   16.9638  -11.1454   16.9492 O   0  0  0  0  0  0  0  0  0  0  0  0
   15.1063  -11.7531   17.8991 O   0  0  0  0  0  0  0  0  0  0  0  0
   14.6553  -12.2423   18.5588 H   0  0  0  0  0  0  0  0  0  0  0  0
   18.5940  -13.2757   21.7091 C   0  0  0  0  0  0  0  0  0  0  0  0
   18.6189  -14.2806   24.1911 C   0  0  0  0  0  0  0  0  0  0  0  0
   19.2239  -13.2238   23.1621 C   0  0  0  0  0  0  0  0  0  0  0  0
   20.7847  -13.3864   23.1851 C   0  0  0  0  0  0  0  0  0  0  0  0
   21.3536  -13.1428   24.6242 C   0  0  0  0  0  0  0  0  0  0  0  0
   20.7304  -14.1735   25.6200 C   0  0  0  0  0  0  0  0  0  0  0  0
   19.1769  -14.0370   25.6308 C   0  0  0  0  0  0  0  0  0  0  0  0
  9 10  2  0  0  0
  9 11  1  0  0  0
  9  2  1  0  0  0
 11 13  1  0  0  0
 13 14  1  0  0  0
 14 15  1  0  0  0
 15 16  1  0  0  0
 16 18  1  0  0  0
 18 19  2  0  0  0
 18 20  1  0  0  0
  1  2  1  0  0  0
  1  6  1  0  0  0
  1  8  1  0  0  0
  2  3  1  0  0  0
  3  4  1  0  0  0
  4  5  1  0  0  0
  5  6  1  0  0  0
  7  8  2  0  0  0
  8 24  1  0  0  0
 24 32  1  0  0  0
 24 25  1  0  0  0
 32 34  1  0  0  0
 33 34  1  0  0  0
 33 38  1  0  0  0
 34 35  1  0  0  0
 35 36  1  0  0  0
 36 37  1  0  0  0
 37 38  1  0  0  0
 25 27  1  0  0  0
 27 28  1  0  0  0
 28 29  2  0  0  0
 28 30  1  0  0  0
 11 12  1  0  0  0
 16 17  1  0  0  0
 19 21  1  0  0  0
 20 22  1  0  0  0
 20 23  1  0  0  0
 25 26  1  0  0  0
 30 31  1  0  0  0
M  END
> <minimizedAffinity>
-6.63090

$$$$
1K21_IGN_H_999


 38 39  0  0  0  0  0  0  0  0999 V2000
   16.0913  -14.6745   21.0884 N   0  0  0  0  0  0  0  0  0  0  0  0
   15.5767  -13.6618   20.0502 C   0  0  0  0  0  0  0  0  0  0  0  0
   14.6300  -14.3154   18.9995 C   0  0  0  0  0  0  0  0  0  0  0  0
   15.1807  -15.6397   18.4366 C   0  0  0  0  0  0  0  0  0  0  0  0
   15.3108  -16.6961   19.5675 C   0  0  0  0  0  0  0  0  0  0  0  0
   15.6771  -16.1314   20.9737 C   0  0  0  0  0  0  0  0  0  0  0  0
   17.2689  -13.0730   22.2269 O   0  0  0  0  0  0  0  0  0  0  0  0
   16.9290  -14.2639   22.1240 C   0  0  0  0  0  0  0  0  0  0  0  0
   14.7699  -12.4990   20.7197 C   0  0  0  0  0  0  0  0  0  0  0  0
   13.8221  -12.7606   21.4694 O   0  0  0  0  0  0  0  0  0  0  0  0
   15.1327  -11.2265   20.4767 N   0  0  0  0  0  0  0  0  0  0  0  0
   15.8957  -11.0831   19.8713 H   0  0  0  0  0  0  0  0  0  0  0  0
   14.4840  -10.0286   21.0405 C   0  0  0  0  0  0  0  0  0  0  0  0
   13.1687   -9.6934   20.3228 C   0  0  0  0  0  0  0  0  0  0  0  0
   12.0035   -9.5941   21.3015 C   0  0  0  0  0  0  0  0  0  0  0  0
   12.3271  -10.1957   22.6020 N   0  0  0  0  0  0  0  0  0  0  0  0
   13.2202  -10.0090   22.9719 H   0  0  0  0  0  0  0  0  0  0  0  0
   11.4580  -11.0322   23.3831 C   0  0  0  0  0  0  0  0  0  0  0  0
   10.8173  -10.5109   24.4219 N   0  0  0  0  0  0  0  0  0  0  0  0
   11.3004  -12.3185   23.0691 N   0  0  0  0  0  0  0  0  0  0  0  0
   10.9380   -9.5604   24.6483 H   0  0  0  0  0  0  0  0  0  0  0  0
   11.7787  -12.6990   22.2972 H   0  0  0  0  0  0  0  0  0  0  0  0
   10.7059  -12.8879   23.6091 H   0  0  0  0  0  0  0  0  0  0  0  0
   17.5142  -15.2144   23.2391 C   0  0  0  0  0  0  0  0  0  0  0  0
   16.4373  -16.1480   23.6753 N   0  0  0  0  0  0  0  0  0  0  0  0
   15.8049  -16.2337   22.8797 H   0  0  0  0  0  0  0  0  0  0  0  0
   16.6900  -17.5458   24.1475 C   0  0  0  0  0  0  0  0  0  0  0  0
   15.3780  -18.2560   24.4577 C   0  0  0  0  0  0  0  0  0  0  0  0
   15.2789  -18.9889   25.4700 O   0  0  0  0  0  0  0  0  0  0  0  0
   14.3979  -18.1029   23.6920 O   0  0  0  0  0  0  0  0  0  0  0  0
   14.4751  -17.5545   22.9362 H   0  0  0  0  0  0  0  0  0  0  0  0
   18.0110  -14.4591   24.5391 C   0  0  0  0  0  0  0  0  0  0  0  0
   20.3654  -13.8039   23.4444 C   0  0  0  0  0  0  0  0  0  0  0  0
   19.5802  -14.3414   24.7237 C   0  0  0  0  0  0  0  0  0  0  0  0
   20.0126  -13.4571   25.9460 C   0  0  0  0  0  0  0  0  0  0  0  0
   21.5602  -13.5347   26.1759 C   0  0  0  0  0  0  0  0  0  0  0  0
   22.3096  -13.0255   24.9025 C   0  0  0  0  0  0  0  0  0  0  0  0
   21.9106  -13.8867   23.6651 C   0  0  0  0  0  0  0  0  0  0  0  0
  9 10  2  0  0  0
  9 11  1  0  0  0
  9  2  1  0  0  0
 11 13  1  0  0  0
 13 14  1  0  0  0
 14 15  1  0  0  0
 15 16  1  0  0  0
 16 18  1  0  0  0
 18 19  2  0  0  0
 18 20  1  0  0  0
  1  2  1  0  0  0
  1  6  1  0  0  0
  1  8  1  0  0  0
  2  3  1  0  0  0
  3  4  1  0  0  0
  4  5  1  0  0  0
  5  6  1  0  0  0
  7  8  2  0  0  0
  8 24  1  0  0  0
 24 32  1  0  0  0
 24 25  1  0  0  0
 32 34  1  0  0  0
 33 34  1  0  0  0
 33 38  1  0  0  0
 34 35  1  0  0  0
 35 36  1  0  0  0
 36 37  1  0  0  0
 37 38  1  0  0  0
 25 27  1  0  0  0
 27 28  1  0  0  0
 28 29  2  0  0  0
 28 30  1  0  0  0
 11 12  1  0  0  0
 16 17  1  0  0  0
 19 21  1  0  0  0
 20 22  1  0  0  0
 20 23  1  0  0  0
 25 26  1  0  0  0
 30 31  1  0  0  0
M  END
> <minimizedAffinity>
-6.59878

$$$$
1K21_IGN_H_999


 38 39  0  0  0  0  0  0  0  0999 V2000
   17.1539  -14.6470   19.9198 N   0  0  0  0  0  0  0  0  0  0  0  0
   16.0797  -14.1360   18.9436 C   0  0  0  0  0  0  0  0  0  0  0  0
   14.8905  -15.1313   18.7927 C   0  0  0  0  0  0  0  0  0  0  0  0
   15.3489  -16.5884   18.5910 C   0  0  0  0  0  0  0  0  0  0  0  0
   16.1306  -17.0873   19.8368 C   0  0  0  0  0  0  0  0  0  0  0  0
   16.9761  -16.0056   20.5754 C   0  0  0  0  0  0  0  0  0  0  0  0
   18.4305  -12.7610   19.6725 O   0  0  0  0  0  0  0  0  0  0  0  0
   18.2800  -13.8753   20.2017 C   0  0  0  0  0  0  0  0  0  0  0  0
   15.4678  -12.7728   19.4111 C   0  0  0  0  0  0  0  0  0  0  0  0
   14.9664  -12.0068   18.5800 O   0  0  0  0  0  0  0  0  0  0  0  0
   15.4860  -12.4621   20.7199 N   0  0  0  0  0  0  0  0  0  0  0  0
   15.8989  -13.1133   21.3321 H   0  0  0  0  0  0  0  0  0  0  0  0
   14.9397  -11.2287   21.3149 C   0  0  0  0  0  0  0  0  0  0  0  0
   13.4396  -11.3505   21.6187 C   0  0  0  0  0  0  0  0  0  0  0  0
   12.6877  -10.0732   21.2599 C   0  0  0  0  0  0  0  0  0  0  0  0
   11.5113   -9.8707   22.1160 N   0  0  0  0  0  0  0  0  0  0  0  0
   10.6311   -9.8715   21.6749 H   0  0  0  0  0  0  0  0  0  0  0  0
   11.5290   -9.6715   23.5391 C   0  0  0  0  0  0  0  0  0  0  0  0
   12.2122   -8.6513   24.0429 N   0  0  0  0  0  0  0  0  0  0  0  0
   10.8691  -10.5051   24.3439 N   0  0  0  0  0  0  0  0  0  0  0  0
   12.6972   -8.0395   23.4430 H   0  0  0  0  0  0  0  0  0  0  0  0
   10.3642  -11.2600   23.9637 H   0  0  0  0  0  0  0  0  0  0  0  0
   10.8867  -10.3657   25.3184 H   0  0  0  0  0  0  0  0  0  0  0  0
   19.4401  -14.3005   21.1828 C   0  0  0  0  0  0  0  0  0  0  0  0
   20.2022  -15.4174   20.5555 N   0  0  0  0  0  0  0  0  0  0  0  0
   21.0959  -15.0176   20.2695 H   0  0  0  0  0  0  0  0  0  0  0  0
   20.5344  -16.6955   21.2601 C   0  0  0  0  0  0  0  0  0  0  0  0
   21.1786  -17.6889   20.3008 C   0  0  0  0  0  0  0  0  0  0  0  0
   22.2322  -17.3885   19.6917 O   0  0  0  0  0  0  0  0  0  0  0  0
   20.6460  -18.8094   20.1242 O   0  0  0  0  0  0  0  0  0  0  0  0
   19.8585  -19.0311   20.5809 H   0  0  0  0  0  0  0  0  0  0  0  0
   18.9387  -14.8295   22.5885 C   0  0  0  0  0  0  0  0  0  0  0  0
   20.8605  -13.2443   23.5707 C   0  0  0  0  0  0  0  0  0  0  0  0
   19.8081  -14.4101   23.8450 C   0  0  0  0  0  0  0  0  0  0  0  0
   18.9580  -13.9906   25.0957 C   0  0  0  0  0  0  0  0  0  0  0  0
   19.8728  -13.7677   26.3476 C   0  0  0  0  0  0  0  0  0  0  0  0
   20.9108  -12.6382   26.0489 C   0  0  0  0  0  0  0  0  0  0  0  0
   21.7818  -13.0230   24.8139 C   0  0  0  0  0  0  0  0  0  0  0  0
  9 10  2  0  0  0
  9 11  1  0  0  0
  9  2  1  0  0  0
 11 13  1  0  0  0
 13 14  1  0  0  0
 14 15  1  0  0  0
 15 16  1  0  0  0
 16 18  1  0  0  0
 18 19  2  0  0  0
 18 20  1  0  0  0
  1  2  1  0  0  0
  1  6  1  0  0  0
  1  8  1  0  0  0
  2  3  1  0  0  0
  3  4  1  0  0  0
  4  5  1  0  0  0
  5  6  1  0  0  0
  7  8  2  0  0  0
  8 24  1  0  0  0
 24 32  1  0  0  0
 24 25  1  0  0  0
 32 34  1  0  0  0
 33 34  1  0  0  0
 33 38  1  0  0  0
 34 35  1  0  0  0
 35 36  1  0  0  0
 36 37  1  0  0  0
 37 38  1  0  0  0
 25 27  1  0  0  0
 27 28  1  0  0  0
 28 29  2  0  0  0
 28 30  1  0  0  0
 11 12  1  0  0  0
 16 17  1  0  0  0
 19 21  1  0  0  0
 20 22  1  0  0  0
 20 23  1  0  0  0
 25 26  1  0  0  0
 30 31  1  0  0  0
M  END
> <minimizedAffinity>
-6.53381

$$$$
