1PYN_941_A_322


 48 49  0  0  0  0  0  0  0  0999 V2000
   35.4768   30.1713   16.0788 C   0  0  0  0  0  0  0  0  0  0  0  0
   36.6134   30.7311   15.3599 N   0  0  0  0  0  0  0  0  0  0  0  0
   37.3836   30.1559   14.4298 C   0  0  0  0  0  0  0  0  0  0  0  0
   37.1756   29.0191   14.0926 O   0  0  0  0  0  0  0  0  0  0  0  0
   36.8464   31.6596   15.5899 H   0  0  0  0  0  0  0  0  0  0  0  0
   38.3643   30.9148   13.9063 O   0  0  0  0  0  0  0  0  0  0  0  0
   38.4383   31.4295   12.4894 C   0  0  0  0  0  0  0  0  0  0  0  0
   39.3583   30.5184   11.6049 C   0  0  0  0  0  0  0  0  0  0  0  0
   39.0055   32.8671   12.4890 C   0  0  0  0  0  0  0  0  0  0  0  0
   37.0304   31.4326   11.8193 C   0  0  0  0  0  0  0  0  0  0  0  0
   34.1126   30.9260   15.9532 C   0  0  0  0  0  0  0  0  0  0  0  0
   33.1231   30.4275   16.7069 N   0  0  0  0  0  0  0  0  0  0  0  0
   34.0033   31.8928   15.1717 O   0  0  0  0  0  0  0  0  0  0  0  0
   33.3317   29.6585   17.2852 H   0  0  0  0  0  0  0  0  0  0  0  0
   31.7374   30.9511   16.7317 C   0  0  0  0  0  0  0  0  0  0  0  0
   31.5944   31.8328   18.0039 C   0  0  0  0  0  0  0  0  0  0  0  0
   32.4907   31.3292   19.1695 C   0  0  0  0  0  0  0  0  0  0  0  0
   31.9566   30.0924   19.8533 C   0  0  0  0  0  0  0  0  0  0  0  0
   32.8922   29.6731   20.8539 O   0  0  0  0  0  0  0  0  0  0  0  0
   33.2184   28.2898   21.0003 C   0  0  0  0  0  0  0  0  0  0  0  0
   32.7297   27.2476   20.0802 C   0  0  0  0  0  0  0  0  0  0  0  0
   33.0820   25.8744   20.2731 C   0  0  0  0  0  0  0  0  0  0  0  0
   33.9208   25.5037   21.3726 C   0  0  0  0  0  0  0  0  0  0  0  0
   34.4121   26.4919   22.2822 C   0  0  0  0  0  0  0  0  0  0  0  0
   34.0716   27.8919   22.1141 C   0  0  0  0  0  0  0  0  0  0  0  0
   35.2072   26.0385   23.3050 O   0  0  0  0  0  0  0  0  0  0  0  0
   35.4025   25.1249   23.3768 H   0  0  0  0  0  0  0  0  0  0  0  0
   34.6083   28.8823   23.0948 C   0  0  0  0  0  0  0  0  0  0  0  0
   33.9881   29.1531   24.1059 O   0  0  0  0  0  0  0  0  0  0  0  0
   35.8054   29.4309   22.7819 O   0  0  0  0  0  0  0  0  0  0  0  0
   36.9534   28.6034   22.4208 C   0  0  0  0  0  0  0  0  0  0  0  0
   35.8956   30.0248   17.5924 C   0  0  0  0  0  0  0  0  0  0  0  0
   37.9736   26.9762   18.8410 C   0  0  0  0  0  0  0  0  0  0  0  0
   37.0571   25.8631   18.5327 C   0  0  0  0  0  0  0  0  0  0  0  0
   35.8001   26.1663   17.9438 C   0  0  0  0  0  0  0  0  0  0  0  0
   35.4216   27.5112   17.6482 C   0  0  0  0  0  0  0  0  0  0  0  0
   36.3072   28.5964   17.9410 C   0  0  0  0  0  0  0  0  0  0  0  0
   37.5899   28.3136   18.5433 C   0  0  0  0  0  0  0  0  0  0  0  0
   37.2305   24.4913   18.7321 O   0  0  0  0  0  0  0  0  0  0  0  0
   36.6124   23.7442   19.7993 C   0  0  0  0  0  0  0  0  0  0  0  0
   37.7784   23.2051   20.6545 C   0  0  0  0  0  0  0  0  0  0  0  0
   38.6595   22.5146   20.2599 O   0  0  0  0  0  0  0  0  0  0  0  0
   37.7110   23.5995   21.9552 O   0  0  0  0  0  0  0  0  0  0  0  0
   38.6847   22.2559   19.3597 H   0  0  0  0  0  0  0  0  0  0  0  0
   35.6922   22.6061   19.2821 C   0  0  0  0  0  0  0  0  0  0  0  0
   34.5879   22.3976   19.6617 O   0  0  0  0  0  0  0  0  0  0  0  0
   36.2951   21.8443   18.3357 O   0  0  0  0  0  0  0  0  0  0  0  0
   37.1694   22.0416   18.0625 H   0  0  0  0  0  0  0  0  0  0  0  0
 33 34  2  0  0  0
 33 38  1  0  0  0
 34 35  1  0  0  0
 34 39  1  0  0  0
 35 36  2  0  0  0
 36 37  1  0  0  0
 37 38  2  0  0  0
 37 32  1  0  0  0
  1  2  1  0  0  0
  1 11  1  0  0  0
  1 32  1  0  0  0
  2  3  1  0  0  0
  3  4  2  0  0  0
  3  6  1  0  0  0
 11 12  1  0  0  0
 11 13  2  0  0  0
 12 15  1  0  0  0
 15 16  1  0  0  0
 16 17  1  0  0  0
 18 17  1  0  0  0
 18 19  1  0  0  0
 19 20  1  0  0  0
  6  7  1  0  0  0
 40 45  1  0  0  0
 40 41  1  0  0  0
 40 39  1  0  0  0
 45 46  2  0  0  0
 45 47  1  0  0  0
 41 42  1  0  0  0
 41 43  2  0  0  0
 20 21  2  0  0  0
 20 25  1  0  0  0
 21 22  1  0  0  0
 22 23  2  0  0  0
 23 24  1  0  0  0
 24 25  2  0  0  0
 24 26  1  0  0  0
 25 28  1  0  0  0
 28 29  2  0  0  0
 28 30  1  0  0  0
 30 31  1  0  0  0
  7  8  1  0  0  0
  7  9  1  0  0  0
  7 10  1  0  0  0
  2  5  1  0  0  0
 12 14  1  0  0  0
 42 44  1  0  0  0
 26 27  1  0  0  0
 47 48  1  0  0  0
M  END
> <minimizedAffinity>
-7.99788

$$$$
1PYN_941_A_322


 48 49  0  0  0  0  0  0  0  0999 V2000
   31.3717   31.5306   16.7631 C   0  0  0  0  0  0  0  0  0  0  0  0
   30.6190   32.5283   16.0149 N   0  0  0  0  0  0  0  0  0  0  0  0
   30.5469   32.7058   14.6910 C   0  0  0  0  0  0  0  0  0  0  0  0
   31.1662   31.9861   13.9509 O   0  0  0  0  0  0  0  0  0  0  0  0
   30.0914   33.1579   16.5575 H   0  0  0  0  0  0  0  0  0  0  0  0
   29.7509   33.7017   14.2593 O   0  0  0  0  0  0  0  0  0  0  0  0
   30.1820   35.1056   13.9119 C   0  0  0  0  0  0  0  0  0  0  0  0
   28.9431   36.0529   13.7486 C   0  0  0  0  0  0  0  0  0  0  0  0
   30.9805   35.0903   12.5886 C   0  0  0  0  0  0  0  0  0  0  0  0
   31.0690   35.7156   15.0399 C   0  0  0  0  0  0  0  0  0  0  0  0
   30.8184   30.0676   16.7556 C   0  0  0  0  0  0  0  0  0  0  0  0
   31.7033   29.1340   16.3797 N   0  0  0  0  0  0  0  0  0  0  0  0
   29.6270   29.8488   17.0557 O   0  0  0  0  0  0  0  0  0  0  0  0
   32.6174   29.4303   16.1655 H   0  0  0  0  0  0  0  0  0  0  0  0
   31.4038   27.6878   16.2636 C   0  0  0  0  0  0  0  0  0  0  0  0
   32.4962   26.9196   17.0591 C   0  0  0  0  0  0  0  0  0  0  0  0
   32.0623   26.6339   18.5240 C   0  0  0  0  0  0  0  0  0  0  0  0
   32.6515   25.3646   19.0934 C   0  0  0  0  0  0  0  0  0  0  0  0
   34.0802   25.4410   19.0199 O   0  0  0  0  0  0  0  0  0  0  0  0
   34.8869   24.4119   19.5959 C   0  0  0  0  0  0  0  0  0  0  0  0
   34.3213   23.2442   20.2943 C   0  0  0  0  0  0  0  0  0  0  0  0
   35.1733   22.2425   20.8580 C   0  0  0  0  0  0  0  0  0  0  0  0
   36.5946   22.3721   20.7436 C   0  0  0  0  0  0  0  0  0  0  0  0
   37.1740   23.4931   20.0708 C   0  0  0  0  0  0  0  0  0  0  0  0
   36.3370   24.5258   19.4899 C   0  0  0  0  0  0  0  0  0  0  0  0
   38.5450   23.5293   20.0145 O   0  0  0  0  0  0  0  0  0  0  0  0
   39.0481   22.8410   20.4031 H   0  0  0  0  0  0  0  0  0  0  0  0
   36.9938   25.6771   18.8017 C   0  0  0  0  0  0  0  0  0  0  0  0
   36.7254   25.9441   17.6455 O   0  0  0  0  0  0  0  0  0  0  0  0
   37.8775   26.3815   19.5465 O   0  0  0  0  0  0  0  0  0  0  0  0
   38.1380   27.7952   19.2877 C   0  0  0  0  0  0  0  0  0  0  0  0
   31.5272   32.0601   18.2407 C   0  0  0  0  0  0  0  0  0  0  0  0
   34.3007   29.7966   19.7755 C   0  0  0  0  0  0  0  0  0  0  0  0
   33.5480   29.1090   20.8408 C   0  0  0  0  0  0  0  0  0  0  0  0
   32.1745   29.4295   21.0122 C   0  0  0  0  0  0  0  0  0  0  0  0
   31.5243   30.3891   20.1780 C   0  0  0  0  0  0  0  0  0  0  0  0
   32.2470   31.0576   19.1397 C   0  0  0  0  0  0  0  0  0  0  0  0
   33.6460   30.7511   18.9479 C   0  0  0  0  0  0  0  0  0  0  0  0
   33.9840   28.1450   21.7530 O   0  0  0  0  0  0  0  0  0  0  0  0
   35.3349   27.6451   21.8183 C   0  0  0  0  0  0  0  0  0  0  0  0
   35.2262   26.2455   22.4593 C   0  0  0  0  0  0  0  0  0  0  0  0
   36.1407   25.5363   22.7230 O   0  0  0  0  0  0  0  0  0  0  0  0
   33.9413   25.8716   22.7060 O   0  0  0  0  0  0  0  0  0  0  0  0
   37.0170   25.8155   22.5438 H   0  0  0  0  0  0  0  0  0  0  0  0
   36.2844   28.5801   22.6144 C   0  0  0  0  0  0  0  0  0  0  0  0
   35.9734   29.6212   23.0902 O   0  0  0  0  0  0  0  0  0  0  0  0
   37.5427   28.0824   22.7054 O   0  0  0  0  0  0  0  0  0  0  0  0
   37.7488   27.2556   22.3158 H   0  0  0  0  0  0  0  0  0  0  0  0
 33 34  2  0  0  0
 33 38  1  0  0  0
 34 35  1  0  0  0
 34 39  1  0  0  0
 35 36  2  0  0  0
 36 37  1  0  0  0
 37 38  2  0  0  0
 37 32  1  0  0  0
  1  2  1  0  0  0
  1 11  1  0  0  0
  1 32  1  0  0  0
  2  3  1  0  0  0
  3  4  2  0  0  0
  3  6  1  0  0  0
 11 12  1  0  0  0
 11 13  2  0  0  0
 12 15  1  0  0  0
 15 16  1  0  0  0
 16 17  1  0  0  0
 18 17  1  0  0  0
 18 19  1  0  0  0
 19 20  1  0  0  0
  6  7  1  0  0  0
 40 45  1  0  0  0
 40 41  1  0  0  0
 40 39  1  0  0  0
 45 46  2  0  0  0
 45 47  1  0  0  0
 41 42  1  0  0  0
 41 43  2  0  0  0
 20 21  2  0  0  0
 20 25  1  0  0  0
 21 22  1  0  0  0
 22 23  2  0  0  0
 23 24  1  0  0  0
 24 25  2  0  0  0
 24 26  1  0  0  0
 25 28  1  0  0  0
 28 29  2  0  0  0
 28 30  1  0  0  0
 30 31  1  0  0  0
  7  8  1  0  0  0
  7  9  1  0  0  0
  7 10  1  0  0  0
  2  5  1  0  0  0
 12 14  1  0  0  0
 42 44  1  0  0  0
 26 27  1  0  0  0
 47 48  1  0  0  0
M  END
> <minimizedAffinity>
-7.80118

$$$$
1PYN_941_A_322


 48 49  0  0  0  0  0  0  0  0999 V2000
   31.3637   31.5078   17.0687 C   0  0  0  0  0  0  0  0  0  0  0  0
   30.7983   32.6195   16.3162 N   0  0  0  0  0  0  0  0  0  0  0  0
   30.7016   32.7724   14.9909 C   0  0  0  0  0  0  0  0  0  0  0  0
   31.1235   31.9202   14.2525 O   0  0  0  0  0  0  0  0  0  0  0  0
   30.4382   33.3592   16.8568 H   0  0  0  0  0  0  0  0  0  0  0  0
   30.1084   33.8998   14.5562 O   0  0  0  0  0  0  0  0  0  0  0  0
   30.7686   35.0212   13.7917 C   0  0  0  0  0  0  0  0  0  0  0  0
   30.0623   36.3918   14.0773 C   0  0  0  0  0  0  0  0  0  0  0  0
   30.6992   34.7265   12.2761 C   0  0  0  0  0  0  0  0  0  0  0  0
   32.2601   35.1869   14.2149 C   0  0  0  0  0  0  0  0  0  0  0  0
   30.6468   30.1235   16.9413 C   0  0  0  0  0  0  0  0  0  0  0  0
   29.3853   30.1003   17.3930 N   0  0  0  0  0  0  0  0  0  0  0  0
   31.2614   29.1422   16.4759 O   0  0  0  0  0  0  0  0  0  0  0  0
   29.0082   30.9410   17.7396 H   0  0  0  0  0  0  0  0  0  0  0  0
   28.5179   28.8994   17.4078 C   0  0  0  0  0  0  0  0  0  0  0  0
   27.2767   29.2309   18.2830 C   0  0  0  0  0  0  0  0  0  0  0  0
   27.6752   29.8019   19.6725 C   0  0  0  0  0  0  0  0  0  0  0  0
   26.5254   30.4379   20.4181 C   0  0  0  0  0  0  0  0  0  0  0  0
   26.2442   29.6621   21.5892 O   0  0  0  0  0  0  0  0  0  0  0  0
   24.9342   29.6680   22.1596 C   0  0  0  0  0  0  0  0  0  0  0  0
   24.2006   30.9068   22.4738 C   0  0  0  0  0  0  0  0  0  0  0  0
   22.8914   30.8586   23.0489 C   0  0  0  0  0  0  0  0  0  0  0  0
   22.2820   29.5924   23.3233 C   0  0  0  0  0  0  0  0  0  0  0  0
   22.9677   28.3725   23.0286 C   0  0  0  0  0  0  0  0  0  0  0  0
   24.2964   28.3883   22.4466 C   0  0  0  0  0  0  0  0  0  0  0  0
   22.3022   27.2103   23.3291 O   0  0  0  0  0  0  0  0  0  0  0  0
   21.4444   27.2453   23.7045 H   0  0  0  0  0  0  0  0  0  0  0  0
   24.9692   27.0856   22.1622 C   0  0  0  0  0  0  0  0  0  0  0  0
   25.4808   26.4424   23.0593 O   0  0  0  0  0  0  0  0  0  0  0  0
   24.9577   26.6874   20.8687 O   0  0  0  0  0  0  0  0  0  0  0  0
   26.1888   26.3287   20.1693 C   0  0  0  0  0  0  0  0  0  0  0  0
   31.4541   31.9518   18.5795 C   0  0  0  0  0  0  0  0  0  0  0  0
   32.4367   29.3217   21.2791 C   0  0  0  0  0  0  0  0  0  0  0  0
   33.8799   29.1715   21.0164 C   0  0  0  0  0  0  0  0  0  0  0  0
   34.4568   29.9282   19.9613 C   0  0  0  0  0  0  0  0  0  0  0  0
   33.6714   30.8195   19.1687 C   0  0  0  0  0  0  0  0  0  0  0  0
   32.2711   30.9735   19.4200 C   0  0  0  0  0  0  0  0  0  0  0  0
   31.6607   30.2120   20.4856 C   0  0  0  0  0  0  0  0  0  0  0  0
   34.8204   28.3697   21.6678 O   0  0  0  0  0  0  0  0  0  0  0  0
   35.3335   27.1309   21.1375 C   0  0  0  0  0  0  0  0  0  0  0  0
   34.7375   26.0220   22.0299 C   0  0  0  0  0  0  0  0  0  0  0  0
   33.8601   25.2855   21.7190 O   0  0  0  0  0  0  0  0  0  0  0  0
   35.3219   25.9549   23.2570 O   0  0  0  0  0  0  0  0  0  0  0  0
   33.4730   25.3508   20.8682 H   0  0  0  0  0  0  0  0  0  0  0  0
   36.8849   27.0863   21.1078 C   0  0  0  0  0  0  0  0  0  0  0  0
   37.5353   26.5760   20.2572 O   0  0  0  0  0  0  0  0  0  0  0  0
   37.4398   27.6946   22.1855 O   0  0  0  0  0  0  0  0  0  0  0  0
   36.8913   28.0865   22.8363 H   0  0  0  0  0  0  0  0  0  0  0  0
 33 34  2  0  0  0
 33 38  1  0  0  0
 34 35  1  0  0  0
 34 39  1  0  0  0
 35 36  2  0  0  0
 36 37  1  0  0  0
 37 38  2  0  0  0
 37 32  1  0  0  0
  1  2  1  0  0  0
  1 11  1  0  0  0
  1 32  1  0  0  0
  2  3  1  0  0  0
  3  4  2  0  0  0
  3  6  1  0  0  0
 11 12  1  0  0  0
 11 13  2  0  0  0
 12 15  1  0  0  0
 15 16  1  0  0  0
 16 17  1  0  0  0
 18 17  1  0  0  0
 18 19  1  0  0  0
 19 20  1  0  0  0
  6  7  1  0  0  0
 40 45  1  0  0  0
 40 41  1  0  0  0
 40 39  1  0  0  0
 45 46  2  0  0  0
 45 47  1  0  0  0
 41 42  1  0  0  0
 41 43  2  0  0  0
 20 21  2  0  0  0
 20 25  1  0  0  0
 21 22  1  0  0  0
 22 23  2  0  0  0
 23 24  1  0  0  0
 24 25  2  0  0  0
 24 26  1  0  0  0
 25 28  1  0  0  0
 28 29  2  0  0  0
 28 30  1  0  0  0
 30 31  1  0  0  0
  7  8  1  0  0  0
  7  9  1  0  0  0
  7 10  1  0  0  0
  2  5  1  0  0  0
 12 14  1  0  0  0
 42 44  1  0  0  0
 26 27  1  0  0  0
 47 48  1  0  0  0
M  END
> <minimizedAffinity>
-7.66574

$$$$
1PYN_941_A_322


 48 49  0  0  0  0  0  0  0  0999 V2000
   30.5666   27.1759   17.7432 C   0  0  0  0  0  0  0  0  0  0  0  0
   29.1452   27.4935   17.7200 N   0  0  0  0  0  0  0  0  0  0  0  0
   28.5404   28.6546   17.9944 C   0  0  0  0  0  0  0  0  0  0  0  0
   29.1927   29.6129   18.3192 O   0  0  0  0  0  0  0  0  0  0  0  0
   28.5481   26.7524   17.4679 H   0  0  0  0  0  0  0  0  0  0  0  0
   27.2001   28.6791   17.8732 O   0  0  0  0  0  0  0  0  0  0  0  0
   26.2016   28.8017   18.9983 C   0  0  0  0  0  0  0  0  0  0  0  0
   26.6088   29.9436   19.9928 C   0  0  0  0  0  0  0  0  0  0  0  0
   26.1252   27.4657   19.7715 C   0  0  0  0  0  0  0  0  0  0  0  0
   24.7853   29.1622   18.4549 C   0  0  0  0  0  0  0  0  0  0  0  0
   31.4602   27.8275   16.6372 C   0  0  0  0  0  0  0  0  0  0  0  0
   31.8696   29.0745   16.9078 N   0  0  0  0  0  0  0  0  0  0  0  0
   31.7145   27.1995   15.5892 O   0  0  0  0  0  0  0  0  0  0  0  0
   31.6030   29.4661   17.7709 H   0  0  0  0  0  0  0  0  0  0  0  0
   32.6948   29.9057   16.0007 C   0  0  0  0  0  0  0  0  0  0  0  0
   33.4368   30.9552   16.8751 C   0  0  0  0  0  0  0  0  0  0  0  0
   32.5612   31.4576   18.0568 C   0  0  0  0  0  0  0  0  0  0  0  0
   33.0959   31.0678   19.4150 C   0  0  0  0  0  0  0  0  0  0  0  0
   33.3208   29.6532   19.4382 O   0  0  0  0  0  0  0  0  0  0  0  0
   34.0544   29.0580   20.5101 C   0  0  0  0  0  0  0  0  0  0  0  0
   33.4415   28.7004   21.8016 C   0  0  0  0  0  0  0  0  0  0  0  0
   34.2214   28.1099   22.8457 C   0  0  0  0  0  0  0  0  0  0  0  0
   35.6158   27.8607   22.6368 C   0  0  0  0  0  0  0  0  0  0  0  0
   36.2395   28.1955   21.3942 C   0  0  0  0  0  0  0  0  0  0  0  0
   35.4760   28.7963   20.3170 C   0  0  0  0  0  0  0  0  0  0  0  0
   37.5802   27.9201   21.2906 O   0  0  0  0  0  0  0  0  0  0  0  0
   38.0356   27.5312   22.0112 H   0  0  0  0  0  0  0  0  0  0  0  0
   36.1775   29.1297   19.0413 C   0  0  0  0  0  0  0  0  0  0  0  0
   36.5151   30.2732   18.7992 O   0  0  0  0  0  0  0  0  0  0  0  0
   36.4066   28.0893   18.2065 O   0  0  0  0  0  0  0  0  0  0  0  0
   35.3586   27.5650   17.3346 C   0  0  0  0  0  0  0  0  0  0  0  0
   30.7045   25.6049   17.7173 C   0  0  0  0  0  0  0  0  0  0  0  0
   33.9295   23.5307   18.4019 C   0  0  0  0  0  0  0  0  0  0  0  0
   34.4855   24.2469   19.5648 C   0  0  0  0  0  0  0  0  0  0  0  0
   33.7847   25.3799   20.0587 C   0  0  0  0  0  0  0  0  0  0  0  0
   32.5682   25.8235   19.4563 C   0  0  0  0  0  0  0  0  0  0  0  0
   32.0204   25.1315   18.3301 C   0  0  0  0  0  0  0  0  0  0  0  0
   32.7167   23.9782   17.8074 C   0  0  0  0  0  0  0  0  0  0  0  0
   35.6440   23.9804   20.2985 O   0  0  0  0  0  0  0  0  0  0  0  0
   36.9141   23.6364   19.7089 C   0  0  0  0  0  0  0  0  0  0  0  0
   37.7833   23.1191   20.8744 C   0  0  0  0  0  0  0  0  0  0  0  0
   38.7508   22.4405   20.7630 O   0  0  0  0  0  0  0  0  0  0  0  0
   37.3301   23.5179   22.0939 O   0  0  0  0  0  0  0  0  0  0  0  0
   39.0439   22.1784   19.9125 H   0  0  0  0  0  0  0  0  0  0  0  0
   37.5772   24.8299   18.9705 C   0  0  0  0  0  0  0  0  0  0  0  0
   38.0803   25.7642   19.5007 O   0  0  0  0  0  0  0  0  0  0  0  0
   37.5132   24.7028   17.6217 O   0  0  0  0  0  0  0  0  0  0  0  0
   37.1072   23.9491   17.2409 H   0  0  0  0  0  0  0  0  0  0  0  0
 33 34  2  0  0  0
 33 38  1  0  0  0
 34 35  1  0  0  0
 34 39  1  0  0  0
 35 36  2  0  0  0
 36 37  1  0  0  0
 37 38  2  0  0  0
 37 32  1  0  0  0
  1  2  1  0  0  0
  1 11  1  0  0  0
  1 32  1  0  0  0
  2  3  1  0  0  0
  3  4  2  0  0  0
  3  6  1  0  0  0
 11 12  1  0  0  0
 11 13  2  0  0  0
 12 15  1  0  0  0
 15 16  1  0  0  0
 16 17  1  0  0  0
 18 17  1  0  0  0
 18 19  1  0  0  0
 19 20  1  0  0  0
  6  7  1  0  0  0
 40 45  1  0  0  0
 40 41  1  0  0  0
 40 39  1  0  0  0
 45 46  2  0  0  0
 45 47  1  0  0  0
 41 42  1  0  0  0
 41 43  2  0  0  0
 20 21  2  0  0  0
 20 25  1  0  0  0
 21 22  1  0  0  0
 22 23  2  0  0  0
 23 24  1  0  0  0
 24 25  2  0  0  0
 24 26  1  0  0  0
 25 28  1  0  0  0
 28 29  2  0  0  0
 28 30  1  0  0  0
 30 31  1  0  0  0
  7  8  1  0  0  0
  7  9  1  0  0  0
  7 10  1  0  0  0
  2  5  1  0  0  0
 12 14  1  0  0  0
 42 44  1  0  0  0
 26 27  1  0  0  0
 47 48  1  0  0  0
M  END
> <minimizedAffinity>
-7.50457

$$$$
1PYN_941_A_322


 48 49  0  0  0  0  0  0  0  0999 V2000
   31.4219   31.5486   17.1362 C   0  0  0  0  0  0  0  0  0  0  0  0
   30.8435   32.7059   16.4668 N   0  0  0  0  0  0  0  0  0  0  0  0
   31.2661   33.3357   15.3650 C   0  0  0  0  0  0  0  0  0  0  0  0
   32.2571   32.9570   14.7958 O   0  0  0  0  0  0  0  0  0  0  0  0
   30.0308   33.0750   16.8821 H   0  0  0  0  0  0  0  0  0  0  0  0
   30.5243   34.3772   14.9444 O   0  0  0  0  0  0  0  0  0  0  0  0
   29.4577   34.3434   13.8772 C   0  0  0  0  0  0  0  0  0  0  0  0
   29.9270   35.0987   12.5856 C   0  0  0  0  0  0  0  0  0  0  0  0
   28.1700   35.0118   14.4099 C   0  0  0  0  0  0  0  0  0  0  0  0
   29.1371   32.8785   13.4503 C   0  0  0  0  0  0  0  0  0  0  0  0
   30.8414   30.1453   16.7617 C   0  0  0  0  0  0  0  0  0  0  0  0
   31.7505   29.1639   16.6828 N   0  0  0  0  0  0  0  0  0  0  0  0
   29.6214   30.0146   16.5339 O   0  0  0  0  0  0  0  0  0  0  0  0
   32.6869   29.3908   16.8848 H   0  0  0  0  0  0  0  0  0  0  0  0
   31.4465   27.7619   16.3131 C   0  0  0  0  0  0  0  0  0  0  0  0
   31.2039   26.9738   17.6309 C   0  0  0  0  0  0  0  0  0  0  0  0
   32.5092   26.7951   18.4554 C   0  0  0  0  0  0  0  0  0  0  0  0
   33.1627   25.4457   18.2696 C   0  0  0  0  0  0  0  0  0  0  0  0
   34.2165   25.5677   17.3068 O   0  0  0  0  0  0  0  0  0  0  0  0
   35.4459   26.2037   17.6614 C   0  0  0  0  0  0  0  0  0  0  0  0
   35.6788   27.6494   17.4973 C   0  0  0  0  0  0  0  0  0  0  0  0
   36.9305   28.2375   17.8640 C   0  0  0  0  0  0  0  0  0  0  0  0
   37.9728   27.4142   18.3986 C   0  0  0  0  0  0  0  0  0  0  0  0
   37.7771   26.0081   18.5711 C   0  0  0  0  0  0  0  0  0  0  0  0
   36.5200   25.3822   18.2077 C   0  0  0  0  0  0  0  0  0  0  0  0
   38.8352   25.3037   19.0889 O   0  0  0  0  0  0  0  0  0  0  0  0
   39.6301   25.7476   19.3105 H   0  0  0  0  0  0  0  0  0  0  0  0
   36.3699   23.9094   18.4047 C   0  0  0  0  0  0  0  0  0  0  0  0
   36.8199   23.1252   17.5907 O   0  0  0  0  0  0  0  0  0  0  0  0
   35.7202   23.5294   19.5297 O   0  0  0  0  0  0  0  0  0  0  0  0
   35.9278   22.2109   20.1227 C   0  0  0  0  0  0  0  0  0  0  0  0
   31.3205   31.7970   18.6905 C   0  0  0  0  0  0  0  0  0  0  0  0
   34.5584   30.0374   19.9520 C   0  0  0  0  0  0  0  0  0  0  0  0
   34.0073   29.1292   20.9746 C   0  0  0  0  0  0  0  0  0  0  0  0
   32.6061   29.1469   21.2094 C   0  0  0  0  0  0  0  0  0  0  0  0
   31.7397   30.0149   20.4777 C   0  0  0  0  0  0  0  0  0  0  0  0
   32.2665   30.8964   19.4812 C   0  0  0  0  0  0  0  0  0  0  0  0
   33.6889   30.8990   19.2266 C   0  0  0  0  0  0  0  0  0  0  0  0
   34.6684   28.2069   21.7894 O   0  0  0  0  0  0  0  0  0  0  0  0
   35.1423   26.9221   21.3380 C   0  0  0  0  0  0  0  0  0  0  0  0
   34.2126   25.8835   22.0001 C   0  0  0  0  0  0  0  0  0  0  0  0
   33.9092   24.8350   21.5338 O   0  0  0  0  0  0  0  0  0  0  0  0
   33.7451   26.2849   23.2135 O   0  0  0  0  0  0  0  0  0  0  0  0
   34.2437   24.5803   20.6964 H   0  0  0  0  0  0  0  0  0  0  0  0
   36.6350   26.6757   21.6858 C   0  0  0  0  0  0  0  0  0  0  0  0
   37.4277   27.5251   21.9249 O   0  0  0  0  0  0  0  0  0  0  0  0
   36.9565   25.3581   21.6778 O   0  0  0  0  0  0  0  0  0  0  0  0
   36.3011   24.7171   21.4840 H   0  0  0  0  0  0  0  0  0  0  0  0
 33 34  2  0  0  0
 33 38  1  0  0  0
 34 35  1  0  0  0
 34 39  1  0  0  0
 35 36  2  0  0  0
 36 37  1  0  0  0
 37 38  2  0  0  0
 37 32  1  0  0  0
  1  2  1  0  0  0
  1 11  1  0  0  0
  1 32  1  0  0  0
  2  3  1  0  0  0
  3  4  2  0  0  0
  3  6  1  0  0  0
 11 12  1  0  0  0
 11 13  2  0  0  0
 12 15  1  0  0  0
 15 16  1  0  0  0
 16 17  1  0  0  0
 18 17  1  0  0  0
 18 19  1  0  0  0
 19 20  1  0  0  0
  6  7  1  0  0  0
 40 45  1  0  0  0
 40 41  1  0  0  0
 40 39  1  0  0  0
 45 46  2  0  0  0
 45 47  1  0  0  0
 41 42  1  0  0  0
 41 43  2  0  0  0
 20 21  2  0  0  0
 20 25  1  0  0  0
 21 22  1  0  0  0
 22 23  2  0  0  0
 23 24  1  0  0  0
 24 25  2  0  0  0
 24 26  1  0  0  0
 25 28  1  0  0  0
 28 29  2  0  0  0
 28 30  1  0  0  0
 30 31  1  0  0  0
  7  8  1  0  0  0
  7  9  1  0  0  0
  7 10  1  0  0  0
  2  5  1  0  0  0
 12 14  1  0  0  0
 42 44  1  0  0  0
 26 27  1  0  0  0
 47 48  1  0  0  0
M  END
> <minimizedAffinity>
-7.35911

$$$$
1PYN_941_A_322


 48 49  0  0  0  0  0  0  0  0999 V2000
   30.9048   27.2203   17.6127 C   0  0  0  0  0  0  0  0  0  0  0  0
   30.3702   26.0746   16.8892 N   0  0  0  0  0  0  0  0  0  0  0  0
   29.7339   25.0010   17.3705 C   0  0  0  0  0  0  0  0  0  0  0  0
   29.5455   24.8914   18.5545 O   0  0  0  0  0  0  0  0  0  0  0  0
   30.4940   26.0931   15.9127 H   0  0  0  0  0  0  0  0  0  0  0  0
   29.3216   24.0906   16.4688 O   0  0  0  0  0  0  0  0  0  0  0  0
   30.0114   22.7922   16.1281 C   0  0  0  0  0  0  0  0  0  0  0  0
   29.2488   21.5687   16.7449 C   0  0  0  0  0  0  0  0  0  0  0  0
   31.4558   22.8127   16.6777 C   0  0  0  0  0  0  0  0  0  0  0  0
   30.0518   22.5660   14.5859 C   0  0  0  0  0  0  0  0  0  0  0  0
   30.2464   28.6109   17.3316 C   0  0  0  0  0  0  0  0  0  0  0  0
   30.9604   29.4206   16.5375 N   0  0  0  0  0  0  0  0  0  0  0  0
   29.1533   28.9024   17.8583 O   0  0  0  0  0  0  0  0  0  0  0  0
   31.8119   29.0776   16.1818 H   0  0  0  0  0  0  0  0  0  0  0  0
   30.5596   30.7951   16.1570 C   0  0  0  0  0  0  0  0  0  0  0  0
   31.2129   31.7707   17.1758 C   0  0  0  0  0  0  0  0  0  0  0  0
   32.6926   31.4010   17.4748 C   0  0  0  0  0  0  0  0  0  0  0  0
   32.9680   31.1408   18.9373 C   0  0  0  0  0  0  0  0  0  0  0  0
   33.3797   29.7781   19.0980 O   0  0  0  0  0  0  0  0  0  0  0  0
   33.8389   29.3094   20.3673 C   0  0  0  0  0  0  0  0  0  0  0  0
   32.9462   29.1190   21.5241 C   0  0  0  0  0  0  0  0  0  0  0  0
   33.4569   28.6510   22.7760 C   0  0  0  0  0  0  0  0  0  0  0  0
   34.8527   28.3619   22.9106 C   0  0  0  0  0  0  0  0  0  0  0  0
   35.7444   28.5354   21.8062 C   0  0  0  0  0  0  0  0  0  0  0  0
   35.2574   29.0094   20.5246 C   0  0  0  0  0  0  0  0  0  0  0  0
   37.0639   28.2337   22.0338 O   0  0  0  0  0  0  0  0  0  0  0  0
   37.3363   27.9301   22.8774 H   0  0  0  0  0  0  0  0  0  0  0  0
   36.2320   29.1766   19.4054 C   0  0  0  0  0  0  0  0  0  0  0  0
   36.5226   30.2848   18.9958 O   0  0  0  0  0  0  0  0  0  0  0  0
   36.7549   28.0331   18.9046 O   0  0  0  0  0  0  0  0  0  0  0  0
   38.1658   27.9343   18.5399 C   0  0  0  0  0  0  0  0  0  0  0  0
   32.4576   27.2735   17.3407 C   0  0  0  0  0  0  0  0  0  0  0  0
   35.0176   24.5080   18.3256 C   0  0  0  0  0  0  0  0  0  0  0  0
   34.5980   24.2128   19.7080 C   0  0  0  0  0  0  0  0  0  0  0  0
   33.5072   24.9419   20.2532 C   0  0  0  0  0  0  0  0  0  0  0  0
   32.8217   25.9365   19.4914 C   0  0  0  0  0  0  0  0  0  0  0  0
   33.2206   26.2260   18.1480 C   0  0  0  0  0  0  0  0  0  0  0  0
   34.3295   25.5000   17.5725 C   0  0  0  0  0  0  0  0  0  0  0  0
   35.1208   23.2869   20.6140 O   0  0  0  0  0  0  0  0  0  0  0  0
   36.4518   23.3561   21.1645 C   0  0  0  0  0  0  0  0  0  0  0  0
   36.6802   24.8437   21.5055 C   0  0  0  0  0  0  0  0  0  0  0  0
   37.3124   25.6097   20.8556 O   0  0  0  0  0  0  0  0  0  0  0  0
   36.0748   25.2232   22.6637 O   0  0  0  0  0  0  0  0  0  0  0  0
   37.7203   25.3252   20.0614 H   0  0  0  0  0  0  0  0  0  0  0  0
   37.5326   22.8062   20.1954 C   0  0  0  0  0  0  0  0  0  0  0  0
   37.3100   22.2038   19.1981 O   0  0  0  0  0  0  0  0  0  0  0  0
   38.7921   23.0791   20.6180 O   0  0  0  0  0  0  0  0  0  0  0  0
   38.9264   23.5581   21.4120 H   0  0  0  0  0  0  0  0  0  0  0  0
 33 34  2  0  0  0
 33 38  1  0  0  0
 34 35  1  0  0  0
 34 39  1  0  0  0
 35 36  2  0  0  0
 36 37  1  0  0  0
 37 38  2  0  0  0
 37 32  1  0  0  0
  1  2  1  0  0  0
  1 11  1  0  0  0
  1 32  1  0  0  0
  2  3  1  0  0  0
  3  4  2  0  0  0
  3  6  1  0  0  0
 11 12  1  0  0  0
 11 13  2  0  0  0
 12 15  1  0  0  0
 15 16  1  0  0  0
 16 17  1  0  0  0
 18 17  1  0  0  0
 18 19  1  0  0  0
 19 20  1  0  0  0
  6  7  1  0  0  0
 40 45  1  0  0  0
 40 41  1  0  0  0
 40 39  1  0  0  0
 45 46  2  0  0  0
 45 47  1  0  0  0
 41 42  1  0  0  0
 41 43  2  0  0  0
 20 21  2  0  0  0
 20 25  1  0  0  0
 21 22  1  0  0  0
 22 23  2  0  0  0
 23 24  1  0  0  0
 24 25  2  0  0  0
 24 26  1  0  0  0
 25 28  1  0  0  0
 28 29  2  0  0  0
 28 30  1  0  0  0
 30 31  1  0  0  0
  7  8  1  0  0  0
  7  9  1  0  0  0
  7 10  1  0  0  0
  2  5  1  0  0  0
 12 14  1  0  0  0
 42 44  1  0  0  0
 26 27  1  0  0  0
 47 48  1  0  0  0
M  END
> <minimizedAffinity>
-7.35254

$$$$
1PYN_941_A_322


 48 49  0  0  0  0  0  0  0  0999 V2000
   31.8749   31.7430   16.4350 C   0  0  0  0  0  0  0  0  0  0  0  0
   31.0124   32.6881   15.7387 N   0  0  0  0  0  0  0  0  0  0  0  0
   31.2667   33.4003   14.6355 C   0  0  0  0  0  0  0  0  0  0  0  0
   32.3356   33.3065   14.0894 O   0  0  0  0  0  0  0  0  0  0  0  0
   30.1206   32.8207   16.1342 H   0  0  0  0  0  0  0  0  0  0  0  0
   30.2741   34.1910   14.1867 O   0  0  0  0  0  0  0  0  0  0  0  0
   30.3971   35.6400   13.7828 C   0  0  0  0  0  0  0  0  0  0  0  0
   31.2420   36.4479   14.8279 C   0  0  0  0  0  0  0  0  0  0  0  0
   28.9899   36.2706   13.6794 C   0  0  0  0  0  0  0  0  0  0  0  0
   31.1248   35.7803   12.4110 C   0  0  0  0  0  0  0  0  0  0  0  0
   31.7829   30.2426   16.0028 C   0  0  0  0  0  0  0  0  0  0  0  0
   30.7369   29.5751   16.5089 N   0  0  0  0  0  0  0  0  0  0  0  0
   32.6617   29.7496   15.2667 O   0  0  0  0  0  0  0  0  0  0  0  0
   30.1092   30.0739   17.0803 H   0  0  0  0  0  0  0  0  0  0  0  0
   30.4578   28.1400   16.2697 C   0  0  0  0  0  0  0  0  0  0  0  0
   30.7369   27.3825   17.5982 C   0  0  0  0  0  0  0  0  0  0  0  0
   32.2076   26.8886   17.6931 C   0  0  0  0  0  0  0  0  0  0  0  0
   32.4561   25.9452   18.8467 C   0  0  0  0  0  0  0  0  0  0  0  0
   33.8551   25.9461   19.1554 O   0  0  0  0  0  0  0  0  0  0  0  0
   34.4948   24.7491   19.6019 C   0  0  0  0  0  0  0  0  0  0  0  0
   33.7850   23.6829   20.3306 C   0  0  0  0  0  0  0  0  0  0  0  0
   34.4729   22.5042   20.7603 C   0  0  0  0  0  0  0  0  0  0  0  0
   35.8690   22.3543   20.4799 C   0  0  0  0  0  0  0  0  0  0  0  0
   36.5855   23.3707   19.7737 C   0  0  0  0  0  0  0  0  0  0  0  0
   35.9165   24.5775   19.3262 C   0  0  0  0  0  0  0  0  0  0  0  0
   37.9200   23.1364   19.5546 O   0  0  0  0  0  0  0  0  0  0  0  0
   38.3128   22.3428   19.8609 H   0  0  0  0  0  0  0  0  0  0  0  0
   36.7127   25.6090   18.5962 C   0  0  0  0  0  0  0  0  0  0  0  0
   36.4244   25.9240   17.4570 O   0  0  0  0  0  0  0  0  0  0  0  0
   37.7430   26.1532   19.2849 O   0  0  0  0  0  0  0  0  0  0  0  0
   38.3891   27.3866   18.8440 C   0  0  0  0  0  0  0  0  0  0  0  0
   31.5997   31.8958   17.9806 C   0  0  0  0  0  0  0  0  0  0  0  0
   32.6847   29.3081   20.6820 C   0  0  0  0  0  0  0  0  0  0  0  0
   34.1269   29.1902   20.3984 C   0  0  0  0  0  0  0  0  0  0  0  0
   34.6698   29.9530   19.3297 C   0  0  0  0  0  0  0  0  0  0  0  0
   33.8517   30.8201   18.5434 C   0  0  0  0  0  0  0  0  0  0  0  0
   32.4522   30.9428   18.8150 C   0  0  0  0  0  0  0  0  0  0  0  0
   31.8760   30.1744   19.8946 C   0  0  0  0  0  0  0  0  0  0  0  0
   35.0958   28.4153   21.0406 O   0  0  0  0  0  0  0  0  0  0  0  0
   35.7599   28.7987   22.2617 C   0  0  0  0  0  0  0  0  0  0  0  0
   37.0220   27.9141   22.3401 C   0  0  0  0  0  0  0  0  0  0  0  0
   37.0730   26.7615   22.0614 O   0  0  0  0  0  0  0  0  0  0  0  0
   38.1193   28.5902   22.7765 O   0  0  0  0  0  0  0  0  0  0  0  0
   36.3040   26.3171   21.7630 H   0  0  0  0  0  0  0  0  0  0  0  0
   34.8559   28.6391   23.5135 C   0  0  0  0  0  0  0  0  0  0  0  0
   34.2271   29.5109   24.0151 O   0  0  0  0  0  0  0  0  0  0  0  0
   34.8645   27.3727   23.9988 O   0  0  0  0  0  0  0  0  0  0  0  0
   35.3747   26.7116   23.5737 H   0  0  0  0  0  0  0  0  0  0  0  0
 33 34  2  0  0  0
 33 38  1  0  0  0
 34 35  1  0  0  0
 34 39  1  0  0  0
 35 36  2  0  0  0
 36 37  1  0  0  0
 37 38  2  0  0  0
 37 32  1  0  0  0
  1  2  1  0  0  0
  1 11  1  0  0  0
  1 32  1  0  0  0
  2  3  1  0  0  0
  3  4  2  0  0  0
  3  6  1  0  0  0
 11 12  1  0  0  0
 11 13  2  0  0  0
 12 15  1  0  0  0
 15 16  1  0  0  0
 16 17  1  0  0  0
 18 17  1  0  0  0
 18 19  1  0  0  0
 19 20  1  0  0  0
  6  7  1  0  0  0
 40 45  1  0  0  0
 40 41  1  0  0  0
 40 39  1  0  0  0
 45 46  2  0  0  0
 45 47  1  0  0  0
 41 42  1  0  0  0
 41 43  2  0  0  0
 20 21  2  0  0  0
 20 25  1  0  0  0
 21 22  1  0  0  0
 22 23  2  0  0  0
 23 24  1  0  0  0
 24 25  2  0  0  0
 24 26  1  0  0  0
 25 28  1  0  0  0
 28 29  2  0  0  0
 28 30  1  0  0  0
 30 31  1  0  0  0
  7  8  1  0  0  0
  7  9  1  0  0  0
  7 10  1  0  0  0
  2  5  1  0  0  0
 12 14  1  0  0  0
 42 44  1  0  0  0
 26 27  1  0  0  0
 47 48  1  0  0  0
M  END
> <minimizedAffinity>
-7.31457

$$$$
1PYN_941_A_322


 48 49  0  0  0  0  0  0  0  0999 V2000
   30.7437   30.8414   16.9727 C   0  0  0  0  0  0  0  0  0  0  0  0
   30.1052   31.8610   16.1513 N   0  0  0  0  0  0  0  0  0  0  0  0
   30.3819   32.2186   14.8924 C   0  0  0  0  0  0  0  0  0  0  0  0
   31.2715   31.6735   14.2917 O   0  0  0  0  0  0  0  0  0  0  0  0
   29.3697   32.3541   16.5814 H   0  0  0  0  0  0  0  0  0  0  0  0
   29.6142   33.1869   14.3587 O   0  0  0  0  0  0  0  0  0  0  0  0
   30.0002   34.6338   14.1712 C   0  0  0  0  0  0  0  0  0  0  0  0
   28.7717   35.5806   14.4023 C   0  0  0  0  0  0  0  0  0  0  0  0
   30.5350   34.8461   12.7368 C   0  0  0  0  0  0  0  0  0  0  0  0
   31.0954   35.0598   15.1960 C   0  0  0  0  0  0  0  0  0  0  0  0
   29.9091   29.5575   17.2911 C   0  0  0  0  0  0  0  0  0  0  0  0
   30.1108   28.5333   16.4508 N   0  0  0  0  0  0  0  0  0  0  0  0
   29.1086   29.5544   18.2485 O   0  0  0  0  0  0  0  0  0  0  0  0
   30.7699   28.6563   15.7299 H   0  0  0  0  0  0  0  0  0  0  0  0
   29.4125   27.2291   16.5295 C   0  0  0  0  0  0  0  0  0  0  0  0
   30.4812   26.1459   16.8474 C   0  0  0  0  0  0  0  0  0  0  0  0
   30.2110   25.4365   18.2036 C   0  0  0  0  0  0  0  0  0  0  0  0
   31.4272   24.7512   18.7813 C   0  0  0  0  0  0  0  0  0  0  0  0
   32.2417   25.7274   19.4416 O   0  0  0  0  0  0  0  0  0  0  0  0
   33.5841   25.9566   19.0092 C   0  0  0  0  0  0  0  0  0  0  0  0
   33.9158   26.6708   17.7637 C   0  0  0  0  0  0  0  0  0  0  0  0
   35.2775   26.8707   17.3727 C   0  0  0  0  0  0  0  0  0  0  0  0
   36.3347   26.3728   18.2000 C   0  0  0  0  0  0  0  0  0  0  0  0
   36.0452   25.6768   19.4153 C   0  0  0  0  0  0  0  0  0  0  0  0
   34.6751   25.4571   19.8381 C   0  0  0  0  0  0  0  0  0  0  0  0
   37.1254   25.2364   20.1386 O   0  0  0  0  0  0  0  0  0  0  0  0
   37.9946   25.3998   19.8291 H   0  0  0  0  0  0  0  0  0  0  0  0
   34.4286   24.7209   21.1139 C   0  0  0  0  0  0  0  0  0  0  0  0
   33.7817   25.2304   22.0095 O   0  0  0  0  0  0  0  0  0  0  0  0
   34.9593   23.4780   21.1881 O   0  0  0  0  0  0  0  0  0  0  0  0
   34.2314   22.3070   20.7060 C   0  0  0  0  0  0  0  0  0  0  0  0
   31.2279   31.5358   18.3036 C   0  0  0  0  0  0  0  0  0  0  0  0
   34.8153   30.2135   19.0477 C   0  0  0  0  0  0  0  0  0  0  0  0
   34.5551   29.3139   20.1867 C   0  0  0  0  0  0  0  0  0  0  0  0
   33.2216   29.1946   20.6625 C   0  0  0  0  0  0  0  0  0  0  0  0
   32.1486   29.9191   20.0597 C   0  0  0  0  0  0  0  0  0  0  0  0
   32.3926   30.7911   18.9517 C   0  0  0  0  0  0  0  0  0  0  0  0
   33.7411   30.9317   18.4520 C   0  0  0  0  0  0  0  0  0  0  0  0
   35.4476   28.5184   20.9094 O   0  0  0  0  0  0  0  0  0  0  0  0
   35.9745   28.8663   22.2057 C   0  0  0  0  0  0  0  0  0  0  0  0
   37.4576   28.4406   22.1759 C   0  0  0  0  0  0  0  0  0  0  0  0
   38.1909   28.4346   23.1092 O   0  0  0  0  0  0  0  0  0  0  0  0
   37.8768   28.0589   20.9388 O   0  0  0  0  0  0  0  0  0  0  0  0
   37.8793   28.7018   23.9515 H   0  0  0  0  0  0  0  0  0  0  0  0
   35.1975   28.1957   23.3703 C   0  0  0  0  0  0  0  0  0  0  0  0
   35.4715   27.1500   23.8587 O   0  0  0  0  0  0  0  0  0  0  0  0
   34.1380   28.9373   23.7788 O   0  0  0  0  0  0  0  0  0  0  0  0
   33.9546   29.7588   23.3672 H   0  0  0  0  0  0  0  0  0  0  0  0
 33 34  2  0  0  0
 33 38  1  0  0  0
 34 35  1  0  0  0
 34 39  1  0  0  0
 35 36  2  0  0  0
 36 37  1  0  0  0
 37 38  2  0  0  0
 37 32  1  0  0  0
  1  2  1  0  0  0
  1 11  1  0  0  0
  1 32  1  0  0  0
  2  3  1  0  0  0
  3  4  2  0  0  0
  3  6  1  0  0  0
 11 12  1  0  0  0
 11 13  2  0  0  0
 12 15  1  0  0  0
 15 16  1  0  0  0
 16 17  1  0  0  0
 18 17  1  0  0  0
 18 19  1  0  0  0
 19 20  1  0  0  0
  6  7  1  0  0  0
 40 45  1  0  0  0
 40 41  1  0  0  0
 40 39  1  0  0  0
 45 46  2  0  0  0
 45 47  1  0  0  0
 41 42  1  0  0  0
 41 43  2  0  0  0
 20 21  2  0  0  0
 20 25  1  0  0  0
 21 22  1  0  0  0
 22 23  2  0  0  0
 23 24  1  0  0  0
 24 25  2  0  0  0
 24 26  1  0  0  0
 25 28  1  0  0  0
 28 29  2  0  0  0
 28 30  1  0  0  0
 30 31  1  0  0  0
  7  8  1  0  0  0
  7  9  1  0  0  0
  7 10  1  0  0  0
  2  5  1  0  0  0
 12 14  1  0  0  0
 42 44  1  0  0  0
 26 27  1  0  0  0
 47 48  1  0  0  0
M  END
> <minimizedAffinity>
-7.28137

$$$$
1PYN_941_A_322


 48 49  0  0  0  0  0  0  0  0999 V2000
   30.5411   30.5907   18.4654 C   0  0  0  0  0  0  0  0  0  0  0  0
   30.6552   31.8463   17.7358 N   0  0  0  0  0  0  0  0  0  0  0  0
   31.3629   32.1142   16.6328 C   0  0  0  0  0  0  0  0  0  0  0  0
   32.0274   31.2524   16.1178 O   0  0  0  0  0  0  0  0  0  0  0  0
   30.1414   32.6006   18.1048 H   0  0  0  0  0  0  0  0  0  0  0  0
   31.2725   33.3668   16.1485 O   0  0  0  0  0  0  0  0  0  0  0  0
   30.7142   33.7691   14.8053 C   0  0  0  0  0  0  0  0  0  0  0  0
   31.7892   33.6068   13.6752 C   0  0  0  0  0  0  0  0  0  0  0  0
   30.2564   35.2445   14.8549 C   0  0  0  0  0  0  0  0  0  0  0  0
   29.5045   32.8692   14.4080 C   0  0  0  0  0  0  0  0  0  0  0  0
   29.1027   30.0081   18.6600 C   0  0  0  0  0  0  0  0  0  0  0  0
   28.4505   30.4690   19.7361 N   0  0  0  0  0  0  0  0  0  0  0  0
   28.6596   29.1582   17.8608 O   0  0  0  0  0  0  0  0  0  0  0  0
   28.9060   31.1399   20.2943 H   0  0  0  0  0  0  0  0  0  0  0  0
   27.0926   30.0406   20.1456 C   0  0  0  0  0  0  0  0  0  0  0  0
   26.5880   31.0489   21.2156 C   0  0  0  0  0  0  0  0  0  0  0  0
   25.7983   30.3471   22.3557 C   0  0  0  0  0  0  0  0  0  0  0  0
   24.4253   29.8743   21.9390 C   0  0  0  0  0  0  0  0  0  0  0  0
   23.5585   29.8995   23.0794 O   0  0  0  0  0  0  0  0  0  0  0  0
   22.6173   30.9616   23.2452 C   0  0  0  0  0  0  0  0  0  0  0  0
   22.5757   32.1426   22.3649 C   0  0  0  0  0  0  0  0  0  0  0  0
   21.6153   33.1819   22.5761 C   0  0  0  0  0  0  0  0  0  0  0  0
   20.6802   33.0767   23.6552 C   0  0  0  0  0  0  0  0  0  0  0  0
   20.6944   31.9424   24.5261 C   0  0  0  0  0  0  0  0  0  0  0  0
   21.6564   30.8731   24.3387 C   0  0  0  0  0  0  0  0  0  0  0  0
   19.7603   31.9334   25.5318 O   0  0  0  0  0  0  0  0  0  0  0  0
   19.1569   32.6451   25.6172 H   0  0  0  0  0  0  0  0  0  0  0  0
   21.6302   29.7131   25.2792 C   0  0  0  0  0  0  0  0  0  0  0  0
   22.2957   29.7247   26.2976 O   0  0  0  0  0  0  0  0  0  0  0  0
   20.8265   28.6842   24.9223 O   0  0  0  0  0  0  0  0  0  0  0  0
   20.1713   28.6443   23.6175 C   0  0  0  0  0  0  0  0  0  0  0  0
   31.2583   30.7815   19.8573 C   0  0  0  0  0  0  0  0  0  0  0  0
   35.0173   30.0224   19.1754 C   0  0  0  0  0  0  0  0  0  0  0  0
   35.2029   28.7857   19.9566 C   0  0  0  0  0  0  0  0  0  0  0  0
   34.0930   28.2691   20.6777 C   0  0  0  0  0  0  0  0  0  0  0  0
   32.8214   28.9187   20.6525 C   0  0  0  0  0  0  0  0  0  0  0  0
   32.6325   30.1170   19.8936 C   0  0  0  0  0  0  0  0  0  0  0  0
   33.7473   30.6638   19.1546 C   0  0  0  0  0  0  0  0  0  0  0  0
   36.3464   27.9981   20.1106 O   0  0  0  0  0  0  0  0  0  0  0  0
   37.6944   28.5021   20.0197 C   0  0  0  0  0  0  0  0  0  0  0  0
   38.4043   27.5977   18.9904 C   0  0  0  0  0  0  0  0  0  0  0  0
   39.5793   27.4671   18.8836 O   0  0  0  0  0  0  0  0  0  0  0  0
   37.5377   26.9351   18.1770 O   0  0  0  0  0  0  0  0  0  0  0  0
   40.1564   27.9339   19.4553 H   0  0  0  0  0  0  0  0  0  0  0  0
   38.4253   28.5143   21.3891 C   0  0  0  0  0  0  0  0  0  0  0  0
   39.5551   28.8355   21.5551 O   0  0  0  0  0  0  0  0  0  0  0  0
   37.6275   28.0991   22.4042 O   0  0  0  0  0  0  0  0  0  0  0  0
   36.7398   27.8537   22.2320 H   0  0  0  0  0  0  0  0  0  0  0  0
 33 34  2  0  0  0
 33 38  1  0  0  0
 34 35  1  0  0  0
 34 39  1  0  0  0
 35 36  2  0  0  0
 36 37  1  0  0  0
 37 38  2  0  0  0
 37 32  1  0  0  0
  1  2  1  0  0  0
  1 11  1  0  0  0
  1 32  1  0  0  0
  2  3  1  0  0  0
  3  4  2  0  0  0
  3  6  1  0  0  0
 11 12  1  0  0  0
 11 13  2  0  0  0
 12 15  1  0  0  0
 15 16  1  0  0  0
 16 17  1  0  0  0
 18 17  1  0  0  0
 18 19  1  0  0  0
 19 20  1  0  0  0
  6  7  1  0  0  0
 40 45  1  0  0  0
 40 41  1  0  0  0
 40 39  1  0  0  0
 45 46  2  0  0  0
 45 47  1  0  0  0
 41 42  1  0  0  0
 41 43  2  0  0  0
 20 21  2  0  0  0
 20 25  1  0  0  0
 21 22  1  0  0  0
 22 23  2  0  0  0
 23 24  1  0  0  0
 24 25  2  0  0  0
 24 26  1  0  0  0
 25 28  1  0  0  0
 28 29  2  0  0  0
 28 30  1  0  0  0
 30 31  1  0  0  0
  7  8  1  0  0  0
  7  9  1  0  0  0
  7 10  1  0  0  0
  2  5  1  0  0  0
 12 14  1  0  0  0
 42 44  1  0  0  0
 26 27  1  0  0  0
 47 48  1  0  0  0
M  END
> <minimizedAffinity>
-7.19981

$$$$
1PYN_941_A_322


 48 49  0  0  0  0  0  0  0  0999 V2000
   31.1740   31.0488   17.1459 C   0  0  0  0  0  0  0  0  0  0  0  0
   30.4857   32.1401   16.4696 N   0  0  0  0  0  0  0  0  0  0  0  0
   30.4081   32.3992   15.1596 C   0  0  0  0  0  0  0  0  0  0  0  0
   30.9627   31.6810   14.3684 O   0  0  0  0  0  0  0  0  0  0  0  0
   30.0132   32.7734   17.0569 H   0  0  0  0  0  0  0  0  0  0  0  0
   29.6809   33.4732   14.8000 O   0  0  0  0  0  0  0  0  0  0  0  0
   30.2095   34.7491   14.1913 C   0  0  0  0  0  0  0  0  0  0  0  0
   30.4178   34.5932   12.6450 C   0  0  0  0  0  0  0  0  0  0  0  0
   31.5610   35.1147   14.8458 C   0  0  0  0  0  0  0  0  0  0  0  0
   29.2061   35.9252   14.3937 C   0  0  0  0  0  0  0  0  0  0  0  0
   30.3948   29.7012   17.2986 C   0  0  0  0  0  0  0  0  0  0  0  0
   30.9017   28.6766   16.5993 N   0  0  0  0  0  0  0  0  0  0  0  0
   29.3680   29.6501   18.0059 O   0  0  0  0  0  0  0  0  0  0  0  0
   31.7188   28.8405   16.0751 H   0  0  0  0  0  0  0  0  0  0  0  0
   30.3200   27.3147   16.5588 C   0  0  0  0  0  0  0  0  0  0  0  0
   31.4122   26.3257   17.0542 C   0  0  0  0  0  0  0  0  0  0  0  0
   31.9996   26.7433   18.4313 C   0  0  0  0  0  0  0  0  0  0  0  0
   32.3771   25.5726   19.3086 C   0  0  0  0  0  0  0  0  0  0  0  0
   32.8372   24.4989   18.4792 O   0  0  0  0  0  0  0  0  0  0  0  0
   34.1247   23.9198   18.6992 C   0  0  0  0  0  0  0  0  0  0  0  0
   34.3785   22.8918   19.7240 C   0  0  0  0  0  0  0  0  0  0  0  0
   35.6883   22.3462   19.9077 C   0  0  0  0  0  0  0  0  0  0  0  0
   36.7693   22.8016   19.0866 C   0  0  0  0  0  0  0  0  0  0  0  0
   36.5548   23.7972   18.0827 C   0  0  0  0  0  0  0  0  0  0  0  0
   35.2388   24.3705   17.8731 C   0  0  0  0  0  0  0  0  0  0  0  0
   37.6528   24.1697   17.3481 O   0  0  0  0  0  0  0  0  0  0  0  0
   38.4852   23.7738   17.5163 H   0  0  0  0  0  0  0  0  0  0  0  0
   35.0708   25.4097   16.8138 C   0  0  0  0  0  0  0  0  0  0  0  0
   35.3543   26.5721   17.0342 O   0  0  0  0  0  0  0  0  0  0  0  0
   34.5998   24.9671   15.6246 O   0  0  0  0  0  0  0  0  0  0  0  0
   34.1013   25.8911   14.6092 C   0  0  0  0  0  0  0  0  0  0  0  0
   31.6460   31.5823   18.5531 C   0  0  0  0  0  0  0  0  0  0  0  0
   32.8531   28.9874   21.1952 C   0  0  0  0  0  0  0  0  0  0  0  0
   34.2055   28.6808   20.6940 C   0  0  0  0  0  0  0  0  0  0  0  0
   34.6500   29.3282   19.5100 C   0  0  0  0  0  0  0  0  0  0  0  0
   33.8198   30.2587   18.8139 C   0  0  0  0  0  0  0  0  0  0  0  0
   32.5078   30.5643   19.2962 C   0  0  0  0  0  0  0  0  0  0  0  0
   32.0318   29.9159   20.4966 C   0  0  0  0  0  0  0  0  0  0  0  0
   35.1703   27.8174   21.2187 O   0  0  0  0  0  0  0  0  0  0  0  0
   36.5922   28.0302   21.1088 C   0  0  0  0  0  0  0  0  0  0  0  0
   37.1178   26.8656   20.2434 C   0  0  0  0  0  0  0  0  0  0  0  0
   37.3596   26.9250   19.0828 O   0  0  0  0  0  0  0  0  0  0  0  0
   37.2862   25.7133   20.9474 O   0  0  0  0  0  0  0  0  0  0  0  0
   37.2357   27.7297   18.6191 H   0  0  0  0  0  0  0  0  0  0  0  0
   37.2987   28.0974   22.4893 C   0  0  0  0  0  0  0  0  0  0  0  0
   38.3509   28.6062   22.6918 O   0  0  0  0  0  0  0  0  0  0  0  0
   36.5811   27.4901   23.4669 O   0  0  0  0  0  0  0  0  0  0  0  0
   35.7533   27.0994   23.2665 H   0  0  0  0  0  0  0  0  0  0  0  0
 33 34  2  0  0  0
 33 38  1  0  0  0
 34 35  1  0  0  0
 34 39  1  0  0  0
 35 36  2  0  0  0
 36 37  1  0  0  0
 37 38  2  0  0  0
 37 32  1  0  0  0
  1  2  1  0  0  0
  1 11  1  0  0  0
  1 32  1  0  0  0
  2  3  1  0  0  0
  3  4  2  0  0  0
  3  6  1  0  0  0
 11 12  1  0  0  0
 11 13  2  0  0  0
 12 15  1  0  0  0
 15 16  1  0  0  0
 16 17  1  0  0  0
 18 17  1  0  0  0
 18 19  1  0  0  0
 19 20  1  0  0  0
  6  7  1  0  0  0
 40 45  1  0  0  0
 40 41  1  0  0  0
 40 39  1  0  0  0
 45 46  2  0  0  0
 45 47  1  0  0  0
 41 42  1  0  0  0
 41 43  2  0  0  0
 20 21  2  0  0  0
 20 25  1  0  0  0
 21 22  1  0  0  0
 22 23  2  0  0  0
 23 24  1  0  0  0
 24 25  2  0  0  0
 24 26  1  0  0  0
 25 28  1  0  0  0
 28 29  2  0  0  0
 28 30  1  0  0  0
 30 31  1  0  0  0
  7  8  1  0  0  0
  7  9  1  0  0  0
  7 10  1  0  0  0
  2  5  1  0  0  0
 12 14  1  0  0  0
 42 44  1  0  0  0
 26 27  1  0  0  0
 47 48  1  0  0  0
M  END
> <minimizedAffinity>
-7.12873

$$$$
