1G3D_108_A_601


 23 23  0  0  0  0  0  0  0  0999 V2000
   43.9539   -2.6824   26.2175 C   0  0  0  0  0  0  0  0  0  0  0  0
   43.3290   -3.1784   27.3581 C   0  0  0  0  0  0  0  0  0  0  0  0
   43.0843   -2.3584   28.4668 C   0  0  0  0  0  0  0  0  0  0  0  0
   43.4773   -1.0218   28.4172 C   0  0  0  0  0  0  0  0  0  0  0  0
   44.0991   -0.5346   27.2732 C   0  0  0  0  0  0  0  0  0  0  0  0
   44.3349   -1.3511   26.1881 C   0  0  0  0  0  0  0  0  0  0  0  0
   43.2962   -0.1303   29.4129 O   0  0  0  0  0  0  0  0  0  0  0  0
   42.8829   -0.3963   30.2106 H   0  0  0  0  0  0  0  0  0  0  0  0
   44.2807   -3.5583   25.1062 C   0  0  0  0  0  0  0  0  0  0  0  0
   44.6173   -3.0416   23.9325 N   0  0  0  0  0  0  0  0  0  0  0  0
   44.2503   -4.8743   25.2595 N   0  0  0  0  0  0  0  0  0  0  0  0
   44.6414   -2.0646   23.8134 H   0  0  0  0  0  0  0  0  0  0  0  0
   44.8430   -3.6350   23.1800 H   0  0  0  0  0  0  0  0  0  0  0  0
   44.0010   -5.2630   26.1290 H   0  0  0  0  0  0  0  0  0  0  0  0
   42.4286   -2.9231   29.6328 C   0  0  0  0  0  0  0  0  0  0  0  0
   41.5289   -2.3131   30.3541 N   0  0  0  0  0  0  0  0  0  0  0  0
   41.9368   -1.4348   30.6743 H   0  0  0  0  0  0  0  0  0  0  0  0
   40.2557   -1.9969   29.7102 C   0  0  0  0  0  0  0  0  0  0  0  0
   39.2616   -3.1253   29.9376 C   0  0  0  0  0  0  0  0  0  0  0  0
   39.6854   -0.6851   30.2352 C   0  0  0  0  0  0  0  0  0  0  0  0
   38.5508   -0.6904   30.7283 O   0  0  0  0  0  0  0  0  0  0  0  0
   40.4358    0.3547   30.1281 O   0  0  0  0  0  0  0  0  0  0  0  0
   41.2864    0.2809   29.7419 H   0  0  0  0  0  0  0  0  0  0  0  0
  1  2  2  0  0  0
  1  6  1  0  0  0
  1  9  1  0  0  0
  2  3  1  0  0  0
  3  4  2  0  0  0
  3 15  1  0  0  0
  4  5  1  0  0  0
  4  7  1  0  0  0
  5  6  2  0  0  0
 15 16  1  0  0  0
  9 10  1  0  0  0
  9 11  2  0  0  0
 16 18  1  0  0  0
 18 19  1  0  0  0
 18 20  1  0  0  0
 20 21  2  0  0  0
 20 22  1  0  0  0
  7  8  1  0  0  0
 10 12  1  0  0  0
 10 13  1  0  0  0
 11 14  1  0  0  0
 16 17  1  0  0  0
 22 23  1  0  0  0
M  END
> <minimizedAffinity>
-7.65909

$$$$
1G3D_108_A_601


 23 23  0  0  0  0  0  0  0  0999 V2000
   43.9557   -2.8632   26.3020 C   0  0  0  0  0  0  0  0  0  0  0  0
   43.1514   -3.3557   27.3258 C   0  0  0  0  0  0  0  0  0  0  0  0
   43.0559   -2.6940   28.5564 C   0  0  0  0  0  0  0  0  0  0  0  0
   43.7834   -1.5207   28.7498 C   0  0  0  0  0  0  0  0  0  0  0  0
   44.5826   -1.0350   27.7211 C   0  0  0  0  0  0  0  0  0  0  0  0
   44.6689   -1.6950   26.5141 C   0  0  0  0  0  0  0  0  0  0  0  0
   43.7750   -0.7894   29.8830 O   0  0  0  0  0  0  0  0  0  0  0  0
   43.2562   -1.0634   30.6136 H   0  0  0  0  0  0  0  0  0  0  0  0
   44.1161   -3.5993   25.0606 C   0  0  0  0  0  0  0  0  0  0  0  0
   44.6755   -3.0137   24.0109 N   0  0  0  0  0  0  0  0  0  0  0  0
   43.7109   -4.8580   24.9713 N   0  0  0  0  0  0  0  0  0  0  0  0
   44.9782   -2.0789   24.0720 H   0  0  0  0  0  0  0  0  0  0  0  0
   44.7883   -3.5137   23.1703 H   0  0  0  0  0  0  0  0  0  0  0  0
   43.2949   -5.2975   25.7479 H   0  0  0  0  0  0  0  0  0  0  0  0
   42.2025   -3.2478   29.5925 C   0  0  0  0  0  0  0  0  0  0  0  0
   41.4098   -2.5521   30.3602 N   0  0  0  0  0  0  0  0  0  0  0  0
   40.4869   -2.5498   29.9258 H   0  0  0  0  0  0  0  0  0  0  0  0
   41.2448   -3.0060   31.7395 C   0  0  0  0  0  0  0  0  0  0  0  0
   40.6507   -4.4059   31.7605 C   0  0  0  0  0  0  0  0  0  0  0  0
   42.5735   -2.9915   32.4853 C   0  0  0  0  0  0  0  0  0  0  0  0
   43.1599   -1.9112   32.6250 O   0  0  0  0  0  0  0  0  0  0  0  0
   43.0006   -4.1225   32.9260 O   0  0  0  0  0  0  0  0  0  0  0  0
   42.4998   -4.9011   32.7813 H   0  0  0  0  0  0  0  0  0  0  0  0
  1  2  2  0  0  0
  1  6  1  0  0  0
  1  9  1  0  0  0
  2  3  1  0  0  0
  3  4  2  0  0  0
  3 15  1  0  0  0
  4  5  1  0  0  0
  4  7  1  0  0  0
  5  6  2  0  0  0
 15 16  1  0  0  0
  9 10  1  0  0  0
  9 11  2  0  0  0
 16 18  1  0  0  0
 18 19  1  0  0  0
 18 20  1  0  0  0
 20 21  2  0  0  0
 20 22  1  0  0  0
  7  8  1  0  0  0
 10 12  1  0  0  0
 10 13  1  0  0  0
 11 14  1  0  0  0
 16 17  1  0  0  0
 22 23  1  0  0  0
M  END
> <minimizedAffinity>
-7.11440

$$$$
1G3D_108_A_601


 23 23  0  0  0  0  0  0  0  0999 V2000
   44.0741   -2.8428   26.3072 C   0  0  0  0  0  0  0  0  0  0  0  0
   43.8341   -3.4753   27.5237 C   0  0  0  0  0  0  0  0  0  0  0  0
   43.6958   -2.7419   28.7088 C   0  0  0  0  0  0  0  0  0  0  0  0
   43.8017   -1.3529   28.6588 C   0  0  0  0  0  0  0  0  0  0  0  0
   44.0395   -0.7293   27.4392 C   0  0  0  0  0  0  0  0  0  0  0  0
   44.1740   -1.4616   26.2792 C   0  0  0  0  0  0  0  0  0  0  0  0
   43.6844   -0.5345   29.7244 O   0  0  0  0  0  0  0  0  0  0  0  0
   43.5236   -0.8930   30.5750 H   0  0  0  0  0  0  0  0  0  0  0  0
   44.3009   -3.6141   25.0980 C   0  0  0  0  0  0  0  0  0  0  0  0
   44.1777   -4.9340   25.1215 N   0  0  0  0  0  0  0  0  0  0  0  0
   44.6257   -3.0053   23.9665 N   0  0  0  0  0  0  0  0  0  0  0  0
   43.9366   -5.3911   25.9594 H   0  0  0  0  0  0  0  0  0  0  0  0
   44.3273   -5.4570   24.3009 H   0  0  0  0  0  0  0  0  0  0  0  0
   44.7184   -2.0255   23.9437 H   0  0  0  0  0  0  0  0  0  0  0  0
   43.4455   -3.4486   29.9523 C   0  0  0  0  0  0  0  0  0  0  0  0
   43.7050   -4.7097   30.1617 N   0  0  0  0  0  0  0  0  0  0  0  0
   44.5662   -4.7592   30.7060 H   0  0  0  0  0  0  0  0  0  0  0  0
   42.6936   -5.4935   30.8678 C   0  0  0  0  0  0  0  0  0  0  0  0
   42.3675   -4.8425   32.2030 C   0  0  0  0  0  0  0  0  0  0  0  0
   41.4268   -5.6355   30.0329 C   0  0  0  0  0  0  0  0  0  0  0  0
   40.3355   -5.4259   30.5764 O   0  0  0  0  0  0  0  0  0  0  0  0
   41.5824   -5.9685   28.7997 O   0  0  0  0  0  0  0  0  0  0  0  0
   42.4431   -6.1110   28.4578 H   0  0  0  0  0  0  0  0  0  0  0  0
  1  2  2  0  0  0
  1  6  1  0  0  0
  1  9  1  0  0  0
  2  3  1  0  0  0
  3  4  2  0  0  0
  3 15  1  0  0  0
  4  5  1  0  0  0
  4  7  1  0  0  0
  5  6  2  0  0  0
 15 16  1  0  0  0
  9 10  1  0  0  0
  9 11  2  0  0  0
 16 18  1  0  0  0
 18 19  1  0  0  0
 18 20  1  0  0  0
 20 21  2  0  0  0
 20 22  1  0  0  0
  7  8  1  0  0  0
 10 12  1  0  0  0
 10 13  1  0  0  0
 11 14  1  0  0  0
 16 17  1  0  0  0
 22 23  1  0  0  0
M  END
> <minimizedAffinity>
-6.97398

$$$$
1G3D_108_A_601


 23 23  0  0  0  0  0  0  0  0999 V2000
   44.0708   -2.8223   26.2801 C   0  0  0  0  0  0  0  0  0  0  0  0
   43.8103   -3.4547   27.4925 C   0  0  0  0  0  0  0  0  0  0  0  0
   43.6673   -2.7223   28.6776 C   0  0  0  0  0  0  0  0  0  0  0  0
   43.7895   -1.3344   28.6318 C   0  0  0  0  0  0  0  0  0  0  0  0
   44.0477   -0.7110   27.4163 C   0  0  0  0  0  0  0  0  0  0  0  0
   44.1867   -1.4423   26.2562 C   0  0  0  0  0  0  0  0  0  0  0  0
   43.6698   -0.5170   29.6979 O   0  0  0  0  0  0  0  0  0  0  0  0
   43.4956   -0.8755   30.5459 H   0  0  0  0  0  0  0  0  0  0  0  0
   44.3021   -3.5937   25.0717 C   0  0  0  0  0  0  0  0  0  0  0  0
   44.1943   -4.9148   25.0984 N   0  0  0  0  0  0  0  0  0  0  0  0
   44.6157   -2.9836   23.9377 N   0  0  0  0  0  0  0  0  0  0  0  0
   43.9616   -5.3728   25.9383 H   0  0  0  0  0  0  0  0  0  0  0  0
   44.3469   -5.4379   24.2785 H   0  0  0  0  0  0  0  0  0  0  0  0
   44.6971   -2.0028   23.9125 H   0  0  0  0  0  0  0  0  0  0  0  0
   43.3954   -3.4286   29.9167 C   0  0  0  0  0  0  0  0  0  0  0  0
   43.9633   -4.5447   30.2820 N   0  0  0  0  0  0  0  0  0  0  0  0
   44.6539   -4.3173   30.9974 H   0  0  0  0  0  0  0  0  0  0  0  0
   43.0983   -5.5908   30.8235 C   0  0  0  0  0  0  0  0  0  0  0  0
   42.1122   -6.0535   29.7621 C   0  0  0  0  0  0  0  0  0  0  0  0
   43.9160   -6.7736   31.3276 C   0  0  0  0  0  0  0  0  0  0  0  0
   43.8600   -7.8391   30.7015 O   0  0  0  0  0  0  0  0  0  0  0  0
   44.6203   -6.5791   32.3869 O   0  0  0  0  0  0  0  0  0  0  0  0
   44.6121   -5.7420   32.8077 H   0  0  0  0  0  0  0  0  0  0  0  0
  1  2  2  0  0  0
  1  6  1  0  0  0
  1  9  1  0  0  0
  2  3  1  0  0  0
  3  4  2  0  0  0
  3 15  1  0  0  0
  4  5  1  0  0  0
  4  7  1  0  0  0
  5  6  2  0  0  0
 15 16  1  0  0  0
  9 10  1  0  0  0
  9 11  2  0  0  0
 16 18  1  0  0  0
 18 19  1  0  0  0
 18 20  1  0  0  0
 20 21  2  0  0  0
 20 22  1  0  0  0
  7  8  1  0  0  0
 10 12  1  0  0  0
 10 13  1  0  0  0
 11 14  1  0  0  0
 16 17  1  0  0  0
 22 23  1  0  0  0
M  END
> <minimizedAffinity>
-6.80736

$$$$
1G3D_108_A_601


 23 23  0  0  0  0  0  0  0  0999 V2000
   43.8970   -2.4985   26.5498 C   0  0  0  0  0  0  0  0  0  0  0  0
   43.4503   -3.6393   27.2106 C   0  0  0  0  0  0  0  0  0  0  0  0
   43.2543   -3.6454   28.5973 C   0  0  0  0  0  0  0  0  0  0  0  0
   43.5137   -2.4823   29.3204 C   0  0  0  0  0  0  0  0  0  0  0  0
   43.9577   -1.3470   28.6520 C   0  0  0  0  0  0  0  0  0  0  0  0
   44.1472   -1.3528   27.2868 C   0  0  0  0  0  0  0  0  0  0  0  0
   43.3615   -2.3570   30.6547 O   0  0  0  0  0  0  0  0  0  0  0  0
   43.0651   -3.0863   31.1629 H   0  0  0  0  0  0  0  0  0  0  0  0
   44.1792   -2.5245   25.1256 C   0  0  0  0  0  0  0  0  0  0  0  0
   44.1316   -1.4028   24.4203 N   0  0  0  0  0  0  0  0  0  0  0  0
   44.4905   -3.6644   24.5253 N   0  0  0  0  0  0  0  0  0  0  0  0
   43.9009   -0.5535   24.8614 H   0  0  0  0  0  0  0  0  0  0  0  0
   44.3270   -1.4193   23.4555 H   0  0  0  0  0  0  0  0  0  0  0  0
   44.5272   -4.5001   25.0445 H   0  0  0  0  0  0  0  0  0  0  0  0
   42.7864   -4.8606   29.2397 C   0  0  0  0  0  0  0  0  0  0  0  0
   41.5785   -5.3428   29.1391 N   0  0  0  0  0  0  0  0  0  0  0  0
   41.6619   -6.3441   28.9633 H   0  0  0  0  0  0  0  0  0  0  0  0
   40.6907   -5.1710   30.2872 C   0  0  0  0  0  0  0  0  0  0  0  0
   40.0207   -3.8069   30.2290 C   0  0  0  0  0  0  0  0  0  0  0  0
   39.6355   -6.2693   30.3350 C   0  0  0  0  0  0  0  0  0  0  0  0
   39.7150   -7.1994   29.5232 O   0  0  0  0  0  0  0  0  0  0  0  0
   38.7199   -6.1517   31.2315 O   0  0  0  0  0  0  0  0  0  0  0  0
   38.7252   -5.4170   31.8130 H   0  0  0  0  0  0  0  0  0  0  0  0
  1  2  2  0  0  0
  1  6  1  0  0  0
  1  9  1  0  0  0
  2  3  1  0  0  0
  3  4  2  0  0  0
  3 15  1  0  0  0
  4  5  1  0  0  0
  4  7  1  0  0  0
  5  6  2  0  0  0
 15 16  1  0  0  0
  9 10  1  0  0  0
  9 11  2  0  0  0
 16 18  1  0  0  0
 18 19  1  0  0  0
 18 20  1  0  0  0
 20 21  2  0  0  0
 20 22  1  0  0  0
  7  8  1  0  0  0
 10 12  1  0  0  0
 10 13  1  0  0  0
 11 14  1  0  0  0
 16 17  1  0  0  0
 22 23  1  0  0  0
M  END
> <minimizedAffinity>
-5.99456

$$$$
1G3D_108_A_601


 23 23  0  0  0  0  0  0  0  0999 V2000
   42.3302   -3.4957   32.1830 C   0  0  0  0  0  0  0  0  0  0  0  0
   43.0156   -3.1503   31.0216 C   0  0  0  0  0  0  0  0  0  0  0  0
   42.8751   -3.8982   29.8459 C   0  0  0  0  0  0  0  0  0  0  0  0
   42.0304   -5.0071   29.8485 C   0  0  0  0  0  0  0  0  0  0  0  0
   41.3483   -5.3435   31.0123 C   0  0  0  0  0  0  0  0  0  0  0  0
   41.4946   -4.6001   32.1637 C   0  0  0  0  0  0  0  0  0  0  0  0
   41.8061   -5.8047   28.7843 O   0  0  0  0  0  0  0  0  0  0  0  0
   42.2359   -5.6312   27.9700 H   0  0  0  0  0  0  0  0  0  0  0  0
   42.5462   -2.7671   33.4204 C   0  0  0  0  0  0  0  0  0  0  0  0
   42.4069   -3.3845   34.5854 N   0  0  0  0  0  0  0  0  0  0  0  0
   42.8880   -1.4869   33.3928 N   0  0  0  0  0  0  0  0  0  0  0  0
   42.1531   -4.3354   34.6114 H   0  0  0  0  0  0  0  0  0  0  0  0
   42.5573   -2.8921   35.4246 H   0  0  0  0  0  0  0  0  0  0  0  0
   42.9927   -1.0239   32.5303 H   0  0  0  0  0  0  0  0  0  0  0  0
   43.6111   -3.4965   28.6604 C   0  0  0  0  0  0  0  0  0  0  0  0
   43.0701   -3.0740   27.5512 N   0  0  0  0  0  0  0  0  0  0  0  0
   42.0587   -3.0761   27.6833 H   0  0  0  0  0  0  0  0  0  0  0  0
   43.4494   -1.7416   27.0859 C   0  0  0  0  0  0  0  0  0  0  0  0
   44.0164   -0.9281   28.2391 C   0  0  0  0  0  0  0  0  0  0  0  0
   44.4673   -1.8237   25.9549 C   0  0  0  0  0  0  0  0  0  0  0  0
   45.6301   -1.4666   26.1806 O   0  0  0  0  0  0  0  0  0  0  0  0
   44.0402   -2.2665   24.8247 O   0  0  0  0  0  0  0  0  0  0  0  0
   43.1428   -2.5187   24.7292 H   0  0  0  0  0  0  0  0  0  0  0  0
  1  2  2  0  0  0
  1  6  1  0  0  0
  1  9  1  0  0  0
  2  3  1  0  0  0
  3  4  2  0  0  0
  3 15  1  0  0  0
  4  5  1  0  0  0
  4  7  1  0  0  0
  5  6  2  0  0  0
 15 16  1  0  0  0
  9 10  1  0  0  0
  9 11  2  0  0  0
 16 18  1  0  0  0
 18 19  1  0  0  0
 18 20  1  0  0  0
 20 21  2  0  0  0
 20 22  1  0  0  0
  7  8  1  0  0  0
 10 12  1  0  0  0
 10 13  1  0  0  0
 11 14  1  0  0  0
 16 17  1  0  0  0
 22 23  1  0  0  0
M  END
> <minimizedAffinity>
-5.67796

$$$$
1G3D_108_A_601


 23 23  0  0  0  0  0  0  0  0999 V2000
   43.3228   -2.2392   28.3323 C   0  0  0  0  0  0  0  0  0  0  0  0
   42.0287   -1.9996   28.7858 C   0  0  0  0  0  0  0  0  0  0  0  0
   41.2236   -3.0397   29.2667 C   0  0  0  0  0  0  0  0  0  0  0  0
   41.7368   -4.3355   29.2881 C   0  0  0  0  0  0  0  0  0  0  0  0
   43.0310   -4.5653   28.8351 C   0  0  0  0  0  0  0  0  0  0  0  0
   43.8142   -3.5337   28.3638 C   0  0  0  0  0  0  0  0  0  0  0  0
   41.0672   -5.4200   29.7292 O   0  0  0  0  0  0  0  0  0  0  0  0
   40.1904   -5.3317   30.0476 H   0  0  0  0  0  0  0  0  0  0  0  0
   44.1205   -1.1711   27.7564 C   0  0  0  0  0  0  0  0  0  0  0  0
   44.0322    0.0585   28.2443 N   0  0  0  0  0  0  0  0  0  0  0  0
   44.9427   -1.4191   26.7469 N   0  0  0  0  0  0  0  0  0  0  0  0
   43.4230    0.2480   28.9941 H   0  0  0  0  0  0  0  0  0  0  0  0
   44.5759    0.7820   27.8569 H   0  0  0  0  0  0  0  0  0  0  0  0
   45.0119   -2.3304   26.3809 H   0  0  0  0  0  0  0  0  0  0  0  0
   39.8806   -2.7381   29.7292 C   0  0  0  0  0  0  0  0  0  0  0  0
   39.5945   -2.0082   30.7718 N   0  0  0  0  0  0  0  0  0  0  0  0
   40.4595   -1.5663   31.0832 H   0  0  0  0  0  0  0  0  0  0  0  0
   38.5998   -0.9518   30.5975 C   0  0  0  0  0  0  0  0  0  0  0  0
   37.4316   -1.1737   31.5457 C   0  0  0  0  0  0  0  0  0  0  0  0
   39.2114    0.4234   30.8355 C   0  0  0  0  0  0  0  0  0  0  0  0
   38.6390    1.1972   31.6127 O   0  0  0  0  0  0  0  0  0  0  0  0
   40.2992    0.6891   30.2016 O   0  0  0  0  0  0  0  0  0  0  0  0
   40.6751    0.0507   29.6279 H   0  0  0  0  0  0  0  0  0  0  0  0
  1  2  2  0  0  0
  1  6  1  0  0  0
  1  9  1  0  0  0
  2  3  1  0  0  0
  3  4  2  0  0  0
  3 15  1  0  0  0
  4  5  1  0  0  0
  4  7  1  0  0  0
  5  6  2  0  0  0
 15 16  1  0  0  0
  9 10  1  0  0  0
  9 11  2  0  0  0
 16 18  1  0  0  0
 18 19  1  0  0  0
 18 20  1  0  0  0
 20 21  2  0  0  0
 20 22  1  0  0  0
  7  8  1  0  0  0
 10 12  1  0  0  0
 10 13  1  0  0  0
 11 14  1  0  0  0
 16 17  1  0  0  0
 22 23  1  0  0  0
M  END
> <minimizedAffinity>
-5.46735

$$$$
1G3D_108_A_601


 23 23  0  0  0  0  0  0  0  0999 V2000
   42.6599   -5.4176   31.7877 C   0  0  0  0  0  0  0  0  0  0  0  0
   42.8210   -5.3706   30.4058 C   0  0  0  0  0  0  0  0  0  0  0  0
   43.0427   -4.1578   29.7414 C   0  0  0  0  0  0  0  0  0  0  0  0
   43.1021   -2.9813   30.4866 C   0  0  0  0  0  0  0  0  0  0  0  0
   42.9420   -3.0378   31.8665 C   0  0  0  0  0  0  0  0  0  0  0  0
   42.7241   -4.2373   32.5096 C   0  0  0  0  0  0  0  0  0  0  0  0
   43.3132   -1.7538   29.9692 O   0  0  0  0  0  0  0  0  0  0  0  0
   43.4288   -1.6484   29.0453 H   0  0  0  0  0  0  0  0  0  0  0  0
   42.3458   -6.6661   32.4594 C   0  0  0  0  0  0  0  0  0  0  0  0
   41.1483   -7.2153   32.3104 N   0  0  0  0  0  0  0  0  0  0  0  0
   43.2527   -7.2649   33.2180 N   0  0  0  0  0  0  0  0  0  0  0  0
   40.4711   -6.7746   31.7480 H   0  0  0  0  0  0  0  0  0  0  0  0
   40.9363   -8.0640   32.7623 H   0  0  0  0  0  0  0  0  0  0  0  0
   44.1434   -6.8612   33.3319 H   0  0  0  0  0  0  0  0  0  0  0  0
   43.2053   -4.1617   28.2985 C   0  0  0  0  0  0  0  0  0  0  0  0
   44.1309   -3.5124   27.6480 N   0  0  0  0  0  0  0  0  0  0  0  0
   44.8404   -4.1893   27.3674 H   0  0  0  0  0  0  0  0  0  0  0  0
   43.7213   -2.7833   26.4495 C   0  0  0  0  0  0  0  0  0  0  0  0
   44.2263   -1.3501   26.5126 C   0  0  0  0  0  0  0  0  0  0  0  0
   44.2390   -3.4642   25.1884 C   0  0  0  0  0  0  0  0  0  0  0  0
   44.4507   -2.7691   24.1872 O   0  0  0  0  0  0  0  0  0  0  0  0
   44.4238   -4.7360   25.2533 O   0  0  0  0  0  0  0  0  0  0  0  0
   44.2407   -5.1961   26.0488 H   0  0  0  0  0  0  0  0  0  0  0  0
  1  2  2  0  0  0
  1  6  1  0  0  0
  1  9  1  0  0  0
  2  3  1  0  0  0
  3  4  2  0  0  0
  3 15  1  0  0  0
  4  5  1  0  0  0
  4  7  1  0  0  0
  5  6  2  0  0  0
 15 16  1  0  0  0
  9 10  1  0  0  0
  9 11  2  0  0  0
 16 18  1  0  0  0
 18 19  1  0  0  0
 18 20  1  0  0  0
 20 21  2  0  0  0
 20 22  1  0  0  0
  7  8  1  0  0  0
 10 12  1  0  0  0
 10 13  1  0  0  0
 11 14  1  0  0  0
 16 17  1  0  0  0
 22 23  1  0  0  0
M  END
> <minimizedAffinity>
-5.37252

$$$$
1G3D_108_A_601


 23 23  0  0  0  0  0  0  0  0999 V2000
   42.6211   -5.5772   31.4446 C   0  0  0  0  0  0  0  0  0  0  0  0
   43.3309   -4.9203   30.4435 C   0  0  0  0  0  0  0  0  0  0  0  0
   42.6818   -4.1025   29.5102 C   0  0  0  0  0  0  0  0  0  0  0  0
   41.2987   -3.9494   29.5938 C   0  0  0  0  0  0  0  0  0  0  0  0
   40.5981   -4.6077   30.5981 C   0  0  0  0  0  0  0  0  0  0  0  0
   41.2477   -5.4103   31.5112 C   0  0  0  0  0  0  0  0  0  0  0  0
   40.5580   -3.1896   28.7614 O   0  0  0  0  0  0  0  0  0  0  0  0
   40.9709   -2.7201   28.0635 H   0  0  0  0  0  0  0  0  0  0  0  0
   43.2888   -6.4900   32.3555 C   0  0  0  0  0  0  0  0  0  0  0  0
   42.5746   -7.2430   33.1805 N   0  0  0  0  0  0  0  0  0  0  0  0
   44.6111   -6.5798   32.3636 N   0  0  0  0  0  0  0  0  0  0  0  0
   41.5921   -7.1800   33.1784 H   0  0  0  0  0  0  0  0  0  0  0  0
   43.0267   -7.8650   33.7953 H   0  0  0  0  0  0  0  0  0  0  0  0
   45.1461   -6.0229   31.7530 H   0  0  0  0  0  0  0  0  0  0  0  0
   43.4671   -3.4382   28.4853 C   0  0  0  0  0  0  0  0  0  0  0  0
   43.0620   -3.2016   27.2681 N   0  0  0  0  0  0  0  0  0  0  0  0
   42.4615   -2.3777   27.2997 H   0  0  0  0  0  0  0  0  0  0  0  0
   44.0878   -2.9587   26.2559 C   0  0  0  0  0  0  0  0  0  0  0  0
   43.9160   -3.9274   25.0961 C   0  0  0  0  0  0  0  0  0  0  0  0
   44.0308   -1.5226   25.7495 C   0  0  0  0  0  0  0  0  0  0  0  0
   43.8643   -0.6133   26.5717 O   0  0  0  0  0  0  0  0  0  0  0  0
   44.1623   -1.3520   24.4809 O   0  0  0  0  0  0  0  0  0  0  0  0
   44.2854   -2.0917   23.9190 H   0  0  0  0  0  0  0  0  0  0  0  0
  1  2  2  0  0  0
  1  6  1  0  0  0
  1  9  1  0  0  0
  2  3  1  0  0  0
  3  4  2  0  0  0
  3 15  1  0  0  0
  4  5  1  0  0  0
  4  7  1  0  0  0
  5  6  2  0  0  0
 15 16  1  0  0  0
  9 10  1  0  0  0
  9 11  2  0  0  0
 16 18  1  0  0  0
 18 19  1  0  0  0
 18 20  1  0  0  0
 20 21  2  0  0  0
 20 22  1  0  0  0
  7  8  1  0  0  0
 10 12  1  0  0  0
 10 13  1  0  0  0
 11 14  1  0  0  0
 16 17  1  0  0  0
 22 23  1  0  0  0
M  END
> <minimizedAffinity>
-5.26999

$$$$
1G3D_108_A_601


 23 23  0  0  0  0  0  0  0  0999 V2000
   43.2876   -2.1680   28.2929 C   0  0  0  0  0  0  0  0  0  0  0  0
   42.0940   -1.8151   28.9161 C   0  0  0  0  0  0  0  0  0  0  0  0
   41.2298   -2.7879   29.4339 C   0  0  0  0  0  0  0  0  0  0  0  0
   41.5806   -4.1321   29.3186 C   0  0  0  0  0  0  0  0  0  0  0  0
   42.7755   -4.4754   28.6964 C   0  0  0  0  0  0  0  0  0  0  0  0
   43.6181   -3.5091   28.1903 C   0  0  0  0  0  0  0  0  0  0  0  0
   40.8400   -5.1616   29.7776 O   0  0  0  0  0  0  0  0  0  0  0  0
   40.0236   -4.9967   30.2068 H   0  0  0  0  0  0  0  0  0  0  0  0
   44.1366   -1.1598   27.6834 C   0  0  0  0  0  0  0  0  0  0  0  0
   44.9354   -1.4869   26.6770 N   0  0  0  0  0  0  0  0  0  0  0  0
   44.1142    0.0899   28.1240 N   0  0  0  0  0  0  0  0  0  0  0  0
   44.9559   -2.4139   26.3460 H   0  0  0  0  0  0  0  0  0  0  0  0
   45.5081   -0.8028   26.2608 H   0  0  0  0  0  0  0  0  0  0  0  0
   43.5228    0.3380   28.8710 H   0  0  0  0  0  0  0  0  0  0  0  0
   39.9966   -2.3686   30.0756 C   0  0  0  0  0  0  0  0  0  0  0  0
   39.3366   -3.0678   30.9573 N   0  0  0  0  0  0  0  0  0  0  0  0
   39.4977   -2.6410   31.8696 H   0  0  0  0  0  0  0  0  0  0  0  0
   37.8911   -3.1827   30.7753 C   0  0  0  0  0  0  0  0  0  0  0  0
   37.2726   -1.8012   30.6268 C   0  0  0  0  0  0  0  0  0  0  0  0
   37.5567   -4.0379   29.5594 C   0  0  0  0  0  0  0  0  0  0  0  0
   37.8732   -5.2338   29.5742 O   0  0  0  0  0  0  0  0  0  0  0  0
   36.9580   -3.4476   28.5852 O   0  0  0  0  0  0  0  0  0  0  0  0
   36.7501   -2.5360   28.6466 H   0  0  0  0  0  0  0  0  0  0  0  0
  1  2  2  0  0  0
  1  6  1  0  0  0
  1  9  1  0  0  0
  2  3  1  0  0  0
  3  4  2  0  0  0
  3 15  1  0  0  0
  4  5  1  0  0  0
  4  7  1  0  0  0
  5  6  2  0  0  0
 15 16  1  0  0  0
  9 10  1  0  0  0
  9 11  2  0  0  0
 16 18  1  0  0  0
 18 19  1  0  0  0
 18 20  1  0  0  0
 20 21  2  0  0  0
 20 22  1  0  0  0
  7  8  1  0  0  0
 10 12  1  0  0  0
 10 13  1  0  0  0
 11 14  1  0  0  0
 16 17  1  0  0  0
 22 23  1  0  0  0
M  END
> <minimizedAffinity>
-4.85967

$$$$
