1O38_653_A_246


 36 39  0  0  0  0  0  0  0  0999 V2000
   42.9795   -1.8925   31.9730 C   0  0  0  0  0  0  0  0  0  0  0  0
   42.1907   -2.8689   32.6279 C   0  0  0  0  0  0  0  0  0  0  0  0
   41.9307   -2.8207   33.9988 C   0  0  0  0  0  0  0  0  0  0  0  0
   42.4672   -1.7697   34.7326 C   0  0  0  0  0  0  0  0  0  0  0  0
   43.2542   -0.7703   34.1521 C   0  0  0  0  0  0  0  0  0  0  0  0
   43.4956   -0.8503   32.7745 C   0  0  0  0  0  0  0  0  0  0  0  0
   44.2688    0.1263   32.2054 O   0  0  0  0  0  0  0  0  0  0  0  0
   44.0795   -2.9111   26.3714 C   0  0  0  0  0  0  0  0  0  0  0  0
   44.2269   -1.4788   26.3906 C   0  0  0  0  0  0  0  0  0  0  0  0
   44.0419   -0.7016   27.5297 C   0  0  0  0  0  0  0  0  0  0  0  0
   43.7099   -1.3679   28.6677 C   0  0  0  0  0  0  0  0  0  0  0  0
   43.5636   -2.7102   28.7183 C   0  0  0  0  0  0  0  0  0  0  0  0
   43.7267   -3.5404   27.6018 C   0  0  0  0  0  0  0  0  0  0  0  0
   43.4997   -0.9173   29.8582 N   0  0  0  0  0  0  0  0  0  0  0  0
   43.2505   -3.1264   29.9322 N   0  0  0  0  0  0  0  0  0  0  0  0
   43.2270   -1.9634   30.5784 C   0  0  0  0  0  0  0  0  0  0  0  0
   43.5378    0.0199   30.1572 H   0  0  0  0  0  0  0  0  0  0  0  0
   44.2878   -3.6407   25.1724 C   0  0  0  0  0  0  0  0  0  0  0  0
   44.2287   -4.9626   25.1834 N   0  0  0  0  0  0  0  0  0  0  0  0
   44.5332   -2.9684   24.0574 N   0  0  0  0  0  0  0  0  0  0  0  0
   44.0448   -5.4402   26.0244 H   0  0  0  0  0  0  0  0  0  0  0  0
   44.3685   -5.4685   24.3505 H   0  0  0  0  0  0  0  0  0  0  0  0
   44.5724   -1.9848   24.0742 H   0  0  0  0  0  0  0  0  0  0  0  0
   44.6764   -3.4524   23.2122 H   0  0  0  0  0  0  0  0  0  0  0  0
   43.7551    0.2511   34.9721 C   0  0  0  0  0  0  0  0  0  0  0  0
   45.0130    0.1763   35.5998 C   0  0  0  0  0  0  0  0  0  0  0  0
   45.4722    1.2046   36.4403 C   0  0  0  0  0  0  0  0  0  0  0  0
   44.6965    2.3349   36.6770 C   0  0  0  0  0  0  0  0  0  0  0  0
   43.4448    2.4350   36.0657 C   0  0  0  0  0  0  0  0  0  0  0  0
   42.9868    1.4086   35.2232 C   0  0  0  0  0  0  0  0  0  0  0  0
   41.0797   -3.9208   34.7170 C   0  0  0  0  0  0  0  0  0  0  0  0
   41.9570   -4.8409   35.6362 C   0  0  0  0  0  0  0  0  0  0  0  0
   42.7131   -5.8343   34.7735 N   0  0  0  0  0  0  0  0  0  0  0  0
   42.0489   -6.4048   34.2503 H   0  0  0  0  0  0  0  0  0  0  0  0
   43.2836   -6.4356   35.3679 H   0  0  0  0  0  0  0  0  0  0  0  0
   43.3151   -5.3301   34.1225 H   0  0  0  0  0  0  0  0  0  0  0  0
  8  9  2  0  0  0
  8 13  1  0  0  0
  8 18  1  0  0  0
  9 10  1  0  0  0
 10 11  2  0  0  0
 11 12  1  0  0  0
 11 14  1  0  0  0
 12 13  2  0  0  0
 12 15  1  0  0  0
 18 19  1  0  0  0
 18 20  2  0  0  0
 14 16  1  0  0  0
 15 16  2  0  0  0
 16  1  1  0  0  0
  1  2  2  0  0  0
  1  6  1  0  0  0
  2  3  1  0  0  0
  3 31  1  0  0  0
  3  4  2  0  0  0
 31 32  1  0  0  0
 32 33  1  0  0  0
  4  5  1  0  0  0
  5  6  2  0  0  0
  5 25  1  0  0  0
  6  7  1  0  0  0
 25 26  2  0  0  0
 25 30  1  0  0  0
 26 27  1  0  0  0
 27 28  2  0  0  0
 28 29  1  0  0  0
 29 30  2  0  0  0
 19 21  1  0  0  0
 19 22  1  0  0  0
 20 23  1  0  0  0
 20 24  1  0  0  0
 14 17  1  0  0  0
 33 34  1  0  0  0
 33 35  1  0  0  0
 33 36  1  0  0  0
M  CHG 1   7  -1
M  CHG 1  20   1
M  CHG 1  33   1
M  END
> <minimizedAffinity>
-9.08872

$$$$
1O38_653_A_246


 36 39  0  0  0  0  0  0  0  0999 V2000
   42.3249   -0.8336   31.9607 C   0  0  0  0  0  0  0  0  0  0  0  0
   40.9560   -0.8369   32.3219 C   0  0  0  0  0  0  0  0  0  0  0  0
   40.5008   -0.2927   33.5243 C   0  0  0  0  0  0  0  0  0  0  0  0
   41.4341    0.2728   34.3845 C   0  0  0  0  0  0  0  0  0  0  0  0
   42.8009    0.3119   34.0925 C   0  0  0  0  0  0  0  0  0  0  0  0
   43.2228   -0.2441   32.8778 C   0  0  0  0  0  0  0  0  0  0  0  0
   44.5618   -0.2091   32.5921 O   0  0  0  0  0  0  0  0  0  0  0  0
   43.9288   -2.4635   26.6318 C   0  0  0  0  0  0  0  0  0  0  0  0
   43.8991   -3.7492   27.2796 C   0  0  0  0  0  0  0  0  0  0  0  0
   43.5822   -3.9267   28.6228 C   0  0  0  0  0  0  0  0  0  0  0  0
   43.2854   -2.8018   29.3267 C   0  0  0  0  0  0  0  0  0  0  0  0
   43.2880   -1.5676   28.7768 C   0  0  0  0  0  0  0  0  0  0  0  0
   43.6093   -1.3285   27.4344 C   0  0  0  0  0  0  0  0  0  0  0  0
   42.9416   -2.6666   30.5629 N   0  0  0  0  0  0  0  0  0  0  0  0
   42.9576   -0.6367   29.6538 N   0  0  0  0  0  0  0  0  0  0  0  0
   42.7613   -1.3914   30.7320 C   0  0  0  0  0  0  0  0  0  0  0  0
   42.8380   -3.3785   31.2351 H   0  0  0  0  0  0  0  0  0  0  0  0
   44.2571   -2.3577   25.2555 C   0  0  0  0  0  0  0  0  0  0  0  0
   44.6810   -3.4215   24.5925 N   0  0  0  0  0  0  0  0  0  0  0  0
   44.1223   -1.1809   24.6617 N   0  0  0  0  0  0  0  0  0  0  0  0
   44.7732   -4.2855   25.0554 H   0  0  0  0  0  0  0  0  0  0  0  0
   44.9043   -3.3491   23.6364 H   0  0  0  0  0  0  0  0  0  0  0  0
   43.8051   -0.4036   25.1759 H   0  0  0  0  0  0  0  0  0  0  0  0
   44.3394   -1.0838   23.7064 H   0  0  0  0  0  0  0  0  0  0  0  0
   43.6697    0.9013   35.0222 C   0  0  0  0  0  0  0  0  0  0  0  0
   43.8515    2.2940   35.1185 C   0  0  0  0  0  0  0  0  0  0  0  0
   44.7533    2.8509   36.0412 C   0  0  0  0  0  0  0  0  0  0  0  0
   45.4955    2.0404   36.8941 C   0  0  0  0  0  0  0  0  0  0  0  0
   45.3335    0.6552   36.8201 C   0  0  0  0  0  0  0  0  0  0  0  0
   44.4300    0.0985   35.8999 C   0  0  0  0  0  0  0  0  0  0  0  0
   38.9881   -0.3263   33.9255 C   0  0  0  0  0  0  0  0  0  0  0  0
   38.3359    1.1001   33.8932 C   0  0  0  0  0  0  0  0  0  0  0  0
   37.7404    1.3467   32.5193 N   0  0  0  0  0  0  0  0  0  0  0  0
   38.4758    1.2892   31.8148 H   0  0  0  0  0  0  0  0  0  0  0  0
   37.3168    2.2742   32.4938 H   0  0  0  0  0  0  0  0  0  0  0  0
   37.0285    0.6423   32.3259 H   0  0  0  0  0  0  0  0  0  0  0  0
  8  9  2  0  0  0
  8 13  1  0  0  0
  8 18  1  0  0  0
  9 10  1  0  0  0
 10 11  2  0  0  0
 11 12  1  0  0  0
 11 14  1  0  0  0
 12 13  2  0  0  0
 12 15  1  0  0  0
 18 19  1  0  0  0
 18 20  2  0  0  0
 14 16  1  0  0  0
 15 16  2  0  0  0
 16  1  1  0  0  0
  1  2  2  0  0  0
  1  6  1  0  0  0
  2  3  1  0  0  0
  3 31  1  0  0  0
  3  4  2  0  0  0
 31 32  1  0  0  0
 32 33  1  0  0  0
  4  5  1  0  0  0
  5  6  2  0  0  0
  5 25  1  0  0  0
  6  7  1  0  0  0
 25 26  2  0  0  0
 25 30  1  0  0  0
 26 27  1  0  0  0
 27 28  2  0  0  0
 28 29  1  0  0  0
 29 30  2  0  0  0
 19 21  1  0  0  0
 19 22  1  0  0  0
 20 23  1  0  0  0
 20 24  1  0  0  0
 14 17  1  0  0  0
 33 34  1  0  0  0
 33 35  1  0  0  0
 33 36  1  0  0  0
M  CHG 1   7  -1
M  CHG 1  20   1
M  CHG 1  33   1
M  END
> <minimizedAffinity>
-8.67387

$$$$
1O38_653_A_246


 36 39  0  0  0  0  0  0  0  0999 V2000
   42.2294   -1.3104   31.4346 C   0  0  0  0  0  0  0  0  0  0  0  0
   40.9532   -1.7476   31.8640 C   0  0  0  0  0  0  0  0  0  0  0  0
   40.4978   -1.5513   33.1691 C   0  0  0  0  0  0  0  0  0  0  0  0
   41.3349   -0.8983   34.0657 C   0  0  0  0  0  0  0  0  0  0  0  0
   42.6069   -0.4389   33.7108 C   0  0  0  0  0  0  0  0  0  0  0  0
   43.0321   -0.6537   32.3933 C   0  0  0  0  0  0  0  0  0  0  0  0
   44.2791   -0.2069   32.0454 O   0  0  0  0  0  0  0  0  0  0  0  0
   44.0040   -2.8933   26.1458 C   0  0  0  0  0  0  0  0  0  0  0  0
   44.3194   -1.4891   26.0968 C   0  0  0  0  0  0  0  0  0  0  0  0
   44.0655   -0.6068   27.1423 C   0  0  0  0  0  0  0  0  0  0  0  0
   43.4927   -1.1383   28.2552 C   0  0  0  0  0  0  0  0  0  0  0  0
   43.1792   -2.4478   28.3674 C   0  0  0  0  0  0  0  0  0  0  0  0
   43.4018   -3.3784   27.3443 C   0  0  0  0  0  0  0  0  0  0  0  0
   43.1670   -0.5725   29.3681 N   0  0  0  0  0  0  0  0  0  0  0  0
   42.6441   -2.7275   29.5422 N   0  0  0  0  0  0  0  0  0  0  0  0
   42.6674   -1.5206   30.1022 C   0  0  0  0  0  0  0  0  0  0  0  0
   43.2743    0.3758   29.6095 H   0  0  0  0  0  0  0  0  0  0  0  0
   44.2952   -3.7359   25.0419 C   0  0  0  0  0  0  0  0  0  0  0  0
   44.5824   -3.2072   23.8634 N   0  0  0  0  0  0  0  0  0  0  0  0
   44.2773   -5.0479   25.2258 N   0  0  0  0  0  0  0  0  0  0  0  0
   44.5894   -2.2292   23.7512 H   0  0  0  0  0  0  0  0  0  0  0  0
   44.7890   -3.7919   23.0988 H   0  0  0  0  0  0  0  0  0  0  0  0
   44.0607   -5.4179   26.1120 H   0  0  0  0  0  0  0  0  0  0  0  0
   44.4806   -5.6528   24.4761 H   0  0  0  0  0  0  0  0  0  0  0  0
   43.3829    0.2078   34.6835 C   0  0  0  0  0  0  0  0  0  0  0  0
   44.1238   -0.4910   35.6555 C   0  0  0  0  0  0  0  0  0  0  0  0
   44.8670    0.1886   36.6355 C   0  0  0  0  0  0  0  0  0  0  0  0
   44.8968    1.5788   36.6744 C   0  0  0  0  0  0  0  0  0  0  0  0
   44.1716    2.2966   35.7209 C   0  0  0  0  0  0  0  0  0  0  0  0
   43.4309    1.6176   34.7394 C   0  0  0  0  0  0  0  0  0  0  0  0
   39.0955   -2.0631   33.6402 C   0  0  0  0  0  0  0  0  0  0  0  0
   37.9237   -1.1991   33.0557 C   0  0  0  0  0  0  0  0  0  0  0  0
   37.7717    0.0631   33.8842 N   0  0  0  0  0  0  0  0  0  0  0  0
   37.5645   -0.1876   34.8509 H   0  0  0  0  0  0  0  0  0  0  0  0
   37.0094    0.6269   33.5082 H   0  0  0  0  0  0  0  0  0  0  0  0
   38.6393    0.5986   33.8503 H   0  0  0  0  0  0  0  0  0  0  0  0
  8  9  2  0  0  0
  8 13  1  0  0  0
  8 18  1  0  0  0
  9 10  1  0  0  0
 10 11  2  0  0  0
 11 12  1  0  0  0
 11 14  1  0  0  0
 12 13  2  0  0  0
 12 15  1  0  0  0
 18 19  1  0  0  0
 18 20  2  0  0  0
 14 16  1  0  0  0
 15 16  2  0  0  0
 16  1  1  0  0  0
  1  2  2  0  0  0
  1  6  1  0  0  0
  2  3  1  0  0  0
  3 31  1  0  0  0
  3  4  2  0  0  0
 31 32  1  0  0  0
 32 33  1  0  0  0
  4  5  1  0  0  0
  5  6  2  0  0  0
  5 25  1  0  0  0
  6  7  1  0  0  0
 25 26  2  0  0  0
 25 30  1  0  0  0
 26 27  1  0  0  0
 27 28  2  0  0  0
 28 29  1  0  0  0
 29 30  2  0  0  0
 19 21  1  0  0  0
 19 22  1  0  0  0
 20 23  1  0  0  0
 20 24  1  0  0  0
 14 17  1  0  0  0
 33 34  1  0  0  0
 33 35  1  0  0  0
 33 36  1  0  0  0
M  CHG 1   7  -1
M  CHG 1  20   1
M  CHG 1  33   1
M  END
> <minimizedAffinity>
-8.56679

$$$$
1O38_653_A_246


 36 39  0  0  0  0  0  0  0  0999 V2000
   41.4291   -1.6669   31.4320 C   0  0  0  0  0  0  0  0  0  0  0  0
   41.8527   -2.4351   32.5432 C   0  0  0  0  0  0  0  0  0  0  0  0
   41.2408   -2.3371   33.7943 C   0  0  0  0  0  0  0  0  0  0  0  0
   40.1772   -1.4546   33.9381 C   0  0  0  0  0  0  0  0  0  0  0  0
   39.7054   -0.6657   32.8845 C   0  0  0  0  0  0  0  0  0  0  0  0
   40.3432   -0.7888   31.6433 C   0  0  0  0  0  0  0  0  0  0  0  0
   39.8839   -0.0143   30.6113 O   0  0  0  0  0  0  0  0  0  0  0  0
   43.9153   -2.8854   26.3369 C   0  0  0  0  0  0  0  0  0  0  0  0
   44.3816   -1.5349   26.5171 C   0  0  0  0  0  0  0  0  0  0  0  0
   44.0454   -0.7446   27.6118 C   0  0  0  0  0  0  0  0  0  0  0  0
   43.2353   -1.3159   28.5427 C   0  0  0  0  0  0  0  0  0  0  0  0
   42.7699   -2.5799   28.4367 C   0  0  0  0  0  0  0  0  0  0  0  0
   43.0665   -3.4163   27.3528 C   0  0  0  0  0  0  0  0  0  0  0  0
   42.7835   -0.8360   29.6519 N   0  0  0  0  0  0  0  0  0  0  0  0
   42.0127   -2.9142   29.4662 N   0  0  0  0  0  0  0  0  0  0  0  0
   42.0666   -1.7868   30.1709 C   0  0  0  0  0  0  0  0  0  0  0  0
   42.9473    0.0600   30.0254 H   0  0  0  0  0  0  0  0  0  0  0  0
   44.3024   -3.6349   25.1961 C   0  0  0  0  0  0  0  0  0  0  0  0
   44.3270   -4.9568   25.2498 N   0  0  0  0  0  0  0  0  0  0  0  0
   44.6273   -2.9813   24.0903 N   0  0  0  0  0  0  0  0  0  0  0  0
   44.0813   -5.4203   26.0829 H   0  0  0  0  0  0  0  0  0  0  0  0
   44.5910   -5.4769   24.4567 H   0  0  0  0  0  0  0  0  0  0  0  0
   44.6014   -1.9973   24.0745 H   0  0  0  0  0  0  0  0  0  0  0  0
   44.8946   -3.4797   23.2844 H   0  0  0  0  0  0  0  0  0  0  0  0
   38.6273    0.1988   33.1233 C   0  0  0  0  0  0  0  0  0  0  0  0
   37.3740    0.0436   32.5012 C   0  0  0  0  0  0  0  0  0  0  0  0
   36.3235    0.9462   32.7394 C   0  0  0  0  0  0  0  0  0  0  0  0
   36.4887    2.0239   33.6033 C   0  0  0  0  0  0  0  0  0  0  0  0
   37.7219    2.2005   34.2345 C   0  0  0  0  0  0  0  0  0  0  0  0
   38.7712    1.2969   33.9988 C   0  0  0  0  0  0  0  0  0  0  0  0
   41.7353   -3.1715   35.0230 C   0  0  0  0  0  0  0  0  0  0  0  0
   41.3107   -4.6786   34.9237 C   0  0  0  0  0  0  0  0  0  0  0  0
   42.5499   -5.5365   34.7475 N   0  0  0  0  0  0  0  0  0  0  0  0
   43.0364   -5.2600   33.8947 H   0  0  0  0  0  0  0  0  0  0  0  0
   42.2777   -6.5173   34.6808 H   0  0  0  0  0  0  0  0  0  0  0  0
   43.1685   -5.4091   35.5484 H   0  0  0  0  0  0  0  0  0  0  0  0
  8  9  2  0  0  0
  8 13  1  0  0  0
  8 18  1  0  0  0
  9 10  1  0  0  0
 10 11  2  0  0  0
 11 12  1  0  0  0
 11 14  1  0  0  0
 12 13  2  0  0  0
 12 15  1  0  0  0
 18 19  1  0  0  0
 18 20  2  0  0  0
 14 16  1  0  0  0
 15 16  2  0  0  0
 16  1  1  0  0  0
  1  2  2  0  0  0
  1  6  1  0  0  0
  2  3  1  0  0  0
  3 31  1  0  0  0
  3  4  2  0  0  0
 31 32  1  0  0  0
 32 33  1  0  0  0
  4  5  1  0  0  0
  5  6  2  0  0  0
  5 25  1  0  0  0
  6  7  1  0  0  0
 25 26  2  0  0  0
 25 30  1  0  0  0
 26 27  1  0  0  0
 27 28  2  0  0  0
 28 29  1  0  0  0
 29 30  2  0  0  0
 19 21  1  0  0  0
 19 22  1  0  0  0
 20 23  1  0  0  0
 20 24  1  0  0  0
 14 17  1  0  0  0
 33 34  1  0  0  0
 33 35  1  0  0  0
 33 36  1  0  0  0
M  CHG 1   7  -1
M  CHG 1  20   1
M  CHG 1  33   1
M  END
> <minimizedAffinity>
-8.55182

$$$$
1O38_653_A_246


 36 39  0  0  0  0  0  0  0  0999 V2000
   42.4252   -0.9555   31.6238 C   0  0  0  0  0  0  0  0  0  0  0  0
   43.3967   -0.6606   32.6105 C   0  0  0  0  0  0  0  0  0  0  0  0
   43.0577   -0.1230   33.8536 C   0  0  0  0  0  0  0  0  0  0  0  0
   41.7160    0.1214   34.1198 C   0  0  0  0  0  0  0  0  0  0  0  0
   40.7034   -0.1460   33.1933 C   0  0  0  0  0  0  0  0  0  0  0  0
   41.0795   -0.6842   31.9558 C   0  0  0  0  0  0  0  0  0  0  0  0
   40.0888   -0.9436   31.0464 O   0  0  0  0  0  0  0  0  0  0  0  0
   43.8620   -2.5092   26.2250 C   0  0  0  0  0  0  0  0  0  0  0  0
   43.6348   -3.8102   26.7990 C   0  0  0  0  0  0  0  0  0  0  0  0
   43.2734   -4.0125   28.1273 C   0  0  0  0  0  0  0  0  0  0  0  0
   43.1320   -2.8963   28.8911 C   0  0  0  0  0  0  0  0  0  0  0  0
   43.3233   -1.6477   28.4117 C   0  0  0  0  0  0  0  0  0  0  0  0
   43.6980   -1.3852   27.0876 C   0  0  0  0  0  0  0  0  0  0  0  0
   42.7913   -2.7800   30.1301 N   0  0  0  0  0  0  0  0  0  0  0  0
   43.1176   -0.7277   29.3370 N   0  0  0  0  0  0  0  0  0  0  0  0
   42.7958   -1.5032   30.3692 C   0  0  0  0  0  0  0  0  0  0  0  0
   42.5741   -3.5047   30.7601 H   0  0  0  0  0  0  0  0  0  0  0  0
   44.2247   -2.3777   24.8595 C   0  0  0  0  0  0  0  0  0  0  0  0
   44.6955   -3.4214   24.1963 N   0  0  0  0  0  0  0  0  0  0  0  0
   44.0742   -1.1977   24.2760 N   0  0  0  0  0  0  0  0  0  0  0  0
   44.7985   -4.2883   24.6515 H   0  0  0  0  0  0  0  0  0  0  0  0
   44.9427   -3.3312   23.2476 H   0  0  0  0  0  0  0  0  0  0  0  0
   43.7220   -0.4356   24.7902 H   0  0  0  0  0  0  0  0  0  0  0  0
   44.3146   -1.0830   23.3282 H   0  0  0  0  0  0  0  0  0  0  0  0
   39.3764    0.1352   33.5490 C   0  0  0  0  0  0  0  0  0  0  0  0
   38.5692    1.0361   32.8288 C   0  0  0  0  0  0  0  0  0  0  0  0
   37.2524    1.3187   33.2303 C   0  0  0  0  0  0  0  0  0  0  0  0
   36.7019    0.7123   34.3547 C   0  0  0  0  0  0  0  0  0  0  0  0
   37.4808   -0.1866   35.0867 C   0  0  0  0  0  0  0  0  0  0  0  0
   38.7960   -0.4714   34.6839 C   0  0  0  0  0  0  0  0  0  0  0  0
   44.1431    0.2244   34.9267 C   0  0  0  0  0  0  0  0  0  0  0  0
   45.4116    0.8927   34.2899 C   0  0  0  0  0  0  0  0  0  0  0  0
   46.6298    0.5535   35.1287 N   0  0  0  0  0  0  0  0  0  0  0  0
   46.4973    0.9032   36.0777 H   0  0  0  0  0  0  0  0  0  0  0  0
   47.4566    0.9879   34.7187 H   0  0  0  0  0  0  0  0  0  0  0  0
   46.7544   -0.4586   35.1536 H   0  0  0  0  0  0  0  0  0  0  0  0
  8  9  2  0  0  0
  8 13  1  0  0  0
  8 18  1  0  0  0
  9 10  1  0  0  0
 10 11  2  0  0  0
 11 12  1  0  0  0
 11 14  1  0  0  0
 12 13  2  0  0  0
 12 15  1  0  0  0
 18 19  1  0  0  0
 18 20  2  0  0  0
 14 16  1  0  0  0
 15 16  2  0  0  0
 16  1  1  0  0  0
  1  2  2  0  0  0
  1  6  1  0  0  0
  2  3  1  0  0  0
  3 31  1  0  0  0
  3  4  2  0  0  0
 31 32  1  0  0  0
 32 33  1  0  0  0
  4  5  1  0  0  0
  5  6  2  0  0  0
  5 25  1  0  0  0
  6  7  1  0  0  0
 25 26  2  0  0  0
 25 30  1  0  0  0
 26 27  1  0  0  0
 27 28  2  0  0  0
 28 29  1  0  0  0
 29 30  2  0  0  0
 19 21  1  0  0  0
 19 22  1  0  0  0
 20 23  1  0  0  0
 20 24  1  0  0  0
 14 17  1  0  0  0
 33 34  1  0  0  0
 33 35  1  0  0  0
 33 36  1  0  0  0
M  CHG 1   7  -1
M  CHG 1  20   1
M  CHG 1  33   1
M  END
> <minimizedAffinity>
-8.38061

$$$$
1O38_653_A_246


 36 39  0  0  0  0  0  0  0  0999 V2000
   43.2010   -2.0222   31.1387 C   0  0  0  0  0  0  0  0  0  0  0  0
   43.4961   -1.6620   29.8017 C   0  0  0  0  0  0  0  0  0  0  0  0
   43.5959   -2.6076   28.7794 C   0  0  0  0  0  0  0  0  0  0  0  0
   43.3912   -3.9444   29.0987 C   0  0  0  0  0  0  0  0  0  0  0  0
   43.0955   -4.3720   30.3967 C   0  0  0  0  0  0  0  0  0  0  0  0
   43.0039   -3.3965   31.3980 C   0  0  0  0  0  0  0  0  0  0  0  0
   42.7174   -3.8144   32.6703 O   0  0  0  0  0  0  0  0  0  0  0  0
   43.5323    2.0773   35.2265 C   0  0  0  0  0  0  0  0  0  0  0  0
   42.2211    1.5554   35.5127 C   0  0  0  0  0  0  0  0  0  0  0  0
   41.6250    0.5308   34.7840 C   0  0  0  0  0  0  0  0  0  0  0  0
   42.3539    0.0172   33.7574 C   0  0  0  0  0  0  0  0  0  0  0  0
   43.5919    0.4570   33.4418 C   0  0  0  0  0  0  0  0  0  0  0  0
   44.2359    1.4915   34.1329 C   0  0  0  0  0  0  0  0  0  0  0  0
   42.0685   -0.9366   32.9368 N   0  0  0  0  0  0  0  0  0  0  0  0
   44.1021   -0.2010   32.4163 N   0  0  0  0  0  0  0  0  0  0  0  0
   43.1033   -1.0416   32.1586 C   0  0  0  0  0  0  0  0  0  0  0  0
   41.2423   -1.4711   32.9068 H   0  0  0  0  0  0  0  0  0  0  0  0
   44.0798    3.1220   36.0153 C   0  0  0  0  0  0  0  0  0  0  0  0
   43.3351    4.1668   36.3389 N   0  0  0  0  0  0  0  0  0  0  0  0
   45.3381    3.0181   36.4173 N   0  0  0  0  0  0  0  0  0  0  0  0
   42.4025    4.2217   36.0284 H   0  0  0  0  0  0  0  0  0  0  0  0
   43.7138    4.8893   36.8902 H   0  0  0  0  0  0  0  0  0  0  0  0
   45.8724    2.2310   36.1638 H   0  0  0  0  0  0  0  0  0  0  0  0
   45.7386    3.7280   36.9694 H   0  0  0  0  0  0  0  0  0  0  0  0
   42.9068   -5.7426   30.6256 C   0  0  0  0  0  0  0  0  0  0  0  0
   41.6512   -6.3685   30.5102 C   0  0  0  0  0  0  0  0  0  0  0  0
   41.4909   -7.7390   30.7766 C   0  0  0  0  0  0  0  0  0  0  0  0
   42.5730   -8.5241   31.1612 C   0  0  0  0  0  0  0  0  0  0  0  0
   43.8303   -7.9283   31.2822 C   0  0  0  0  0  0  0  0  0  0  0  0
   43.9913   -6.5591   31.0132 C   0  0  0  0  0  0  0  0  0  0  0  0
   43.9496   -2.2006   27.3098 C   0  0  0  0  0  0  0  0  0  0  0  0
   44.1342   -3.4495   26.3785 C   0  0  0  0  0  0  0  0  0  0  0  0
   44.5395   -2.9840   24.9922 N   0  0  0  0  0  0  0  0  0  0  0  0
   43.8139   -2.3764   24.6120 H   0  0  0  0  0  0  0  0  0  0  0  0
   44.6589   -3.7934   24.3831 H   0  0  0  0  0  0  0  0  0  0  0  0
   45.4183   -2.4693   25.0498 H   0  0  0  0  0  0  0  0  0  0  0  0
  8  9  2  0  0  0
  8 13  1  0  0  0
  8 18  1  0  0  0
  9 10  1  0  0  0
 10 11  2  0  0  0
 11 12  1  0  0  0
 11 14  1  0  0  0
 12 13  2  0  0  0
 12 15  1  0  0  0
 18 19  1  0  0  0
 18 20  2  0  0  0
 14 16  1  0  0  0
 15 16  2  0  0  0
 16  1  1  0  0  0
  1  2  2  0  0  0
  1  6  1  0  0  0
  2  3  1  0  0  0
  3 31  1  0  0  0
  3  4  2  0  0  0
 31 32  1  0  0  0
 32 33  1  0  0  0
  4  5  1  0  0  0
  5  6  2  0  0  0
  5 25  1  0  0  0
  6  7  1  0  0  0
 25 26  2  0  0  0
 25 30  1  0  0  0
 26 27  1  0  0  0
 27 28  2  0  0  0
 28 29  1  0  0  0
 29 30  2  0  0  0
 19 21  1  0  0  0
 19 22  1  0  0  0
 20 23  1  0  0  0
 20 24  1  0  0  0
 14 17  1  0  0  0
 33 34  1  0  0  0
 33 35  1  0  0  0
 33 36  1  0  0  0
M  CHG 1   7  -1
M  CHG 1  20   1
M  CHG 1  33   1
M  END
> <minimizedAffinity>
-8.05479

$$$$
1O38_653_A_246


 36 39  0  0  0  0  0  0  0  0999 V2000
   43.2224   -1.3371   32.0750 C   0  0  0  0  0  0  0  0  0  0  0  0
   43.8663   -0.1677   32.5465 C   0  0  0  0  0  0  0  0  0  0  0  0
   43.6945    0.3045   33.8491 C   0  0  0  0  0  0  0  0  0  0  0  0
   42.8638   -0.4107   34.7029 C   0  0  0  0  0  0  0  0  0  0  0  0
   42.1969   -1.5737   34.3056 C   0  0  0  0  0  0  0  0  0  0  0  0
   42.3913   -2.0184   32.9914 C   0  0  0  0  0  0  0  0  0  0  0  0
   41.7363   -3.1558   32.6002 O   0  0  0  0  0  0  0  0  0  0  0  0
   43.9712   -2.5048   26.4446 C   0  0  0  0  0  0  0  0  0  0  0  0
   43.6804   -3.8290   26.9299 C   0  0  0  0  0  0  0  0  0  0  0  0
   43.4336   -4.1210   28.2678 C   0  0  0  0  0  0  0  0  0  0  0  0
   43.4730   -3.0717   29.1318 C   0  0  0  0  0  0  0  0  0  0  0  0
   43.7325   -1.8051   28.7397 C   0  0  0  0  0  0  0  0  0  0  0  0
   43.9986   -1.4549   27.4097 C   0  0  0  0  0  0  0  0  0  0  0  0
   43.2678   -3.0412   30.4053 N   0  0  0  0  0  0  0  0  0  0  0  0
   43.7057   -0.9598   29.7544 N   0  0  0  0  0  0  0  0  0  0  0  0
   43.4153   -1.7967   30.7473 C   0  0  0  0  0  0  0  0  0  0  0  0
   43.0464   -3.7996   30.9927 H   0  0  0  0  0  0  0  0  0  0  0  0
   44.2091   -2.2797   25.0640 C   0  0  0  0  0  0  0  0  0  0  0  0
   44.5990   -3.2782   24.2882 N   0  0  0  0  0  0  0  0  0  0  0  0
   44.0258   -1.0595   24.5813 N   0  0  0  0  0  0  0  0  0  0  0  0
   44.7286   -4.1764   24.6698 H   0  0  0  0  0  0  0  0  0  0  0  0
   44.7595   -3.1229   23.3293 H   0  0  0  0  0  0  0  0  0  0  0  0
   43.7354   -0.3325   25.1783 H   0  0  0  0  0  0  0  0  0  0  0  0
   44.1800   -0.8798   23.6257 H   0  0  0  0  0  0  0  0  0  0  0  0
   41.3766   -2.2286   35.2356 C   0  0  0  0  0  0  0  0  0  0  0  0
   41.8384   -3.2775   36.0532 C   0  0  0  0  0  0  0  0  0  0  0  0
   40.9816   -3.9332   36.9536 C   0  0  0  0  0  0  0  0  0  0  0  0
   39.6457   -3.5629   37.0682 C   0  0  0  0  0  0  0  0  0  0  0  0
   39.1619   -2.5244   36.2695 C   0  0  0  0  0  0  0  0  0  0  0  0
   40.0188   -1.8668   35.3715 C   0  0  0  0  0  0  0  0  0  0  0  0
   44.3902    1.6138   34.3512 C   0  0  0  0  0  0  0  0  0  0  0  0
   44.5892    1.6182   35.9074 C   0  0  0  0  0  0  0  0  0  0  0  0
   45.4210    2.8246   36.3017 N   0  0  0  0  0  0  0  0  0  0  0  0
   46.3291    2.7772   35.8395 H   0  0  0  0  0  0  0  0  0  0  0  0
   45.5541    2.8300   37.3129 H   0  0  0  0  0  0  0  0  0  0  0  0
   44.9390    3.6775   36.0176 H   0  0  0  0  0  0  0  0  0  0  0  0
  8  9  2  0  0  0
  8 13  1  0  0  0
  8 18  1  0  0  0
  9 10  1  0  0  0
 10 11  2  0  0  0
 11 12  1  0  0  0
 11 14  1  0  0  0
 12 13  2  0  0  0
 12 15  1  0  0  0
 18 19  1  0  0  0
 18 20  2  0  0  0
 14 16  1  0  0  0
 15 16  2  0  0  0
 16  1  1  0  0  0
  1  2  2  0  0  0
  1  6  1  0  0  0
  2  3  1  0  0  0
  3 31  1  0  0  0
  3  4  2  0  0  0
 31 32  1  0  0  0
 32 33  1  0  0  0
  4  5  1  0  0  0
  5  6  2  0  0  0
  5 25  1  0  0  0
  6  7  1  0  0  0
 25 26  2  0  0  0
 25 30  1  0  0  0
 26 27  1  0  0  0
 27 28  2  0  0  0
 28 29  1  0  0  0
 29 30  2  0  0  0
 19 21  1  0  0  0
 19 22  1  0  0  0
 20 23  1  0  0  0
 20 24  1  0  0  0
 14 17  1  0  0  0
 33 34  1  0  0  0
 33 35  1  0  0  0
 33 36  1  0  0  0
M  CHG 1   7  -1
M  CHG 1  20   1
M  CHG 1  33   1
M  END
> <minimizedAffinity>
-7.96156

$$$$
1O38_653_A_246


 36 39  0  0  0  0  0  0  0  0999 V2000
   42.3766   -1.3889   31.6102 C   0  0  0  0  0  0  0  0  0  0  0  0
   41.0835   -1.9586   31.6986 C   0  0  0  0  0  0  0  0  0  0  0  0
   40.4869   -2.6241   30.6260 C   0  0  0  0  0  0  0  0  0  0  0  0
   41.2005   -2.7275   29.4382 C   0  0  0  0  0  0  0  0  0  0  0  0
   42.4816   -2.1899   29.2799 C   0  0  0  0  0  0  0  0  0  0  0  0
   43.0494   -1.5280   30.3762 C   0  0  0  0  0  0  0  0  0  0  0  0
   44.3029   -0.9985   30.2214 O   0  0  0  0  0  0  0  0  0  0  0  0
   44.3941    0.8692   36.5556 C   0  0  0  0  0  0  0  0  0  0  0  0
   44.7619    1.9197   35.6419 C   0  0  0  0  0  0  0  0  0  0  0  0
   44.5173    1.8694   34.2731 C   0  0  0  0  0  0  0  0  0  0  0  0
   43.8905    0.7540   33.8126 C   0  0  0  0  0  0  0  0  0  0  0  0
   43.5129   -0.2633   34.6177 C   0  0  0  0  0  0  0  0  0  0  0  0
   43.7429   -0.2715   35.9996 C   0  0  0  0  0  0  0  0  0  0  0  0
   43.5240    0.4467   32.6143 N   0  0  0  0  0  0  0  0  0  0  0  0
   42.9141   -1.2289   33.9440 N   0  0  0  0  0  0  0  0  0  0  0  0
   42.9610   -0.7196   32.7155 C   0  0  0  0  0  0  0  0  0  0  0  0
   43.6453    0.9821   31.7971 H   0  0  0  0  0  0  0  0  0  0  0  0
   44.6716    0.9902   37.9418 C   0  0  0  0  0  0  0  0  0  0  0  0
   45.7838    1.5832   38.3448 N   0  0  0  0  0  0  0  0  0  0  0  0
   43.7938    0.5046   38.8073 N   0  0  0  0  0  0  0  0  0  0  0  0
   46.4212    1.9362   37.6827 H   0  0  0  0  0  0  0  0  0  0  0  0
   45.9739    1.6712   39.3068 H   0  0  0  0  0  0  0  0  0  0  0  0
   42.9732    0.0676   38.4834 H   0  0  0  0  0  0  0  0  0  0  0  0
   43.9620    0.5809   39.7743 H   0  0  0  0  0  0  0  0  0  0  0  0
   43.1252   -2.3412   28.0432 C   0  0  0  0  0  0  0  0  0  0  0  0
   43.6382   -1.2523   27.3131 C   0  0  0  0  0  0  0  0  0  0  0  0
   44.2508   -1.4356   26.0617 C   0  0  0  0  0  0  0  0  0  0  0  0
   44.3728   -2.7042   25.5041 C   0  0  0  0  0  0  0  0  0  0  0  0
   43.8733   -3.8021   26.2081 C   0  0  0  0  0  0  0  0  0  0  0  0
   43.2636   -3.6195   27.4603 C   0  0  0  0  0  0  0  0  0  0  0  0
   39.0456   -3.2264   30.7266 C   0  0  0  0  0  0  0  0  0  0  0  0
   38.0740   -2.6171   29.6562 C   0  0  0  0  0  0  0  0  0  0  0  0
   37.7074   -3.6886   28.6461 N   0  0  0  0  0  0  0  0  0  0  0  0
   38.5534   -4.0280   28.1883 H   0  0  0  0  0  0  0  0  0  0  0  0
   37.0769   -3.2955   27.9472 H   0  0  0  0  0  0  0  0  0  0  0  0
   37.2455   -4.4624   29.1239 H   0  0  0  0  0  0  0  0  0  0  0  0
  8  9  2  0  0  0
  8 13  1  0  0  0
  8 18  1  0  0  0
  9 10  1  0  0  0
 10 11  2  0  0  0
 11 12  1  0  0  0
 11 14  1  0  0  0
 12 13  2  0  0  0
 12 15  1  0  0  0
 18 19  1  0  0  0
 18 20  2  0  0  0
 14 16  1  0  0  0
 15 16  2  0  0  0
 16  1  1  0  0  0
  1  2  2  0  0  0
  1  6  1  0  0  0
  2  3  1  0  0  0
  3 31  1  0  0  0
  3  4  2  0  0  0
 31 32  1  0  0  0
 32 33  1  0  0  0
  4  5  1  0  0  0
  5  6  2  0  0  0
  5 25  1  0  0  0
  6  7  1  0  0  0
 25 26  2  0  0  0
 25 30  1  0  0  0
 26 27  1  0  0  0
 27 28  2  0  0  0
 28 29  1  0  0  0
 29 30  2  0  0  0
 19 21  1  0  0  0
 19 22  1  0  0  0
 20 23  1  0  0  0
 20 24  1  0  0  0
 14 17  1  0  0  0
 33 34  1  0  0  0
 33 35  1  0  0  0
 33 36  1  0  0  0
M  CHG 1   7  -1
M  CHG 1  20   1
M  CHG 1  33   1
M  END
> <minimizedAffinity>
-7.80922

$$$$
1O38_653_A_246


 36 39  0  0  0  0  0  0  0  0999 V2000
   42.3469   -1.5771   31.5841 C   0  0  0  0  0  0  0  0  0  0  0  0
   43.2201   -1.0345   32.5575 C   0  0  0  0  0  0  0  0  0  0  0  0
   42.8468   -0.8868   33.8947 C   0  0  0  0  0  0  0  0  0  0  0  0
   41.5728   -1.2953   34.2700 C   0  0  0  0  0  0  0  0  0  0  0  0
   40.6588   -1.8402   33.3630 C   0  0  0  0  0  0  0  0  0  0  0  0
   41.0663   -1.9730   32.0292 C   0  0  0  0  0  0  0  0  0  0  0  0
   40.1708   -2.5038   31.1393 O   0  0  0  0  0  0  0  0  0  0  0  0
   44.0167   -2.8835   26.1868 C   0  0  0  0  0  0  0  0  0  0  0  0
   44.2771   -1.4673   26.1848 C   0  0  0  0  0  0  0  0  0  0  0  0
   44.0224   -0.6367   27.2716 C   0  0  0  0  0  0  0  0  0  0  0  0
   43.5045   -1.2328   28.3786 C   0  0  0  0  0  0  0  0  0  0  0  0
   43.2443   -2.5569   28.4476 C   0  0  0  0  0  0  0  0  0  0  0  0
   43.4703   -3.4378   27.3821 C   0  0  0  0  0  0  0  0  0  0  0  0
   43.1920   -0.7237   29.5222 N   0  0  0  0  0  0  0  0  0  0  0  0
   42.7565   -2.9025   29.6255 N   0  0  0  0  0  0  0  0  0  0  0  0
   42.7514   -1.7183   30.2322 C   0  0  0  0  0  0  0  0  0  0  0  0
   43.2708    0.2180   29.7980 H   0  0  0  0  0  0  0  0  0  0  0  0
   44.3055   -3.6708   25.0422 C   0  0  0  0  0  0  0  0  0  0  0  0
   44.6605   -3.0863   23.9094 N   0  0  0  0  0  0  0  0  0  0  0  0
   44.2163   -4.9889   25.1423 N   0  0  0  0  0  0  0  0  0  0  0  0
   44.7198   -2.1049   23.8593 H   0  0  0  0  0  0  0  0  0  0  0  0
   44.8654   -3.6329   23.1166 H   0  0  0  0  0  0  0  0  0  0  0  0
   43.9501   -5.4009   25.9959 H   0  0  0  0  0  0  0  0  0  0  0  0
   44.4163   -5.5564   24.3630 H   0  0  0  0  0  0  0  0  0  0  0  0
   39.3938   -2.2226   33.8322 C   0  0  0  0  0  0  0  0  0  0  0  0
   38.2906   -1.3481   33.8478 C   0  0  0  0  0  0  0  0  0  0  0  0
   37.0438   -1.7541   34.3534 C   0  0  0  0  0  0  0  0  0  0  0  0
   36.8589   -3.0389   34.8534 C   0  0  0  0  0  0  0  0  0  0  0  0
   37.9367   -3.9270   34.8485 C   0  0  0  0  0  0  0  0  0  0  0  0
   39.1822   -3.5225   34.3406 C   0  0  0  0  0  0  0  0  0  0  0  0
   43.8110   -0.2604   34.9568 C   0  0  0  0  0  0  0  0  0  0  0  0
   43.0539    0.1709   36.2614 C   0  0  0  0  0  0  0  0  0  0  0  0
   44.0219    0.8800   37.1902 N   0  0  0  0  0  0  0  0  0  0  0  0
   44.7870    0.2494   37.4298 H   0  0  0  0  0  0  0  0  0  0  0  0
   43.5335    1.1605   38.0406 H   0  0  0  0  0  0  0  0  0  0  0  0
   44.3960    1.7068   36.7245 H   0  0  0  0  0  0  0  0  0  0  0  0
  8  9  2  0  0  0
  8 13  1  0  0  0
  8 18  1  0  0  0
  9 10  1  0  0  0
 10 11  2  0  0  0
 11 12  1  0  0  0
 11 14  1  0  0  0
 12 13  2  0  0  0
 12 15  1  0  0  0
 18 19  1  0  0  0
 18 20  2  0  0  0
 14 16  1  0  0  0
 15 16  2  0  0  0
 16  1  1  0  0  0
  1  2  2  0  0  0
  1  6  1  0  0  0
  2  3  1  0  0  0
  3 31  1  0  0  0
  3  4  2  0  0  0
 31 32  1  0  0  0
 32 33  1  0  0  0
  4  5  1  0  0  0
  5  6  2  0  0  0
  5 25  1  0  0  0
  6  7  1  0  0  0
 25 26  2  0  0  0
 25 30  1  0  0  0
 26 27  1  0  0  0
 27 28  2  0  0  0
 28 29  1  0  0  0
 29 30  2  0  0  0
 19 21  1  0  0  0
 19 22  1  0  0  0
 20 23  1  0  0  0
 20 24  1  0  0  0
 14 17  1  0  0  0
 33 34  1  0  0  0
 33 35  1  0  0  0
 33 36  1  0  0  0
M  CHG 1   7  -1
M  CHG 1  20   1
M  CHG 1  33   1
M  END
> <minimizedAffinity>
-7.42554

$$$$
1O38_653_A_246


 36 39  0  0  0  0  0  0  0  0999 V2000
   41.9138   -0.9623   31.9376 C   0  0  0  0  0  0  0  0  0  0  0  0
   42.7542   -0.9432   33.0767 C   0  0  0  0  0  0  0  0  0  0  0  0
   42.3353   -0.4258   34.3039 C   0  0  0  0  0  0  0  0  0  0  0  0
   41.0445    0.0802   34.3973 C   0  0  0  0  0  0  0  0  0  0  0  0
   40.1603    0.0928   33.3142 C   0  0  0  0  0  0  0  0  0  0  0  0
   40.6140   -0.4334   32.0978 C   0  0  0  0  0  0  0  0  0  0  0  0
   39.7498   -0.4188   31.0354 O   0  0  0  0  0  0  0  0  0  0  0  0
   43.7384   -2.4459   26.6371 C   0  0  0  0  0  0  0  0  0  0  0  0
   43.3821   -3.7461   27.1433 C   0  0  0  0  0  0  0  0  0  0  0  0
   42.8902   -3.9637   28.4265 C   0  0  0  0  0  0  0  0  0  0  0  0
   42.7475   -2.8636   29.2128 C   0  0  0  0  0  0  0  0  0  0  0  0
   43.0563   -1.6161   28.7959 C   0  0  0  0  0  0  0  0  0  0  0  0
   43.5648   -1.3394   27.5202 C   0  0  0  0  0  0  0  0  0  0  0  0
   42.3034   -2.7621   30.4200 N   0  0  0  0  0  0  0  0  0  0  0  0
   42.8233   -0.7122   29.7306 N   0  0  0  0  0  0  0  0  0  0  0  0
   42.3630   -1.4956   30.7027 C   0  0  0  0  0  0  0  0  0  0  0  0
   41.9867   -3.4896   31.0028 H   0  0  0  0  0  0  0  0  0  0  0  0
   44.2308   -2.2979   25.3147 C   0  0  0  0  0  0  0  0  0  0  0  0
   44.7438   -3.3389   24.6790 N   0  0  0  0  0  0  0  0  0  0  0  0
   44.1568   -1.1054   24.7420 N   0  0  0  0  0  0  0  0  0  0  0  0
   44.7881   -4.2153   25.1253 H   0  0  0  0  0  0  0  0  0  0  0  0
   45.0811   -3.2371   23.7597 H   0  0  0  0  0  0  0  0  0  0  0  0
   43.7710   -0.3456   25.2351 H   0  0  0  0  0  0  0  0  0  0  0  0
   44.4877   -0.9790   23.8234 H   0  0  0  0  0  0  0  0  0  0  0  0
   38.8768    0.6259   33.5013 C   0  0  0  0  0  0  0  0  0  0  0  0
   37.7335    0.0988   32.8713 C   0  0  0  0  0  0  0  0  0  0  0  0
   36.4658    0.6761   33.0565 C   0  0  0  0  0  0  0  0  0  0  0  0
   36.2994    1.7893   33.8739 C   0  0  0  0  0  0  0  0  0  0  0  0
   37.4171    2.3316   34.5120 C   0  0  0  0  0  0  0  0  0  0  0  0
   38.6839    1.7530   34.3294 C   0  0  0  0  0  0  0  0  0  0  0  0
   43.2825   -0.3851   35.5495 C   0  0  0  0  0  0  0  0  0  0  0  0
   43.6598    1.0820   35.9578 C   0  0  0  0  0  0  0  0  0  0  0  0
   44.5181    1.0478   37.2087 N   0  0  0  0  0  0  0  0  0  0  0  0
   43.9983    0.6036   37.9656 H   0  0  0  0  0  0  0  0  0  0  0  0
   44.7640    2.0003   37.4784 H   0  0  0  0  0  0  0  0  0  0  0  0
   45.3688    0.5166   37.0230 H   0  0  0  0  0  0  0  0  0  0  0  0
  8  9  2  0  0  0
  8 13  1  0  0  0
  8 18  1  0  0  0
  9 10  1  0  0  0
 10 11  2  0  0  0
 11 12  1  0  0  0
 11 14  1  0  0  0
 12 13  2  0  0  0
 12 15  1  0  0  0
 18 19  1  0  0  0
 18 20  2  0  0  0
 14 16  1  0  0  0
 15 16  2  0  0  0
 16  1  1  0  0  0
  1  2  2  0  0  0
  1  6  1  0  0  0
  2  3  1  0  0  0
  3 31  1  0  0  0
  3  4  2  0  0  0
 31 32  1  0  0  0
 32 33  1  0  0  0
  4  5  1  0  0  0
  5  6  2  0  0  0
  5 25  1  0  0  0
  6  7  1  0  0  0
 25 26  2  0  0  0
 25 30  1  0  0  0
 26 27  1  0  0  0
 27 28  2  0  0  0
 28 29  1  0  0  0
 29 30  2  0  0  0
 19 21  1  0  0  0
 19 22  1  0  0  0
 20 23  1  0  0  0
 20 24  1  0  0  0
 14 17  1  0  0  0
 33 34  1  0  0  0
 33 35  1  0  0  0
 33 36  1  0  0  0
M  CHG 1   7  -1
M  CHG 1  20   1
M  CHG 1  33   1
M  END
> <minimizedAffinity>
-7.39577

$$$$
