1ENU_APZ_A_400


 17 18  0  0  0  0  0  0  0  0999 V2000
   15.5184   16.9704   23.8470 N   0  0  0  0  0  0  0  0  0  0  0  0
   15.1422   16.7723   22.5789 C   0  0  0  0  0  0  0  0  0  0  0  0
   13.9805   16.4514   22.3243 O   0  0  0  0  0  0  0  0  0  0  0  0
   16.1180   16.9249   21.4936 C   0  0  0  0  0  0  0  0  0  0  0  0
   15.7718   16.7358   20.1409 C   0  0  0  0  0  0  0  0  0  0  0  0
   16.7394   16.9048   19.1403 C   0  0  0  0  0  0  0  0  0  0  0  0
   18.0557   17.2698   19.4874 C   0  0  0  0  0  0  0  0  0  0  0  0
   18.4014   17.4650   20.8330 C   0  0  0  0  0  0  0  0  0  0  0  0
   17.4357   17.3009   21.8387 C   0  0  0  0  0  0  0  0  0  0  0  0
   17.7716   17.4974   23.2549 C   0  0  0  0  0  0  0  0  0  0  0  0
   18.9122   17.8171   23.5814 O   0  0  0  0  0  0  0  0  0  0  0  0
   16.8242   17.3317   24.1825 N   0  0  0  0  0  0  0  0  0  0  0  0
   18.9913   17.4349   18.5190 N   0  0  0  0  0  0  0  0  0  0  0  0
   14.8545   16.8580   24.5652 H   0  0  0  0  0  0  0  0  0  0  0  0
   17.0538   17.4685   25.1300 H   0  0  0  0  0  0  0  0  0  0  0  0
   18.7511   17.2985   17.5741 H   0  0  0  0  0  0  0  0  0  0  0  0
   19.9106   17.6910   18.7612 H   0  0  0  0  0  0  0  0  0  0  0  0
  1  2  1  0  0  0
  1 12  1  0  0  0
  2  3  2  0  0  0
  2  4  1  0  0  0
  4  5  2  0  0  0
  4  9  1  0  0  0
  5  6  1  0  0  0
  6  7  2  0  0  0
  7  8  1  0  0  0
  7 13  1  0  0  0
  8  9  2  0  0  0
  9 10  1  0  0  0
 10 11  2  0  0  0
 10 12  1  0  0  0
  1 14  1  0  0  0
 12 15  1  0  0  0
 13 16  1  0  0  0
 13 17  1  0  0  0
M  END
> <minimizedAffinity>
-8.39998

$$$$
1ENU_APZ_A_400


 17 18  0  0  0  0  0  0  0  0999 V2000
   16.8237   17.2242   24.2319 N   0  0  0  0  0  0  0  0  0  0  0  0
   17.7229   17.4788   23.2751 C   0  0  0  0  0  0  0  0  0  0  0  0
   18.8668   17.8189   23.5801 O   0  0  0  0  0  0  0  0  0  0  0  0
   17.3411   17.3651   21.8628 C   0  0  0  0  0  0  0  0  0  0  0  0
   18.2516   17.6141   20.8168 C   0  0  0  0  0  0  0  0  0  0  0  0
   17.8395   17.4806   19.4832 C   0  0  0  0  0  0  0  0  0  0  0  0
   16.5171   17.0913   19.1899 C   0  0  0  0  0  0  0  0  0  0  0  0
   15.6103   16.8366   20.2296 C   0  0  0  0  0  0  0  0  0  0  0  0
   16.0185   16.9649   21.5668 C   0  0  0  0  0  0  0  0  0  0  0  0
   15.0889   16.7059   22.6739 C   0  0  0  0  0  0  0  0  0  0  0  0
   13.9316   16.3641   22.4426 O   0  0  0  0  0  0  0  0  0  0  0  0
   15.5158   16.8391   23.9331 N   0  0  0  0  0  0  0  0  0  0  0  0
   16.1190   16.9605   17.8996 N   0  0  0  0  0  0  0  0  0  0  0  0
   17.0923   17.3109   25.1751 H   0  0  0  0  0  0  0  0  0  0  0  0
   14.8896   16.6605   24.6715 H   0  0  0  0  0  0  0  0  0  0  0  0
   16.7536   17.1387   17.1683 H   0  0  0  0  0  0  0  0  0  0  0  0
   15.1957   16.6875   17.6946 H   0  0  0  0  0  0  0  0  0  0  0  0
  1  2  1  0  0  0
  1 12  1  0  0  0
  2  3  2  0  0  0
  2  4  1  0  0  0
  4  5  2  0  0  0
  4  9  1  0  0  0
  5  6  1  0  0  0
  6  7  2  0  0  0
  7  8  1  0  0  0
  7 13  1  0  0  0
  8  9  2  0  0  0
  9 10  1  0  0  0
 10 11  2  0  0  0
 10 12  1  0  0  0
  1 14  1  0  0  0
 12 15  1  0  0  0
 13 16  1  0  0  0
 13 17  1  0  0  0
M  END
> <minimizedAffinity>
-8.02950

$$$$
1ENU_APZ_A_400


 17 18  0  0  0  0  0  0  0  0999 V2000
   16.0798   17.1637   24.0508 N   0  0  0  0  0  0  0  0  0  0  0  0
   16.4950   17.2009   22.7799 C   0  0  0  0  0  0  0  0  0  0  0  0
   17.6509   17.5377   22.5196 O   0  0  0  0  0  0  0  0  0  0  0  0
   15.5683   16.8530   21.6967 C   0  0  0  0  0  0  0  0  0  0  0  0
   15.9572   16.8682   20.3425 C   0  0  0  0  0  0  0  0  0  0  0  0
   15.0361   16.5162   19.3455 C   0  0  0  0  0  0  0  0  0  0  0  0
   13.7242   16.1414   19.6988 C   0  0  0  0  0  0  0  0  0  0  0  0
   13.3364   16.1193   21.0469 C   0  0  0  0  0  0  0  0  0  0  0  0
   14.2555   16.4670   22.0495 C   0  0  0  0  0  0  0  0  0  0  0  0
   13.8749   16.4538   23.4679 C   0  0  0  0  0  0  0  0  0  0  0  0
   12.7373   16.1293   23.8000 O   0  0  0  0  0  0  0  0  0  0  0  0
   14.7787   16.7914   24.3925 N   0  0  0  0  0  0  0  0  0  0  0  0
   12.8337   15.7993   18.7343 N   0  0  0  0  0  0  0  0  0  0  0  0
   16.7108   17.4061   24.7667 H   0  0  0  0  0  0  0  0  0  0  0  0
   14.5194   16.7771   25.3421 H   0  0  0  0  0  0  0  0  0  0  0  0
   13.1035   15.8141   17.7876 H   0  0  0  0  0  0  0  0  0  0  0  0
   11.9176   15.5363   18.9810 H   0  0  0  0  0  0  0  0  0  0  0  0
  1  2  1  0  0  0
  1 12  1  0  0  0
  2  3  2  0  0  0
  2  4  1  0  0  0
  4  5  2  0  0  0
  4  9  1  0  0  0
  5  6  1  0  0  0
  6  7  2  0  0  0
  7  8  1  0  0  0
  7 13  1  0  0  0
  8  9  2  0  0  0
  9 10  1  0  0  0
 10 11  2  0  0  0
 10 12  1  0  0  0
  1 14  1  0  0  0
 12 15  1  0  0  0
 13 16  1  0  0  0
 13 17  1  0  0  0
M  END
> <minimizedAffinity>
-7.68002

$$$$
1ENU_APZ_A_400


 17 18  0  0  0  0  0  0  0  0999 V2000
   18.8763   17.2109   19.1125 N   0  0  0  0  0  0  0  0  0  0  0  0
   19.1418   17.2735   20.4219 C   0  0  0  0  0  0  0  0  0  0  0  0
   20.3051   17.3918   20.8092 O   0  0  0  0  0  0  0  0  0  0  0  0
   18.0474   17.1878   21.3956 C   0  0  0  0  0  0  0  0  0  0  0  0
   18.2717   17.2566   22.7849 C   0  0  0  0  0  0  0  0  0  0  0  0
   17.1897   17.1810   23.6735 C   0  0  0  0  0  0  0  0  0  0  0  0
   15.8781   17.0426   23.1766 C   0  0  0  0  0  0  0  0  0  0  0  0
   15.6513   16.9802   21.7935 C   0  0  0  0  0  0  0  0  0  0  0  0
   16.7306   17.0594   20.8990 C   0  0  0  0  0  0  0  0  0  0  0  0
   16.5211   16.9949   19.4469 C   0  0  0  0  0  0  0  0  0  0  0  0
   15.3866   16.8757   18.9903 O   0  0  0  0  0  0  0  0  0  0  0  0
   17.5744   17.0737   18.6284 N   0  0  0  0  0  0  0  0  0  0  0  0
   14.8312   16.9711   24.0363 N   0  0  0  0  0  0  0  0  0  0  0  0
   19.6214   17.2631   18.4711 H   0  0  0  0  0  0  0  0  0  0  0  0
   17.4279   17.0339   17.6556 H   0  0  0  0  0  0  0  0  0  0  0  0
   14.9878   17.0146   25.0073 H   0  0  0  0  0  0  0  0  0  0  0  0
   13.9148   16.8756   23.6893 H   0  0  0  0  0  0  0  0  0  0  0  0
  1  2  1  0  0  0
  1 12  1  0  0  0
  2  3  2  0  0  0
  2  4  1  0  0  0
  4  5  2  0  0  0
  4  9  1  0  0  0
  5  6  1  0  0  0
  6  7  2  0  0  0
  7  8  1  0  0  0
  7 13  1  0  0  0
  8  9  2  0  0  0
  9 10  1  0  0  0
 10 11  2  0  0  0
 10 12  1  0  0  0
  1 14  1  0  0  0
 12 15  1  0  0  0
 13 16  1  0  0  0
 13 17  1  0  0  0
M  END
> <minimizedAffinity>
-7.67425

$$$$
1ENU_APZ_A_400


 17 18  0  0  0  0  0  0  0  0999 V2000
   18.1151   17.2200   18.0796 N   0  0  0  0  0  0  0  0  0  0  0  0
   16.8900   16.9815   18.5604 C   0  0  0  0  0  0  0  0  0  0  0  0
   15.9612   16.7423   17.7875 O   0  0  0  0  0  0  0  0  0  0  0  0
   16.6517   17.0184   20.0078 C   0  0  0  0  0  0  0  0  0  0  0  0
   15.3828   16.7667   20.5662 C   0  0  0  0  0  0  0  0  0  0  0  0
   15.2102   16.8031   21.9572 C   0  0  0  0  0  0  0  0  0  0  0  0
   16.3069   17.0851   22.7962 C   0  0  0  0  0  0  0  0  0  0  0  0
   17.5728   17.3298   22.2432 C   0  0  0  0  0  0  0  0  0  0  0  0
   17.7523   17.2908   20.8513 C   0  0  0  0  0  0  0  0  0  0  0  0
   19.0663   17.5448   20.2465 C   0  0  0  0  0  0  0  0  0  0  0  0
   20.0373   17.7915   20.9579 O   0  0  0  0  0  0  0  0  0  0  0  0
   19.1963   17.4986   18.9174 N   0  0  0  0  0  0  0  0  0  0  0  0
   16.1401   17.1187   24.1421 N   0  0  0  0  0  0  0  0  0  0  0  0
   18.2587   17.1984   17.1059 H   0  0  0  0  0  0  0  0  0  0  0  0
   20.0802   17.6658   18.5174 H   0  0  0  0  0  0  0  0  0  0  0  0
   15.2528   16.9473   24.5326 H   0  0  0  0  0  0  0  0  0  0  0  0
   16.9064   17.3145   24.7284 H   0  0  0  0  0  0  0  0  0  0  0  0
  1  2  1  0  0  0
  1 12  1  0  0  0
  2  3  2  0  0  0
  2  4  1  0  0  0
  4  5  2  0  0  0
  4  9  1  0  0  0
  5  6  1  0  0  0
  6  7  2  0  0  0
  7  8  1  0  0  0
  7 13  1  0  0  0
  8  9  2  0  0  0
  9 10  1  0  0  0
 10 11  2  0  0  0
 10 12  1  0  0  0
  1 14  1  0  0  0
 12 15  1  0  0  0
 13 16  1  0  0  0
 13 17  1  0  0  0
M  END
> <minimizedAffinity>
-7.65882

$$$$
1ENU_APZ_A_400


 17 18  0  0  0  0  0  0  0  0999 V2000
   16.7958   17.1471   24.0979 N   0  0  0  0  0  0  0  0  0  0  0  0
   15.7110   16.8647   23.3683 C   0  0  0  0  0  0  0  0  0  0  0  0
   14.6455   16.5998   23.9266 O   0  0  0  0  0  0  0  0  0  0  0  0
   15.7956   16.8581   21.9033 C   0  0  0  0  0  0  0  0  0  0  0  0
   14.6815   16.5753   21.0885 C   0  0  0  0  0  0  0  0  0  0  0  0
   14.8124   16.5928   19.6926 C   0  0  0  0  0  0  0  0  0  0  0  0
   16.0564   16.8994   19.1053 C   0  0  0  0  0  0  0  0  0  0  0  0
   17.1658   17.1876   19.9143 C   0  0  0  0  0  0  0  0  0  0  0  0
   17.0395   17.1753   21.3125 C   0  0  0  0  0  0  0  0  0  0  0  0
   18.1852   17.4717   22.1822 C   0  0  0  0  0  0  0  0  0  0  0  0
   19.2792   17.7429   21.6930 O   0  0  0  0  0  0  0  0  0  0  0  0
   18.0244   17.4497   23.5086 N   0  0  0  0  0  0  0  0  0  0  0  0
   16.1825   16.9179   17.7548 N   0  0  0  0  0  0  0  0  0  0  0  0
   16.7257   17.1413   25.0799 H   0  0  0  0  0  0  0  0  0  0  0  0
   18.7948   17.6530   24.0869 H   0  0  0  0  0  0  0  0  0  0  0  0
   15.4055   16.7160   17.1850 H   0  0  0  0  0  0  0  0  0  0  0  0
   17.0511   17.1332   17.3444 H   0  0  0  0  0  0  0  0  0  0  0  0
  1  2  1  0  0  0
  1 12  1  0  0  0
  2  3  2  0  0  0
  2  4  1  0  0  0
  4  5  2  0  0  0
  4  9  1  0  0  0
  5  6  1  0  0  0
  6  7  2  0  0  0
  7  8  1  0  0  0
  7 13  1  0  0  0
  8  9  2  0  0  0
  9 10  1  0  0  0
 10 11  2  0  0  0
 10 12  1  0  0  0
  1 14  1  0  0  0
 12 15  1  0  0  0
 13 16  1  0  0  0
 13 17  1  0  0  0
M  END
> <minimizedAffinity>
-7.57115

$$$$
1ENU_APZ_A_400


 17 18  0  0  0  0  0  0  0  0999 V2000
   14.7918   16.7999   24.3847 N   0  0  0  0  0  0  0  0  0  0  0  0
   13.9436   16.4953   23.3965 C   0  0  0  0  0  0  0  0  0  0  0  0
   12.7825   16.1778   23.6578 O   0  0  0  0  0  0  0  0  0  0  0  0
   14.4018   16.5272   22.0028 C   0  0  0  0  0  0  0  0  0  0  0  0
   13.5471   16.2231   20.9247 C   0  0  0  0  0  0  0  0  0  0  0  0
   14.0314   16.2791   19.6099 C   0  0  0  0  0  0  0  0  0  0  0  0
   15.3704   16.6456   19.3672 C   0  0  0  0  0  0  0  0  0  0  0  0
   16.2218   16.9550   20.4386 C   0  0  0  0  0  0  0  0  0  0  0  0
   15.7412   16.9043   21.7567 C   0  0  0  0  0  0  0  0  0  0  0  0
   16.6117   17.2218   22.8962 C   0  0  0  0  0  0  0  0  0  0  0  0
   17.7822   17.5450   22.7091 O   0  0  0  0  0  0  0  0  0  0  0  0
   16.1167   17.1619   24.1360 N   0  0  0  0  0  0  0  0  0  0  0  0
   15.8383   16.7013   18.0951 N   0  0  0  0  0  0  0  0  0  0  0  0
   14.4722   16.7679   25.3153 H   0  0  0  0  0  0  0  0  0  0  0  0
   16.7035   17.3795   24.8960 H   0  0  0  0  0  0  0  0  0  0  0  0
   15.2428   16.4846   17.3417 H   0  0  0  0  0  0  0  0  0  0  0  0
   16.7734   16.9584   17.9253 H   0  0  0  0  0  0  0  0  0  0  0  0
  1  2  1  0  0  0
  1 12  1  0  0  0
  2  3  2  0  0  0
  2  4  1  0  0  0
  4  5  2  0  0  0
  4  9  1  0  0  0
  5  6  1  0  0  0
  6  7  2  0  0  0
  7  8  1  0  0  0
  7 13  1  0  0  0
  8  9  2  0  0  0
  9 10  1  0  0  0
 10 11  2  0  0  0
 10 12  1  0  0  0
  1 14  1  0  0  0
 12 15  1  0  0  0
 13 16  1  0  0  0
 13 17  1  0  0  0
M  END
> <minimizedAffinity>
-7.46101

$$$$
1ENU_APZ_A_400


 17 18  0  0  0  0  0  0  0  0999 V2000
   19.4787   17.9635   20.2983 N   0  0  0  0  0  0  0  0  0  0  0  0
   18.5586   17.6159   21.2048 C   0  0  0  0  0  0  0  0  0  0  0  0
   18.8453   17.6125   22.4027 O   0  0  0  0  0  0  0  0  0  0  0  0
   17.2126   17.2264   20.7692 C   0  0  0  0  0  0  0  0  0  0  0  0
   16.2048   16.8596   21.6831 C   0  0  0  0  0  0  0  0  0  0  0  0
   14.9308   16.5062   21.2160 C   0  0  0  0  0  0  0  0  0  0  0  0
   14.6572   16.5242   19.8335 C   0  0  0  0  0  0  0  0  0  0  0  0
   15.6570   16.8951   18.9219 C   0  0  0  0  0  0  0  0  0  0  0  0
   16.9332   17.2537   19.3843 C   0  0  0  0  0  0  0  0  0  0  0  0
   17.9981   17.6442   18.4513 C   0  0  0  0  0  0  0  0  0  0  0  0
   17.7825   17.6685   17.2419 O   0  0  0  0  0  0  0  0  0  0  0  0
   19.1997   17.9787   18.9308 N   0  0  0  0  0  0  0  0  0  0  0  0
   13.4241   16.1838   19.3819 N   0  0  0  0  0  0  0  0  0  0  0  0
   20.3795   18.2161   20.6048 H   0  0  0  0  0  0  0  0  0  0  0  0
   19.9088   18.2434   18.3012 H   0  0  0  0  0  0  0  0  0  0  0  0
   12.7209   15.9232   20.0197 H   0  0  0  0  0  0  0  0  0  0  0  0
   13.2325   16.1975   18.4163 H   0  0  0  0  0  0  0  0  0  0  0  0
  1  2  1  0  0  0
  1 12  1  0  0  0
  2  3  2  0  0  0
  2  4  1  0  0  0
  4  5  2  0  0  0
  4  9  1  0  0  0
  5  6  1  0  0  0
  6  7  2  0  0  0
  7  8  1  0  0  0
  7 13  1  0  0  0
  8  9  2  0  0  0
  9 10  1  0  0  0
 10 11  2  0  0  0
 10 12  1  0  0  0
  1 14  1  0  0  0
 12 15  1  0  0  0
 13 16  1  0  0  0
 13 17  1  0  0  0
M  END
> <minimizedAffinity>
-7.23119

$$$$
1ENU_APZ_A_400


 17 18  0  0  0  0  0  0  0  0999 V2000
   19.2336   17.9167   19.0550 N   0  0  0  0  0  0  0  0  0  0  0  0
   18.0463   17.5962   18.5292 C   0  0  0  0  0  0  0  0  0  0  0  0
   17.8891   17.6139   17.3076 O   0  0  0  0  0  0  0  0  0  0  0  0
   16.9289   17.2365   19.4096 C   0  0  0  0  0  0  0  0  0  0  0  0
   15.6610   16.8831   18.9069 C   0  0  0  0  0  0  0  0  0  0  0  0
   14.6291   16.5365   19.7908 C   0  0  0  0  0  0  0  0  0  0  0  0
   14.8624   16.5356   21.1807 C   0  0  0  0  0  0  0  0  0  0  0  0
   16.1257   16.8809   21.6835 C   0  0  0  0  0  0  0  0  0  0  0  0
   17.1637   17.2250   20.8031 C   0  0  0  0  0  0  0  0  0  0  0  0
   18.4949   17.5920   21.3032 C   0  0  0  0  0  0  0  0  0  0  0  0
   18.7221   17.5971   22.5107 O   0  0  0  0  0  0  0  0  0  0  0  0
   19.4566   17.9135   20.4329 N   0  0  0  0  0  0  0  0  0  0  0  0
   13.8644   16.1986   22.0356 N   0  0  0  0  0  0  0  0  0  0  0  0
   19.9723   18.1623   18.4523 H   0  0  0  0  0  0  0  0  0  0  0  0
   20.3482   18.1550   20.7734 H   0  0  0  0  0  0  0  0  0  0  0  0
   12.9769   15.9559   21.6851 H   0  0  0  0  0  0  0  0  0  0  0  0
   14.0275   16.1968   23.0064 H   0  0  0  0  0  0  0  0  0  0  0  0
  1  2  1  0  0  0
  1 12  1  0  0  0
  2  3  2  0  0  0
  2  4  1  0  0  0
  4  5  2  0  0  0
  4  9  1  0  0  0
  5  6  1  0  0  0
  6  7  2  0  0  0
  7  8  1  0  0  0
  7 13  1  0  0  0
  8  9  2  0  0  0
  9 10  1  0  0  0
 10 11  2  0  0  0
 10 12  1  0  0  0
  1 14  1  0  0  0
 12 15  1  0  0  0
 13 16  1  0  0  0
 13 17  1  0  0  0
M  END
> <minimizedAffinity>
-7.18798

$$$$
1ENU_APZ_A_400


 17 18  0  0  0  0  0  0  0  0999 V2000
   13.7167   16.2257   21.2629 N   0  0  0  0  0  0  0  0  0  0  0  0
   14.3655   16.3878   20.1045 C   0  0  0  0  0  0  0  0  0  0  0  0
   13.7925   16.1527   19.0398 O   0  0  0  0  0  0  0  0  0  0  0  0
   15.7638   16.8330   20.1048 C   0  0  0  0  0  0  0  0  0  0  0  0
   16.4899   17.0271   18.9131 C   0  0  0  0  0  0  0  0  0  0  0  0
   17.8210   17.4646   18.9675 C   0  0  0  0  0  0  0  0  0  0  0  0
   18.4297   17.7160   20.2135 C   0  0  0  0  0  0  0  0  0  0  0  0
   17.7069   17.5297   21.4014 C   0  0  0  0  0  0  0  0  0  0  0  0
   16.3727   17.0955   21.3527 C   0  0  0  0  0  0  0  0  0  0  0  0
   15.5942   16.8910   22.5812 C   0  0  0  0  0  0  0  0  0  0  0  0
   16.1033   17.1050   23.6788 O   0  0  0  0  0  0  0  0  0  0  0  0
   14.3268   16.4769   22.4929 N   0  0  0  0  0  0  0  0  0  0  0  0
   19.7170   18.1408   20.2659 N   0  0  0  0  0  0  0  0  0  0  0  0
   12.7810   15.9202   21.2474 H   0  0  0  0  0  0  0  0  0  0  0  0
   13.8083   16.3451   23.3193 H   0  0  0  0  0  0  0  0  0  0  0  0
   20.2262   18.2723   19.4337 H   0  0  0  0  0  0  0  0  0  0  0  0
   20.1419   18.3177   21.1362 H   0  0  0  0  0  0  0  0  0  0  0  0
  1  2  1  0  0  0
  1 12  1  0  0  0
  2  3  2  0  0  0
  2  4  1  0  0  0
  4  5  2  0  0  0
  4  9  1  0  0  0
  5  6  1  0  0  0
  6  7  2  0  0  0
  7  8  1  0  0  0
  7 13  1  0  0  0
  8  9  2  0  0  0
  9 10  1  0  0  0
 10 11  2  0  0  0
 10 12  1  0  0  0
  1 14  1  0  0  0
 12 15  1  0  0  0
 13 16  1  0  0  0
 13 17  1  0  0  0
M  END
> <minimizedAffinity>
-7.08803

$$$$
