1PS3_KIF_A_1501


 21 22  0  0  0  0  0  0  0  0999 V2000
   31.2743   66.6461    7.0677 C   0  0  0  0  0  0  0  0  0  0  0  0
   31.5570   67.5952    6.0355 O   0  0  0  0  0  0  0  0  0  0  0  0
   32.4095   66.7503    8.1577 C   0  0  0  0  0  0  0  0  0  0  0  0
   33.6458   66.3737    7.5665 O   0  0  0  0  0  0  0  0  0  0  0  0
   32.1727   66.0397    9.5330 C   0  0  0  0  0  0  0  0  0  0  0  0
   32.9345   65.2400   10.0069 O   0  0  0  0  0  0  0  0  0  0  0  0
   30.6418   65.3299    9.5206 C   0  0  0  0  0  0  0  0  0  0  0  0
   30.2228   65.1836   10.9133 N   0  0  0  0  0  0  0  0  0  0  0  0
   29.1820   65.9344   11.1960 C   0  0  0  0  0  0  0  0  0  0  0  0
   28.6558   65.9693   12.3092 O   0  0  0  0  0  0  0  0  0  0  0  0
   28.8040   66.6901    9.9385 C   0  0  0  0  0  0  0  0  0  0  0  0
   27.8679   67.4997    9.8139 O   0  0  0  0  0  0  0  0  0  0  0  0
   29.6888   66.3129    8.9911 N   0  0  0  0  0  0  0  0  0  0  0  0
   29.8268   66.9589    7.6259 C   0  0  0  0  0  0  0  0  0  0  0  0
   31.5470   68.4907    6.4081 H   0  0  0  0  0  0  0  0  0  0  0  0
   33.6092   65.4396    7.3077 H   0  0  0  0  0  0  0  0  0  0  0  0
   32.8901   64.4128    9.5023 H   0  0  0  0  0  0  0  0  0  0  0  0
   30.6676   64.5924   11.5627 H   0  0  0  0  0  0  0  0  0  0  0  0
   28.7623   66.4185    6.6318 C   0  0  0  0  0  0  0  0  0  0  0  0
   27.4275   66.7667    7.0342 O   0  0  0  0  0  0  0  0  0  0  0  0
   27.2384   66.3744    7.9009 H   0  0  0  0  0  0  0  0  0  0  0  0
  1  2  1  0  0  0
  1  3  1  0  0  0
  1 14  1  0  0  0
  3  4  1  0  0  0
  3  5  1  0  0  0
  5  6  1  0  0  0
  5  7  1  0  0  0
  7  8  1  0  0  0
  7 13  1  0  0  0
  8  9  1  0  0  0
  9 10  2  0  0  0
  9 11  1  0  0  0
 11 12  2  0  0  0
 11 13  1  0  0  0
 13 14  1  0  0  0
 14 19  1  0  0  0
 19 20  1  0  0  0
  2 15  1  0  0  0
  4 16  1  0  0  0
  6 17  1  0  0  0
  8 18  1  0  0  0
 20 21  1  0  0  0
M  END
> <minimizedAffinity>
-9.11741

$$$$
1PS3_KIF_A_1501


 21 22  0  0  0  0  0  0  0  0999 V2000
   29.7059   66.4975    7.6440 C   0  0  0  0  0  0  0  0  0  0  0  0
   29.6306   67.4636    6.5919 O   0  0  0  0  0  0  0  0  0  0  0  0
   31.1102   66.6426    8.3472 C   0  0  0  0  0  0  0  0  0  0  0  0
   32.1265   66.3214    7.4072 O   0  0  0  0  0  0  0  0  0  0  0  0
   31.3226   65.9146    9.7174 C   0  0  0  0  0  0  0  0  0  0  0  0
   32.2211   65.1446    9.9278 O   0  0  0  0  0  0  0  0  0  0  0  0
   29.8863   65.1415   10.1497 C   0  0  0  0  0  0  0  0  0  0  0  0
   29.9086   64.9696   11.6010 N   0  0  0  0  0  0  0  0  0  0  0  0
   28.9722   65.6747   12.1950 C   0  0  0  0  0  0  0  0  0  0  0  0
   28.8019   65.6809   13.4150 O   0  0  0  0  0  0  0  0  0  0  0  0
   28.2070   66.4213   11.1216 C   0  0  0  0  0  0  0  0  0  0  0  0
   27.2463   67.1918   11.2968 O   0  0  0  0  0  0  0  0  0  0  0  0
   28.7818   66.0870    9.9466 N   0  0  0  0  0  0  0  0  0  0  0  0
   28.4806   66.7462    8.6145 C   0  0  0  0  0  0  0  0  0  0  0  0
   29.6983   68.3557    6.9666 H   0  0  0  0  0  0  0  0  0  0  0  0
   32.0499   65.3881    7.1543 H   0  0  0  0  0  0  0  0  0  0  0  0
   32.0595   64.3192    9.4445 H   0  0  0  0  0  0  0  0  0  0  0  0
   30.5495   64.3937   12.0772 H   0  0  0  0  0  0  0  0  0  0  0  0
   27.1890   66.1677    7.9737 C   0  0  0  0  0  0  0  0  0  0  0  0
   26.0097   66.8415    8.4429 O   0  0  0  0  0  0  0  0  0  0  0  0
   25.9321   66.7266    9.4030 H   0  0  0  0  0  0  0  0  0  0  0  0
  1  2  1  0  0  0
  1  3  1  0  0  0
  1 14  1  0  0  0
  3  4  1  0  0  0
  3  5  1  0  0  0
  5  6  1  0  0  0
  5  7  1  0  0  0
  7  8  1  0  0  0
  7 13  1  0  0  0
  8  9  1  0  0  0
  9 10  2  0  0  0
  9 11  1  0  0  0
 11 12  2  0  0  0
 11 13  1  0  0  0
 13 14  1  0  0  0
 14 19  1  0  0  0
 19 20  1  0  0  0
  2 15  1  0  0  0
  4 16  1  0  0  0
  6 17  1  0  0  0
  8 18  1  0  0  0
 20 21  1  0  0  0
M  END
> <minimizedAffinity>
-7.13360

$$$$
1PS3_KIF_A_1501


 21 22  0  0  0  0  0  0  0  0999 V2000
   28.6762   65.4785   10.9946 C   0  0  0  0  0  0  0  0  0  0  0  0
   30.0969   65.5318   11.1507 O   0  0  0  0  0  0  0  0  0  0  0  0
   28.3059   66.1502    9.6164 C   0  0  0  0  0  0  0  0  0  0  0  0
   28.6731   67.5223    9.6643 O   0  0  0  0  0  0  0  0  0  0  0  0
   26.8528   65.9472    9.0689 C   0  0  0  0  0  0  0  0  0  0  0  0
   26.1253   66.8541    8.7645 O   0  0  0  0  0  0  0  0  0  0  0  0
   26.0026   64.9582   10.1397 C   0  0  0  0  0  0  0  0  0  0  0  0
   24.9161   64.3378    9.3840 N   0  0  0  0  0  0  0  0  0  0  0  0
   25.0647   63.0358    9.2864 C   0  0  0  0  0  0  0  0  0  0  0  0
   24.2669   62.3065    8.6957 O   0  0  0  0  0  0  0  0  0  0  0  0
   26.3423   62.6624   10.0100 C   0  0  0  0  0  0  0  0  0  0  0  0
   26.8167   61.5193   10.1338 O   0  0  0  0  0  0  0  0  0  0  0  0
   26.8594   63.8166   10.4826 N   0  0  0  0  0  0  0  0  0  0  0  0
   28.2368   63.9617   11.1005 C   0  0  0  0  0  0  0  0  0  0  0  0
   30.5197   65.0282   10.4376 H   0  0  0  0  0  0  0  0  0  0  0  0
   28.1391   67.9767   10.3346 H   0  0  0  0  0  0  0  0  0  0  0  0
   25.8253   67.3110    9.5659 H   0  0  0  0  0  0  0  0  0  0  0  0
   24.1620   64.8364    8.9942 H   0  0  0  0  0  0  0  0  0  0  0  0
   28.2388   63.5267   12.5919 C   0  0  0  0  0  0  0  0  0  0  0  0
   29.4631   63.8854   13.2532 O   0  0  0  0  0  0  0  0  0  0  0  0
   30.2072   63.4376   12.8210 H   0  0  0  0  0  0  0  0  0  0  0  0
  1  2  1  0  0  0
  1  3  1  0  0  0
  1 14  1  0  0  0
  3  4  1  0  0  0
  3  5  1  0  0  0
  5  6  1  0  0  0
  5  7  1  0  0  0
  7  8  1  0  0  0
  7 13  1  0  0  0
  8  9  1  0  0  0
  9 10  2  0  0  0
  9 11  1  0  0  0
 11 12  2  0  0  0
 11 13  1  0  0  0
 13 14  1  0  0  0
 14 19  1  0  0  0
 19 20  1  0  0  0
  2 15  1  0  0  0
  4 16  1  0  0  0
  6 17  1  0  0  0
  8 18  1  0  0  0
 20 21  1  0  0  0
M  END
> <minimizedAffinity>
-7.13112

$$$$
1PS3_KIF_A_1501


 21 22  0  0  0  0  0  0  0  0999 V2000
   28.6660   65.1802   11.8295 C   0  0  0  0  0  0  0  0  0  0  0  0
   29.6278   64.5175   12.6551 O   0  0  0  0  0  0  0  0  0  0  0  0
   29.3597   65.5466   10.4612 C   0  0  0  0  0  0  0  0  0  0  0  0
   30.4071   66.4732   10.7143 O   0  0  0  0  0  0  0  0  0  0  0  0
   28.4448   66.0003    9.2739 C   0  0  0  0  0  0  0  0  0  0  0  0
   28.5944   67.0331    8.6776 O   0  0  0  0  0  0  0  0  0  0  0  0
   26.8346   65.9375    9.7747 C   0  0  0  0  0  0  0  0  0  0  0  0
   26.0136   65.8056    8.5726 N   0  0  0  0  0  0  0  0  0  0  0  0
   25.3883   64.6507    8.5274 C   0  0  0  0  0  0  0  0  0  0  0  0
   24.6383   64.3235    7.6067 O   0  0  0  0  0  0  0  0  0  0  0  0
   25.7692   63.8717    9.7697 C   0  0  0  0  0  0  0  0  0  0  0  0
   25.3760   62.7331   10.0798 O   0  0  0  0  0  0  0  0  0  0  0  0
   26.6214   64.6578   10.4616 N   0  0  0  0  0  0  0  0  0  0  0  0
   27.4207   64.2161   11.6724 C   0  0  0  0  0  0  0  0  0  0  0  0
   29.9137   63.6971   12.2237 H   0  0  0  0  0  0  0  0  0  0  0  0
   30.0316   67.3009   11.0532 H   0  0  0  0  0  0  0  0  0  0  0  0
   28.3311   67.7748    9.2445 H   0  0  0  0  0  0  0  0  0  0  0  0
   25.9381   66.5000    7.8788 H   0  0  0  0  0  0  0  0  0  0  0  0
   26.5637   64.2649   12.9672 C   0  0  0  0  0  0  0  0  0  0  0  0
   25.8453   63.0389   13.1811 O   0  0  0  0  0  0  0  0  0  0  0  0
   25.2392   62.8857   12.4394 H   0  0  0  0  0  0  0  0  0  0  0  0
  1  2  1  0  0  0
  1  3  1  0  0  0
  1 14  1  0  0  0
  3  4  1  0  0  0
  3  5  1  0  0  0
  5  6  1  0  0  0
  5  7  1  0  0  0
  7  8  1  0  0  0
  7 13  1  0  0  0
  8  9  1  0  0  0
  9 10  2  0  0  0
  9 11  1  0  0  0
 11 12  2  0  0  0
 11 13  1  0  0  0
 13 14  1  0  0  0
 14 19  1  0  0  0
 19 20  1  0  0  0
  2 15  1  0  0  0
  4 16  1  0  0  0
  6 17  1  0  0  0
  8 18  1  0  0  0
 20 21  1  0  0  0
M  END
> <minimizedAffinity>
-6.86913

$$$$
1PS3_KIF_A_1501


 21 22  0  0  0  0  0  0  0  0999 V2000
   29.2113   65.5765   11.6984 C   0  0  0  0  0  0  0  0  0  0  0  0
   29.6353   66.8716   12.1329 O   0  0  0  0  0  0  0  0  0  0  0  0
   28.6800   64.7844   12.9546 C   0  0  0  0  0  0  0  0  0  0  0  0
   29.7568   64.5926   13.8620 O   0  0  0  0  0  0  0  0  0  0  0  0
   27.8784   63.4629   12.7027 C   0  0  0  0  0  0  0  0  0  0  0  0
   28.1708   62.4053   13.1929 O   0  0  0  0  0  0  0  0  0  0  0  0
   27.7357   63.2236   11.0384 C   0  0  0  0  0  0  0  0  0  0  0  0
   26.5696   62.3688   10.8238 N   0  0  0  0  0  0  0  0  0  0  0  0
   25.6105   62.9961   10.1808 C   0  0  0  0  0  0  0  0  0  0  0  0
   24.5362   62.4697    9.8877 O   0  0  0  0  0  0  0  0  0  0  0  0
   26.0887   64.4064    9.9022 C   0  0  0  0  0  0  0  0  0  0  0  0
   25.4565   65.2999    9.3112 O   0  0  0  0  0  0  0  0  0  0  0  0
   27.3286   64.4956   10.4291 N   0  0  0  0  0  0  0  0  0  0  0  0
   28.1220   65.7805   10.5685 C   0  0  0  0  0  0  0  0  0  0  0  0
   28.8787   67.3519   12.5042 H   0  0  0  0  0  0  0  0  0  0  0  0
   30.4276   64.0241   13.4523 H   0  0  0  0  0  0  0  0  0  0  0  0
   28.9783   62.0675   12.7749 H   0  0  0  0  0  0  0  0  0  0  0  0
   26.5098   61.4335   11.1253 H   0  0  0  0  0  0  0  0  0  0  0  0
   28.8251   66.1611    9.2365 C   0  0  0  0  0  0  0  0  0  0  0  0
   27.9172   66.7762    8.3079 O   0  0  0  0  0  0  0  0  0  0  0  0
   27.2056   66.1538    8.0910 H   0  0  0  0  0  0  0  0  0  0  0  0
  1  2  1  0  0  0
  1  3  1  0  0  0
  1 14  1  0  0  0
  3  4  1  0  0  0
  3  5  1  0  0  0
  5  6  1  0  0  0
  5  7  1  0  0  0
  7  8  1  0  0  0
  7 13  1  0  0  0
  8  9  1  0  0  0
  9 10  2  0  0  0
  9 11  1  0  0  0
 11 12  2  0  0  0
 11 13  1  0  0  0
 13 14  1  0  0  0
 14 19  1  0  0  0
 19 20  1  0  0  0
  2 15  1  0  0  0
  4 16  1  0  0  0
  6 17  1  0  0  0
  8 18  1  0  0  0
 20 21  1  0  0  0
M  END
> <minimizedAffinity>
-6.53750

$$$$
1PS3_KIF_A_1501


 21 22  0  0  0  0  0  0  0  0999 V2000
   27.0958   65.8503    8.9576 C   0  0  0  0  0  0  0  0  0  0  0  0
   26.3655   66.8584    8.2531 O   0  0  0  0  0  0  0  0  0  0  0  0
   28.3087   66.5419    9.6912 C   0  0  0  0  0  0  0  0  0  0  0  0
   29.1824   67.0883    8.7126 O   0  0  0  0  0  0  0  0  0  0  0  0
   29.0798   65.7133   10.7735 C   0  0  0  0  0  0  0  0  0  0  0  0
   30.2677   65.5325   10.7494 O   0  0  0  0  0  0  0  0  0  0  0  0
   28.3441   64.2023   10.9263 C   0  0  0  0  0  0  0  0  0  0  0  0
   28.6787   63.6917   12.2543 N   0  0  0  0  0  0  0  0  0  0  0  0
   27.6182   63.5863   13.0232 C   0  0  0  0  0  0  0  0  0  0  0  0
   27.6623   63.1744   14.1832 O   0  0  0  0  0  0  0  0  0  0  0  0
   26.4197   64.0505   12.2211 C   0  0  0  0  0  0  0  0  0  0  0  0
   25.2395   64.0955   12.6112 O   0  0  0  0  0  0  0  0  0  0  0  0
   26.8931   64.4091   11.0085 N   0  0  0  0  0  0  0  0  0  0  0  0
   26.0892   65.1245    9.9399 C   0  0  0  0  0  0  0  0  0  0  0  0
   26.0163   67.5059    8.8853 H   0  0  0  0  0  0  0  0  0  0  0  0
   29.5646   66.3708    8.1836 H   0  0  0  0  0  0  0  0  0  0  0  0
   30.4864   64.9159   10.0332 H   0  0  0  0  0  0  0  0  0  0  0  0
   29.5908   63.4547   12.5392 H   0  0  0  0  0  0  0  0  0  0  0  0
   25.2063   64.1324    9.1338 C   0  0  0  0  0  0  0  0  0  0  0  0
   25.3661   64.3030    7.7160 O   0  0  0  0  0  0  0  0  0  0  0  0
   25.0946   65.1999    7.4656 H   0  0  0  0  0  0  0  0  0  0  0  0
  1  2  1  0  0  0
  1  3  1  0  0  0
  1 14  1  0  0  0
  3  4  1  0  0  0
  3  5  1  0  0  0
  5  6  1  0  0  0
  5  7  1  0  0  0
  7  8  1  0  0  0
  7 13  1  0  0  0
  8  9  1  0  0  0
  9 10  2  0  0  0
  9 11  1  0  0  0
 11 12  2  0  0  0
 11 13  1  0  0  0
 13 14  1  0  0  0
 14 19  1  0  0  0
 19 20  1  0  0  0
  2 15  1  0  0  0
  4 16  1  0  0  0
  6 17  1  0  0  0
  8 18  1  0  0  0
 20 21  1  0  0  0
M  END
> <minimizedAffinity>
-6.52835

$$$$
1PS3_KIF_A_1501


 21 22  0  0  0  0  0  0  0  0999 V2000
   27.5854   63.3020   11.0766 C   0  0  0  0  0  0  0  0  0  0  0  0
   27.8162   62.2619   12.0310 O   0  0  0  0  0  0  0  0  0  0  0  0
   26.2293   62.9959   10.3317 C   0  0  0  0  0  0  0  0  0  0  0  0
   26.3713   61.7824    9.6058 O   0  0  0  0  0  0  0  0  0  0  0  0
   25.5984   64.1340    9.4604 C   0  0  0  0  0  0  0  0  0  0  0  0
   25.3079   63.9996    8.3020 O   0  0  0  0  0  0  0  0  0  0  0  0
   26.5685   65.5096    9.5794 C   0  0  0  0  0  0  0  0  0  0  0  0
   25.7255   66.6608    9.2621 N   0  0  0  0  0  0  0  0  0  0  0  0
   25.5640   67.4535   10.2977 C   0  0  0  0  0  0  0  0  0  0  0  0
   24.8943   68.4866   10.2605 O   0  0  0  0  0  0  0  0  0  0  0  0
   26.3299   66.8549   11.4597 C   0  0  0  0  0  0  0  0  0  0  0  0
   26.4145   67.3210   12.6099 O   0  0  0  0  0  0  0  0  0  0  0  0
   26.8910   65.7177   10.9962 N   0  0  0  0  0  0  0  0  0  0  0  0
   27.5852   64.6793   11.8564 C   0  0  0  0  0  0  0  0  0  0  0  0
   27.0987   62.2571   12.6838 H   0  0  0  0  0  0  0  0  0  0  0  0
   27.0376   61.8976    8.9104 H   0  0  0  0  0  0  0  0  0  0  0  0
   26.1169   63.9559    7.7687 H   0  0  0  0  0  0  0  0  0  0  0  0
   25.3260   66.8232    8.3770 H   0  0  0  0  0  0  0  0  0  0  0  0
   29.0485   65.0922   12.1752 C   0  0  0  0  0  0  0  0  0  0  0  0
   29.6493   64.2259   13.1516 O   0  0  0  0  0  0  0  0  0  0  0  0
   29.1481   64.2763   13.9805 H   0  0  0  0  0  0  0  0  0  0  0  0
  1  2  1  0  0  0
  1  3  1  0  0  0
  1 14  1  0  0  0
  3  4  1  0  0  0
  3  5  1  0  0  0
  5  6  1  0  0  0
  5  7  1  0  0  0
  7  8  1  0  0  0
  7 13  1  0  0  0
  8  9  1  0  0  0
  9 10  2  0  0  0
  9 11  1  0  0  0
 11 12  2  0  0  0
 11 13  1  0  0  0
 13 14  1  0  0  0
 14 19  1  0  0  0
 19 20  1  0  0  0
  2 15  1  0  0  0
  4 16  1  0  0  0
  6 17  1  0  0  0
  8 18  1  0  0  0
 20 21  1  0  0  0
M  END
> <minimizedAffinity>
-6.41033

$$$$
1PS3_KIF_A_1501


 21 22  0  0  0  0  0  0  0  0999 V2000
   26.0934   64.6819   12.0222 C   0  0  0  0  0  0  0  0  0  0  0  0
   24.8198   64.0452   11.8865 O   0  0  0  0  0  0  0  0  0  0  0  0
   27.1458   63.5917   12.4597 C   0  0  0  0  0  0  0  0  0  0  0  0
   26.7838   63.0965   13.7417 O   0  0  0  0  0  0  0  0  0  0  0  0
   28.6646   63.9647   12.3787 C   0  0  0  0  0  0  0  0  0  0  0  0
   29.4203   63.8768   13.3091 O   0  0  0  0  0  0  0  0  0  0  0  0
   28.8072   65.5285   11.7609 C   0  0  0  0  0  0  0  0  0  0  0  0
   30.1431   65.6422   11.1786 N   0  0  0  0  0  0  0  0  0  0  0  0
   30.1001   65.8072    9.8756 C   0  0  0  0  0  0  0  0  0  0  0  0
   31.1065   65.9295    9.1760 O   0  0  0  0  0  0  0  0  0  0  0  0
   28.6433   65.8127    9.4598 C   0  0  0  0  0  0  0  0  0  0  0  0
   28.2032   65.9461    8.3040 O   0  0  0  0  0  0  0  0  0  0  0  0
   27.9273   65.6374   10.5909 N   0  0  0  0  0  0  0  0  0  0  0  0
   26.4342   65.3760   10.6412 C   0  0  0  0  0  0  0  0  0  0  0  0
   24.8693   63.3675   11.1942 H   0  0  0  0  0  0  0  0  0  0  0  0
   26.8518   63.8103   14.3950 H   0  0  0  0  0  0  0  0  0  0  0  0
   29.2208   64.5729   13.9545 H   0  0  0  0  0  0  0  0  0  0  0  0
   30.9765   65.6003   11.7009 H   0  0  0  0  0  0  0  0  0  0  0  0
   25.6222   66.6940   10.5117 C   0  0  0  0  0  0  0  0  0  0  0  0
   25.4230   67.0681    9.1387 O   0  0  0  0  0  0  0  0  0  0  0  0
   26.2833   67.2165    8.7159 H   0  0  0  0  0  0  0  0  0  0  0  0
  1  2  1  0  0  0
  1  3  1  0  0  0
  1 14  1  0  0  0
  3  4  1  0  0  0
  3  5  1  0  0  0
  5  6  1  0  0  0
  5  7  1  0  0  0
  7  8  1  0  0  0
  7 13  1  0  0  0
  8  9  1  0  0  0
  9 10  2  0  0  0
  9 11  1  0  0  0
 11 12  2  0  0  0
 11 13  1  0  0  0
 13 14  1  0  0  0
 14 19  1  0  0  0
 19 20  1  0  0  0
  2 15  1  0  0  0
  4 16  1  0  0  0
  6 17  1  0  0  0
  8 18  1  0  0  0
 20 21  1  0  0  0
M  END
> <minimizedAffinity>
-6.35164

$$$$
1PS3_KIF_A_1501


 21 22  0  0  0  0  0  0  0  0999 V2000
   26.1641   65.9539    8.9376 C   0  0  0  0  0  0  0  0  0  0  0  0
   26.5115   66.5732    7.6959 O   0  0  0  0  0  0  0  0  0  0  0  0
   25.5952   64.5156    8.6292 C   0  0  0  0  0  0  0  0  0  0  0  0
   24.3973   64.6505    7.8763 O   0  0  0  0  0  0  0  0  0  0  0  0
   25.4301   63.5202    9.8268 C   0  0  0  0  0  0  0  0  0  0  0  0
   24.3961   62.9693   10.0947 O   0  0  0  0  0  0  0  0  0  0  0  0
   25.9801   64.2696   11.2352 C   0  0  0  0  0  0  0  0  0  0  0  0
   26.3449   63.2101   12.1736 N   0  0  0  0  0  0  0  0  0  0  0  0
   27.6344   63.1985   12.4266 C   0  0  0  0  0  0  0  0  0  0  0  0
   28.1660   62.3932   13.1922 O   0  0  0  0  0  0  0  0  0  0  0  0
   28.2711   64.3151   11.6248 C   0  0  0  0  0  0  0  0  0  0  0  0
   29.4776   64.6170   11.6036 O   0  0  0  0  0  0  0  0  0  0  0  0
   27.2695   64.9054   10.9384 N   0  0  0  0  0  0  0  0  0  0  0  0
   27.4582   65.9434    9.8488 C   0  0  0  0  0  0  0  0  0  0  0  0
   27.2039   66.0538    7.2581 H   0  0  0  0  0  0  0  0  0  0  0  0
   23.7243   65.0936    8.4163 H   0  0  0  0  0  0  0  0  0  0  0  0
   23.7727   63.6139   10.4646 H   0  0  0  0  0  0  0  0  0  0  0  0
   25.7007   62.5796   12.5694 H   0  0  0  0  0  0  0  0  0  0  0  0
   27.6801   67.3601   10.4464 C   0  0  0  0  0  0  0  0  0  0  0  0
   26.5351   68.2073   10.2567 O   0  0  0  0  0  0  0  0  0  0  0  0
   26.3680   68.3173    9.3076 H   0  0  0  0  0  0  0  0  0  0  0  0
  1  2  1  0  0  0
  1  3  1  0  0  0
  1 14  1  0  0  0
  3  4  1  0  0  0
  3  5  1  0  0  0
  5  6  1  0  0  0
  5  7  1  0  0  0
  7  8  1  0  0  0
  7 13  1  0  0  0
  8  9  1  0  0  0
  9 10  2  0  0  0
  9 11  1  0  0  0
 11 12  2  0  0  0
 11 13  1  0  0  0
 13 14  1  0  0  0
 14 19  1  0  0  0
 19 20  1  0  0  0
  2 15  1  0  0  0
  4 16  1  0  0  0
  6 17  1  0  0  0
  8 18  1  0  0  0
 20 21  1  0  0  0
M  END
> <minimizedAffinity>
-6.29977

$$$$
1PS3_KIF_A_1501


 21 22  0  0  0  0  0  0  0  0999 V2000
   27.3281   63.9368   12.8782 C   0  0  0  0  0  0  0  0  0  0  0  0
   27.4252   62.6857   13.5645 O   0  0  0  0  0  0  0  0  0  0  0  0
   28.7791   64.3730   12.4401 C   0  0  0  0  0  0  0  0  0  0  0  0
   29.5614   64.5920   13.6062 O   0  0  0  0  0  0  0  0  0  0  0  0
   28.9127   65.5460   11.4112 C   0  0  0  0  0  0  0  0  0  0  0  0
   29.5710   66.5317   11.6100 O   0  0  0  0  0  0  0  0  0  0  0  0
   27.3670   66.0552   10.9650 C   0  0  0  0  0  0  0  0  0  0  0  0
   27.4860   66.7033    9.6603 N   0  0  0  0  0  0  0  0  0  0  0  0
   26.8543   66.0372    8.7199 C   0  0  0  0  0  0  0  0  0  0  0  0
   26.8172   66.3997    7.5433 O   0  0  0  0  0  0  0  0  0  0  0  0
   26.2292   64.8155    9.3616 C   0  0  0  0  0  0  0  0  0  0  0  0
   25.5507   63.9437    8.7898 O   0  0  0  0  0  0  0  0  0  0  0  0
   26.5631   64.8632   10.6689 N   0  0  0  0  0  0  0  0  0  0  0  0
   26.3291   63.7445   11.6658 C   0  0  0  0  0  0  0  0  0  0  0  0
   27.7819   62.0136   12.9628 H   0  0  0  0  0  0  0  0  0  0  0  0
   29.1968   65.3403   14.1042 H   0  0  0  0  0  0  0  0  0  0  0  0
   29.1329   67.0842   12.2761 H   0  0  0  0  0  0  0  0  0  0  0  0
   27.9810   67.5399    9.5044 H   0  0  0  0  0  0  0  0  0  0  0  0
   24.8683   63.7513   12.1945 C   0  0  0  0  0  0  0  0  0  0  0  0
   24.8033   63.4308   13.5938 O   0  0  0  0  0  0  0  0  0  0  0  0
   25.1584   62.5398   13.7383 H   0  0  0  0  0  0  0  0  0  0  0  0
  1  2  1  0  0  0
  1  3  1  0  0  0
  1 14  1  0  0  0
  3  4  1  0  0  0
  3  5  1  0  0  0
  5  6  1  0  0  0
  5  7  1  0  0  0
  7  8  1  0  0  0
  7 13  1  0  0  0
  8  9  1  0  0  0
  9 10  2  0  0  0
  9 11  1  0  0  0
 11 12  2  0  0  0
 11 13  1  0  0  0
 13 14  1  0  0  0
 14 19  1  0  0  0
 19 20  1  0  0  0
  2 15  1  0  0  0
  4 16  1  0  0  0
  6 17  1  0  0  0
  8 18  1  0  0  0
 20 21  1  0  0  0
M  END
> <minimizedAffinity>
-6.29482

$$$$
