1PS3_KIF_A_1501
  RCSB PDB12061703413D
Coordinates from PDB:1PS3:A:1501 Model:1 without hydrogens
 16 17  0  0  0  0            999 V2000
   31.4730   66.7250    6.8040   C 0  0  0  0  0  0  0  0  0  0  0  0
   31.7420   67.6100    5.7130   O 0  0  0  0  0  0  0  0  0  0  0  0
   32.6900   66.7920    7.8050   C 0  0  0  0  0  0  0  0  0  0  0  0
   33.8510   66.3060    7.1450   O 0  0  0  0  0  0  0  0  0  0  0  0
   32.5080   66.1550    9.2240   C 0  0  0  0  0  0  0  0  0  0  0  0
   33.2470   65.3230    9.6780   O 0  0  0  0  0  0  0  0  0  0  0  0
   30.9360   65.5550    9.3520   C 0  0  0  0  0  0  0  0  0  0  0  0
   30.6120   65.4940   10.7760   N 0  0  0  0  0  0  0  0  0  0  0  0
   29.6480   66.3270   11.0980   C 0  0  0  0  0  0  0  0  0  0  0  0
   29.2090   66.4430   12.2430   O 0  0  0  0  0  0  0  0  0  0  0  0
   29.2300   67.0570    9.8380   C 0  0  0  0  0  0  0  0  0  0  0  0
   28.3440   67.9250    9.7440   O 0  0  0  0  0  0  0  0  0  0  0  0
   30.0150   66.5810    8.8480   N 0  0  0  0  0  0  0  0  0  0  0  0
   30.0950   67.1610    7.4490   C 0  0  0  0  0  0  0  0  0  0  0  0
   28.9260   66.6580    6.5580   C 0  0  0  0  0  0  0  0  0  0  0  0
   27.6460   66.9110    7.1600   O 0  0  0  0  0  0  0  0  0  0  0  0
  1  2  1  0  0  0  0
  1  3  1  0  0  0  0
  1 14  1  0  0  0  0
  3  4  1  0  0  0  0
  3  5  1  0  0  0  0
  5  6  1  0  0  0  0
  5  7  1  0  0  0  0
  7  8  1  0  0  0  0
  7 13  1  0  0  0  0
  8  9  1  0  0  0  0
  9 10  2  0  0  0  0
  9 11  1  0  0  0  0
 11 12  2  0  0  0  0
 11 13  1  0  0  0  0
 13 14  1  0  0  0  0
 14 15  1  0  0  0  0
 15 16  1  0  0  0  0
A    1
C4
A    2
O4
A    3
C3
A    4
O3
A    5
C2
A    6
O2
A    7
C1
A    8
N9
A    9
C8
A   10
O8
A   11
C7
A   12
O7
A   13
N
A   14
C5
A   15
C6
A   16
O6
M  END
>  <InstanceId>
1PS3_KIF_A_1501

>  <ChemCompId>
KIF

>  <PdbId>
1PS3

>  <ChainId>
A

>  <ResidueNumber>
1501

>  <InsertionCode>


>  <Model>
1

>  <AltIds>


>  <MissingHeavyAtoms>
0

>  <ObservedFormula>
C8 N2 O6

>  <Name>
KIFUNENSINE

>  <SystematicName>
(5R,6R,7S,8R,8aS)-6,7,8-trihydroxy-5-(hydroxymethyl)-1,5,6,7,8,8a-hexahydroimidazo[1,2-a]pyridine-2,3-dione

>  <Synonyms>


>  <Type>
NON-POLYMER

>  <Formula>
C8 H12 N2 O6

>  <MolecularWeight>
232.191

>  <ModifiedDate>
2011-06-04

>  <Parent>


>  <OneLetterCode>


>  <SubcomponentList>


>  <AmbiguousFlag>
N

>  <InChI>
InChI=1S/C8H12N2O6/c11-1-2-3(12)4(13)5(14)6-9-7(15)8(16)10(2)6/h2-6,11-14H,1H2,(H,9,15)/t2-,3-,4+,5+,6+/m1/s1

>  <InChIKey>
OIURYJWYVIAOCW-PQMKYFCFSA-N

>  <SMILES>
C([C@@H]1[C@H]([C@@H]([C@@H]([C@@H]2N1C(=O)C(=O)N2)O)O)O)O

$$$$
