5GJA_6PC_A_402


 10 10  0  0  0  0  0  0  0  0999 V2000
   36.0615    0.9502    4.0200 C   0  0  0  0  0  0  0  0  0  0  0  0
   37.2478   -0.4430    5.4962 C   0  0  0  0  0  0  0  0  0  0  0  0
   36.7273   -1.5666    4.8584 C   0  0  0  0  0  0  0  0  0  0  0  0
   35.8814   -1.4043    3.8162 C   0  0  0  0  0  0  0  0  0  0  0  0
   35.5345   -0.1723    3.3765 C   0  0  0  0  0  0  0  0  0  0  0  0
   36.9054    0.7924    5.0611 N   0  0  0  0  0  0  0  0  0  0  0  0
   35.6553    2.3268    3.5351 C   0  0  0  0  0  0  0  0  0  0  0  0
   34.7175    2.4839    2.6668 O   0  0  0  0  0  0  0  0  0  0  0  0
   36.3288    3.2996    3.9917 O   0  0  0  0  0  0  0  0  0  0  0  0
   37.0040    3.1466    4.6230 H   0  0  0  0  0  0  0  0  0  0  0  0
  1  7  1  0  0  0
  1  5  2  0  0  0
  1  6  1  0  0  0
  2  3  1  0  0  0
  2  6  2  0  0  0
  3  4  2  0  0  0
  7  8  2  0  0  0
  7  9  1  0  0  0
  4  5  1  0  0  0
  9 10  1  0  0  0
M  END
> <minimizedAffinity>
-5.79577

$$$$
5GJA_6PC_A_402


 10 10  0  0  0  0  0  0  0  0999 V2000
   35.9775    0.9772    3.8710 C   0  0  0  0  0  0  0  0  0  0  0  0
   37.2025   -0.3873    5.3423 C   0  0  0  0  0  0  0  0  0  0  0  0
   36.6793   -1.5232    4.7289 C   0  0  0  0  0  0  0  0  0  0  0  0
   35.8127   -1.3810    3.7008 C   0  0  0  0  0  0  0  0  0  0  0  0
   35.4477   -0.1576    3.2519 C   0  0  0  0  0  0  0  0  0  0  0  0
   36.8421    0.8396    4.8979 N   0  0  0  0  0  0  0  0  0  0  0  0
   35.5511    2.3441    3.3762 C   0  0  0  0  0  0  0  0  0  0  0  0
   36.0454    3.4237    3.8744 O   0  0  0  0  0  0  0  0  0  0  0  0
   34.6449    2.3578    2.4890 O   0  0  0  0  0  0  0  0  0  0  0  0
   34.3092    1.5515    2.1497 H   0  0  0  0  0  0  0  0  0  0  0  0
  1  7  1  0  0  0
  1  5  2  0  0  0
  1  6  1  0  0  0
  2  3  1  0  0  0
  2  6  2  0  0  0
  3  4  2  0  0  0
  7  8  2  0  0  0
  7  9  1  0  0  0
  4  5  1  0  0  0
  9 10  1  0  0  0
M  END
> <minimizedAffinity>
-5.76328

$$$$
5GJA_6PC_A_402


 10 10  0  0  0  0  0  0  0  0999 V2000
   35.7026    0.4363    3.7973 C   0  0  0  0  0  0  0  0  0  0  0  0
   36.3109   -1.8305    3.9355 C   0  0  0  0  0  0  0  0  0  0  0  0
   37.0970   -1.5543    5.0517 C   0  0  0  0  0  0  0  0  0  0  0  0
   37.1700   -0.2854    5.5129 C   0  0  0  0  0  0  0  0  0  0  0  0
   36.4903    0.7209    4.9155 C   0  0  0  0  0  0  0  0  0  0  0  0
   35.6278   -0.8287    3.3334 N   0  0  0  0  0  0  0  0  0  0  0  0
   34.9585    1.5699    3.1217 C   0  0  0  0  0  0  0  0  0  0  0  0
   35.1725    2.7988    3.4408 O   0  0  0  0  0  0  0  0  0  0  0  0
   34.0805    1.2314    2.2714 O   0  0  0  0  0  0  0  0  0  0  0  0
   33.9530    0.3265    2.0644 H   0  0  0  0  0  0  0  0  0  0  0  0
  1  7  1  0  0  0
  1  5  2  0  0  0
  1  6  1  0  0  0
  2  3  1  0  0  0
  2  6  2  0  0  0
  3  4  2  0  0  0
  7  8  2  0  0  0
  7  9  1  0  0  0
  4  5  1  0  0  0
  9 10  1  0  0  0
M  END
> <minimizedAffinity>
-5.69466

$$$$
5GJA_6PC_A_402


 10 10  0  0  0  0  0  0  0  0999 V2000
   36.0895    0.9504    4.0053 C   0  0  0  0  0  0  0  0  0  0  0  0
   36.1454   -1.3822    3.7163 C   0  0  0  0  0  0  0  0  0  0  0  0
   36.9094   -1.5100    4.8740 C   0  0  0  0  0  0  0  0  0  0  0  0
   37.2490   -0.4012    5.5693 C   0  0  0  0  0  0  0  0  0  0  0  0
   36.8568    0.8298    5.1665 C   0  0  0  0  0  0  0  0  0  0  0  0
   35.7492   -0.1537    3.3081 N   0  0  0  0  0  0  0  0  0  0  0  0
   35.6689    2.3325    3.5492 C   0  0  0  0  0  0  0  0  0  0  0  0
   34.7287    2.4981    2.6853 O   0  0  0  0  0  0  0  0  0  0  0  0
   36.3332    3.3024    4.0252 O   0  0  0  0  0  0  0  0  0  0  0  0
   37.0107    3.1432    4.6526 H   0  0  0  0  0  0  0  0  0  0  0  0
  1  7  1  0  0  0
  1  5  2  0  0  0
  1  6  1  0  0  0
  2  3  1  0  0  0
  2  6  2  0  0  0
  3  4  2  0  0  0
  7  8  2  0  0  0
  7  9  1  0  0  0
  4  5  1  0  0  0
  9 10  1  0  0  0
M  END
> <minimizedAffinity>
-5.63751

$$$$
5GJA_6PC_A_402


 10 10  0  0  0  0  0  0  0  0999 V2000
   36.5087    0.0516    4.0953 C   0  0  0  0  0  0  0  0  0  0  0  0
   36.1257    2.2817    3.4570 C   0  0  0  0  0  0  0  0  0  0  0  0
   35.0733    1.8706    2.6424 C   0  0  0  0  0  0  0  0  0  0  0  0
   34.7655    0.5560    2.5709 C   0  0  0  0  0  0  0  0  0  0  0  0
   35.4553   -0.3680    3.2791 C   0  0  0  0  0  0  0  0  0  0  0  0
   36.8197    1.3626    4.1687 N   0  0  0  0  0  0  0  0  0  0  0  0
   37.2892   -0.9893    4.8716 C   0  0  0  0  0  0  0  0  0  0  0  0
   37.1472   -2.2477    4.6389 O   0  0  0  0  0  0  0  0  0  0  0  0
   38.0407   -0.5491    5.7936 O   0  0  0  0  0  0  0  0  0  0  0  0
   38.1191    0.3741    5.9335 H   0  0  0  0  0  0  0  0  0  0  0  0
  1  7  1  0  0  0
  1  5  2  0  0  0
  1  6  1  0  0  0
  2  3  1  0  0  0
  2  6  2  0  0  0
  3  4  2  0  0  0
  7  8  2  0  0  0
  7  9  1  0  0  0
  4  5  1  0  0  0
  9 10  1  0  0  0
M  END
> <minimizedAffinity>
-5.58371

$$$$
5GJA_6PC_A_402


 10 10  0  0  0  0  0  0  0  0999 V2000
   36.7133   -0.2664    4.6725 C   0  0  0  0  0  0  0  0  0  0  0  0
   37.7595    1.7893    5.1272 C   0  0  0  0  0  0  0  0  0  0  0  0
   36.5665    2.4580    4.8628 C   0  0  0  0  0  0  0  0  0  0  0  0
   35.4737    1.7467    4.5051 C   0  0  0  0  0  0  0  0  0  0  0  0
   35.5138    0.3977    4.4044 C   0  0  0  0  0  0  0  0  0  0  0  0
   37.8064    0.4399    5.0289 N   0  0  0  0  0  0  0  0  0  0  0  0
   36.7571   -1.7750    4.5403 C   0  0  0  0  0  0  0  0  0  0  0  0
   35.9173   -2.4094    3.7985 O   0  0  0  0  0  0  0  0  0  0  0  0
   37.6282   -2.3710    5.2436 O   0  0  0  0  0  0  0  0  0  0  0  0
   38.2230   -1.8756    5.7715 H   0  0  0  0  0  0  0  0  0  0  0  0
  1  7  1  0  0  0
  1  5  2  0  0  0
  1  6  1  0  0  0
  2  3  1  0  0  0
  2  6  2  0  0  0
  3  4  2  0  0  0
  7  8  2  0  0  0
  7  9  1  0  0  0
  4  5  1  0  0  0
  9 10  1  0  0  0
M  END
> <minimizedAffinity>
-5.35790

$$$$
5GJA_6PC_A_402


 10 10  0  0  0  0  0  0  0  0999 V2000
   35.8441    1.5281    3.4499 C   0  0  0  0  0  0  0  0  0  0  0  0
   36.7024    2.3250    5.4884 C   0  0  0  0  0  0  0  0  0  0  0  0
   37.9149    1.6902    5.2291 C   0  0  0  0  0  0  0  0  0  0  0  0
   38.0619    0.9847    4.0851 C   0  0  0  0  0  0  0  0  0  0  0  0
   37.0569    0.8876    3.1839 C   0  0  0  0  0  0  0  0  0  0  0  0
   35.6931    2.2324    4.5909 N   0  0  0  0  0  0  0  0  0  0  0  0
   34.7166    1.4006    2.4461 C   0  0  0  0  0  0  0  0  0  0  0  0
   34.3233    0.2512    2.0193 O   0  0  0  0  0  0  0  0  0  0  0  0
   34.2283    2.4890    2.0153 O   0  0  0  0  0  0  0  0  0  0  0  0
   34.5398    3.3070    2.3497 H   0  0  0  0  0  0  0  0  0  0  0  0
  1  7  1  0  0  0
  1  5  2  0  0  0
  1  6  1  0  0  0
  2  3  1  0  0  0
  2  6  2  0  0  0
  3  4  2  0  0  0
  7  8  2  0  0  0
  7  9  1  0  0  0
  4  5  1  0  0  0
  9 10  1  0  0  0
M  END
> <minimizedAffinity>
-5.29448

$$$$
5GJA_6PC_A_402


 10 10  0  0  0  0  0  0  0  0999 V2000
   36.7616    0.7602    4.2506 C   0  0  0  0  0  0  0  0  0  0  0  0
   35.4455    2.0492    2.7899 C   0  0  0  0  0  0  0  0  0  0  0  0
   34.6912    0.9225    2.4709 C   0  0  0  0  0  0  0  0  0  0  0  0
   34.9934   -0.2622    3.0483 C   0  0  0  0  0  0  0  0  0  0  0  0
   36.0102   -0.3744    3.9343 C   0  0  0  0  0  0  0  0  0  0  0  0
   36.4638    1.9441    3.6758 N   0  0  0  0  0  0  0  0  0  0  0  0
   37.9103    0.6247    5.2290 C   0  0  0  0  0  0  0  0  0  0  0  0
   38.7275    1.5961    5.4450 O   0  0  0  0  0  0  0  0  0  0  0  0
   38.0475   -0.5126    5.7733 O   0  0  0  0  0  0  0  0  0  0  0  0
   37.4325   -1.1959    5.5921 H   0  0  0  0  0  0  0  0  0  0  0  0
  1  7  1  0  0  0
  1  5  2  0  0  0
  1  6  1  0  0  0
  2  3  1  0  0  0
  2  6  2  0  0  0
  3  4  2  0  0  0
  7  8  2  0  0  0
  7  9  1  0  0  0
  4  5  1  0  0  0
  9 10  1  0  0  0
M  END
> <minimizedAffinity>
-5.27755

$$$$
5GJA_6PC_A_402


 10 10  0  0  0  0  0  0  0  0999 V2000
   36.0071   -0.1393    4.1305 C   0  0  0  0  0  0  0  0  0  0  0  0
   35.9693    2.1736    3.7107 C   0  0  0  0  0  0  0  0  0  0  0  0
   35.0884    1.9696    2.6512 C   0  0  0  0  0  0  0  0  0  0  0  0
   34.6898    0.7123    2.3538 C   0  0  0  0  0  0  0  0  0  0  0  0
   35.1249   -0.3515    3.0683 C   0  0  0  0  0  0  0  0  0  0  0  0
   36.4080    1.1139    4.4299 N   0  0  0  0  0  0  0  0  0  0  0  0
   36.5051   -1.3358    4.9152 C   0  0  0  0  0  0  0  0  0  0  0  0
   37.5570   -1.2643    5.6544 O   0  0  0  0  0  0  0  0  0  0  0  0
   35.8593   -2.4154    4.7545 O   0  0  0  0  0  0  0  0  0  0  0  0
   35.0979   -2.4291    4.2086 H   0  0  0  0  0  0  0  0  0  0  0  0
  1  7  1  0  0  0
  1  5  2  0  0  0
  1  6  1  0  0  0
  2  3  1  0  0  0
  2  6  2  0  0  0
  3  4  2  0  0  0
  7  8  2  0  0  0
  7  9  1  0  0  0
  4  5  1  0  0  0
  9 10  1  0  0  0
M  END
> <minimizedAffinity>
-4.97595

$$$$
5GJA_6PC_A_402


 10 10  0  0  0  0  0  0  0  0999 V2000
   36.2285   -0.1053    3.4631 C   0  0  0  0  0  0  0  0  0  0  0  0
   36.1727   -2.4108    3.9200 C   0  0  0  0  0  0  0  0  0  0  0  0
   35.4701   -2.1633    5.0969 C   0  0  0  0  0  0  0  0  0  0  0  0
   35.1658   -0.8890    5.4313 C   0  0  0  0  0  0  0  0  0  0  0  0
   35.5251    0.1505    4.6428 C   0  0  0  0  0  0  0  0  0  0  0  0
   36.5348   -1.3756    3.1263 N   0  0  0  0  0  0  0  0  0  0  0  0
   36.6441    1.0637    2.5937 C   0  0  0  0  0  0  0  0  0  0  0  0
   36.0354    2.1967    2.6548 O   0  0  0  0  0  0  0  0  0  0  0  0
   37.5828    0.8400    1.7707 O   0  0  0  0  0  0  0  0  0  0  0  0
   38.0027    0.0025    1.7552 H   0  0  0  0  0  0  0  0  0  0  0  0
  1  7  1  0  0  0
  1  5  2  0  0  0
  1  6  1  0  0  0
  2  3  1  0  0  0
  2  6  2  0  0  0
  3  4  2  0  0  0
  7  8  2  0  0  0
  7  9  1  0  0  0
  4  5  1  0  0  0
  9 10  1  0  0  0
M  END
> <minimizedAffinity>
-4.81350

$$$$
