5OS5_A8K_A_404


 17 18  0  0  0  0  0  0  0  0999 V2000
  -11.2760   14.4529  -18.8329 S   0  0  0  0  0  0  0  0  0  0  0  0
  -13.8758   14.6263  -15.7338 C   0  0  0  0  0  0  0  0  0  0  0  0
  -13.3190   14.7087  -16.9972 C   0  0  0  0  0  0  0  0  0  0  0  0
  -12.0065   14.3200  -17.2109 C   0  0  0  0  0  0  0  0  0  0  0  0
  -11.2519   13.8629  -16.1413 C   0  0  0  0  0  0  0  0  0  0  0  0
  -11.8117   13.7706  -14.8808 C   0  0  0  0  0  0  0  0  0  0  0  0
  -13.1275   14.1534  -14.6669 C   0  0  0  0  0  0  0  0  0  0  0  0
  -13.6847   14.0641  -13.4053 O   0  0  0  0  0  0  0  0  0  0  0  0
  -14.5741   14.3241  -13.2665 H   0  0  0  0  0  0  0  0  0  0  0  0
  -12.8803   15.5494  -20.7705 C   0  0  0  0  0  0  0  0  0  0  0  0
  -13.5387   16.5798  -21.4142 C   0  0  0  0  0  0  0  0  0  0  0  0
  -13.4507   17.8774  -20.9311 C   0  0  0  0  0  0  0  0  0  0  0  0
  -12.1051   15.7993  -19.6480 C   0  0  0  0  0  0  0  0  0  0  0  0
  -12.0235   17.0973  -19.1627 C   0  0  0  0  0  0  0  0  0  0  0  0
  -12.6897   18.1277  -19.7978 C   0  0  0  0  0  0  0  0  0  0  0  0
  -14.1174   18.9025  -21.5853 O   0  0  0  0  0  0  0  0  0  0  0  0
  -14.0601   19.7801  -21.2617 H   0  0  0  0  0  0  0  0  0  0  0  0
 16 12  1  0  0  0
 12 15  2  0  0  0
 12 11  1  0  0  0
 15 14  1  0  0  0
 11 10  2  0  0  0
 14 13  2  0  0  0
 10 13  1  0  0  0
 13  1  1  0  0  0
  1  4  1  0  0  0
  4  3  2  0  0  0
  4  5  1  0  0  0
  3  2  1  0  0  0
  5  6  2  0  0  0
  2  7  2  0  0  0
  6  7  1  0  0  0
  7  8  1  0  0  0
 16 17  1  0  0  0
  8  9  1  0  0  0
M  END
> <minimizedAffinity>
-6.46583

$$$$
5OS5_A8K_A_404


 17 18  0  0  0  0  0  0  0  0999 V2000
  -11.3251   14.4199  -18.8753 S   0  0  0  0  0  0  0  0  0  0  0  0
  -12.6945   18.1142  -19.8081 C   0  0  0  0  0  0  0  0  0  0  0  0
  -12.0365   17.0664  -19.1900 C   0  0  0  0  0  0  0  0  0  0  0  0
  -12.1481   15.7782  -19.6876 C   0  0  0  0  0  0  0  0  0  0  0  0
  -12.9398   15.5482  -20.8023 C   0  0  0  0  0  0  0  0  0  0  0  0
  -13.5887   16.5971  -21.4264 C   0  0  0  0  0  0  0  0  0  0  0  0
  -13.4726   17.8880  -20.9329 C   0  0  0  0  0  0  0  0  0  0  0  0
  -14.1250   18.9352  -21.5557 O   0  0  0  0  0  0  0  0  0  0  0  0
  -14.0431   19.8054  -21.2180 H   0  0  0  0  0  0  0  0  0  0  0  0
  -13.3287   14.6927  -17.0203 C   0  0  0  0  0  0  0  0  0  0  0  0
  -13.8812   14.6212  -15.7557 C   0  0  0  0  0  0  0  0  0  0  0  0
  -13.1267   14.1601  -14.6865 C   0  0  0  0  0  0  0  0  0  0  0  0
  -12.0083   14.3273  -17.2355 C   0  0  0  0  0  0  0  0  0  0  0  0
  -11.2571   13.8604  -16.1656 C   0  0  0  0  0  0  0  0  0  0  0  0
  -11.8102   13.7773  -14.9023 C   0  0  0  0  0  0  0  0  0  0  0  0
  -13.6931   14.0917  -13.4226 O   0  0  0  0  0  0  0  0  0  0  0  0
  -13.1864   13.7808  -12.6983 H   0  0  0  0  0  0  0  0  0  0  0  0
 16 12  1  0  0  0
 12 15  2  0  0  0
 12 11  1  0  0  0
 15 14  1  0  0  0
 11 10  2  0  0  0
 14 13  2  0  0  0
 10 13  1  0  0  0
 13  1  1  0  0  0
  1  4  1  0  0  0
  4  3  2  0  0  0
  4  5  1  0  0  0
  3  2  1  0  0  0
  5  6  2  0  0  0
  2  7  2  0  0  0
  6  7  1  0  0  0
  7  8  1  0  0  0
 16 17  1  0  0  0
  8  9  1  0  0  0
M  END
> <minimizedAffinity>
-6.45463

$$$$
5OS5_A8K_A_404


 17 18  0  0  0  0  0  0  0  0999 V2000
  -11.1002   14.5424  -18.7910 S   0  0  0  0  0  0  0  0  0  0  0  0
  -13.5294   16.5324  -21.3469 C   0  0  0  0  0  0  0  0  0  0  0  0
  -12.8209   15.5319  -20.7064 C   0  0  0  0  0  0  0  0  0  0  0  0
  -12.0387   15.8250  -19.6012 C   0  0  0  0  0  0  0  0  0  0  0  0
  -11.9607   17.1350  -19.1538 C   0  0  0  0  0  0  0  0  0  0  0  0
  -12.6773   18.1330  -19.7873 C   0  0  0  0  0  0  0  0  0  0  0  0
  -13.4657   17.8397  -20.8901 C   0  0  0  0  0  0  0  0  0  0  0  0
  -14.1785   18.8392  -21.5247 O   0  0  0  0  0  0  0  0  0  0  0  0
  -14.7096   18.6354  -22.2693 H   0  0  0  0  0  0  0  0  0  0  0  0
  -11.1714   13.5949  -16.2167 C   0  0  0  0  0  0  0  0  0  0  0  0
  -11.7346   13.4018  -14.9697 C   0  0  0  0  0  0  0  0  0  0  0  0
  -12.9824   13.9319  -14.6748 C   0  0  0  0  0  0  0  0  0  0  0  0
  -11.8526   14.3002  -17.1974 C   0  0  0  0  0  0  0  0  0  0  0  0
  -13.0982   14.8350  -16.8982 C   0  0  0  0  0  0  0  0  0  0  0  0
  -13.6589   14.6531  -15.6487 C   0  0  0  0  0  0  0  0  0  0  0  0
  -13.5362   13.7324  -13.4191 O   0  0  0  0  0  0  0  0  0  0  0  0
  -14.3787   14.0890  -13.2166 H   0  0  0  0  0  0  0  0  0  0  0  0
 16 12  1  0  0  0
 12 15  2  0  0  0
 12 11  1  0  0  0
 15 14  1  0  0  0
 11 10  2  0  0  0
 14 13  2  0  0  0
 10 13  1  0  0  0
 13  1  1  0  0  0
  1  4  1  0  0  0
  4  3  2  0  0  0
  4  5  1  0  0  0
  3  2  1  0  0  0
  5  6  2  0  0  0
  2  7  2  0  0  0
  6  7  1  0  0  0
  7  8  1  0  0  0
 16 17  1  0  0  0
  8  9  1  0  0  0
M  END
> <minimizedAffinity>
-6.40834

$$$$
5OS5_A8K_A_404


 17 18  0  0  0  0  0  0  0  0999 V2000
  -10.0620   14.8832  -18.1662 S   0  0  0  0  0  0  0  0  0  0  0  0
  -13.0465   16.0377  -20.6467 C   0  0  0  0  0  0  0  0  0  0  0  0
  -12.0939   15.2809  -19.9888 C   0  0  0  0  0  0  0  0  0  0  0  0
  -11.3118   15.8483  -18.9959 C   0  0  0  0  0  0  0  0  0  0  0  0
  -11.4831   17.1875  -18.6802 C   0  0  0  0  0  0  0  0  0  0  0  0
  -12.4425   17.9410  -19.3303 C   0  0  0  0  0  0  0  0  0  0  0  0
  -13.2303   17.3724  -20.3200 C   0  0  0  0  0  0  0  0  0  0  0  0
  -14.1865   18.1280  -20.9717 O   0  0  0  0  0  0  0  0  0  0  0  0
  -14.7160   17.7387  -21.6396 H   0  0  0  0  0  0  0  0  0  0  0  0
  -10.5203   12.7808  -16.4632 C   0  0  0  0  0  0  0  0  0  0  0  0
  -11.1321   12.1403  -15.4025 C   0  0  0  0  0  0  0  0  0  0  0  0
  -12.0925   12.7974  -14.6469 C   0  0  0  0  0  0  0  0  0  0  0  0
  -10.8722   14.0788  -16.8021 C   0  0  0  0  0  0  0  0  0  0  0  0
  -11.8289   14.7364  -16.0409 C   0  0  0  0  0  0  0  0  0  0  0  0
  -12.4341   14.1024  -14.9730 C   0  0  0  0  0  0  0  0  0  0  0  0
  -12.6981   12.1441  -13.5840 O   0  0  0  0  0  0  0  0  0  0  0  0
  -13.3471   12.5849  -13.0716 H   0  0  0  0  0  0  0  0  0  0  0  0
 16 12  1  0  0  0
 12 15  2  0  0  0
 12 11  1  0  0  0
 15 14  1  0  0  0
 11 10  2  0  0  0
 14 13  2  0  0  0
 10 13  1  0  0  0
 13  1  1  0  0  0
  1  4  1  0  0  0
  4  3  2  0  0  0
  4  5  1  0  0  0
  3  2  1  0  0  0
  5  6  2  0  0  0
  2  7  2  0  0  0
  6  7  1  0  0  0
  7  8  1  0  0  0
 16 17  1  0  0  0
  8  9  1  0  0  0
M  END
> <minimizedAffinity>
-6.17765

$$$$
5OS5_A8K_A_404


 17 18  0  0  0  0  0  0  0  0999 V2000
  -10.7556   16.0880  -18.0125 S   0  0  0  0  0  0  0  0  0  0  0  0
  -11.3055   12.4095  -16.4125 C   0  0  0  0  0  0  0  0  0  0  0  0
  -10.7445   13.5061  -17.0417 C   0  0  0  0  0  0  0  0  0  0  0  0
  -11.4652   14.6817  -17.1752 C   0  0  0  0  0  0  0  0  0  0  0  0
  -12.7610   14.7419  -16.6858 C   0  0  0  0  0  0  0  0  0  0  0  0
  -13.3178   13.6495  -16.0475 C   0  0  0  0  0  0  0  0  0  0  0  0
  -12.5949   12.4741  -15.9076 C   0  0  0  0  0  0  0  0  0  0  0  0
  -13.1543   11.3815  -15.2725 O   0  0  0  0  0  0  0  0  0  0  0  0
  -12.6614   10.5899  -15.1808 H   0  0  0  0  0  0  0  0  0  0  0  0
  -12.3694   17.8714  -19.3335 C   0  0  0  0  0  0  0  0  0  0  0  0
  -13.2671   18.2618  -20.3088 C   0  0  0  0  0  0  0  0  0  0  0  0
  -13.7126   17.3510  -21.2560 C   0  0  0  0  0  0  0  0  0  0  0  0
  -11.9186   16.5613  -19.2726 C   0  0  0  0  0  0  0  0  0  0  0  0
  -12.3608   15.6533  -20.2249 C   0  0  0  0  0  0  0  0  0  0  0  0
  -13.2497   16.0435  -21.2080 C   0  0  0  0  0  0  0  0  0  0  0  0
  -14.6124   17.7555  -22.2306 O   0  0  0  0  0  0  0  0  0  0  0  0
  -14.9153   17.1431  -22.8718 H   0  0  0  0  0  0  0  0  0  0  0  0
 16 12  1  0  0  0
 12 15  2  0  0  0
 12 11  1  0  0  0
 15 14  1  0  0  0
 11 10  2  0  0  0
 14 13  2  0  0  0
 10 13  1  0  0  0
 13  1  1  0  0  0
  1  4  1  0  0  0
  4  3  2  0  0  0
  4  5  1  0  0  0
  3  2  1  0  0  0
  5  6  2  0  0  0
  2  7  2  0  0  0
  6  7  1  0  0  0
  7  8  1  0  0  0
 16 17  1  0  0  0
  8  9  1  0  0  0
M  END
> <minimizedAffinity>
-6.05237

$$$$
5OS5_A8K_A_404


 17 18  0  0  0  0  0  0  0  0999 V2000
  -10.3009   11.6011  -17.2275 S   0  0  0  0  0  0  0  0  0  0  0  0
  -12.6359   14.6101  -18.6012 C   0  0  0  0  0  0  0  0  0  0  0  0
  -12.1739   13.3602  -18.2305 C   0  0  0  0  0  0  0  0  0  0  0  0
  -10.9113   13.2153  -17.6790 C   0  0  0  0  0  0  0  0  0  0  0  0
  -10.1093   14.3347  -17.5178 C   0  0  0  0  0  0  0  0  0  0  0  0
  -10.5751   15.5853  -17.8783 C   0  0  0  0  0  0  0  0  0  0  0  0
  -11.8414   15.7323  -18.4247 C   0  0  0  0  0  0  0  0  0  0  0  0
  -12.3043   16.9828  -18.7881 O   0  0  0  0  0  0  0  0  0  0  0  0
  -13.1607   17.0764  -19.1568 H   0  0  0  0  0  0  0  0  0  0  0  0
  -10.9636    9.9410  -15.1454 C   0  0  0  0  0  0  0  0  0  0  0  0
  -11.4687    9.6441  -13.8940 C   0  0  0  0  0  0  0  0  0  0  0  0
  -11.9654   10.6531  -13.0815 C   0  0  0  0  0  0  0  0  0  0  0  0
  -10.9661   11.2454  -15.6165 C   0  0  0  0  0  0  0  0  0  0  0  0
  -11.4578   12.2542  -14.7995 C   0  0  0  0  0  0  0  0  0  0  0  0
  -11.9532   11.9618  -13.5433 C   0  0  0  0  0  0  0  0  0  0  0  0
  -12.4683   10.3424  -11.8269 O   0  0  0  0  0  0  0  0  0  0  0  0
  -12.8045   11.0214  -11.2756 H   0  0  0  0  0  0  0  0  0  0  0  0
 16 12  1  0  0  0
 12 15  2  0  0  0
 12 11  1  0  0  0
 15 14  1  0  0  0
 11 10  2  0  0  0
 14 13  2  0  0  0
 10 13  1  0  0  0
 13  1  1  0  0  0
  1  4  1  0  0  0
  4  3  2  0  0  0
  4  5  1  0  0  0
  3  2  1  0  0  0
  5  6  2  0  0  0
  2  7  2  0  0  0
  6  7  1  0  0  0
  7  8  1  0  0  0
 16 17  1  0  0  0
  8  9  1  0  0  0
M  END
> <minimizedAffinity>
-6.04644

$$$$
5OS5_A8K_A_404


 17 18  0  0  0  0  0  0  0  0999 V2000
  -10.0517   11.8502  -17.0664 S   0  0  0  0  0  0  0  0  0  0  0  0
  -11.5578    9.7078  -13.9786 C   0  0  0  0  0  0  0  0  0  0  0  0
  -10.9524   10.0596  -15.1714 C   0  0  0  0  0  0  0  0  0  0  0  0
  -10.8050   11.3936  -15.5153 C   0  0  0  0  0  0  0  0  0  0  0  0
  -11.2857   12.3718  -14.6584 C   0  0  0  0  0  0  0  0  0  0  0  0
  -11.8811   12.0204  -13.4614 C   0  0  0  0  0  0  0  0  0  0  0  0
  -12.0235   10.6854  -13.1131 C   0  0  0  0  0  0  0  0  0  0  0  0
  -12.6224   10.3355  -11.9177 O   0  0  0  0  0  0  0  0  0  0  0  0
  -12.7160    9.4321  -11.6875 H   0  0  0  0  0  0  0  0  0  0  0  0
  -12.1391   13.3649  -18.0037 C   0  0  0  0  0  0  0  0  0  0  0  0
  -12.7587   14.5374  -18.3920 C   0  0  0  0  0  0  0  0  0  0  0  0
  -12.0763   15.7439  -18.3308 C   0  0  0  0  0  0  0  0  0  0  0  0
  -10.8219   13.3726  -17.5696 C   0  0  0  0  0  0  0  0  0  0  0  0
  -10.1432   14.5817  -17.5033 C   0  0  0  0  0  0  0  0  0  0  0  0
  -10.7636   15.7571  -17.8803 C   0  0  0  0  0  0  0  0  0  0  0  0
  -12.7097   16.9140  -18.7219 O   0  0  0  0  0  0  0  0  0  0  0  0
  -12.2518   17.7305  -18.6819 H   0  0  0  0  0  0  0  0  0  0  0  0
 16 12  1  0  0  0
 12 15  2  0  0  0
 12 11  1  0  0  0
 15 14  1  0  0  0
 11 10  2  0  0  0
 14 13  2  0  0  0
 10 13  1  0  0  0
 13  1  1  0  0  0
  1  4  1  0  0  0
  4  3  2  0  0  0
  4  5  1  0  0  0
  3  2  1  0  0  0
  5  6  2  0  0  0
  2  7  2  0  0  0
  6  7  1  0  0  0
  7  8  1  0  0  0
 16 17  1  0  0  0
  8  9  1  0  0  0
M  END
> <minimizedAffinity>
-6.03494

$$$$
5OS5_A8K_A_404


 17 18  0  0  0  0  0  0  0  0999 V2000
  -12.2452   14.0953  -14.9856 S   0  0  0  0  0  0  0  0  0  0  0  0
  -10.4063   15.0328  -18.4687 C   0  0  0  0  0  0  0  0  0  0  0  0
  -10.6713   14.8397  -17.1250 C   0  0  0  0  0  0  0  0  0  0  0  0
  -11.8888   14.3177  -16.7192 C   0  0  0  0  0  0  0  0  0  0  0  0
  -12.8450   14.0062  -17.6737 C   0  0  0  0  0  0  0  0  0  0  0  0
  -12.5760   14.1892  -19.0172 C   0  0  0  0  0  0  0  0  0  0  0  0
  -11.3552   14.7058  -19.4250 C   0  0  0  0  0  0  0  0  0  0  0  0
  -11.0891   14.8916  -20.7684 O   0  0  0  0  0  0  0  0  0  0  0  0
  -10.2626   15.2410  -21.0383 H   0  0  0  0  0  0  0  0  0  0  0  0
  -12.1591   11.8874  -13.3583 C   0  0  0  0  0  0  0  0  0  0  0  0
  -11.8498   10.5787  -13.0406 C   0  0  0  0  0  0  0  0  0  0  0  0
  -11.2214    9.7619  -13.9696 C   0  0  0  0  0  0  0  0  0  0  0  0
  -11.8267   12.4101  -14.5991 C   0  0  0  0  0  0  0  0  0  0  0  0
  -11.2037   11.5893  -15.5293 C   0  0  0  0  0  0  0  0  0  0  0  0
  -10.9033   10.2772  -15.2184 C   0  0  0  0  0  0  0  0  0  0  0  0
  -10.9176    8.4498  -13.6391 O   0  0  0  0  0  0  0  0  0  0  0  0
  -10.4933    7.8954  -14.2641 H   0  0  0  0  0  0  0  0  0  0  0  0
 16 12  1  0  0  0
 12 15  2  0  0  0
 12 11  1  0  0  0
 15 14  1  0  0  0
 11 10  2  0  0  0
 14 13  2  0  0  0
 10 13  1  0  0  0
 13  1  1  0  0  0
  1  4  1  0  0  0
  4  3  2  0  0  0
  4  5  1  0  0  0
  3  2  1  0  0  0
  5  6  2  0  0  0
  2  7  2  0  0  0
  6  7  1  0  0  0
  7  8  1  0  0  0
 16 17  1  0  0  0
  8  9  1  0  0  0
M  END
> <minimizedAffinity>
-5.69795

$$$$
5OS5_A8K_A_404


 17 18  0  0  0  0  0  0  0  0999 V2000
  -12.2088   14.1234  -14.9622 S   0  0  0  0  0  0  0  0  0  0  0  0
  -11.8449   10.5614  -13.0718 C   0  0  0  0  0  0  0  0  0  0  0  0
  -12.1549   11.8780  -13.3608 C   0  0  0  0  0  0  0  0  0  0  0  0
  -11.8375   12.4172  -14.5969 C   0  0  0  0  0  0  0  0  0  0  0  0
  -11.1909   11.6276  -15.5353 C   0  0  0  0  0  0  0  0  0  0  0  0
  -10.8908   10.3086  -15.2504 C   0  0  0  0  0  0  0  0  0  0  0  0
  -11.2138    9.7659  -14.0156 C   0  0  0  0  0  0  0  0  0  0  0  0
  -10.9097    8.4482  -13.7307 O   0  0  0  0  0  0  0  0  0  0  0  0
  -11.1302    8.0866  -12.8949 H   0  0  0  0  0  0  0  0  0  0  0  0
  -12.8532   14.0697  -17.6290 C   0  0  0  0  0  0  0  0  0  0  0  0
  -12.6125   14.2471  -18.9781 C   0  0  0  0  0  0  0  0  0  0  0  0
  -11.3877   14.7323  -19.4134 C   0  0  0  0  0  0  0  0  0  0  0  0
  -11.8691   14.3515  -16.6933 C   0  0  0  0  0  0  0  0  0  0  0  0
  -10.6467   14.8428  -17.1307 C   0  0  0  0  0  0  0  0  0  0  0  0
  -10.4071   15.0317  -18.4781 C   0  0  0  0  0  0  0  0  0  0  0  0
  -11.1591   14.9073  -20.7700 O   0  0  0  0  0  0  0  0  0  0  0  0
  -10.3331   15.2348  -21.0675 H   0  0  0  0  0  0  0  0  0  0  0  0
 16 12  1  0  0  0
 12 15  2  0  0  0
 12 11  1  0  0  0
 15 14  1  0  0  0
 11 10  2  0  0  0
 14 13  2  0  0  0
 10 13  1  0  0  0
 13  1  1  0  0  0
  1  4  1  0  0  0
  4  3  2  0  0  0
  4  5  1  0  0  0
  3  2  1  0  0  0
  5  6  2  0  0  0
  2  7  2  0  0  0
  6  7  1  0  0  0
  7  8  1  0  0  0
 16 17  1  0  0  0
  8  9  1  0  0  0
M  END
> <minimizedAffinity>
-5.68967

$$$$
5OS5_A8K_A_404


 17 18  0  0  0  0  0  0  0  0999 V2000
  -11.9084   17.5629  -18.9626 S   0  0  0  0  0  0  0  0  0  0  0  0
  -12.2943   14.2067  -16.7310 C   0  0  0  0  0  0  0  0  0  0  0  0
  -12.5636   15.3893  -17.3958 C   0  0  0  0  0  0  0  0  0  0  0  0
  -11.5727   16.0222  -18.1286 C   0  0  0  0  0  0  0  0  0  0  0  0
  -10.3036   15.4659  -18.1749 C   0  0  0  0  0  0  0  0  0  0  0  0
  -10.0374   14.2784  -17.5193 C   0  0  0  0  0  0  0  0  0  0  0  0
  -11.0303   13.6406  -16.7906 C   0  0  0  0  0  0  0  0  0  0  0  0
  -10.7616   12.4553  -16.1325 O   0  0  0  0  0  0  0  0  0  0  0  0
  -11.4361   12.0287  -15.6417 H   0  0  0  0  0  0  0  0  0  0  0  0
  -12.9767   15.9135  -20.8778 C   0  0  0  0  0  0  0  0  0  0  0  0
  -13.8271   15.5906  -21.9180 C   0  0  0  0  0  0  0  0  0  0  0  0
  -14.7409   16.5216  -22.3906 C   0  0  0  0  0  0  0  0  0  0  0  0
  -13.0076   17.1770  -20.3068 C   0  0  0  0  0  0  0  0  0  0  0  0
  -13.9270   18.1047  -20.7770 C   0  0  0  0  0  0  0  0  0  0  0  0
  -14.7861   17.7811  -21.8095 C   0  0  0  0  0  0  0  0  0  0  0  0
  -15.5900   16.1849  -23.4341 O   0  0  0  0  0  0  0  0  0  0  0  0
  -16.2083   16.8111  -23.7557 H   0  0  0  0  0  0  0  0  0  0  0  0
 16 12  1  0  0  0
 12 15  2  0  0  0
 12 11  1  0  0  0
 15 14  1  0  0  0
 11 10  2  0  0  0
 14 13  2  0  0  0
 10 13  1  0  0  0
 13  1  1  0  0  0
  1  4  1  0  0  0
  4  3  2  0  0  0
  4  5  1  0  0  0
  3  2  1  0  0  0
  5  6  2  0  0  0
  2  7  2  0  0  0
  6  7  1  0  0  0
  7  8  1  0  0  0
 16 17  1  0  0  0
  8  9  1  0  0  0
M  END
> <minimizedAffinity>
-5.21568

$$$$
