5OS5_A8K_A_404
  RCSB PDB12061719203D
Coordinates from PDB:5OS5:A:404 Model:1 without hydrogens
 15 16  0  0  0  0            999 V2000
  -13.4480   14.1570  -16.2650   C 0  0  0  0  0  0  0  0  0  0  0  0
  -12.9850   15.1510  -17.1080   C 0  0  0  0  0  0  0  0  0  0  0  0
  -12.6240   18.0780  -20.0870   C 0  0  0  0  0  0  0  0  0  0  0  0
  -13.5780   18.2850  -21.0650   C 0  0  0  0  0  0  0  0  0  0  0  0
  -14.1760   17.2060  -21.7000   C 0  0  0  0  0  0  0  0  0  0  0  0
  -12.2670   16.7920  -19.7100   C 0  0  0  0  0  0  0  0  0  0  0  0
  -12.8620   15.7140  -20.3510   C 0  0  0  0  0  0  0  0  0  0  0  0
  -13.8080   15.9180  -21.3370   C 0  0  0  0  0  0  0  0  0  0  0  0
  -11.6330   15.2550  -17.3920   C 0  0  0  0  0  0  0  0  0  0  0  0
  -10.7470   14.3620  -16.8090   C 0  0  0  0  0  0  0  0  0  0  0  0
  -11.2110   13.3620  -15.9750   C 0  0  0  0  0  0  0  0  0  0  0  0
  -15.1310   17.4270  -22.6810   O 0  0  0  0  0  0  0  0  0  0  0  0
  -11.0290   16.5540  -18.4550   S 0  0  0  0  0  0  0  0  0  0  0  0
  -12.5650   13.2530  -15.6950   C 0  0  0  0  0  0  0  0  0  0  0  0
  -13.0270   12.2550  -14.8580   O 0  0  0  0  0  0  0  0  0  0  0  0
 12  5  1  0  0  0  0
  5  8  2  0  0  0  0
  5  4  1  0  0  0  0
  8  7  1  0  0  0  0
  4  3  2  0  0  0  0
  7  6  2  0  0  0  0
  3  6  1  0  0  0  0
  6 13  1  0  0  0  0
 13  9  1  0  0  0  0
  9  2  2  0  0  0  0
  9 10  1  0  0  0  0
  2  1  1  0  0  0  0
 10 11  2  0  0  0  0
  1 14  2  0  0  0  0
 11 14  1  0  0  0  0
 14 15  1  0  0  0  0
A    1
C11
A    2
C10
A    3
C9
A    4
C8
A    5
C7
A    6
C4
A    7
C5
A    8
C6
A    9
C3
A   10
C2
A   11
C1
A   12
O1
A   13
S
A   14
C
A   15
O
M  END
>  <InstanceId>
5OS5_A8K_A_404

>  <ChemCompId>
A8K

>  <PdbId>
5OS5

>  <ChainId>
A

>  <ResidueNumber>
404

>  <InsertionCode>


>  <Model>
1

>  <AltIds>


>  <MissingHeavyAtoms>
0

>  <ObservedFormula>
C12 O2 S

>  <Name>
4-(4-hydroxyphenyl)sulfanylphenol

>  <SystematicName>
4-(4-hydroxyphenyl)sulfanylphenol

>  <Synonyms>


>  <Type>
NON-POLYMER

>  <Formula>
C12 H10 O2 S

>  <MolecularWeight>
218.272

>  <ModifiedDate>
2017-10-27

>  <Parent>


>  <OneLetterCode>


>  <SubcomponentList>


>  <AmbiguousFlag>
N

>  <InChI>
InChI=1S/C12H10O2S/c13-9-1-5-11(6-2-9)15-12-7-3-10(14)4-8-12/h1-8,13-14H

>  <InChIKey>
VWGKEVWFBOUAND-UHFFFAOYSA-N

>  <SMILES>
c1cc(ccc1O)Sc2ccc(cc2)O

$$$$
