5CAP_4ZH_A_1103


 30 32  0  0  0  0  0  0  0  0999 V2000
  -53.8483    1.8298  -23.9212 N   0  0  0  0  0  0  0  0  0  0  0  0
  -53.7950    2.8002  -24.0782 H   0  0  0  0  0  0  0  0  0  0  0  0
  -54.8077   -0.5779  -27.2166 C   0  0  0  0  0  0  0  0  0  0  0  0
  -55.7264    0.2689  -26.5768 C   0  0  0  0  0  0  0  0  0  0  0  0
  -54.1235    0.9993  -25.0353 C   0  0  0  0  0  0  0  0  0  0  0  0
  -53.1615    0.1465  -25.6013 C   0  0  0  0  0  0  0  0  0  0  0  0
  -53.4899   -0.6408  -26.7122 C   0  0  0  0  0  0  0  0  0  0  0  0
  -54.8576   -1.4257  -28.2787 N   0  0  0  0  0  0  0  0  0  0  0  0
  -53.4609   -3.0117  -29.5646 C   0  0  0  0  0  0  0  0  0  0  0  0
  -53.7024   -2.0001  -28.4605 C   0  0  0  0  0  0  0  0  0  0  0  0
  -55.3616    1.0108  -25.5396 N   0  0  0  0  0  0  0  0  0  0  0  0
  -52.8112   -1.5401  -27.5136 N   0  0  0  0  0  0  0  0  0  0  0  0
  -51.4045   -1.9052  -27.2712 C   0  0  0  0  0  0  0  0  0  0  0  0
  -50.3827   -1.4506  -28.3057 C   0  0  0  0  0  0  0  0  0  0  0  0
  -51.1406   -3.1918  -26.4844 C   0  0  0  0  0  0  0  0  0  0  0  0
  -53.6485    1.3769  -22.6256 C   0  0  0  0  0  0  0  0  0  0  0  0
  -54.5842    1.5527  -21.5761 C   0  0  0  0  0  0  0  0  0  0  0  0
  -54.2204    1.0748  -20.3042 C   0  0  0  0  0  0  0  0  0  0  0  0
  -53.0282    0.4554  -20.1127 N   0  0  0  0  0  0  0  0  0  0  0  0
  -52.1763    0.3455  -21.1345 C   0  0  0  0  0  0  0  0  0  0  0  0
  -52.5044    0.7600  -22.3533 N   0  0  0  0  0  0  0  0  0  0  0  0
  -51.0138   -0.3343  -21.1013 O   0  0  0  0  0  0  0  0  0  0  0  0
  -50.8253   -1.5907  -20.4876 C   0  0  0  0  0  0  0  0  0  0  0  0
  -50.8324   -2.6522  -21.5841 C   0  0  0  0  0  0  0  0  0  0  0  0
  -50.2850   -2.1062  -22.9089 C   0  0  0  0  0  0  0  0  0  0  0  0
  -49.8203   -3.6715  -21.0587 C   0  0  0  0  0  0  0  0  0  0  0  0
  -52.4988   -3.3881  -21.8345 S   0  0  0  0  0  0  0  0  0  0  0  0
  -53.3957   -2.9424  -20.8249 O   0  0  0  0  0  0  0  0  0  0  0  0
  -52.3361   -4.7820  -21.9903 O   0  0  0  0  0  0  0  0  0  0  0  0
  -53.1760   -2.7297  -23.3617 C   0  0  0  0  0  0  0  0  0  0  0  0
 28 27  2  0  0  0
 29 27  2  0  0  0
 27 30  1  0  0  0
 27 24  1  0  0  0
 26 24  1  0  0  0
 19 18  2  0  0  0
 19 20  1  0  0  0
 18 17  1  0  0  0
 24 23  1  0  0  0
 24 25  1  0  0  0
 23 22  1  0  0  0
 22 20  1  0  0  0
 20 21  2  0  0  0
 17 16  2  0  0  0
 21 16  1  0  0  0
 16  1  1  0  0  0
  1  5  1  0  0  0
  5  6  2  0  0  0
  5 11  1  0  0  0
  6  7  1  0  0  0
 15 13  1  0  0  0
 13 14  1  0  0  0
 13 12  1  0  0  0
 11  4  2  0  0  0
  7 12  1  0  0  0
  7  3  2  0  0  0
 12 10  1  0  0  0
  4  3  1  0  0  0
  3  8  1  0  0  0
 10  8  2  0  0  0
 10  9  1  0  0  0
  1  2  1  0  0  0
M  END
> <minimizedAffinity>
-7.94044

$$$$
5CAP_4ZH_A_1103


 30 32  0  0  0  0  0  0  0  0999 V2000
  -52.6597   -5.4632  -23.3209 N   0  0  0  0  0  0  0  0  0  0  0  0
  -53.5536   -5.8712  -23.3831 H   0  0  0  0  0  0  0  0  0  0  0  0
  -51.9418   -2.7435  -20.2120 C   0  0  0  0  0  0  0  0  0  0  0  0
  -51.4604   -4.0621  -20.2203 C   0  0  0  0  0  0  0  0  0  0  0  0
  -52.4443   -4.5087  -22.2966 C   0  0  0  0  0  0  0  0  0  0  0  0
  -52.9908   -3.2154  -22.3382 C   0  0  0  0  0  0  0  0  0  0  0  0
  -52.7302   -2.3108  -21.3012 C   0  0  0  0  0  0  0  0  0  0  0  0
  -51.8440   -1.6881  -19.3601 N   0  0  0  0  0  0  0  0  0  0  0  0
  -52.5859    0.6550  -19.0782 C   0  0  0  0  0  0  0  0  0  0  0  0
  -52.5020   -0.6634  -19.8235 C   0  0  0  0  0  0  0  0  0  0  0  0
  -51.7176   -4.8753  -21.2360 N   0  0  0  0  0  0  0  0  0  0  0  0
  -53.0684   -0.9967  -21.0362 N   0  0  0  0  0  0  0  0  0  0  0  0
  -53.9305   -0.2089  -21.9345 C   0  0  0  0  0  0  0  0  0  0  0  0
  -53.2750    0.9372  -22.6947 C   0  0  0  0  0  0  0  0  0  0  0  0
  -55.4130   -0.1025  -21.5671 C   0  0  0  0  0  0  0  0  0  0  0  0
  -51.7046   -5.8655  -24.2426 C   0  0  0  0  0  0  0  0  0  0  0  0
  -50.9831   -7.0815  -24.1501 C   0  0  0  0  0  0  0  0  0  0  0  0
  -50.0152   -7.3312  -25.1398 C   0  0  0  0  0  0  0  0  0  0  0  0
  -49.8088   -6.4435  -26.1453 N   0  0  0  0  0  0  0  0  0  0  0  0
  -50.4997   -5.3015  -26.1621 C   0  0  0  0  0  0  0  0  0  0  0  0
  -51.4411   -5.0518  -25.2586 N   0  0  0  0  0  0  0  0  0  0  0  0
  -50.4633   -4.3912  -27.1544 O   0  0  0  0  0  0  0  0  0  0  0  0
  -50.7201   -3.0123  -27.0010 C   0  0  0  0  0  0  0  0  0  0  0  0
  -51.6257   -2.5750  -28.1490 C   0  0  0  0  0  0  0  0  0  0  0  0
  -51.4236   -1.0961  -28.5022 C   0  0  0  0  0  0  0  0  0  0  0  0
  -51.0901   -3.4003  -29.3202 C   0  0  0  0  0  0  0  0  0  0  0  0
  -53.4004   -2.9155  -27.8088 S   0  0  0  0  0  0  0  0  0  0  0  0
  -53.6532   -4.3146  -27.8419 O   0  0  0  0  0  0  0  0  0  0  0  0
  -54.1688   -2.0955  -28.6637 O   0  0  0  0  0  0  0  0  0  0  0  0
  -53.7458   -2.4351  -26.1134 C   0  0  0  0  0  0  0  0  0  0  0  0
 28 27  2  0  0  0
 29 27  2  0  0  0
 27 30  1  0  0  0
 27 24  1  0  0  0
 26 24  1  0  0  0
 19 18  2  0  0  0
 19 20  1  0  0  0
 18 17  1  0  0  0
 24 23  1  0  0  0
 24 25  1  0  0  0
 23 22  1  0  0  0
 22 20  1  0  0  0
 20 21  2  0  0  0
 17 16  2  0  0  0
 21 16  1  0  0  0
 16  1  1  0  0  0
  1  5  1  0  0  0
  5  6  2  0  0  0
  5 11  1  0  0  0
  6  7  1  0  0  0
 15 13  1  0  0  0
 13 14  1  0  0  0
 13 12  1  0  0  0
 11  4  2  0  0  0
  7 12  1  0  0  0
  7  3  2  0  0  0
 12 10  1  0  0  0
  4  3  1  0  0  0
  3  8  1  0  0  0
 10  8  2  0  0  0
 10  9  1  0  0  0
  1  2  1  0  0  0
M  END
> <minimizedAffinity>
-7.24040

$$$$
5CAP_4ZH_A_1103


 30 32  0  0  0  0  0  0  0  0999 V2000
  -52.8529   -5.3718  -24.3285 N   0  0  0  0  0  0  0  0  0  0  0  0
  -53.7262   -5.8244  -24.3706 H   0  0  0  0  0  0  0  0  0  0  0  0
  -51.9316   -3.2186  -20.8512 C   0  0  0  0  0  0  0  0  0  0  0  0
  -51.5218   -4.5416  -21.0798 C   0  0  0  0  0  0  0  0  0  0  0  0
  -52.5674   -4.6038  -23.1731 C   0  0  0  0  0  0  0  0  0  0  0  0
  -53.0444   -3.2945  -22.9959 C   0  0  0  0  0  0  0  0  0  0  0  0
  -52.7162   -2.5799  -21.8369 C   0  0  0  0  0  0  0  0  0  0  0  0
  -51.7613   -2.3177  -19.8468 N   0  0  0  0  0  0  0  0  0  0  0  0
  -52.3711   -0.0149  -19.1798 C   0  0  0  0  0  0  0  0  0  0  0  0
  -52.3721   -1.2010  -20.1252 C   0  0  0  0  0  0  0  0  0  0  0  0
  -51.8414   -5.1696  -22.2034 N   0  0  0  0  0  0  0  0  0  0  0  0
  -52.9784   -1.3091  -21.3594 N   0  0  0  0  0  0  0  0  0  0  0  0
  -53.8138   -0.3469  -22.0989 C   0  0  0  0  0  0  0  0  0  0  0  0
  -53.0988    0.8199  -22.7686 C   0  0  0  0  0  0  0  0  0  0  0  0
  -55.2545   -0.1554  -21.6174 C   0  0  0  0  0  0  0  0  0  0  0  0
  -51.9933   -5.5334  -25.4049 C   0  0  0  0  0  0  0  0  0  0  0  0
  -50.9129   -6.4502  -25.4199 C   0  0  0  0  0  0  0  0  0  0  0  0
  -50.1024   -6.4694  -26.5694 C   0  0  0  0  0  0  0  0  0  0  0  0
  -50.3708   -5.6521  -27.6189 N   0  0  0  0  0  0  0  0  0  0  0  0
  -51.3858   -4.7892  -27.5336 C   0  0  0  0  0  0  0  0  0  0  0  0
  -52.1864   -4.7692  -26.4736 N   0  0  0  0  0  0  0  0  0  0  0  0
  -51.8174   -4.0024  -28.5383 O   0  0  0  0  0  0  0  0  0  0  0  0
  -53.1621   -3.6415  -28.7664 C   0  0  0  0  0  0  0  0  0  0  0  0
  -53.2449   -2.1175  -28.7571 C   0  0  0  0  0  0  0  0  0  0  0  0
  -51.8615   -1.4711  -28.9024 C   0  0  0  0  0  0  0  0  0  0  0  0
  -54.0216   -1.8247  -30.0417 C   0  0  0  0  0  0  0  0  0  0  0  0
  -54.0994   -1.4725  -27.2621 S   0  0  0  0  0  0  0  0  0  0  0  0
  -54.1599   -2.4734  -26.2537 O   0  0  0  0  0  0  0  0  0  0  0  0
  -55.3183   -0.8936  -27.6777 O   0  0  0  0  0  0  0  0  0  0  0  0
  -53.0787   -0.1774  -26.5511 C   0  0  0  0  0  0  0  0  0  0  0  0
 28 27  2  0  0  0
 29 27  2  0  0  0
 27 30  1  0  0  0
 27 24  1  0  0  0
 26 24  1  0  0  0
 19 18  2  0  0  0
 19 20  1  0  0  0
 18 17  1  0  0  0
 24 23  1  0  0  0
 24 25  1  0  0  0
 23 22  1  0  0  0
 22 20  1  0  0  0
 20 21  2  0  0  0
 17 16  2  0  0  0
 21 16  1  0  0  0
 16  1  1  0  0  0
  1  5  1  0  0  0
  5  6  2  0  0  0
  5 11  1  0  0  0
  6  7  1  0  0  0
 15 13  1  0  0  0
 13 14  1  0  0  0
 13 12  1  0  0  0
 11  4  2  0  0  0
  7 12  1  0  0  0
  7  3  2  0  0  0
 12 10  1  0  0  0
  4  3  1  0  0  0
  3  8  1  0  0  0
 10  8  2  0  0  0
 10  9  1  0  0  0
  1  2  1  0  0  0
M  END
> <minimizedAffinity>
-7.22398

$$$$
5CAP_4ZH_A_1103


 30 32  0  0  0  0  0  0  0  0999 V2000
  -53.0138   -5.1850  -23.4336 N   0  0  0  0  0  0  0  0  0  0  0  0
  -53.9647   -5.4395  -23.4472 H   0  0  0  0  0  0  0  0  0  0  0  0
  -50.6496   -6.3012  -26.7111 C   0  0  0  0  0  0  0  0  0  0  0  0
  -50.7832   -7.0749  -25.5474 C   0  0  0  0  0  0  0  0  0  0  0  0
  -52.2293   -5.5185  -24.5649 C   0  0  0  0  0  0  0  0  0  0  0  0
  -52.1123   -4.6748  -25.6819 C   0  0  0  0  0  0  0  0  0  0  0  0
  -51.3323   -5.0665  -26.7773 C   0  0  0  0  0  0  0  0  0  0  0  0
  -49.9780   -6.4369  -27.8857 N   0  0  0  0  0  0  0  0  0  0  0  0
  -49.5457   -5.2663  -30.0218 C   0  0  0  0  0  0  0  0  0  0  0  0
  -50.1816   -5.4026  -28.6514 C   0  0  0  0  0  0  0  0  0  0  0  0
  -51.5504   -6.6701  -24.5441 N   0  0  0  0  0  0  0  0  0  0  0  0
  -51.0255   -4.5202  -28.0098 N   0  0  0  0  0  0  0  0  0  0  0  0
  -51.5247   -3.1999  -28.4322 C   0  0  0  0  0  0  0  0  0  0  0  0
  -52.6316   -3.1802  -29.4788 C   0  0  0  0  0  0  0  0  0  0  0  0
  -50.5423   -2.0272  -28.3703 C   0  0  0  0  0  0  0  0  0  0  0  0
  -52.5413   -4.5265  -22.3080 C   0  0  0  0  0  0  0  0  0  0  0  0
  -51.5133   -5.0309  -21.4733 C   0  0  0  0  0  0  0  0  0  0  0  0
  -51.1713   -4.2675  -20.3425 C   0  0  0  0  0  0  0  0  0  0  0  0
  -51.7954   -3.0896  -20.0883 N   0  0  0  0  0  0  0  0  0  0  0  0
  -52.7765   -2.6812  -20.8961 C   0  0  0  0  0  0  0  0  0  0  0  0
  -53.1007   -3.3655  -21.9876 N   0  0  0  0  0  0  0  0  0  0  0  0
  -53.3997   -1.4897  -20.8134 O   0  0  0  0  0  0  0  0  0  0  0  0
  -54.5142   -1.1011  -21.5863 C   0  0  0  0  0  0  0  0  0  0  0  0
  -54.1137    0.1267  -22.3996 C   0  0  0  0  0  0  0  0  0  0  0  0
  -55.3153    1.0353  -22.6884 C   0  0  0  0  0  0  0  0  0  0  0  0
  -53.1985    0.8764  -21.4301 C   0  0  0  0  0  0  0  0  0  0  0  0
  -53.2575   -0.3195  -23.9645 S   0  0  0  0  0  0  0  0  0  0  0  0
  -53.7208   -1.5758  -24.4436 O   0  0  0  0  0  0  0  0  0  0  0  0
  -51.8689   -0.1764  -23.7527 O   0  0  0  0  0  0  0  0  0  0  0  0
  -53.7549    0.8559  -25.2275 C   0  0  0  0  0  0  0  0  0  0  0  0
 28 27  2  0  0  0
 29 27  2  0  0  0
 27 30  1  0  0  0
 27 24  1  0  0  0
 26 24  1  0  0  0
 19 18  2  0  0  0
 19 20  1  0  0  0
 18 17  1  0  0  0
 24 23  1  0  0  0
 24 25  1  0  0  0
 23 22  1  0  0  0
 22 20  1  0  0  0
 20 21  2  0  0  0
 17 16  2  0  0  0
 21 16  1  0  0  0
 16  1  1  0  0  0
  1  5  1  0  0  0
  5  6  2  0  0  0
  5 11  1  0  0  0
  6  7  1  0  0  0
 15 13  1  0  0  0
 13 14  1  0  0  0
 13 12  1  0  0  0
 11  4  2  0  0  0
  7 12  1  0  0  0
  7  3  2  0  0  0
 12 10  1  0  0  0
  4  3  1  0  0  0
  3  8  1  0  0  0
 10  8  2  0  0  0
 10  9  1  0  0  0
  1  2  1  0  0  0
M  END
> <minimizedAffinity>
-7.10717

$$$$
5CAP_4ZH_A_1103


 30 32  0  0  0  0  0  0  0  0999 V2000
  -53.4289   -4.0720  -27.4655 N   0  0  0  0  0  0  0  0  0  0  0  0
  -54.1982   -4.5944  -27.7889 H   0  0  0  0  0  0  0  0  0  0  0  0
  -54.2655   -0.2473  -25.9660 C   0  0  0  0  0  0  0  0  0  0  0  0
  -54.6091   -0.6690  -27.2601 C   0  0  0  0  0  0  0  0  0  0  0  0
  -53.6895   -2.7936  -26.9141 C   0  0  0  0  0  0  0  0  0  0  0  0
  -53.2813   -2.4281  -25.6207 C   0  0  0  0  0  0  0  0  0  0  0  0
  -53.5811   -1.1528  -25.1254 C   0  0  0  0  0  0  0  0  0  0  0  0
  -54.4283    0.8983  -25.2517 N   0  0  0  0  0  0  0  0  0  0  0  0
  -53.9174    1.9027  -23.0495 C   0  0  0  0  0  0  0  0  0  0  0  0
  -53.9028    0.7767  -24.0657 C   0  0  0  0  0  0  0  0  0  0  0  0
  -54.3209   -1.8949  -27.6764 N   0  0  0  0  0  0  0  0  0  0  0  0
  -53.3665   -0.4871  -23.9327 N   0  0  0  0  0  0  0  0  0  0  0  0
  -52.6357   -1.0995  -22.8095 C   0  0  0  0  0  0  0  0  0  0  0  0
  -53.4626   -1.5708  -21.6199 C   0  0  0  0  0  0  0  0  0  0  0  0
  -51.1963   -0.6341  -22.5737 C   0  0  0  0  0  0  0  0  0  0  0  0
  -52.1701   -4.6424  -27.5836 C   0  0  0  0  0  0  0  0  0  0  0  0
  -51.2801   -4.3732  -28.6528 C   0  0  0  0  0  0  0  0  0  0  0  0
  -50.0535   -5.0618  -28.6565 C   0  0  0  0  0  0  0  0  0  0  0  0
  -49.7433   -5.9282  -27.6592 N   0  0  0  0  0  0  0  0  0  0  0  0
  -50.6356   -6.1617  -26.6942 C   0  0  0  0  0  0  0  0  0  0  0  0
  -51.7891   -5.5043  -26.6479 N   0  0  0  0  0  0  0  0  0  0  0  0
  -50.4107   -6.9145  -25.5999 O   0  0  0  0  0  0  0  0  0  0  0  0
  -51.3182   -7.0883  -24.5336 C   0  0  0  0  0  0  0  0  0  0  0  0
  -50.6975   -6.4662  -23.2857 C   0  0  0  0  0  0  0  0  0  0  0  0
  -50.9163   -7.3405  -22.0445 C   0  0  0  0  0  0  0  0  0  0  0  0
  -49.2035   -6.5028  -23.6110 C   0  0  0  0  0  0  0  0  0  0  0  0
  -51.3040   -4.7574  -22.9803 S   0  0  0  0  0  0  0  0  0  0  0  0
  -52.7234   -4.7128  -23.0571 O   0  0  0  0  0  0  0  0  0  0  0  0
  -50.5796   -3.8854  -23.8221 O   0  0  0  0  0  0  0  0  0  0  0  0
  -50.9310   -4.3289  -21.2769 C   0  0  0  0  0  0  0  0  0  0  0  0
 28 27  2  0  0  0
 29 27  2  0  0  0
 27 30  1  0  0  0
 27 24  1  0  0  0
 26 24  1  0  0  0
 19 18  2  0  0  0
 19 20  1  0  0  0
 18 17  1  0  0  0
 24 23  1  0  0  0
 24 25  1  0  0  0
 23 22  1  0  0  0
 22 20  1  0  0  0
 20 21  2  0  0  0
 17 16  2  0  0  0
 21 16  1  0  0  0
 16  1  1  0  0  0
  1  5  1  0  0  0
  5  6  2  0  0  0
  5 11  1  0  0  0
  6  7  1  0  0  0
 15 13  1  0  0  0
 13 14  1  0  0  0
 13 12  1  0  0  0
 11  4  2  0  0  0
  7 12  1  0  0  0
  7  3  2  0  0  0
 12 10  1  0  0  0
  4  3  1  0  0  0
  3  8  1  0  0  0
 10  8  2  0  0  0
 10  9  1  0  0  0
  1  2  1  0  0  0
M  END
> <minimizedAffinity>
-7.09972

$$$$
5CAP_4ZH_A_1103


 30 32  0  0  0  0  0  0  0  0999 V2000
  -52.0895   -6.2680  -22.8422 N   0  0  0  0  0  0  0  0  0  0  0  0
  -52.8593   -6.8496  -22.6464 H   0  0  0  0  0  0  0  0  0  0  0  0
  -49.9518   -7.0623  -26.3602 C   0  0  0  0  0  0  0  0  0  0  0  0
  -49.8996   -7.8748  -25.2167 C   0  0  0  0  0  0  0  0  0  0  0  0
  -51.3879   -6.4938  -24.0519 C   0  0  0  0  0  0  0  0  0  0  0  0
  -51.4588   -5.6145  -25.1450 C   0  0  0  0  0  0  0  0  0  0  0  0
  -50.7527   -5.8995  -26.3205 C   0  0  0  0  0  0  0  0  0  0  0  0
  -49.3851   -7.1013  -27.5958 N   0  0  0  0  0  0  0  0  0  0  0  0
  -49.2718   -5.8399  -29.7208 C   0  0  0  0  0  0  0  0  0  0  0  0
  -49.7585   -6.0729  -28.3033 C   0  0  0  0  0  0  0  0  0  0  0  0
  -50.6031   -7.5731  -24.1336 N   0  0  0  0  0  0  0  0  0  0  0  0
  -50.6181   -5.2945  -27.5565 N   0  0  0  0  0  0  0  0  0  0  0  0
  -51.2791   -4.0194  -27.8851 C   0  0  0  0  0  0  0  0  0  0  0  0
  -50.7050   -2.7582  -27.2519 C   0  0  0  0  0  0  0  0  0  0  0  0
  -52.7736   -4.0696  -28.2134 C   0  0  0  0  0  0  0  0  0  0  0  0
  -51.7722   -5.2882  -21.9133 C   0  0  0  0  0  0  0  0  0  0  0  0
  -50.8047   -5.4547  -20.8914 C   0  0  0  0  0  0  0  0  0  0  0  0
  -50.6237   -4.3840  -19.9973 C   0  0  0  0  0  0  0  0  0  0  0  0
  -51.3393   -3.2393  -20.1348 N   0  0  0  0  0  0  0  0  0  0  0  0
  -52.2573   -3.1533  -21.1002 C   0  0  0  0  0  0  0  0  0  0  0  0
  -52.4292   -4.1359  -21.9776 N   0  0  0  0  0  0  0  0  0  0  0  0
  -52.9556   -2.0425  -21.4054 O   0  0  0  0  0  0  0  0  0  0  0  0
  -53.4609   -1.7271  -22.6844 C   0  0  0  0  0  0  0  0  0  0  0  0
  -53.4654   -0.2072  -22.8234 C   0  0  0  0  0  0  0  0  0  0  0  0
  -52.1364    0.4101  -22.3699 C   0  0  0  0  0  0  0  0  0  0  0  0
  -53.5621   -0.0179  -24.3381 C   0  0  0  0  0  0  0  0  0  0  0  0
  -54.8712    0.5727  -21.9310 S   0  0  0  0  0  0  0  0  0  0  0  0
  -55.7683   -0.4213  -21.4516 O   0  0  0  0  0  0  0  0  0  0  0  0
  -55.4035    1.5822  -22.7624 O   0  0  0  0  0  0  0  0  0  0  0  0
  -54.2270    1.3520  -20.4471 C   0  0  0  0  0  0  0  0  0  0  0  0
 28 27  2  0  0  0
 29 27  2  0  0  0
 27 30  1  0  0  0
 27 24  1  0  0  0
 26 24  1  0  0  0
 19 18  2  0  0  0
 19 20  1  0  0  0
 18 17  1  0  0  0
 24 23  1  0  0  0
 24 25  1  0  0  0
 23 22  1  0  0  0
 22 20  1  0  0  0
 20 21  2  0  0  0
 17 16  2  0  0  0
 21 16  1  0  0  0
 16  1  1  0  0  0
  1  5  1  0  0  0
  5  6  2  0  0  0
  5 11  1  0  0  0
  6  7  1  0  0  0
 15 13  1  0  0  0
 13 14  1  0  0  0
 13 12  1  0  0  0
 11  4  2  0  0  0
  7 12  1  0  0  0
  7  3  2  0  0  0
 12 10  1  0  0  0
  4  3  1  0  0  0
  3  8  1  0  0  0
 10  8  2  0  0  0
 10  9  1  0  0  0
  1  2  1  0  0  0
M  END
> <minimizedAffinity>
-6.96704

$$$$
5CAP_4ZH_A_1103


 30 32  0  0  0  0  0  0  0  0999 V2000
  -52.4020   -5.8394  -24.0246 N   0  0  0  0  0  0  0  0  0  0  0  0
  -53.1239   -6.5057  -23.9601 H   0  0  0  0  0  0  0  0  0  0  0  0
  -51.6982   -4.1190  -27.7825 C   0  0  0  0  0  0  0  0  0  0  0  0
  -51.1778   -5.3603  -27.3842 C   0  0  0  0  0  0  0  0  0  0  0  0
  -52.1935   -5.2178  -25.2802 C   0  0  0  0  0  0  0  0  0  0  0  0
  -52.7161   -3.9527  -25.5961 C   0  0  0  0  0  0  0  0  0  0  0  0
  -52.4874   -3.3960  -26.8608 C   0  0  0  0  0  0  0  0  0  0  0  0
  -51.6344   -3.3661  -28.9132 N   0  0  0  0  0  0  0  0  0  0  0  0
  -52.3934   -1.2081  -29.8546 C   0  0  0  0  0  0  0  0  0  0  0  0
  -52.3004   -2.2565  -28.7624 C   0  0  0  0  0  0  0  0  0  0  0  0
  -51.4395   -5.8550  -26.1818 N   0  0  0  0  0  0  0  0  0  0  0  0
  -52.8583   -2.2281  -27.5013 N   0  0  0  0  0  0  0  0  0  0  0  0
  -53.6620   -1.1870  -26.8374 C   0  0  0  0  0  0  0  0  0  0  0  0
  -55.0593   -0.9335  -27.3892 C   0  0  0  0  0  0  0  0  0  0  0  0
  -52.9043   -0.0311  -26.1787 C   0  0  0  0  0  0  0  0  0  0  0  0
  -51.6644   -5.5788  -22.8793 C   0  0  0  0  0  0  0  0  0  0  0  0
  -51.1268   -6.5875  -22.0417 C   0  0  0  0  0  0  0  0  0  0  0  0
  -50.4366   -6.1663  -20.8906 C   0  0  0  0  0  0  0  0  0  0  0  0
  -50.2836   -4.8454  -20.6201 N   0  0  0  0  0  0  0  0  0  0  0  0
  -50.8381   -3.9426  -21.4322 C   0  0  0  0  0  0  0  0  0  0  0  0
  -51.4694   -4.3093  -22.5421 N   0  0  0  0  0  0  0  0  0  0  0  0
  -50.6727   -2.6094  -21.3328 O   0  0  0  0  0  0  0  0  0  0  0  0
  -51.1972   -1.8009  -20.3023 C   0  0  0  0  0  0  0  0  0  0  0  0
  -52.0590   -0.7201  -20.9491 C   0  0  0  0  0  0  0  0  0  0  0  0
  -52.4137    0.3949  -19.9572 C   0  0  0  0  0  0  0  0  0  0  0  0
  -51.1080   -0.1211  -21.9865 C   0  0  0  0  0  0  0  0  0  0  0  0
  -53.5842   -1.4059  -21.7137 S   0  0  0  0  0  0  0  0  0  0  0  0
  -54.0240   -2.5551  -21.0005 O   0  0  0  0  0  0  0  0  0  0  0  0
  -53.3452   -1.5516  -23.0976 O   0  0  0  0  0  0  0  0  0  0  0  0
  -54.9044   -0.2083  -21.4968 C   0  0  0  0  0  0  0  0  0  0  0  0
 28 27  2  0  0  0
 29 27  2  0  0  0
 27 30  1  0  0  0
 27 24  1  0  0  0
 26 24  1  0  0  0
 19 18  2  0  0  0
 19 20  1  0  0  0
 18 17  1  0  0  0
 24 23  1  0  0  0
 24 25  1  0  0  0
 23 22  1  0  0  0
 22 20  1  0  0  0
 20 21  2  0  0  0
 17 16  2  0  0  0
 21 16  1  0  0  0
 16  1  1  0  0  0
  1  5  1  0  0  0
  5  6  2  0  0  0
  5 11  1  0  0  0
  6  7  1  0  0  0
 15 13  1  0  0  0
 13 14  1  0  0  0
 13 12  1  0  0  0
 11  4  2  0  0  0
  7 12  1  0  0  0
  7  3  2  0  0  0
 12 10  1  0  0  0
  4  3  1  0  0  0
  3  8  1  0  0  0
 10  8  2  0  0  0
 10  9  1  0  0  0
  1  2  1  0  0  0
M  END
> <minimizedAffinity>
-6.86499

$$$$
5CAP_4ZH_A_1103


 30 32  0  0  0  0  0  0  0  0999 V2000
  -50.4866   -2.6008  -26.0796 N   0  0  0  0  0  0  0  0  0  0  0  0
  -49.5803   -2.2407  -26.2142 H   0  0  0  0  0  0  0  0  0  0  0  0
  -53.5821    0.1583  -25.4615 C   0  0  0  0  0  0  0  0  0  0  0  0
  -53.1019   -0.2024  -26.7302 C   0  0  0  0  0  0  0  0  0  0  0  0
  -51.5278   -1.6762  -25.8197 C   0  0  0  0  0  0  0  0  0  0  0  0
  -51.9311   -1.3345  -24.5183 C   0  0  0  0  0  0  0  0  0  0  0  0
  -52.9774   -0.4236  -24.3254 C   0  0  0  0  0  0  0  0  0  0  0  0
  -54.5532    0.9912  -25.0006 N   0  0  0  0  0  0  0  0  0  0  0  0
  -55.5638    1.8213  -22.9007 C   0  0  0  0  0  0  0  0  0  0  0  0
  -54.5893    0.9757  -23.6982 C   0  0  0  0  0  0  0  0  0  0  0  0
  -52.1213   -1.0857  -26.8621 N   0  0  0  0  0  0  0  0  0  0  0  0
  -53.6305    0.1035  -23.2266 N   0  0  0  0  0  0  0  0  0  0  0  0
  -53.2483   -0.2373  -21.8451 C   0  0  0  0  0  0  0  0  0  0  0  0
  -51.9036    0.2809  -21.3506 C   0  0  0  0  0  0  0  0  0  0  0  0
  -53.7949   -1.5466  -21.2700 C   0  0  0  0  0  0  0  0  0  0  0  0
  -50.6496   -3.9760  -26.1584 C   0  0  0  0  0  0  0  0  0  0  0  0
  -50.9796   -4.6633  -27.3529 C   0  0  0  0  0  0  0  0  0  0  0  0
  -51.1531   -6.0564  -27.2655 C   0  0  0  0  0  0  0  0  0  0  0  0
  -50.9871   -6.7016  -26.0832 N   0  0  0  0  0  0  0  0  0  0  0  0
  -50.7046   -5.9952  -24.9863 C   0  0  0  0  0  0  0  0  0  0  0  0
  -50.5054   -4.6830  -25.0436 N   0  0  0  0  0  0  0  0  0  0  0  0
  -50.4153   -6.5227  -23.7810 O   0  0  0  0  0  0  0  0  0  0  0  0
  -49.4719   -6.0000  -22.8714 C   0  0  0  0  0  0  0  0  0  0  0  0
  -50.1043   -6.0145  -21.4824 C   0  0  0  0  0  0  0  0  0  0  0  0
  -50.9114   -7.2957  -21.2375 C   0  0  0  0  0  0  0  0  0  0  0  0
  -48.8802   -6.0653  -20.5667 C   0  0  0  0  0  0  0  0  0  0  0  0
  -51.1469   -4.5318  -21.1728 S   0  0  0  0  0  0  0  0  0  0  0  0
  -51.2967   -4.3127  -19.7757 O   0  0  0  0  0  0  0  0  0  0  0  0
  -52.3247   -4.6646  -21.9402 O   0  0  0  0  0  0  0  0  0  0  0  0
  -50.2547   -3.0893  -21.7622 C   0  0  0  0  0  0  0  0  0  0  0  0
 28 27  2  0  0  0
 29 27  2  0  0  0
 27 30  1  0  0  0
 27 24  1  0  0  0
 26 24  1  0  0  0
 19 18  2  0  0  0
 19 20  1  0  0  0
 18 17  1  0  0  0
 24 23  1  0  0  0
 24 25  1  0  0  0
 23 22  1  0  0  0
 22 20  1  0  0  0
 20 21  2  0  0  0
 17 16  2  0  0  0
 21 16  1  0  0  0
 16  1  1  0  0  0
  1  5  1  0  0  0
  5  6  2  0  0  0
  5 11  1  0  0  0
  6  7  1  0  0  0
 15 13  1  0  0  0
 13 14  1  0  0  0
 13 12  1  0  0  0
 11  4  2  0  0  0
  7 12  1  0  0  0
  7  3  2  0  0  0
 12 10  1  0  0  0
  4  3  1  0  0  0
  3  8  1  0  0  0
 10  8  2  0  0  0
 10  9  1  0  0  0
  1  2  1  0  0  0
M  END
> <minimizedAffinity>
-6.77832

$$$$
5CAP_4ZH_A_1103


 30 32  0  0  0  0  0  0  0  0999 V2000
  -53.1192   -0.4699  -26.8675 N   0  0  0  0  0  0  0  0  0  0  0  0
  -52.8042    0.1552  -27.5598 H   0  0  0  0  0  0  0  0  0  0  0  0
  -54.7308    1.2283  -23.3895 C   0  0  0  0  0  0  0  0  0  0  0  0
  -55.3085    1.3625  -24.6618 C   0  0  0  0  0  0  0  0  0  0  0  0
  -53.6246    0.0833  -25.6654 C   0  0  0  0  0  0  0  0  0  0  0  0
  -52.9704   -0.0605  -24.4307 C   0  0  0  0  0  0  0  0  0  0  0  0
  -53.5274    0.4979  -23.2733 C   0  0  0  0  0  0  0  0  0  0  0  0
  -55.0486    1.6544  -22.1379 N   0  0  0  0  0  0  0  0  0  0  0  0
  -54.2332    1.6011  -19.8029 C   0  0  0  0  0  0  0  0  0  0  0  0
  -54.1521    1.2601  -21.2787 C   0  0  0  0  0  0  0  0  0  0  0  0
  -54.7532    0.7976  -25.7256 N   0  0  0  0  0  0  0  0  0  0  0  0
  -53.1840    0.5284  -21.9343 N   0  0  0  0  0  0  0  0  0  0  0  0
  -51.9521   -0.0975  -21.4230 C   0  0  0  0  0  0  0  0  0  0  0  0
  -50.6937    0.0587  -22.2675 C   0  0  0  0  0  0  0  0  0  0  0  0
  -52.1107   -1.3476  -20.5534 C   0  0  0  0  0  0  0  0  0  0  0  0
  -53.0353   -1.8269  -27.1414 C   0  0  0  0  0  0  0  0  0  0  0  0
  -53.6760   -2.4501  -28.2410 C   0  0  0  0  0  0  0  0  0  0  0  0
  -53.5321   -3.8440  -28.3629 C   0  0  0  0  0  0  0  0  0  0  0  0
  -52.7900   -4.5439  -27.4679 N   0  0  0  0  0  0  0  0  0  0  0  0
  -52.2345   -3.9043  -26.4362 C   0  0  0  0  0  0  0  0  0  0  0  0
  -52.3280   -2.5850  -26.3116 N   0  0  0  0  0  0  0  0  0  0  0  0
  -51.3950   -4.4625  -25.5427 O   0  0  0  0  0  0  0  0  0  0  0  0
  -51.7758   -5.3550  -24.5185 C   0  0  0  0  0  0  0  0  0  0  0  0
  -51.4542   -4.6953  -23.1803 C   0  0  0  0  0  0  0  0  0  0  0  0
  -50.5269   -3.4854  -23.3501 C   0  0  0  0  0  0  0  0  0  0  0  0
  -52.8198   -4.1645  -22.7412 C   0  0  0  0  0  0  0  0  0  0  0  0
  -50.7436   -5.8817  -21.9684 S   0  0  0  0  0  0  0  0  0  0  0  0
  -49.3762   -6.1358  -22.2651 O   0  0  0  0  0  0  0  0  0  0  0  0
  -51.6103   -6.9938  -21.8940 O   0  0  0  0  0  0  0  0  0  0  0  0
  -50.7153   -5.0857  -20.3591 C   0  0  0  0  0  0  0  0  0  0  0  0
 28 27  2  0  0  0
 29 27  2  0  0  0
 27 30  1  0  0  0
 27 24  1  0  0  0
 26 24  1  0  0  0
 19 18  2  0  0  0
 19 20  1  0  0  0
 18 17  1  0  0  0
 24 23  1  0  0  0
 24 25  1  0  0  0
 23 22  1  0  0  0
 22 20  1  0  0  0
 20 21  2  0  0  0
 17 16  2  0  0  0
 21 16  1  0  0  0
 16  1  1  0  0  0
  1  5  1  0  0  0
  5  6  2  0  0  0
  5 11  1  0  0  0
  6  7  1  0  0  0
 15 13  1  0  0  0
 13 14  1  0  0  0
 13 12  1  0  0  0
 11  4  2  0  0  0
  7 12  1  0  0  0
  7  3  2  0  0  0
 12 10  1  0  0  0
  4  3  1  0  0  0
  3  8  1  0  0  0
 10  8  2  0  0  0
 10  9  1  0  0  0
  1  2  1  0  0  0
M  END
> <minimizedAffinity>
-6.76680

$$$$
5CAP_4ZH_A_1103


 30 32  0  0  0  0  0  0  0  0999 V2000
  -53.5691    0.4820  -25.7004 N   0  0  0  0  0  0  0  0  0  0  0  0
  -54.0973    1.1348  -26.2143 H   0  0  0  0  0  0  0  0  0  0  0  0
  -51.3810   -2.2793  -27.9729 C   0  0  0  0  0  0  0  0  0  0  0  0
  -51.7321   -0.9991  -28.4293 C   0  0  0  0  0  0  0  0  0  0  0  0
  -52.8325   -0.4843  -26.4286 C   0  0  0  0  0  0  0  0  0  0  0  0
  -52.5502   -1.7632  -25.9210 C   0  0  0  0  0  0  0  0  0  0  0  0
  -51.8044   -2.6709  -26.6836 C   0  0  0  0  0  0  0  0  0  0  0  0
  -50.6871   -3.3288  -28.4890 N   0  0  0  0  0  0  0  0  0  0  0  0
  -49.9649   -5.6326  -27.9498 C   0  0  0  0  0  0  0  0  0  0  0  0
  -50.6563   -4.3182  -27.6418 C   0  0  0  0  0  0  0  0  0  0  0  0
  -52.4230   -0.1674  -27.6612 N   0  0  0  0  0  0  0  0  0  0  0  0
  -51.3333   -3.9571  -26.4955 N   0  0  0  0  0  0  0  0  0  0  0  0
  -51.6127   -4.7269  -25.2707 C   0  0  0  0  0  0  0  0  0  0  0  0
  -50.4333   -5.4290  -24.6096 C   0  0  0  0  0  0  0  0  0  0  0  0
  -53.0110   -5.3341  -25.1289 C   0  0  0  0  0  0  0  0  0  0  0  0
  -53.6014    0.5763  -24.3170 C   0  0  0  0  0  0  0  0  0  0  0  0
  -54.7476    0.9652  -23.5801 C   0  0  0  0  0  0  0  0  0  0  0  0
  -54.6129    1.0556  -22.1829 C   0  0  0  0  0  0  0  0  0  0  0  0
  -53.4334    0.7591  -21.5808 N   0  0  0  0  0  0  0  0  0  0  0  0
  -52.3809    0.4266  -22.3315 C   0  0  0  0  0  0  0  0  0  0  0  0
  -52.4858    0.3038  -23.6502 N   0  0  0  0  0  0  0  0  0  0  0  0
  -51.1916    0.0118  -21.8539 O   0  0  0  0  0  0  0  0  0  0  0  0
  -51.0150   -0.8325  -20.7373 C   0  0  0  0  0  0  0  0  0  0  0  0
  -50.7535   -2.2440  -21.2553 C   0  0  0  0  0  0  0  0  0  0  0  0
  -50.0845   -2.2293  -22.6356 C   0  0  0  0  0  0  0  0  0  0  0  0
  -49.7239   -2.7734  -20.2558 C   0  0  0  0  0  0  0  0  0  0  0  0
  -52.2798   -3.2688  -21.2944 S   0  0  0  0  0  0  0  0  0  0  0  0
  -53.0051   -3.0343  -22.4949 O   0  0  0  0  0  0  0  0  0  0  0  0
  -52.9621   -3.0735  -20.0738 O   0  0  0  0  0  0  0  0  0  0  0  0
  -51.7914   -4.9939  -21.3926 C   0  0  0  0  0  0  0  0  0  0  0  0
 28 27  2  0  0  0
 29 27  2  0  0  0
 27 30  1  0  0  0
 27 24  1  0  0  0
 26 24  1  0  0  0
 19 18  2  0  0  0
 19 20  1  0  0  0
 18 17  1  0  0  0
 24 23  1  0  0  0
 24 25  1  0  0  0
 23 22  1  0  0  0
 22 20  1  0  0  0
 20 21  2  0  0  0
 17 16  2  0  0  0
 21 16  1  0  0  0
 16  1  1  0  0  0
  1  5  1  0  0  0
  5  6  2  0  0  0
  5 11  1  0  0  0
  6  7  1  0  0  0
 15 13  1  0  0  0
 13 14  1  0  0  0
 13 12  1  0  0  0
 11  4  2  0  0  0
  7 12  1  0  0  0
  7  3  2  0  0  0
 12 10  1  0  0  0
  4  3  1  0  0  0
  3  8  1  0  0  0
 10  8  2  0  0  0
 10  9  1  0  0  0
  1  2  1  0  0  0
M  END
> <minimizedAffinity>
-6.65363

$$$$
