1LCP_PLU_A_500


 14 13  0  0  0  0  0  0  0  0999 V2000
   -2.0865   58.9353   45.4261 C   0  0  0  0  0  0  0  0  0  0  0  0
   -2.7806   59.8014   46.3741 N   0  0  0  0  0  0  0  0  0  0  0  0
   -2.7084   60.7708   46.0649 H   0  0  0  0  0  0  0  0  0  0  0  0
   -2.3551   59.7061   47.2962 H   0  0  0  0  0  0  0  0  0  0  0  0
   -0.3554   59.4743   45.3595 P   0  0  0  0  0  0  0  0  0  0  0  0
    0.3403   58.8375   46.5840 O   0  0  0  0  0  0  0  0  0  0  0  0
   -0.2737   61.0304   45.4659 O   0  0  0  0  0  0  0  0  0  0  0  0
    0.2376   59.0075   44.0202 O   0  0  0  0  0  0  0  0  0  0  0  0
   -0.6495   61.3168   46.3130 H   0  0  0  0  0  0  0  0  0  0  0  0
    0.1831   58.0408   43.9619 H   0  0  0  0  0  0  0  0  0  0  0  0
   -2.7333   59.0834   44.0404 C   0  0  0  0  0  0  0  0  0  0  0  0
   -3.5867   57.8859   43.5204 C   0  0  0  0  0  0  0  0  0  0  0  0
   -4.0516   58.0582   42.0780 C   0  0  0  0  0  0  0  0  0  0  0  0
   -4.8073   57.6196   44.4195 C   0  0  0  0  0  0  0  0  0  0  0  0
  1 11  1  0  0  0
  1  2  1  0  0  0
  1  5  1  0  0  0
 11 12  1  0  0  0
 12 13  1  0  0  0
 12 14  1  0  0  0
  5  6  2  0  0  0
  5  7  1  0  0  0
  5  8  1  0  0  0
  2  3  1  0  0  0
  2  4  1  0  0  0
  7  9  1  0  0  0
  8 10  1  0  0  0
M  END
> <minimizedAffinity>
-5.90936

$$$$
1LCP_PLU_A_500


 14 13  0  0  0  0  0  0  0  0999 V2000
   -1.8038   58.6807   45.4325 C   0  0  0  0  0  0  0  0  0  0  0  0
   -2.7257   59.5070   46.2059 N   0  0  0  0  0  0  0  0  0  0  0  0
   -2.7759   60.4383   45.7928 H   0  0  0  0  0  0  0  0  0  0  0  0
   -2.3929   59.5791   47.1674 H   0  0  0  0  0  0  0  0  0  0  0  0
   -0.1839   59.4972   45.4594 P   0  0  0  0  0  0  0  0  0  0  0  0
   -0.4463   60.9837   45.1271 O   0  0  0  0  0  0  0  0  0  0  0  0
    0.7475   58.8772   44.3697 O   0  0  0  0  0  0  0  0  0  0  0  0
    0.4300   59.2917   46.8538 O   0  0  0  0  0  0  0  0  0  0  0  0
    0.3535   59.0109   43.4934 H   0  0  0  0  0  0  0  0  0  0  0  0
   -0.1539   59.6792   47.5245 H   0  0  0  0  0  0  0  0  0  0  0  0
   -2.3120   58.5759   43.9864 C   0  0  0  0  0  0  0  0  0  0  0  0
   -3.8455   58.7425   43.7559 C   0  0  0  0  0  0  0  0  0  0  0  0
   -4.6220   57.4376   43.8994 C   0  0  0  0  0  0  0  0  0  0  0  0
   -4.1536   59.3691   42.3842 C   0  0  0  0  0  0  0  0  0  0  0  0
  1 11  1  0  0  0
  1  2  1  0  0  0
  1  5  1  0  0  0
 11 12  1  0  0  0
 12 13  1  0  0  0
 12 14  1  0  0  0
  5  6  2  0  0  0
  5  7  1  0  0  0
  5  8  1  0  0  0
  2  3  1  0  0  0
  2  4  1  0  0  0
  7  9  1  0  0  0
  8 10  1  0  0  0
M  END
> <minimizedAffinity>
-5.86348

$$$$
1LCP_PLU_A_500


 14 13  0  0  0  0  0  0  0  0999 V2000
   -2.2655   59.2960   43.7434 C   0  0  0  0  0  0  0  0  0  0  0  0
   -1.1363   59.2827   42.8185 N   0  0  0  0  0  0  0  0  0  0  0  0
   -0.5277   58.4937   43.0364 H   0  0  0  0  0  0  0  0  0  0  0  0
   -0.6114   60.1524   42.9102 H   0  0  0  0  0  0  0  0  0  0  0  0
   -1.5944   59.4310   45.4235 P   0  0  0  0  0  0  0  0  0  0  0  0
   -0.5459   60.5657   45.3776 O   0  0  0  0  0  0  0  0  0  0  0  0
   -0.8967   58.0945   45.8315 O   0  0  0  0  0  0  0  0  0  0  0  0
   -2.7608   59.7279   46.3799 O   0  0  0  0  0  0  0  0  0  0  0  0
   -0.1625   57.9144   45.2238 H   0  0  0  0  0  0  0  0  0  0  0  0
   -3.1885   60.5589   46.1201 H   0  0  0  0  0  0  0  0  0  0  0  0
   -3.0516   57.9839   43.5988 C   0  0  0  0  0  0  0  0  0  0  0  0
   -4.5263   58.0875   43.1017 C   0  0  0  0  0  0  0  0  0  0  0  0
   -5.4755   57.1402   43.8283 C   0  0  0  0  0  0  0  0  0  0  0  0
   -4.6369   57.8529   41.5845 C   0  0  0  0  0  0  0  0  0  0  0  0
  1 11  1  0  0  0
  1  2  1  0  0  0
  1  5  1  0  0  0
 11 12  1  0  0  0
 12 13  1  0  0  0
 12 14  1  0  0  0
  5  6  2  0  0  0
  5  7  1  0  0  0
  5  8  1  0  0  0
  2  3  1  0  0  0
  2  4  1  0  0  0
  7  9  1  0  0  0
  8 10  1  0  0  0
M  END
> <minimizedAffinity>
-5.62595

$$$$
1LCP_PLU_A_500


 14 13  0  0  0  0  0  0  0  0999 V2000
   -0.0839   59.8982   45.3870 C   0  0  0  0  0  0  0  0  0  0  0  0
    0.1687   59.4348   46.7479 N   0  0  0  0  0  0  0  0  0  0  0  0
    0.1956   58.4152   46.7604 H   0  0  0  0  0  0  0  0  0  0  0  0
   -0.5763   59.7628   47.3625 H   0  0  0  0  0  0  0  0  0  0  0  0
   -1.6694   59.1947   44.8554 P   0  0  0  0  0  0  0  0  0  0  0  0
   -2.5960   60.3965   44.5621 O   0  0  0  0  0  0  0  0  0  0  0  0
   -2.2846   58.3314   46.0023 O   0  0  0  0  0  0  0  0  0  0  0  0
   -1.4110   58.3183   43.6190 O   0  0  0  0  0  0  0  0  0  0  0  0
   -2.4446   58.8911   46.7782 H   0  0  0  0  0  0  0  0  0  0  0  0
   -1.0292   58.8614   42.9118 H   0  0  0  0  0  0  0  0  0  0  0  0
    1.0425   59.4015   44.4676 C   0  0  0  0  0  0  0  0  0  0  0  0
    1.6567   60.4326   43.4717 C   0  0  0  0  0  0  0  0  0  0  0  0
    1.2691   60.1730   42.0196 C   0  0  0  0  0  0  0  0  0  0  0  0
    3.1905   60.4947   43.5850 C   0  0  0  0  0  0  0  0  0  0  0  0
  1 11  1  0  0  0
  1  2  1  0  0  0
  1  5  1  0  0  0
 11 12  1  0  0  0
 12 13  1  0  0  0
 12 14  1  0  0  0
  5  6  2  0  0  0
  5  7  1  0  0  0
  5  8  1  0  0  0
  2  3  1  0  0  0
  2  4  1  0  0  0
  7  9  1  0  0  0
  8 10  1  0  0  0
M  END
> <minimizedAffinity>
-5.57999

$$$$
1LCP_PLU_A_500


 14 13  0  0  0  0  0  0  0  0999 V2000
    0.5804   59.9978   44.1069 C   0  0  0  0  0  0  0  0  0  0  0  0
    0.7011   61.4522   44.1371 N   0  0  0  0  0  0  0  0  0  0  0  0
    0.9958   61.7497   45.0672 H   0  0  0  0  0  0  0  0  0  0  0  0
   -0.2012   61.8729   43.9155 H   0  0  0  0  0  0  0  0  0  0  0  0
   -0.6400   59.5245   45.3631 P   0  0  0  0  0  0  0  0  0  0  0  0
   -1.7790   60.5650   45.2693 O   0  0  0  0  0  0  0  0  0  0  0  0
    0.0031   59.5843   46.7852 O   0  0  0  0  0  0  0  0  0  0  0  0
   -1.1070   58.0920   45.0577 O   0  0  0  0  0  0  0  0  0  0  0  0
    0.2949   60.4907   46.9702 H   0  0  0  0  0  0  0  0  0  0  0  0
   -1.5049   58.0633   44.1735 H   0  0  0  0  0  0  0  0  0  0  0  0
    1.9431   59.3713   44.4404 C   0  0  0  0  0  0  0  0  0  0  0  0
    2.9150   59.1038   43.2503 C   0  0  0  0  0  0  0  0  0  0  0  0
    4.0106   60.1566   43.1181 C   0  0  0  0  0  0  0  0  0  0  0  0
    2.1628   58.9824   41.9128 C   0  0  0  0  0  0  0  0  0  0  0  0
  1 11  1  0  0  0
  1  2  1  0  0  0
  1  5  1  0  0  0
 11 12  1  0  0  0
 12 13  1  0  0  0
 12 14  1  0  0  0
  5  6  2  0  0  0
  5  7  1  0  0  0
  5  8  1  0  0  0
  2  3  1  0  0  0
  2  4  1  0  0  0
  7  9  1  0  0  0
  8 10  1  0  0  0
M  END
> <minimizedAffinity>
-5.50770

$$$$
1LCP_PLU_A_500


 14 13  0  0  0  0  0  0  0  0999 V2000
   -0.0043   59.3977   43.8889 C   0  0  0  0  0  0  0  0  0  0  0  0
   -0.9919   59.3664   42.8145 N   0  0  0  0  0  0  0  0  0  0  0  0
   -1.6114   60.1724   42.8986 H   0  0  0  0  0  0  0  0  0  0  0  0
   -1.5394   58.5084   42.8808 H   0  0  0  0  0  0  0  0  0  0  0  0
   -0.9071   59.3684   45.4623 P   0  0  0  0  0  0  0  0  0  0  0  0
   -2.0071   60.4479   45.3468 O   0  0  0  0  0  0  0  0  0  0  0  0
    0.0543   59.7292   46.6392 O   0  0  0  0  0  0  0  0  0  0  0  0
   -1.4721   57.9525   45.6609 O   0  0  0  0  0  0  0  0  0  0  0  0
    0.4063   60.6233   46.5066 H   0  0  0  0  0  0  0  0  0  0  0  0
   -2.0676   57.7360   44.9265 H   0  0  0  0  0  0  0  0  0  0  0  0
    0.8169   60.6919   43.7819 C   0  0  0  0  0  0  0  0  0  0  0  0
    2.2888   60.5629   43.2826 C   0  0  0  0  0  0  0  0  0  0  0  0
    3.0451   59.4061   43.9275 C   0  0  0  0  0  0  0  0  0  0  0  0
    3.0803   61.8665   43.4906 C   0  0  0  0  0  0  0  0  0  0  0  0
  1 11  1  0  0  0
  1  2  1  0  0  0
  1  5  1  0  0  0
 11 12  1  0  0  0
 12 13  1  0  0  0
 12 14  1  0  0  0
  5  6  2  0  0  0
  5  7  1  0  0  0
  5  8  1  0  0  0
  2  3  1  0  0  0
  2  4  1  0  0  0
  7  9  1  0  0  0
  8 10  1  0  0  0
M  END
> <minimizedAffinity>
-5.50187

$$$$
1LCP_PLU_A_500


 14 13  0  0  0  0  0  0  0  0999 V2000
   -0.4945   60.2763   44.1357 C   0  0  0  0  0  0  0  0  0  0  0  0
    0.1901   61.3623   44.8304 N   0  0  0  0  0  0  0  0  0  0  0  0
    0.9101   60.9751   45.4404 H   0  0  0  0  0  0  0  0  0  0  0  0
   -0.4833   61.8863   45.3893 H   0  0  0  0  0  0  0  0  0  0  0  0
   -1.2186   59.1914   45.3966 P   0  0  0  0  0  0  0  0  0  0  0  0
   -0.0679   58.8269   46.3620 O   0  0  0  0  0  0  0  0  0  0  0  0
   -1.7715   57.8907   44.7318 O   0  0  0  0  0  0  0  0  0  0  0  0
   -2.3612   59.9565   46.0841 O   0  0  0  0  0  0  0  0  0  0  0  0
   -1.0450   57.4141   44.3006 H   0  0  0  0  0  0  0  0  0  0  0  0
   -2.0099   60.7623   46.4942 H   0  0  0  0  0  0  0  0  0  0  0  0
    0.5254   59.4926   43.2954 C   0  0  0  0  0  0  0  0  0  0  0  0
    2.0207   59.9215   43.4071 C   0  0  0  0  0  0  0  0  0  0  0  0
    2.7018   60.0923   42.0531 C   0  0  0  0  0  0  0  0  0  0  0  0
    2.8360   58.9379   44.2656 C   0  0  0  0  0  0  0  0  0  0  0  0
  1 11  1  0  0  0
  1  2  1  0  0  0
  1  5  1  0  0  0
 11 12  1  0  0  0
 12 13  1  0  0  0
 12 14  1  0  0  0
  5  6  2  0  0  0
  5  7  1  0  0  0
  5  8  1  0  0  0
  2  3  1  0  0  0
  2  4  1  0  0  0
  7  9  1  0  0  0
  8 10  1  0  0  0
M  END
> <minimizedAffinity>
-5.41725

$$$$
1LCP_PLU_A_500


 14 13  0  0  0  0  0  0  0  0999 V2000
   -0.7888   60.1319   44.3315 C   0  0  0  0  0  0  0  0  0  0  0  0
   -0.2368   61.0447   45.3279 N   0  0  0  0  0  0  0  0  0  0  0  0
    0.3164   60.5169   46.0030 H   0  0  0  0  0  0  0  0  0  0  0  0
   -0.9981   61.5217   45.8109 H   0  0  0  0  0  0  0  0  0  0  0  0
   -1.8116   58.9178   45.2097 P   0  0  0  0  0  0  0  0  0  0  0  0
   -2.7089   58.2569   44.1388 O   0  0  0  0  0  0  0  0  0  0  0  0
   -2.7079   59.6367   46.2677 O   0  0  0  0  0  0  0  0  0  0  0  0
   -0.8730   57.9200   45.9074 O   0  0  0  0  0  0  0  0  0  0  0  0
   -3.2968   60.2640   45.8199 H   0  0  0  0  0  0  0  0  0  0  0  0
   -0.3202   57.4781   45.2441 H   0  0  0  0  0  0  0  0  0  0  0  0
    0.3633   59.4184   43.6077 C   0  0  0  0  0  0  0  0  0  0  0  0
    1.5553   60.2997   43.1232 C   0  0  0  0  0  0  0  0  0  0  0  0
    1.6521   60.4009   41.6044 C   0  0  0  0  0  0  0  0  0  0  0  0
    2.8996   59.8045   43.6862 C   0  0  0  0  0  0  0  0  0  0  0  0
  1 11  1  0  0  0
  1  2  1  0  0  0
  1  5  1  0  0  0
 11 12  1  0  0  0
 12 13  1  0  0  0
 12 14  1  0  0  0
  5  6  2  0  0  0
  5  7  1  0  0  0
  5  8  1  0  0  0
  2  3  1  0  0  0
  2  4  1  0  0  0
  7  9  1  0  0  0
  8 10  1  0  0  0
M  END
> <minimizedAffinity>
-5.38325

$$$$
1LCP_PLU_A_500


 14 13  0  0  0  0  0  0  0  0999 V2000
   -1.0321   60.5198   44.4348 C   0  0  0  0  0  0  0  0  0  0  0  0
    0.2019   61.0798   44.9773 N   0  0  0  0  0  0  0  0  0  0  0  0
    0.9362   60.3723   44.9524 H   0  0  0  0  0  0  0  0  0  0  0  0
    0.0465   61.3747   45.9413 H   0  0  0  0  0  0  0  0  0  0  0  0
   -1.4728   59.0826   45.4505 P   0  0  0  0  0  0  0  0  0  0  0  0
   -0.2137   58.7389   46.2782 O   0  0  0  0  0  0  0  0  0  0  0  0
   -1.8403   57.8714   44.5353 O   0  0  0  0  0  0  0  0  0  0  0  0
   -2.6794   59.4673   46.3221 O   0  0  0  0  0  0  0  0  0  0  0  0
   -1.0744   57.6349   43.9890 H   0  0  0  0  0  0  0  0  0  0  0  0
   -2.4433   60.2196   46.8871 H   0  0  0  0  0  0  0  0  0  0  0  0
   -0.7906   60.0791   42.9829 C   0  0  0  0  0  0  0  0  0  0  0  0
   -1.6949   60.7177   41.8844 C   0  0  0  0  0  0  0  0  0  0  0  0
   -1.2144   62.0928   41.4322 C   0  0  0  0  0  0  0  0  0  0  0  0
   -3.1629   60.8157   42.3367 C   0  0  0  0  0  0  0  0  0  0  0  0
  1 11  1  0  0  0
  1  2  1  0  0  0
  1  5  1  0  0  0
 11 12  1  0  0  0
 12 13  1  0  0  0
 12 14  1  0  0  0
  5  6  2  0  0  0
  5  7  1  0  0  0
  5  8  1  0  0  0
  2  3  1  0  0  0
  2  4  1  0  0  0
  7  9  1  0  0  0
  8 10  1  0  0  0
M  END
> <minimizedAffinity>
-4.85599

$$$$
1LCP_PLU_A_500


 14 13  0  0  0  0  0  0  0  0999 V2000
   -1.6693   59.0085   43.7768 C   0  0  0  0  0  0  0  0  0  0  0  0
   -2.1017   57.6449   44.0672 N   0  0  0  0  0  0  0  0  0  0  0  0
   -2.5162   57.6108   44.9986 H   0  0  0  0  0  0  0  0  0  0  0  0
   -1.2980   57.0181   44.0295 H   0  0  0  0  0  0  0  0  0  0  0  0
   -0.4643   59.4822   45.0476 P   0  0  0  0  0  0  0  0  0  0  0  0
    0.8942   59.6164   44.3229 O   0  0  0  0  0  0  0  0  0  0  0  0
   -0.3654   58.3660   46.1356 O   0  0  0  0  0  0  0  0  0  0  0  0
   -0.9381   60.7978   45.6864 O   0  0  0  0  0  0  0  0  0  0  0  0
   -0.0661   57.5398   45.7249 H   0  0  0  0  0  0  0  0  0  0  0  0
   -0.9969   61.4854   45.0047 H   0  0  0  0  0  0  0  0  0  0  0  0
   -2.8849   59.9464   43.8342 C   0  0  0  0  0  0  0  0  0  0  0  0
   -3.5513   60.3335   42.4782 C   0  0  0  0  0  0  0  0  0  0  0  0
   -4.0243   61.7827   42.4309 C   0  0  0  0  0  0  0  0  0  0  0  0
   -4.7277   59.4032   42.1321 C   0  0  0  0  0  0  0  0  0  0  0  0
  1 11  1  0  0  0
  1  2  1  0  0  0
  1  5  1  0  0  0
 11 12  1  0  0  0
 12 13  1  0  0  0
 12 14  1  0  0  0
  5  6  2  0  0  0
  5  7  1  0  0  0
  5  8  1  0  0  0
  2  3  1  0  0  0
  2  4  1  0  0  0
  7  9  1  0  0  0
  8 10  1  0  0  0
M  END
> <minimizedAffinity>
-4.84772

$$$$
