1OHR_1UN_A_201


 44 47  0  0  0  0  0  0  0  0999 V2000
    4.7712   -0.5806   15.6102 C   0  0  0  0  0  0  0  0  0  0  0  0
    5.0384    0.6258   16.3355 O   0  0  0  0  0  0  0  0  0  0  0  0
    5.9942    0.7143   16.4748 H   0  0  0  0  0  0  0  0  0  0  0  0
    5.3182   -1.6974   16.5121 C   0  0  0  0  0  0  0  0  0  0  0  0
    2.6738   -4.3074   16.3488 C   0  0  0  0  0  0  0  0  0  0  0  0
    3.5081   -5.5833   16.6791 C   0  0  0  0  0  0  0  0  0  0  0  0
    2.7604   -6.8426   16.2791 C   0  0  0  0  0  0  0  0  0  0  0  0
    2.3675   -6.7569   14.8146 C   0  0  0  0  0  0  0  0  0  0  0  0
    1.5106   -5.5081   14.5578 C   0  0  0  0  0  0  0  0  0  0  0  0
    2.3423   -4.2186   14.8511 C   0  0  0  0  0  0  0  0  0  0  0  0
    4.7476   -2.9720   16.0654 N   0  0  0  0  0  0  0  0  0  0  0  0
    5.6038   -4.1325   16.3954 C   0  0  0  0  0  0  0  0  0  0  0  0
    4.8833   -5.4505   15.9917 C   0  0  0  0  0  0  0  0  0  0  0  0
    3.4829   -3.0835   16.8298 C   0  0  0  0  0  0  0  0  0  0  0  0
    6.8844   -4.0584   15.6114 C   0  0  0  0  0  0  0  0  0  0  0  0
    7.9452   -4.3343   16.4133 N   0  0  0  0  0  0  0  0  0  0  0  0
    6.8619   -3.8446   14.3822 O   0  0  0  0  0  0  0  0  0  0  0  0
    7.7586   -4.5506   17.3555 H   0  0  0  0  0  0  0  0  0  0  0  0
    9.3622   -4.3348   15.9788 C   0  0  0  0  0  0  0  0  0  0  0  0
    9.8048   -2.9601   15.5093 C   0  0  0  0  0  0  0  0  0  0  0  0
    9.5143   -5.3295   14.7874 C   0  0  0  0  0  0  0  0  0  0  0  0
   10.2041   -4.7255   17.2266 C   0  0  0  0  0  0  0  0  0  0  0  0
    5.3950   -0.5089   14.2139 C   0  0  0  0  0  0  0  0  0  0  0  0
    4.6806    0.5764   13.5579 N   0  0  0  0  0  0  0  0  0  0  0  0
    3.9282    0.2988   12.4736 C   0  0  0  0  0  0  0  0  0  0  0  0
    3.8444   -0.8460   12.0065 O   0  0  0  0  0  0  0  0  0  0  0  0
    4.7455    1.4973   13.8998 H   0  0  0  0  0  0  0  0  0  0  0  0
    3.2816    1.4336   11.8544 C   0  0  0  0  0  0  0  0  0  0  0  0
    4.0635    2.4463   11.2538 C   0  0  0  0  0  0  0  0  0  0  0  0
    3.4875    3.5722   10.6759 C   0  0  0  0  0  0  0  0  0  0  0  0
    2.1082    3.6750   10.6702 C   0  0  0  0  0  0  0  0  0  0  0  0
    1.3249    2.6818   11.2763 C   0  0  0  0  0  0  0  0  0  0  0  0
    1.8838    1.5384   11.8528 C   0  0  0  0  0  0  0  0  0  0  0  0
   -0.0280    2.8655   11.4028 O   0  0  0  0  0  0  0  0  0  0  0  0
    0.9767    0.5308   12.5034 C   0  0  0  0  0  0  0  0  0  0  0  0
   -0.4352    3.6216   11.0280 H   0  0  0  0  0  0  0  0  0  0  0  0
    6.8452   -0.1270   14.1539 C   0  0  0  0  0  0  0  0  0  0  0  0
    7.5099   -0.5260   12.5253 S   0  0  0  0  0  0  0  0  0  0  0  0
    7.6250    0.9860   11.7065 C   0  0  0  0  0  0  0  0  0  0  0  0
    7.6823    2.1163   12.5112 C   0  0  0  0  0  0  0  0  0  0  0  0
    7.7445    3.3483   11.8884 C   0  0  0  0  0  0  0  0  0  0  0  0
    7.7508    3.4325   10.4925 C   0  0  0  0  0  0  0  0  0  0  0  0
    7.6991    2.2866    9.6923 C   0  0  0  0  0  0  0  0  0  0  0  0
    7.6399    1.0458   10.3212 C   0  0  0  0  0  0  0  0  0  0  0  0
  5  6  1  0  0  0
  5 10  1  0  0  0
  5 14  1  0  0  0
  6  7  1  0  0  0
  6 13  1  0  0  0
  7  8  1  0  0  0
  8  9  1  0  0  0
  9 10  1  0  0  0
 11 12  1  0  0  0
 11 14  1  0  0  0
 11  4  1  0  0  0
 12 13  1  0  0  0
 12 15  1  0  0  0
 15 16  1  0  0  0
 15 17  2  0  0  0
 16 19  1  0  0  0
 19 20  1  0  0  0
 19 21  1  0  0  0
 19 22  1  0  0  0
  4  1  1  0  0  0
  1 23  1  0  0  0
  1  2  1  0  0  0
 23 24  1  0  0  0
 23 37  1  0  0  0
 24 25  1  0  0  0
 37 38  1  0  0  0
 25 26  2  0  0  0
 25 28  1  0  0  0
 28 29  2  0  0  0
 28 33  1  0  0  0
 29 30  1  0  0  0
 30 31  2  0  0  0
 31 32  1  0  0  0
 32 33  2  0  0  0
 32 34  1  0  0  0
 33 35  1  0  0  0
 38 39  1  0  0  0
 39 40  2  0  0  0
 39 44  1  0  0  0
 40 41  1  0  0  0
 41 42  2  0  0  0
 42 43  1  0  0  0
 43 44  2  0  0  0
 16 18  1  0  0  0
  2  3  1  0  0  0
 24 27  1  0  0  0
 34 36  1  0  0  0
M  END
> <minimizedAffinity>
-11.23242

$$$$
1OHR_1UN_A_201


 44 47  0  0  0  0  0  0  0  0999 V2000
    4.7889   -0.6892   15.7100 C   0  0  0  0  0  0  0  0  0  0  0  0
    5.1231    0.4256   16.5457 O   0  0  0  0  0  0  0  0  0  0  0  0
    6.0791    0.5846   16.5056 H   0  0  0  0  0  0  0  0  0  0  0  0
    5.5839   -1.8624   16.3028 C   0  0  0  0  0  0  0  0  0  0  0  0
    2.8065   -4.3357   16.3196 C   0  0  0  0  0  0  0  0  0  0  0  0
    3.5920   -5.6484   16.6247 C   0  0  0  0  0  0  0  0  0  0  0  0
    2.7615   -6.8728   16.2843 C   0  0  0  0  0  0  0  0  0  0  0  0
    2.2953   -6.7856   14.8414 C   0  0  0  0  0  0  0  0  0  0  0  0
    1.4899   -5.4980   14.6113 C   0  0  0  0  0  0  0  0  0  0  0  0
    2.4000   -4.2491   14.8403 C   0  0  0  0  0  0  0  0  0  0  0  0
    4.9267   -3.1118   15.9064 N   0  0  0  0  0  0  0  0  0  0  0  0
    5.7398   -4.3103   16.2084 C   0  0  0  0  0  0  0  0  0  0  0  0
    4.9332   -5.5947   15.8636 C   0  0  0  0  0  0  0  0  0  0  0  0
    3.7008   -3.1488   16.7383 C   0  0  0  0  0  0  0  0  0  0  0  0
    6.9787   -4.3116   15.3566 C   0  0  0  0  0  0  0  0  0  0  0  0
    8.0239   -4.8390   16.0450 N   0  0  0  0  0  0  0  0  0  0  0  0
    6.9297   -3.9332   14.1685 O   0  0  0  0  0  0  0  0  0  0  0  0
    7.8524   -5.1518   16.9626 H   0  0  0  0  0  0  0  0  0  0  0  0
    9.4031   -4.9796   15.5206 C   0  0  0  0  0  0  0  0  0  0  0  0
    9.4237   -5.7010   14.1845 C   0  0  0  0  0  0  0  0  0  0  0  0
   10.2371   -5.8155   16.5392 C   0  0  0  0  0  0  0  0  0  0  0  0
    9.9426   -3.5361   15.3112 C   0  0  0  0  0  0  0  0  0  0  0  0
    5.1007   -0.3667   14.2462 C   0  0  0  0  0  0  0  0  0  0  0  0
    3.9421    0.3880   13.7913 N   0  0  0  0  0  0  0  0  0  0  0  0
    3.2783   -0.0355   12.6964 C   0  0  0  0  0  0  0  0  0  0  0  0
    3.6370   -1.0329   12.0543 O   0  0  0  0  0  0  0  0  0  0  0  0
    3.6481    1.1937   14.2746 H   0  0  0  0  0  0  0  0  0  0  0  0
    2.1638    0.7873   12.2840 C   0  0  0  0  0  0  0  0  0  0  0  0
    0.8423    0.3129   12.4461 C   0  0  0  0  0  0  0  0  0  0  0  0
   -0.2592    1.0545   12.0337 C   0  0  0  0  0  0  0  0  0  0  0  0
   -0.0406    2.3022   11.4782 C   0  0  0  0  0  0  0  0  0  0  0  0
    1.2680    2.7751   11.3005 C   0  0  0  0  0  0  0  0  0  0  0  0
    2.3871    2.0500   11.7175 C   0  0  0  0  0  0  0  0  0  0  0  0
    1.4821    3.9407   10.6109 O   0  0  0  0  0  0  0  0  0  0  0  0
    3.7580    2.6162   11.4698 C   0  0  0  0  0  0  0  0  0  0  0  0
    0.7538    4.4515   10.3166 H   0  0  0  0  0  0  0  0  0  0  0  0
    6.2814    0.5265   14.0005 C   0  0  0  0  0  0  0  0  0  0  0  0
    7.1949   -0.0594   12.5598 S   0  0  0  0  0  0  0  0  0  0  0  0
    7.5194    1.3550   11.6304 C   0  0  0  0  0  0  0  0  0  0  0  0
    7.4621    2.5634   12.3123 C   0  0  0  0  0  0  0  0  0  0  0  0
    7.6870    3.7211   11.5922 C   0  0  0  0  0  0  0  0  0  0  0  0
    7.9639    3.6564   10.2229 C   0  0  0  0  0  0  0  0  0  0  0  0
    8.0254    2.4330    9.5480 C   0  0  0  0  0  0  0  0  0  0  0  0
    7.8019    1.2671   10.2756 C   0  0  0  0  0  0  0  0  0  0  0  0
  5  6  1  0  0  0
  5 10  1  0  0  0
  5 14  1  0  0  0
  6  7  1  0  0  0
  6 13  1  0  0  0
  7  8  1  0  0  0
  8  9  1  0  0  0
  9 10  1  0  0  0
 11 12  1  0  0  0
 11 14  1  0  0  0
 11  4  1  0  0  0
 12 13  1  0  0  0
 12 15  1  0  0  0
 15 16  1  0  0  0
 15 17  2  0  0  0
 16 19  1  0  0  0
 19 20  1  0  0  0
 19 21  1  0  0  0
 19 22  1  0  0  0
  4  1  1  0  0  0
  1 23  1  0  0  0
  1  2  1  0  0  0
 23 24  1  0  0  0
 23 37  1  0  0  0
 24 25  1  0  0  0
 37 38  1  0  0  0
 25 26  2  0  0  0
 25 28  1  0  0  0
 28 29  2  0  0  0
 28 33  1  0  0  0
 29 30  1  0  0  0
 30 31  2  0  0  0
 31 32  1  0  0  0
 32 33  2  0  0  0
 32 34  1  0  0  0
 33 35  1  0  0  0
 38 39  1  0  0  0
 39 40  2  0  0  0
 39 44  1  0  0  0
 40 41  1  0  0  0
 41 42  2  0  0  0
 42 43  1  0  0  0
 43 44  2  0  0  0
 16 18  1  0  0  0
  2  3  1  0  0  0
 24 27  1  0  0  0
 34 36  1  0  0  0
M  END
> <minimizedAffinity>
-10.85249

$$$$
1OHR_1UN_A_201


 44 47  0  0  0  0  0  0  0  0999 V2000
    5.3580   -0.8795   15.6219 C   0  0  0  0  0  0  0  0  0  0  0  0
    5.1377   -0.5816   17.0059 O   0  0  0  0  0  0  0  0  0  0  0  0
    4.1852   -0.5837   17.1894 H   0  0  0  0  0  0  0  0  0  0  0  0
    4.6333    0.2466   14.8690 C   0  0  0  0  0  0  0  0  0  0  0  0
    7.3970    1.3388   12.6327 C   0  0  0  0  0  0  0  0  0  0  0  0
    6.6024    2.1685   11.5775 C   0  0  0  0  0  0  0  0  0  0  0  0
    7.4283    2.3894   10.3229 C   0  0  0  0  0  0  0  0  0  0  0  0
    7.9038    1.0510    9.7852 C   0  0  0  0  0  0  0  0  0  0  0  0
    8.7177    0.3000   10.8498 C   0  0  0  0  0  0  0  0  0  0  0  0
    7.8130   -0.0328   12.0792 C   0  0  0  0  0  0  0  0  0  0  0  0
    5.2861    0.4262   13.5684 N   0  0  0  0  0  0  0  0  0  0  0  0
    4.4646    1.2041   12.6152 C   0  0  0  0  0  0  0  0  0  0  0  0
    5.2662    1.4465   11.3045 C   0  0  0  0  0  0  0  0  0  0  0  0
    6.5066    1.2042   13.8869 C   0  0  0  0  0  0  0  0  0  0  0  0
    3.2310    0.4245   12.2535 C   0  0  0  0  0  0  0  0  0  0  0  0
    2.1512    1.2466   12.2030 N   0  0  0  0  0  0  0  0  0  0  0  0
    3.3086   -0.7904   11.9789 O   0  0  0  0  0  0  0  0  0  0  0  0
    2.2989    2.2027   12.3858 H   0  0  0  0  0  0  0  0  0  0  0  0
    0.7675    0.8148   11.8938 C   0  0  0  0  0  0  0  0  0  0  0  0
    0.2207   -0.1192   12.9591 C   0  0  0  0  0  0  0  0  0  0  0  0
    0.7795    0.0506   10.5345 C   0  0  0  0  0  0  0  0  0  0  0  0
   -0.1011    2.1046   11.8746 C   0  0  0  0  0  0  0  0  0  0  0  0
    4.8706   -2.2947   15.3000 C   0  0  0  0  0  0  0  0  0  0  0  0
    5.6583   -3.1519   16.1738 N   0  0  0  0  0  0  0  0  0  0  0  0
    6.5433   -4.0068   15.6219 C   0  0  0  0  0  0  0  0  0  0  0  0
    6.6904   -4.1003   14.3949 O   0  0  0  0  0  0  0  0  0  0  0  0
    5.5468   -3.1084   17.1510 H   0  0  0  0  0  0  0  0  0  0  0  0
    7.2588   -4.8519   16.5509 C   0  0  0  0  0  0  0  0  0  0  0  0
    6.5654   -5.8549   17.2656 C   0  0  0  0  0  0  0  0  0  0  0  0
    7.2046   -6.6692   18.1939 C   0  0  0  0  0  0  0  0  0  0  0  0
    8.5632   -6.5005   18.3905 C   0  0  0  0  0  0  0  0  0  0  0  0
    9.2567   -5.4982   17.6961 C   0  0  0  0  0  0  0  0  0  0  0  0
    8.6350   -4.6771   16.7520 C   0  0  0  0  0  0  0  0  0  0  0  0
   10.5657   -5.2356   18.0086 O   0  0  0  0  0  0  0  0  0  0  0  0
    9.4435   -3.6102   16.0669 C   0  0  0  0  0  0  0  0  0  0  0  0
   11.0129   -5.7669   18.6377 H   0  0  0  0  0  0  0  0  0  0  0  0
    3.4379   -2.5944   15.6312 C   0  0  0  0  0  0  0  0  0  0  0  0
    2.9001   -4.0585   14.7253 S   0  0  0  0  0  0  0  0  0  0  0  0
    2.9484   -5.3397   15.8768 C   0  0  0  0  0  0  0  0  0  0  0  0
    2.8906   -4.9659   17.2129 C   0  0  0  0  0  0  0  0  0  0  0  0
    2.9575   -5.9650   18.1652 C   0  0  0  0  0  0  0  0  0  0  0  0
    3.0771   -7.3027   17.7754 C   0  0  0  0  0  0  0  0  0  0  0  0
    3.1280   -7.6678   16.4263 C   0  0  0  0  0  0  0  0  0  0  0  0
    3.0570   -6.6603   15.4679 C   0  0  0  0  0  0  0  0  0  0  0  0
  5  6  1  0  0  0
  5 10  1  0  0  0
  5 14  1  0  0  0
  6  7  1  0  0  0
  6 13  1  0  0  0
  7  8  1  0  0  0
  8  9  1  0  0  0
  9 10  1  0  0  0
 11 12  1  0  0  0
 11 14  1  0  0  0
 11  4  1  0  0  0
 12 13  1  0  0  0
 12 15  1  0  0  0
 15 16  1  0  0  0
 15 17  2  0  0  0
 16 19  1  0  0  0
 19 20  1  0  0  0
 19 21  1  0  0  0
 19 22  1  0  0  0
  4  1  1  0  0  0
  1 23  1  0  0  0
  1  2  1  0  0  0
 23 24  1  0  0  0
 23 37  1  0  0  0
 24 25  1  0  0  0
 37 38  1  0  0  0
 25 26  2  0  0  0
 25 28  1  0  0  0
 28 29  2  0  0  0
 28 33  1  0  0  0
 29 30  1  0  0  0
 30 31  2  0  0  0
 31 32  1  0  0  0
 32 33  2  0  0  0
 32 34  1  0  0  0
 33 35  1  0  0  0
 38 39  1  0  0  0
 39 40  2  0  0  0
 39 44  1  0  0  0
 40 41  1  0  0  0
 41 42  2  0  0  0
 42 43  1  0  0  0
 43 44  2  0  0  0
 16 18  1  0  0  0
  2  3  1  0  0  0
 24 27  1  0  0  0
 34 36  1  0  0  0
M  END
> <minimizedAffinity>
-10.68607

$$$$
1OHR_1UN_A_201


 44 47  0  0  0  0  0  0  0  0999 V2000
    5.6503   -0.5541   15.3833 C   0  0  0  0  0  0  0  0  0  0  0  0
    4.7381    0.2571   16.1334 O   0  0  0  0  0  0  0  0  0  0  0  0
    3.9467   -0.2608   16.3486 H   0  0  0  0  0  0  0  0  0  0  0  0
    4.8663   -0.9422   14.1205 C   0  0  0  0  0  0  0  0  0  0  0  0
    7.4489    1.1017   12.3930 C   0  0  0  0  0  0  0  0  0  0  0  0
    6.5800    2.2929   11.8839 C   0  0  0  0  0  0  0  0  0  0  0  0
    7.3022    3.0698   10.7978 C   0  0  0  0  0  0  0  0  0  0  0  0
    7.7156    2.1227    9.6848 C   0  0  0  0  0  0  0  0  0  0  0  0
    8.6055    0.9983   10.2357 C   0  0  0  0  0  0  0  0  0  0  0  0
    7.8014    0.1304   11.2558 C   0  0  0  0  0  0  0  0  0  0  0  0
    5.4117   -0.1863   12.9886 N   0  0  0  0  0  0  0  0  0  0  0  0
    4.5237    0.9126   12.5496 C   0  0  0  0  0  0  0  0  0  0  0  0
    5.2173    1.7330   11.4249 C   0  0  0  0  0  0  0  0  0  0  0  0
    6.6635    0.4005   13.5223 C   0  0  0  0  0  0  0  0  0  0  0  0
    3.2552    0.3431   11.9777 C   0  0  0  0  0  0  0  0  0  0  0  0
    2.2033    1.1529   12.2644 N   0  0  0  0  0  0  0  0  0  0  0  0
    3.2840   -0.6935   11.2835 O   0  0  0  0  0  0  0  0  0  0  0  0
    2.3883    1.9759   12.7720 H   0  0  0  0  0  0  0  0  0  0  0  0
    0.7981    0.8925   11.8715 C   0  0  0  0  0  0  0  0  0  0  0  0
    0.7109    0.2343   10.5058 C   0  0  0  0  0  0  0  0  0  0  0  0
    0.0419    2.2547   11.8056 C   0  0  0  0  0  0  0  0  0  0  0  0
    0.2206   -0.0889   12.9307 C   0  0  0  0  0  0  0  0  0  0  0  0
    6.1360   -1.7308   16.2338 C   0  0  0  0  0  0  0  0  0  0  0  0
    5.4236   -2.8801   15.6949 N   0  0  0  0  0  0  0  0  0  0  0  0
    4.2658   -3.2584   16.2737 C   0  0  0  0  0  0  0  0  0  0  0  0
    3.8020   -2.6720   17.2621 O   0  0  0  0  0  0  0  0  0  0  0  0
    5.7809   -3.3729   14.9211 H   0  0  0  0  0  0  0  0  0  0  0  0
    3.6379   -4.4308   15.7078 C   0  0  0  0  0  0  0  0  0  0  0  0
    2.4204   -4.3040   15.0013 C   0  0  0  0  0  0  0  0  0  0  0  0
    1.7628   -5.4072   14.4686 C   0  0  0  0  0  0  0  0  0  0  0  0
    2.3444   -6.6534   14.6168 C   0  0  0  0  0  0  0  0  0  0  0  0
    3.5453   -6.7906   15.3285 C   0  0  0  0  0  0  0  0  0  0  0  0
    4.2265   -5.6937   15.8622 C   0  0  0  0  0  0  0  0  0  0  0  0
    4.0338   -8.0420   15.6033 O   0  0  0  0  0  0  0  0  0  0  0  0
    5.4968   -5.9272   16.6323 C   0  0  0  0  0  0  0  0  0  0  0  0
    3.6011   -8.7994   15.2611 H   0  0  0  0  0  0  0  0  0  0  0  0
    7.5926   -2.0743   16.1211 C   0  0  0  0  0  0  0  0  0  0  0  0
    7.8303   -3.2803   14.8010 S   0  0  0  0  0  0  0  0  0  0  0  0
    8.7651   -4.5419   15.5110 C   0  0  0  0  0  0  0  0  0  0  0  0
    9.4177   -4.2291   16.6961 C   0  0  0  0  0  0  0  0  0  0  0  0
   10.2012   -5.2074   17.2781 C   0  0  0  0  0  0  0  0  0  0  0  0
   10.3182   -6.4654   16.6785 C   0  0  0  0  0  0  0  0  0  0  0  0
    9.6510   -6.7711   15.4880 C   0  0  0  0  0  0  0  0  0  0  0  0
    8.8592   -5.7855   14.9046 C   0  0  0  0  0  0  0  0  0  0  0  0
  5  6  1  0  0  0
  5 10  1  0  0  0
  5 14  1  0  0  0
  6  7  1  0  0  0
  6 13  1  0  0  0
  7  8  1  0  0  0
  8  9  1  0  0  0
  9 10  1  0  0  0
 11 12  1  0  0  0
 11 14  1  0  0  0
 11  4  1  0  0  0
 12 13  1  0  0  0
 12 15  1  0  0  0
 15 16  1  0  0  0
 15 17  2  0  0  0
 16 19  1  0  0  0
 19 20  1  0  0  0
 19 21  1  0  0  0
 19 22  1  0  0  0
  4  1  1  0  0  0
  1 23  1  0  0  0
  1  2  1  0  0  0
 23 24  1  0  0  0
 23 37  1  0  0  0
 24 25  1  0  0  0
 37 38  1  0  0  0
 25 26  2  0  0  0
 25 28  1  0  0  0
 28 29  2  0  0  0
 28 33  1  0  0  0
 29 30  1  0  0  0
 30 31  2  0  0  0
 31 32  1  0  0  0
 32 33  2  0  0  0
 32 34  1  0  0  0
 33 35  1  0  0  0
 38 39  1  0  0  0
 39 40  2  0  0  0
 39 44  1  0  0  0
 40 41  1  0  0  0
 41 42  2  0  0  0
 42 43  1  0  0  0
 43 44  2  0  0  0
 16 18  1  0  0  0
  2  3  1  0  0  0
 24 27  1  0  0  0
 34 36  1  0  0  0
M  END
> <minimizedAffinity>
-9.96559

$$$$
1OHR_1UN_A_201


 44 47  0  0  0  0  0  0  0  0999 V2000
    6.0913   -0.9604   14.7925 C   0  0  0  0  0  0  0  0  0  0  0  0
    5.7840   -1.9419   13.7948 O   0  0  0  0  0  0  0  0  0  0  0  0
    4.8377   -2.1520   13.8286 H   0  0  0  0  0  0  0  0  0  0  0  0
    5.7069   -1.6319   16.1196 C   0  0  0  0  0  0  0  0  0  0  0  0
    2.8385   -3.9991   16.1367 C   0  0  0  0  0  0  0  0  0  0  0  0
    3.5256   -5.2798   16.7032 C   0  0  0  0  0  0  0  0  0  0  0  0
    2.6854   -6.5149   16.4324 C   0  0  0  0  0  0  0  0  0  0  0  0
    2.3892   -6.6123   14.9460 C   0  0  0  0  0  0  0  0  0  0  0  0
    1.6727   -5.3456   14.4543 C   0  0  0  0  0  0  0  0  0  0  0  0
    2.6056   -4.1037   14.6215 C   0  0  0  0  0  0  0  0  0  0  0  0
    5.0438   -2.9044   15.8175 N   0  0  0  0  0  0  0  0  0  0  0  0
    5.7639   -4.0732   16.3690 C   0  0  0  0  0  0  0  0  0  0  0  0
    4.9452   -5.3690   16.1048 C   0  0  0  0  0  0  0  0  0  0  0  0
    3.7316   -2.7923   16.4969 C   0  0  0  0  0  0  0  0  0  0  0  0
    7.0896   -4.2264   15.6767 C   0  0  0  0  0  0  0  0  0  0  0  0
    8.0907   -4.3187   16.5897 N   0  0  0  0  0  0  0  0  0  0  0  0
    7.1464   -4.3247   14.4340 O   0  0  0  0  0  0  0  0  0  0  0  0
    7.8418   -4.2893   17.5418 H   0  0  0  0  0  0  0  0  0  0  0  0
    9.5294   -4.4602   16.2625 C   0  0  0  0  0  0  0  0  0  0  0  0
    9.7593   -5.5089   15.1886 C   0  0  0  0  0  0  0  0  0  0  0  0
   10.2883   -4.9058   17.5499 C   0  0  0  0  0  0  0  0  0  0  0  0
    9.9927   -3.0809   15.7135 C   0  0  0  0  0  0  0  0  0  0  0  0
    5.3584    0.3495   14.4909 C   0  0  0  0  0  0  0  0  0  0  0  0
    5.7515    0.6739   13.1275 N   0  0  0  0  0  0  0  0  0  0  0  0
    6.8604    1.4152   12.9286 C   0  0  0  0  0  0  0  0  0  0  0  0
    7.5413    1.8463   13.8701 O   0  0  0  0  0  0  0  0  0  0  0  0
    5.2171    0.3577   12.3636 H   0  0  0  0  0  0  0  0  0  0  0  0
    7.1637    1.7290   11.5506 C   0  0  0  0  0  0  0  0  0  0  0  0
    7.6748    0.7247   10.6974 C   0  0  0  0  0  0  0  0  0  0  0  0
    8.0124    0.9879    9.3745 C   0  0  0  0  0  0  0  0  0  0  0  0
    7.8086    2.2658    8.8862 C   0  0  0  0  0  0  0  0  0  0  0  0
    7.3150    3.2722    9.7295 C   0  0  0  0  0  0  0  0  0  0  0  0
    6.9602    3.0255   11.0581 C   0  0  0  0  0  0  0  0  0  0  0  0
    7.2615    4.5676    9.2834 O   0  0  0  0  0  0  0  0  0  0  0  0
    6.4602    4.1640   11.9038 C   0  0  0  0  0  0  0  0  0  0  0  0
    7.4928    4.7681    8.3978 H   0  0  0  0  0  0  0  0  0  0  0  0
    3.8594    0.2813   14.4695 C   0  0  0  0  0  0  0  0  0  0  0  0
    3.3045   -0.3533   12.8748 S   0  0  0  0  0  0  0  0  0  0  0  0
    1.9417    0.6155   12.4577 C   0  0  0  0  0  0  0  0  0  0  0  0
    0.6990    0.1165   12.8253 C   0  0  0  0  0  0  0  0  0  0  0  0
   -0.4187    0.8521   12.4801 C   0  0  0  0  0  0  0  0  0  0  0  0
   -0.2814    2.0581   11.7856 C   0  0  0  0  0  0  0  0  0  0  0  0
    0.9760    2.5540   11.4262 C   0  0  0  0  0  0  0  0  0  0  0  0
    2.1014    1.8134   11.7776 C   0  0  0  0  0  0  0  0  0  0  0  0
  5  6  1  0  0  0
  5 10  1  0  0  0
  5 14  1  0  0  0
  6  7  1  0  0  0
  6 13  1  0  0  0
  7  8  1  0  0  0
  8  9  1  0  0  0
  9 10  1  0  0  0
 11 12  1  0  0  0
 11 14  1  0  0  0
 11  4  1  0  0  0
 12 13  1  0  0  0
 12 15  1  0  0  0
 15 16  1  0  0  0
 15 17  2  0  0  0
 16 19  1  0  0  0
 19 20  1  0  0  0
 19 21  1  0  0  0
 19 22  1  0  0  0
  4  1  1  0  0  0
  1 23  1  0  0  0
  1  2  1  0  0  0
 23 24  1  0  0  0
 23 37  1  0  0  0
 24 25  1  0  0  0
 37 38  1  0  0  0
 25 26  2  0  0  0
 25 28  1  0  0  0
 28 29  2  0  0  0
 28 33  1  0  0  0
 29 30  1  0  0  0
 30 31  2  0  0  0
 31 32  1  0  0  0
 32 33  2  0  0  0
 32 34  1  0  0  0
 33 35  1  0  0  0
 38 39  1  0  0  0
 39 40  2  0  0  0
 39 44  1  0  0  0
 40 41  1  0  0  0
 41 42  2  0  0  0
 42 43  1  0  0  0
 43 44  2  0  0  0
 16 18  1  0  0  0
  2  3  1  0  0  0
 24 27  1  0  0  0
 34 36  1  0  0  0
M  END
> <minimizedAffinity>
-9.91349

$$$$
1OHR_1UN_A_201


 44 47  0  0  0  0  0  0  0  0999 V2000
    5.6154   -0.1302   14.3393 C   0  0  0  0  0  0  0  0  0  0  0  0
    6.1189    0.9455   15.1406 O   0  0  0  0  0  0  0  0  0  0  0  0
    7.0531    1.0972   14.9280 H   0  0  0  0  0  0  0  0  0  0  0  0
    6.4872   -1.3346   14.7256 C   0  0  0  0  0  0  0  0  0  0  0  0
    3.2943   -2.9433   15.7497 C   0  0  0  0  0  0  0  0  0  0  0  0
    3.8189   -4.0006   16.7695 C   0  0  0  0  0  0  0  0  0  0  0  0
    2.7729   -5.0685   17.0347 C   0  0  0  0  0  0  0  0  0  0  0  0
    2.3315   -5.6856   15.7190 C   0  0  0  0  0  0  0  0  0  0  0  0
    1.7826   -4.6062   14.7739 C   0  0  0  0  0  0  0  0  0  0  0  0
    2.9114   -3.5896   14.4093 C   0  0  0  0  0  0  0  0  0  0  0  0
    5.6068   -2.4806   14.9737 N   0  0  0  0  0  0  0  0  0  0  0  0
    6.1800   -3.4488   15.9342 C   0  0  0  0  0  0  0  0  0  0  0  0
    5.1463   -4.5729   16.2295 C   0  0  0  0  0  0  0  0  0  0  0  0
    4.3958   -1.8753   15.5766 C   0  0  0  0  0  0  0  0  0  0  0  0
    7.3965   -4.0986   15.3357 C   0  0  0  0  0  0  0  0  0  0  0  0
    8.3135   -4.3634   16.3020 N   0  0  0  0  0  0  0  0  0  0  0  0
    7.4278   -4.3851   14.1216 O   0  0  0  0  0  0  0  0  0  0  0  0
    8.0801   -4.1240   17.2280 H   0  0  0  0  0  0  0  0  0  0  0  0
    9.6387   -4.9851   16.0691 C   0  0  0  0  0  0  0  0  0  0  0  0
   10.3531   -4.3551   14.8864 C   0  0  0  0  0  0  0  0  0  0  0  0
    9.4279   -6.4993   15.7617 C   0  0  0  0  0  0  0  0  0  0  0  0
   10.4787   -4.7217   17.3512 C   0  0  0  0  0  0  0  0  0  0  0  0
    5.6531    0.2502   12.8568 C   0  0  0  0  0  0  0  0  0  0  0  0
    4.3319    0.8025   12.5953 N   0  0  0  0  0  0  0  0  0  0  0  0
    3.3591   -0.0192   12.1513 C   0  0  0  0  0  0  0  0  0  0  0  0
    3.5610   -1.2233   11.9387 O   0  0  0  0  0  0  0  0  0  0  0  0
    4.1517    1.7595   12.7399 H   0  0  0  0  0  0  0  0  0  0  0  0
    2.0868    0.6096   11.8769 C   0  0  0  0  0  0  0  0  0  0  0  0
    1.9403    1.4302   10.7355 C   0  0  0  0  0  0  0  0  0  0  0  0
    0.7461    2.0822   10.4490 C   0  0  0  0  0  0  0  0  0  0  0  0
   -0.3283    1.8885   11.2983 C   0  0  0  0  0  0  0  0  0  0  0  0
   -0.1880    1.0873   12.4410 C   0  0  0  0  0  0  0  0  0  0  0  0
    0.9999    0.4156   12.7407 C   0  0  0  0  0  0  0  0  0  0  0  0
   -1.2064    1.0245   13.3570 O   0  0  0  0  0  0  0  0  0  0  0  0
    1.0771   -0.4060   13.9978 C   0  0  0  0  0  0  0  0  0  0  0  0
   -2.0166    1.4636   13.1875 H   0  0  0  0  0  0  0  0  0  0  0  0
    6.6213    1.3309   12.4736 C   0  0  0  0  0  0  0  0  0  0  0  0
    6.0465    2.1563   10.9763 S   0  0  0  0  0  0  0  0  0  0  0  0
    7.1345    3.4727   10.7456 C   0  0  0  0  0  0  0  0  0  0  0  0
    7.6339    3.6375    9.4604 C   0  0  0  0  0  0  0  0  0  0  0  0
    8.5328    4.6647    9.2450 C   0  0  0  0  0  0  0  0  0  0  0  0
    8.9124    5.5011   10.2995 C   0  0  0  0  0  0  0  0  0  0  0  0
    8.3978    5.3295   11.5885 C   0  0  0  0  0  0  0  0  0  0  0  0
    7.4896    4.2962   11.8032 C   0  0  0  0  0  0  0  0  0  0  0  0
  5  6  1  0  0  0
  5 10  1  0  0  0
  5 14  1  0  0  0
  6  7  1  0  0  0
  6 13  1  0  0  0
  7  8  1  0  0  0
  8  9  1  0  0  0
  9 10  1  0  0  0
 11 12  1  0  0  0
 11 14  1  0  0  0
 11  4  1  0  0  0
 12 13  1  0  0  0
 12 15  1  0  0  0
 15 16  1  0  0  0
 15 17  2  0  0  0
 16 19  1  0  0  0
 19 20  1  0  0  0
 19 21  1  0  0  0
 19 22  1  0  0  0
  4  1  1  0  0  0
  1 23  1  0  0  0
  1  2  1  0  0  0
 23 24  1  0  0  0
 23 37  1  0  0  0
 24 25  1  0  0  0
 37 38  1  0  0  0
 25 26  2  0  0  0
 25 28  1  0  0  0
 28 29  2  0  0  0
 28 33  1  0  0  0
 29 30  1  0  0  0
 30 31  2  0  0  0
 31 32  1  0  0  0
 32 33  2  0  0  0
 32 34  1  0  0  0
 33 35  1  0  0  0
 38 39  1  0  0  0
 39 40  2  0  0  0
 39 44  1  0  0  0
 40 41  1  0  0  0
 41 42  2  0  0  0
 42 43  1  0  0  0
 43 44  2  0  0  0
 16 18  1  0  0  0
  2  3  1  0  0  0
 24 27  1  0  0  0
 34 36  1  0  0  0
M  END
> <minimizedAffinity>
-9.49542

$$$$
1OHR_1UN_A_201


 44 47  0  0  0  0  0  0  0  0999 V2000
    6.2727   -0.2475   14.0447 C   0  0  0  0  0  0  0  0  0  0  0  0
    5.1450    0.3187   14.7233 O   0  0  0  0  0  0  0  0  0  0  0  0
    4.4344   -0.3396   14.7745 H   0  0  0  0  0  0  0  0  0  0  0  0
    5.7365   -0.6120   12.6520 C   0  0  0  0  0  0  0  0  0  0  0  0
    2.0389   -0.8621   12.3406 C   0  0  0  0  0  0  0  0  0  0  0  0
    1.7909    0.0603   11.1074 C   0  0  0  0  0  0  0  0  0  0  0  0
    0.3303    0.4635   11.0126 C   0  0  0  0  0  0  0  0  0  0  0  0
   -0.1080    1.0972   12.3214 C   0  0  0  0  0  0  0  0  0  0  0  0
    0.1163    0.1281   13.4920 C   0  0  0  0  0  0  0  0  0  0  0  0
    1.6409   -0.1716   13.6543 C   0  0  0  0  0  0  0  0  0  0  0  0
    4.3828   -0.0638   12.5210 N   0  0  0  0  0  0  0  0  0  0  0  0
    4.2304    0.8163   11.3416 C   0  0  0  0  0  0  0  0  0  0  0  0
    2.7476    1.2668   11.2087 C   0  0  0  0  0  0  0  0  0  0  0  0
    3.5304   -1.2612   12.3322 C   0  0  0  0  0  0  0  0  0  0  0  0
    5.0652    2.0538   11.5198 C   0  0  0  0  0  0  0  0  0  0  0  0
    6.2419    1.9291   10.8533 N   0  0  0  0  0  0  0  0  0  0  0  0
    4.6154    3.0355   12.1452 O   0  0  0  0  0  0  0  0  0  0  0  0
    6.3936    1.0962   10.3508 H   0  0  0  0  0  0  0  0  0  0  0  0
    7.3152    2.9508   10.8245 C   0  0  0  0  0  0  0  0  0  0  0  0
    6.7585    4.3414   10.5748 C   0  0  0  0  0  0  0  0  0  0  0  0
    8.2984    2.6035    9.6649 C   0  0  0  0  0  0  0  0  0  0  0  0
    7.9795    2.9297   12.2305 C   0  0  0  0  0  0  0  0  0  0  0  0
    6.8418   -1.4194   14.8489 C   0  0  0  0  0  0  0  0  0  0  0  0
    5.8891   -2.4984   14.6323 N   0  0  0  0  0  0  0  0  0  0  0  0
    5.0110   -2.7978   15.6110 C   0  0  0  0  0  0  0  0  0  0  0  0
    5.0049   -2.1981   16.6956 O   0  0  0  0  0  0  0  0  0  0  0  0
    5.8859   -3.0010   13.7858 H   0  0  0  0  0  0  0  0  0  0  0  0
    4.1241   -3.9059   15.3376 C   0  0  0  0  0  0  0  0  0  0  0  0
    2.8250   -3.6594   14.8385 C   0  0  0  0  0  0  0  0  0  0  0  0
    1.9256   -4.6909   14.5924 C   0  0  0  0  0  0  0  0  0  0  0  0
    2.3391   -5.9912   14.8192 C   0  0  0  0  0  0  0  0  0  0  0  0
    3.6216   -6.2443   15.3278 C   0  0  0  0  0  0  0  0  0  0  0  0
    4.5432   -5.2229   15.5717 C   0  0  0  0  0  0  0  0  0  0  0  0
    3.9683   -7.5192   15.6946 O   0  0  0  0  0  0  0  0  0  0  0  0
    5.8904   -5.5752   16.1394 C   0  0  0  0  0  0  0  0  0  0  0  0
    3.3736   -8.2278   15.5454 H   0  0  0  0  0  0  0  0  0  0  0  0
    8.1660   -1.9572   14.3911 C   0  0  0  0  0  0  0  0  0  0  0  0
    9.2063   -2.3051   15.8231 S   0  0  0  0  0  0  0  0  0  0  0  0
    9.3826   -4.0192   15.8418 C   0  0  0  0  0  0  0  0  0  0  0  0
    9.1792   -4.6699   14.6321 C   0  0  0  0  0  0  0  0  0  0  0  0
    9.2825   -6.0478   14.6161 C   0  0  0  0  0  0  0  0  0  0  0  0
    9.5850   -6.7452   15.7898 C   0  0  0  0  0  0  0  0  0  0  0  0
    9.7942   -6.0785   17.0013 C   0  0  0  0  0  0  0  0  0  0  0  0
    9.6931   -4.6898   17.0152 C   0  0  0  0  0  0  0  0  0  0  0  0
  5  6  1  0  0  0
  5 10  1  0  0  0
  5 14  1  0  0  0
  6  7  1  0  0  0
  6 13  1  0  0  0
  7  8  1  0  0  0
  8  9  1  0  0  0
  9 10  1  0  0  0
 11 12  1  0  0  0
 11 14  1  0  0  0
 11  4  1  0  0  0
 12 13  1  0  0  0
 12 15  1  0  0  0
 15 16  1  0  0  0
 15 17  2  0  0  0
 16 19  1  0  0  0
 19 20  1  0  0  0
 19 21  1  0  0  0
 19 22  1  0  0  0
  4  1  1  0  0  0
  1 23  1  0  0  0
  1  2  1  0  0  0
 23 24  1  0  0  0
 23 37  1  0  0  0
 24 25  1  0  0  0
 37 38  1  0  0  0
 25 26  2  0  0  0
 25 28  1  0  0  0
 28 29  2  0  0  0
 28 33  1  0  0  0
 29 30  1  0  0  0
 30 31  2  0  0  0
 31 32  1  0  0  0
 32 33  2  0  0  0
 32 34  1  0  0  0
 33 35  1  0  0  0
 38 39  1  0  0  0
 39 40  2  0  0  0
 39 44  1  0  0  0
 40 41  1  0  0  0
 41 42  2  0  0  0
 42 43  1  0  0  0
 43 44  2  0  0  0
 16 18  1  0  0  0
  2  3  1  0  0  0
 24 27  1  0  0  0
 34 36  1  0  0  0
M  END
> <minimizedAffinity>
-9.11444

$$$$
1OHR_1UN_A_201


 44 47  0  0  0  0  0  0  0  0999 V2000
    6.0582    0.1408   13.9329 C   0  0  0  0  0  0  0  0  0  0  0  0
    6.0398    0.8942   15.1514 O   0  0  0  0  0  0  0  0  0  0  0  0
    6.4868    0.3906   15.8497 H   0  0  0  0  0  0  0  0  0  0  0  0
    5.3013   -1.1523   14.2721 C   0  0  0  0  0  0  0  0  0  0  0  0
    2.3605    0.6363   12.8635 C   0  0  0  0  0  0  0  0  0  0  0  0
    1.2051   -0.0244   13.6770 C   0  0  0  0  0  0  0  0  0  0  0  0
   -0.1390    0.2253   13.0168 C   0  0  0  0  0  0  0  0  0  0  0  0
   -0.0908   -0.2430   11.5728 C   0  0  0  0  0  0  0  0  0  0  0  0
    1.0338    0.4735   10.8103 C   0  0  0  0  0  0  0  0  0  0  0  0
    2.4204    0.0994   11.4251 C   0  0  0  0  0  0  0  0  0  0  0  0
    3.9664   -1.0766   13.6703 N   0  0  0  0  0  0  0  0  0  0  0  0
    2.9284   -1.7419   14.4880 C   0  0  0  0  0  0  0  0  0  0  0  0
    1.5298   -1.5238   13.8433 C   0  0  0  0  0  0  0  0  0  0  0  0
    3.6769    0.3761   13.6273 C   0  0  0  0  0  0  0  0  0  0  0  0
    3.1832   -3.2231   14.5257 C   0  0  0  0  0  0  0  0  0  0  0  0
    2.6829   -3.7589   15.6690 N   0  0  0  0  0  0  0  0  0  0  0  0
    3.7169   -3.7979   13.5552 O   0  0  0  0  0  0  0  0  0  0  0  0
    2.2274   -3.1505   16.2948 H   0  0  0  0  0  0  0  0  0  0  0  0
    2.7702   -5.1895   16.0468 C   0  0  0  0  0  0  0  0  0  0  0  0
    4.0843   -5.8071   15.6025 C   0  0  0  0  0  0  0  0  0  0  0  0
    1.6083   -5.9582   15.3463 C   0  0  0  0  0  0  0  0  0  0  0  0
    2.7012   -5.2386   17.5997 C   0  0  0  0  0  0  0  0  0  0  0  0
    7.4986   -0.0563   13.4530 C   0  0  0  0  0  0  0  0  0  0  0  0
    7.7736   -1.4617   13.7138 N   0  0  0  0  0  0  0  0  0  0  0  0
    8.3104   -1.8107   14.9007 C   0  0  0  0  0  0  0  0  0  0  0  0
    8.5966   -0.9708   15.7659 O   0  0  0  0  0  0  0  0  0  0  0  0
    7.5713   -2.1458   13.0353 H   0  0  0  0  0  0  0  0  0  0  0  0
    8.5911   -3.2185   15.0700 C   0  0  0  0  0  0  0  0  0  0  0  0
    9.6904   -3.8013   14.3995 C   0  0  0  0  0  0  0  0  0  0  0  0
    9.9794   -5.1572   14.5053 C   0  0  0  0  0  0  0  0  0  0  0  0
    9.1770   -5.9386   15.3169 C   0  0  0  0  0  0  0  0  0  0  0  0
    8.0756   -5.3716   15.9749 C   0  0  0  0  0  0  0  0  0  0  0  0
    7.7747   -4.0099   15.8898 C   0  0  0  0  0  0  0  0  0  0  0  0
    7.1977   -6.1792   16.6512 O   0  0  0  0  0  0  0  0  0  0  0  0
    6.5622   -3.4837   16.6069 C   0  0  0  0  0  0  0  0  0  0  0  0
    7.3691   -7.0973   16.7272 H   0  0  0  0  0  0  0  0  0  0  0  0
    7.7403    0.1326   11.9840 C   0  0  0  0  0  0  0  0  0  0  0  0
    6.4409    1.1701   11.2847 S   0  0  0  0  0  0  0  0  0  0  0  0
    7.2018    2.6820   10.9605 C   0  0  0  0  0  0  0  0  0  0  0  0
    7.6912    2.8587    9.6731 C   0  0  0  0  0  0  0  0  0  0  0  0
    8.3346    4.0473    9.3856 C   0  0  0  0  0  0  0  0  0  0  0  0
    8.4758    5.0283   10.3722 C   0  0  0  0  0  0  0  0  0  0  0  0
    7.9730    4.8418   11.6639 C   0  0  0  0  0  0  0  0  0  0  0  0
    7.3220    3.6450   11.9511 C   0  0  0  0  0  0  0  0  0  0  0  0
  5  6  1  0  0  0
  5 10  1  0  0  0
  5 14  1  0  0  0
  6  7  1  0  0  0
  6 13  1  0  0  0
  7  8  1  0  0  0
  8  9  1  0  0  0
  9 10  1  0  0  0
 11 12  1  0  0  0
 11 14  1  0  0  0
 11  4  1  0  0  0
 12 13  1  0  0  0
 12 15  1  0  0  0
 15 16  1  0  0  0
 15 17  2  0  0  0
 16 19  1  0  0  0
 19 20  1  0  0  0
 19 21  1  0  0  0
 19 22  1  0  0  0
  4  1  1  0  0  0
  1 23  1  0  0  0
  1  2  1  0  0  0
 23 24  1  0  0  0
 23 37  1  0  0  0
 24 25  1  0  0  0
 37 38  1  0  0  0
 25 26  2  0  0  0
 25 28  1  0  0  0
 28 29  2  0  0  0
 28 33  1  0  0  0
 29 30  1  0  0  0
 30 31  2  0  0  0
 31 32  1  0  0  0
 32 33  2  0  0  0
 32 34  1  0  0  0
 33 35  1  0  0  0
 38 39  1  0  0  0
 39 40  2  0  0  0
 39 44  1  0  0  0
 40 41  1  0  0  0
 41 42  2  0  0  0
 42 43  1  0  0  0
 43 44  2  0  0  0
 16 18  1  0  0  0
  2  3  1  0  0  0
 24 27  1  0  0  0
 34 36  1  0  0  0
M  END
> <minimizedAffinity>
-9.08086

$$$$
1OHR_1UN_A_201


 44 47  0  0  0  0  0  0  0  0999 V2000
    3.9638   -1.7839   13.6207 C   0  0  0  0  0  0  0  0  0  0  0  0
    4.6126   -2.9732   13.1543 O   0  0  0  0  0  0  0  0  0  0  0  0
    4.7094   -3.5983   13.8896 H   0  0  0  0  0  0  0  0  0  0  0  0
    4.9021   -1.2387   14.7081 C   0  0  0  0  0  0  0  0  0  0  0  0
    7.5332   -3.4916   16.0620 C   0  0  0  0  0  0  0  0  0  0  0  0
    8.8119   -2.6455   15.7754 C   0  0  0  0  0  0  0  0  0  0  0  0
   10.0624   -3.5026   15.8552 C   0  0  0  0  0  0  0  0  0  0  0  0
    9.9221   -4.6943   14.9241 C   0  0  0  0  0  0  0  0  0  0  0  0
    8.6737   -5.5148   15.2819 C   0  0  0  0  0  0  0  0  0  0  0  0
    7.3877   -4.6540   15.0677 C   0  0  0  0  0  0  0  0  0  0  0  0
    6.1640   -1.9826   14.6436 N   0  0  0  0  0  0  0  0  0  0  0  0
    7.3271   -1.1173   14.3482 C   0  0  0  0  0  0  0  0  0  0  0  0
    8.6358   -1.9559   14.4063 C   0  0  0  0  0  0  0  0  0  0  0  0
    6.3206   -2.5373   16.0088 C   0  0  0  0  0  0  0  0  0  0  0  0
    7.2069   -0.5621   12.9562 C   0  0  0  0  0  0  0  0  0  0  0  0
    7.5273    0.7576   12.9453 N   0  0  0  0  0  0  0  0  0  0  0  0
    6.9229   -1.3108   11.9991 O   0  0  0  0  0  0  0  0  0  0  0  0
    7.7974    1.1668   13.7990 H   0  0  0  0  0  0  0  0  0  0  0  0
    7.5014    1.6290   11.7466 C   0  0  0  0  0  0  0  0  0  0  0  0
    7.7909    3.0772   12.1003 C   0  0  0  0  0  0  0  0  0  0  0  0
    6.0784    1.5567   11.1128 C   0  0  0  0  0  0  0  0  0  0  0  0
    8.6282    1.1154   10.8059 C   0  0  0  0  0  0  0  0  0  0  0  0
    2.5424   -2.1047   14.0901 C   0  0  0  0  0  0  0  0  0  0  0  0
    2.7336   -2.9631   15.2500 N   0  0  0  0  0  0  0  0  0  0  0  0
    2.5416   -4.2912   15.1157 C   0  0  0  0  0  0  0  0  0  0  0  0
    2.1866   -4.7995   14.0426 O   0  0  0  0  0  0  0  0  0  0  0  0
    2.9985   -2.5808   16.1177 H   0  0  0  0  0  0  0  0  0  0  0  0
    2.7117   -5.0722   16.3200 C   0  0  0  0  0  0  0  0  0  0  0  0
    2.7223   -4.4294   17.5787 C   0  0  0  0  0  0  0  0  0  0  0  0
    2.9163   -5.1348   18.7611 C   0  0  0  0  0  0  0  0  0  0  0  0
    3.0722   -6.5073   18.6894 C   0  0  0  0  0  0  0  0  0  0  0  0
    3.0772   -7.1519   17.4436 C   0  0  0  0  0  0  0  0  0  0  0  0
    2.8736   -6.4627   16.2454 C   0  0  0  0  0  0  0  0  0  0  0  0
    3.3855   -8.4858   17.3693 O   0  0  0  0  0  0  0  0  0  0  0  0
    2.9166   -7.2234   14.9490 C   0  0  0  0  0  0  0  0  0  0  0  0
    3.5284   -8.9780   18.1537 H   0  0  0  0  0  0  0  0  0  0  0  0
    1.7281   -0.9438   14.5817 C   0  0  0  0  0  0  0  0  0  0  0  0
    0.3696   -0.6290   13.4375 S   0  0  0  0  0  0  0  0  0  0  0  0
    0.8958    0.6988   12.4732 C   0  0  0  0  0  0  0  0  0  0  0  0
   -0.0943    1.3862   11.7835 C   0  0  0  0  0  0  0  0  0  0  0  0
    0.2945    2.4381   10.9761 C   0  0  0  0  0  0  0  0  0  0  0  0
    1.6453    2.7846   10.8724 C   0  0  0  0  0  0  0  0  0  0  0  0
    2.6332    2.0890   11.5770 C   0  0  0  0  0  0  0  0  0  0  0  0
    2.2396    1.0315   12.3927 C   0  0  0  0  0  0  0  0  0  0  0  0
  5  6  1  0  0  0
  5 10  1  0  0  0
  5 14  1  0  0  0
  6  7  1  0  0  0
  6 13  1  0  0  0
  7  8  1  0  0  0
  8  9  1  0  0  0
  9 10  1  0  0  0
 11 12  1  0  0  0
 11 14  1  0  0  0
 11  4  1  0  0  0
 12 13  1  0  0  0
 12 15  1  0  0  0
 15 16  1  0  0  0
 15 17  2  0  0  0
 16 19  1  0  0  0
 19 20  1  0  0  0
 19 21  1  0  0  0
 19 22  1  0  0  0
  4  1  1  0  0  0
  1 23  1  0  0  0
  1  2  1  0  0  0
 23 24  1  0  0  0
 23 37  1  0  0  0
 24 25  1  0  0  0
 37 38  1  0  0  0
 25 26  2  0  0  0
 25 28  1  0  0  0
 28 29  2  0  0  0
 28 33  1  0  0  0
 29 30  1  0  0  0
 30 31  2  0  0  0
 31 32  1  0  0  0
 32 33  2  0  0  0
 32 34  1  0  0  0
 33 35  1  0  0  0
 38 39  1  0  0  0
 39 40  2  0  0  0
 39 44  1  0  0  0
 40 41  1  0  0  0
 41 42  2  0  0  0
 42 43  1  0  0  0
 43 44  2  0  0  0
 16 18  1  0  0  0
  2  3  1  0  0  0
 24 27  1  0  0  0
 34 36  1  0  0  0
M  END
> <minimizedAffinity>
-8.93324

$$$$
1OHR_1UN_A_201


 44 47  0  0  0  0  0  0  0  0999 V2000
    6.1234   -1.2263   13.5392 C   0  0  0  0  0  0  0  0  0  0  0  0
    7.1667   -0.7064   14.3722 O   0  0  0  0  0  0  0  0  0  0  0  0
    8.0254   -0.8578   13.9473 H   0  0  0  0  0  0  0  0  0  0  0  0
    6.4405   -2.7247   13.4207 C   0  0  0  0  0  0  0  0  0  0  0  0
    3.2881   -3.7303   15.1186 C   0  0  0  0  0  0  0  0  0  0  0  0
    3.6572   -3.4398   16.6061 C   0  0  0  0  0  0  0  0  0  0  0  0
    2.7006   -4.1425   17.5527 C   0  0  0  0  0  0  0  0  0  0  0  0
    2.6666   -5.6266   17.2319 C   0  0  0  0  0  0  0  0  0  0  0  0
    2.2534   -5.8534   15.7698 C   0  0  0  0  0  0  0  0  0  0  0  0
    3.3197   -5.2352   14.8100 C   0  0  0  0  0  0  0  0  0  0  0  0
    5.6561   -3.4433   14.4298 N   0  0  0  0  0  0  0  0  0  0  0  0
    6.0769   -3.1327   15.8137 C   0  0  0  0  0  0  0  0  0  0  0  0
    5.1308   -3.8425   16.8238 C   0  0  0  0  0  0  0  0  0  0  0  0
    4.2756   -2.9427   14.2306 C   0  0  0  0  0  0  0  0  0  0  0  0
    7.4665   -3.6549   16.0515 C   0  0  0  0  0  0  0  0  0  0  0  0
    7.4262   -4.9737   16.3735 N   0  0  0  0  0  0  0  0  0  0  0  0
    8.4580   -2.9183   15.8737 O   0  0  0  0  0  0  0  0  0  0  0  0
    6.5434   -5.4088   16.3983 H   0  0  0  0  0  0  0  0  0  0  0  0
    8.6095   -5.8081   16.6903 C   0  0  0  0  0  0  0  0  0  0  0  0
    9.5436   -5.1096   17.6627 C   0  0  0  0  0  0  0  0  0  0  0  0
    9.3932   -6.0776   15.3693 C   0  0  0  0  0  0  0  0  0  0  0  0
    8.0678   -7.0996   17.3666 C   0  0  0  0  0  0  0  0  0  0  0  0
    6.0759   -0.4653   12.2116 C   0  0  0  0  0  0  0  0  0  0  0  0
    4.6643   -0.1658   12.0209 N   0  0  0  0  0  0  0  0  0  0  0  0
    3.9898    0.4508   13.0127 C   0  0  0  0  0  0  0  0  0  0  0  0
    4.5286    0.7497   14.0880 O   0  0  0  0  0  0  0  0  0  0  0  0
    4.2097   -0.4091   11.1822 H   0  0  0  0  0  0  0  0  0  0  0  0
    2.5842    0.6788   12.7649 C   0  0  0  0  0  0  0  0  0  0  0  0
    1.6325   -0.2785   13.1841 C   0  0  0  0  0  0  0  0  0  0  0  0
    0.2734   -0.1183   12.9382 C   0  0  0  0  0  0  0  0  0  0  0  0
   -0.1462    1.0294   12.2903 C   0  0  0  0  0  0  0  0  0  0  0  0
    0.7923    1.9780   11.8582 C   0  0  0  0  0  0  0  0  0  0  0  0
    2.1607    1.8406   12.1047 C   0  0  0  0  0  0  0  0  0  0  0  0
    0.3852    3.0336   11.0836 O   0  0  0  0  0  0  0  0  0  0  0  0
    3.1049    2.8907   11.5880 C   0  0  0  0  0  0  0  0  0  0  0  0
   -0.5253    3.1553   10.8986 H   0  0  0  0  0  0  0  0  0  0  0  0
    6.7740    0.8630   12.1829 C   0  0  0  0  0  0  0  0  0  0  0  0
    7.6532    1.0517   10.6193 S   0  0  0  0  0  0  0  0  0  0  0  0
    8.0139    2.7332   10.5092 C   0  0  0  0  0  0  0  0  0  0  0  0
    7.8840    3.4663   11.6814 C   0  0  0  0  0  0  0  0  0  0  0  0
    8.1358    4.8238   11.6238 C   0  0  0  0  0  0  0  0  0  0  0  0
    8.5102    5.4201   10.4156 C   0  0  0  0  0  0  0  0  0  0  0  0
    8.6440    4.6704    9.2425 C   0  0  0  0  0  0  0  0  0  0  0  0
    8.3932    3.3022    9.3028 C   0  0  0  0  0  0  0  0  0  0  0  0
  5  6  1  0  0  0
  5 10  1  0  0  0
  5 14  1  0  0  0
  6  7  1  0  0  0
  6 13  1  0  0  0
  7  8  1  0  0  0
  8  9  1  0  0  0
  9 10  1  0  0  0
 11 12  1  0  0  0
 11 14  1  0  0  0
 11  4  1  0  0  0
 12 13  1  0  0  0
 12 15  1  0  0  0
 15 16  1  0  0  0
 15 17  2  0  0  0
 16 19  1  0  0  0
 19 20  1  0  0  0
 19 21  1  0  0  0
 19 22  1  0  0  0
  4  1  1  0  0  0
  1 23  1  0  0  0
  1  2  1  0  0  0
 23 24  1  0  0  0
 23 37  1  0  0  0
 24 25  1  0  0  0
 37 38  1  0  0  0
 25 26  2  0  0  0
 25 28  1  0  0  0
 28 29  2  0  0  0
 28 33  1  0  0  0
 29 30  1  0  0  0
 30 31  2  0  0  0
 31 32  1  0  0  0
 32 33  2  0  0  0
 32 34  1  0  0  0
 33 35  1  0  0  0
 38 39  1  0  0  0
 39 40  2  0  0  0
 39 44  1  0  0  0
 40 41  1  0  0  0
 41 42  2  0  0  0
 42 43  1  0  0  0
 43 44  2  0  0  0
 16 18  1  0  0  0
  2  3  1  0  0  0
 24 27  1  0  0  0
 34 36  1  0  0  0
M  END
> <minimizedAffinity>
-8.84735

$$$$
