5EEN_5OG_B_804


 25 26  0  0  0  0  0  0  0  0999 V2000
   29.2230  100.3317   31.7214 C   0  0  0  0  0  0  0  0  0  0  0  0
   30.0389   99.2308   31.9341 C   0  0  0  0  0  0  0  0  0  0  0  0
   29.4641  101.4431   32.5313 C   0  0  0  0  0  0  0  0  0  0  0  0
   30.4646  101.4234   33.4920 C   0  0  0  0  0  0  0  0  0  0  0  0
   31.2510  100.3039   33.6650 C   0  0  0  0  0  0  0  0  0  0  0  0
   31.0264   99.1698   32.8812 C   0  0  0  0  0  0  0  0  0  0  0  0
   32.0906   97.7755   33.1263 S   0  0  0  0  0  0  0  0  0  0  0  0
   32.4472   96.9806   31.7526 O   0  0  0  0  0  0  0  0  0  0  0  0
   33.5853   98.2588   33.4823 O   0  0  0  0  0  0  0  0  0  0  0  0
   31.6527   96.7907   34.3470 N   0  0  0  0  0  0  0  0  0  0  0  0
   30.6882   96.6745   34.5069 H   0  0  0  0  0  0  0  0  0  0  0  0
   32.5331   96.0914   35.1933 C   0  0  0  0  0  0  0  0  0  0  0  0
   32.2638   95.9319   36.5682 C   0  0  0  0  0  0  0  0  0  0  0  0
   33.1251   95.2224   37.3757 C   0  0  0  0  0  0  0  0  0  0  0  0
   34.2621   94.6278   36.8534 C   0  0  0  0  0  0  0  0  0  0  0  0
   34.5241   94.7544   35.5048 C   0  0  0  0  0  0  0  0  0  0  0  0
   33.6761   95.4632   34.6820 C   0  0  0  0  0  0  0  0  0  0  0  0
   27.8639   99.3371   29.8633 C   0  0  0  0  0  0  0  0  0  0  0  0
   28.1773  100.3077   30.6941 C   0  0  0  0  0  0  0  0  0  0  0  0
   27.0703  100.5834   28.0005 O   0  0  0  0  0  0  0  0  0  0  0  0
   27.0197   99.6024   28.6506 C   0  0  0  0  0  0  0  0  0  0  0  0
   26.1374   98.5215   28.3211 N   0  0  0  0  0  0  0  0  0  0  0  0
   25.3726   98.6703   27.2671 O   0  0  0  0  0  0  0  0  0  0  0  0
   26.1072   97.7010   28.8644 H   0  0  0  0  0  0  0  0  0  0  0  0
   25.5420   99.5363   26.8643 H   0  0  0  0  0  0  0  0  0  0  0  0
 20 21  2  0  0  0
 23 22  1  0  0  0
 21 22  1  0  0  0
 21 18  1  0  0  0
 18 19  2  0  0  0
 19  1  1  0  0  0
 14 15  2  0  0  0
 14 13  1  0  0  0
 15 16  1  0  0  0
 13 12  2  0  0  0
  1  2  2  0  0  0
  1  3  1  0  0  0
  2  6  1  0  0  0
 16 17  2  0  0  0
  3  4  2  0  0  0
  9  7  2  0  0  0
 12 17  1  0  0  0
 12 10  1  0  0  0
  6  7  1  0  0  0
  6  5  2  0  0  0
  4  5  1  0  0  0
 10  7  1  0  0  0
  7  8  2  0  0  0
 22 24  1  0  0  0
 23 25  1  0  0  0
 10 11  1  0  0  0
M  END
> <minimizedAffinity>
-9.52603

$$$$
5EEN_5OG_B_804


 25 26  0  0  0  0  0  0  0  0999 V2000
   29.4989   99.9505   31.1588 C   0  0  0  0  0  0  0  0  0  0  0  0
   30.5616   99.2079   31.6509 C   0  0  0  0  0  0  0  0  0  0  0  0
   29.1311  101.0707   31.9067 C   0  0  0  0  0  0  0  0  0  0  0  0
   29.8011  101.4004   33.0758 C   0  0  0  0  0  0  0  0  0  0  0  0
   30.8535  100.6303   33.5240 C   0  0  0  0  0  0  0  0  0  0  0  0
   31.2373   99.4946   32.8072 C   0  0  0  0  0  0  0  0  0  0  0  0
   32.6173   98.5652   33.4143 S   0  0  0  0  0  0  0  0  0  0  0  0
   32.4202   98.0286   34.9373 O   0  0  0  0  0  0  0  0  0  0  0  0
   32.6929   97.1266   32.6939 O   0  0  0  0  0  0  0  0  0  0  0  0
   34.0696   99.2548   33.1557 N   0  0  0  0  0  0  0  0  0  0  0  0
   34.8655   98.6921   33.2943 H   0  0  0  0  0  0  0  0  0  0  0  0
   34.2858  100.5853   32.7512 C   0  0  0  0  0  0  0  0  0  0  0  0
   34.3024  101.6454   33.6809 C   0  0  0  0  0  0  0  0  0  0  0  0
   34.5408  102.9380   33.2692 C   0  0  0  0  0  0  0  0  0  0  0  0
   34.7945  103.2248   31.9378 C   0  0  0  0  0  0  0  0  0  0  0  0
   34.8067  102.1934   31.0217 C   0  0  0  0  0  0  0  0  0  0  0  0
   34.5670  100.8945   31.4141 C   0  0  0  0  0  0  0  0  0  0  0  0
   27.6162   99.8948   29.5032 C   0  0  0  0  0  0  0  0  0  0  0  0
   28.8200   99.5643   29.9181 C   0  0  0  0  0  0  0  0  0  0  0  0
   27.3611   98.1396   27.9197 O   0  0  0  0  0  0  0  0  0  0  0  0
   26.9459   99.1336   28.3964 C   0  0  0  0  0  0  0  0  0  0  0  0
   25.7078   99.7171   27.9700 N   0  0  0  0  0  0  0  0  0  0  0  0
   25.0536   99.1057   27.0128 O   0  0  0  0  0  0  0  0  0  0  0  0
   25.3630  100.5434   28.3795 H   0  0  0  0  0  0  0  0  0  0  0  0
   25.5455   98.3160   26.7383 H   0  0  0  0  0  0  0  0  0  0  0  0
 20 21  2  0  0  0
 23 22  1  0  0  0
 21 22  1  0  0  0
 21 18  1  0  0  0
 18 19  2  0  0  0
 19  1  1  0  0  0
 14 15  2  0  0  0
 14 13  1  0  0  0
 15 16  1  0  0  0
 13 12  2  0  0  0
  1  2  2  0  0  0
  1  3  1  0  0  0
  2  6  1  0  0  0
 16 17  2  0  0  0
  3  4  2  0  0  0
  9  7  2  0  0  0
 12 17  1  0  0  0
 12 10  1  0  0  0
  6  7  1  0  0  0
  6  5  2  0  0  0
  4  5  1  0  0  0
 10  7  1  0  0  0
  7  8  2  0  0  0
 22 24  1  0  0  0
 23 25  1  0  0  0
 10 11  1  0  0  0
M  END
> <minimizedAffinity>
-8.98097

$$$$
5EEN_5OG_B_804


 25 26  0  0  0  0  0  0  0  0999 V2000
   29.7745  100.2793   32.2076 C   0  0  0  0  0  0  0  0  0  0  0  0
   30.5587   99.1765   32.5103 C   0  0  0  0  0  0  0  0  0  0  0  0
   29.9761  101.4140   32.9959 C   0  0  0  0  0  0  0  0  0  0  0  0
   30.9095  101.4142   34.0221 C   0  0  0  0  0  0  0  0  0  0  0  0
   31.6667  100.2918   34.2838 C   0  0  0  0  0  0  0  0  0  0  0  0
   31.4794   99.1352   33.5235 C   0  0  0  0  0  0  0  0  0  0  0  0
   32.5051   97.7373   33.8846 S   0  0  0  0  0  0  0  0  0  0  0  0
   31.7119   96.3180   33.8315 O   0  0  0  0  0  0  0  0  0  0  0  0
   33.5240   97.4529   32.6701 O   0  0  0  0  0  0  0  0  0  0  0  0
   33.4428   97.9037   35.2055 N   0  0  0  0  0  0  0  0  0  0  0  0
   34.3706   98.2009   35.0636 H   0  0  0  0  0  0  0  0  0  0  0  0
   33.0421   97.6596   36.5323 C   0  0  0  0  0  0  0  0  0  0  0  0
   32.8455   96.3489   37.0141 C   0  0  0  0  0  0  0  0  0  0  0  0
   32.4778   96.1288   38.3231 C   0  0  0  0  0  0  0  0  0  0  0  0
   32.3167   97.1860   39.2037 C   0  0  0  0  0  0  0  0  0  0  0  0
   32.5311   98.4718   38.7521 C   0  0  0  0  0  0  0  0  0  0  0  0
   32.8959   98.7119   37.4453 C   0  0  0  0  0  0  0  0  0  0  0  0
   28.3166   99.1829   30.4867 C   0  0  0  0  0  0  0  0  0  0  0  0
   28.7999  100.2338   31.1133 C   0  0  0  0  0  0  0  0  0  0  0  0
   27.3787   98.4377   28.4329 O   0  0  0  0  0  0  0  0  0  0  0  0
   27.6118   99.3272   29.1691 C   0  0  0  0  0  0  0  0  0  0  0  0
   27.2092  100.6727   28.8810 N   0  0  0  0  0  0  0  0  0  0  0  0
   26.5768  100.8818   27.7521 O   0  0  0  0  0  0  0  0  0  0  0  0
   27.3999  101.4094   29.5056 H   0  0  0  0  0  0  0  0  0  0  0  0
   26.4822  100.0430   27.2742 H   0  0  0  0  0  0  0  0  0  0  0  0
 20 21  2  0  0  0
 23 22  1  0  0  0
 21 22  1  0  0  0
 21 18  1  0  0  0
 18 19  2  0  0  0
 19  1  1  0  0  0
 14 15  2  0  0  0
 14 13  1  0  0  0
 15 16  1  0  0  0
 13 12  2  0  0  0
  1  2  2  0  0  0
  1  3  1  0  0  0
  2  6  1  0  0  0
 16 17  2  0  0  0
  3  4  2  0  0  0
  9  7  2  0  0  0
 12 17  1  0  0  0
 12 10  1  0  0  0
  6  7  1  0  0  0
  6  5  2  0  0  0
  4  5  1  0  0  0
 10  7  1  0  0  0
  7  8  2  0  0  0
 22 24  1  0  0  0
 23 25  1  0  0  0
 10 11  1  0  0  0
M  END
> <minimizedAffinity>
-8.90501

$$$$
5EEN_5OG_B_804


 25 26  0  0  0  0  0  0  0  0999 V2000
   29.8648  100.3807   32.1870 C   0  0  0  0  0  0  0  0  0  0  0  0
   30.7756   99.3568   32.3990 C   0  0  0  0  0  0  0  0  0  0  0  0
   29.9180  101.4486   33.0849 C   0  0  0  0  0  0  0  0  0  0  0  0
   30.8344  101.4613   34.1263 C   0  0  0  0  0  0  0  0  0  0  0  0
   31.7212  100.4189   34.2949 C   0  0  0  0  0  0  0  0  0  0  0  0
   31.6847   99.3283   33.4230 C   0  0  0  0  0  0  0  0  0  0  0  0
   32.8708   98.0365   33.6700 S   0  0  0  0  0  0  0  0  0  0  0  0
   32.6861   97.2451   35.0792 O   0  0  0  0  0  0  0  0  0  0  0  0
   32.5677   96.7938   32.6911 O   0  0  0  0  0  0  0  0  0  0  0  0
   34.4132   98.4606   33.3651 N   0  0  0  0  0  0  0  0  0  0  0  0
   35.0932   97.7506   33.4167 H   0  0  0  0  0  0  0  0  0  0  0  0
   34.8584   99.7540   33.0343 C   0  0  0  0  0  0  0  0  0  0  0  0
   34.5110  100.3632   31.8109 C   0  0  0  0  0  0  0  0  0  0  0  0
   34.9354  101.6399   31.5157 C   0  0  0  0  0  0  0  0  0  0  0  0
   35.6916  102.3651   32.4219 C   0  0  0  0  0  0  0  0  0  0  0  0
   36.0169  101.7906   33.6332 C   0  0  0  0  0  0  0  0  0  0  0  0
   35.6043  100.5134   33.9450 C   0  0  0  0  0  0  0  0  0  0  0  0
   28.2787   99.2807   30.5860 C   0  0  0  0  0  0  0  0  0  0  0  0
   28.9138  100.3249   31.0726 C   0  0  0  0  0  0  0  0  0  0  0  0
   27.5070   98.4126   28.5114 O   0  0  0  0  0  0  0  0  0  0  0  0
   27.6280   99.3348   29.2343 C   0  0  0  0  0  0  0  0  0  0  0  0
   27.1263  100.6338   28.8934 N   0  0  0  0  0  0  0  0  0  0  0  0
   26.5330  100.7629   27.7317 O   0  0  0  0  0  0  0  0  0  0  0  0
   27.2234  101.3977   29.5068 H   0  0  0  0  0  0  0  0  0  0  0  0
   26.5333   99.9089   27.2718 H   0  0  0  0  0  0  0  0  0  0  0  0
 20 21  2  0  0  0
 23 22  1  0  0  0
 21 22  1  0  0  0
 21 18  1  0  0  0
 18 19  2  0  0  0
 19  1  1  0  0  0
 14 15  2  0  0  0
 14 13  1  0  0  0
 15 16  1  0  0  0
 13 12  2  0  0  0
  1  2  2  0  0  0
  1  3  1  0  0  0
  2  6  1  0  0  0
 16 17  2  0  0  0
  3  4  2  0  0  0
  9  7  2  0  0  0
 12 17  1  0  0  0
 12 10  1  0  0  0
  6  7  1  0  0  0
  6  5  2  0  0  0
  4  5  1  0  0  0
 10  7  1  0  0  0
  7  8  2  0  0  0
 22 24  1  0  0  0
 23 25  1  0  0  0
 10 11  1  0  0  0
M  END
> <minimizedAffinity>
-8.63062

$$$$
5EEN_5OG_B_804


 25 26  0  0  0  0  0  0  0  0999 V2000
   30.1228   99.7728   31.9384 C   0  0  0  0  0  0  0  0  0  0  0  0
   30.8541   98.7152   32.4576 C   0  0  0  0  0  0  0  0  0  0  0  0
   30.1348  100.9544   32.6821 C   0  0  0  0  0  0  0  0  0  0  0  0
   30.8407  101.0416   33.8732 C   0  0  0  0  0  0  0  0  0  0  0  0
   31.5543   99.9614   34.3480 C   0  0  0  0  0  0  0  0  0  0  0  0
   31.5511   98.7599   33.6358 C   0  0  0  0  0  0  0  0  0  0  0  0
   32.5136   97.4192   34.2783 S   0  0  0  0  0  0  0  0  0  0  0  0
   32.9015   97.5916   35.8487 O   0  0  0  0  0  0  0  0  0  0  0  0
   31.6101   96.0945   34.4302 O   0  0  0  0  0  0  0  0  0  0  0  0
   33.7742   96.9780   33.3466 N   0  0  0  0  0  0  0  0  0  0  0  0
   33.7083   97.1663   32.3825 H   0  0  0  0  0  0  0  0  0  0  0  0
   34.9496   96.3508   33.7999 C   0  0  0  0  0  0  0  0  0  0  0  0
   34.9352   95.0348   34.3062 C   0  0  0  0  0  0  0  0  0  0  0  0
   36.1001   94.4285   34.7217 C   0  0  0  0  0  0  0  0  0  0  0  0
   37.3160   95.0861   34.6294 C   0  0  0  0  0  0  0  0  0  0  0  0
   37.3478   96.3645   34.1119 C   0  0  0  0  0  0  0  0  0  0  0  0
   36.1924   96.9886   33.6944 C   0  0  0  0  0  0  0  0  0  0  0  0
   28.1337   99.9227   30.4185 C   0  0  0  0  0  0  0  0  0  0  0  0
   29.3915   99.6353   30.6751 C   0  0  0  0  0  0  0  0  0  0  0  0
   27.8307   98.4650   28.5647 O   0  0  0  0  0  0  0  0  0  0  0  0
   27.4570   99.3920   29.1880 C   0  0  0  0  0  0  0  0  0  0  0  0
   26.2672  100.1101   28.8357 N   0  0  0  0  0  0  0  0  0  0  0  0
   25.6102   99.7018   27.7775 O   0  0  0  0  0  0  0  0  0  0  0  0
   25.9564  100.8785   29.3669 H   0  0  0  0  0  0  0  0  0  0  0  0
   26.0657   98.9388   27.3886 H   0  0  0  0  0  0  0  0  0  0  0  0
 20 21  2  0  0  0
 23 22  1  0  0  0
 21 22  1  0  0  0
 21 18  1  0  0  0
 18 19  2  0  0  0
 19  1  1  0  0  0
 14 15  2  0  0  0
 14 13  1  0  0  0
 15 16  1  0  0  0
 13 12  2  0  0  0
  1  2  2  0  0  0
  1  3  1  0  0  0
  2  6  1  0  0  0
 16 17  2  0  0  0
  3  4  2  0  0  0
  9  7  2  0  0  0
 12 17  1  0  0  0
 12 10  1  0  0  0
  6  7  1  0  0  0
  6  5  2  0  0  0
  4  5  1  0  0  0
 10  7  1  0  0  0
  7  8  2  0  0  0
 22 24  1  0  0  0
 23 25  1  0  0  0
 10 11  1  0  0  0
M  END
> <minimizedAffinity>
-8.55847

$$$$
5EEN_5OG_B_804


 25 26  0  0  0  0  0  0  0  0999 V2000
   31.2223   99.5779   33.5289 C   0  0  0  0  0  0  0  0  0  0  0  0
   31.7316   98.4932   34.2267 C   0  0  0  0  0  0  0  0  0  0  0  0
   31.2640  100.8087   34.1869 C   0  0  0  0  0  0  0  0  0  0  0  0
   31.7846  100.9164   35.4682 C   0  0  0  0  0  0  0  0  0  0  0  0
   32.2805   99.8075   36.1209 C   0  0  0  0  0  0  0  0  0  0  0  0
   32.2403   98.5587   35.4966 C   0  0  0  0  0  0  0  0  0  0  0  0
   32.9230   97.1784   36.3715 S   0  0  0  0  0  0  0  0  0  0  0  0
   34.2487   97.5494   37.2382 O   0  0  0  0  0  0  0  0  0  0  0  0
   31.9750   96.7647   37.6062 O   0  0  0  0  0  0  0  0  0  0  0  0
   33.0908   95.8242   35.4828 N   0  0  0  0  0  0  0  0  0  0  0  0
   32.3159   95.2188   35.4353 H   0  0  0  0  0  0  0  0  0  0  0  0
   34.2473   95.4442   34.7768 C   0  0  0  0  0  0  0  0  0  0  0  0
   34.8205   96.2796   33.7959 C   0  0  0  0  0  0  0  0  0  0  0  0
   35.9672   95.9015   33.1332 C   0  0  0  0  0  0  0  0  0  0  0  0
   36.5988   94.7050   33.4309 C   0  0  0  0  0  0  0  0  0  0  0  0
   36.0630   93.8901   34.4067 C   0  0  0  0  0  0  0  0  0  0  0  0
   34.9146   94.2498   35.0779 C   0  0  0  0  0  0  0  0  0  0  0  0
   29.5725   99.9117   31.6700 C   0  0  0  0  0  0  0  0  0  0  0  0
   30.6817   99.4172   32.1756 C   0  0  0  0  0  0  0  0  0  0  0  0
   29.6280   98.9857   29.4807 O   0  0  0  0  0  0  0  0  0  0  0  0
   28.9930   99.3631   30.3984 C   0  0  0  0  0  0  0  0  0  0  0  0
   27.5604   99.3090   30.4001 N   0  0  0  0  0  0  0  0  0  0  0  0
   26.9759   98.8313   29.3286 O   0  0  0  0  0  0  0  0  0  0  0  0
   27.0370   99.6181   31.1745 H   0  0  0  0  0  0  0  0  0  0  0  0
   27.6497   98.5803   28.6774 H   0  0  0  0  0  0  0  0  0  0  0  0
 20 21  2  0  0  0
 23 22  1  0  0  0
 21 22  1  0  0  0
 21 18  1  0  0  0
 18 19  2  0  0  0
 19  1  1  0  0  0
 14 15  2  0  0  0
 14 13  1  0  0  0
 15 16  1  0  0  0
 13 12  2  0  0  0
  1  2  2  0  0  0
  1  3  1  0  0  0
  2  6  1  0  0  0
 16 17  2  0  0  0
  3  4  2  0  0  0
  9  7  2  0  0  0
 12 17  1  0  0  0
 12 10  1  0  0  0
  6  7  1  0  0  0
  6  5  2  0  0  0
  4  5  1  0  0  0
 10  7  1  0  0  0
  7  8  2  0  0  0
 22 24  1  0  0  0
 23 25  1  0  0  0
 10 11  1  0  0  0
M  END
> <minimizedAffinity>
-7.92851

$$$$
5EEN_5OG_B_804


 25 26  0  0  0  0  0  0  0  0999 V2000
   31.1159   99.3644   32.9537 C   0  0  0  0  0  0  0  0  0  0  0  0
   31.3473  100.3935   33.8539 C   0  0  0  0  0  0  0  0  0  0  0  0
   31.5928   98.1048   33.3216 C   0  0  0  0  0  0  0  0  0  0  0  0
   32.2625   97.9172   34.5219 C   0  0  0  0  0  0  0  0  0  0  0  0
   32.4673   98.9729   35.3850 C   0  0  0  0  0  0  0  0  0  0  0  0
   32.0159  100.2490   35.0405 C   0  0  0  0  0  0  0  0  0  0  0  0
   32.2784  101.5575   36.2047 S   0  0  0  0  0  0  0  0  0  0  0  0
   30.9016  102.1565   36.8308 O   0  0  0  0  0  0  0  0  0  0  0  0
   32.8979  100.9811   37.5752 O   0  0  0  0  0  0  0  0  0  0  0  0
   33.3181  102.7097   35.7115 N   0  0  0  0  0  0  0  0  0  0  0  0
   33.6244  103.3577   36.3864 H   0  0  0  0  0  0  0  0  0  0  0  0
   33.8170  102.8594   34.4041 C   0  0  0  0  0  0  0  0  0  0  0  0
   33.4425  103.9499   33.5922 C   0  0  0  0  0  0  0  0  0  0  0  0
   33.9610  104.0931   32.3242 C   0  0  0  0  0  0  0  0  0  0  0  0
   34.8804  103.1849   31.8253 C   0  0  0  0  0  0  0  0  0  0  0  0
   35.2750  102.1276   32.6188 C   0  0  0  0  0  0  0  0  0  0  0  0
   34.7647  101.9659   33.8885 C   0  0  0  0  0  0  0  0  0  0  0  0
   29.1066   99.6148   31.4742 C   0  0  0  0  0  0  0  0  0  0  0  0
   30.4032   99.6091   31.6961 C   0  0  0  0  0  0  0  0  0  0  0  0
   28.9809   98.8121   29.2397 O   0  0  0  0  0  0  0  0  0  0  0  0
   28.5627   99.5264   30.0778 C   0  0  0  0  0  0  0  0  0  0  0  0
   27.4414  100.3891   29.8458 N   0  0  0  0  0  0  0  0  0  0  0  0
   26.9005  100.3634   28.6521 O   0  0  0  0  0  0  0  0  0  0  0  0
   27.0920  100.9769   30.5541 H   0  0  0  0  0  0  0  0  0  0  0  0
   27.3772   99.7286   28.0947 H   0  0  0  0  0  0  0  0  0  0  0  0
 20 21  2  0  0  0
 23 22  1  0  0  0
 21 22  1  0  0  0
 21 18  1  0  0  0
 18 19  2  0  0  0
 19  1  1  0  0  0
 14 15  2  0  0  0
 14 13  1  0  0  0
 15 16  1  0  0  0
 13 12  2  0  0  0
  1  2  2  0  0  0
  1  3  1  0  0  0
  2  6  1  0  0  0
 16 17  2  0  0  0
  3  4  2  0  0  0
  9  7  2  0  0  0
 12 17  1  0  0  0
 12 10  1  0  0  0
  6  7  1  0  0  0
  6  5  2  0  0  0
  4  5  1  0  0  0
 10  7  1  0  0  0
  7  8  2  0  0  0
 22 24  1  0  0  0
 23 25  1  0  0  0
 10 11  1  0  0  0
M  END
> <minimizedAffinity>
-7.85762

$$$$
5EEN_5OG_B_804


 25 26  0  0  0  0  0  0  0  0999 V2000
   31.4017  101.1304   33.6240 C   0  0  0  0  0  0  0  0  0  0  0  0
   31.5937  100.3541   34.7568 C   0  0  0  0  0  0  0  0  0  0  0  0
   32.2497  102.2302   33.4795 C   0  0  0  0  0  0  0  0  0  0  0  0
   33.2188  102.5147   34.4304 C   0  0  0  0  0  0  0  0  0  0  0  0
   33.3715  101.7111   35.5406 C   0  0  0  0  0  0  0  0  0  0  0  0
   32.5298  100.6115   35.7228 C   0  0  0  0  0  0  0  0  0  0  0  0
   32.7968   99.5978   37.1504 S   0  0  0  0  0  0  0  0  0  0  0  0
   33.5394  100.3761   38.3706 O   0  0  0  0  0  0  0  0  0  0  0  0
   31.4048   99.3046   37.9058 O   0  0  0  0  0  0  0  0  0  0  0  0
   33.4347   98.1330   36.8358 N   0  0  0  0  0  0  0  0  0  0  0  0
   33.9045   97.6796   37.5727 H   0  0  0  0  0  0  0  0  0  0  0  0
   33.3727   97.4588   35.6021 C   0  0  0  0  0  0  0  0  0  0  0  0
   32.2706   96.6487   35.2588 C   0  0  0  0  0  0  0  0  0  0  0  0
   32.2162   96.0170   34.0361 C   0  0  0  0  0  0  0  0  0  0  0  0
   33.2289   96.1814   33.1051 C   0  0  0  0  0  0  0  0  0  0  0  0
   34.3005   96.9918   33.4181 C   0  0  0  0  0  0  0  0  0  0  0  0
   34.3742   97.6292   34.6375 C   0  0  0  0  0  0  0  0  0  0  0  0
   30.2025   99.6722   31.9733 C   0  0  0  0  0  0  0  0  0  0  0  0
   30.3643  100.7917   32.6449 C   0  0  0  0  0  0  0  0  0  0  0  0
   29.5380   98.9840   29.7966 O   0  0  0  0  0  0  0  0  0  0  0  0
   29.3162   99.6203   30.7628 C   0  0  0  0  0  0  0  0  0  0  0  0
   28.1275  100.4115   30.8908 N   0  0  0  0  0  0  0  0  0  0  0  0
   27.2939  100.4113   29.8793 O   0  0  0  0  0  0  0  0  0  0  0  0
   27.9449  100.9336   31.7052 H   0  0  0  0  0  0  0  0  0  0  0  0
   27.6414   99.8433   29.1739 H   0  0  0  0  0  0  0  0  0  0  0  0
 20 21  2  0  0  0
 23 22  1  0  0  0
 21 22  1  0  0  0
 21 18  1  0  0  0
 18 19  2  0  0  0
 19  1  1  0  0  0
 14 15  2  0  0  0
 14 13  1  0  0  0
 15 16  1  0  0  0
 13 12  2  0  0  0
  1  2  2  0  0  0
  1  3  1  0  0  0
  2  6  1  0  0  0
 16 17  2  0  0  0
  3  4  2  0  0  0
  9  7  2  0  0  0
 12 17  1  0  0  0
 12 10  1  0  0  0
  6  7  1  0  0  0
  6  5  2  0  0  0
  4  5  1  0  0  0
 10  7  1  0  0  0
  7  8  2  0  0  0
 22 24  1  0  0  0
 23 25  1  0  0  0
 10 11  1  0  0  0
M  END
> <minimizedAffinity>
-7.78261

$$$$
5EEN_5OG_B_804


 25 26  0  0  0  0  0  0  0  0999 V2000
   31.2091  100.9725   33.6052 C   0  0  0  0  0  0  0  0  0  0  0  0
   31.9346  102.0999   33.2512 C   0  0  0  0  0  0  0  0  0  0  0  0
   31.6255  100.3096   34.7614 C   0  0  0  0  0  0  0  0  0  0  0  0
   32.7096  100.7672   35.4959 C   0  0  0  0  0  0  0  0  0  0  0  0
   33.3991  101.8949   35.1031 C   0  0  0  0  0  0  0  0  0  0  0  0
   33.0177  102.5731   33.9432 C   0  0  0  0  0  0  0  0  0  0  0  0
   33.9201  104.0339   33.5090 S   0  0  0  0  0  0  0  0  0  0  0  0
   33.1446  105.4132   33.8862 O   0  0  0  0  0  0  0  0  0  0  0  0
   35.1846  104.2307   34.4869 O   0  0  0  0  0  0  0  0  0  0  0  0
   34.5359  104.0310   32.0015 N   0  0  0  0  0  0  0  0  0  0  0  0
   34.1701  104.6873   31.3653 H   0  0  0  0  0  0  0  0  0  0  0  0
   35.5456  103.1720   31.5293 C   0  0  0  0  0  0  0  0  0  0  0  0
   36.8625  103.6288   31.3156 C   0  0  0  0  0  0  0  0  0  0  0  0
   37.8432  102.7669   30.8771 C   0  0  0  0  0  0  0  0  0  0  0  0
   37.5669  101.4270   30.6595 C   0  0  0  0  0  0  0  0  0  0  0  0
   36.2888  100.9613   30.8893 C   0  0  0  0  0  0  0  0  0  0  0  0
   35.2937  101.8092   31.3247 C   0  0  0  0  0  0  0  0  0  0  0  0
   30.0724   99.7779   31.7158 C   0  0  0  0  0  0  0  0  0  0  0  0
   30.0696  100.5252   32.7984 C   0  0  0  0  0  0  0  0  0  0  0  0
   27.8560  100.2805   31.0172 O   0  0  0  0  0  0  0  0  0  0  0  0
   28.8696   99.7136   30.8199 C   0  0  0  0  0  0  0  0  0  0  0  0
   29.0680   98.9025   29.6545 N   0  0  0  0  0  0  0  0  0  0  0  0
   28.0670   98.8033   28.8141 O   0  0  0  0  0  0  0  0  0  0  0  0
   29.9212   98.4390   29.4921 H   0  0  0  0  0  0  0  0  0  0  0  0
   27.3175   99.3253   29.1408 H   0  0  0  0  0  0  0  0  0  0  0  0
 20 21  2  0  0  0
 23 22  1  0  0  0
 21 22  1  0  0  0
 21 18  1  0  0  0
 18 19  2  0  0  0
 19  1  1  0  0  0
 14 15  2  0  0  0
 14 13  1  0  0  0
 15 16  1  0  0  0
 13 12  2  0  0  0
  1  2  2  0  0  0
  1  3  1  0  0  0
  2  6  1  0  0  0
 16 17  2  0  0  0
  3  4  2  0  0  0
  9  7  2  0  0  0
 12 17  1  0  0  0
 12 10  1  0  0  0
  6  7  1  0  0  0
  6  5  2  0  0  0
  4  5  1  0  0  0
 10  7  1  0  0  0
  7  8  2  0  0  0
 22 24  1  0  0  0
 23 25  1  0  0  0
 10 11  1  0  0  0
M  END
> <minimizedAffinity>
-7.38004

$$$$
5EEN_5OG_B_804


 25 26  0  0  0  0  0  0  0  0999 V2000
   31.0320  100.6197   33.2666 C   0  0  0  0  0  0  0  0  0  0  0  0
   31.3365   99.7097   34.2675 C   0  0  0  0  0  0  0  0  0  0  0  0
   31.7745  101.8022   33.2620 C   0  0  0  0  0  0  0  0  0  0  0  0
   32.7528  102.0351   34.2176 C   0  0  0  0  0  0  0  0  0  0  0  0
   33.0196  101.0979   35.1932 C   0  0  0  0  0  0  0  0  0  0  0  0
   32.2849   99.9107   35.2350 C   0  0  0  0  0  0  0  0  0  0  0  0
   32.6966   98.7313   36.4905 S   0  0  0  0  0  0  0  0  0  0  0  0
   34.1495   98.9906   37.1747 O   0  0  0  0  0  0  0  0  0  0  0  0
   31.8000   98.9687   37.8073 O   0  0  0  0  0  0  0  0  0  0  0  0
   32.4480   97.1771   36.0728 N   0  0  0  0  0  0  0  0  0  0  0  0
   31.7349   96.9960   35.4185 H   0  0  0  0  0  0  0  0  0  0  0  0
   33.1639   96.0704   36.5658 C   0  0  0  0  0  0  0  0  0  0  0  0
   34.1661   95.4397   35.8000 C   0  0  0  0  0  0  0  0  0  0  0  0
   34.8737   94.3734   36.3095 C   0  0  0  0  0  0  0  0  0  0  0  0
   34.6362   93.9109   37.5936 C   0  0  0  0  0  0  0  0  0  0  0  0
   33.6763   94.5353   38.3629 C   0  0  0  0  0  0  0  0  0  0  0  0
   32.9559   95.6012   37.8692 C   0  0  0  0  0  0  0  0  0  0  0  0
   29.9246   99.3372   31.4179 C   0  0  0  0  0  0  0  0  0  0  0  0
   29.9894  100.3312   32.2771 C   0  0  0  0  0  0  0  0  0  0  0  0
   29.1233   98.7789   29.2501 O   0  0  0  0  0  0  0  0  0  0  0  0
   28.9848   99.3887   30.2484 C   0  0  0  0  0  0  0  0  0  0  0  0
   27.8558  100.2464   30.4602 N   0  0  0  0  0  0  0  0  0  0  0  0
   26.9805  100.3383   29.4888 O   0  0  0  0  0  0  0  0  0  0  0  0
   27.7425  100.7460   31.3009 H   0  0  0  0  0  0  0  0  0  0  0  0
   27.2600   99.7784   28.7477 H   0  0  0  0  0  0  0  0  0  0  0  0
 20 21  2  0  0  0
 23 22  1  0  0  0
 21 22  1  0  0  0
 21 18  1  0  0  0
 18 19  2  0  0  0
 19  1  1  0  0  0
 14 15  2  0  0  0
 14 13  1  0  0  0
 15 16  1  0  0  0
 13 12  2  0  0  0
  1  2  2  0  0  0
  1  3  1  0  0  0
  2  6  1  0  0  0
 16 17  2  0  0  0
  3  4  2  0  0  0
  9  7  2  0  0  0
 12 17  1  0  0  0
 12 10  1  0  0  0
  6  7  1  0  0  0
  6  5  2  0  0  0
  4  5  1  0  0  0
 10  7  1  0  0  0
  7  8  2  0  0  0
 22 24  1  0  0  0
 23 25  1  0  0  0
 10 11  1  0  0  0
M  END
> <minimizedAffinity>
-7.34179

$$$$
