3PD8_HA7_A_261


 16 17  0  0  0  0  0  0  0  0999 V2000
   44.9946   27.4083   40.8154 C   0  0  0  0  0  0  0  0  0  0  0  0
   45.0113   28.6279   41.3449 N   0  0  0  0  0  0  0  0  0  0  0  0
   45.8955   28.5779   42.4749 O   0  0  0  0  0  0  0  0  0  0  0  0
   45.8133   26.5636   41.5374 C   0  0  0  0  0  0  0  0  0  0  0  0
   47.6953   25.2324   43.1242 N   0  0  0  0  0  0  0  0  0  0  0  0
   46.0712   25.0933   41.2856 C   0  0  0  0  0  0  0  0  0  0  0  0
   46.5368   24.4809   42.6100 C   0  0  0  0  0  0  0  0  0  0  0  0
   44.3497   27.0657   39.8294 O   0  0  0  0  0  0  0  0  0  0  0  0
   47.3528   26.6092   43.5528 C   0  0  0  0  0  0  0  0  0  0  0  0
   46.3700   27.2950   42.5762 C   0  0  0  0  0  0  0  0  0  0  0  0
   48.0790   24.7295   43.9243 H   0  0  0  0  0  0  0  0  0  0  0  0
   43.8111   27.6885   39.3823 H   0  0  0  0  0  0  0  0  0  0  0  0
   47.3373   25.8028   45.8031 O   0  0  0  0  0  0  0  0  0  0  0  0
   45.8928   27.4063   45.2630 O   0  0  0  0  0  0  0  0  0  0  0  0
   46.8282   26.6162   45.0050 C   0  0  0  0  0  0  0  0  0  0  0  0
   45.5717   27.9847   44.5995 H   0  0  0  0  0  0  0  0  0  0  0  0
  1  2  2  0  0  0
  1  4  1  0  0  0
  2  3  1  0  0  0
  3 10  1  0  0  0
  4 10  2  0  0  0
  5  9  1  0  0  0
  6  4  1  0  0  0
  6  7  1  0  0  0
  7  5  1  0  0  0
  8  1  1  0  0  0
  9 15  1  0  0  0
 10  9  1  0  0  0
 15 13  2  0  0  0
 15 14  1  0  0  0
  5 11  1  0  0  0
 14 16  1  0  0  0
  8 12  1  0  0  0
M  END
> <minimizedAffinity>
-7.68215

$$$$
3PD8_HA7_A_261


 16 17  0  0  0  0  0  0  0  0999 V2000
   43.6625   26.1689   38.3795 C   0  0  0  0  0  0  0  0  0  0  0  0
   43.7006   27.4635   38.0781 N   0  0  0  0  0  0  0  0  0  0  0  0
   44.6244   28.0754   38.9909 O   0  0  0  0  0  0  0  0  0  0  0  0
   44.5048   25.9011   39.4397 C   0  0  0  0  0  0  0  0  0  0  0  0
   46.4395   25.7327   41.4547 N   0  0  0  0  0  0  0  0  0  0  0  0
   44.7506   24.5642   40.1058 C   0  0  0  0  0  0  0  0  0  0  0  0
   45.2619   24.8494   41.5211 C   0  0  0  0  0  0  0  0  0  0  0  0
   42.9822   25.3218   37.8095 O   0  0  0  0  0  0  0  0  0  0  0  0
   46.1153   27.1017   40.9886 C   0  0  0  0  0  0  0  0  0  0  0  0
   45.0997   27.0941   39.8230 C   0  0  0  0  0  0  0  0  0  0  0  0
   46.8505   25.7960   42.3861 H   0  0  0  0  0  0  0  0  0  0  0  0
   42.4293   25.5684   37.0944 H   0  0  0  0  0  0  0  0  0  0  0  0
   46.1339   27.7522   43.2887 O   0  0  0  0  0  0  0  0  0  0  0  0
   44.7618   28.8354   41.9128 O   0  0  0  0  0  0  0  0  0  0  0  0
   45.6428   27.9834   42.1649 C   0  0  0  0  0  0  0  0  0  0  0  0
   44.4501   28.9415   41.0355 H   0  0  0  0  0  0  0  0  0  0  0  0
  1  2  2  0  0  0
  1  4  1  0  0  0
  2  3  1  0  0  0
  3 10  1  0  0  0
  4 10  2  0  0  0
  5  9  1  0  0  0
  6  4  1  0  0  0
  6  7  1  0  0  0
  7  5  1  0  0  0
  8  1  1  0  0  0
  9 15  1  0  0  0
 10  9  1  0  0  0
 15 13  2  0  0  0
 15 14  1  0  0  0
  5 11  1  0  0  0
 14 16  1  0  0  0
  8 12  1  0  0  0
M  END
> <minimizedAffinity>
-7.14767

$$$$
3PD8_HA7_A_261


 16 17  0  0  0  0  0  0  0  0999 V2000
   46.3579   26.5612   43.6140 C   0  0  0  0  0  0  0  0  0  0  0  0
   46.7562   25.2935   43.6621 N   0  0  0  0  0  0  0  0  0  0  0  0
   46.5834   24.7535   42.3432 O   0  0  0  0  0  0  0  0  0  0  0  0
   45.9304   26.8788   42.3406 C   0  0  0  0  0  0  0  0  0  0  0  0
   45.3386   27.1826   39.6223 N   0  0  0  0  0  0  0  0  0  0  0  0
   45.3866   28.2057   41.8558 C   0  0  0  0  0  0  0  0  0  0  0  0
   44.5368   27.9214   40.6136 C   0  0  0  0  0  0  0  0  0  0  0  0
   46.3616   27.3481   44.5554 O   0  0  0  0  0  0  0  0  0  0  0  0
   45.6772   25.8064   40.0559 C   0  0  0  0  0  0  0  0  0  0  0  0
   46.0669   25.7468   41.5507 C   0  0  0  0  0  0  0  0  0  0  0  0
   44.8088   27.1276   38.7525 H   0  0  0  0  0  0  0  0  0  0  0  0
   46.6650   27.0701   45.3972 H   0  0  0  0  0  0  0  0  0  0  0  0
   43.9091   25.0223   38.6513 O   0  0  0  0  0  0  0  0  0  0  0  0
   44.2824   23.9368   40.5569 O   0  0  0  0  0  0  0  0  0  0  0  0
   44.5329   24.8274   39.7145 C   0  0  0  0  0  0  0  0  0  0  0  0
   44.8057   23.8634   41.3307 H   0  0  0  0  0  0  0  0  0  0  0  0
  1  2  2  0  0  0
  1  4  1  0  0  0
  2  3  1  0  0  0
  3 10  1  0  0  0
  4 10  2  0  0  0
  5  9  1  0  0  0
  6  4  1  0  0  0
  6  7  1  0  0  0
  7  5  1  0  0  0
  8  1  1  0  0  0
  9 15  1  0  0  0
 10  9  1  0  0  0
 15 13  2  0  0  0
 15 14  1  0  0  0
  5 11  1  0  0  0
 14 16  1  0  0  0
  8 12  1  0  0  0
M  END
> <minimizedAffinity>
-6.80848

$$$$
3PD8_HA7_A_261


 16 17  0  0  0  0  0  0  0  0999 V2000
   45.3316   27.1629   39.1261 C   0  0  0  0  0  0  0  0  0  0  0  0
   45.7471   26.0017   38.6290 N   0  0  0  0  0  0  0  0  0  0  0  0
   45.9622   25.1252   39.7455 O   0  0  0  0  0  0  0  0  0  0  0  0
   45.2675   27.0966   40.5033 C   0  0  0  0  0  0  0  0  0  0  0  0
   45.0880   26.5108   43.2339 N   0  0  0  0  0  0  0  0  0  0  0  0
   44.8575   28.1955   41.4602 C   0  0  0  0  0  0  0  0  0  0  0  0
   45.4816   27.8692   42.8204 C   0  0  0  0  0  0  0  0  0  0  0  0
   45.0440   28.1594   38.4705 O   0  0  0  0  0  0  0  0  0  0  0  0
   45.6815   25.4492   42.3871 C   0  0  0  0  0  0  0  0  0  0  0  0
   45.6672   25.8251   40.8876 C   0  0  0  0  0  0  0  0  0  0  0  0
   45.3904   26.3645   44.1970 H   0  0  0  0  0  0  0  0  0  0  0  0
   45.1087   28.1401   37.5360 H   0  0  0  0  0  0  0  0  0  0  0  0
   47.6455   25.8643   43.6849 O   0  0  0  0  0  0  0  0  0  0  0  0
   47.6143   24.0506   42.3969 O   0  0  0  0  0  0  0  0  0  0  0  0
   47.0981   25.0827   42.8804 C   0  0  0  0  0  0  0  0  0  0  0  0
   47.1276   23.5202   41.7971 H   0  0  0  0  0  0  0  0  0  0  0  0
  1  2  2  0  0  0
  1  4  1  0  0  0
  2  3  1  0  0  0
  3 10  1  0  0  0
  4 10  2  0  0  0
  5  9  1  0  0  0
  6  4  1  0  0  0
  6  7  1  0  0  0
  7  5  1  0  0  0
  8  1  1  0  0  0
  9 15  1  0  0  0
 10  9  1  0  0  0
 15 13  2  0  0  0
 15 14  1  0  0  0
  5 11  1  0  0  0
 14 16  1  0  0  0
  8 12  1  0  0  0
M  END
> <minimizedAffinity>
-6.52785

$$$$
3PD8_HA7_A_261


 16 17  0  0  0  0  0  0  0  0999 V2000
   46.7724   26.4639   43.0899 C   0  0  0  0  0  0  0  0  0  0  0  0
   46.7802   27.7863   43.2288 N   0  0  0  0  0  0  0  0  0  0  0  0
   45.9465   28.3181   42.1880 O   0  0  0  0  0  0  0  0  0  0  0  0
   45.9853   26.1018   42.0155 C   0  0  0  0  0  0  0  0  0  0  0  0
   44.1735   25.7652   39.9093 N   0  0  0  0  0  0  0  0  0  0  0  0
   45.7151   24.7039   41.5013 C   0  0  0  0  0  0  0  0  0  0  0  0
   45.3075   24.8321   40.0305 C   0  0  0  0  0  0  0  0  0  0  0  0
   47.3730   25.6665   43.8033 O   0  0  0  0  0  0  0  0  0  0  0  0
   44.5359   27.1668   40.2268 C   0  0  0  0  0  0  0  0  0  0  0  0
   45.4755   27.2617   41.4508 C   0  0  0  0  0  0  0  0  0  0  0  0
   43.8248   25.7293   38.9514 H   0  0  0  0  0  0  0  0  0  0  0  0
   47.8921   25.9768   44.5190 H   0  0  0  0  0  0  0  0  0  0  0  0
   46.3369   27.7026   38.7492 O   0  0  0  0  0  0  0  0  0  0  0  0
   44.3487   28.6120   38.3379 O   0  0  0  0  0  0  0  0  0  0  0  0
   45.1239   27.8749   38.9870 C   0  0  0  0  0  0  0  0  0  0  0  0
   43.4486   28.6817   38.5888 H   0  0  0  0  0  0  0  0  0  0  0  0
  1  2  2  0  0  0
  1  4  1  0  0  0
  2  3  1  0  0  0
  3 10  1  0  0  0
  4 10  2  0  0  0
  5  9  1  0  0  0
  6  4  1  0  0  0
  6  7  1  0  0  0
  7  5  1  0  0  0
  8  1  1  0  0  0
  9 15  1  0  0  0
 10  9  1  0  0  0
 15 13  2  0  0  0
 15 14  1  0  0  0
  5 11  1  0  0  0
 14 16  1  0  0  0
  8 12  1  0  0  0
M  END
> <minimizedAffinity>
-6.34552

$$$$
3PD8_HA7_A_261


 16 17  0  0  0  0  0  0  0  0999 V2000
   45.9151   25.5908   39.7280 C   0  0  0  0  0  0  0  0  0  0  0  0
   46.4760   24.5098   40.2618 N   0  0  0  0  0  0  0  0  0  0  0  0
   46.3490   24.6364   41.6862 O   0  0  0  0  0  0  0  0  0  0  0  0
   45.4331   26.4183   40.7222 C   0  0  0  0  0  0  0  0  0  0  0  0
   44.4330   27.7151   42.9915 N   0  0  0  0  0  0  0  0  0  0  0  0
   44.7373   27.7520   40.5536 C   0  0  0  0  0  0  0  0  0  0  0  0
   44.9187   28.5273   41.8620 C   0  0  0  0  0  0  0  0  0  0  0  0
   45.8306   25.8342   38.5285 O   0  0  0  0  0  0  0  0  0  0  0  0
   45.2693   26.5195   43.2514 C   0  0  0  0  0  0  0  0  0  0  0  0
   45.7105   25.8226   41.9438 C   0  0  0  0  0  0  0  0  0  0  0  0
   44.4276   28.2958   43.8300 H   0  0  0  0  0  0  0  0  0  0  0  0
   46.1785   25.2303   37.9022 H   0  0  0  0  0  0  0  0  0  0  0  0
   47.6113   26.7742   43.6565 O   0  0  0  0  0  0  0  0  0  0  0  0
   46.2137   27.1969   45.3349 O   0  0  0  0  0  0  0  0  0  0  0  0
   46.4709   26.8769   44.1530 C   0  0  0  0  0  0  0  0  0  0  0  0
   45.3236   27.2495   45.6230 H   0  0  0  0  0  0  0  0  0  0  0  0
  1  2  2  0  0  0
  1  4  1  0  0  0
  2  3  1  0  0  0
  3 10  1  0  0  0
  4 10  2  0  0  0
  5  9  1  0  0  0
  6  4  1  0  0  0
  6  7  1  0  0  0
  7  5  1  0  0  0
  8  1  1  0  0  0
  9 15  1  0  0  0
 10  9  1  0  0  0
 15 13  2  0  0  0
 15 14  1  0  0  0
  5 11  1  0  0  0
 14 16  1  0  0  0
  8 12  1  0  0  0
M  END
> <minimizedAffinity>
-5.11057

$$$$
