5EEI_SHH_A_2004


 22 22  0  0  0  0  0  0  0  0999 V2000
    6.2935   -3.0495   -1.1200 C   0  0  0  0  0  0  0  0  0  0  0  0
    6.6464   -4.5175   -1.2382 C   0  0  0  0  0  0  0  0  0  0  0  0
    5.5825   -5.3404   -0.5224 C   0  0  0  0  0  0  0  0  0  0  0  0
    6.2164   -6.2679    0.4918 C   0  0  0  0  0  0  0  0  0  0  0  0
    5.1635   -7.1218    1.1630 C   0  0  0  0  0  0  0  0  0  0  0  0
    5.2634  -10.6003    2.3828 O   0  0  0  0  0  0  0  0  0  0  0  0
    6.8560   -8.8019    1.4349 O   0  0  0  0  0  0  0  0  0  0  0  0
    4.8084   -9.3643    1.9958 N   0  0  0  0  0  0  0  0  0  0  0  0
    5.6773   -8.4913    1.5427 C   0  0  0  0  0  0  0  0  0  0  0  0
    4.5173  -11.1368    2.6933 H   0  0  0  0  0  0  0  0  0  0  0  0
    3.8522   -9.1380    2.0568 H   0  0  0  0  0  0  0  0  0  0  0  0
    5.4080   -2.8061    0.0937 C   0  0  0  0  0  0  0  0  0  0  0  0
    4.8862   -1.3876    0.0920 C   0  0  0  0  0  0  0  0  0  0  0  0
    5.5616   -0.4791   -0.3672 O   0  0  0  0  0  0  0  0  0  0  0  0
    3.6670   -1.2621    0.6036 N   0  0  0  0  0  0  0  0  0  0  0  0
    3.2482   -2.0920    0.9277 H   0  0  0  0  0  0  0  0  0  0  0  0
    2.8976   -0.0887    0.7403 C   0  0  0  0  0  0  0  0  0  0  0  0
    2.0755    0.2546   -0.3206 C   0  0  0  0  0  0  0  0  0  0  0  0
    1.2677    1.3854   -0.2588 C   0  0  0  0  0  0  0  0  0  0  0  0
    1.2550    2.1655    0.8882 C   0  0  0  0  0  0  0  0  0  0  0  0
    2.0728    1.8395    1.9527 C   0  0  0  0  0  0  0  0  0  0  0  0
    2.8792    0.7141    1.8872 C   0  0  0  0  0  0  0  0  0  0  0  0
  6  8  1  0  0  0
  7  9  2  0  0  0
  8  9  1  0  0  0
  9  5  1  0  0  0
  5  4  1  0  0  0
  4  3  1  0  0  0
  3  2  1  0  0  0
  2  1  1  0  0  0
  1 12  1  0  0  0
 12 13  1  0  0  0
 13 14  2  0  0  0
 13 15  1  0  0  0
 15 17  1  0  0  0
 17 18  2  0  0  0
 17 22  1  0  0  0
 18 19  1  0  0  0
 19 20  2  0  0  0
 20 21  1  0  0  0
 21 22  2  0  0  0
  6 10  1  0  0  0
  8 11  1  0  0  0
 15 16  1  0  0  0
M  END
> <minimizedAffinity>
-8.21043

$$$$
5EEI_SHH_A_2004


 22 22  0  0  0  0  0  0  0  0999 V2000
    6.6220   -2.9965   -1.8732 C   0  0  0  0  0  0  0  0  0  0  0  0
    6.5137   -4.3304   -1.1641 C   0  0  0  0  0  0  0  0  0  0  0  0
    5.5079   -4.2049   -0.0267 C   0  0  0  0  0  0  0  0  0  0  0  0
    5.7525   -5.2672    1.0232 C   0  0  0  0  0  0  0  0  0  0  0  0
    5.9374   -6.6221    0.3762 C   0  0  0  0  0  0  0  0  0  0  0  0
    5.6160  -10.0296    1.7483 O   0  0  0  0  0  0  0  0  0  0  0  0
    5.0503   -7.5915    2.3848 O   0  0  0  0  0  0  0  0  0  0  0  0
    5.9438   -8.9757    0.9323 N   0  0  0  0  0  0  0  0  0  0  0  0
    5.6066   -7.7644    1.3087 C   0  0  0  0  0  0  0  0  0  0  0  0
    5.9245  -10.8572    1.3473 H   0  0  0  0  0  0  0  0  0  0  0  0
    6.4208   -9.1249    0.0842 H   0  0  0  0  0  0  0  0  0  0  0  0
    5.9522   -1.8994   -1.0584 C   0  0  0  0  0  0  0  0  0  0  0  0
    6.9413   -0.8041   -0.7318 C   0  0  0  0  0  0  0  0  0  0  0  0
    7.1398    0.1073   -1.5206 O   0  0  0  0  0  0  0  0  0  0  0  0
    7.5189   -0.9374    0.4567 N   0  0  0  0  0  0  0  0  0  0  0  0
    7.2481   -1.7252    0.9814 H   0  0  0  0  0  0  0  0  0  0  0  0
    8.4713   -0.0916    1.0608 C   0  0  0  0  0  0  0  0  0  0  0  0
    8.0334    0.7105    2.1019 C   0  0  0  0  0  0  0  0  0  0  0  0
    8.9132    1.5588    2.7663 C   0  0  0  0  0  0  0  0  0  0  0  0
   10.2536    1.5834    2.4096 C   0  0  0  0  0  0  0  0  0  0  0  0
   10.7049    0.7934    1.3701 C   0  0  0  0  0  0  0  0  0  0  0  0
    9.8254   -0.0484    0.7076 C   0  0  0  0  0  0  0  0  0  0  0  0
  6  8  1  0  0  0
  7  9  2  0  0  0
  8  9  1  0  0  0
  9  5  1  0  0  0
  5  4  1  0  0  0
  4  3  1  0  0  0
  3  2  1  0  0  0
  2  1  1  0  0  0
  1 12  1  0  0  0
 12 13  1  0  0  0
 13 14  2  0  0  0
 13 15  1  0  0  0
 15 17  1  0  0  0
 17 18  2  0  0  0
 17 22  1  0  0  0
 18 19  1  0  0  0
 19 20  2  0  0  0
 20 21  1  0  0  0
 21 22  2  0  0  0
  6 10  1  0  0  0
  8 11  1  0  0  0
 15 16  1  0  0  0
M  END
> <minimizedAffinity>
-7.50668

$$$$
5EEI_SHH_A_2004


 22 22  0  0  0  0  0  0  0  0999 V2000
    5.8057   -2.1421   -0.0317 C   0  0  0  0  0  0  0  0  0  0  0  0
    6.3571   -2.4979   -1.3966 C   0  0  0  0  0  0  0  0  0  0  0  0
    6.6029   -4.0004   -1.4538 C   0  0  0  0  0  0  0  0  0  0  0  0
    6.2848   -4.6453   -0.1222 C   0  0  0  0  0  0  0  0  0  0  0  0
    5.8740   -6.0885   -0.3145 C   0  0  0  0  0  0  0  0  0  0  0  0
    4.6068   -8.5981    2.0716 O   0  0  0  0  0  0  0  0  0  0  0  0
    5.5465   -6.1926    2.0610 O   0  0  0  0  0  0  0  0  0  0  0  0
    5.0190   -7.9889    0.9126 N   0  0  0  0  0  0  0  0  0  0  0  0
    5.4662   -6.7568    0.9781 C   0  0  0  0  0  0  0  0  0  0  0  0
    4.3041   -9.4982    1.8738 H   0  0  0  0  0  0  0  0  0  0  0  0
    4.9801   -8.4654    0.0520 H   0  0  0  0  0  0  0  0  0  0  0  0
    4.2932   -1.9822   -0.0887 C   0  0  0  0  0  0  0  0  0  0  0  0
    3.9067   -0.5333    0.1002 C   0  0  0  0  0  0  0  0  0  0  0  0
    4.7627    0.3379    0.1288 O   0  0  0  0  0  0  0  0  0  0  0  0
    2.5978   -0.3347    0.2053 N   0  0  0  0  0  0  0  0  0  0  0  0
    2.0344   -1.1406    0.1561 H   0  0  0  0  0  0  0  0  0  0  0  0
    1.9144    0.8861    0.3785 C   0  0  0  0  0  0  0  0  0  0  0  0
    1.1064    1.3109   -0.6635 C   0  0  0  0  0  0  0  0  0  0  0  0
    0.3808    2.4938   -0.5657 C   0  0  0  0  0  0  0  0  0  0  0  0
    0.4360    3.2457    0.5988 C   0  0  0  0  0  0  0  0  0  0  0  0
    1.2410    2.8383    1.6449 C   0  0  0  0  0  0  0  0  0  0  0  0
    1.9655    1.6610    1.5435 C   0  0  0  0  0  0  0  0  0  0  0  0
  6  8  1  0  0  0
  7  9  2  0  0  0
  8  9  1  0  0  0
  9  5  1  0  0  0
  5  4  1  0  0  0
  4  3  1  0  0  0
  3  2  1  0  0  0
  2  1  1  0  0  0
  1 12  1  0  0  0
 12 13  1  0  0  0
 13 14  2  0  0  0
 13 15  1  0  0  0
 15 17  1  0  0  0
 17 18  2  0  0  0
 17 22  1  0  0  0
 18 19  1  0  0  0
 19 20  2  0  0  0
 20 21  1  0  0  0
 21 22  2  0  0  0
  6 10  1  0  0  0
  8 11  1  0  0  0
 15 16  1  0  0  0
M  END
> <minimizedAffinity>
-7.14128

$$$$
5EEI_SHH_A_2004


 22 22  0  0  0  0  0  0  0  0999 V2000
    5.5379   -2.6672   -0.8696 C   0  0  0  0  0  0  0  0  0  0  0  0
    6.3022   -3.9700   -0.9811 C   0  0  0  0  0  0  0  0  0  0  0  0
    6.1275   -4.7573    0.3115 C   0  0  0  0  0  0  0  0  0  0  0  0
    6.0700   -6.2430    0.0291 C   0  0  0  0  0  0  0  0  0  0  0  0
    5.1178   -6.9296    0.9832 C   0  0  0  0  0  0  0  0  0  0  0  0
    5.2359  -10.3465    2.3647 O   0  0  0  0  0  0  0  0  0  0  0  0
    6.8437   -8.5040    1.5343 O   0  0  0  0  0  0  0  0  0  0  0  0
    4.7724   -9.1532    1.8692 N   0  0  0  0  0  0  0  0  0  0  0  0
    5.6470   -8.2533    1.4847 C   0  0  0  0  0  0  0  0  0  0  0  0
    4.4842  -10.9096    2.6072 H   0  0  0  0  0  0  0  0  0  0  0  0
    3.8061   -8.9764    1.8038 H   0  0  0  0  0  0  0  0  0  0  0  0
    6.2732   -1.5496   -1.5954 C   0  0  0  0  0  0  0  0  0  0  0  0
    6.0709   -0.2326   -0.8818 C   0  0  0  0  0  0  0  0  0  0  0  0
    5.8063    0.7798   -1.5123 O   0  0  0  0  0  0  0  0  0  0  0  0
    6.1901   -0.3120    0.4385 N   0  0  0  0  0  0  0  0  0  0  0  0
    6.4002   -1.2036    0.7993 H   0  0  0  0  0  0  0  0  0  0  0  0
    6.0535    0.7212    1.3879 C   0  0  0  0  0  0  0  0  0  0  0  0
    4.7651    1.0940    1.7345 C   0  0  0  0  0  0  0  0  0  0  0  0
    4.5416    2.0904    2.6791 C   0  0  0  0  0  0  0  0  0  0  0  0
    5.6162    2.6999    3.3101 C   0  0  0  0  0  0  0  0  0  0  0  0
    6.9072    2.3430    2.9719 C   0  0  0  0  0  0  0  0  0  0  0  0
    7.1270    1.3522    2.0279 C   0  0  0  0  0  0  0  0  0  0  0  0
  6  8  1  0  0  0
  7  9  2  0  0  0
  8  9  1  0  0  0
  9  5  1  0  0  0
  5  4  1  0  0  0
  4  3  1  0  0  0
  3  2  1  0  0  0
  2  1  1  0  0  0
  1 12  1  0  0  0
 12 13  1  0  0  0
 13 14  2  0  0  0
 13 15  1  0  0  0
 15 17  1  0  0  0
 17 18  2  0  0  0
 17 22  1  0  0  0
 18 19  1  0  0  0
 19 20  2  0  0  0
 20 21  1  0  0  0
 21 22  2  0  0  0
  6 10  1  0  0  0
  8 11  1  0  0  0
 15 16  1  0  0  0
M  END
> <minimizedAffinity>
-7.08104

$$$$
5EEI_SHH_A_2004


 22 22  0  0  0  0  0  0  0  0999 V2000
    5.9745   -2.2848   -0.3098 C   0  0  0  0  0  0  0  0  0  0  0  0
    5.3767   -3.6725   -0.4143 C   0  0  0  0  0  0  0  0  0  0  0  0
    6.4802   -4.6600   -0.7726 C   0  0  0  0  0  0  0  0  0  0  0  0
    6.0101   -6.0841   -0.5697 C   0  0  0  0  0  0  0  0  0  0  0  0
    5.5444   -6.2929    0.8544 C   0  0  0  0  0  0  0  0  0  0  0  0
    4.8264   -9.6932    2.0874 O   0  0  0  0  0  0  0  0  0  0  0  0
    6.8479   -8.2192    1.4470 O   0  0  0  0  0  0  0  0  0  0  0  0
    4.6668   -8.4138    1.6161 N   0  0  0  0  0  0  0  0  0  0  0  0
    5.7396   -7.7139    1.3302 C   0  0  0  0  0  0  0  0  0  0  0  0
    3.9558  -10.0870    2.2547 H   0  0  0  0  0  0  0  0  0  0  0  0
    3.7683   -8.0301    1.4953 H   0  0  0  0  0  0  0  0  0  0  0  0
    6.0897   -1.6448   -1.6859 C   0  0  0  0  0  0  0  0  0  0  0  0
    7.2198   -0.6415   -1.7098 C   0  0  0  0  0  0  0  0  0  0  0  0
    6.9940    0.5418   -1.9129 O   0  0  0  0  0  0  0  0  0  0  0  0
    8.4151   -1.1715   -1.4771 N   0  0  0  0  0  0  0  0  0  0  0  0
    8.4328   -2.1439   -1.3240 H   0  0  0  0  0  0  0  0  0  0  0  0
    9.6618   -0.5156   -1.4218 C   0  0  0  0  0  0  0  0  0  0  0  0
   10.0196    0.0598   -0.2135 C   0  0  0  0  0  0  0  0  0  0  0  0
   11.2416    0.7081   -0.0675 C   0  0  0  0  0  0  0  0  0  0  0  0
   12.1322    0.7546   -1.1301 C   0  0  0  0  0  0  0  0  0  0  0  0
   11.7881    0.1901   -2.3431 C   0  0  0  0  0  0  0  0  0  0  0  0
   10.5684   -0.4523   -2.4868 C   0  0  0  0  0  0  0  0  0  0  0  0
  6  8  1  0  0  0
  7  9  2  0  0  0
  8  9  1  0  0  0
  9  5  1  0  0  0
  5  4  1  0  0  0
  4  3  1  0  0  0
  3  2  1  0  0  0
  2  1  1  0  0  0
  1 12  1  0  0  0
 12 13  1  0  0  0
 13 14  2  0  0  0
 13 15  1  0  0  0
 15 17  1  0  0  0
 17 18  2  0  0  0
 17 22  1  0  0  0
 18 19  1  0  0  0
 19 20  2  0  0  0
 20 21  1  0  0  0
 21 22  2  0  0  0
  6 10  1  0  0  0
  8 11  1  0  0  0
 15 16  1  0  0  0
M  END
> <minimizedAffinity>
-7.08062

$$$$
5EEI_SHH_A_2004


 22 22  0  0  0  0  0  0  0  0999 V2000
    1.9336   -0.1666    0.4227 C   0  0  0  0  0  0  0  0  0  0  0  0
    1.5602    1.2353   -0.0119 C   0  0  0  0  0  0  0  0  0  0  0  0
    2.5395    2.2227    0.6103 C   0  0  0  0  0  0  0  0  0  0  0  0
    1.8053    3.4170    1.1803 C   0  0  0  0  0  0  0  0  0  0  0  0
    0.4854    2.9914    1.7848 C   0  0  0  0  0  0  0  0  0  0  0  0
    1.8335    2.7497    5.2085 O   0  0  0  0  0  0  0  0  0  0  0  0
   -0.4025    2.4571    3.9498 O   0  0  0  0  0  0  0  0  0  0  0  0
    1.7306    2.9722    3.8579 N   0  0  0  0  0  0  0  0  0  0  0  0
    0.5677    2.7835    3.2794 C   0  0  0  0  0  0  0  0  0  0  0  0
    2.7424    2.9273    5.4971 H   0  0  0  0  0  0  0  0  0  0  0  0
    2.5112    3.2666    3.3352 H   0  0  0  0  0  0  0  0  0  0  0  0
    3.0708   -0.1303    1.4336 C   0  0  0  0  0  0  0  0  0  0  0  0
    4.3243   -0.7327    0.8416 C   0  0  0  0  0  0  0  0  0  0  0  0
    5.3797   -0.1179    0.8681 O   0  0  0  0  0  0  0  0  0  0  0  0
    4.1505   -1.9487    0.3367 N   0  0  0  0  0  0  0  0  0  0  0  0
    3.2382   -2.3139    0.3971 H   0  0  0  0  0  0  0  0  0  0  0  0
    5.1093   -2.7818   -0.2749 C   0  0  0  0  0  0  0  0  0  0  0  0
    5.2190   -4.0767    0.2053 C   0  0  0  0  0  0  0  0  0  0  0  0
    6.1254   -4.9702   -0.3561 C   0  0  0  0  0  0  0  0  0  0  0  0
    6.9090   -4.5777   -1.4313 C   0  0  0  0  0  0  0  0  0  0  0  0
    6.8152   -3.2884   -1.9184 C   0  0  0  0  0  0  0  0  0  0  0  0
    5.9136   -2.3991   -1.3550 C   0  0  0  0  0  0  0  0  0  0  0  0
  6  8  1  0  0  0
  7  9  2  0  0  0
  8  9  1  0  0  0
  9  5  1  0  0  0
  5  4  1  0  0  0
  4  3  1  0  0  0
  3  2  1  0  0  0
  2  1  1  0  0  0
  1 12  1  0  0  0
 12 13  1  0  0  0
 13 14  2  0  0  0
 13 15  1  0  0  0
 15 17  1  0  0  0
 17 18  2  0  0  0
 17 22  1  0  0  0
 18 19  1  0  0  0
 19 20  2  0  0  0
 20 21  1  0  0  0
 21 22  2  0  0  0
  6 10  1  0  0  0
  8 11  1  0  0  0
 15 16  1  0  0  0
M  END
> <minimizedAffinity>
-6.85370

$$$$
5EEI_SHH_A_2004


 22 22  0  0  0  0  0  0  0  0999 V2000
    6.2566   -2.7588   -0.0239 C   0  0  0  0  0  0  0  0  0  0  0  0
    6.3265   -4.0239   -0.8536 C   0  0  0  0  0  0  0  0  0  0  0  0
    5.3556   -5.0469   -0.2772 C   0  0  0  0  0  0  0  0  0  0  0  0
    6.1012   -6.2530    0.2516 C   0  0  0  0  0  0  0  0  0  0  0  0
    5.2983   -6.9434    1.3320 C   0  0  0  0  0  0  0  0  0  0  0  0
    5.3740  -10.4870    2.3490 O   0  0  0  0  0  0  0  0  0  0  0  0
    6.9817   -8.6440    1.5198 O   0  0  0  0  0  0  0  0  0  0  0  0
    4.9272   -9.2287    2.0306 N   0  0  0  0  0  0  0  0  0  0  0  0
    5.8035   -8.3349    1.6359 C   0  0  0  0  0  0  0  0  0  0  0  0
    4.6231  -11.0373    2.6218 H   0  0  0  0  0  0  0  0  0  0  0  0
    3.9715   -9.0020    2.0967 H   0  0  0  0  0  0  0  0  0  0  0  0
    4.9400   -2.0331   -0.2614 C   0  0  0  0  0  0  0  0  0  0  0  0
    5.1688   -0.7687   -1.0573 C   0  0  0  0  0  0  0  0  0  0  0  0
    6.3031   -0.3928   -1.3112 O   0  0  0  0  0  0  0  0  0  0  0  0
    4.0501   -0.1639   -1.4401 N   0  0  0  0  0  0  0  0  0  0  0  0
    3.2101   -0.5954   -1.1618 H   0  0  0  0  0  0  0  0  0  0  0  0
    3.9153    1.0190   -2.1952 C   0  0  0  0  0  0  0  0  0  0  0  0
    3.7004    0.8781   -3.5565 C   0  0  0  0  0  0  0  0  0  0  0  0
    3.5358    1.9939   -4.3707 C   0  0  0  0  0  0  0  0  0  0  0  0
    3.5528    3.2650   -3.8155 C   0  0  0  0  0  0  0  0  0  0  0  0
    3.7712    3.4225   -2.4605 C   0  0  0  0  0  0  0  0  0  0  0  0
    3.9383    2.3091   -1.6520 C   0  0  0  0  0  0  0  0  0  0  0  0
  6  8  1  0  0  0
  7  9  2  0  0  0
  8  9  1  0  0  0
  9  5  1  0  0  0
  5  4  1  0  0  0
  4  3  1  0  0  0
  3  2  1  0  0  0
  2  1  1  0  0  0
  1 12  1  0  0  0
 12 13  1  0  0  0
 13 14  2  0  0  0
 13 15  1  0  0  0
 15 17  1  0  0  0
 17 18  2  0  0  0
 17 22  1  0  0  0
 18 19  1  0  0  0
 19 20  2  0  0  0
 20 21  1  0  0  0
 21 22  2  0  0  0
  6 10  1  0  0  0
  8 11  1  0  0  0
 15 16  1  0  0  0
M  END
> <minimizedAffinity>
-6.69264

$$$$
5EEI_SHH_A_2004


 22 22  0  0  0  0  0  0  0  0999 V2000
    2.0979    0.2523    0.3292 C   0  0  0  0  0  0  0  0  0  0  0  0
    2.6534    1.4312   -0.4424 C   0  0  0  0  0  0  0  0  0  0  0  0
    2.4018    1.2114   -1.9289 C   0  0  0  0  0  0  0  0  0  0  0  0
    3.6053    1.6344   -2.7433 C   0  0  0  0  0  0  0  0  0  0  0  0
    4.5265    0.4584   -2.9816 C   0  0  0  0  0  0  0  0  0  0  0  0
    8.1735    0.6215   -3.5016 O   0  0  0  0  0  0  0  0  0  0  0  0
    6.3768    1.5134   -1.8751 O   0  0  0  0  0  0  0  0  0  0  0  0
    6.8405    0.3435   -3.6751 N   0  0  0  0  0  0  0  0  0  0  0  0
    5.9842    0.8119   -2.7976 C   0  0  0  0  0  0  0  0  0  0  0  0
    8.6845    0.2153   -4.2191 H   0  0  0  0  0  0  0  0  0  0  0  0
    6.5338   -0.1948   -4.4401 H   0  0  0  0  0  0  0  0  0  0  0  0
    3.0614   -0.1720    1.4283 C   0  0  0  0  0  0  0  0  0  0  0  0
    4.3118   -0.7762    0.8317 C   0  0  0  0  0  0  0  0  0  0  0  0
    5.3622   -0.1526    0.8314 O   0  0  0  0  0  0  0  0  0  0  0  0
    4.1412   -2.0036    0.3540 N   0  0  0  0  0  0  0  0  0  0  0  0
    3.2329   -2.3748    0.4341 H   0  0  0  0  0  0  0  0  0  0  0  0
    5.0986   -2.8413   -0.2536 C   0  0  0  0  0  0  0  0  0  0  0  0
    5.1870   -4.1423    0.2142 C   0  0  0  0  0  0  0  0  0  0  0  0
    6.0906   -5.0403   -0.3445 C   0  0  0  0  0  0  0  0  0  0  0  0
    6.8930   -4.6457   -1.4050 C   0  0  0  0  0  0  0  0  0  0  0  0
    6.8205   -3.3503   -1.8797 C   0  0  0  0  0  0  0  0  0  0  0  0
    5.9216   -2.4566   -1.3188 C   0  0  0  0  0  0  0  0  0  0  0  0
  6  8  1  0  0  0
  7  9  2  0  0  0
  8  9  1  0  0  0
  9  5  1  0  0  0
  5  4  1  0  0  0
  4  3  1  0  0  0
  3  2  1  0  0  0
  2  1  1  0  0  0
  1 12  1  0  0  0
 12 13  1  0  0  0
 13 14  2  0  0  0
 13 15  1  0  0  0
 15 17  1  0  0  0
 17 18  2  0  0  0
 17 22  1  0  0  0
 18 19  1  0  0  0
 19 20  2  0  0  0
 20 21  1  0  0  0
 21 22  2  0  0  0
  6 10  1  0  0  0
  8 11  1  0  0  0
 15 16  1  0  0  0
M  END
> <minimizedAffinity>
-6.61701

$$$$
5EEI_SHH_A_2004


 22 22  0  0  0  0  0  0  0  0999 V2000
    6.4672   -1.6097   -1.0375 C   0  0  0  0  0  0  0  0  0  0  0  0
    6.9078   -3.0462   -1.2271 C   0  0  0  0  0  0  0  0  0  0  0  0
    5.7306   -3.9671   -0.9315 C   0  0  0  0  0  0  0  0  0  0  0  0
    6.2132   -5.2933   -0.3849 C   0  0  0  0  0  0  0  0  0  0  0  0
    5.0946   -6.0088    0.3399 C   0  0  0  0  0  0  0  0  0  0  0  0
    7.0955   -8.8599    1.5505 O   0  0  0  0  0  0  0  0  0  0  0  0
    5.0448   -7.4565    2.2537 O   0  0  0  0  0  0  0  0  0  0  0  0
    6.6532   -7.8002    0.7983 N   0  0  0  0  0  0  0  0  0  0  0  0
    5.5915   -7.1443    1.2045 C   0  0  0  0  0  0  0  0  0  0  0  0
    7.8814   -9.2465    1.1338 H   0  0  0  0  0  0  0  0  0  0  0  0
    7.1217   -7.5383   -0.0271 H   0  0  0  0  0  0  0  0  0  0  0  0
    7.5557   -0.8010   -0.3464 C   0  0  0  0  0  0  0  0  0  0  0  0
    8.6417   -0.4273   -1.3289 C   0  0  0  0  0  0  0  0  0  0  0  0
    8.3553   -0.0333   -2.4493 O   0  0  0  0  0  0  0  0  0  0  0  0
    9.8720   -0.5543   -0.8452 N   0  0  0  0  0  0  0  0  0  0  0  0
    9.9391   -0.8788    0.0819 H   0  0  0  0  0  0  0  0  0  0  0  0
   11.0940   -0.2826   -1.4936 C   0  0  0  0  0  0  0  0  0  0  0  0
   11.5652   -1.2381   -2.3791 C   0  0  0  0  0  0  0  0  0  0  0  0
   12.7523   -1.0393   -3.0763 C   0  0  0  0  0  0  0  0  0  0  0  0
   13.4617    0.1416   -2.9133 C   0  0  0  0  0  0  0  0  0  0  0  0
   13.0079    1.1020   -2.0301 C   0  0  0  0  0  0  0  0  0  0  0  0
   11.8264    0.8999   -1.3341 C   0  0  0  0  0  0  0  0  0  0  0  0
  6  8  1  0  0  0
  7  9  2  0  0  0
  8  9  1  0  0  0
  9  5  1  0  0  0
  5  4  1  0  0  0
  4  3  1  0  0  0
  3  2  1  0  0  0
  2  1  1  0  0  0
  1 12  1  0  0  0
 12 13  1  0  0  0
 13 14  2  0  0  0
 13 15  1  0  0  0
 15 17  1  0  0  0
 17 18  2  0  0  0
 17 22  1  0  0  0
 18 19  1  0  0  0
 19 20  2  0  0  0
 20 21  1  0  0  0
 21 22  2  0  0  0
  6 10  1  0  0  0
  8 11  1  0  0  0
 15 16  1  0  0  0
M  END
> <minimizedAffinity>
-6.57663

$$$$
5EEI_SHH_A_2004


 22 22  0  0  0  0  0  0  0  0999 V2000
    7.2382   -1.4021   -0.2650 C   0  0  0  0  0  0  0  0  0  0  0  0
    6.6227   -1.8548   -1.5726 C   0  0  0  0  0  0  0  0  0  0  0  0
    6.6917   -3.3748   -1.6509 C   0  0  0  0  0  0  0  0  0  0  0  0
    5.8758   -4.0050   -0.5430 C   0  0  0  0  0  0  0  0  0  0  0  0
    6.1254   -5.4957   -0.4801 C   0  0  0  0  0  0  0  0  0  0  0  0
    5.0461   -7.8724    2.1245 O   0  0  0  0  0  0  0  0  0  0  0  0
    5.9097   -5.4480    1.9100 O   0  0  0  0  0  0  0  0  0  0  0  0
    5.3862   -7.3318    0.9095 N   0  0  0  0  0  0  0  0  0  0  0  0
    5.7976   -6.0861    0.8719 C   0  0  0  0  0  0  0  0  0  0  0  0
    4.7628   -8.7919    2.0014 H   0  0  0  0  0  0  0  0  0  0  0  0
    5.3229   -7.8663    0.0851 H   0  0  0  0  0  0  0  0  0  0  0  0
    8.1297   -0.1880   -0.4832 C   0  0  0  0  0  0  0  0  0  0  0  0
    8.9889    0.0632    0.7347 C   0  0  0  0  0  0  0  0  0  0  0  0
    9.8076   -0.7676    1.0979 O   0  0  0  0  0  0  0  0  0  0  0  0
    8.7699    1.2377    1.3149 N   0  0  0  0  0  0  0  0  0  0  0  0
    8.0791    1.8019    0.8981 H   0  0  0  0  0  0  0  0  0  0  0  0
    9.4032    1.7772    2.4530 C   0  0  0  0  0  0  0  0  0  0  0  0
    8.7978    1.5525    3.6786 C   0  0  0  0  0  0  0  0  0  0  0  0
    9.3680    2.0322    4.8533 C   0  0  0  0  0  0  0  0  0  0  0  0
   10.5740    2.7162    4.8086 C   0  0  0  0  0  0  0  0  0  0  0  0
   11.1876    2.9530    3.5938 C   0  0  0  0  0  0  0  0  0  0  0  0
   10.6156    2.4768    2.4245 C   0  0  0  0  0  0  0  0  0  0  0  0
  6  8  1  0  0  0
  7  9  2  0  0  0
  8  9  1  0  0  0
  9  5  1  0  0  0
  5  4  1  0  0  0
  4  3  1  0  0  0
  3  2  1  0  0  0
  2  1  1  0  0  0
  1 12  1  0  0  0
 12 13  1  0  0  0
 13 14  2  0  0  0
 13 15  1  0  0  0
 15 17  1  0  0  0
 17 18  2  0  0  0
 17 22  1  0  0  0
 18 19  1  0  0  0
 19 20  2  0  0  0
 20 21  1  0  0  0
 21 22  2  0  0  0
  6 10  1  0  0  0
  8 11  1  0  0  0
 15 16  1  0  0  0
M  END
> <minimizedAffinity>
-6.57382

$$$$
