5QAY_X6P_A_301


 16 17  0  0  0  0  0  0  0  0999 V2000
    9.5886  -91.5271  152.3939 C   0  0  0  0  0  0  0  0  0  0  0  0
   10.0722  -91.0936  151.1635 C   0  0  0  0  0  0  0  0  0  0  0  0
   10.5064  -92.0123  150.2223 C   0  0  0  0  0  0  0  0  0  0  0  0
   10.4506  -93.3679  150.4981 C   0  0  0  0  0  0  0  0  0  0  0  0
    9.9571  -93.8149  151.7189 C   0  0  0  0  0  0  0  0  0  0  0  0
    9.5376  -92.8887  152.6672 C   0  0  0  0  0  0  0  0  0  0  0  0
    9.9174  -89.6612  154.0911 N   0  0  0  0  0  0  0  0  0  0  0  0
   11.3176  -89.3421  153.8119 C   0  0  0  0  0  0  0  0  0  0  0  0
    9.1166  -90.6066  153.4431 C   0  0  0  0  0  0  0  0  0  0  0  0
    7.9159  -89.5878  155.0616 C   0  0  0  0  0  0  0  0  0  0  0  0
    9.1716  -89.0571  155.0722 C   0  0  0  0  0  0  0  0  0  0  0  0
    7.8750  -90.5619  154.0394 C   0  0  0  0  0  0  0  0  0  0  0  0
   10.7990  -96.0457  151.8628 O   0  0  0  0  0  0  0  0  0  0  0  0
    9.7996  -95.2833  152.0072 C   0  0  0  0  0  0  0  0  0  0  0  0
    8.6682  -95.6464  152.3801 O   0  0  0  0  0  0  0  0  0  0  0  0
    7.9781  -95.0180  152.4624 H   0  0  0  0  0  0  0  0  0  0  0  0
  3  4  2  0  0  0
  3  2  1  0  0  0
  4  5  1  0  0  0
  2  1  2  0  0  0
 13 14  2  0  0  0
  8  7  1  0  0  0
  5 14  1  0  0  0
  5  6  2  0  0  0
  1  6  1  0  0  0
  1  9  1  0  0  0
 14 15  1  0  0  0
  7  9  1  0  0  0
  7 11  1  0  0  0
  9 12  2  0  0  0
 11 10  2  0  0  0
 12 10  1  0  0  0
 15 16  1  0  0  0
M  END
> <minimizedAffinity>
-6.63209

$$$$
5QAY_X6P_A_301


 16 17  0  0  0  0  0  0  0  0999 V2000
   11.6337  -91.9949  151.5621 C   0  0  0  0  0  0  0  0  0  0  0  0
   10.7285  -91.0928  152.1119 C   0  0  0  0  0  0  0  0  0  0  0  0
    9.5214  -91.5405  152.6227 C   0  0  0  0  0  0  0  0  0  0  0  0
    9.2151  -92.8904  152.5984 C   0  0  0  0  0  0  0  0  0  0  0  0
   10.1168  -93.8041  152.0637 C   0  0  0  0  0  0  0  0  0  0  0  0
   11.3203  -93.3486  151.5371 C   0  0  0  0  0  0  0  0  0  0  0  0
   13.2639  -91.6556  149.6392 N   0  0  0  0  0  0  0  0  0  0  0  0
   12.3939  -92.0471  148.5300 C   0  0  0  0  0  0  0  0  0  0  0  0
   12.9319  -91.5887  150.9958 C   0  0  0  0  0  0  0  0  0  0  0  0
   15.0923  -90.9922  150.7207 C   0  0  0  0  0  0  0  0  0  0  0  0
   14.5798  -91.2939  149.4940 C   0  0  0  0  0  0  0  0  0  0  0  0
   14.0611  -91.1751  151.6686 C   0  0  0  0  0  0  0  0  0  0  0  0
   10.7963  -96.0852  151.8618 O   0  0  0  0  0  0  0  0  0  0  0  0
    9.8488  -95.2840  152.1091 C   0  0  0  0  0  0  0  0  0  0  0  0
    8.6843  -95.6175  152.3985 O   0  0  0  0  0  0  0  0  0  0  0  0
    8.0375  -94.9611  152.5685 H   0  0  0  0  0  0  0  0  0  0  0  0
  3  4  2  0  0  0
  3  2  1  0  0  0
  4  5  1  0  0  0
  2  1  2  0  0  0
 13 14  2  0  0  0
  8  7  1  0  0  0
  5 14  1  0  0  0
  5  6  2  0  0  0
  1  6  1  0  0  0
  1  9  1  0  0  0
 14 15  1  0  0  0
  7  9  1  0  0  0
  7 11  1  0  0  0
  9 12  2  0  0  0
 11 10  2  0  0  0
 12 10  1  0  0  0
 15 16  1  0  0  0
M  END
> <minimizedAffinity>
-6.24097

$$$$
5QAY_X6P_A_301


 16 17  0  0  0  0  0  0  0  0999 V2000
   10.8956  -91.1943  151.2945 C   0  0  0  0  0  0  0  0  0  0  0  0
   11.7024  -90.1898  151.8195 C   0  0  0  0  0  0  0  0  0  0  0  0
   11.3849  -89.6040  153.0337 C   0  0  0  0  0  0  0  0  0  0  0  0
   10.2681  -90.0236  153.7362 C   0  0  0  0  0  0  0  0  0  0  0  0
    9.4607  -91.0358  153.2288 C   0  0  0  0  0  0  0  0  0  0  0  0
    9.7738  -91.6099  152.0018 C   0  0  0  0  0  0  0  0  0  0  0  0
   12.0122  -92.9601  149.8435 N   0  0  0  0  0  0  0  0  0  0  0  0
   12.7040  -93.7123  150.8904 C   0  0  0  0  0  0  0  0  0  0  0  0
   11.1694  -91.8565  150.0071 C   0  0  0  0  0  0  0  0  0  0  0  0
   11.3414  -92.3515  147.8106 C   0  0  0  0  0  0  0  0  0  0  0  0
   12.1066  -93.2419  148.5037 C   0  0  0  0  0  0  0  0  0  0  0  0
   10.7493  -91.4786  148.7502 C   0  0  0  0  0  0  0  0  0  0  0  0
    7.3150  -90.8106  154.2542 O   0  0  0  0  0  0  0  0  0  0  0  0
    8.2957  -91.5735  154.0148 C   0  0  0  0  0  0  0  0  0  0  0  0
    8.3853  -92.7618  154.3765 O   0  0  0  0  0  0  0  0  0  0  0  0
    9.1473  -93.2616  154.1587 H   0  0  0  0  0  0  0  0  0  0  0  0
  3  4  2  0  0  0
  3  2  1  0  0  0
  4  5  1  0  0  0
  2  1  2  0  0  0
 13 14  2  0  0  0
  8  7  1  0  0  0
  5 14  1  0  0  0
  5  6  2  0  0  0
  1  6  1  0  0  0
  1  9  1  0  0  0
 14 15  1  0  0  0
  7  9  1  0  0  0
  7 11  1  0  0  0
  9 12  2  0  0  0
 11 10  2  0  0  0
 12 10  1  0  0  0
 15 16  1  0  0  0
M  END
> <minimizedAffinity>
-6.20661

$$$$
5QAY_X6P_A_301


 16 17  0  0  0  0  0  0  0  0999 V2000
    9.9031  -91.7868  152.5824 C   0  0  0  0  0  0  0  0  0  0  0  0
    8.6560  -91.5317  152.0211 C   0  0  0  0  0  0  0  0  0  0  0  0
    7.8298  -90.5644  152.5688 C   0  0  0  0  0  0  0  0  0  0  0  0
    8.2466  -89.8388  153.6718 C   0  0  0  0  0  0  0  0  0  0  0  0
    9.4962  -90.0748  154.2344 C   0  0  0  0  0  0  0  0  0  0  0  0
   10.3157  -91.0580  153.6915 C   0  0  0  0  0  0  0  0  0  0  0  0
   10.6197  -94.1846  152.1274 N   0  0  0  0  0  0  0  0  0  0  0  0
    9.4390  -94.8779  152.6426 C   0  0  0  0  0  0  0  0  0  0  0  0
   10.8300  -92.8041  152.0563 C   0  0  0  0  0  0  0  0  0  0  0  0
   12.6382  -93.8826  151.2398 C   0  0  0  0  0  0  0  0  0  0  0  0
   11.7298  -94.8209  151.6310 C   0  0  0  0  0  0  0  0  0  0  0  0
   12.0780  -92.6130  151.5041 C   0  0  0  0  0  0  0  0  0  0  0  0
   10.9326  -88.4010  155.1514 O   0  0  0  0  0  0  0  0  0  0  0  0
   10.0102  -89.2378  155.3743 C   0  0  0  0  0  0  0  0  0  0  0  0
    9.4716  -89.4344  156.4799 O   0  0  0  0  0  0  0  0  0  0  0  0
    8.7925  -90.0747  156.5629 H   0  0  0  0  0  0  0  0  0  0  0  0
  3  4  2  0  0  0
  3  2  1  0  0  0
  4  5  1  0  0  0
  2  1  2  0  0  0
 13 14  2  0  0  0
  8  7  1  0  0  0
  5 14  1  0  0  0
  5  6  2  0  0  0
  1  6  1  0  0  0
  1  9  1  0  0  0
 14 15  1  0  0  0
  7  9  1  0  0  0
  7 11  1  0  0  0
  9 12  2  0  0  0
 11 10  2  0  0  0
 12 10  1  0  0  0
 15 16  1  0  0  0
M  END
> <minimizedAffinity>
-6.08467

$$$$
5QAY_X6P_A_301


 16 17  0  0  0  0  0  0  0  0999 V2000
   11.2446  -91.7704  150.9456 C   0  0  0  0  0  0  0  0  0  0  0  0
   11.4576  -92.2665  149.6634 C   0  0  0  0  0  0  0  0  0  0  0  0
   11.1076  -93.5703  149.3534 C   0  0  0  0  0  0  0  0  0  0  0  0
   10.5336  -94.3827  150.3163 C   0  0  0  0  0  0  0  0  0  0  0  0
   10.3032  -93.8950  151.5981 C   0  0  0  0  0  0  0  0  0  0  0  0
   10.6710  -92.5908  151.9096 C   0  0  0  0  0  0  0  0  0  0  0  0
   12.8796  -89.9824  151.7203 N   0  0  0  0  0  0  0  0  0  0  0  0
   14.1087  -90.7758  151.7084 C   0  0  0  0  0  0  0  0  0  0  0  0
   11.5977  -90.3973  151.3466 C   0  0  0  0  0  0  0  0  0  0  0  0
   11.5255  -88.2403  152.0108 C   0  0  0  0  0  0  0  0  0  0  0  0
   12.8136  -88.6724  152.1239 C   0  0  0  0  0  0  0  0  0  0  0  0
   10.7567  -89.3199  151.5221 C   0  0  0  0  0  0  0  0  0  0  0  0
    8.7569  -94.1674  153.3982 O   0  0  0  0  0  0  0  0  0  0  0  0
    9.5971  -94.7261  152.6348 C   0  0  0  0  0  0  0  0  0  0  0  0
    9.8982  -95.9342  152.6611 O   0  0  0  0  0  0  0  0  0  0  0  0
   10.5324  -96.2722  152.0599 H   0  0  0  0  0  0  0  0  0  0  0  0
  3  4  2  0  0  0
  3  2  1  0  0  0
  4  5  1  0  0  0
  2  1  2  0  0  0
 13 14  2  0  0  0
  8  7  1  0  0  0
  5 14  1  0  0  0
  5  6  2  0  0  0
  1  6  1  0  0  0
  1  9  1  0  0  0
 14 15  1  0  0  0
  7  9  1  0  0  0
  7 11  1  0  0  0
  9 12  2  0  0  0
 11 10  2  0  0  0
 12 10  1  0  0  0
 15 16  1  0  0  0
M  END
> <minimizedAffinity>
-6.05488

$$$$
5QAY_X6P_A_301


 16 17  0  0  0  0  0  0  0  0999 V2000
   11.0704  -93.2518  149.6413 C   0  0  0  0  0  0  0  0  0  0  0  0
   12.0475  -93.6344  150.5548 C   0  0  0  0  0  0  0  0  0  0  0  0
   11.9540  -93.2431  151.8802 C   0  0  0  0  0  0  0  0  0  0  0  0
   10.8809  -92.4779  152.3041 C   0  0  0  0  0  0  0  0  0  0  0  0
    9.8907  -92.0998  151.4039 C   0  0  0  0  0  0  0  0  0  0  0  0
    9.9969  -92.4810  150.0710 C   0  0  0  0  0  0  0  0  0  0  0  0
   10.7624  -94.8846  147.7153 N   0  0  0  0  0  0  0  0  0  0  0  0
   10.2261  -96.0219  148.4632 C   0  0  0  0  0  0  0  0  0  0  0  0
   11.1093  -93.6264  148.2168 C   0  0  0  0  0  0  0  0  0  0  0  0
   11.5080  -93.6857  145.9949 C   0  0  0  0  0  0  0  0  0  0  0  0
   11.0155  -94.9015  146.3666 C   0  0  0  0  0  0  0  0  0  0  0  0
   11.5686  -92.8798  147.1535 C   0  0  0  0  0  0  0  0  0  0  0  0
    8.8128  -90.2055  152.3814 O   0  0  0  0  0  0  0  0  0  0  0  0
    8.6686  -91.3480  151.8572 C   0  0  0  0  0  0  0  0  0  0  0  0
    7.5782  -91.9208  151.6736 O   0  0  0  0  0  0  0  0  0  0  0  0
    7.5557  -92.7697  151.2776 H   0  0  0  0  0  0  0  0  0  0  0  0
  3  4  2  0  0  0
  3  2  1  0  0  0
  4  5  1  0  0  0
  2  1  2  0  0  0
 13 14  2  0  0  0
  8  7  1  0  0  0
  5 14  1  0  0  0
  5  6  2  0  0  0
  1  6  1  0  0  0
  1  9  1  0  0  0
 14 15  1  0  0  0
  7  9  1  0  0  0
  7 11  1  0  0  0
  9 12  2  0  0  0
 11 10  2  0  0  0
 12 10  1  0  0  0
 15 16  1  0  0  0
M  END
> <minimizedAffinity>
-6.04192

$$$$
5QAY_X6P_A_301


 16 17  0  0  0  0  0  0  0  0999 V2000
   11.9035  -95.3716  149.9620 C   0  0  0  0  0  0  0  0  0  0  0  0
   12.8420  -94.4300  150.3720 C   0  0  0  0  0  0  0  0  0  0  0  0
   12.5772  -93.6077  151.4546 C   0  0  0  0  0  0  0  0  0  0  0  0
   11.3807  -93.7270  152.1409 C   0  0  0  0  0  0  0  0  0  0  0  0
   10.4397  -94.6732  151.7494 C   0  0  0  0  0  0  0  0  0  0  0  0
   10.7025  -95.4854  150.6521 C   0  0  0  0  0  0  0  0  0  0  0  0
   11.7266  -95.9963  147.5026 N   0  0  0  0  0  0  0  0  0  0  0  0
   11.1279  -94.7615  146.9954 C   0  0  0  0  0  0  0  0  0  0  0  0
   12.1156  -96.2738  148.8166 C   0  0  0  0  0  0  0  0  0  0  0  0
   12.5441  -98.0662  147.5116 C   0  0  0  0  0  0  0  0  0  0  0  0
   11.9911  -97.0977  146.7276 C   0  0  0  0  0  0  0  0  0  0  0  0
   12.6255  -97.5541  148.8256 C   0  0  0  0  0  0  0  0  0  0  0  0
    8.8701  -94.0593  153.4422 O   0  0  0  0  0  0  0  0  0  0  0  0
    9.1732  -94.8860  152.5336 C   0  0  0  0  0  0  0  0  0  0  0  0
    8.4989  -95.8842  152.2178 O   0  0  0  0  0  0  0  0  0  0  0  0
    8.7928  -96.4500  151.5311 H   0  0  0  0  0  0  0  0  0  0  0  0
  3  4  2  0  0  0
  3  2  1  0  0  0
  4  5  1  0  0  0
  2  1  2  0  0  0
 13 14  2  0  0  0
  8  7  1  0  0  0
  5 14  1  0  0  0
  5  6  2  0  0  0
  1  6  1  0  0  0
  1  9  1  0  0  0
 14 15  1  0  0  0
  7  9  1  0  0  0
  7 11  1  0  0  0
  9 12  2  0  0  0
 11 10  2  0  0  0
 12 10  1  0  0  0
 15 16  1  0  0  0
M  END
> <minimizedAffinity>
-6.00135

$$$$
5QAY_X6P_A_301


 16 17  0  0  0  0  0  0  0  0999 V2000
   11.4590  -92.1072  151.6597 C   0  0  0  0  0  0  0  0  0  0  0  0
   12.0873  -90.8758  151.8164 C   0  0  0  0  0  0  0  0  0  0  0  0
   11.5174  -89.8993  152.6165 C   0  0  0  0  0  0  0  0  0  0  0  0
   10.3245  -90.1489  153.2734 C   0  0  0  0  0  0  0  0  0  0  0  0
    9.6930  -91.3802  153.1357 C   0  0  0  0  0  0  0  0  0  0  0  0
   10.2600  -92.3517  152.3185 C   0  0  0  0  0  0  0  0  0  0  0  0
   11.8528  -93.2715  149.4327 N   0  0  0  0  0  0  0  0  0  0  0  0
   11.2187  -92.2938  148.5482 C   0  0  0  0  0  0  0  0  0  0  0  0
   12.0044  -93.1882  150.8202 C   0  0  0  0  0  0  0  0  0  0  0  0
   12.9019  -95.1241  150.0812 C   0  0  0  0  0  0  0  0  0  0  0  0
   12.4002  -94.4550  149.0045 C   0  0  0  0  0  0  0  0  0  0  0  0
   12.6566  -94.3326  151.2252 C   0  0  0  0  0  0  0  0  0  0  0  0
    7.5635  -90.8148  154.0583 O   0  0  0  0  0  0  0  0  0  0  0  0
    8.4459  -91.7094  153.9107 C   0  0  0  0  0  0  0  0  0  0  0  0
    8.3728  -92.8698  154.3566 O   0  0  0  0  0  0  0  0  0  0  0  0
    9.0713  -93.4754  154.2037 H   0  0  0  0  0  0  0  0  0  0  0  0
  3  4  2  0  0  0
  3  2  1  0  0  0
  4  5  1  0  0  0
  2  1  2  0  0  0
 13 14  2  0  0  0
  8  7  1  0  0  0
  5 14  1  0  0  0
  5  6  2  0  0  0
  1  6  1  0  0  0
  1  9  1  0  0  0
 14 15  1  0  0  0
  7  9  1  0  0  0
  7 11  1  0  0  0
  9 12  2  0  0  0
 11 10  2  0  0  0
 12 10  1  0  0  0
 15 16  1  0  0  0
M  END
> <minimizedAffinity>
-5.98118

$$$$
5QAY_X6P_A_301


 16 17  0  0  0  0  0  0  0  0999 V2000
   11.7256  -94.7216  149.4966 C   0  0  0  0  0  0  0  0  0  0  0  0
   12.9396  -94.5736  150.1599 C   0  0  0  0  0  0  0  0  0  0  0  0
   12.9696  -94.4468  151.5388 C   0  0  0  0  0  0  0  0  0  0  0  0
   11.7910  -94.4778  152.2647 C   0  0  0  0  0  0  0  0  0  0  0  0
   10.5720  -94.6384  151.6151 C   0  0  0  0  0  0  0  0  0  0  0  0
   10.5451  -94.7489  150.2294 C   0  0  0  0  0  0  0  0  0  0  0  0
   11.5650  -93.7827  147.1380 N   0  0  0  0  0  0  0  0  0  0  0  0
   11.6861  -92.3585  147.4500 C   0  0  0  0  0  0  0  0  0  0  0  0
   11.6188  -94.8554  148.0332 C   0  0  0  0  0  0  0  0  0  0  0  0
   11.2986  -95.6391  145.9398 C   0  0  0  0  0  0  0  0  0  0  0  0
   11.3662  -94.2791  145.8740 C   0  0  0  0  0  0  0  0  0  0  0  0
   11.4573  -96.0074  147.2943 C   0  0  0  0  0  0  0  0  0  0  0  0
    8.7076  -93.7185  152.7914 O   0  0  0  0  0  0  0  0  0  0  0  0
    9.2868  -94.7681  152.3869 C   0  0  0  0  0  0  0  0  0  0  0  0
    8.8773  -95.9298  152.5706 O   0  0  0  0  0  0  0  0  0  0  0  0
    9.3659  -96.6569  152.2379 H   0  0  0  0  0  0  0  0  0  0  0  0
  3  4  2  0  0  0
  3  2  1  0  0  0
  4  5  1  0  0  0
  2  1  2  0  0  0
 13 14  2  0  0  0
  8  7  1  0  0  0
  5 14  1  0  0  0
  5  6  2  0  0  0
  1  6  1  0  0  0
  1  9  1  0  0  0
 14 15  1  0  0  0
  7  9  1  0  0  0
  7 11  1  0  0  0
  9 12  2  0  0  0
 11 10  2  0  0  0
 12 10  1  0  0  0
 15 16  1  0  0  0
M  END
> <minimizedAffinity>
-5.78908

$$$$
5QAY_X6P_A_301


 16 17  0  0  0  0  0  0  0  0999 V2000
    9.8436  -91.2530  151.5910 C   0  0  0  0  0  0  0  0  0  0  0  0
    8.5567  -91.4123  152.0949 C   0  0  0  0  0  0  0  0  0  0  0  0
    8.1967  -90.8115  153.2898 C   0  0  0  0  0  0  0  0  0  0  0  0
    9.1138  -90.0399  153.9829 C   0  0  0  0  0  0  0  0  0  0  0  0
   10.3994  -89.8619  153.4835 C   0  0  0  0  0  0  0  0  0  0  0  0
   10.7616  -90.4802  152.2920 C   0  0  0  0  0  0  0  0  0  0  0  0
   10.5650  -93.2292  150.1611 N   0  0  0  0  0  0  0  0  0  0  0  0
   10.3761  -94.3004  151.1395 C   0  0  0  0  0  0  0  0  0  0  0  0
   10.2966  -91.8675  150.3308 C   0  0  0  0  0  0  0  0  0  0  0  0
   11.1059  -92.2206  148.2524 C   0  0  0  0  0  0  0  0  0  0  0  0
   11.0589  -93.4219  148.8953 C   0  0  0  0  0  0  0  0  0  0  0  0
   10.6274  -91.2398  149.1494 C   0  0  0  0  0  0  0  0  0  0  0  0
   11.0117  -88.3051  155.1885 O   0  0  0  0  0  0  0  0  0  0  0  0
   11.3848  -88.9543  154.1687 C   0  0  0  0  0  0  0  0  0  0  0  0
   12.5248  -88.9129  153.6692 O   0  0  0  0  0  0  0  0  0  0  0  0
   12.7228  -89.4258  152.9105 H   0  0  0  0  0  0  0  0  0  0  0  0
  3  4  2  0  0  0
  3  2  1  0  0  0
  4  5  1  0  0  0
  2  1  2  0  0  0
 13 14  2  0  0  0
  8  7  1  0  0  0
  5 14  1  0  0  0
  5  6  2  0  0  0
  1  6  1  0  0  0
  1  9  1  0  0  0
 14 15  1  0  0  0
  7  9  1  0  0  0
  7 11  1  0  0  0
  9 12  2  0  0  0
 11 10  2  0  0  0
 12 10  1  0  0  0
 15 16  1  0  0  0
M  END
> <minimizedAffinity>
-5.75750

$$$$
