4ZEK_LAH_A_601


 21 21  0  0  0  0  0  0  0  0999 V2000
  -15.6757  -27.5163   17.9398 C   0  0  0  0  0  0  0  0  0  0  0  0
  -14.2466  -27.4305   17.7840 C   0  0  0  0  0  0  0  0  0  0  0  0
  -13.5587  -27.5579   19.0942 O   0  0  0  0  0  0  0  0  0  0  0  0
  -13.6622  -28.3317   16.8614 C   0  0  0  0  0  0  0  0  0  0  0  0
  -13.6250  -29.6694   17.3892 O   0  0  0  0  0  0  0  0  0  0  0  0
  -14.4034  -28.3969   15.5417 C   0  0  0  0  0  0  0  0  0  0  0  0
  -15.8061  -28.4869   15.7253 O   0  0  0  0  0  0  0  0  0  0  0  0
  -16.3434  -27.5090   16.5835 C   0  0  0  0  0  0  0  0  0  0  0  0
  -17.6937  -27.7200   16.6961 O   0  0  0  0  0  0  0  0  0  0  0  0
  -13.7066  -28.4472   19.4520 H   0  0  0  0  0  0  0  0  0  0  0  0
  -14.5308  -29.9869   17.5296 H   0  0  0  0  0  0  0  0  0  0  0  0
  -17.8532  -28.5980   17.0764 H   0  0  0  0  0  0  0  0  0  0  0  0
  -16.1792  -26.3845   18.6868 O   0  0  0  0  0  0  0  0  0  0  0  0
  -16.7236  -26.4409   20.1721 P   0  0  0  0  0  0  0  0  0  0  0  0
  -17.7245  -27.5575   20.3332 O   0  0  0  0  0  0  0  0  0  0  0  0
  -17.3887  -25.1280   20.4275 O   0  0  0  0  0  0  0  0  0  0  0  0
  -18.1043  -24.9978   19.7858 H   0  0  0  0  0  0  0  0  0  0  0  0
  -15.5661  -26.6551   21.2075 O   0  0  0  0  0  0  0  0  0  0  0  0
  -13.7039  -25.2955   22.0150 C   0  0  0  0  0  0  0  0  0  0  0  0
  -15.1845  -25.6570   22.0953 C   0  0  0  0  0  0  0  0  0  0  0  0
  -15.7327  -25.8258   23.4781 C   0  0  0  0  0  0  0  0  0  0  0  0
  6  7  1  0  0  0
  6  4  1  0  0  0
  7  8  1  0  0  0
  8  9  1  0  0  0
  8  1  1  0  0  0
  4  5  1  0  0  0
  4  2  1  0  0  0
  2  1  1  0  0  0
  2  3  1  0  0  0
  1 13  1  0  0  0
 13 14  1  0  0  0
 14 15  2  0  0  0
 14 16  1  0  0  0
 14 18  1  0  0  0
 18 20  1  0  0  0
 19 20  1  0  0  0
 20 21  1  0  0  0
 16 17  1  0  0  0
  3 10  1  0  0  0
  5 11  1  0  0  0
  9 12  1  0  0  0
M  END
> <minimizedAffinity>
-8.13106

$$$$
4ZEK_LAH_A_601


 21 21  0  0  0  0  0  0  0  0999 V2000
  -15.3747  -27.5276   18.5441 C   0  0  0  0  0  0  0  0  0  0  0  0
  -14.1830  -28.0831   17.9566 C   0  0  0  0  0  0  0  0  0  0  0  0
  -13.3735  -28.8035   18.9724 O   0  0  0  0  0  0  0  0  0  0  0  0
  -14.3719  -28.9215   16.8313 C   0  0  0  0  0  0  0  0  0  0  0  0
  -14.8998  -30.2030   17.2168 O   0  0  0  0  0  0  0  0  0  0  0  0
  -15.3258  -28.3393   15.8084 C   0  0  0  0  0  0  0  0  0  0  0  0
  -16.4914  -27.8059   16.4137 O   0  0  0  0  0  0  0  0  0  0  0  0
  -16.2393  -26.9093   17.4691 C   0  0  0  0  0  0  0  0  0  0  0  0
  -17.4395  -26.4881   17.9816 O   0  0  0  0  0  0  0  0  0  0  0  0
  -13.8659  -29.5768   19.2892 H   0  0  0  0  0  0  0  0  0  0  0  0
  -15.7795  -30.0858   17.6084 H   0  0  0  0  0  0  0  0  0  0  0  0
  -17.9305  -27.2514   18.3241 H   0  0  0  0  0  0  0  0  0  0  0  0
  -15.0420  -26.4901   19.4956 O   0  0  0  0  0  0  0  0  0  0  0  0
  -15.3963  -26.5189   21.0381 P   0  0  0  0  0  0  0  0  0  0  0  0
  -14.5278  -27.5125   21.7682 O   0  0  0  0  0  0  0  0  0  0  0  0
  -16.8276  -26.9352   21.1343 O   0  0  0  0  0  0  0  0  0  0  0  0
  -16.9394  -27.8062   20.7222 H   0  0  0  0  0  0  0  0  0  0  0  0
  -15.2114  -25.1113   21.7031 O   0  0  0  0  0  0  0  0  0  0  0  0
  -15.5653  -25.3072   24.1124 C   0  0  0  0  0  0  0  0  0  0  0  0
  -14.6297  -24.9648   22.9562 C   0  0  0  0  0  0  0  0  0  0  0  0
  -13.8374  -23.7051   23.1195 C   0  0  0  0  0  0  0  0  0  0  0  0
  6  7  1  0  0  0
  6  4  1  0  0  0
  7  8  1  0  0  0
  8  9  1  0  0  0
  8  1  1  0  0  0
  4  5  1  0  0  0
  4  2  1  0  0  0
  2  1  1  0  0  0
  2  3  1  0  0  0
  1 13  1  0  0  0
 13 14  1  0  0  0
 14 15  2  0  0  0
 14 16  1  0  0  0
 14 18  1  0  0  0
 18 20  1  0  0  0
 19 20  1  0  0  0
 20 21  1  0  0  0
 16 17  1  0  0  0
  3 10  1  0  0  0
  5 11  1  0  0  0
  9 12  1  0  0  0
M  END
> <minimizedAffinity>
-7.80354

$$$$
4ZEK_LAH_A_601


 21 21  0  0  0  0  0  0  0  0999 V2000
  -15.5093  -27.5097   18.5878 C   0  0  0  0  0  0  0  0  0  0  0  0
  -14.2577  -28.0355   18.1075 C   0  0  0  0  0  0  0  0  0  0  0  0
  -13.5084  -28.7094   19.1986 O   0  0  0  0  0  0  0  0  0  0  0  0
  -14.3301  -28.9005   16.9888 C   0  0  0  0  0  0  0  0  0  0  0  0
  -14.8454  -30.1917   17.3587 O   0  0  0  0  0  0  0  0  0  0  0  0
  -15.2182  -28.3698   15.8821 C   0  0  0  0  0  0  0  0  0  0  0  0
  -16.4446  -27.8648   16.3827 O   0  0  0  0  0  0  0  0  0  0  0  0
  -16.3056  -26.9408   17.4355 C   0  0  0  0  0  0  0  0  0  0  0  0
  -17.5555  -26.5509   17.8433 O   0  0  0  0  0  0  0  0  0  0  0  0
  -13.9993  -29.4928   19.4920 H   0  0  0  0  0  0  0  0  0  0  0  0
  -15.7566  -30.0969   17.6775 H   0  0  0  0  0  0  0  0  0  0  0  0
  -18.0473  -27.3237   18.1622 H   0  0  0  0  0  0  0  0  0  0  0  0
  -15.2864  -26.4441   19.5403 O   0  0  0  0  0  0  0  0  0  0  0  0
  -16.0084  -26.3076   20.9424 P   0  0  0  0  0  0  0  0  0  0  0  0
  -17.5067  -26.2778   20.7721 O   0  0  0  0  0  0  0  0  0  0  0  0
  -15.5430  -25.0168   21.5324 O   0  0  0  0  0  0  0  0  0  0  0  0
  -15.7728  -24.2871   20.9360 H   0  0  0  0  0  0  0  0  0  0  0  0
  -15.6389  -27.4897   21.9036 O   0  0  0  0  0  0  0  0  0  0  0  0
  -13.5199  -28.0664   22.9739 C   0  0  0  0  0  0  0  0  0  0  0  0
  -14.8385  -27.2995   23.0231 C   0  0  0  0  0  0  0  0  0  0  0  0
  -15.5776  -27.3709   24.3230 C   0  0  0  0  0  0  0  0  0  0  0  0
  6  7  1  0  0  0
  6  4  1  0  0  0
  7  8  1  0  0  0
  8  9  1  0  0  0
  8  1  1  0  0  0
  4  5  1  0  0  0
  4  2  1  0  0  0
  2  1  1  0  0  0
  2  3  1  0  0  0
  1 13  1  0  0  0
 13 14  1  0  0  0
 14 15  2  0  0  0
 14 16  1  0  0  0
 14 18  1  0  0  0
 18 20  1  0  0  0
 19 20  1  0  0  0
 20 21  1  0  0  0
 16 17  1  0  0  0
  3 10  1  0  0  0
  5 11  1  0  0  0
  9 12  1  0  0  0
M  END
> <minimizedAffinity>
-7.63641

$$$$
4ZEK_LAH_A_601


 21 21  0  0  0  0  0  0  0  0999 V2000
  -15.2491  -26.9046   19.2008 C   0  0  0  0  0  0  0  0  0  0  0  0
  -14.0413  -27.4172   19.7942 C   0  0  0  0  0  0  0  0  0  0  0  0
  -12.9371  -27.4629   18.8018 O   0  0  0  0  0  0  0  0  0  0  0  0
  -13.5898  -26.7586   20.9635 C   0  0  0  0  0  0  0  0  0  0  0  0
  -13.0126  -25.4781   20.6525 O   0  0  0  0  0  0  0  0  0  0  0  0
  -14.6929  -26.5136   21.9726 C   0  0  0  0  0  0  0  0  0  0  0  0
  -15.8664  -26.0040   21.3621 O   0  0  0  0  0  0  0  0  0  0  0  0
  -16.3184  -26.7518   20.2585 C   0  0  0  0  0  0  0  0  0  0  0  0
  -17.4365  -26.1445   19.7469 O   0  0  0  0  0  0  0  0  0  0  0  0
  -12.7063  -26.5599   18.5332 H   0  0  0  0  0  0  0  0  0  0  0  0
  -13.6926  -24.9009   20.2712 H   0  0  0  0  0  0  0  0  0  0  0  0
  -17.2113  -25.2482   19.4521 H   0  0  0  0  0  0  0  0  0  0  0  0
  -15.7507  -27.8126   18.1925 O   0  0  0  0  0  0  0  0  0  0  0  0
  -16.3834  -27.3790   16.8078 P   0  0  0  0  0  0  0  0  0  0  0  0
  -15.9193  -25.9984   16.4162 O   0  0  0  0  0  0  0  0  0  0  0  0
  -17.8642  -27.3756   17.0035 O   0  0  0  0  0  0  0  0  0  0  0  0
  -18.0950  -26.7577   17.7147 H   0  0  0  0  0  0  0  0  0  0  0  0
  -16.0062  -28.3767   15.6589 O   0  0  0  0  0  0  0  0  0  0  0  0
  -13.5632  -28.3789   15.6717 C   0  0  0  0  0  0  0  0  0  0  0  0
  -14.8674  -29.1699   15.7232 C   0  0  0  0  0  0  0  0  0  0  0  0
  -14.9186  -30.3858   14.8514 C   0  0  0  0  0  0  0  0  0  0  0  0
  6  7  1  0  0  0
  6  4  1  0  0  0
  7  8  1  0  0  0
  8  9  1  0  0  0
  8  1  1  0  0  0
  4  5  1  0  0  0
  4  2  1  0  0  0
  2  1  1  0  0  0
  2  3  1  0  0  0
  1 13  1  0  0  0
 13 14  1  0  0  0
 14 15  2  0  0  0
 14 16  1  0  0  0
 14 18  1  0  0  0
 18 20  1  0  0  0
 19 20  1  0  0  0
 20 21  1  0  0  0
 16 17  1  0  0  0
  3 10  1  0  0  0
  5 11  1  0  0  0
  9 12  1  0  0  0
M  END
> <minimizedAffinity>
-7.37478

$$$$
4ZEK_LAH_A_601


 21 21  0  0  0  0  0  0  0  0999 V2000
  -14.8939  -27.0520   19.0120 C   0  0  0  0  0  0  0  0  0  0  0  0
  -15.9904  -27.5693   18.2349 C   0  0  0  0  0  0  0  0  0  0  0  0
  -17.2424  -26.8206   18.5146 O   0  0  0  0  0  0  0  0  0  0  0  0
  -15.7896  -27.6347   16.8348 C   0  0  0  0  0  0  0  0  0  0  0  0
  -15.8508  -26.3280   16.2362 O   0  0  0  0  0  0  0  0  0  0  0  0
  -14.4521  -28.2347   16.4525 C   0  0  0  0  0  0  0  0  0  0  0  0
  -13.3913  -27.7032   17.2283 O   0  0  0  0  0  0  0  0  0  0  0  0
  -13.6102  -27.7466   18.6182 C   0  0  0  0  0  0  0  0  0  0  0  0
  -12.5302  -27.1840   19.2489 O   0  0  0  0  0  0  0  0  0  0  0  0
  -17.1460  -25.9045   18.2107 H   0  0  0  0  0  0  0  0  0  0  0  0
  -15.1279  -25.7805   16.5805 H   0  0  0  0  0  0  0  0  0  0  0  0
  -12.4389  -26.2593   18.9707 H   0  0  0  0  0  0  0  0  0  0  0  0
  -15.1092  -27.2869   20.4230 O   0  0  0  0  0  0  0  0  0  0  0  0
  -15.5541  -26.1893   21.4733 P   0  0  0  0  0  0  0  0  0  0  0  0
  -16.5554  -25.2403   20.8640 O   0  0  0  0  0  0  0  0  0  0  0  0
  -14.3173  -25.4418   21.8513 O   0  0  0  0  0  0  0  0  0  0  0  0
  -13.9249  -25.0441   21.0584 H   0  0  0  0  0  0  0  0  0  0  0  0
  -16.1916  -26.8338   22.7524 O   0  0  0  0  0  0  0  0  0  0  0  0
  -14.7911  -27.7911   24.5103 C   0  0  0  0  0  0  0  0  0  0  0  0
  -15.6547  -26.6331   24.0179 C   0  0  0  0  0  0  0  0  0  0  0  0
  -16.6272  -26.0848   25.0152 C   0  0  0  0  0  0  0  0  0  0  0  0
  6  7  1  0  0  0
  6  4  1  0  0  0
  7  8  1  0  0  0
  8  9  1  0  0  0
  8  1  1  0  0  0
  4  5  1  0  0  0
  4  2  1  0  0  0
  2  1  1  0  0  0
  2  3  1  0  0  0
  1 13  1  0  0  0
 13 14  1  0  0  0
 14 15  2  0  0  0
 14 16  1  0  0  0
 14 18  1  0  0  0
 18 20  1  0  0  0
 19 20  1  0  0  0
 20 21  1  0  0  0
 16 17  1  0  0  0
  3 10  1  0  0  0
  5 11  1  0  0  0
  9 12  1  0  0  0
M  END
> <minimizedAffinity>
-6.96252

$$$$
4ZEK_LAH_A_601


 21 21  0  0  0  0  0  0  0  0999 V2000
  -14.9561  -27.0137   19.1423 C   0  0  0  0  0  0  0  0  0  0  0  0
  -15.9345  -27.7252   18.3610 C   0  0  0  0  0  0  0  0  0  0  0  0
  -17.2772  -27.1042   18.4938 O   0  0  0  0  0  0  0  0  0  0  0  0
  -15.6344  -27.8971   16.9879 C   0  0  0  0  0  0  0  0  0  0  0  0
  -15.7991  -26.6679   16.2588 O   0  0  0  0  0  0  0  0  0  0  0  0
  -14.2164  -28.3706   16.7429 C   0  0  0  0  0  0  0  0  0  0  0  0
  -13.2750  -27.6494   17.5197 O   0  0  0  0  0  0  0  0  0  0  0  0
  -13.5802  -27.5881   18.8925 C   0  0  0  0  0  0  0  0  0  0  0  0
  -12.6134  -26.8476   19.5230 O   0  0  0  0  0  0  0  0  0  0  0  0
  -17.2623  -26.2155   18.1054 H   0  0  0  0  0  0  0  0  0  0  0  0
  -15.1656  -26.0104   16.5864 H   0  0  0  0  0  0  0  0  0  0  0  0
  -12.6062  -25.9484   19.1590 H   0  0  0  0  0  0  0  0  0  0  0  0
  -15.2381  -27.1395   20.5555 O   0  0  0  0  0  0  0  0  0  0  0  0
  -15.8046  -25.9854   21.4791 P   0  0  0  0  0  0  0  0  0  0  0  0
  -16.3594  -26.5508   22.7625 O   0  0  0  0  0  0  0  0  0  0  0  0
  -16.8984  -25.3249   20.7056 O   0  0  0  0  0  0  0  0  0  0  0  0
  -17.5803  -25.9792   20.4868 H   0  0  0  0  0  0  0  0  0  0  0  0
  -14.7002  -24.9311   21.8348 O   0  0  0  0  0  0  0  0  0  0  0  0
  -14.2095  -23.4655   23.7267 C   0  0  0  0  0  0  0  0  0  0  0  0
  -14.1409  -24.8573   23.1043 C   0  0  0  0  0  0  0  0  0  0  0  0
  -12.8239  -25.5572   23.2344 C   0  0  0  0  0  0  0  0  0  0  0  0
  6  7  1  0  0  0
  6  4  1  0  0  0
  7  8  1  0  0  0
  8  9  1  0  0  0
  8  1  1  0  0  0
  4  5  1  0  0  0
  4  2  1  0  0  0
  2  1  1  0  0  0
  2  3  1  0  0  0
  1 13  1  0  0  0
 13 14  1  0  0  0
 14 15  2  0  0  0
 14 16  1  0  0  0
 14 18  1  0  0  0
 18 20  1  0  0  0
 19 20  1  0  0  0
 20 21  1  0  0  0
 16 17  1  0  0  0
  3 10  1  0  0  0
  5 11  1  0  0  0
  9 12  1  0  0  0
M  END
> <minimizedAffinity>
-6.60631

$$$$
4ZEK_LAH_A_601


 21 21  0  0  0  0  0  0  0  0999 V2000
  -14.7879  -26.1238   22.1276 C   0  0  0  0  0  0  0  0  0  0  0  0
  -13.3738  -26.1823   21.8617 C   0  0  0  0  0  0  0  0  0  0  0  0
  -13.0759  -25.7692   20.4664 O   0  0  0  0  0  0  0  0  0  0  0  0
  -12.5393  -25.4608   22.7494 C   0  0  0  0  0  0  0  0  0  0  0  0
  -12.6266  -24.0443   22.5140 O   0  0  0  0  0  0  0  0  0  0  0  0
  -12.8822  -25.6893   24.2072 C   0  0  0  0  0  0  0  0  0  0  0  0
  -14.2787  -25.6200   24.4407 O   0  0  0  0  0  0  0  0  0  0  0  0
  -15.0513  -26.4277   23.5849 C   0  0  0  0  0  0  0  0  0  0  0  0
  -16.3755  -26.2520   23.8949 O   0  0  0  0  0  0  0  0  0  0  0  0
  -13.3016  -24.8329   20.3512 H   0  0  0  0  0  0  0  0  0  0  0  0
  -13.5298  -23.7412   22.6967 H   0  0  0  0  0  0  0  0  0  0  0  0
  -16.6188  -25.3228   23.7596 H   0  0  0  0  0  0  0  0  0  0  0  0
  -15.4998  -27.1029   21.3358 O   0  0  0  0  0  0  0  0  0  0  0  0
  -16.4340  -26.7732   20.1011 P   0  0  0  0  0  0  0  0  0  0  0  0
  -17.1512  -25.4626   20.3076 O   0  0  0  0  0  0  0  0  0  0  0  0
  -17.4292  -27.8839   20.0170 O   0  0  0  0  0  0  0  0  0  0  0  0
  -17.9307  -27.9321   20.8459 H   0  0  0  0  0  0  0  0  0  0  0  0
  -15.6213  -26.6918   18.7630 O   0  0  0  0  0  0  0  0  0  0  0  0
  -13.8932  -28.2424   18.0031 C   0  0  0  0  0  0  0  0  0  0  0  0
  -15.3598  -27.8202   17.9960 C   0  0  0  0  0  0  0  0  0  0  0  0
  -16.0224  -27.8146   16.6536 C   0  0  0  0  0  0  0  0  0  0  0  0
  6  7  1  0  0  0
  6  4  1  0  0  0
  7  8  1  0  0  0
  8  9  1  0  0  0
  8  1  1  0  0  0
  4  5  1  0  0  0
  4  2  1  0  0  0
  2  1  1  0  0  0
  2  3  1  0  0  0
  1 13  1  0  0  0
 13 14  1  0  0  0
 14 15  2  0  0  0
 14 16  1  0  0  0
 14 18  1  0  0  0
 18 20  1  0  0  0
 19 20  1  0  0  0
 20 21  1  0  0  0
 16 17  1  0  0  0
  3 10  1  0  0  0
  5 11  1  0  0  0
  9 12  1  0  0  0
M  END
> <minimizedAffinity>
-6.59576

$$$$
4ZEK_LAH_A_601


 21 21  0  0  0  0  0  0  0  0999 V2000
  -13.4105  -30.2682   24.6800 C   0  0  0  0  0  0  0  0  0  0  0  0
  -12.2190  -30.0203   23.9101 C   0  0  0  0  0  0  0  0  0  0  0  0
  -11.4131  -28.9271   24.5115 O   0  0  0  0  0  0  0  0  0  0  0  0
  -11.3834  -31.1384   23.6720 C   0  0  0  0  0  0  0  0  0  0  0  0
  -10.6600  -31.5123   24.8579 O   0  0  0  0  0  0  0  0  0  0  0  0
  -12.1458  -32.3646   23.2134 C   0  0  0  0  0  0  0  0  0  0  0  0
  -13.3091  -32.5876   23.9920 O   0  0  0  0  0  0  0  0  0  0  0  0
  -14.1469  -31.4636   24.1195 C   0  0  0  0  0  0  0  0  0  0  0  0
  -15.2150  -31.8015   24.9104 O   0  0  0  0  0  0  0  0  0  0  0  0
  -11.0823  -29.2089   25.3788 H   0  0  0  0  0  0  0  0  0  0  0  0
  -11.2861  -31.7928   25.5436 H   0  0  0  0  0  0  0  0  0  0  0  0
  -14.8972  -32.0617   25.7891 H   0  0  0  0  0  0  0  0  0  0  0  0
  -14.3037  -29.1318   24.6232 O   0  0  0  0  0  0  0  0  0  0  0  0
  -15.5041  -28.8641   25.6198 P   0  0  0  0  0  0  0  0  0  0  0  0
  -15.2954  -29.6008   26.9192 O   0  0  0  0  0  0  0  0  0  0  0  0
  -16.7348  -29.3740   24.9440 O   0  0  0  0  0  0  0  0  0  0  0  0
  -16.6299  -30.3188   24.7513 H   0  0  0  0  0  0  0  0  0  0  0  0
  -15.6696  -27.3369   25.9331 O   0  0  0  0  0  0  0  0  0  0  0  0
  -15.8425  -25.4035   24.4498 C   0  0  0  0  0  0  0  0  0  0  0  0
  -16.5380  -26.5311   25.2075 C   0  0  0  0  0  0  0  0  0  0  0  0
  -17.7759  -26.1393   25.9526 C   0  0  0  0  0  0  0  0  0  0  0  0
  6  7  1  0  0  0
  6  4  1  0  0  0
  7  8  1  0  0  0
  8  9  1  0  0  0
  8  1  1  0  0  0
  4  5  1  0  0  0
  4  2  1  0  0  0
  2  1  1  0  0  0
  2  3  1  0  0  0
  1 13  1  0  0  0
 13 14  1  0  0  0
 14 15  2  0  0  0
 14 16  1  0  0  0
 14 18  1  0  0  0
 18 20  1  0  0  0
 19 20  1  0  0  0
 20 21  1  0  0  0
 16 17  1  0  0  0
  3 10  1  0  0  0
  5 11  1  0  0  0
  9 12  1  0  0  0
M  END
> <minimizedAffinity>
-6.55145

$$$$
4ZEK_LAH_A_601


 21 21  0  0  0  0  0  0  0  0999 V2000
  -14.5636  -28.5922   24.2888 C   0  0  0  0  0  0  0  0  0  0  0  0
  -14.7024  -29.0742   25.6387 C   0  0  0  0  0  0  0  0  0  0  0  0
  -16.0286  -28.7117   26.2009 O   0  0  0  0  0  0  0  0  0  0  0  0
  -14.4751  -30.4578   25.8360 C   0  0  0  0  0  0  0  0  0  0  0  0
  -15.5712  -31.2441   25.3361 O   0  0  0  0  0  0  0  0  0  0  0  0
  -13.2212  -30.9591   25.1494 C   0  0  0  0  0  0  0  0  0  0  0  0
  -13.1139  -30.4746   23.8216 O   0  0  0  0  0  0  0  0  0  0  0  0
  -13.2600  -29.0799   23.6988 C   0  0  0  0  0  0  0  0  0  0  0  0
  -13.1616  -28.7447   22.3727 O   0  0  0  0  0  0  0  0  0  0  0  0
  -16.7254  -29.1744   25.7097 H   0  0  0  0  0  0  0  0  0  0  0  0
  -15.6443  -31.1236   24.3764 H   0  0  0  0  0  0  0  0  0  0  0  0
  -13.8695  -29.1830   21.8750 H   0  0  0  0  0  0  0  0  0  0  0  0
  -14.5491  -27.1460   24.2593 O   0  0  0  0  0  0  0  0  0  0  0  0
  -15.6623  -26.2356   23.5978 P   0  0  0  0  0  0  0  0  0  0  0  0
  -15.1435  -24.8383   23.3672 O   0  0  0  0  0  0  0  0  0  0  0  0
  -16.8027  -26.1966   24.5617 O   0  0  0  0  0  0  0  0  0  0  0  0
  -16.4979  -25.8354   25.4087 H   0  0  0  0  0  0  0  0  0  0  0  0
  -16.1509  -26.8190   22.2271 O   0  0  0  0  0  0  0  0  0  0  0  0
  -17.2651  -25.9559   20.2316 C   0  0  0  0  0  0  0  0  0  0  0  0
  -15.9786  -26.1275   21.0346 C   0  0  0  0  0  0  0  0  0  0  0  0
  -14.7795  -26.5553   20.2470 C   0  0  0  0  0  0  0  0  0  0  0  0
  6  7  1  0  0  0
  6  4  1  0  0  0
  7  8  1  0  0  0
  8  9  1  0  0  0
  8  1  1  0  0  0
  4  5  1  0  0  0
  4  2  1  0  0  0
  2  1  1  0  0  0
  2  3  1  0  0  0
  1 13  1  0  0  0
 13 14  1  0  0  0
 14 15  2  0  0  0
 14 16  1  0  0  0
 14 18  1  0  0  0
 18 20  1  0  0  0
 19 20  1  0  0  0
 20 21  1  0  0  0
 16 17  1  0  0  0
  3 10  1  0  0  0
  5 11  1  0  0  0
  9 12  1  0  0  0
M  END
> <minimizedAffinity>
-6.42803

$$$$
4ZEK_LAH_A_601


 21 21  0  0  0  0  0  0  0  0999 V2000
  -13.7387  -30.4060   26.0447 C   0  0  0  0  0  0  0  0  0  0  0  0
  -14.8801  -30.2702   25.1772 C   0  0  0  0  0  0  0  0  0  0  0  0
  -15.6892  -31.5156   25.1613 O   0  0  0  0  0  0  0  0  0  0  0  0
  -15.7297  -29.1658   25.4287 C   0  0  0  0  0  0  0  0  0  0  0  0
  -16.5255  -29.3764   26.6085 O   0  0  0  0  0  0  0  0  0  0  0  0
  -14.9752  -27.8675   25.6296 C   0  0  0  0  0  0  0  0  0  0  0  0
  -13.8617  -28.0294   26.4918 O   0  0  0  0  0  0  0  0  0  0  0  0
  -13.0037  -29.0884   26.1396 C   0  0  0  0  0  0  0  0  0  0  0  0
  -11.9888  -29.1536   27.0596 O   0  0  0  0  0  0  0  0  0  0  0  0
  -16.0735  -31.6628   26.0397 H   0  0  0  0  0  0  0  0  0  0  0  0
  -15.9448  -29.4434   27.3825 H   0  0  0  0  0  0  0  0  0  0  0  0
  -12.3602  -29.3252   27.9391 H   0  0  0  0  0  0  0  0  0  0  0  0
  -12.8151  -31.3915   25.5268 O   0  0  0  0  0  0  0  0  0  0  0  0
  -12.5421  -31.6686   23.9923 P   0  0  0  0  0  0  0  0  0  0  0  0
  -13.3953  -32.8082   23.4943 O   0  0  0  0  0  0  0  0  0  0  0  0
  -11.0982  -32.0344   23.8803 O   0  0  0  0  0  0  0  0  0  0  0  0
  -10.9196  -32.8167   24.4254 H   0  0  0  0  0  0  0  0  0  0  0  0
  -12.8349  -30.4045   23.1126 O   0  0  0  0  0  0  0  0  0  0  0  0
  -11.6653  -28.2682   23.3038 C   0  0  0  0  0  0  0  0  0  0  0  0
  -11.8118  -29.6155   22.6019 C   0  0  0  0  0  0  0  0  0  0  0  0
  -11.7610  -29.5721   21.1063 C   0  0  0  0  0  0  0  0  0  0  0  0
  6  7  1  0  0  0
  6  4  1  0  0  0
  7  8  1  0  0  0
  8  9  1  0  0  0
  8  1  1  0  0  0
  4  5  1  0  0  0
  4  2  1  0  0  0
  2  1  1  0  0  0
  2  3  1  0  0  0
  1 13  1  0  0  0
 13 14  1  0  0  0
 14 15  2  0  0  0
 14 16  1  0  0  0
 14 18  1  0  0  0
 18 20  1  0  0  0
 19 20  1  0  0  0
 20 21  1  0  0  0
 16 17  1  0  0  0
  3 10  1  0  0  0
  5 11  1  0  0  0
  9 12  1  0  0  0
M  END
> <minimizedAffinity>
-6.33131

$$$$
