4NGP_J31_A_817


 50 50  0  0  0  0  0  0  0  0999 V2000
  -24.4655  -19.8872  -43.9544 C   0  0  0  0  0  0  0  0  0  0  0  0
  -23.7286  -18.9717  -41.7655 C   0  0  0  0  0  0  0  0  0  0  0  0
  -24.5256  -19.7553  -42.4902 N   0  0  0  0  0  0  0  0  0  0  0  0
  -22.9104  -18.2193  -42.3267 O   0  0  0  0  0  0  0  0  0  0  0  0
  -25.2040  -20.2843  -42.0114 H   0  0  0  0  0  0  0  0  0  0  0  0
  -24.8023  -18.0760  -39.6478 C   0  0  0  0  0  0  0  0  0  0  0  0
  -25.1016  -18.1316  -38.2783 C   0  0  0  0  0  0  0  0  0  0  0  0
  -24.5816  -19.1889  -37.5060 C   0  0  0  0  0  0  0  0  0  0  0  0
  -23.7829  -20.1374  -38.1398 C   0  0  0  0  0  0  0  0  0  0  0  0
  -23.4836  -20.0592  -39.4965 C   0  0  0  0  0  0  0  0  0  0  0  0
  -23.9872  -19.0276  -40.2630 C   0  0  0  0  0  0  0  0  0  0  0  0
  -25.2798  -17.0749  -40.4554 O   0  0  0  0  0  0  0  0  0  0  0  0
  -25.1581  -15.6931  -40.0902 C   0  0  0  0  0  0  0  0  0  0  0  0
  -25.9354  -14.8705  -41.0816 C   0  0  0  0  0  0  0  0  0  0  0  0
  -25.6562  -12.3555  -42.2899 O   0  0  0  0  0  0  0  0  0  0  0  0
  -25.1028  -13.3562  -42.7814 C   0  0  0  0  0  0  0  0  0  0  0  0
  -25.1666  -14.5850  -42.2584 N   0  0  0  0  0  0  0  0  0  0  0  0
  -24.6710  -15.3158  -42.6939 H   0  0  0  0  0  0  0  0  0  0  0  0
  -24.3327  -13.1980  -44.0709 C   0  0  0  0  0  0  0  0  0  0  0  0
  -24.0492  -14.5650  -44.7062 C   0  0  0  0  0  0  0  0  0  0  0  0
  -22.6676  -14.6367  -45.0942 O   0  0  0  0  0  0  0  0  0  0  0  0
  -22.0048  -15.9005  -44.8499 C   0  0  0  0  0  0  0  0  0  0  0  0
  -22.5799  -17.0427  -45.6983 C   0  0  0  0  0  0  0  0  0  0  0  0
  -22.1427  -16.9684  -47.0603 O   0  0  0  0  0  0  0  0  0  0  0  0
  -22.4474  -16.1353  -47.4527 H   0  0  0  0  0  0  0  0  0  0  0  0
  -23.8932  -21.2173  -44.4303 C   0  0  0  0  0  0  0  0  0  0  0  0
  -22.5755  -21.0293  -45.2053 C   0  0  0  0  0  0  0  0  0  0  0  0
  -21.4665  -20.5760  -44.3054 C   0  0  0  0  0  0  0  0  0  0  0  0
  -20.0464  -20.8121  -44.8459 C   0  0  0  0  0  0  0  0  0  0  0  0
  -19.2189  -20.2152  -43.8553 N   0  0  0  0  0  0  0  0  0  0  0  0
  -17.9945  -20.6274  -43.5449 C   0  0  0  0  0  0  0  0  0  0  0  0
  -17.5083  -21.6574  -44.0410 O   0  0  0  0  0  0  0  0  0  0  0  0
  -17.3025  -19.9403  -42.6236 N   0  0  0  0  0  0  0  0  0  0  0  0
  -19.5789  -19.4414  -43.3645 H   0  0  0  0  0  0  0  0  0  0  0  0
  -17.5000  -18.9914  -42.4511 H   0  0  0  0  0  0  0  0  0  0  0  0
  -16.2489  -20.6306  -41.8812 C   0  0  0  0  0  0  0  0  0  0  0  0
  -16.7152  -21.0183  -40.4889 C   0  0  0  0  0  0  0  0  0  0  0  0
  -16.0032  -21.7516  -39.7730 O   0  0  0  0  0  0  0  0  0  0  0  0
  -17.8579  -20.5737  -40.0429 O   0  0  0  0  0  0  0  0  0  0  0  0
  -18.3897  -20.0233  -40.5834 H   0  0  0  0  0  0  0  0  0  0  0  0
  -14.9587  -19.7754  -41.7080 C   0  0  0  0  0  0  0  0  0  0  0  0
  -15.2791  -18.5329  -40.8302 C   0  0  0  0  0  0  0  0  0  0  0  0
  -14.0634  -17.7359  -40.4833 C   0  0  0  0  0  0  0  0  0  0  0  0
  -13.3571  -18.0745  -39.4978 O   0  0  0  0  0  0  0  0  0  0  0  0
  -13.7134  -16.7056  -41.2222 O   0  0  0  0  0  0  0  0  0  0  0  0
  -14.2399  -16.4545  -41.9555 H   0  0  0  0  0  0  0  0  0  0  0  0
  -19.8507  -20.0866  -46.1538 C   0  0  0  0  0  0  0  0  0  0  0  0
  -19.6699  -18.7843  -46.1510 O   0  0  0  0  0  0  0  0  0  0  0  0
  -19.6888  -20.6645  -47.2177 O   0  0  0  0  0  0  0  0  0  0  0  0
  -19.8063  -21.5927  -47.2693 H   0  0  0  0  0  0  0  0  0  0  0  0
 15 16  2  0  0  0
 16 17  1  0  0  0
 16 19  1  0  0  0
 17 14  1  0  0  0
 14 13  1  0  0  0
 13 12  1  0  0  0
 12  6  1  0  0  0
  6  7  2  0  0  0
  6 11  1  0  0  0
  7  8  1  0  0  0
  8  9  2  0  0  0
  9 10  1  0  0  0
 10 11  2  0  0  0
 11  2  1  0  0  0
  2  3  1  0  0  0
  2  4  2  0  0  0
  3  1  1  0  0  0
  1 26  1  0  0  0
 26 27  1  0  0  0
 27 28  1  0  0  0
 28 29  1  0  0  0
 29 30  1  0  0  0
 29 47  1  0  0  0
 30 31  1  0  0  0
 31 32  2  0  0  0
 31 33  1  0  0  0
 33 36  1  0  0  0
 36 37  1  0  0  0
 36 41  1  0  0  0
 37 38  2  0  0  0
 37 39  1  0  0  0
 41 42  1  0  0  0
 42 43  1  0  0  0
 43 44  2  0  0  0
 43 45  1  0  0  0
 47 48  2  0  0  0
 47 49  1  0  0  0
 19 20  1  0  0  0
 20 21  1  0  0  0
 21 22  1  0  0  0
 22 23  1  0  0  0
 23 24  1  0  0  0
 17 18  1  0  0  0
  3  5  1  0  0  0
 30 34  1  0  0  0
 33 35  1  0  0  0
 39 40  1  0  0  0
 45 46  1  0  0  0
 49 50  1  0  0  0
 24 25  1  0  0  0
M  END
> <minimizedAffinity>
-10.22658

$$$$
4NGP_J31_A_817


 50 50  0  0  0  0  0  0  0  0999 V2000
  -23.3968  -17.4676  -42.1982 C   0  0  0  0  0  0  0  0  0  0  0  0
  -23.6038  -15.6465  -43.8756 C   0  0  0  0  0  0  0  0  0  0  0  0
  -24.1478  -16.4833  -42.9934 N   0  0  0  0  0  0  0  0  0  0  0  0
  -22.3888  -15.7161  -44.1389 O   0  0  0  0  0  0  0  0  0  0  0  0
  -25.1228  -16.4400  -42.8640 H   0  0  0  0  0  0  0  0  0  0  0  0
  -25.7294  -15.2294  -45.1975 C   0  0  0  0  0  0  0  0  0  0  0  0
  -26.6913  -14.3954  -45.7871 C   0  0  0  0  0  0  0  0  0  0  0  0
  -26.5241  -12.9985  -45.7136 C   0  0  0  0  0  0  0  0  0  0  0  0
  -25.4000  -12.5027  -45.0578 C   0  0  0  0  0  0  0  0  0  0  0  0
  -24.4478  -13.3444  -44.4911 C   0  0  0  0  0  0  0  0  0  0  0  0
  -24.6009  -14.7146  -44.5574 C   0  0  0  0  0  0  0  0  0  0  0  0
  -25.8352  -16.5969  -45.2314 O   0  0  0  0  0  0  0  0  0  0  0  0
  -27.0142  -17.2468  -45.7264 C   0  0  0  0  0  0  0  0  0  0  0  0
  -27.2197  -18.5158  -44.9447 C   0  0  0  0  0  0  0  0  0  0  0  0
  -26.8775  -21.2365  -45.5308 O   0  0  0  0  0  0  0  0  0  0  0  0
  -25.9297  -20.5630  -45.0865 C   0  0  0  0  0  0  0  0  0  0  0  0
  -26.0011  -19.2586  -44.8018 N   0  0  0  0  0  0  0  0  0  0  0  0
  -25.1931  -18.7941  -44.4846 H   0  0  0  0  0  0  0  0  0  0  0  0
  -24.6152  -21.2546  -44.8129 C   0  0  0  0  0  0  0  0  0  0  0  0
  -23.5276  -20.7539  -45.7716 C   0  0  0  0  0  0  0  0  0  0  0  0
  -23.6043  -21.4829  -47.0073 O   0  0  0  0  0  0  0  0  0  0  0  0
  -22.6976  -22.6038  -47.1399 C   0  0  0  0  0  0  0  0  0  0  0  0
  -21.3356  -22.3428  -46.4826 C   0  0  0  0  0  0  0  0  0  0  0  0
  -20.3276  -22.0276  -47.4503 O   0  0  0  0  0  0  0  0  0  0  0  0
  -20.2168  -22.7760  -48.0573 H   0  0  0  0  0  0  0  0  0  0  0  0
  -23.4272  -18.8780  -42.7752 C   0  0  0  0  0  0  0  0  0  0  0  0
  -22.0220  -19.5067  -42.8250 C   0  0  0  0  0  0  0  0  0  0  0  0
  -21.0507  -18.6287  -43.5535 C   0  0  0  0  0  0  0  0  0  0  0  0
  -19.9469  -19.3716  -44.3245 C   0  0  0  0  0  0  0  0  0  0  0  0
  -18.7876  -19.1412  -43.5337 N   0  0  0  0  0  0  0  0  0  0  0  0
  -17.9181  -20.0801  -43.1763 C   0  0  0  0  0  0  0  0  0  0  0  0
  -18.1144  -21.2806  -43.4289 O   0  0  0  0  0  0  0  0  0  0  0  0
  -16.8376  -19.7156  -42.4696 N   0  0  0  0  0  0  0  0  0  0  0  0
  -18.6172  -18.2206  -43.2295 H   0  0  0  0  0  0  0  0  0  0  0  0
  -16.4897  -18.7961  -42.5216 H   0  0  0  0  0  0  0  0  0  0  0  0
  -16.1875  -20.7128  -41.6207 C   0  0  0  0  0  0  0  0  0  0  0  0
  -16.7046  -20.6479  -40.1942 C   0  0  0  0  0  0  0  0  0  0  0  0
  -17.9275  -20.5261  -39.9777 O   0  0  0  0  0  0  0  0  0  0  0  0
  -15.8656  -20.7290  -39.1983 O   0  0  0  0  0  0  0  0  0  0  0  0
  -14.9480  -20.8204  -39.3650 H   0  0  0  0  0  0  0  0  0  0  0  0
  -14.6403  -20.5464  -41.5525 C   0  0  0  0  0  0  0  0  0  0  0  0
  -14.2537  -19.1238  -42.0461 C   0  0  0  0  0  0  0  0  0  0  0  0
  -14.0543  -18.1535  -40.9271 C   0  0  0  0  0  0  0  0  0  0  0  0
  -14.0164  -16.9193  -41.1724 O   0  0  0  0  0  0  0  0  0  0  0  0
  -13.9518  -18.5828  -39.6880 O   0  0  0  0  0  0  0  0  0  0  0  0
  -13.9802  -19.5016  -39.5067 H   0  0  0  0  0  0  0  0  0  0  0  0
  -19.7454  -18.7541  -45.6859 C   0  0  0  0  0  0  0  0  0  0  0  0
  -20.2600  -19.3394  -46.7449 O   0  0  0  0  0  0  0  0  0  0  0  0
  -19.2625  -17.6440  -45.8482 O   0  0  0  0  0  0  0  0  0  0  0  0
  -18.8839  -17.1871  -45.1230 H   0  0  0  0  0  0  0  0  0  0  0  0
 15 16  2  0  0  0
 16 17  1  0  0  0
 16 19  1  0  0  0
 17 14  1  0  0  0
 14 13  1  0  0  0
 13 12  1  0  0  0
 12  6  1  0  0  0
  6  7  2  0  0  0
  6 11  1  0  0  0
  7  8  1  0  0  0
  8  9  2  0  0  0
  9 10  1  0  0  0
 10 11  2  0  0  0
 11  2  1  0  0  0
  2  3  1  0  0  0
  2  4  2  0  0  0
  3  1  1  0  0  0
  1 26  1  0  0  0
 26 27  1  0  0  0
 27 28  1  0  0  0
 28 29  1  0  0  0
 29 30  1  0  0  0
 29 47  1  0  0  0
 30 31  1  0  0  0
 31 32  2  0  0  0
 31 33  1  0  0  0
 33 36  1  0  0  0
 36 37  1  0  0  0
 36 41  1  0  0  0
 37 38  2  0  0  0
 37 39  1  0  0  0
 41 42  1  0  0  0
 42 43  1  0  0  0
 43 44  2  0  0  0
 43 45  1  0  0  0
 47 48  2  0  0  0
 47 49  1  0  0  0
 19 20  1  0  0  0
 20 21  1  0  0  0
 21 22  1  0  0  0
 22 23  1  0  0  0
 23 24  1  0  0  0
 17 18  1  0  0  0
  3  5  1  0  0  0
 30 34  1  0  0  0
 33 35  1  0  0  0
 39 40  1  0  0  0
 45 46  1  0  0  0
 49 50  1  0  0  0
 24 25  1  0  0  0
M  END
> <minimizedAffinity>
-10.21734

$$$$
4NGP_J31_A_817


 50 50  0  0  0  0  0  0  0  0999 V2000
  -22.5989  -16.1637  -44.9603 C   0  0  0  0  0  0  0  0  0  0  0  0
  -24.6462  -14.7607  -44.8477 C   0  0  0  0  0  0  0  0  0  0  0  0
  -23.3605  -14.9678  -44.5672 N   0  0  0  0  0  0  0  0  0  0  0  0
  -25.3150  -15.6461  -45.4128 O   0  0  0  0  0  0  0  0  0  0  0  0
  -22.8857  -14.2702  -44.0601 H   0  0  0  0  0  0  0  0  0  0  0  0
  -25.2734  -13.1741  -42.9692 C   0  0  0  0  0  0  0  0  0  0  0  0
  -25.7240  -11.9421  -42.4717 C   0  0  0  0  0  0  0  0  0  0  0  0
  -26.0893  -10.9290  -43.3800 C   0  0  0  0  0  0  0  0  0  0  0  0
  -25.9909  -11.1987  -44.7427 C   0  0  0  0  0  0  0  0  0  0  0  0
  -25.5558  -12.4314  -45.2194 C   0  0  0  0  0  0  0  0  0  0  0  0
  -25.1957  -13.4315  -44.3388 C   0  0  0  0  0  0  0  0  0  0  0  0
  -24.8998  -14.1999  -42.1382 O   0  0  0  0  0  0  0  0  0  0  0  0
  -25.8134  -14.7689  -41.1901 C   0  0  0  0  0  0  0  0  0  0  0  0
  -25.7606  -16.2669  -41.3208 C   0  0  0  0  0  0  0  0  0  0  0  0
  -24.8545  -18.9071  -41.0540 O   0  0  0  0  0  0  0  0  0  0  0  0
  -24.9536  -18.1705  -40.0556 C   0  0  0  0  0  0  0  0  0  0  0  0
  -25.3555  -16.8960  -40.0970 N   0  0  0  0  0  0  0  0  0  0  0  0
  -25.3740  -16.3737  -39.2627 H   0  0  0  0  0  0  0  0  0  0  0  0
  -24.6359  -18.7465  -38.6961 C   0  0  0  0  0  0  0  0  0  0  0  0
  -23.8341  -20.0471  -38.8306 C   0  0  0  0  0  0  0  0  0  0  0  0
  -23.9594  -20.8152  -37.6228 O   0  0  0  0  0  0  0  0  0  0  0  0
  -23.9783  -20.0584  -36.3887 C   0  0  0  0  0  0  0  0  0  0  0  0
  -22.5772  -19.6161  -35.9455 C   0  0  0  0  0  0  0  0  0  0  0  0
  -21.5740  -20.5680  -36.3189 O   0  0  0  0  0  0  0  0  0  0  0  0
  -21.7584  -21.4176  -35.8887 H   0  0  0  0  0  0  0  0  0  0  0  0
  -22.3281  -17.1274  -43.8109 C   0  0  0  0  0  0  0  0  0  0  0  0
  -22.1503  -18.5746  -44.3068 C   0  0  0  0  0  0  0  0  0  0  0  0
  -21.1712  -19.3308  -43.4614 C   0  0  0  0  0  0  0  0  0  0  0  0
  -19.9918  -19.9558  -44.2250 C   0  0  0  0  0  0  0  0  0  0  0  0
  -18.8599  -19.5366  -43.4730 N   0  0  0  0  0  0  0  0  0  0  0  0
  -17.8463  -20.3245  -43.1308 C   0  0  0  0  0  0  0  0  0  0  0  0
  -17.8623  -21.5450  -43.3624 O   0  0  0  0  0  0  0  0  0  0  0  0
  -16.8152  -19.7863  -42.4621 N   0  0  0  0  0  0  0  0  0  0  0  0
  -18.8249  -18.5957  -43.1855 H   0  0  0  0  0  0  0  0  0  0  0  0
  -16.6149  -18.8253  -42.5361 H   0  0  0  0  0  0  0  0  0  0  0  0
  -15.9954  -20.6573  -41.6213 C   0  0  0  0  0  0  0  0  0  0  0  0
  -16.5269  -20.7152  -40.1998 C   0  0  0  0  0  0  0  0  0  0  0  0
  -15.7401  -20.8750  -39.2445 O   0  0  0  0  0  0  0  0  0  0  0  0
  -17.8072  -20.5882  -39.9828 O   0  0  0  0  0  0  0  0  0  0  0  0
  -18.3947  -20.4683  -40.7028 H   0  0  0  0  0  0  0  0  0  0  0  0
  -14.5081  -20.2031  -41.5334 C   0  0  0  0  0  0  0  0  0  0  0  0
  -14.4211  -18.6731  -41.7948 C   0  0  0  0  0  0  0  0  0  0  0  0
  -13.9576  -17.9037  -40.6004 C   0  0  0  0  0  0  0  0  0  0  0  0
  -14.5285  -16.8241  -40.2951 O   0  0  0  0  0  0  0  0  0  0  0  0
  -12.9803  -18.3673  -39.8519 O   0  0  0  0  0  0  0  0  0  0  0  0
  -12.5561  -19.1710  -40.0802 H   0  0  0  0  0  0  0  0  0  0  0  0
  -19.8990  -19.3815  -45.6167 C   0  0  0  0  0  0  0  0  0  0  0  0
  -20.5321  -19.9739  -46.6051 O   0  0  0  0  0  0  0  0  0  0  0  0
  -19.3949  -18.2949  -45.8560 O   0  0  0  0  0  0  0  0  0  0  0  0
  -18.9333  -17.8343  -45.1832 H   0  0  0  0  0  0  0  0  0  0  0  0
 15 16  2  0  0  0
 16 17  1  0  0  0
 16 19  1  0  0  0
 17 14  1  0  0  0
 14 13  1  0  0  0
 13 12  1  0  0  0
 12  6  1  0  0  0
  6  7  2  0  0  0
  6 11  1  0  0  0
  7  8  1  0  0  0
  8  9  2  0  0  0
  9 10  1  0  0  0
 10 11  2  0  0  0
 11  2  1  0  0  0
  2  3  1  0  0  0
  2  4  2  0  0  0
  3  1  1  0  0  0
  1 26  1  0  0  0
 26 27  1  0  0  0
 27 28  1  0  0  0
 28 29  1  0  0  0
 29 30  1  0  0  0
 29 47  1  0  0  0
 30 31  1  0  0  0
 31 32  2  0  0  0
 31 33  1  0  0  0
 33 36  1  0  0  0
 36 37  1  0  0  0
 36 41  1  0  0  0
 37 38  2  0  0  0
 37 39  1  0  0  0
 41 42  1  0  0  0
 42 43  1  0  0  0
 43 44  2  0  0  0
 43 45  1  0  0  0
 47 48  2  0  0  0
 47 49  1  0  0  0
 19 20  1  0  0  0
 20 21  1  0  0  0
 21 22  1  0  0  0
 22 23  1  0  0  0
 23 24  1  0  0  0
 17 18  1  0  0  0
  3  5  1  0  0  0
 30 34  1  0  0  0
 33 35  1  0  0  0
 39 40  1  0  0  0
 45 46  1  0  0  0
 49 50  1  0  0  0
 24 25  1  0  0  0
M  END
> <minimizedAffinity>
-10.15440

$$$$
4NGP_J31_A_817


 50 50  0  0  0  0  0  0  0  0999 V2000
  -24.2818  -19.8819  -44.0040 C   0  0  0  0  0  0  0  0  0  0  0  0
  -23.8137  -18.7982  -41.8180 C   0  0  0  0  0  0  0  0  0  0  0  0
  -24.3803  -19.7630  -42.5407 N   0  0  0  0  0  0  0  0  0  0  0  0
  -23.2128  -17.8640  -42.3807 O   0  0  0  0  0  0  0  0  0  0  0  0
  -24.9028  -20.4459  -42.0612 H   0  0  0  0  0  0  0  0  0  0  0  0
  -24.9226  -18.0291  -39.6689 C   0  0  0  0  0  0  0  0  0  0  0  0
  -25.2068  -18.1409  -38.2996 C   0  0  0  0  0  0  0  0  0  0  0  0
  -24.6170  -19.1855  -37.5608 C   0  0  0  0  0  0  0  0  0  0  0  0
  -23.7671  -20.0653  -38.2264 C   0  0  0  0  0  0  0  0  0  0  0  0
  -23.4843  -19.9313  -39.5822 C   0  0  0  0  0  0  0  0  0  0  0  0
  -24.0561  -18.9115  -40.3159 C   0  0  0  0  0  0  0  0  0  0  0  0
  -25.4669  -17.0370  -40.4448 O   0  0  0  0  0  0  0  0  0  0  0  0
  -25.2777  -15.6500  -40.1319 C   0  0  0  0  0  0  0  0  0  0  0  0
  -25.4975  -14.8470  -41.3851 C   0  0  0  0  0  0  0  0  0  0  0  0
  -24.3583  -14.3800  -43.9044 O   0  0  0  0  0  0  0  0  0  0  0  0
  -25.0766  -15.3782  -43.7123 C   0  0  0  0  0  0  0  0  0  0  0  0
  -25.6396  -15.6864  -42.5395 N   0  0  0  0  0  0  0  0  0  0  0  0
  -26.1675  -16.5141  -42.4660 H   0  0  0  0  0  0  0  0  0  0  0  0
  -25.3700  -16.2943  -44.8767 C   0  0  0  0  0  0  0  0  0  0  0  0
  -26.8808  -16.5081  -45.0329 C   0  0  0  0  0  0  0  0  0  0  0  0
  -27.2656  -17.7205  -44.3646 O   0  0  0  0  0  0  0  0  0  0  0  0
  -27.5750  -18.8461  -45.2209 C   0  0  0  0  0  0  0  0  0  0  0  0
  -29.0725  -18.9520  -45.5393 C   0  0  0  0  0  0  0  0  0  0  0  0
  -29.3660  -18.5228  -46.8740 O   0  0  0  0  0  0  0  0  0  0  0  0
  -29.1138  -17.5918  -46.9771 H   0  0  0  0  0  0  0  0  0  0  0  0
  -24.0410  -21.3057  -44.4918 C   0  0  0  0  0  0  0  0  0  0  0  0
  -22.6633  -21.4553  -45.1639 C   0  0  0  0  0  0  0  0  0  0  0  0
  -21.6272  -20.6059  -44.4930 C   0  0  0  0  0  0  0  0  0  0  0  0
  -20.1854  -20.8229  -44.9816 C   0  0  0  0  0  0  0  0  0  0  0  0
  -19.4005  -20.2792  -43.9277 N   0  0  0  0  0  0  0  0  0  0  0  0
  -18.1742  -20.6826  -43.6134 C   0  0  0  0  0  0  0  0  0  0  0  0
  -17.6478  -21.6616  -44.1685 O   0  0  0  0  0  0  0  0  0  0  0  0
  -17.5252  -20.0475  -42.6260 N   0  0  0  0  0  0  0  0  0  0  0  0
  -19.7938  -19.5523  -43.3928 H   0  0  0  0  0  0  0  0  0  0  0  0
  -17.7523  -19.1187  -42.3912 H   0  0  0  0  0  0  0  0  0  0  0  0
  -16.4735  -20.7636  -41.9058 C   0  0  0  0  0  0  0  0  0  0  0  0
  -16.8433  -20.9714  -40.4476 C   0  0  0  0  0  0  0  0  0  0  0  0
  -17.8863  -20.4627  -39.9888 O   0  0  0  0  0  0  0  0  0  0  0  0
  -16.0705  -21.6908  -39.6810 O   0  0  0  0  0  0  0  0  0  0  0  0
  -15.2881  -22.0711  -40.0293 H   0  0  0  0  0  0  0  0  0  0  0  0
  -15.1023  -20.0251  -41.9273 C   0  0  0  0  0  0  0  0  0  0  0  0
  -15.2669  -18.6160  -41.2917 C   0  0  0  0  0  0  0  0  0  0  0  0
  -13.9603  -17.9690  -40.9634 C   0  0  0  0  0  0  0  0  0  0  0  0
  -13.8643  -16.7140  -40.9839 O   0  0  0  0  0  0  0  0  0  0  0  0
  -12.9241  -18.7040  -40.6224 O   0  0  0  0  0  0  0  0  0  0  0  0
  -12.9968  -19.6381  -40.6075 H   0  0  0  0  0  0  0  0  0  0  0  0
  -19.9302  -20.0355  -46.2427 C   0  0  0  0  0  0  0  0  0  0  0  0
  -19.7360  -18.7373  -46.1672 O   0  0  0  0  0  0  0  0  0  0  0  0
  -19.7319  -20.5617  -47.3271 O   0  0  0  0  0  0  0  0  0  0  0  0
  -19.8570  -21.4846  -47.4299 H   0  0  0  0  0  0  0  0  0  0  0  0
 15 16  2  0  0  0
 16 17  1  0  0  0
 16 19  1  0  0  0
 17 14  1  0  0  0
 14 13  1  0  0  0
 13 12  1  0  0  0
 12  6  1  0  0  0
  6  7  2  0  0  0
  6 11  1  0  0  0
  7  8  1  0  0  0
  8  9  2  0  0  0
  9 10  1  0  0  0
 10 11  2  0  0  0
 11  2  1  0  0  0
  2  3  1  0  0  0
  2  4  2  0  0  0
  3  1  1  0  0  0
  1 26  1  0  0  0
 26 27  1  0  0  0
 27 28  1  0  0  0
 28 29  1  0  0  0
 29 30  1  0  0  0
 29 47  1  0  0  0
 30 31  1  0  0  0
 31 32  2  0  0  0
 31 33  1  0  0  0
 33 36  1  0  0  0
 36 37  1  0  0  0
 36 41  1  0  0  0
 37 38  2  0  0  0
 37 39  1  0  0  0
 41 42  1  0  0  0
 42 43  1  0  0  0
 43 44  2  0  0  0
 43 45  1  0  0  0
 47 48  2  0  0  0
 47 49  1  0  0  0
 19 20  1  0  0  0
 20 21  1  0  0  0
 21 22  1  0  0  0
 22 23  1  0  0  0
 23 24  1  0  0  0
 17 18  1  0  0  0
  3  5  1  0  0  0
 30 34  1  0  0  0
 33 35  1  0  0  0
 39 40  1  0  0  0
 45 46  1  0  0  0
 49 50  1  0  0  0
 24 25  1  0  0  0
M  END
> <minimizedAffinity>
-10.11376

$$$$
4NGP_J31_A_817


 50 50  0  0  0  0  0  0  0  0999 V2000
  -23.1352  -18.4284  -44.3464 C   0  0  0  0  0  0  0  0  0  0  0  0
  -24.4758  -18.3902  -42.2550 C   0  0  0  0  0  0  0  0  0  0  0  0
  -23.3249  -18.5875  -42.8959 N   0  0  0  0  0  0  0  0  0  0  0  0
  -25.5119  -18.1271  -42.8936 O   0  0  0  0  0  0  0  0  0  0  0  0
  -22.5448  -18.8594  -42.3605 H   0  0  0  0  0  0  0  0  0  0  0  0
  -24.9975  -17.7001  -39.8693 C   0  0  0  0  0  0  0  0  0  0  0  0
  -24.9925  -17.9003  -38.4807 C   0  0  0  0  0  0  0  0  0  0  0  0
  -24.3871  -19.0602  -37.9583 C   0  0  0  0  0  0  0  0  0  0  0  0
  -23.8114  -19.9619  -38.8498 C   0  0  0  0  0  0  0  0  0  0  0  0
  -23.8122  -19.7407  -40.2236 C   0  0  0  0  0  0  0  0  0  0  0  0
  -24.4020  -18.6077  -40.7467 C   0  0  0  0  0  0  0  0  0  0  0  0
  -25.5729  -16.5936  -40.4413 O   0  0  0  0  0  0  0  0  0  0  0  0
  -25.2678  -15.2682  -39.9857 C   0  0  0  0  0  0  0  0  0  0  0  0
  -25.6754  -14.2931  -41.0566 C   0  0  0  0  0  0  0  0  0  0  0  0
  -24.1955  -13.3598  -43.2479 O   0  0  0  0  0  0  0  0  0  0  0  0
  -24.9214  -14.3648  -43.3592 C   0  0  0  0  0  0  0  0  0  0  0  0
  -25.6416  -14.8877  -42.3615 N   0  0  0  0  0  0  0  0  0  0  0  0
  -26.1644  -15.7053  -42.5274 H   0  0  0  0  0  0  0  0  0  0  0  0
  -25.0351  -15.0302  -44.7102 C   0  0  0  0  0  0  0  0  0  0  0  0
  -26.4327  -14.8174  -45.3052 C   0  0  0  0  0  0  0  0  0  0  0  0
  -26.3778  -13.7835  -46.3015 O   0  0  0  0  0  0  0  0  0  0  0  0
  -26.1783  -12.4371  -45.8082 C   0  0  0  0  0  0  0  0  0  0  0  0
  -26.0311  -11.4095  -46.9386 C   0  0  0  0  0  0  0  0  0  0  0  0
  -25.5745  -12.0148  -48.1539 O   0  0  0  0  0  0  0  0  0  0  0  0
  -24.7016  -12.4122  -48.0091 H   0  0  0  0  0  0  0  0  0  0  0  0
  -23.2167  -19.7358  -45.1256 C   0  0  0  0  0  0  0  0  0  0  0  0
  -22.1376  -20.7386  -44.6760 C   0  0  0  0  0  0  0  0  0  0  0  0
  -20.9691  -20.0449  -44.0445 C   0  0  0  0  0  0  0  0  0  0  0  0
  -19.6470  -20.1482  -44.8230 C   0  0  0  0  0  0  0  0  0  0  0  0
  -18.6785  -19.7145  -43.8763 N   0  0  0  0  0  0  0  0  0  0  0  0
  -17.6713  -20.4579  -43.4311 C   0  0  0  0  0  0  0  0  0  0  0  0
  -17.5580  -21.6555  -43.7419 O   0  0  0  0  0  0  0  0  0  0  0  0
  -16.7986  -19.9061  -42.5746 N   0  0  0  0  0  0  0  0  0  0  0  0
  -18.7601  -18.7981  -43.5258 H   0  0  0  0  0  0  0  0  0  0  0  0
  -16.6637  -18.9311  -42.5529 H   0  0  0  0  0  0  0  0  0  0  0  0
  -16.0520  -20.7832  -41.6741 C   0  0  0  0  0  0  0  0  0  0  0  0
  -16.6120  -20.7350  -40.2633 C   0  0  0  0  0  0  0  0  0  0  0  0
  -17.8355  -20.5693  -40.0819 O   0  0  0  0  0  0  0  0  0  0  0  0
  -15.8096  -20.8766  -39.2442 O   0  0  0  0  0  0  0  0  0  0  0  0
  -14.8916  -21.0009  -39.3845 H   0  0  0  0  0  0  0  0  0  0  0  0
  -14.5404  -20.4201  -41.5769 C   0  0  0  0  0  0  0  0  0  0  0  0
  -14.3388  -18.9386  -42.0024 C   0  0  0  0  0  0  0  0  0  0  0  0
  -13.9956  -18.0447  -40.8550 C   0  0  0  0  0  0  0  0  0  0  0  0
  -13.8079  -16.8164  -41.0569 O   0  0  0  0  0  0  0  0  0  0  0  0
  -13.9220  -18.5310  -39.6350 O   0  0  0  0  0  0  0  0  0  0  0  0
  -14.0619  -19.4454  -39.4860 H   0  0  0  0  0  0  0  0  0  0  0  0
  -19.6484  -19.2000  -45.9961 C   0  0  0  0  0  0  0  0  0  0  0  0
  -20.1270  -19.6020  -47.1528 O   0  0  0  0  0  0  0  0  0  0  0  0
  -19.3750  -18.0139  -45.8934 O   0  0  0  0  0  0  0  0  0  0  0  0
  -19.0311  -17.6804  -45.0881 H   0  0  0  0  0  0  0  0  0  0  0  0
 15 16  2  0  0  0
 16 17  1  0  0  0
 16 19  1  0  0  0
 17 14  1  0  0  0
 14 13  1  0  0  0
 13 12  1  0  0  0
 12  6  1  0  0  0
  6  7  2  0  0  0
  6 11  1  0  0  0
  7  8  1  0  0  0
  8  9  2  0  0  0
  9 10  1  0  0  0
 10 11  2  0  0  0
 11  2  1  0  0  0
  2  3  1  0  0  0
  2  4  2  0  0  0
  3  1  1  0  0  0
  1 26  1  0  0  0
 26 27  1  0  0  0
 27 28  1  0  0  0
 28 29  1  0  0  0
 29 30  1  0  0  0
 29 47  1  0  0  0
 30 31  1  0  0  0
 31 32  2  0  0  0
 31 33  1  0  0  0
 33 36  1  0  0  0
 36 37  1  0  0  0
 36 41  1  0  0  0
 37 38  2  0  0  0
 37 39  1  0  0  0
 41 42  1  0  0  0
 42 43  1  0  0  0
 43 44  2  0  0  0
 43 45  1  0  0  0
 47 48  2  0  0  0
 47 49  1  0  0  0
 19 20  1  0  0  0
 20 21  1  0  0  0
 21 22  1  0  0  0
 22 23  1  0  0  0
 23 24  1  0  0  0
 17 18  1  0  0  0
  3  5  1  0  0  0
 30 34  1  0  0  0
 33 35  1  0  0  0
 39 40  1  0  0  0
 45 46  1  0  0  0
 49 50  1  0  0  0
 24 25  1  0  0  0
M  END
> <minimizedAffinity>
-9.96454

$$$$
4NGP_J31_A_817


 50 50  0  0  0  0  0  0  0  0999 V2000
  -23.7944  -17.6339  -42.9746 C   0  0  0  0  0  0  0  0  0  0  0  0
  -25.3197  -18.4399  -44.7624 C   0  0  0  0  0  0  0  0  0  0  0  0
  -25.0420  -18.2311  -43.4765 N   0  0  0  0  0  0  0  0  0  0  0  0
  -24.4642  -18.2018  -45.6352 O   0  0  0  0  0  0  0  0  0  0  0  0
  -25.7206  -18.4955  -42.8140 H   0  0  0  0  0  0  0  0  0  0  0  0
  -27.8449  -18.2786  -44.9556 C   0  0  0  0  0  0  0  0  0  0  0  0
  -29.1133  -18.8078  -45.2376 C   0  0  0  0  0  0  0  0  0  0  0  0
  -29.2225  -20.1609  -45.6143 C   0  0  0  0  0  0  0  0  0  0  0  0
  -28.0579  -20.9212  -45.6861 C   0  0  0  0  0  0  0  0  0  0  0  0
  -26.8091  -20.3843  -45.3887 C   0  0  0  0  0  0  0  0  0  0  0  0
  -26.6901  -19.0600  -45.0181 C   0  0  0  0  0  0  0  0  0  0  0  0
  -27.6703  -16.9687  -44.5866 O   0  0  0  0  0  0  0  0  0  0  0  0
  -28.0914  -15.8882  -45.4309 C   0  0  0  0  0  0  0  0  0  0  0  0
  -26.8662  -15.1734  -45.9327 C   0  0  0  0  0  0  0  0  0  0  0  0
  -24.1799  -14.9916  -45.1494 O   0  0  0  0  0  0  0  0  0  0  0  0
  -25.0408  -14.2619  -44.6241 C   0  0  0  0  0  0  0  0  0  0  0  0
  -26.3366  -14.2691  -44.9534 N   0  0  0  0  0  0  0  0  0  0  0  0
  -26.9454  -13.6348  -44.5105 H   0  0  0  0  0  0  0  0  0  0  0  0
  -24.6187  -13.3250  -43.5174 C   0  0  0  0  0  0  0  0  0  0  0  0
  -24.5181  -11.8841  -44.0336 C   0  0  0  0  0  0  0  0  0  0  0  0
  -24.0731  -11.8938  -45.3998 O   0  0  0  0  0  0  0  0  0  0  0  0
  -24.6643  -10.8962  -46.2666 C   0  0  0  0  0  0  0  0  0  0  0  0
  -25.9474  -11.3912  -46.9477 C   0  0  0  0  0  0  0  0  0  0  0  0
  -25.6942  -11.8854  -48.2681 O   0  0  0  0  0  0  0  0  0  0  0  0
  -25.3327  -11.1717  -48.8167 H   0  0  0  0  0  0  0  0  0  0  0  0
  -22.9510  -18.5846  -42.1332 C   0  0  0  0  0  0  0  0  0  0  0  0
  -22.2759  -19.6673  -42.9960 C   0  0  0  0  0  0  0  0  0  0  0  0
  -21.1719  -19.0964  -43.8329 C   0  0  0  0  0  0  0  0  0  0  0  0
  -20.0652  -20.0900  -44.2235 C   0  0  0  0  0  0  0  0  0  0  0  0
  -18.9435  -19.6366  -43.4761 N   0  0  0  0  0  0  0  0  0  0  0  0
  -17.9073  -20.3944  -43.1338 C   0  0  0  0  0  0  0  0  0  0  0  0
  -17.8897  -21.6157  -43.3611 O   0  0  0  0  0  0  0  0  0  0  0  0
  -16.8900  -19.8252  -42.4699 N   0  0  0  0  0  0  0  0  0  0  0  0
  -18.9342  -18.6940  -43.1921 H   0  0  0  0  0  0  0  0  0  0  0  0
  -16.7169  -18.8592  -42.5478 H   0  0  0  0  0  0  0  0  0  0  0  0
  -16.0439  -20.6697  -41.6281 C   0  0  0  0  0  0  0  0  0  0  0  0
  -16.5379  -20.6927  -40.1922 C   0  0  0  0  0  0  0  0  0  0  0  0
  -17.7606  -20.7641  -39.9531 O   0  0  0  0  0  0  0  0  0  0  0  0
  -15.6779  -20.6465  -39.2121 O   0  0  0  0  0  0  0  0  0  0  0  0
  -14.7607  -20.5929  -39.3958 H   0  0  0  0  0  0  0  0  0  0  0  0
  -14.5573  -20.2064  -41.5911 C   0  0  0  0  0  0  0  0  0  0  0  0
  -14.4908  -18.6715  -41.8286 C   0  0  0  0  0  0  0  0  0  0  0  0
  -14.2102  -17.9006  -40.5794 C   0  0  0  0  0  0  0  0  0  0  0  0
  -13.4480  -18.3886  -39.7044 O   0  0  0  0  0  0  0  0  0  0  0  0
  -14.7296  -16.7043  -40.4082 O   0  0  0  0  0  0  0  0  0  0  0  0
  -15.2967  -16.3421  -41.0602 H   0  0  0  0  0  0  0  0  0  0  0  0
  -19.7528  -19.9821  -45.6953 C   0  0  0  0  0  0  0  0  0  0  0  0
  -19.8192  -18.8098  -46.2869 O   0  0  0  0  0  0  0  0  0  0  0  0
  -19.2808  -20.9027  -46.3447 O   0  0  0  0  0  0  0  0  0  0  0  0
  -19.2128  -21.7569  -45.9656 H   0  0  0  0  0  0  0  0  0  0  0  0
 15 16  2  0  0  0
 16 17  1  0  0  0
 16 19  1  0  0  0
 17 14  1  0  0  0
 14 13  1  0  0  0
 13 12  1  0  0  0
 12  6  1  0  0  0
  6  7  2  0  0  0
  6 11  1  0  0  0
  7  8  1  0  0  0
  8  9  2  0  0  0
  9 10  1  0  0  0
 10 11  2  0  0  0
 11  2  1  0  0  0
  2  3  1  0  0  0
  2  4  2  0  0  0
  3  1  1  0  0  0
  1 26  1  0  0  0
 26 27  1  0  0  0
 27 28  1  0  0  0
 28 29  1  0  0  0
 29 30  1  0  0  0
 29 47  1  0  0  0
 30 31  1  0  0  0
 31 32  2  0  0  0
 31 33  1  0  0  0
 33 36  1  0  0  0
 36 37  1  0  0  0
 36 41  1  0  0  0
 37 38  2  0  0  0
 37 39  1  0  0  0
 41 42  1  0  0  0
 42 43  1  0  0  0
 43 44  2  0  0  0
 43 45  1  0  0  0
 47 48  2  0  0  0
 47 49  1  0  0  0
 19 20  1  0  0  0
 20 21  1  0  0  0
 21 22  1  0  0  0
 22 23  1  0  0  0
 23 24  1  0  0  0
 17 18  1  0  0  0
  3  5  1  0  0  0
 30 34  1  0  0  0
 33 35  1  0  0  0
 39 40  1  0  0  0
 45 46  1  0  0  0
 49 50  1  0  0  0
 24 25  1  0  0  0
M  END
> <minimizedAffinity>
-9.80672

$$$$
4NGP_J31_A_817


 50 50  0  0  0  0  0  0  0  0999 V2000
  -22.6733  -17.6429  -43.5733 C   0  0  0  0  0  0  0  0  0  0  0  0
  -23.2329  -15.5532  -44.7948 C   0  0  0  0  0  0  0  0  0  0  0  0
  -23.4877  -16.4470  -43.8406 N   0  0  0  0  0  0  0  0  0  0  0  0
  -22.2958  -15.7386  -45.5935 O   0  0  0  0  0  0  0  0  0  0  0  0
  -24.2781  -16.2965  -43.2732 H   0  0  0  0  0  0  0  0  0  0  0  0
  -25.5535  -14.6164  -45.2159 C   0  0  0  0  0  0  0  0  0  0  0  0
  -26.5004  -13.5813  -45.2276 C   0  0  0  0  0  0  0  0  0  0  0  0
  -26.1032  -12.2854  -44.8432 C   0  0  0  0  0  0  0  0  0  0  0  0
  -24.7763  -12.0862  -44.4701 C   0  0  0  0  0  0  0  0  0  0  0  0
  -23.8462  -13.1212  -44.4782 C   0  0  0  0  0  0  0  0  0  0  0  0
  -24.2240  -14.3947  -44.8534 C   0  0  0  0  0  0  0  0  0  0  0  0
  -25.8768  -15.9004  -45.5758 O   0  0  0  0  0  0  0  0  0  0  0  0
  -27.1477  -16.4761  -45.2428 C   0  0  0  0  0  0  0  0  0  0  0  0
  -27.3818  -16.2878  -43.7685 C   0  0  0  0  0  0  0  0  0  0  0  0
  -26.1521  -15.8024  -41.2956 O   0  0  0  0  0  0  0  0  0  0  0  0
  -26.0865  -16.9282  -41.8223 C   0  0  0  0  0  0  0  0  0  0  0  0
  -26.6611  -17.2499  -42.9860 N   0  0  0  0  0  0  0  0  0  0  0  0
  -26.5872  -18.1746  -43.3155 H   0  0  0  0  0  0  0  0  0  0  0  0
  -25.2816  -18.0044  -41.1333 C   0  0  0  0  0  0  0  0  0  0  0  0
  -25.0497  -17.6501  -39.6591 C   0  0  0  0  0  0  0  0  0  0  0  0
  -24.5914  -18.8140  -38.9521 O   0  0  0  0  0  0  0  0  0  0  0  0
  -24.7443  -18.7830  -37.5127 C   0  0  0  0  0  0  0  0  0  0  0  0
  -23.7686  -19.7251  -36.7947 C   0  0  0  0  0  0  0  0  0  0  0  0
  -24.4108  -20.9305  -36.3629 O   0  0  0  0  0  0  0  0  0  0  0  0
  -25.1176  -20.7133  -35.7351 H   0  0  0  0  0  0  0  0  0  0  0  0
  -23.3497  -18.9502  -43.9690 C   0  0  0  0  0  0  0  0  0  0  0  0
  -22.3339  -20.0983  -44.1179 C   0  0  0  0  0  0  0  0  0  0  0  0
  -20.9812  -19.7078  -43.6051 C   0  0  0  0  0  0  0  0  0  0  0  0
  -19.8078  -20.0197  -44.5487 C   0  0  0  0  0  0  0  0  0  0  0  0
  -18.6693  -19.6341  -43.7888 N   0  0  0  0  0  0  0  0  0  0  0  0
  -17.7682  -20.4775  -43.2968 C   0  0  0  0  0  0  0  0  0  0  0  0
  -17.9136  -21.7085  -43.3807 O   0  0  0  0  0  0  0  0  0  0  0  0
  -16.7126  -19.9741  -42.6396 N   0  0  0  0  0  0  0  0  0  0  0  0
  -18.5395  -18.6738  -43.6150 H   0  0  0  0  0  0  0  0  0  0  0  0
  -16.4006  -19.0573  -42.8169 H   0  0  0  0  0  0  0  0  0  0  0  0
  -16.0351  -20.8158  -41.6545 C   0  0  0  0  0  0  0  0  0  0  0  0
  -16.6217  -20.6260  -40.2667 C   0  0  0  0  0  0  0  0  0  0  0  0
  -15.8773  -20.6469  -39.2654 O   0  0  0  0  0  0  0  0  0  0  0  0
  -17.9046  -20.4322  -40.1282 O   0  0  0  0  0  0  0  0  0  0  0  0
  -18.4602  -20.4172  -40.8825 H   0  0  0  0  0  0  0  0  0  0  0  0
  -14.5082  -20.5277  -41.5472 C   0  0  0  0  0  0  0  0  0  0  0  0
  -14.2342  -19.0501  -41.9452 C   0  0  0  0  0  0  0  0  0  0  0  0
  -14.0741  -18.1490  -40.7638 C   0  0  0  0  0  0  0  0  0  0  0  0
  -15.0072  -17.3656  -40.4470 O   0  0  0  0  0  0  0  0  0  0  0  0
  -12.9779  -18.1961  -40.0381 O   0  0  0  0  0  0  0  0  0  0  0  0
  -12.2840  -18.7796  -40.2749 H   0  0  0  0  0  0  0  0  0  0  0  0
  -19.8849  -19.1649  -45.7891 C   0  0  0  0  0  0  0  0  0  0  0  0
  -19.4754  -17.9164  -45.7415 O   0  0  0  0  0  0  0  0  0  0  0  0
  -20.1596  -19.6145  -46.8911 O   0  0  0  0  0  0  0  0  0  0  0  0
  -20.4558  -20.4995  -46.9755 H   0  0  0  0  0  0  0  0  0  0  0  0
 15 16  2  0  0  0
 16 17  1  0  0  0
 16 19  1  0  0  0
 17 14  1  0  0  0
 14 13  1  0  0  0
 13 12  1  0  0  0
 12  6  1  0  0  0
  6  7  2  0  0  0
  6 11  1  0  0  0
  7  8  1  0  0  0
  8  9  2  0  0  0
  9 10  1  0  0  0
 10 11  2  0  0  0
 11  2  1  0  0  0
  2  3  1  0  0  0
  2  4  2  0  0  0
  3  1  1  0  0  0
  1 26  1  0  0  0
 26 27  1  0  0  0
 27 28  1  0  0  0
 28 29  1  0  0  0
 29 30  1  0  0  0
 29 47  1  0  0  0
 30 31  1  0  0  0
 31 32  2  0  0  0
 31 33  1  0  0  0
 33 36  1  0  0  0
 36 37  1  0  0  0
 36 41  1  0  0  0
 37 38  2  0  0  0
 37 39  1  0  0  0
 41 42  1  0  0  0
 42 43  1  0  0  0
 43 44  2  0  0  0
 43 45  1  0  0  0
 47 48  2  0  0  0
 47 49  1  0  0  0
 19 20  1  0  0  0
 20 21  1  0  0  0
 21 22  1  0  0  0
 22 23  1  0  0  0
 23 24  1  0  0  0
 17 18  1  0  0  0
  3  5  1  0  0  0
 30 34  1  0  0  0
 33 35  1  0  0  0
 39 40  1  0  0  0
 45 46  1  0  0  0
 49 50  1  0  0  0
 24 25  1  0  0  0
M  END
> <minimizedAffinity>
-9.80418

$$$$
4NGP_J31_A_817


 50 50  0  0  0  0  0  0  0  0999 V2000
  -23.5474  -18.2262  -41.9176 C   0  0  0  0  0  0  0  0  0  0  0  0
  -25.7050  -17.3744  -42.8073 C   0  0  0  0  0  0  0  0  0  0  0  0
  -24.3940  -17.5755  -42.9300 N   0  0  0  0  0  0  0  0  0  0  0  0
  -26.2880  -17.6696  -41.7474 O   0  0  0  0  0  0  0  0  0  0  0  0
  -23.9600  -17.2664  -43.7579 H   0  0  0  0  0  0  0  0  0  0  0  0
  -25.9905  -15.3903  -44.3635 C   0  0  0  0  0  0  0  0  0  0  0  0
  -26.5286  -14.7546  -45.4925 C   0  0  0  0  0  0  0  0  0  0  0  0
  -27.4446  -15.4554  -46.3016 C   0  0  0  0  0  0  0  0  0  0  0  0
  -27.7822  -16.7571  -45.9397 C   0  0  0  0  0  0  0  0  0  0  0  0
  -27.2503  -17.3677  -44.8080 C   0  0  0  0  0  0  0  0  0  0  0  0
  -26.3523  -16.6906  -44.0078 C   0  0  0  0  0  0  0  0  0  0  0  0
  -25.0919  -14.7644  -43.5369 O   0  0  0  0  0  0  0  0  0  0  0  0
  -25.4639  -13.6253  -42.7486 C   0  0  0  0  0  0  0  0  0  0  0  0
  -24.4852  -12.5167  -43.0258 C   0  0  0  0  0  0  0  0  0  0  0  0
  -23.4548  -12.5841  -45.6329 O   0  0  0  0  0  0  0  0  0  0  0  0
  -24.3494  -11.7738  -45.3291 C   0  0  0  0  0  0  0  0  0  0  0  0
  -24.9099  -11.6898  -44.1181 N   0  0  0  0  0  0  0  0  0  0  0  0
  -25.6358  -11.0410  -43.9718 H   0  0  0  0  0  0  0  0  0  0  0  0
  -24.8215  -10.7907  -46.3739 C   0  0  0  0  0  0  0  0  0  0  0  0
  -26.3536  -10.7237  -46.4045 C   0  0  0  0  0  0  0  0  0  0  0  0
  -26.8251   -9.9976  -45.2577 O   0  0  0  0  0  0  0  0  0  0  0  0
  -28.1511   -9.4272  -45.3693 C   0  0  0  0  0  0  0  0  0  0  0  0
  -28.2630   -8.4120  -46.5148 C   0  0  0  0  0  0  0  0  0  0  0  0
  -29.3261   -8.7403  -47.4169 O   0  0  0  0  0  0  0  0  0  0  0  0
  -29.1556   -9.6080  -47.8155 H   0  0  0  0  0  0  0  0  0  0  0  0
  -22.9754  -19.5672  -42.3621 C   0  0  0  0  0  0  0  0  0  0  0  0
  -21.6884  -19.3945  -43.1903 C   0  0  0  0  0  0  0  0  0  0  0  0
  -21.6476  -20.3425  -44.3500 C   0  0  0  0  0  0  0  0  0  0  0  0
  -20.2400  -20.6948  -44.8589 C   0  0  0  0  0  0  0  0  0  0  0  0
  -19.3887  -20.1705  -43.8475 N   0  0  0  0  0  0  0  0  0  0  0  0
  -18.1834  -20.6458  -43.5532 C   0  0  0  0  0  0  0  0  0  0  0  0
  -17.7411  -21.6768  -44.0870 O   0  0  0  0  0  0  0  0  0  0  0  0
  -17.4636  -20.0232  -42.6078 N   0  0  0  0  0  0  0  0  0  0  0  0
  -19.7158  -19.4005  -43.3285 H   0  0  0  0  0  0  0  0  0  0  0  0
  -17.6204  -19.0736  -42.4004 H   0  0  0  0  0  0  0  0  0  0  0  0
  -16.4412  -20.7846  -41.8918 C   0  0  0  0  0  0  0  0  0  0  0  0
  -16.8034  -20.9575  -40.4271 C   0  0  0  0  0  0  0  0  0  0  0  0
  -17.8511  -20.4497  -39.9783 O   0  0  0  0  0  0  0  0  0  0  0  0
  -16.0189  -21.6462  -39.6443 O   0  0  0  0  0  0  0  0  0  0  0  0
  -15.2330  -22.0259  -39.9851 H   0  0  0  0  0  0  0  0  0  0  0  0
  -15.0343  -20.1176  -41.9376 C   0  0  0  0  0  0  0  0  0  0  0  0
  -15.1043  -18.7219  -41.2563 C   0  0  0  0  0  0  0  0  0  0  0  0
  -13.7764  -18.2489  -40.7601 C   0  0  0  0  0  0  0  0  0  0  0  0
  -13.6903  -17.1385  -40.1734 O   0  0  0  0  0  0  0  0  0  0  0  0
  -12.7080  -19.0024  -40.9054 O   0  0  0  0  0  0  0  0  0  0  0  0
  -12.7733  -19.8287  -41.3423 H   0  0  0  0  0  0  0  0  0  0  0  0
  -19.9548  -19.9857  -46.1593 C   0  0  0  0  0  0  0  0  0  0  0  0
  -19.6970  -18.6964  -46.1507 O   0  0  0  0  0  0  0  0  0  0  0  0
  -19.7896  -20.5750  -47.2164 O   0  0  0  0  0  0  0  0  0  0  0  0
  -19.9603  -21.4947  -47.2717 H   0  0  0  0  0  0  0  0  0  0  0  0
 15 16  2  0  0  0
 16 17  1  0  0  0
 16 19  1  0  0  0
 17 14  1  0  0  0
 14 13  1  0  0  0
 13 12  1  0  0  0
 12  6  1  0  0  0
  6  7  2  0  0  0
  6 11  1  0  0  0
  7  8  1  0  0  0
  8  9  2  0  0  0
  9 10  1  0  0  0
 10 11  2  0  0  0
 11  2  1  0  0  0
  2  3  1  0  0  0
  2  4  2  0  0  0
  3  1  1  0  0  0
  1 26  1  0  0  0
 26 27  1  0  0  0
 27 28  1  0  0  0
 28 29  1  0  0  0
 29 30  1  0  0  0
 29 47  1  0  0  0
 30 31  1  0  0  0
 31 32  2  0  0  0
 31 33  1  0  0  0
 33 36  1  0  0  0
 36 37  1  0  0  0
 36 41  1  0  0  0
 37 38  2  0  0  0
 37 39  1  0  0  0
 41 42  1  0  0  0
 42 43  1  0  0  0
 43 44  2  0  0  0
 43 45  1  0  0  0
 47 48  2  0  0  0
 47 49  1  0  0  0
 19 20  1  0  0  0
 20 21  1  0  0  0
 21 22  1  0  0  0
 22 23  1  0  0  0
 23 24  1  0  0  0
 17 18  1  0  0  0
  3  5  1  0  0  0
 30 34  1  0  0  0
 33 35  1  0  0  0
 39 40  1  0  0  0
 45 46  1  0  0  0
 49 50  1  0  0  0
 24 25  1  0  0  0
M  END
> <minimizedAffinity>
-9.72022

$$$$
4NGP_J31_A_817


 50 50  0  0  0  0  0  0  0  0999 V2000
  -25.8484  -14.7453  -41.3603 C   0  0  0  0  0  0  0  0  0  0  0  0
  -25.6103  -17.1642  -40.8458 C   0  0  0  0  0  0  0  0  0  0  0  0
  -25.3418  -15.8865  -40.5818 N   0  0  0  0  0  0  0  0  0  0  0  0
  -26.2680  -17.4704  -41.8578 O   0  0  0  0  0  0  0  0  0  0  0  0
  -24.7625  -15.6916  -39.8100 H   0  0  0  0  0  0  0  0  0  0  0  0
  -24.2548  -19.2523  -40.3536 C   0  0  0  0  0  0  0  0  0  0  0  0
  -23.6132  -20.1508  -39.4879 C   0  0  0  0  0  0  0  0  0  0  0  0
  -23.6788  -19.9282  -38.0983 C   0  0  0  0  0  0  0  0  0  0  0  0
  -24.3874  -18.8199  -37.6410 C   0  0  0  0  0  0  0  0  0  0  0  0
  -25.0305  -17.9466  -38.5128 C   0  0  0  0  0  0  0  0  0  0  0  0
  -24.9733  -18.1550  -39.8761 C   0  0  0  0  0  0  0  0  0  0  0  0
  -24.2261  -19.4107  -41.7161 O   0  0  0  0  0  0  0  0  0  0  0  0
  -23.0304  -19.8097  -42.4006 C   0  0  0  0  0  0  0  0  0  0  0  0
  -23.3606  -20.0087  -43.8550 C   0  0  0  0  0  0  0  0  0  0  0  0
  -23.6774  -21.2312  -46.3586 O   0  0  0  0  0  0  0  0  0  0  0  0
  -22.6318  -21.3966  -45.7038 C   0  0  0  0  0  0  0  0  0  0  0  0
  -22.3911  -20.8345  -44.5148 N   0  0  0  0  0  0  0  0  0  0  0  0
  -21.5224  -20.9922  -44.0792 H   0  0  0  0  0  0  0  0  0  0  0  0
  -21.5685  -22.3156  -46.2569 C   0  0  0  0  0  0  0  0  0  0  0  0
  -20.2255  -21.5841  -46.3749 C   0  0  0  0  0  0  0  0  0  0  0  0
  -19.5777  -21.5602  -45.0926 O   0  0  0  0  0  0  0  0  0  0  0  0
  -18.1722  -21.2133  -45.0982 C   0  0  0  0  0  0  0  0  0  0  0  0
  -17.6404  -20.8797  -43.6978 C   0  0  0  0  0  0  0  0  0  0  0  0
  -16.5608  -21.7409  -43.3177 O   0  0  0  0  0  0  0  0  0  0  0  0
  -16.8717  -22.6595  -43.2974 H   0  0  0  0  0  0  0  0  0  0  0  0
  -25.2797  -13.4003  -40.9235 C   0  0  0  0  0  0  0  0  0  0  0  0
  -26.2339  -12.2389  -41.2594 C   0  0  0  0  0  0  0  0  0  0  0  0
  -25.5393  -11.1610  -42.0345 C   0  0  0  0  0  0  0  0  0  0  0  0
  -25.4268  -11.4109  -43.5476 C   0  0  0  0  0  0  0  0  0  0  0  0
  -24.2499  -12.2014  -43.6592 N   0  0  0  0  0  0  0  0  0  0  0  0
  -24.0987  -13.2162  -44.5033 C   0  0  0  0  0  0  0  0  0  0  0  0
  -25.0381  -13.6251  -45.2061 O   0  0  0  0  0  0  0  0  0  0  0  0
  -22.9150  -13.8465  -44.5404 N   0  0  0  0  0  0  0  0  0  0  0  0
  -23.4934  -11.9809  -43.0690 H   0  0  0  0  0  0  0  0  0  0  0  0
  -22.0912  -13.3858  -44.2603 H   0  0  0  0  0  0  0  0  0  0  0  0
  -22.8741  -15.2320  -45.0056 C   0  0  0  0  0  0  0  0  0  0  0  0
  -23.6061  -16.1588  -44.0509 C   0  0  0  0  0  0  0  0  0  0  0  0
  -23.1074  -16.4325  -42.9402 O   0  0  0  0  0  0  0  0  0  0  0  0
  -24.7612  -16.6591  -44.3941 O   0  0  0  0  0  0  0  0  0  0  0  0
  -25.1324  -16.4512  -45.2290 H   0  0  0  0  0  0  0  0  0  0  0  0
  -21.4264  -15.7860  -45.1582 C   0  0  0  0  0  0  0  0  0  0  0  0
  -21.4861  -17.2320  -45.7258 C   0  0  0  0  0  0  0  0  0  0  0  0
  -20.2800  -18.0437  -45.3796 C   0  0  0  0  0  0  0  0  0  0  0  0
  -19.3132  -18.0969  -46.1840 O   0  0  0  0  0  0  0  0  0  0  0  0
  -20.2136  -18.6732  -44.2265 O   0  0  0  0  0  0  0  0  0  0  0  0
  -20.9339  -18.6329  -43.6286 H   0  0  0  0  0  0  0  0  0  0  0  0
  -25.2191  -10.1111  -44.2843 C   0  0  0  0  0  0  0  0  0  0  0  0
  -23.9991   -9.6514  -44.4549 O   0  0  0  0  0  0  0  0  0  0  0  0
  -26.1156   -9.5326  -44.8790 O   0  0  0  0  0  0  0  0  0  0  0  0
  -27.0016   -9.8237  -44.7887 H   0  0  0  0  0  0  0  0  0  0  0  0
 15 16  2  0  0  0
 16 17  1  0  0  0
 16 19  1  0  0  0
 17 14  1  0  0  0
 14 13  1  0  0  0
 13 12  1  0  0  0
 12  6  1  0  0  0
  6  7  2  0  0  0
  6 11  1  0  0  0
  7  8  1  0  0  0
  8  9  2  0  0  0
  9 10  1  0  0  0
 10 11  2  0  0  0
 11  2  1  0  0  0
  2  3  1  0  0  0
  2  4  2  0  0  0
  3  1  1  0  0  0
  1 26  1  0  0  0
 26 27  1  0  0  0
 27 28  1  0  0  0
 28 29  1  0  0  0
 29 30  1  0  0  0
 29 47  1  0  0  0
 30 31  1  0  0  0
 31 32  2  0  0  0
 31 33  1  0  0  0
 33 36  1  0  0  0
 36 37  1  0  0  0
 36 41  1  0  0  0
 37 38  2  0  0  0
 37 39  1  0  0  0
 41 42  1  0  0  0
 42 43  1  0  0  0
 43 44  2  0  0  0
 43 45  1  0  0  0
 47 48  2  0  0  0
 47 49  1  0  0  0
 19 20  1  0  0  0
 20 21  1  0  0  0
 21 22  1  0  0  0
 22 23  1  0  0  0
 23 24  1  0  0  0
 17 18  1  0  0  0
  3  5  1  0  0  0
 30 34  1  0  0  0
 33 35  1  0  0  0
 39 40  1  0  0  0
 45 46  1  0  0  0
 49 50  1  0  0  0
 24 25  1  0  0  0
M  END
> <minimizedAffinity>
-9.56782

$$$$
4NGP_J31_A_817


 50 50  0  0  0  0  0  0  0  0999 V2000
  -24.3765  -19.4561  -43.2088 C   0  0  0  0  0  0  0  0  0  0  0  0
  -25.6263  -17.3630  -42.7297 C   0  0  0  0  0  0  0  0  0  0  0  0
  -24.4968  -18.0692  -42.7324 N   0  0  0  0  0  0  0  0  0  0  0  0
  -26.6989  -17.8948  -43.0719 O   0  0  0  0  0  0  0  0  0  0  0  0
  -23.6837  -17.6315  -42.3909 H   0  0  0  0  0  0  0  0  0  0  0  0
  -25.5153  -14.8503  -43.0672 C   0  0  0  0  0  0  0  0  0  0  0  0
  -25.4356  -13.5291  -42.6022 C   0  0  0  0  0  0  0  0  0  0  0  0
  -25.3362  -13.2955  -41.2165 C   0  0  0  0  0  0  0  0  0  0  0  0
  -25.3163  -14.3953  -40.3624 C   0  0  0  0  0  0  0  0  0  0  0  0
  -25.3815  -15.7002  -40.8413 C   0  0  0  0  0  0  0  0  0  0  0  0
  -25.4787  -15.9410  -42.1970 C   0  0  0  0  0  0  0  0  0  0  0  0
  -25.6169  -15.1450  -44.4034 O   0  0  0  0  0  0  0  0  0  0  0  0
  -26.8528  -14.9900  -45.1146 C   0  0  0  0  0  0  0  0  0  0  0  0
  -26.6202  -14.0568  -46.2717 C   0  0  0  0  0  0  0  0  0  0  0  0
  -25.5099  -11.9030  -47.6828 O   0  0  0  0  0  0  0  0  0  0  0  0
  -26.0739  -11.7166  -46.5890 C   0  0  0  0  0  0  0  0  0  0  0  0
  -26.6471  -12.6821  -45.8632 N   0  0  0  0  0  0  0  0  0  0  0  0
  -27.1012  -12.4424  -45.0232 H   0  0  0  0  0  0  0  0  0  0  0  0
  -26.0923  -10.3210  -46.0120 C   0  0  0  0  0  0  0  0  0  0  0  0
  -27.3760  -10.0824  -45.2072 C   0  0  0  0  0  0  0  0  0  0  0  0
  -27.8814   -8.7671  -45.4886 O   0  0  0  0  0  0  0  0  0  0  0  0
  -26.9338   -7.8315  -46.0566 C   0  0  0  0  0  0  0  0  0  0  0  0
  -27.5667   -6.9202  -47.1170 C   0  0  0  0  0  0  0  0  0  0  0  0
  -28.7811   -7.4722  -47.6389 O   0  0  0  0  0  0  0  0  0  0  0  0
  -28.5928   -8.3233  -48.0645 H   0  0  0  0  0  0  0  0  0  0  0  0
  -22.9653  -19.8402  -43.6378 C   0  0  0  0  0  0  0  0  0  0  0  0
  -21.9293  -18.7838  -43.2100 C   0  0  0  0  0  0  0  0  0  0  0  0
  -20.7920  -18.7016  -44.1820 C   0  0  0  0  0  0  0  0  0  0  0  0
  -19.9208  -19.9650  -44.2795 C   0  0  0  0  0  0  0  0  0  0  0  0
  -18.7046  -19.5691  -43.6579 N   0  0  0  0  0  0  0  0  0  0  0  0
  -17.7864  -20.4085  -43.1913 C   0  0  0  0  0  0  0  0  0  0  0  0
  -17.9754  -21.6362  -43.1719 O   0  0  0  0  0  0  0  0  0  0  0  0
  -16.6589  -19.8993  -42.6725 N   0  0  0  0  0  0  0  0  0  0  0  0
  -18.5305  -18.6044  -43.5668 H   0  0  0  0  0  0  0  0  0  0  0  0
  -16.3380  -19.0090  -42.9438 H   0  0  0  0  0  0  0  0  0  0  0  0
  -15.9165  -20.6946  -41.6957 C   0  0  0  0  0  0  0  0  0  0  0  0
  -16.5846  -20.6622  -40.3323 C   0  0  0  0  0  0  0  0  0  0  0  0
  -15.9036  -20.8207  -39.2988 O   0  0  0  0  0  0  0  0  0  0  0  0
  -17.8707  -20.4592  -40.2475 O   0  0  0  0  0  0  0  0  0  0  0  0
  -18.3786  -20.3406  -41.0259 H   0  0  0  0  0  0  0  0  0  0  0  0
  -14.4499  -20.2093  -41.4961 C   0  0  0  0  0  0  0  0  0  0  0  0
  -14.3710  -18.6820  -41.7751 C   0  0  0  0  0  0  0  0  0  0  0  0
  -14.0386  -17.8838  -40.5562 C   0  0  0  0  0  0  0  0  0  0  0  0
  -14.6764  -16.8266  -40.3110 O   0  0  0  0  0  0  0  0  0  0  0  0
  -13.1073  -18.2996  -39.7255 O   0  0  0  0  0  0  0  0  0  0  0  0
  -12.6332  -19.0867  -39.9091 H   0  0  0  0  0  0  0  0  0  0  0  0
  -19.6475  -20.3089  -45.7225 C   0  0  0  0  0  0  0  0  0  0  0  0
  -20.0042  -19.4672  -46.6675 O   0  0  0  0  0  0  0  0  0  0  0  0
  -18.9624  -21.2618  -46.0612 O   0  0  0  0  0  0  0  0  0  0  0  0
  -18.6836  -21.8887  -45.4231 H   0  0  0  0  0  0  0  0  0  0  0  0
 15 16  2  0  0  0
 16 17  1  0  0  0
 16 19  1  0  0  0
 17 14  1  0  0  0
 14 13  1  0  0  0
 13 12  1  0  0  0
 12  6  1  0  0  0
  6  7  2  0  0  0
  6 11  1  0  0  0
  7  8  1  0  0  0
  8  9  2  0  0  0
  9 10  1  0  0  0
 10 11  2  0  0  0
 11  2  1  0  0  0
  2  3  1  0  0  0
  2  4  2  0  0  0
  3  1  1  0  0  0
  1 26  1  0  0  0
 26 27  1  0  0  0
 27 28  1  0  0  0
 28 29  1  0  0  0
 29 30  1  0  0  0
 29 47  1  0  0  0
 30 31  1  0  0  0
 31 32  2  0  0  0
 31 33  1  0  0  0
 33 36  1  0  0  0
 36 37  1  0  0  0
 36 41  1  0  0  0
 37 38  2  0  0  0
 37 39  1  0  0  0
 41 42  1  0  0  0
 42 43  1  0  0  0
 43 44  2  0  0  0
 43 45  1  0  0  0
 47 48  2  0  0  0
 47 49  1  0  0  0
 19 20  1  0  0  0
 20 21  1  0  0  0
 21 22  1  0  0  0
 22 23  1  0  0  0
 23 24  1  0  0  0
 17 18  1  0  0  0
  3  5  1  0  0  0
 30 34  1  0  0  0
 33 35  1  0  0  0
 39 40  1  0  0  0
 45 46  1  0  0  0
 49 50  1  0  0  0
 24 25  1  0  0  0
M  END
> <minimizedAffinity>
-9.48803

$$$$
