3GY2_BRN_A_1


 28 29  0  0  0  0  0  0  0  0999 V2000
   -0.1203   16.5695   19.0798 N   0  0  0  0  0  0  0  0  0  0  0  0
    0.7456   17.0096   18.9194 H   0  0  0  0  0  0  0  0  0  0  0  0
   -0.6172   15.7673   18.1396 C   0  0  0  0  0  0  0  0  0  0  0  0
   -1.2324   16.3542   17.0450 C   0  0  0  0  0  0  0  0  0  0  0  0
   -1.7364   15.5338   16.0525 C   0  0  0  0  0  0  0  0  0  0  0  0
   -1.6128   14.1490   16.1646 C   0  0  0  0  0  0  0  0  0  0  0  0
   -0.9846   13.5597   17.2635 C   0  0  0  0  0  0  0  0  0  0  0  0
   -0.4909   14.3882   18.2661 C   0  0  0  0  0  0  0  0  0  0  0  0
   -2.1497   13.2948   15.0694 C   0  0  0  0  0  0  0  0  0  0  0  0
   -3.0902   13.7197   14.3366 N   0  0  0  0  0  0  0  0  0  0  0  0
   -1.6465   12.0747   14.8948 N   0  0  0  0  0  0  0  0  0  0  0  0
   -3.4532   14.6241   14.4765 H   0  0  0  0  0  0  0  0  0  0  0  0
   -0.9149   11.7566   15.4718 H   0  0  0  0  0  0  0  0  0  0  0  0
   -2.0059   11.4904   14.1886 H   0  0  0  0  0  0  0  0  0  0  0  0
   -0.7377   16.7917   20.2000 N   0  0  0  0  0  0  0  0  0  0  0  0
   -0.1138   17.4925   20.9981 N   0  0  0  0  0  0  0  0  0  0  0  0
   -0.7032   17.8444   22.1994 C   0  0  0  0  0  0  0  0  0  0  0  0
   -0.0991   18.7911   23.0304 C   0  0  0  0  0  0  0  0  0  0  0  0
   -0.7017   19.1092   24.2390 C   0  0  0  0  0  0  0  0  0  0  0  0
   -1.8795   18.4497   24.5914 C   0  0  0  0  0  0  0  0  0  0  0  0
   -2.4712   17.5047   23.7616 C   0  0  0  0  0  0  0  0  0  0  0  0
   -1.8767   17.1904   22.5542 C   0  0  0  0  0  0  0  0  0  0  0  0
   -2.5346   18.7710   25.8896 C   0  0  0  0  0  0  0  0  0  0  0  0
   -2.5326   19.9653   26.2755 N   0  0  0  0  0  0  0  0  0  0  0  0
   -3.0918   17.8062   26.6245 N   0  0  0  0  0  0  0  0  0  0  0  0
   -2.1162   20.6619   25.7183 H   0  0  0  0  0  0  0  0  0  0  0  0
   -3.0827   16.8756   26.3036 H   0  0  0  0  0  0  0  0  0  0  0  0
   -3.5119   18.0252   27.4875 H   0  0  0  0  0  0  0  0  0  0  0  0
  3  4  2  0  0  0
  3  8  1  0  0  0
  3  1  1  0  0  0
  4  5  1  0  0  0
  5  6  2  0  0  0
  6  7  1  0  0  0
  6  9  1  0  0  0
  7  8  2  0  0  0
  9 10  2  0  0  0
  9 11  1  0  0  0
  1 15  1  0  0  0
 15 16  2  0  0  0
 16 17  1  0  0  0
 17 18  2  0  0  0
 17 22  1  0  0  0
 18 19  1  0  0  0
 19 20  2  0  0  0
 20 21  1  0  0  0
 20 23  1  0  0  0
 21 22  2  0  0  0
 23 24  2  0  0  0
 23 25  1  0  0  0
 10 12  1  0  0  0
 11 13  1  0  0  0
 11 14  1  0  0  0
  1  2  1  0  0  0
 24 26  1  0  0  0
 25 27  1  0  0  0
 25 28  1  0  0  0
M  END
> <minimizedAffinity>
-8.42657

$$$$
3GY2_BRN_A_1


 28 29  0  0  0  0  0  0  0  0999 V2000
   -0.5212   16.3509   19.2503 N   0  0  0  0  0  0  0  0  0  0  0  0
   -1.1202   16.3750   20.0313 H   0  0  0  0  0  0  0  0  0  0  0  0
   -0.8807   15.6338   18.1869 C   0  0  0  0  0  0  0  0  0  0  0  0
   -0.5736   14.2823   18.1821 C   0  0  0  0  0  0  0  0  0  0  0  0
   -0.9570   13.5220   17.0926 C   0  0  0  0  0  0  0  0  0  0  0  0
   -1.6430   14.1182   16.0346 C   0  0  0  0  0  0  0  0  0  0  0  0
   -1.9597   15.4781   16.0451 C   0  0  0  0  0  0  0  0  0  0  0  0
   -1.5603   16.2419   17.1370 C   0  0  0  0  0  0  0  0  0  0  0  0
   -2.0581   13.2676   14.8851 C   0  0  0  0  0  0  0  0  0  0  0  0
   -2.8293   13.7342   13.9965 N   0  0  0  0  0  0  0  0  0  0  0  0
   -1.6302   12.0083   14.8244 N   0  0  0  0  0  0  0  0  0  0  0  0
   -3.1383   14.6672   14.0534 H   0  0  0  0  0  0  0  0  0  0  0  0
   -1.0306   11.6580   15.5222 H   0  0  0  0  0  0  0  0  0  0  0  0
   -1.9135   11.4274   14.0817 H   0  0  0  0  0  0  0  0  0  0  0  0
    0.5910   17.0192   19.2934 N   0  0  0  0  0  0  0  0  0  0  0  0
    0.5156   18.1676   18.8542 N   0  0  0  0  0  0  0  0  0  0  0  0
    1.6263   18.9908   18.9089 C   0  0  0  0  0  0  0  0  0  0  0  0
    2.4378   19.0048   20.0461 C   0  0  0  0  0  0  0  0  0  0  0  0
    3.5332   19.8557   20.0816 C   0  0  0  0  0  0  0  0  0  0  0  0
    3.7684   20.6870   18.9862 C   0  0  0  0  0  0  0  0  0  0  0  0
    2.9528   20.6712   17.8610 C   0  0  0  0  0  0  0  0  0  0  0  0
    1.8646   19.8201   17.8199 C   0  0  0  0  0  0  0  0  0  0  0  0
    4.9336   21.6141   19.0113 C   0  0  0  0  0  0  0  0  0  0  0  0
    5.3526   22.0100   20.1261 N   0  0  0  0  0  0  0  0  0  0  0  0
    5.5003   22.0211   17.8736 N   0  0  0  0  0  0  0  0  0  0  0  0
    4.9204   21.6977   20.9537 H   0  0  0  0  0  0  0  0  0  0  0  0
    5.1562   21.6986   17.0094 H   0  0  0  0  0  0  0  0  0  0  0  0
    6.2623   22.6440   17.8985 H   0  0  0  0  0  0  0  0  0  0  0  0
  3  4  2  0  0  0
  3  8  1  0  0  0
  3  1  1  0  0  0
  4  5  1  0  0  0
  5  6  2  0  0  0
  6  7  1  0  0  0
  6  9  1  0  0  0
  7  8  2  0  0  0
  9 10  2  0  0  0
  9 11  1  0  0  0
  1 15  1  0  0  0
 15 16  2  0  0  0
 16 17  1  0  0  0
 17 18  2  0  0  0
 17 22  1  0  0  0
 18 19  1  0  0  0
 19 20  2  0  0  0
 20 21  1  0  0  0
 20 23  1  0  0  0
 21 22  2  0  0  0
 23 24  2  0  0  0
 23 25  1  0  0  0
 10 12  1  0  0  0
 11 13  1  0  0  0
 11 14  1  0  0  0
  1  2  1  0  0  0
 24 26  1  0  0  0
 25 27  1  0  0  0
 25 28  1  0  0  0
M  END
> <minimizedAffinity>
-8.37418

$$$$
3GY2_BRN_A_1


 28 29  0  0  0  0  0  0  0  0999 V2000
   -0.4907   16.3702   19.2273 N   0  0  0  0  0  0  0  0  0  0  0  0
   -1.0512   16.4126   20.0356 H   0  0  0  0  0  0  0  0  0  0  0  0
   -0.8757   15.5897   18.2188 C   0  0  0  0  0  0  0  0  0  0  0  0
   -1.4516   16.1955   17.1132 C   0  0  0  0  0  0  0  0  0  0  0  0
   -1.8393   15.3992   16.0513 C   0  0  0  0  0  0  0  0  0  0  0  0
   -1.6407   14.0197   16.1068 C   0  0  0  0  0  0  0  0  0  0  0  0
   -1.0520   13.4120   17.2175 C   0  0  0  0  0  0  0  0  0  0  0  0
   -0.6758   14.2153   18.2892 C   0  0  0  0  0  0  0  0  0  0  0  0
   -2.0522   13.1930   14.9387 C   0  0  0  0  0  0  0  0  0  0  0  0
   -1.6163   12.0114   14.8126 N   0  0  0  0  0  0  0  0  0  0  0  0
   -2.8573   13.7248   14.0213 N   0  0  0  0  0  0  0  0  0  0  0  0
   -1.0216   11.6303   15.4984 H   0  0  0  0  0  0  0  0  0  0  0  0
   -3.1892   14.6450   14.1316 H   0  0  0  0  0  0  0  0  0  0  0  0
   -3.1208   13.1977   13.2326 H   0  0  0  0  0  0  0  0  0  0  0  0
    0.5974   17.0768   19.1820 N   0  0  0  0  0  0  0  0  0  0  0  0
    0.4164   18.2869   19.0400 N   0  0  0  0  0  0  0  0  0  0  0  0
    1.5043   19.1419   19.0412 C   0  0  0  0  0  0  0  0  0  0  0  0
    1.6960   20.0401   17.9885 C   0  0  0  0  0  0  0  0  0  0  0  0
    2.8070   20.8710   18.0056 C   0  0  0  0  0  0  0  0  0  0  0  0
    3.7077   20.7593   19.0651 C   0  0  0  0  0  0  0  0  0  0  0  0
    3.5128   19.8590   20.1057 C   0  0  0  0  0  0  0  0  0  0  0  0
    2.4037   19.0344   20.0948 C   0  0  0  0  0  0  0  0  0  0  0  0
    4.9112   21.6360   19.0945 C   0  0  0  0  0  0  0  0  0  0  0  0
    5.4940   21.8799   18.0101 N   0  0  0  0  0  0  0  0  0  0  0  0
    5.3607   22.1311   20.2495 N   0  0  0  0  0  0  0  0  0  0  0  0
    5.1460   21.5048   17.1690 H   0  0  0  0  0  0  0  0  0  0  0  0
    4.8887   21.9276   21.0892 H   0  0  0  0  0  0  0  0  0  0  0  0
    6.1643   22.6997   20.2618 H   0  0  0  0  0  0  0  0  0  0  0  0
  3  4  2  0  0  0
  3  8  1  0  0  0
  3  1  1  0  0  0
  4  5  1  0  0  0
  5  6  2  0  0  0
  6  7  1  0  0  0
  6  9  1  0  0  0
  7  8  2  0  0  0
  9 10  2  0  0  0
  9 11  1  0  0  0
  1 15  1  0  0  0
 15 16  2  0  0  0
 16 17  1  0  0  0
 17 18  2  0  0  0
 17 22  1  0  0  0
 18 19  1  0  0  0
 19 20  2  0  0  0
 20 21  1  0  0  0
 20 23  1  0  0  0
 21 22  2  0  0  0
 23 24  2  0  0  0
 23 25  1  0  0  0
 10 12  1  0  0  0
 11 13  1  0  0  0
 11 14  1  0  0  0
  1  2  1  0  0  0
 24 26  1  0  0  0
 25 27  1  0  0  0
 25 28  1  0  0  0
M  END
> <minimizedAffinity>
-8.32016

$$$$
3GY2_BRN_A_1


 28 29  0  0  0  0  0  0  0  0999 V2000
   -0.0339   18.1862   20.2089 N   0  0  0  0  0  0  0  0  0  0  0  0
   -0.6721   18.1792   20.9584 H   0  0  0  0  0  0  0  0  0  0  0  0
    1.0946   18.8832   20.3325 C   0  0  0  0  0  0  0  0  0  0  0  0
    2.0697   18.7161   19.3618 C   0  0  0  0  0  0  0  0  0  0  0  0
    3.2387   19.4470   19.4676 C   0  0  0  0  0  0  0  0  0  0  0  0
    3.4116   20.3332   20.5309 C   0  0  0  0  0  0  0  0  0  0  0  0
    2.4245   20.5071   21.5029 C   0  0  0  0  0  0  0  0  0  0  0  0
    1.2557   19.7598   21.3999 C   0  0  0  0  0  0  0  0  0  0  0  0
    4.6743   21.1189   20.6052 C   0  0  0  0  0  0  0  0  0  0  0  0
    5.2386   21.3087   21.7223 N   0  0  0  0  0  0  0  0  0  0  0  0
    5.1794   21.6389   19.4885 N   0  0  0  0  0  0  0  0  0  0  0  0
    4.8544   20.9184   22.5404 H   0  0  0  0  0  0  0  0  0  0  0  0
    4.7305   21.4836   18.6262 H   0  0  0  0  0  0  0  0  0  0  0  0
    6.0019   22.1788   19.5251 H   0  0  0  0  0  0  0  0  0  0  0  0
   -0.3217   17.5158   19.1350 N   0  0  0  0  0  0  0  0  0  0  0  0
   -0.5797   16.3268   19.3275 N   0  0  0  0  0  0  0  0  0  0  0  0
   -0.9610   15.5324   18.2607 C   0  0  0  0  0  0  0  0  0  0  0  0
   -0.8385   14.1429   18.3376 C   0  0  0  0  0  0  0  0  0  0  0  0
   -1.2089   13.3724   17.2447 C   0  0  0  0  0  0  0  0  0  0  0  0
   -1.6673   14.0191   16.0967 C   0  0  0  0  0  0  0  0  0  0  0  0
   -1.7807   15.4025   16.0263 C   0  0  0  0  0  0  0  0  0  0  0  0
   -1.4186   16.1724   17.1155 C   0  0  0  0  0  0  0  0  0  0  0  0
   -2.0595   13.2086   14.9106 C   0  0  0  0  0  0  0  0  0  0  0  0
   -1.6407   12.0280   14.8342 N   0  0  0  0  0  0  0  0  0  0  0  0
   -2.8223   13.7368   13.9512 N   0  0  0  0  0  0  0  0  0  0  0  0
   -1.0791   11.6574   15.5529 H   0  0  0  0  0  0  0  0  0  0  0  0
   -3.1404   14.6651   14.0305 H   0  0  0  0  0  0  0  0  0  0  0  0
   -3.0668   13.1981   13.1643 H   0  0  0  0  0  0  0  0  0  0  0  0
  3  4  2  0  0  0
  3  8  1  0  0  0
  3  1  1  0  0  0
  4  5  1  0  0  0
  5  6  2  0  0  0
  6  7  1  0  0  0
  6  9  1  0  0  0
  7  8  2  0  0  0
  9 10  2  0  0  0
  9 11  1  0  0  0
  1 15  1  0  0  0
 15 16  2  0  0  0
 16 17  1  0  0  0
 17 18  2  0  0  0
 17 22  1  0  0  0
 18 19  1  0  0  0
 19 20  2  0  0  0
 20 21  1  0  0  0
 20 23  1  0  0  0
 21 22  2  0  0  0
 23 24  2  0  0  0
 23 25  1  0  0  0
 10 12  1  0  0  0
 11 13  1  0  0  0
 11 14  1  0  0  0
  1  2  1  0  0  0
 24 26  1  0  0  0
 25 27  1  0  0  0
 25 28  1  0  0  0
M  END
> <minimizedAffinity>
-8.10390

$$$$
3GY2_BRN_A_1


 28 29  0  0  0  0  0  0  0  0999 V2000
   -0.7243   17.4740   21.0617 N   0  0  0  0  0  0  0  0  0  0  0  0
    0.2157   17.7610   21.0039 H   0  0  0  0  0  0  0  0  0  0  0  0
   -1.4360   17.8170   22.1341 C   0  0  0  0  0  0  0  0  0  0  0  0
   -1.9649   19.0974   22.1792 C   0  0  0  0  0  0  0  0  0  0  0  0
   -2.7212   19.4609   23.2782 C   0  0  0  0  0  0  0  0  0  0  0  0
   -2.9420   18.5436   24.3055 C   0  0  0  0  0  0  0  0  0  0  0  0
   -2.4162   17.2511   24.2543 C   0  0  0  0  0  0  0  0  0  0  0  0
   -1.6447   16.8940   23.1531 C   0  0  0  0  0  0  0  0  0  0  0  0
   -3.7765   18.9607   25.4660 C   0  0  0  0  0  0  0  0  0  0  0  0
   -3.5605   20.0697   26.0367 N   0  0  0  0  0  0  0  0  0  0  0  0
   -4.7273   18.1399   25.9075 N   0  0  0  0  0  0  0  0  0  0  0  0
   -2.8543   20.6673   25.7000 H   0  0  0  0  0  0  0  0  0  0  0  0
   -4.8849   17.2803   25.4543 H   0  0  0  0  0  0  0  0  0  0  0  0
   -5.2728   18.3927   26.6871 H   0  0  0  0  0  0  0  0  0  0  0  0
   -1.2263   16.7747   20.0899 N   0  0  0  0  0  0  0  0  0  0  0  0
   -0.4043   16.3940   19.2552 N   0  0  0  0  0  0  0  0  0  0  0  0
   -0.8198   15.5885   18.2098 C   0  0  0  0  0  0  0  0  0  0  0  0
   -0.5398   14.2199   18.2201 C   0  0  0  0  0  0  0  0  0  0  0  0
   -0.9503   13.4400   17.1485 C   0  0  0  0  0  0  0  0  0  0  0  0
   -1.6072   14.0597   16.0850 C   0  0  0  0  0  0  0  0  0  0  0  0
   -1.8768   15.4231   16.0798 C   0  0  0  0  0  0  0  0  0  0  0  0
   -1.4749   16.2015   17.1488 C   0  0  0  0  0  0  0  0  0  0  0  0
   -2.0458   13.2399   14.9217 C   0  0  0  0  0  0  0  0  0  0  0  0
   -2.8253   13.7622   14.0883 N   0  0  0  0  0  0  0  0  0  0  0  0
   -1.6295   11.9792   14.7859 N   0  0  0  0  0  0  0  0  0  0  0  0
   -3.1205   14.6939   14.2069 H   0  0  0  0  0  0  0  0  0  0  0  0
   -1.0178   11.5883   15.4510 H   0  0  0  0  0  0  0  0  0  0  0  0
   -1.9340   11.4400   14.0205 H   0  0  0  0  0  0  0  0  0  0  0  0
  3  4  2  0  0  0
  3  8  1  0  0  0
  3  1  1  0  0  0
  4  5  1  0  0  0
  5  6  2  0  0  0
  6  7  1  0  0  0
  6  9  1  0  0  0
  7  8  2  0  0  0
  9 10  2  0  0  0
  9 11  1  0  0  0
  1 15  1  0  0  0
 15 16  2  0  0  0
 16 17  1  0  0  0
 17 18  2  0  0  0
 17 22  1  0  0  0
 18 19  1  0  0  0
 19 20  2  0  0  0
 20 21  1  0  0  0
 20 23  1  0  0  0
 21 22  2  0  0  0
 23 24  2  0  0  0
 23 25  1  0  0  0
 10 12  1  0  0  0
 11 13  1  0  0  0
 11 14  1  0  0  0
  1  2  1  0  0  0
 24 26  1  0  0  0
 25 27  1  0  0  0
 25 28  1  0  0  0
M  END
> <minimizedAffinity>
-7.97764

$$$$
3GY2_BRN_A_1


 28 29  0  0  0  0  0  0  0  0999 V2000
   -1.4902   15.9226   19.4734 N   0  0  0  0  0  0  0  0  0  0  0  0
   -2.1973   15.7966   20.1467 H   0  0  0  0  0  0  0  0  0  0  0  0
   -1.5830   15.2720   18.3147 C   0  0  0  0  0  0  0  0  0  0  0  0
   -1.3970   13.8986   18.3254 C   0  0  0  0  0  0  0  0  0  0  0  0
   -1.5086   13.2080   17.1327 C   0  0  0  0  0  0  0  0  0  0  0  0
   -1.8093   13.8945   15.9563 C   0  0  0  0  0  0  0  0  0  0  0  0
   -2.0055   15.2769   15.9489 C   0  0  0  0  0  0  0  0  0  0  0  0
   -1.8790   15.9696   17.1487 C   0  0  0  0  0  0  0  0  0  0  0  0
   -1.9410   13.1186   14.6923 C   0  0  0  0  0  0  0  0  0  0  0  0
   -1.6409   11.8891   14.6685 N   0  0  0  0  0  0  0  0  0  0  0  0
   -2.3489   13.7429   13.5894 N   0  0  0  0  0  0  0  0  0  0  0  0
   -1.3406   11.4397   15.4913 H   0  0  0  0  0  0  0  0  0  0  0  0
   -2.5793   14.6995   13.6219 H   0  0  0  0  0  0  0  0  0  0  0  0
   -2.4203   13.2479   12.7414 H   0  0  0  0  0  0  0  0  0  0  0  0
   -0.5002   16.7170   19.7462 N   0  0  0  0  0  0  0  0  0  0  0  0
   -0.7752   17.6279   20.5284 N   0  0  0  0  0  0  0  0  0  0  0  0
    0.2207   18.4970   20.9373 C   0  0  0  0  0  0  0  0  0  0  0  0
    1.3236   18.7419   20.1154 C   0  0  0  0  0  0  0  0  0  0  0  0
    2.3175   19.6018   20.5602 C   0  0  0  0  0  0  0  0  0  0  0  0
    2.1895   20.1714   21.8273 C   0  0  0  0  0  0  0  0  0  0  0  0
    1.0918   19.9180   22.6412 C   0  0  0  0  0  0  0  0  0  0  0  0
    0.0969   19.0669   22.1984 C   0  0  0  0  0  0  0  0  0  0  0  0
    3.2518   21.0886   22.3251 C   0  0  0  0  0  0  0  0  0  0  0  0
    3.6678   20.9328   23.4988 N   0  0  0  0  0  0  0  0  0  0  0  0
    3.7309   22.0582   21.5430 N   0  0  0  0  0  0  0  0  0  0  0  0
    3.3011   20.2113   24.0593 H   0  0  0  0  0  0  0  0  0  0  0  0
    3.3909   22.1634   20.6251 H   0  0  0  0  0  0  0  0  0  0  0  0
    4.4243   22.6683   21.8840 H   0  0  0  0  0  0  0  0  0  0  0  0
  3  4  2  0  0  0
  3  8  1  0  0  0
  3  1  1  0  0  0
  4  5  1  0  0  0
  5  6  2  0  0  0
  6  7  1  0  0  0
  6  9  1  0  0  0
  7  8  2  0  0  0
  9 10  2  0  0  0
  9 11  1  0  0  0
  1 15  1  0  0  0
 15 16  2  0  0  0
 16 17  1  0  0  0
 17 18  2  0  0  0
 17 22  1  0  0  0
 18 19  1  0  0  0
 19 20  2  0  0  0
 20 21  1  0  0  0
 20 23  1  0  0  0
 21 22  2  0  0  0
 23 24  2  0  0  0
 23 25  1  0  0  0
 10 12  1  0  0  0
 11 13  1  0  0  0
 11 14  1  0  0  0
  1  2  1  0  0  0
 24 26  1  0  0  0
 25 27  1  0  0  0
 25 28  1  0  0  0
M  END
> <minimizedAffinity>
-7.51502

$$$$
3GY2_BRN_A_1


 28 29  0  0  0  0  0  0  0  0999 V2000
    0.5592   18.0430   20.0369 N   0  0  0  0  0  0  0  0  0  0  0  0
    1.5094   18.0673   20.2934 H   0  0  0  0  0  0  0  0  0  0  0  0
   -0.3240   18.7081   20.7798 C   0  0  0  0  0  0  0  0  0  0  0  0
   -0.9392   19.8164   20.2192 C   0  0  0  0  0  0  0  0  0  0  0  0
   -1.8717   20.5055   20.9725 C   0  0  0  0  0  0  0  0  0  0  0  0
   -2.1786   20.0756   22.2635 C   0  0  0  0  0  0  0  0  0  0  0  0
   -1.5646   18.9534   22.8235 C   0  0  0  0  0  0  0  0  0  0  0  0
   -0.6173   18.2711   22.0670 C   0  0  0  0  0  0  0  0  0  0  0  0
   -3.2009   20.8288   23.0412 C   0  0  0  0  0  0  0  0  0  0  0  0
   -3.9356   20.2240   23.8758 N   0  0  0  0  0  0  0  0  0  0  0  0
   -3.3471   22.1341   22.8235 N   0  0  0  0  0  0  0  0  0  0  0  0
   -3.8169   19.2585   24.0272 H   0  0  0  0  0  0  0  0  0  0  0  0
   -2.7690   22.5922   22.1714 H   0  0  0  0  0  0  0  0  0  0  0  0
   -4.0334   22.6412   23.3145 H   0  0  0  0  0  0  0  0  0  0  0  0
    0.2114   17.3639   18.9865 N   0  0  0  0  0  0  0  0  0  0  0  0
   -0.2502   16.2477   19.2282 N   0  0  0  0  0  0  0  0  0  0  0  0
   -0.7111   15.4623   18.1865 C   0  0  0  0  0  0  0  0  0  0  0  0
   -0.4980   14.0816   18.1971 C   0  0  0  0  0  0  0  0  0  0  0  0
   -0.9528   13.3215   17.1291 C   0  0  0  0  0  0  0  0  0  0  0  0
   -1.5854   13.9713   16.0689 C   0  0  0  0  0  0  0  0  0  0  0  0
   -1.7883   15.3462   16.0634 C   0  0  0  0  0  0  0  0  0  0  0  0
   -1.3421   16.1053   17.1288 C   0  0  0  0  0  0  0  0  0  0  0  0
   -2.0707   13.1726   14.9095 C   0  0  0  0  0  0  0  0  0  0  0  0
   -1.6388   12.0021   14.7732 N   0  0  0  0  0  0  0  0  0  0  0  0
   -2.9291   13.7009   14.0346 N   0  0  0  0  0  0  0  0  0  0  0  0
   -1.0061   11.6313   15.4299 H   0  0  0  0  0  0  0  0  0  0  0  0
   -3.2559   14.6210   14.1599 H   0  0  0  0  0  0  0  0  0  0  0  0
   -3.2354   13.1703   13.2639 H   0  0  0  0  0  0  0  0  0  0  0  0
  3  4  2  0  0  0
  3  8  1  0  0  0
  3  1  1  0  0  0
  4  5  1  0  0  0
  5  6  2  0  0  0
  6  7  1  0  0  0
  6  9  1  0  0  0
  7  8  2  0  0  0
  9 10  2  0  0  0
  9 11  1  0  0  0
  1 15  1  0  0  0
 15 16  2  0  0  0
 16 17  1  0  0  0
 17 18  2  0  0  0
 17 22  1  0  0  0
 18 19  1  0  0  0
 19 20  2  0  0  0
 20 21  1  0  0  0
 20 23  1  0  0  0
 21 22  2  0  0  0
 23 24  2  0  0  0
 23 25  1  0  0  0
 10 12  1  0  0  0
 11 13  1  0  0  0
 11 14  1  0  0  0
  1  2  1  0  0  0
 24 26  1  0  0  0
 25 27  1  0  0  0
 25 28  1  0  0  0
M  END
> <minimizedAffinity>
-7.13988

$$$$
3GY2_BRN_A_1


 28 29  0  0  0  0  0  0  0  0999 V2000
    2.3634   20.7138   16.8113 N   0  0  0  0  0  0  0  0  0  0  0  0
    1.9950   21.6220   16.9045 H   0  0  0  0  0  0  0  0  0  0  0  0
    1.6788   19.6879   17.3145 C   0  0  0  0  0  0  0  0  0  0  0  0
    0.7346   19.0781   16.5035 C   0  0  0  0  0  0  0  0  0  0  0  0
    0.0294   18.0003   17.0066 C   0  0  0  0  0  0  0  0  0  0  0  0
    0.2815   17.5468   18.3014 C   0  0  0  0  0  0  0  0  0  0  0  0
    1.2394   18.1565   19.1139 C   0  0  0  0  0  0  0  0  0  0  0  0
    1.9370   19.2489   18.6085 C   0  0  0  0  0  0  0  0  0  0  0  0
   -0.4820   16.3722   18.8061 C   0  0  0  0  0  0  0  0  0  0  0  0
   -1.3954   16.5319   19.6677 N   0  0  0  0  0  0  0  0  0  0  0  0
   -0.1695   15.1573   18.3601 N   0  0  0  0  0  0  0  0  0  0  0  0
   -1.6164   17.4358   19.9890 H   0  0  0  0  0  0  0  0  0  0  0  0
    0.5431   15.0472   17.6898 H   0  0  0  0  0  0  0  0  0  0  0  0
   -0.6510   14.3690   18.7007 H   0  0  0  0  0  0  0  0  0  0  0  0
    3.4994   20.5584   16.2023 N   0  0  0  0  0  0  0  0  0  0  0  0
    3.4597   20.7544   14.9868 N   0  0  0  0  0  0  0  0  0  0  0  0
    4.6265   20.6774   14.2472 C   0  0  0  0  0  0  0  0  0  0  0  0
    5.5435   19.6500   14.4824 C   0  0  0  0  0  0  0  0  0  0  0  0
    6.7150   19.6095   13.7401 C   0  0  0  0  0  0  0  0  0  0  0  0
    6.9452   20.6154   12.8011 C   0  0  0  0  0  0  0  0  0  0  0  0
    6.0304   21.6374   12.5772 C   0  0  0  0  0  0  0  0  0  0  0  0
    4.8595   21.6768   13.3106 C   0  0  0  0  0  0  0  0  0  0  0  0
    8.2021   20.5936   12.0026 C   0  0  0  0  0  0  0  0  0  0  0  0
    8.8494   19.5200   11.9445 N   0  0  0  0  0  0  0  0  0  0  0  0
    8.6299   21.6952   11.3824 N   0  0  0  0  0  0  0  0  0  0  0  0
    8.5163   18.7186   12.4093 H   0  0  0  0  0  0  0  0  0  0  0  0
    8.1071   22.5274   11.4406 H   0  0  0  0  0  0  0  0  0  0  0  0
    9.4684   21.6757   10.8668 H   0  0  0  0  0  0  0  0  0  0  0  0
  3  4  2  0  0  0
  3  8  1  0  0  0
  3  1  1  0  0  0
  4  5  1  0  0  0
  5  6  2  0  0  0
  6  7  1  0  0  0
  6  9  1  0  0  0
  7  8  2  0  0  0
  9 10  2  0  0  0
  9 11  1  0  0  0
  1 15  1  0  0  0
 15 16  2  0  0  0
 16 17  1  0  0  0
 17 18  2  0  0  0
 17 22  1  0  0  0
 18 19  1  0  0  0
 19 20  2  0  0  0
 20 21  1  0  0  0
 20 23  1  0  0  0
 21 22  2  0  0  0
 23 24  2  0  0  0
 23 25  1  0  0  0
 10 12  1  0  0  0
 11 13  1  0  0  0
 11 14  1  0  0  0
  1  2  1  0  0  0
 24 26  1  0  0  0
 25 27  1  0  0  0
 25 28  1  0  0  0
M  END
> <minimizedAffinity>
-7.09215

$$$$
3GY2_BRN_A_1


 28 29  0  0  0  0  0  0  0  0999 V2000
    3.0096   21.0020   14.3924 N   0  0  0  0  0  0  0  0  0  0  0  0
    2.5632   21.8617   14.2168 H   0  0  0  0  0  0  0  0  0  0  0  0
    4.2128   20.7832   13.8642 C   0  0  0  0  0  0  0  0  0  0  0  0
    4.5332   21.4398   12.6865 C   0  0  0  0  0  0  0  0  0  0  0  0
    5.7856   21.2361   12.1368 C   0  0  0  0  0  0  0  0  0  0  0  0
    6.6952   20.3905   12.7716 C   0  0  0  0  0  0  0  0  0  0  0  0
    6.3741   19.7369   13.9629 C   0  0  0  0  0  0  0  0  0  0  0  0
    5.1083   19.9342   14.5053 C   0  0  0  0  0  0  0  0  0  0  0  0
    8.0420   20.2074   12.1634 C   0  0  0  0  0  0  0  0  0  0  0  0
    8.6710   21.2047   11.7029 N   0  0  0  0  0  0  0  0  0  0  0  0
    8.5562   18.9817   12.0869 N   0  0  0  0  0  0  0  0  0  0  0  0
    8.2792   22.1057   11.7659 H   0  0  0  0  0  0  0  0  0  0  0  0
    8.0564   18.2148   12.4491 H   0  0  0  0  0  0  0  0  0  0  0  0
    9.4362   18.8424   11.6682 H   0  0  0  0  0  0  0  0  0  0  0  0
    2.4049   20.1218   15.1306 N   0  0  0  0  0  0  0  0  0  0  0  0
    2.1985   20.4812   16.2906 N   0  0  0  0  0  0  0  0  0  0  0  0
    1.5049   19.6458   17.1481 C   0  0  0  0  0  0  0  0  0  0  0  0
    0.6128   18.6980   16.6404 C   0  0  0  0  0  0  0  0  0  0  0  0
   -0.0848   17.8878   17.5247 C   0  0  0  0  0  0  0  0  0  0  0  0
    0.1129   18.0689   18.8938 C   0  0  0  0  0  0  0  0  0  0  0  0
    0.9980   19.0182   19.3910 C   0  0  0  0  0  0  0  0  0  0  0  0
    1.6992   19.8224   18.5125 C   0  0  0  0  0  0  0  0  0  0  0  0
   -0.6352   17.2152   19.8578 C   0  0  0  0  0  0  0  0  0  0  0  0
   -1.3530   16.2929   19.4003 N   0  0  0  0  0  0  0  0  0  0  0  0
   -0.5520   17.4424   21.1703 N   0  0  0  0  0  0  0  0  0  0  0  0
   -1.4004   16.1420   18.4286 H   0  0  0  0  0  0  0  0  0  0  0  0
    0.0169   18.1712   21.5087 H   0  0  0  0  0  0  0  0  0  0  0  0
   -1.0596   16.8813   21.8002 H   0  0  0  0  0  0  0  0  0  0  0  0
  3  4  2  0  0  0
  3  8  1  0  0  0
  3  1  1  0  0  0
  4  5  1  0  0  0
  5  6  2  0  0  0
  6  7  1  0  0  0
  6  9  1  0  0  0
  7  8  2  0  0  0
  9 10  2  0  0  0
  9 11  1  0  0  0
  1 15  1  0  0  0
 15 16  2  0  0  0
 16 17  1  0  0  0
 17 18  2  0  0  0
 17 22  1  0  0  0
 18 19  1  0  0  0
 19 20  2  0  0  0
 20 21  1  0  0  0
 20 23  1  0  0  0
 21 22  2  0  0  0
 23 24  2  0  0  0
 23 25  1  0  0  0
 10 12  1  0  0  0
 11 13  1  0  0  0
 11 14  1  0  0  0
  1  2  1  0  0  0
 24 26  1  0  0  0
 25 27  1  0  0  0
 25 28  1  0  0  0
M  END
> <minimizedAffinity>
-6.85206

$$$$
3GY2_BRN_A_1


 28 29  0  0  0  0  0  0  0  0999 V2000
    1.6930   20.3890   14.8839 N   0  0  0  0  0  0  0  0  0  0  0  0
    0.9313   20.5462   14.2802 H   0  0  0  0  0  0  0  0  0  0  0  0
    2.9283   20.4508   14.3893 C   0  0  0  0  0  0  0  0  0  0  0  0
    3.9712   20.0184   15.1933 C   0  0  0  0  0  0  0  0  0  0  0  0
    5.2568   20.0599   14.6859 C   0  0  0  0  0  0  0  0  0  0  0  0
    5.4787   20.5230   13.3891 C   0  0  0  0  0  0  0  0  0  0  0  0
    4.4259   20.9495   12.5771 C   0  0  0  0  0  0  0  0  0  0  0  0
    3.1357   20.9188   13.0963 C   0  0  0  0  0  0  0  0  0  0  0  0
    6.8729   20.5371   12.8663 C   0  0  0  0  0  0  0  0  0  0  0  0
    7.4052   19.4668   12.4500 N   0  0  0  0  0  0  0  0  0  0  0  0
    7.5544   21.6808   12.8718 N   0  0  0  0  0  0  0  0  0  0  0  0
    6.8900   18.6278   12.4514 H   0  0  0  0  0  0  0  0  0  0  0  0
    7.1284   22.5061   13.1983 H   0  0  0  0  0  0  0  0  0  0  0  0
    8.4843   21.7012   12.5492 H   0  0  0  0  0  0  0  0  0  0  0  0
    1.4579   20.1288   16.1339 N   0  0  0  0  0  0  0  0  0  0  0  0
    0.5832   19.2828   16.3251 N   0  0  0  0  0  0  0  0  0  0  0  0
    0.2947   18.8831   17.6179 C   0  0  0  0  0  0  0  0  0  0  0  0
    0.1644   17.5261   17.9235 C   0  0  0  0  0  0  0  0  0  0  0  0
   -0.1460   17.1552   19.2240 C   0  0  0  0  0  0  0  0  0  0  0  0
   -0.3423   18.1569   20.1750 C   0  0  0  0  0  0  0  0  0  0  0  0
   -0.2165   19.5050   19.8614 C   0  0  0  0  0  0  0  0  0  0  0  0
    0.0990   19.8775   18.5683 C   0  0  0  0  0  0  0  0  0  0  0  0
   -0.6862   17.7775   21.5733 C   0  0  0  0  0  0  0  0  0  0  0  0
   -0.0227   18.2900   22.5073 N   0  0  0  0  0  0  0  0  0  0  0  0
   -1.6641   16.9025   21.8170 N   0  0  0  0  0  0  0  0  0  0  0  0
    0.6946   18.9335   22.3060 H   0  0  0  0  0  0  0  0  0  0  0  0
   -2.1726   16.5119   21.0699 H   0  0  0  0  0  0  0  0  0  0  0  0
   -1.8769   16.6475   22.7438 H   0  0  0  0  0  0  0  0  0  0  0  0
  3  4  2  0  0  0
  3  8  1  0  0  0
  3  1  1  0  0  0
  4  5  1  0  0  0
  5  6  2  0  0  0
  6  7  1  0  0  0
  6  9  1  0  0  0
  7  8  2  0  0  0
  9 10  2  0  0  0
  9 11  1  0  0  0
  1 15  1  0  0  0
 15 16  2  0  0  0
 16 17  1  0  0  0
 17 18  2  0  0  0
 17 22  1  0  0  0
 18 19  1  0  0  0
 19 20  2  0  0  0
 20 21  1  0  0  0
 20 23  1  0  0  0
 21 22  2  0  0  0
 23 24  2  0  0  0
 23 25  1  0  0  0
 10 12  1  0  0  0
 11 13  1  0  0  0
 11 14  1  0  0  0
  1  2  1  0  0  0
 24 26  1  0  0  0
 25 27  1  0  0  0
 25 28  1  0  0  0
M  END
> <minimizedAffinity>
-6.51103

$$$$
