3GY2_BRN_A_1
  RCSB PDB12061708483D
Coordinates from PDB:3GY2:A:1 Model:1 without hydrogens
 21 22  0  0  0  0            999 V2000
   -1.3590   15.3070   18.1730   C 0  0  0  0  0  0  0  0  0  0  0  0
   -1.4670   13.9260   18.2200   C 0  0  0  0  0  0  0  0  0  0  0  0
   -1.7290   13.2440   17.0460   C 0  0  0  0  0  0  0  0  0  0  0  0
   -1.8850   13.9480   15.8520   C 0  0  0  0  0  0  0  0  0  0  0  0
   -1.7850   15.3400   15.8080   C 0  0  0  0  0  0  0  0  0  0  0  0
   -1.5080   16.0210   16.9890   C 0  0  0  0  0  0  0  0  0  0  0  0
   -2.1850   13.1850   14.6090   C 0  0  0  0  0  0  0  0  0  0  0  0
   -2.8060   13.7420   13.6570   N 0  0  0  0  0  0  0  0  0  0  0  0
   -1.8170   11.9080   14.5290   N 0  0  0  0  0  0  0  0  0  0  0  0
   -1.1240   15.9530   19.3140   N 0  0  0  0  0  0  0  0  0  0  0  0
   -0.1060   16.7440   19.4670   N 0  0  0  0  0  0  0  0  0  0  0  0
   -0.2690   17.6320   20.3050   N 0  0  0  0  0  0  0  0  0  0  0  0
    0.7740   18.4940   20.5940   C 0  0  0  0  0  0  0  0  0  0  0  0
    1.9990   18.3640   19.9350   C 0  0  0  0  0  0  0  0  0  0  0  0
    3.0340   19.2290   20.2600   C 0  0  0  0  0  0  0  0  0  0  0  0
    2.8190   20.1830   21.2550   C 0  0  0  0  0  0  0  0  0  0  0  0
    1.5990   20.3020   21.9100   C 0  0  0  0  0  0  0  0  0  0  0  0
    0.5640   19.4460   21.5840   C 0  0  0  0  0  0  0  0  0  0  0  0
    3.9220   21.1130   21.6240   C 0  0  0  0  0  0  0  0  0  0  0  0
    4.7550   21.4260   20.7390   N 0  0  0  0  0  0  0  0  0  0  0  0
    4.0240   21.5830   22.8690   N 0  0  0  0  0  0  0  0  0  0  0  0
  1  2  2  0  0  0  0
  1  6  1  0  0  0  0
  1 10  1  0  0  0  0
  2  3  1  0  0  0  0
  3  4  2  0  0  0  0
  4  5  1  0  0  0  0
  4  7  1  0  0  0  0
  5  6  2  0  0  0  0
  7  8  2  0  0  0  0
  7  9  1  0  0  0  0
 10 11  1  0  0  0  0
 11 12  2  0  0  0  0
 12 13  1  0  0  0  0
 13 14  2  0  0  0  0
 13 18  1  0  0  0  0
 14 15  1  0  0  0  0
 15 16  2  0  0  0  0
 16 17  1  0  0  0  0
 16 19  1  0  0  0  0
 17 18  2  0  0  0  0
 19 20  2  0  0  0  0
 19 21  1  0  0  0  0
A    1
C1
A    2
C2
A    3
C3
A    4
C4
A    5
C5
A    6
C6
A    7
C7
A    8
NA
A    9
NB
A   10
N1
A   11
N
A   12
N1'
A   13
C1'
A   14
C2'
A   15
C3'
A   16
C4'
A   17
C5'
A   18
C6'
A   19
C7'
A   20
NA'
A   21
NB'
M  END
>  <InstanceId>
3GY2_BRN_A_1

>  <ChemCompId>
BRN

>  <PdbId>
3GY2

>  <ChainId>
A

>  <ResidueNumber>
1

>  <InsertionCode>


>  <Model>
1

>  <AltIds>


>  <MissingHeavyAtoms>
0

>  <ObservedFormula>
C14 N7

>  <Name>
BERENIL

>  <SystematicName>
4-[(2E)-2-(4-carbamimidoylphenyl)iminohydrazinyl]benzenecarboximidamide

>  <Synonyms>
DIMINAZINE ACETURATE; 1,3-TRIS-(4'AMIDINOPHENYL)TRIAZINE

>  <Type>
NON-POLYMER

>  <Formula>
C14 H15 N7

>  <MolecularWeight>
281.316

>  <ModifiedDate>
2011-06-04

>  <Parent>


>  <OneLetterCode>


>  <SubcomponentList>


>  <AmbiguousFlag>
N

>  <InChI>
InChI=1S/C14H15N7/c15-13(16)9-1-5-11(6-2-9)19-21-20-12-7-3-10(4-8-12)14(17)18/h1-8H,(H3,15,16)(H3,17,18)(H,19,20)

>  <InChIKey>
XNYZHCFCZNMTFY-UHFFFAOYSA-N

>  <SMILES>
c1cc(ccc1C(=N)N)N/N=N/c2ccc(cc2)C(=N)N

$$$$
