5A7B_KMN_A_1001


 32 34  0  0  0  0  0  0  0  0999 V2000
   91.4778   92.9945  -45.9959 C   0  0  0  0  0  0  0  0  0  0  0  0
   90.9424   95.2243  -45.1601 C   0  0  0  0  0  0  0  0  0  0  0  0
   91.3727   95.7336  -42.8479 O   0  0  0  0  0  0  0  0  0  0  0  0
   91.9452   92.6164  -44.7364 C   0  0  0  0  0  0  0  0  0  0  0  0
   90.9873   94.2887  -46.2083 C   0  0  0  0  0  0  0  0  0  0  0  0
   91.9034   93.5373  -43.6846 C   0  0  0  0  0  0  0  0  0  0  0  0
   91.4104   94.8279  -43.8921 C   0  0  0  0  0  0  0  0  0  0  0  0
   91.0416   96.5985  -42.9896 H   0  0  0  0  0  0  0  0  0  0  0  0
   92.7850   92.8895  -41.2901 C   0  0  0  0  0  0  0  0  0  0  0  0
   92.3742   93.1657  -42.3839 C   0  0  0  0  0  0  0  0  0  0  0  0
   91.5292   92.0573  -47.0785 C   0  0  0  0  0  0  0  0  0  0  0  0
   91.5796   91.2380  -47.9568 C   0  0  0  0  0  0  0  0  0  0  0  0
   91.6074   90.2389  -49.0375 C   0  0  0  0  0  0  0  0  0  0  0  0
   90.9078   90.6821  -50.2029 O   0  0  0  0  0  0  0  0  0  0  0  0
   89.5666   90.4393  -50.2574 C   0  0  0  0  0  0  0  0  0  0  0  0
   88.7968   91.4797  -50.7896 C   0  0  0  0  0  0  0  0  0  0  0  0
   87.4109   91.3463  -50.8988 C   0  0  0  0  0  0  0  0  0  0  0  0
   86.7934   90.1728  -50.4746 C   0  0  0  0  0  0  0  0  0  0  0  0
   87.5559   89.1323  -49.9417 C   0  0  0  0  0  0  0  0  0  0  0  0
   88.9446   89.2666  -49.8325 C   0  0  0  0  0  0  0  0  0  0  0  0
   90.3921   96.6017  -45.4318 C   0  0  0  0  0  0  0  0  0  0  0  0
   90.8119   97.6673  -44.4311 N   0  0  0  0  0  0  0  0  0  0  0  0
   89.6087   98.4345  -43.9600 C   0  0  0  0  0  0  0  0  0  0  0  0
   90.0337   99.4822  -42.9402 C   0  0  0  0  0  0  0  0  0  0  0  0
   91.0683  100.4178  -43.5588 C   0  0  0  0  0  0  0  0  0  0  0  0
   92.3110   99.6221  -43.9754 C   0  0  0  0  0  0  0  0  0  0  0  0
   91.9188   98.5359  -44.9710 C   0  0  0  0  0  0  0  0  0  0  0  0
   91.4204  101.5910  -42.6260 N   0  0  0  0  0  0  0  0  0  0  0  0
   90.8183  101.4302  -41.2264 C   0  0  0  0  0  0  0  0  0  0  0  0
   91.9185  101.4365  -40.1777 C   0  0  0  0  0  0  0  0  0  0  0  0
   92.8937  101.9714  -42.5406 C   0  0  0  0  0  0  0  0  0  0  0  0
   93.1550  103.2132  -43.3761 C   0  0  0  0  0  0  0  0  0  0  0  0
  9 10  3  0  0  0
 14 13  1  0  0  0
 14 15  1  0  0  0
  1  4  1  0  0  0
  1  5  2  0  0  0
  1 11  1  0  0  0
  2 21  1  0  0  0
  2  5  1  0  0  0
  2  7  2  0  0  0
 22 21  1  0  0  0
 22 23  1  0  0  0
 22 27  1  0  0  0
  3  7  1  0  0  0
  4  6  2  0  0  0
 28 25  1  0  0  0
 28 29  1  0  0  0
 28 31  1  0  0  0
 23 24  1  0  0  0
 11 12  3  0  0  0
  6  7  1  0  0  0
  6 10  1  0  0  0
 12 13  1  0  0  0
 15 16  1  0  0  0
 15 20  2  0  0  0
 16 17  2  0  0  0
 24 25  1  0  0  0
 17 18  1  0  0  0
 25 26  1  0  0  0
 29 30  1  0  0  0
 31 32  1  0  0  0
 26 27  1  0  0  0
 18 19  2  0  0  0
 19 20  1  0  0  0
  3  8  1  0  0  0
M  END
> <minimizedAffinity>
-7.23196

$$$$
5A7B_KMN_A_1001


 32 34  0  0  0  0  0  0  0  0999 V2000
   91.3626   93.3607  -45.9204 C   0  0  0  0  0  0  0  0  0  0  0  0
   90.9340   95.6589  -45.2189 C   0  0  0  0  0  0  0  0  0  0  0  0
   91.2687   96.2516  -42.9107 O   0  0  0  0  0  0  0  0  0  0  0  0
   91.7324   93.0150  -44.6198 C   0  0  0  0  0  0  0  0  0  0  0  0
   90.9736   94.6721  -46.2193 C   0  0  0  0  0  0  0  0  0  0  0  0
   91.6948   93.9871  -43.6148 C   0  0  0  0  0  0  0  0  0  0  0  0
   91.3028   95.2953  -43.9090 C   0  0  0  0  0  0  0  0  0  0  0  0
   91.0054   97.1283  -43.1106 H   0  0  0  0  0  0  0  0  0  0  0  0
   92.4151   93.3695  -41.1592 C   0  0  0  0  0  0  0  0  0  0  0  0
   92.0662   93.6496  -42.2733 C   0  0  0  0  0  0  0  0  0  0  0  0
   91.4103   92.3703  -46.9546 C   0  0  0  0  0  0  0  0  0  0  0  0
   91.4596   91.5720  -47.8522 C   0  0  0  0  0  0  0  0  0  0  0  0
   91.5490   90.5820  -48.9378 C   0  0  0  0  0  0  0  0  0  0  0  0
   90.5069   89.6057  -48.8677 O   0  0  0  0  0  0  0  0  0  0  0  0
   89.6915   89.4821  -49.9543 C   0  0  0  0  0  0  0  0  0  0  0  0
   89.2334   88.1843  -50.2074 C   0  0  0  0  0  0  0  0  0  0  0  0
   88.3895   87.9337  -51.2915 C   0  0  0  0  0  0  0  0  0  0  0  0
   88.0040   88.9805  -52.1245 C   0  0  0  0  0  0  0  0  0  0  0  0
   88.4589   90.2768  -51.8779 C   0  0  0  0  0  0  0  0  0  0  0  0
   89.3046   90.5273  -50.7914 C   0  0  0  0  0  0  0  0  0  0  0  0
   90.4945   97.0543  -45.5843 C   0  0  0  0  0  0  0  0  0  0  0  0
   89.2348   97.5335  -44.8798 N   0  0  0  0  0  0  0  0  0  0  0  0
   88.0509   97.4043  -45.7963 C   0  0  0  0  0  0  0  0  0  0  0  0
   86.7902   97.8623  -45.0755 C   0  0  0  0  0  0  0  0  0  0  0  0
   86.9581   99.3032  -44.6026 C   0  0  0  0  0  0  0  0  0  0  0  0
   88.1329   99.3989  -43.6218 C   0  0  0  0  0  0  0  0  0  0  0  0
   89.4103   98.9124  -44.2973 C   0  0  0  0  0  0  0  0  0  0  0  0
   85.6589   99.8722  -44.0037 N   0  0  0  0  0  0  0  0  0  0  0  0
   85.9121  101.0659  -43.0773 C   0  0  0  0  0  0  0  0  0  0  0  0
   84.6458  101.4150  -42.3126 C   0  0  0  0  0  0  0  0  0  0  0  0
   84.5360  100.1796  -44.9873 C   0  0  0  0  0  0  0  0  0  0  0  0
   85.0414  101.1181  -46.0701 C   0  0  0  0  0  0  0  0  0  0  0  0
  9 10  3  0  0  0
 14 13  1  0  0  0
 14 15  1  0  0  0
  1  4  1  0  0  0
  1  5  2  0  0  0
  1 11  1  0  0  0
  2 21  1  0  0  0
  2  5  1  0  0  0
  2  7  2  0  0  0
 22 21  1  0  0  0
 22 23  1  0  0  0
 22 27  1  0  0  0
  3  7  1  0  0  0
  4  6  2  0  0  0
 28 25  1  0  0  0
 28 29  1  0  0  0
 28 31  1  0  0  0
 23 24  1  0  0  0
 11 12  3  0  0  0
  6  7  1  0  0  0
  6 10  1  0  0  0
 12 13  1  0  0  0
 15 16  1  0  0  0
 15 20  2  0  0  0
 16 17  2  0  0  0
 24 25  1  0  0  0
 17 18  1  0  0  0
 25 26  1  0  0  0
 29 30  1  0  0  0
 31 32  1  0  0  0
 26 27  1  0  0  0
 18 19  2  0  0  0
 19 20  1  0  0  0
  3  8  1  0  0  0
M  END
> <minimizedAffinity>
-6.82829

$$$$
5A7B_KMN_A_1001


 32 34  0  0  0  0  0  0  0  0999 V2000
   91.3736   93.4780  -45.7938 C   0  0  0  0  0  0  0  0  0  0  0  0
   90.7945   95.5812  -44.6991 C   0  0  0  0  0  0  0  0  0  0  0  0
   91.3913   95.8923  -42.3886 O   0  0  0  0  0  0  0  0  0  0  0  0
   91.9649   93.0102  -44.6193 C   0  0  0  0  0  0  0  0  0  0  0  0
   90.7998   94.7545  -45.8360 C   0  0  0  0  0  0  0  0  0  0  0  0
   91.9639   93.8222  -43.4805 C   0  0  0  0  0  0  0  0  0  0  0  0
   91.3881   95.0944  -43.5180 C   0  0  0  0  0  0  0  0  0  0  0  0
   91.0045   96.7452  -42.4164 H   0  0  0  0  0  0  0  0  0  0  0  0
   93.0848   92.9995  -41.2450 C   0  0  0  0  0  0  0  0  0  0  0  0
   92.5617   93.3571  -42.2648 C   0  0  0  0  0  0  0  0  0  0  0  0
   91.3825   92.6534  -46.9654 C   0  0  0  0  0  0  0  0  0  0  0  0
   91.3798   91.9979  -47.9732 C   0  0  0  0  0  0  0  0  0  0  0  0
   91.4107   91.1918  -49.2045 C   0  0  0  0  0  0  0  0  0  0  0  0
   91.2084   89.8003  -48.9460 O   0  0  0  0  0  0  0  0  0  0  0  0
   90.2036   89.1773  -49.6266 C   0  0  0  0  0  0  0  0  0  0  0  0
   89.4926   89.9941  -50.5129 C   0  0  0  0  0  0  0  0  0  0  0  0
   88.4424   89.4678  -51.2682 C   0  0  0  0  0  0  0  0  0  0  0  0
   88.1013   88.1244  -51.1367 C   0  0  0  0  0  0  0  0  0  0  0  0
   88.8060   87.3052  -50.2533 C   0  0  0  0  0  0  0  0  0  0  0  0
   89.8582   87.8333  -49.4966 C   0  0  0  0  0  0  0  0  0  0  0  0
   90.1518   96.9425  -44.7871 C   0  0  0  0  0  0  0  0  0  0  0  0
   90.7917   97.8886  -45.7913 N   0  0  0  0  0  0  0  0  0  0  0  0
   91.9401   98.6179  -45.1529 C   0  0  0  0  0  0  0  0  0  0  0  0
   92.5909   99.5441  -46.1713 C   0  0  0  0  0  0  0  0  0  0  0  0
   91.5567  100.5258  -46.7143 C   0  0  0  0  0  0  0  0  0  0  0  0
   90.4265   99.7617  -47.4143 C   0  0  0  0  0  0  0  0  0  0  0  0
   89.7727   98.7942  -46.4338 C   0  0  0  0  0  0  0  0  0  0  0  0
   92.1903  101.5871  -47.6322 N   0  0  0  0  0  0  0  0  0  0  0  0
   91.9739  103.0139  -47.1177 C   0  0  0  0  0  0  0  0  0  0  0  0
   92.6956  103.2101  -45.7945 C   0  0  0  0  0  0  0  0  0  0  0  0
   93.6480  101.3669  -48.0187 C   0  0  0  0  0  0  0  0  0  0  0  0
   93.7294  100.8212  -49.4344 C   0  0  0  0  0  0  0  0  0  0  0  0
  9 10  3  0  0  0
 14 13  1  0  0  0
 14 15  1  0  0  0
  1  4  1  0  0  0
  1  5  2  0  0  0
  1 11  1  0  0  0
  2 21  1  0  0  0
  2  5  1  0  0  0
  2  7  2  0  0  0
 22 21  1  0  0  0
 22 23  1  0  0  0
 22 27  1  0  0  0
  3  7  1  0  0  0
  4  6  2  0  0  0
 28 25  1  0  0  0
 28 29  1  0  0  0
 28 31  1  0  0  0
 23 24  1  0  0  0
 11 12  3  0  0  0
  6  7  1  0  0  0
  6 10  1  0  0  0
 12 13  1  0  0  0
 15 16  1  0  0  0
 15 20  2  0  0  0
 16 17  2  0  0  0
 24 25  1  0  0  0
 17 18  1  0  0  0
 25 26  1  0  0  0
 29 30  1  0  0  0
 31 32  1  0  0  0
 26 27  1  0  0  0
 18 19  2  0  0  0
 19 20  1  0  0  0
  3  8  1  0  0  0
M  END
> <minimizedAffinity>
-6.06764

$$$$
5A7B_KMN_A_1001


 32 34  0  0  0  0  0  0  0  0999 V2000
   90.5573   95.3649  -45.7880 C   0  0  0  0  0  0  0  0  0  0  0  0
   90.6681   97.3205  -44.3318 C   0  0  0  0  0  0  0  0  0  0  0  0
   89.1260   99.1314  -44.6977 O   0  0  0  0  0  0  0  0  0  0  0  0
   89.4935   95.9295  -46.4932 C   0  0  0  0  0  0  0  0  0  0  0  0
   91.1352   96.0505  -44.7126 C   0  0  0  0  0  0  0  0  0  0  0  0
   89.0211   97.1936  -46.1257 C   0  0  0  0  0  0  0  0  0  0  0  0
   89.5985   97.8822  -45.0561 C   0  0  0  0  0  0  0  0  0  0  0  0
   89.5150   99.5912  -43.9799 H   0  0  0  0  0  0  0  0  0  0  0  0
   87.0440   98.3228  -47.4472 C   0  0  0  0  0  0  0  0  0  0  0  0
   87.9333   97.7909  -46.8408 C   0  0  0  0  0  0  0  0  0  0  0  0
   91.0367   94.0654  -46.1546 C   0  0  0  0  0  0  0  0  0  0  0  0
   91.4157   92.9576  -46.4276 C   0  0  0  0  0  0  0  0  0  0  0  0
   91.8602   91.6020  -46.7901 C   0  0  0  0  0  0  0  0  0  0  0  0
   92.1300   91.4764  -48.1885 O   0  0  0  0  0  0  0  0  0  0  0  0
   91.1140   91.0344  -48.9843 C   0  0  0  0  0  0  0  0  0  0  0  0
   90.7406   89.7007  -48.7833 C   0  0  0  0  0  0  0  0  0  0  0  0
   89.7099   89.1361  -49.5377 C   0  0  0  0  0  0  0  0  0  0  0  0
   89.0524   89.9043  -50.4948 C   0  0  0  0  0  0  0  0  0  0  0  0
   89.4213   91.2345  -50.7006 C   0  0  0  0  0  0  0  0  0  0  0  0
   90.4544   91.7997  -49.9444 C   0  0  0  0  0  0  0  0  0  0  0  0
   91.3308   98.0279  -43.1767 C   0  0  0  0  0  0  0  0  0  0  0  0
   91.4866   99.5307  -43.3511 N   0  0  0  0  0  0  0  0  0  0  0  0
   92.5885   99.8244  -44.3298 C   0  0  0  0  0  0  0  0  0  0  0  0
   92.7215  101.3295  -44.5179 C   0  0  0  0  0  0  0  0  0  0  0  0
   92.9947  101.9977  -43.1736 C   0  0  0  0  0  0  0  0  0  0  0  0
   91.8293  101.7357  -42.2123 C   0  0  0  0  0  0  0  0  0  0  0  0
   91.6403  100.2340  -42.0271 C   0  0  0  0  0  0  0  0  0  0  0  0
   93.2925  103.5008  -43.3230 N   0  0  0  0  0  0  0  0  0  0  0  0
   94.7396  103.8519  -42.9628 C   0  0  0  0  0  0  0  0  0  0  0  0
   95.1414  103.1607  -41.6701 C   0  0  0  0  0  0  0  0  0  0  0  0
   92.8933  104.1435  -44.6461 C   0  0  0  0  0  0  0  0  0  0  0  0
   94.1188  104.7333  -45.3234 C   0  0  0  0  0  0  0  0  0  0  0  0
  9 10  3  0  0  0
 14 13  1  0  0  0
 14 15  1  0  0  0
  1  4  1  0  0  0
  1  5  2  0  0  0
  1 11  1  0  0  0
  2 21  1  0  0  0
  2  5  1  0  0  0
  2  7  2  0  0  0
 22 21  1  0  0  0
 22 23  1  0  0  0
 22 27  1  0  0  0
  3  7  1  0  0  0
  4  6  2  0  0  0
 28 25  1  0  0  0
 28 29  1  0  0  0
 28 31  1  0  0  0
 23 24  1  0  0  0
 11 12  3  0  0  0
  6  7  1  0  0  0
  6 10  1  0  0  0
 12 13  1  0  0  0
 15 16  1  0  0  0
 15 20  2  0  0  0
 16 17  2  0  0  0
 24 25  1  0  0  0
 17 18  1  0  0  0
 25 26  1  0  0  0
 29 30  1  0  0  0
 31 32  1  0  0  0
 26 27  1  0  0  0
 18 19  2  0  0  0
 19 20  1  0  0  0
  3  8  1  0  0  0
M  END
> <minimizedAffinity>
-6.06057

$$$$
5A7B_KMN_A_1001


 32 34  0  0  0  0  0  0  0  0999 V2000
   91.2405   94.0672  -45.5521 C   0  0  0  0  0  0  0  0  0  0  0  0
   90.5602   96.3955  -45.2809 C   0  0  0  0  0  0  0  0  0  0  0  0
   90.6818   97.3952  -43.0952 O   0  0  0  0  0  0  0  0  0  0  0  0
   91.5503   93.9821  -44.1940 C   0  0  0  0  0  0  0  0  0  0  0  0
   90.7565   95.2647  -46.0926 C   0  0  0  0  0  0  0  0  0  0  0  0
   91.3569   95.0993  -43.3751 C   0  0  0  0  0  0  0  0  0  0  0  0
   90.8699   96.2942  -43.9105 C   0  0  0  0  0  0  0  0  0  0  0  0
   90.3550   98.1955  -43.4568 H   0  0  0  0  0  0  0  0  0  0  0  0
   91.9104   95.0073  -40.8030 C   0  0  0  0  0  0  0  0  0  0  0  0
   91.6647   95.0292  -41.9780 C   0  0  0  0  0  0  0  0  0  0  0  0
   91.4477   92.9281  -46.3961 C   0  0  0  0  0  0  0  0  0  0  0  0
   91.5866   91.9857  -47.1296 C   0  0  0  0  0  0  0  0  0  0  0  0
   91.7859   90.8459  -48.0393 C   0  0  0  0  0  0  0  0  0  0  0  0
   91.3413   91.1294  -49.3683 O   0  0  0  0  0  0  0  0  0  0  0  0
   90.1992   90.5144  -49.7902 C   0  0  0  0  0  0  0  0  0  0  0  0
   89.3580   91.3045  -50.5818 C   0  0  0  0  0  0  0  0  0  0  0  0
   88.1602   90.7830  -51.0753 C   0  0  0  0  0  0  0  0  0  0  0  0
   87.8017   89.4712  -50.7767 C   0  0  0  0  0  0  0  0  0  0  0  0
   88.6360   88.6789  -49.9866 C   0  0  0  0  0  0  0  0  0  0  0  0
   89.8362   89.2021  -49.4922 C   0  0  0  0  0  0  0  0  0  0  0  0
   90.0229   97.6592  -45.9038 C   0  0  0  0  0  0  0  0  0  0  0  0
   90.6259   98.9461  -45.3621 N   0  0  0  0  0  0  0  0  0  0  0  0
   89.6216  100.0609  -45.4457 C   0  0  0  0  0  0  0  0  0  0  0  0
   90.2240  101.3392  -44.8787 C   0  0  0  0  0  0  0  0  0  0  0  0
   91.4970  101.6948  -45.6411 C   0  0  0  0  0  0  0  0  0  0  0  0
   92.5287  100.5705  -45.4904 C   0  0  0  0  0  0  0  0  0  0  0  0
   91.9471   99.2623  -46.0148 C   0  0  0  0  0  0  0  0  0  0  0  0
   92.0658  103.0606  -45.2151 N   0  0  0  0  0  0  0  0  0  0  0  0
   92.8648  102.9833  -43.9101 C   0  0  0  0  0  0  0  0  0  0  0  0
   92.0949  103.6516  -42.7827 C   0  0  0  0  0  0  0  0  0  0  0  0
   92.8375  103.8353  -46.2767 C   0  0  0  0  0  0  0  0  0  0  0  0
   94.1538  104.3289  -45.7001 C   0  0  0  0  0  0  0  0  0  0  0  0
  9 10  3  0  0  0
 14 13  1  0  0  0
 14 15  1  0  0  0
  1  4  1  0  0  0
  1  5  2  0  0  0
  1 11  1  0  0  0
  2 21  1  0  0  0
  2  5  1  0  0  0
  2  7  2  0  0  0
 22 21  1  0  0  0
 22 23  1  0  0  0
 22 27  1  0  0  0
  3  7  1  0  0  0
  4  6  2  0  0  0
 28 25  1  0  0  0
 28 29  1  0  0  0
 28 31  1  0  0  0
 23 24  1  0  0  0
 11 12  3  0  0  0
  6  7  1  0  0  0
  6 10  1  0  0  0
 12 13  1  0  0  0
 15 16  1  0  0  0
 15 20  2  0  0  0
 16 17  2  0  0  0
 24 25  1  0  0  0
 17 18  1  0  0  0
 25 26  1  0  0  0
 29 30  1  0  0  0
 31 32  1  0  0  0
 26 27  1  0  0  0
 18 19  2  0  0  0
 19 20  1  0  0  0
  3  8  1  0  0  0
M  END
> <minimizedAffinity>
-5.98418

$$$$
5A7B_KMN_A_1001


 32 34  0  0  0  0  0  0  0  0999 V2000
   90.7000   95.6860  -45.9471 C   0  0  0  0  0  0  0  0  0  0  0  0
   91.3394   97.9105  -45.1724 C   0  0  0  0  0  0  0  0  0  0  0  0
   89.7211   99.6884  -45.2790 O   0  0  0  0  0  0  0  0  0  0  0  0
   89.4188   96.1441  -46.2576 C   0  0  0  0  0  0  0  0  0  0  0  0
   91.6498   96.5590  -45.4029 C   0  0  0  0  0  0  0  0  0  0  0  0
   89.0982   97.4873  -46.0353 C   0  0  0  0  0  0  0  0  0  0  0  0
   90.0451   98.3619  -45.4968 C   0  0  0  0  0  0  0  0  0  0  0  0
   90.3581  100.2730  -44.9176 H   0  0  0  0  0  0  0  0  0  0  0  0
   86.7008   98.4187  -46.5970 C   0  0  0  0  0  0  0  0  0  0  0  0
   87.7899   97.9766  -46.3524 C   0  0  0  0  0  0  0  0  0  0  0  0
   91.0285   94.3083  -46.1631 C   0  0  0  0  0  0  0  0  0  0  0  0
   91.3445   93.1651  -46.3603 C   0  0  0  0  0  0  0  0  0  0  0  0
   91.7330   91.7606  -46.5676 C   0  0  0  0  0  0  0  0  0  0  0  0
   92.1356   91.5033  -47.9152 O   0  0  0  0  0  0  0  0  0  0  0  0
   91.1781   91.0618  -48.7806 C   0  0  0  0  0  0  0  0  0  0  0  0
   90.8115   89.7202  -48.6252 C   0  0  0  0  0  0  0  0  0  0  0  0
   89.8384   89.1552  -49.4522 C   0  0  0  0  0  0  0  0  0  0  0  0
   89.2318   89.9309  -50.4365 C   0  0  0  0  0  0  0  0  0  0  0  0
   89.5943   91.2691  -50.5970 C   0  0  0  0  0  0  0  0  0  0  0  0
   90.5696   91.8347  -49.7680 C   0  0  0  0  0  0  0  0  0  0  0  0
   92.3988   98.8172  -44.5986 C   0  0  0  0  0  0  0  0  0  0  0  0
   91.8753   99.9162  -43.6870 N   0  0  0  0  0  0  0  0  0  0  0  0
   92.7692  101.1215  -43.7668 C   0  0  0  0  0  0  0  0  0  0  0  0
   92.2247  102.2258  -42.8710 C   0  0  0  0  0  0  0  0  0  0  0  0
   92.1169  101.7220  -41.4347 C   0  0  0  0  0  0  0  0  0  0  0  0
   91.1527  100.5316  -41.3685 C   0  0  0  0  0  0  0  0  0  0  0  0
   91.6458   99.4163  -42.2838 C   0  0  0  0  0  0  0  0  0  0  0  0
   91.7190  102.8417  -40.4557 N   0  0  0  0  0  0  0  0  0  0  0  0
   90.2290  103.1895  -40.5346 C   0  0  0  0  0  0  0  0  0  0  0  0
   90.0500  104.6440  -40.9375 C   0  0  0  0  0  0  0  0  0  0  0  0
   92.1569  102.6635  -39.0068 C   0  0  0  0  0  0  0  0  0  0  0  0
   93.6665  102.5051  -38.9400 C   0  0  0  0  0  0  0  0  0  0  0  0
  9 10  3  0  0  0
 14 13  1  0  0  0
 14 15  1  0  0  0
  1  4  1  0  0  0
  1  5  2  0  0  0
  1 11  1  0  0  0
  2 21  1  0  0  0
  2  5  1  0  0  0
  2  7  2  0  0  0
 22 21  1  0  0  0
 22 23  1  0  0  0
 22 27  1  0  0  0
  3  7  1  0  0  0
  4  6  2  0  0  0
 28 25  1  0  0  0
 28 29  1  0  0  0
 28 31  1  0  0  0
 23 24  1  0  0  0
 11 12  3  0  0  0
  6  7  1  0  0  0
  6 10  1  0  0  0
 12 13  1  0  0  0
 15 16  1  0  0  0
 15 20  2  0  0  0
 16 17  2  0  0  0
 24 25  1  0  0  0
 17 18  1  0  0  0
 25 26  1  0  0  0
 29 30  1  0  0  0
 31 32  1  0  0  0
 26 27  1  0  0  0
 18 19  2  0  0  0
 19 20  1  0  0  0
  3  8  1  0  0  0
M  END
> <minimizedAffinity>
-5.90364

$$$$
5A7B_KMN_A_1001


 32 34  0  0  0  0  0  0  0  0999 V2000
   90.4192   98.1343  -43.7382 C   0  0  0  0  0  0  0  0  0  0  0  0
   90.9699   99.9597  -42.2145 C   0  0  0  0  0  0  0  0  0  0  0  0
   89.2525  101.5380  -41.6223 O   0  0  0  0  0  0  0  0  0  0  0  0
   89.1015   98.5852  -43.8289 C   0  0  0  0  0  0  0  0  0  0  0  0
   91.3436   98.8107  -42.9330 C   0  0  0  0  0  0  0  0  0  0  0  0
   88.7178   99.7287  -43.1209 C   0  0  0  0  0  0  0  0  0  0  0  0
   89.6389  100.4085  -42.3202 C   0  0  0  0  0  0  0  0  0  0  0  0
   89.8722  101.9922  -41.0859 H   0  0  0  0  0  0  0  0  0  0  0  0
   86.2487  100.6336  -43.2447 C   0  0  0  0  0  0  0  0  0  0  0  0
   87.3711  100.2091  -43.2056 C   0  0  0  0  0  0  0  0  0  0  0  0
   90.8131   96.9570  -44.4535 C   0  0  0  0  0  0  0  0  0  0  0  0
   91.1738   95.9605  -45.0212 C   0  0  0  0  0  0  0  0  0  0  0  0
   91.5852   94.7256  -45.7086 C   0  0  0  0  0  0  0  0  0  0  0  0
   91.2768   93.5543  -44.9489 O   0  0  0  0  0  0  0  0  0  0  0  0
   91.8118   93.4618  -43.6975 C   0  0  0  0  0  0  0  0  0  0  0  0
   93.1078   92.9367  -43.6440 C   0  0  0  0  0  0  0  0  0  0  0  0
   93.7612   92.7961  -42.4178 C   0  0  0  0  0  0  0  0  0  0  0  0
   93.1185   93.1791  -41.2436 C   0  0  0  0  0  0  0  0  0  0  0  0
   91.8253   93.7022  -41.2906 C   0  0  0  0  0  0  0  0  0  0  0  0
   91.1711   93.8427  -42.5197 C   0  0  0  0  0  0  0  0  0  0  0  0
   92.0031  100.6641  -41.3718 C   0  0  0  0  0  0  0  0  0  0  0  0
   92.3266  102.0840  -41.8104 N   0  0  0  0  0  0  0  0  0  0  0  0
   92.9082  102.0755  -43.1960 C   0  0  0  0  0  0  0  0  0  0  0  0
   93.2060  103.5019  -43.6375 C   0  0  0  0  0  0  0  0  0  0  0  0
   94.1635  104.1611  -42.6490 C   0  0  0  0  0  0  0  0  0  0  0  0
   93.5240  104.2137  -41.2564 C   0  0  0  0  0  0  0  0  0  0  0  0
   93.1764  102.8028  -40.7943 C   0  0  0  0  0  0  0  0  0  0  0  0
   94.6228  105.5511  -43.1257 N   0  0  0  0  0  0  0  0  0  0  0  0
   94.3233  106.6518  -42.1030 C   0  0  0  0  0  0  0  0  0  0  0  0
   95.5756  107.4681  -41.8281 C   0  0  0  0  0  0  0  0  0  0  0  0
   96.0577  105.6561  -43.6287 C   0  0  0  0  0  0  0  0  0  0  0  0
   96.8147  104.3809  -43.2981 C   0  0  0  0  0  0  0  0  0  0  0  0
  9 10  3  0  0  0
 14 13  1  0  0  0
 14 15  1  0  0  0
  1  4  1  0  0  0
  1  5  2  0  0  0
  1 11  1  0  0  0
  2 21  1  0  0  0
  2  5  1  0  0  0
  2  7  2  0  0  0
 22 21  1  0  0  0
 22 23  1  0  0  0
 22 27  1  0  0  0
  3  7  1  0  0  0
  4  6  2  0  0  0
 28 25  1  0  0  0
 28 29  1  0  0  0
 28 31  1  0  0  0
 23 24  1  0  0  0
 11 12  3  0  0  0
  6  7  1  0  0  0
  6 10  1  0  0  0
 12 13  1  0  0  0
 15 16  1  0  0  0
 15 20  2  0  0  0
 16 17  2  0  0  0
 24 25  1  0  0  0
 17 18  1  0  0  0
 25 26  1  0  0  0
 29 30  1  0  0  0
 31 32  1  0  0  0
 26 27  1  0  0  0
 18 19  2  0  0  0
 19 20  1  0  0  0
  3  8  1  0  0  0
M  END
> <minimizedAffinity>
-5.78906

$$$$
5A7B_KMN_A_1001


 32 34  0  0  0  0  0  0  0  0999 V2000
   90.5815   97.8794  -44.6966 C   0  0  0  0  0  0  0  0  0  0  0  0
   91.2540  100.1029  -43.9475 C   0  0  0  0  0  0  0  0  0  0  0  0
   89.5489  101.7060  -43.3872 O   0  0  0  0  0  0  0  0  0  0  0  0
   89.2356   98.2211  -44.5569 C   0  0  0  0  0  0  0  0  0  0  0  0
   91.5821   98.8090  -44.3882 C   0  0  0  0  0  0  0  0  0  0  0  0
   88.8959   99.5062  -44.1218 C   0  0  0  0  0  0  0  0  0  0  0  0
   89.8918  100.4375  -43.8176 C   0  0  0  0  0  0  0  0  0  0  0  0
   90.2188  102.3288  -43.1838 H   0  0  0  0  0  0  0  0  0  0  0  0
   86.3773  100.2152  -43.8313 C   0  0  0  0  0  0  0  0  0  0  0  0
   87.5199   99.8764  -43.9771 C   0  0  0  0  0  0  0  0  0  0  0  0
   90.9334   96.5604  -45.1316 C   0  0  0  0  0  0  0  0  0  0  0  0
   91.2618   95.4532  -45.4659 C   0  0  0  0  0  0  0  0  0  0  0  0
   91.6347   94.0854  -45.8615 C   0  0  0  0  0  0  0  0  0  0  0  0
   91.2555   93.1158  -44.8815 O   0  0  0  0  0  0  0  0  0  0  0  0
   91.7872   93.2482  -43.6323 C   0  0  0  0  0  0  0  0  0  0  0  0
   93.0875   92.7522  -43.4856 C   0  0  0  0  0  0  0  0  0  0  0  0
   93.7380   92.8339  -42.2526 C   0  0  0  0  0  0  0  0  0  0  0  0
   93.0883   93.4105  -41.1645 C   0  0  0  0  0  0  0  0  0  0  0  0
   91.7909   93.9057  -41.3045 C   0  0  0  0  0  0  0  0  0  0  0  0
   91.1395   93.8234  -42.5404 C   0  0  0  0  0  0  0  0  0  0  0  0
   92.3649  101.0755  -43.6412 C   0  0  0  0  0  0  0  0  0  0  0  0
   92.2375  101.7927  -42.3062 N   0  0  0  0  0  0  0  0  0  0  0  0
   93.3705  102.7646  -42.1331 C   0  0  0  0  0  0  0  0  0  0  0  0
   93.2222  103.4963  -40.8061 C   0  0  0  0  0  0  0  0  0  0  0  0
   93.1884  102.4895  -39.6600 C   0  0  0  0  0  0  0  0  0  0  0  0
   91.9895  101.5481  -39.8253 C   0  0  0  0  0  0  0  0  0  0  0  0
   92.0831  100.8226  -41.1631 C   0  0  0  0  0  0  0  0  0  0  0  0
   93.1958  103.1778  -38.2829 N   0  0  0  0  0  0  0  0  0  0  0  0
   94.0171  104.4712  -38.2768 C   0  0  0  0  0  0  0  0  0  0  0  0
   95.3208  104.2617  -37.5240 C   0  0  0  0  0  0  0  0  0  0  0  0
   91.8380  103.3963  -37.6261 C   0  0  0  0  0  0  0  0  0  0  0  0
   91.3591  104.8137  -37.8908 C   0  0  0  0  0  0  0  0  0  0  0  0
  9 10  3  0  0  0
 14 13  1  0  0  0
 14 15  1  0  0  0
  1  4  1  0  0  0
  1  5  2  0  0  0
  1 11  1  0  0  0
  2 21  1  0  0  0
  2  5  1  0  0  0
  2  7  2  0  0  0
 22 21  1  0  0  0
 22 23  1  0  0  0
 22 27  1  0  0  0
  3  7  1  0  0  0
  4  6  2  0  0  0
 28 25  1  0  0  0
 28 29  1  0  0  0
 28 31  1  0  0  0
 23 24  1  0  0  0
 11 12  3  0  0  0
  6  7  1  0  0  0
  6 10  1  0  0  0
 12 13  1  0  0  0
 15 16  1  0  0  0
 15 20  2  0  0  0
 16 17  2  0  0  0
 24 25  1  0  0  0
 17 18  1  0  0  0
 25 26  1  0  0  0
 29 30  1  0  0  0
 31 32  1  0  0  0
 26 27  1  0  0  0
 18 19  2  0  0  0
 19 20  1  0  0  0
  3  8  1  0  0  0
M  END
> <minimizedAffinity>
-5.75588

$$$$
5A7B_KMN_A_1001


 32 34  0  0  0  0  0  0  0  0999 V2000
   89.1213   97.5067  -45.5115 C   0  0  0  0  0  0  0  0  0  0  0  0
   88.7119   99.8454  -44.9459 C   0  0  0  0  0  0  0  0  0  0  0  0
   86.4590  100.6865  -45.0372 O   0  0  0  0  0  0  0  0  0  0  0  0
   87.7597   97.3072  -45.7441 C   0  0  0  0  0  0  0  0  0  0  0  0
   89.5928   98.7622  -45.1093 C   0  0  0  0  0  0  0  0  0  0  0  0
   86.8732   98.3777  -45.5876 C   0  0  0  0  0  0  0  0  0  0  0  0
   87.3411   99.6327  -45.1908 C   0  0  0  0  0  0  0  0  0  0  0  0
   86.7754  101.5273  -44.7709 H   0  0  0  0  0  0  0  0  0  0  0  0
   84.2925   98.0481  -45.9896 C   0  0  0  0  0  0  0  0  0  0  0  0
   85.4731   98.1930  -45.8265 C   0  0  0  0  0  0  0  0  0  0  0  0
   90.0309   96.4097  -45.6603 C   0  0  0  0  0  0  0  0  0  0  0  0
   90.7799   95.4732  -45.7453 C   0  0  0  0  0  0  0  0  0  0  0  0
   91.6777   94.3140  -45.8750 C   0  0  0  0  0  0  0  0  0  0  0  0
   91.3338   93.2591  -44.9733 O   0  0  0  0  0  0  0  0  0  0  0  0
   91.7978   93.3537  -43.6940 C   0  0  0  0  0  0  0  0  0  0  0  0
   93.0512   92.7720  -43.4732 C   0  0  0  0  0  0  0  0  0  0  0  0
   93.6312   92.8082  -42.2033 C   0  0  0  0  0  0  0  0  0  0  0  0
   92.9576   93.4250  -41.1525 C   0  0  0  0  0  0  0  0  0  0  0  0
   91.7065   94.0057  -41.3664 C   0  0  0  0  0  0  0  0  0  0  0  0
   91.1258   93.9690  -42.6392 C   0  0  0  0  0  0  0  0  0  0  0  0
   89.2668  101.1831  -44.5257 C   0  0  0  0  0  0  0  0  0  0  0  0
   90.4885  101.1139  -43.6225 N   0  0  0  0  0  0  0  0  0  0  0  0
   90.1314  101.5720  -42.2366 C   0  0  0  0  0  0  0  0  0  0  0  0
   91.3529  101.4761  -41.3325 C   0  0  0  0  0  0  0  0  0  0  0  0
   92.4902  102.3153  -41.9074 C   0  0  0  0  0  0  0  0  0  0  0  0
   92.8781  101.7909  -43.2950 C   0  0  0  0  0  0  0  0  0  0  0  0
   91.6678  101.8365  -44.2212 C   0  0  0  0  0  0  0  0  0  0  0  0
   93.6996  102.3817  -40.9570 N   0  0  0  0  0  0  0  0  0  0  0  0
   94.1483  103.8195  -40.6763 C   0  0  0  0  0  0  0  0  0  0  0  0
   93.2451  104.8027  -41.4029 C   0  0  0  0  0  0  0  0  0  0  0  0
   93.5889  101.5870  -39.6612 C   0  0  0  0  0  0  0  0  0  0  0  0
   93.6335  102.5312  -38.4717 C   0  0  0  0  0  0  0  0  0  0  0  0
  9 10  3  0  0  0
 14 13  1  0  0  0
 14 15  1  0  0  0
  1  4  1  0  0  0
  1  5  2  0  0  0
  1 11  1  0  0  0
  2 21  1  0  0  0
  2  5  1  0  0  0
  2  7  2  0  0  0
 22 21  1  0  0  0
 22 23  1  0  0  0
 22 27  1  0  0  0
  3  7  1  0  0  0
  4  6  2  0  0  0
 28 25  1  0  0  0
 28 29  1  0  0  0
 28 31  1  0  0  0
 23 24  1  0  0  0
 11 12  3  0  0  0
  6  7  1  0  0  0
  6 10  1  0  0  0
 12 13  1  0  0  0
 15 16  1  0  0  0
 15 20  2  0  0  0
 16 17  2  0  0  0
 24 25  1  0  0  0
 17 18  1  0  0  0
 25 26  1  0  0  0
 29 30  1  0  0  0
 31 32  1  0  0  0
 26 27  1  0  0  0
 18 19  2  0  0  0
 19 20  1  0  0  0
  3  8  1  0  0  0
M  END
> <minimizedAffinity>
-5.56990

$$$$
5A7B_KMN_A_1001


 32 34  0  0  0  0  0  0  0  0999 V2000
   90.4923   98.3807  -43.5054 C   0  0  0  0  0  0  0  0  0  0  0  0
   88.7603   99.9410  -42.7823 C   0  0  0  0  0  0  0  0  0  0  0  0
   89.3855  101.8203  -41.4154 O   0  0  0  0  0  0  0  0  0  0  0  0
   91.4662   99.1283  -42.8419 C   0  0  0  0  0  0  0  0  0  0  0  0
   89.1525   98.7867  -43.4822 C   0  0  0  0  0  0  0  0  0  0  0  0
   91.0885  100.2775  -42.1398 C   0  0  0  0  0  0  0  0  0  0  0  0
   89.7519  100.6827  -42.1108 C   0  0  0  0  0  0  0  0  0  0  0  0
   88.4883  102.0899  -41.3975 H   0  0  0  0  0  0  0  0  0  0  0  0
   92.9270  101.6849  -40.8869 C   0  0  0  0  0  0  0  0  0  0  0  0
   92.0735  101.0546  -41.4488 C   0  0  0  0  0  0  0  0  0  0  0  0
   90.8771   97.2091  -44.2347 C   0  0  0  0  0  0  0  0  0  0  0  0
   91.2060   96.2044  -44.8074 C   0  0  0  0  0  0  0  0  0  0  0  0
   91.5762   94.9705  -45.5195 C   0  0  0  0  0  0  0  0  0  0  0  0
   91.2185   93.7952  -44.7882 O   0  0  0  0  0  0  0  0  0  0  0  0
   91.8031   93.6151  -43.5689 C   0  0  0  0  0  0  0  0  0  0  0  0
   93.0450   92.9707  -43.5961 C   0  0  0  0  0  0  0  0  0  0  0  0
   93.7415   92.7326  -42.4093 C   0  0  0  0  0  0  0  0  0  0  0  0
   93.1961   93.1374  -41.1940 C   0  0  0  0  0  0  0  0  0  0  0  0
   91.9571   93.7793  -41.1606 C   0  0  0  0  0  0  0  0  0  0  0  0
   91.2596   94.0175  -42.3502 C   0  0  0  0  0  0  0  0  0  0  0  0
   87.3038  100.3315  -42.7726 C   0  0  0  0  0  0  0  0  0  0  0  0
   86.6454  100.3811  -44.1427 N   0  0  0  0  0  0  0  0  0  0  0  0
   85.8563   99.1246  -44.3810 C   0  0  0  0  0  0  0  0  0  0  0  0
   85.1802   99.1926  -45.7436 C   0  0  0  0  0  0  0  0  0  0  0  0
   86.2295   99.3917  -46.8334 C   0  0  0  0  0  0  0  0  0  0  0  0
   86.9793  100.7093  -46.6038 C   0  0  0  0  0  0  0  0  0  0  0  0
   87.6409  100.6942  -45.2301 C   0  0  0  0  0  0  0  0  0  0  0  0
   85.6211   99.3128  -48.2455 N   0  0  0  0  0  0  0  0  0  0  0  0
   85.7082   97.9056  -48.8452 C   0  0  0  0  0  0  0  0  0  0  0  0
   87.0070   97.2360  -48.4267 C   0  0  0  0  0  0  0  0  0  0  0  0
   84.2191   99.8864  -48.4135 C   0  0  0  0  0  0  0  0  0  0  0  0
   84.2891  101.2105  -49.1553 C   0  0  0  0  0  0  0  0  0  0  0  0
  9 10  3  0  0  0
 14 13  1  0  0  0
 14 15  1  0  0  0
  1  4  1  0  0  0
  1  5  2  0  0  0
  1 11  1  0  0  0
  2 21  1  0  0  0
  2  5  1  0  0  0
  2  7  2  0  0  0
 22 21  1  0  0  0
 22 23  1  0  0  0
 22 27  1  0  0  0
  3  7  1  0  0  0
  4  6  2  0  0  0
 28 25  1  0  0  0
 28 29  1  0  0  0
 28 31  1  0  0  0
 23 24  1  0  0  0
 11 12  3  0  0  0
  6  7  1  0  0  0
  6 10  1  0  0  0
 12 13  1  0  0  0
 15 16  1  0  0  0
 15 20  2  0  0  0
 16 17  2  0  0  0
 24 25  1  0  0  0
 17 18  1  0  0  0
 25 26  1  0  0  0
 29 30  1  0  0  0
 31 32  1  0  0  0
 26 27  1  0  0  0
 18 19  2  0  0  0
 19 20  1  0  0  0
  3  8  1  0  0  0
M  END
> <minimizedAffinity>
-5.37527

$$$$
