3NU4_478_B_401
  RCSB PDB12061709583D
Coordinates from PDB:3NU4:B:401 Model:1 without hydrogens
 35 37  0  0  0  0            999 V2000
   12.4140   18.1580   19.8240   C 0  0  0  0  0  0  0  0  0  0  0  0
   14.3460   19.0590   20.8790   C 0  0  0  0  0  0  0  0  0  0  0  0
   14.5170   20.7300   18.2950   C 0  0  0  0  0  0  0  0  0  0  0  0
   13.7610   18.8090   19.4840   C 0  0  0  0  0  0  0  0  0  0  0  0
   15.0150   22.9050   17.1380   C 0  0  0  0  0  0  0  0  0  0  0  0
   15.4490   23.9970   18.0940   C 0  0  0  0  0  0  0  0  0  0  0  0
   14.2540   23.3390   15.8940   C 0  0  0  0  0  0  0  0  0  0  0  0
   13.8220   22.2310   14.9890   C 0  0  0  0  0  0  0  0  0  0  0  0
   12.5230   21.7390   15.0190   C 0  0  0  0  0  0  0  0  0  0  0  0
   14.7520   21.6390   14.1380   C 0  0  0  0  0  0  0  0  0  0  0  0
   12.2260   20.6070   14.2360   C 0  0  0  0  0  0  0  0  0  0  0  0
   14.4620   20.5580   13.3160   C 0  0  0  0  0  0  0  0  0  0  0  0
   13.1790   20.0540   13.3860   C 0  0  0  0  0  0  0  0  0  0  0  0
   16.5710   24.8860   17.5760   C 0  0  0  0  0  0  0  0  0  0  0  0
   18.7870   24.6260   18.5170   C 0  0  0  0  0  0  0  0  0  0  0  0
   18.4920   23.9600   19.8900   C 0  0  0  0  0  0  0  0  0  0  0  0
   19.3390   25.3170   15.3460   C 0  0  0  0  0  0  0  0  0  0  0  0
   18.6440   26.2570   14.6090   C 0  0  0  0  0  0  0  0  0  0  0  0
   19.1700   27.4660   14.1590   C 0  0  0  0  0  0  0  0  0  0  0  0
   20.4910   27.7420   14.4800   C 0  0  0  0  0  0  0  0  0  0  0  0
   21.2190   26.7810   15.1570   C 0  0  0  0  0  0  0  0  0  0  0  0
   20.6840   25.6050   15.6650   C 0  0  0  0  0  0  0  0  0  0  0  0
   18.5910   22.4550   19.7440   C 0  0  0  0  0  0  0  0  0  0  0  0
   19.5610   24.4480   20.9010   C 0  0  0  0  0  0  0  0  0  0  0  0
   13.2710   18.5670   21.8440   C 0  0  0  0  0  0  0  0  0  0  0  0
   14.1800   21.9600   17.8550   N 0  0  0  0  0  0  0  0  0  0  0  0
   17.8500   24.2330   17.4690   N 0  0  0  0  0  0  0  0  0  0  0  0
   21.0690   28.8790   14.0010   N 0  0  0  0  0  0  0  0  0  0  0  0
   13.4800   20.0940   18.9260   O 0  0  0  0  0  0  0  0  0  0  0  0
   15.6260   20.2270   18.2190   O 0  0  0  0  0  0  0  0  0  0  0  0
   14.3320   24.8170   18.4480   O 0  0  0  0  0  0  0  0  0  0  0  0
   17.4450   23.6140   15.0580   O 0  0  0  0  0  0  0  0  0  0  0  0
   19.5550   22.8550   16.2380   O 0  0  0  0  0  0  0  0  0  0  0  0
   12.0330   18.6730   21.1260   O 0  0  0  0  0  0  0  0  0  0  0  0
   18.5320   23.9100   16.0040   S 0  0  0  0  0  0  0  0  0  0  0  0
  1  4  1  0  0  0  0
  1 34  1  0  0  0  0
  2  4  1  0  0  0  0
  2 25  1  0  0  0  0
  3 26  1  0  0  0  0
  3 29  1  0  0  0  0
  3 30  2  0  0  0  0
  4 29  1  0  0  0  0
  5  6  1  0  0  0  0
  5  7  1  0  0  0  0
  5 26  1  0  0  0  0
  6 14  1  0  0  0  0
  6 31  1  0  0  0  0
  7  8  1  0  0  0  0
  8  9  2  0  0  0  0
  8 10  1  0  0  0  0
  9 11  1  0  0  0  0
 10 12  2  0  0  0  0
 11 13  2  0  0  0  0
 12 13  1  0  0  0  0
 14 27  1  0  0  0  0
 15 16  1  0  0  0  0
 15 27  1  0  0  0  0
 16 23  1  0  0  0  0
 16 24  1  0  0  0  0
 17 18  2  0  0  0  0
 17 22  1  0  0  0  0
 17 35  1  0  0  0  0
 18 19  1  0  0  0  0
 19 20  2  0  0  0  0
 20 21  1  0  0  0  0
 20 28  1  0  0  0  0
 21 22  2  0  0  0  0
 25 34  1  0  0  0  0
 27 35  1  0  0  0  0
 32 35  2  0  0  0  0
 33 35  2  0  0  0  0
A    1
C1
A    2
C2
A    3
C3
A    4
C4
A    5
C5
A    6
C6
A    7
C7
A    8
C8
A    9
C9
A   10
C10
A   11
C11
A   12
C12
A   13
C13
A   14
C14
A   15
C15
A   16
C16
A   17
C17
A   18
C18
A   19
C19
A   20
C20
A   21
C21
A   22
C22
A   23
C23
A   24
C24
A   25
C25
A   26
N1
A   27
N2
A   28
N3
A   29
O1
A   30
O2
A   31
O3
A   32
O4
A   33
O5
A   34
O6
A   35
S1
M  END
>  <InstanceId>
3NU4_478_B_401

>  <ChemCompId>
478

>  <PdbId>
3NU4

>  <ChainId>
B

>  <ResidueNumber>
401

>  <InsertionCode>


>  <Model>
1

>  <AltIds>


>  <MissingHeavyAtoms>
0

>  <ObservedFormula>
C25 N3 O6 S

>  <Name>
{3-[(4-AMINO-BENZENESULFONYL)-ISOBUTYL-AMINO]-1-BENZYL-2-HYDROXY-PROPYL}-CARBAMIC ACID TETRAHYDRO-FURAN-3-YL ESTER

>  <SystematicName>
[(3S)-oxolan-3-yl] N-[(2S,3R)-4-[(4-aminophenyl)sulfonyl-(2-methylpropyl)amino]-3-hydroxy-1-phenyl-butan-2-yl]carbamate

>  <Synonyms>
Amprenavir

>  <Type>
NON-POLYMER

>  <Formula>
C25 H35 N3 O6 S

>  <MolecularWeight>
505.627

>  <ModifiedDate>
2011-06-04

>  <Parent>


>  <OneLetterCode>


>  <SubcomponentList>


>  <AmbiguousFlag>
N

>  <InChI>
InChI=1S/C25H35N3O6S/c1-18(2)15-28(35(31,32)22-10-8-20(26)9-11-22)16-24(29)23(14-19-6-4-3-5-7-19)27-25(30)34-21-12-13-33-17-21/h3-11,18,21,23-24,29H,12-17,26H2,1-2H3,(H,27,30)/t21-,23-,24+/m0/s1

>  <InChIKey>
YMARZQAQMVYCKC-OEMFJLHTSA-N

>  <SMILES>
CC(C)C[N@](C[C@H]([C@H](Cc1ccccc1)NC(=O)O[C@H]2CCOC2)O)S(=O)(=O)c3ccc(cc3)N

$$$$
