2XIB_DFU_A_1472


 14 14  0  0  0  0  0  0  0  0999 V2000
    1.8224  -12.4935   81.8887 C   0  0  0  0  0  0  0  0  0  0  0  0
    3.2307  -12.7952   82.4177 C   0  0  0  0  0  0  0  0  0  0  0  0
    3.1232  -13.3197   83.8478 C   0  0  0  0  0  0  0  0  0  0  0  0
    2.2786  -14.5954   83.8392 C   0  0  0  0  0  0  0  0  0  0  0  0
    0.8922  -14.2706   83.2517 C   0  0  0  0  0  0  0  0  0  0  0  0
    0.0524  -15.5430   83.1908 C   0  0  0  0  0  0  0  0  0  0  0  0
    2.9446  -15.6235   83.0636 O   0  0  0  0  0  0  0  0  0  0  0  0
    4.4028  -13.5941   84.3825 O   0  0  0  0  0  0  0  0  0  0  0  0
    4.0586  -11.6367   82.3753 O   0  0  0  0  0  0  0  0  0  0  0  0
    1.0300  -13.7422   81.9002 N   0  0  0  0  0  0  0  0  0  0  0  0
    3.0670  -15.3130   82.1528 H   0  0  0  0  0  0  0  0  0  0  0  0
    4.8415  -14.2689   83.8412 H   0  0  0  0  0  0  0  0  0  0  0  0
    3.6737  -10.9437   82.9343 H   0  0  0  0  0  0  0  0  0  0  0  0
    1.4971  -14.4373   81.3179 H   0  0  0  0  0  0  0  0  0  0  0  0
  1  2  1  0  0  0
  1 10  1  0  0  0
  2  3  1  0  0  0
  2  9  1  0  0  0
  3  4  1  0  0  0
  3  8  1  0  0  0
  4  5  1  0  0  0
  4  7  1  0  0  0
  5  6  1  0  0  0
  5 10  1  0  0  0
  7 11  1  0  0  0
  8 12  1  0  0  0
  9 13  1  0  0  0
 10 14  1  0  0  0
M  END
> <minimizedAffinity>
0.00000

$$$$
2XIB_DFU_A_1472


 14 14  0  0  0  0  0  0  0  0999 V2000
    2.2638   -8.9596   89.8114 C   0  0  0  0  0  0  0  0  0  0  0  0
    1.6508   -8.3641   88.5372 C   0  0  0  0  0  0  0  0  0  0  0  0
    1.8712   -9.3342   87.3786 C   0  0  0  0  0  0  0  0  0  0  0  0
    1.1944  -10.6637   87.7179 C   0  0  0  0  0  0  0  0  0  0  0  0
    1.7924  -11.2064   89.0297 C   0  0  0  0  0  0  0  0  0  0  0  0
    1.0943  -12.5090   89.4088 C   0  0  0  0  0  0  0  0  0  0  0  0
   -0.2376  -10.4722   87.8388 O   0  0  0  0  0  0  0  0  0  0  0  0
    1.3366   -8.8155   86.1771 O   0  0  0  0  0  0  0  0  0  0  0  0
    2.2189   -7.0932   88.2347 O   0  0  0  0  0  0  0  0  0  0  0  0
    1.5952  -10.2451   90.1076 N   0  0  0  0  0  0  0  0  0  0  0  0
   -0.4197   -9.8303   88.5428 H   0  0  0  0  0  0  0  0  0  0  0  0
    0.3824   -8.6754   86.2817 H   0  0  0  0  0  0  0  0  0  0  0  0
    3.1724   -7.1922   88.0871 H   0  0  0  0  0  0  0  0  0  0  0  0
    0.5957  -10.0800   90.2266 H   0  0  0  0  0  0  0  0  0  0  0  0
  1  2  1  0  0  0
  1 10  1  0  0  0
  2  3  1  0  0  0
  2  9  1  0  0  0
  3  4  1  0  0  0
  3  8  1  0  0  0
  4  5  1  0  0  0
  4  7  1  0  0  0
  5  6  1  0  0  0
  5 10  1  0  0  0
  7 11  1  0  0  0
  8 12  1  0  0  0
  9 13  1  0  0  0
 10 14  1  0  0  0
M  END
> <minimizedAffinity>
0.00000

$$$$
2XIB_DFU_A_1472


 14 14  0  0  0  0  0  0  0  0999 V2000
    8.7568  -11.6505   89.1211 C   0  0  0  0  0  0  0  0  0  0  0  0
    8.0618  -11.3388   90.4529 C   0  0  0  0  0  0  0  0  0  0  0  0
    6.5947  -11.7518   90.3571 C   0  0  0  0  0  0  0  0  0  0  0  0
    6.5266  -13.2521   90.0650 C   0  0  0  0  0  0  0  0  0  0  0  0
    7.2803  -13.5386   88.7525 C   0  0  0  0  0  0  0  0  0  0  0  0
    7.2637  -15.0381   88.4708 C   0  0  0  0  0  0  0  0  0  0  0  0
    7.1015  -13.9967   91.1684 O   0  0  0  0  0  0  0  0  0  0  0  0
    5.9097  -11.4648   91.5600 O   0  0  0  0  0  0  0  0  0  0  0  0
    8.1673   -9.9565   90.7807 O   0  0  0  0  0  0  0  0  0  0  0  0
    8.6672  -13.1041   88.8640 N   0  0  0  0  0  0  0  0  0  0  0  0
    8.0277  -13.7343   91.2877 H   0  0  0  0  0  0  0  0  0  0  0  0
    6.3188  -11.9553   92.2900 H   0  0  0  0  0  0  0  0  0  0  0  0
    7.7379   -9.4269   90.0908 H   0  0  0  0  0  0  0  0  0  0  0  0
    9.1115  -13.6054   89.6332 H   0  0  0  0  0  0  0  0  0  0  0  0
  1  2  1  0  0  0
  1 10  1  0  0  0
  2  3  1  0  0  0
  2  9  1  0  0  0
  3  4  1  0  0  0
  3  8  1  0  0  0
  4  5  1  0  0  0
  4  7  1  0  0  0
  5  6  1  0  0  0
  5 10  1  0  0  0
  7 11  1  0  0  0
  8 12  1  0  0  0
  9 13  1  0  0  0
 10 14  1  0  0  0
M  END
> <minimizedAffinity>
0.00000

$$$$
2XIB_DFU_A_1472


 14 14  0  0  0  0  0  0  0  0999 V2000
    3.3156  -13.9656   88.0583 C   0  0  0  0  0  0  0  0  0  0  0  0
    2.0561  -13.5126   87.3084 C   0  0  0  0  0  0  0  0  0  0  0  0
    1.2731  -12.5431   88.1910 C   0  0  0  0  0  0  0  0  0  0  0  0
    2.1627  -11.3382   88.5037 C   0  0  0  0  0  0  0  0  0  0  0  0
    3.4419  -11.8325   89.2052 C   0  0  0  0  0  0  0  0  0  0  0  0
    4.3633  -10.6481   89.4812 C   0  0  0  0  0  0  0  0  0  0  0  0
    2.4812  -10.6287   87.2800 O   0  0  0  0  0  0  0  0  0  0  0  0
    0.0916  -12.1133   87.5445 O   0  0  0  0  0  0  0  0  0  0  0  0
    1.2408  -14.6237   86.9477 O   0  0  0  0  0  0  0  0  0  0  0  0
    4.1491  -12.7798   88.3523 N   0  0  0  0  0  0  0  0  0  0  0  0
    2.9484  -11.2242   86.6733 H   0  0  0  0  0  0  0  0  0  0  0  0
    0.3218  -11.6583   86.7193 H   0  0  0  0  0  0  0  0  0  0  0  0
    0.9572  -15.0903   87.7494 H   0  0  0  0  0  0  0  0  0  0  0  0
    4.3927  -12.3194   87.4753 H   0  0  0  0  0  0  0  0  0  0  0  0
  1  2  1  0  0  0
  1 10  1  0  0  0
  2  3  1  0  0  0
  2  9  1  0  0  0
  3  4  1  0  0  0
  3  8  1  0  0  0
  4  5  1  0  0  0
  4  7  1  0  0  0
  5  6  1  0  0  0
  5 10  1  0  0  0
  7 11  1  0  0  0
  8 12  1  0  0  0
  9 13  1  0  0  0
 10 14  1  0  0  0
M  END
> <minimizedAffinity>
0.00000

$$$$
2XIB_DFU_A_1472


 14 14  0  0  0  0  0  0  0  0999 V2000
    2.1480   -7.4554   87.6192 C   0  0  0  0  0  0  0  0  0  0  0  0
    3.3999   -8.0006   88.3189 C   0  0  0  0  0  0  0  0  0  0  0  0
    4.6192   -7.7275   87.4410 C   0  0  0  0  0  0  0  0  0  0  0  0
    4.7457   -6.2167   87.2351 C   0  0  0  0  0  0  0  0  0  0  0  0
    3.4522   -5.6930   86.5829 C   0  0  0  0  0  0  0  0  0  0  0  0
    3.5419   -4.1792   86.4143 C   0  0  0  0  0  0  0  0  0  0  0  0
    4.9888   -5.5637   88.5066 O   0  0  0  0  0  0  0  0  0  0  0  0
    5.7962   -8.2311   88.0407 O   0  0  0  0  0  0  0  0  0  0  0  0
    3.2801   -9.3956   88.5811 O   0  0  0  0  0  0  0  0  0  0  0  0
    2.3042   -5.9973   87.4280 N   0  0  0  0  0  0  0  0  0  0  0  0
    4.2508   -5.7451   89.1095 H   0  0  0  0  0  0  0  0  0  0  0  0
    5.9330   -7.7982   88.8979 H   0  0  0  0  0  0  0  0  0  0  0  0
    3.1759   -9.8742   87.7439 H   0  0  0  0  0  0  0  0  0  0  0  0
    2.4350   -5.5551   88.3378 H   0  0  0  0  0  0  0  0  0  0  0  0
  1  2  1  0  0  0
  1 10  1  0  0  0
  2  3  1  0  0  0
  2  9  1  0  0  0
  3  4  1  0  0  0
  3  8  1  0  0  0
  4  5  1  0  0  0
  4  7  1  0  0  0
  5  6  1  0  0  0
  5 10  1  0  0  0
  7 11  1  0  0  0
  8 12  1  0  0  0
  9 13  1  0  0  0
 10 14  1  0  0  0
M  END
> <minimizedAffinity>
0.00000

$$$$
2XIB_DFU_A_1472


 14 14  0  0  0  0  0  0  0  0999 V2000
    5.9788   -9.0515   82.8257 C   0  0  0  0  0  0  0  0  0  0  0  0
    6.1136   -8.3807   84.1989 C   0  0  0  0  0  0  0  0  0  0  0  0
    5.5046   -6.9820   84.1314 C   0  0  0  0  0  0  0  0  0  0  0  0
    4.0286   -7.1086   83.7488 C   0  0  0  0  0  0  0  0  0  0  0  0
    3.9258   -7.8348   82.3942 C   0  0  0  0  0  0  0  0  0  0  0  0
    2.4573   -8.0128   82.0202 C   0  0  0  0  0  0  0  0  0  0  0  0
    3.3109   -7.8299   84.7817 O   0  0  0  0  0  0  0  0  0  0  0  0
    5.6238   -6.3187   85.3741 O   0  0  0  0  0  0  0  0  0  0  0  0
    7.4761   -8.3090   84.6084 O   0  0  0  0  0  0  0  0  0  0  0  0
    4.5439   -9.1520   82.4817 N   0  0  0  0  0  0  0  0  0  0  0  0
    3.6936   -8.7154   84.8831 H   0  0  0  0  0  0  0  0  0  0  0  0
    5.1550   -6.8241   86.0566 H   0  0  0  0  0  0  0  0  0  0  0  0
    7.9784   -7.7800   83.9691 H   0  0  0  0  0  0  0  0  0  0  0  0
    4.0672   -9.6955   83.2013 H   0  0  0  0  0  0  0  0  0  0  0  0
  1  2  1  0  0  0
  1 10  1  0  0  0
  2  3  1  0  0  0
  2  9  1  0  0  0
  3  4  1  0  0  0
  3  8  1  0  0  0
  4  5  1  0  0  0
  4  7  1  0  0  0
  5  6  1  0  0  0
  5 10  1  0  0  0
  7 11  1  0  0  0
  8 12  1  0  0  0
  9 13  1  0  0  0
 10 14  1  0  0  0
M  END
> <minimizedAffinity>
0.00000

$$$$
2XIB_DFU_A_1472


 14 14  0  0  0  0  0  0  0  0999 V2000
   -0.7005  -10.8153   85.9051 C   0  0  0  0  0  0  0  0  0  0  0  0
   -1.2394  -10.6102   87.3269 C   0  0  0  0  0  0  0  0  0  0  0  0
   -0.4353   -9.5058   88.0093 C   0  0  0  0  0  0  0  0  0  0  0  0
   -0.5856   -8.2177   87.1974 C   0  0  0  0  0  0  0  0  0  0  0  0
   -0.0883   -8.4731   85.7620 C   0  0  0  0  0  0  0  0  0  0  0  0
   -0.2760   -7.2117   84.9244 C   0  0  0  0  0  0  0  0  0  0  0  0
   -1.9713   -7.7912   87.1999 O   0  0  0  0  0  0  0  0  0  0  0  0
   -0.8875   -9.2956   89.3321 O   0  0  0  0  0  0  0  0  0  0  0  0
   -1.1708  -11.8142   88.0851 O   0  0  0  0  0  0  0  0  0  0  0  0
   -0.8524   -9.5529   85.1497 N   0  0  0  0  0  0  0  0  0  0  0  0
   -2.5238   -8.4850   86.8070 H   0  0  0  0  0  0  0  0  0  0  0  0
   -1.8204   -9.0300   89.3165 H   0  0  0  0  0  0  0  0  0  0  0  0
   -0.2463  -12.0992   88.1563 H   0  0  0  0  0  0  0  0  0  0  0  0
   -1.8386   -9.2932   85.1319 H   0  0  0  0  0  0  0  0  0  0  0  0
  1  2  1  0  0  0
  1 10  1  0  0  0
  2  3  1  0  0  0
  2  9  1  0  0  0
  3  4  1  0  0  0
  3  8  1  0  0  0
  4  5  1  0  0  0
  4  7  1  0  0  0
  5  6  1  0  0  0
  5 10  1  0  0  0
  7 11  1  0  0  0
  8 12  1  0  0  0
  9 13  1  0  0  0
 10 14  1  0  0  0
M  END
> <minimizedAffinity>
0.00000

$$$$
2XIB_DFU_A_1472


 14 14  0  0  0  0  0  0  0  0999 V2000
    2.7759  -12.2068   84.9940 C   0  0  0  0  0  0  0  0  0  0  0  0
    2.9890  -11.5879   83.6064 C   0  0  0  0  0  0  0  0  0  0  0  0
    4.4016  -11.9152   83.1272 C   0  0  0  0  0  0  0  0  0  0  0  0
    4.5542  -13.4359   83.0556 C   0  0  0  0  0  0  0  0  0  0  0  0
    4.2795  -14.0300   84.4500 C   0  0  0  0  0  0  0  0  0  0  0  0
    4.3801  -15.5511   84.3859 C   0  0  0  0  0  0  0  0  0  0  0  0
    3.6400  -13.9781   82.0696 O   0  0  0  0  0  0  0  0  0  0  0  0
    4.6481  -11.3471   81.8564 O   0  0  0  0  0  0  0  0  0  0  0  0
    2.7885  -10.1778   83.6322 O   0  0  0  0  0  0  0  0  0  0  0  0
    2.9374  -13.6734   84.8931 N   0  0  0  0  0  0  0  0  0  0  0  0
    2.7285  -13.7581   82.3183 H   0  0  0  0  0  0  0  0  0  0  0  0
    4.0161  -11.7057   81.2138 H   0  0  0  0  0  0  0  0  0  0  0  0
    3.4264   -9.7716   84.2395 H   0  0  0  0  0  0  0  0  0  0  0  0
    2.2591  -14.0369   84.2237 H   0  0  0  0  0  0  0  0  0  0  0  0
  1  2  1  0  0  0
  1 10  1  0  0  0
  2  3  1  0  0  0
  2  9  1  0  0  0
  3  4  1  0  0  0
  3  8  1  0  0  0
  4  5  1  0  0  0
  4  7  1  0  0  0
  5  6  1  0  0  0
  5 10  1  0  0  0
  7 11  1  0  0  0
  8 12  1  0  0  0
  9 13  1  0  0  0
 10 14  1  0  0  0
M  END
> <minimizedAffinity>
0.00000

$$$$
2XIB_DFU_A_1472


 14 14  0  0  0  0  0  0  0  0999 V2000
   -0.6946  -10.8153   85.9051 C   0  0  0  0  0  0  0  0  0  0  0  0
    0.1540   -9.8673   85.0477 C   0  0  0  0  0  0  0  0  0  0  0  0
    1.1951   -9.1902   85.9363 C   0  0  0  0  0  0  0  0  0  0  0  0
    2.0802  -10.2694   86.5629 C   0  0  0  0  0  0  0  0  0  0  0  0
    1.1920  -11.2353   87.3698 C   0  0  0  0  0  0  0  0  0  0  0  0
    2.0532  -12.3467   87.9624 C   0  0  0  0  0  0  0  0  0  0  0  0
    2.8078  -10.9748   85.5260 O   0  0  0  0  0  0  0  0  0  0  0  0
    1.9897   -8.2914   85.1884 O   0  0  0  0  0  0  0  0  0  0  0  0
   -0.6558   -8.8905   84.4001 O   0  0  0  0  0  0  0  0  0  0  0  0
    0.1891  -11.8400   86.5019 N   0  0  0  0  0  0  0  0  0  0  0  0
    2.1791  -11.3898   84.9150 H   0  0  0  0  0  0  0  0  0  0  0  0
    2.4537   -8.7760   84.4879 H   0  0  0  0  0  0  0  0  0  0  0  0
   -1.1144   -8.3566   85.0676 H   0  0  0  0  0  0  0  0  0  0  0  0
    0.6605  -12.3485   85.7538 H   0  0  0  0  0  0  0  0  0  0  0  0
  1  2  1  0  0  0
  1 10  1  0  0  0
  2  3  1  0  0  0
  2  9  1  0  0  0
  3  4  1  0  0  0
  3  8  1  0  0  0
  4  5  1  0  0  0
  4  7  1  0  0  0
  5  6  1  0  0  0
  5 10  1  0  0  0
  7 11  1  0  0  0
  8 12  1  0  0  0
  9 13  1  0  0  0
 10 14  1  0  0  0
M  END
> <minimizedAffinity>
0.00000

$$$$
2XIB_DFU_A_1472


 14 14  0  0  0  0  0  0  0  0999 V2000
    2.7759  -12.2068   85.7292 C   0  0  0  0  0  0  0  0  0  0  0  0
    2.7530  -11.6720   84.2913 C   0  0  0  0  0  0  0  0  0  0  0  0
    2.9063  -12.8424   83.3225 C   0  0  0  0  0  0  0  0  0  0  0  0
    1.7457  -13.8149   83.5421 C   0  0  0  0  0  0  0  0  0  0  0  0
    1.7640  -14.2892   85.0076 C   0  0  0  0  0  0  0  0  0  0  0  0
    0.5836  -15.2232   85.2569 C   0  0  0  0  0  0  0  0  0  0  0  0
    0.4898  -13.1655   83.2210 O   0  0  0  0  0  0  0  0  0  0  0  0
    2.9089  -12.3918   81.9826 O   0  0  0  0  0  0  0  0  0  0  0  0
    3.7857  -10.7140   84.0790 O   0  0  0  0  0  0  0  0  0  0  0  0
    1.6490  -13.1479   85.9070 N   0  0  0  0  0  0  0  0  0  0  0  0
    0.3716  -12.3901   83.7917 H   0  0  0  0  0  0  0  0  0  0  0  0
    2.0704  -11.9434   81.7906 H   0  0  0  0  0  0  0  0  0  0  0  0
    4.6489  -11.1310   84.2268 H   0  0  0  0  0  0  0  0  0  0  0  0
    0.7747  -12.6595   85.7136 H   0  0  0  0  0  0  0  0  0  0  0  0
  1  2  1  0  0  0
  1 10  1  0  0  0
  2  3  1  0  0  0
  2  9  1  0  0  0
  3  4  1  0  0  0
  3  8  1  0  0  0
  4  5  1  0  0  0
  4  7  1  0  0  0
  5  6  1  0  0  0
  5 10  1  0  0  0
  7 11  1  0  0  0
  8 12  1  0  0  0
  9 13  1  0  0  0
 10 14  1  0  0  0
M  END
> <minimizedAffinity>
0.00000

$$$$
