5UXF_2BA_A_401


 52 58  0  0  0  0  0  0  0  0999 V2000
  114.6485   77.0990    0.8690 P   0  0  0  0  0  0  0  0  0  0  0  0
  114.0047   77.1501   -0.4768 O   0  0  0  0  0  0  0  0  0  0  0  0
  115.7500   78.0743    1.2163 O   0  0  0  0  0  0  0  0  0  0  0  0
  113.4618   77.2098    1.9572 O   0  0  0  0  0  0  0  0  0  0  0  0
  113.6970   77.8146    3.2226 C   0  0  0  0  0  0  0  0  0  0  0  0
  113.8486   76.7325    4.2977 C   0  0  0  0  0  0  0  0  0  0  0  0
  114.2220   77.3739    5.5316 O   0  0  0  0  0  0  0  0  0  0  0  0
  112.5810   75.9513    4.5911 C   0  0  0  0  0  0  0  0  0  0  0  0
  112.9409   74.6230    5.0044 O   0  0  0  0  0  0  0  0  0  0  0  0
  112.0581   76.6893    5.8085 C   0  0  0  0  0  0  0  0  0  0  0  0
  111.0870   75.8973    6.5140 O   0  0  0  0  0  0  0  0  0  0  0  0
  113.3522   76.9340    6.5683 C   0  0  0  0  0  0  0  0  0  0  0  0
  112.3498   73.2867    4.3104 P   0  0  0  0  0  0  0  0  0  0  0  0
  112.8423   72.1461    5.1492 O   0  0  0  0  0  0  0  0  0  0  0  0
  110.8799   73.4918    4.0530 O   0  0  0  0  0  0  0  0  0  0  0  0
  113.0442   73.2310    2.8590 O   0  0  0  0  0  0  0  0  0  0  0  0
  114.4641   73.1496    2.8437 C   0  0  0  0  0  0  0  0  0  0  0  0
  114.9685   73.2648    1.4158 C   0  0  0  0  0  0  0  0  0  0  0  0
  114.4901   72.1893    0.6132 O   0  0  0  0  0  0  0  0  0  0  0  0
  114.4748   74.4886    0.6766 C   0  0  0  0  0  0  0  0  0  0  0  0
  115.2346   75.6247    1.0890 O   0  0  0  0  0  0  0  0  0  0  0  0
  114.6918   74.0909   -0.7754 C   0  0  0  0  0  0  0  0  0  0  0  0
  115.9707   74.5619   -1.2099 O   0  0  0  0  0  0  0  0  0  0  0  0
  114.7352   72.5735   -0.7426 C   0  0  0  0  0  0  0  0  0  0  0  0
  115.4291   78.9815    1.0941 H   0  0  0  0  0  0  0  0  0  0  0  0
  111.4752   75.0385    6.7433 H   0  0  0  0  0  0  0  0  0  0  0  0
  110.4064   73.5335    4.8985 H   0  0  0  0  0  0  0  0  0  0  0  0
  116.6605   74.2088   -0.6264 H   0  0  0  0  0  0  0  0  0  0  0  0
  113.3795   77.9821    7.6251 N   0  0  0  0  0  0  0  0  0  0  0  0
  114.5133   78.4805    8.1695 C   0  0  0  0  0  0  0  0  0  0  0  0
  114.2382   79.4035    9.1308 N   0  0  0  0  0  0  0  0  0  0  0  0
  112.8944   79.4834    9.2014 C   0  0  0  0  0  0  0  0  0  0  0  0
  111.9346   80.2581   10.0131 C   0  0  0  0  0  0  0  0  0  0  0  0
  112.3841   81.1456   10.9321 N   0  0  0  0  0  0  0  0  0  0  0  0
  110.6147   80.0553    9.8009 N   0  0  0  0  0  0  0  0  0  0  0  0
  110.1797   79.1773    8.8790 C   0  0  0  0  0  0  0  0  0  0  0  0
  110.9969   78.4384    8.1035 N   0  0  0  0  0  0  0  0  0  0  0  0
  112.3384   78.5390    8.2292 C   0  0  0  0  0  0  0  0  0  0  0  0
  113.3518   81.2708   11.0634 H   0  0  0  0  0  0  0  0  0  0  0  0
  111.7432   81.6656   11.4688 H   0  0  0  0  0  0  0  0  0  0  0  0
  113.6950   71.9152   -1.5515 N   0  0  0  0  0  0  0  0  0  0  0  0
  112.3974   72.2614   -1.6451 C   0  0  0  0  0  0  0  0  0  0  0  0
  111.7305   71.4106   -2.4545 N   0  0  0  0  0  0  0  0  0  0  0  0
  112.6281   70.5071   -2.8930 C   0  0  0  0  0  0  0  0  0  0  0  0
  112.5844   69.3419   -3.7853 C   0  0  0  0  0  0  0  0  0  0  0  0
  111.4292   68.9667   -4.3731 N   0  0  0  0  0  0  0  0  0  0  0  0
  113.7389   68.6669   -3.9797 N   0  0  0  0  0  0  0  0  0  0  0  0
  114.8883   69.0388   -3.3801 C   0  0  0  0  0  0  0  0  0  0  0  0
  115.0092   70.0989   -2.5575 N   0  0  0  0  0  0  0  0  0  0  0  0
  113.9177   70.8427   -2.2921 C   0  0  0  0  0  0  0  0  0  0  0  0
  110.6049   69.4800   -4.2110 H   0  0  0  0  0  0  0  0  0  0  0  0
  111.4106   68.1795   -4.9641 H   0  0  0  0  0  0  0  0  0  0  0  0
  1  2  2  0  0  0
  1  3  1  0  0  0
  1  4  1  0  0  0
  1 21  1  0  0  0
  4  5  1  0  0  0
  5  6  1  0  0  0
  6  7  1  0  0  0
  6  8  1  0  0  0
  7 12  1  0  0  0
  8  9  1  0  0  0
  8 10  1  0  0  0
  9 13  1  0  0  0
 10 11  1  0  0  0
 10 12  1  0  0  0
 12 29  1  0  0  0
 29 30  1  0  0  0
 29 38  1  0  0  0
 30 31  2  0  0  0
 31 32  1  0  0  0
 32 33  2  0  0  0
 32 38  1  0  0  0
 33 34  1  0  0  0
 33 35  1  0  0  0
 35 36  2  0  0  0
 36 37  1  0  0  0
 37 38  2  0  0  0
 13 14  2  0  0  0
 13 15  1  0  0  0
 13 16  1  0  0  0
 16 17  1  0  0  0
 17 18  1  0  0  0
 18 19  1  0  0  0
 18 20  1  0  0  0
 19 24  1  0  0  0
 20 21  1  0  0  0
 20 22  1  0  0  0
 22 23  1  0  0  0
 22 24  1  0  0  0
 24 41  1  0  0  0
 41 42  1  0  0  0
 41 50  1  0  0  0
 42 43  2  0  0  0
 43 44  1  0  0  0
 44 45  2  0  0  0
 44 50  1  0  0  0
 45 46  1  0  0  0
 45 47  1  0  0  0
 47 48  2  0  0  0
 48 49  1  0  0  0
 49 50  2  0  0  0
  3 25  1  0  0  0
 11 26  1  0  0  0
 34 39  1  0  0  0
 34 40  1  0  0  0
 15 27  1  0  0  0
 23 28  1  0  0  0
 46 51  1  0  0  0
 46 52  1  0  0  0
M  END
> <minimizedAffinity>
-14.50063

$$$$
5UXF_2BA_A_401


 52 58  0  0  0  0  0  0  0  0999 V2000
  114.8022   77.0704    0.9269 P   0  0  0  0  0  0  0  0  0  0  0  0
  114.1617   77.1433   -0.4195 O   0  0  0  0  0  0  0  0  0  0  0  0
  115.9225   78.0210    1.2822 O   0  0  0  0  0  0  0  0  0  0  0  0
  113.6163   77.1977    2.0140 O   0  0  0  0  0  0  0  0  0  0  0  0
  113.8616   77.7893    3.2838 C   0  0  0  0  0  0  0  0  0  0  0  0
  113.9898   76.6972    4.3518 C   0  0  0  0  0  0  0  0  0  0  0  0
  114.3740   77.3228    5.5906 O   0  0  0  0  0  0  0  0  0  0  0  0
  112.7062   75.9398    4.6383 C   0  0  0  0  0  0  0  0  0  0  0  0
  113.0387   74.6018    5.0431 O   0  0  0  0  0  0  0  0  0  0  0  0
  112.1963   76.6799    5.8597 C   0  0  0  0  0  0  0  0  0  0  0  0
  111.2085   75.9030    6.5586 O   0  0  0  0  0  0  0  0  0  0  0  0
  113.4939   76.8936    6.6231 C   0  0  0  0  0  0  0  0  0  0  0  0
  112.4220   73.2823    4.3394 P   0  0  0  0  0  0  0  0  0  0  0  0
  112.8902   72.1264    5.1714 O   0  0  0  0  0  0  0  0  0  0  0  0
  110.9569   73.5185    4.0813 O   0  0  0  0  0  0  0  0  0  0  0  0
  113.1174   73.2223    2.8887 O   0  0  0  0  0  0  0  0  0  0  0  0
  114.5354   73.1125    2.8749 C   0  0  0  0  0  0  0  0  0  0  0  0
  115.0443   73.2269    1.4485 C   0  0  0  0  0  0  0  0  0  0  0  0
  114.5457   72.1666    0.6381 O   0  0  0  0  0  0  0  0  0  0  0  0
  114.5764   74.4652    0.7168 C   0  0  0  0  0  0  0  0  0  0  0  0
  115.3582   75.5831    1.1378 O   0  0  0  0  0  0  0  0  0  0  0  0
  114.7876   74.0730   -0.7375 C   0  0  0  0  0  0  0  0  0  0  0  0
  116.0765   74.5210   -1.1670 O   0  0  0  0  0  0  0  0  0  0  0  0
  114.8006   72.5548   -0.7148 C   0  0  0  0  0  0  0  0  0  0  0  0
  115.6201   78.9352    1.1656 H   0  0  0  0  0  0  0  0  0  0  0  0
  111.5790   75.0350    6.7827 H   0  0  0  0  0  0  0  0  0  0  0  0
  110.4830   73.5641    4.9264 H   0  0  0  0  0  0  0  0  0  0  0  0
  116.7581   74.1503   -0.5849 H   0  0  0  0  0  0  0  0  0  0  0  0
  113.5406   77.9338    7.6869 N   0  0  0  0  0  0  0  0  0  0  0  0
  112.4451   78.4603    8.2812 C   0  0  0  0  0  0  0  0  0  0  0  0
  112.7843   79.4096    9.1951 N   0  0  0  0  0  0  0  0  0  0  0  0
  114.1296   79.4912    9.1707 C   0  0  0  0  0  0  0  0  0  0  0  0
  115.1408   80.2994    9.8809 C   0  0  0  0  0  0  0  0  0  0  0  0
  114.7552   81.2006   10.8155 N   0  0  0  0  0  0  0  0  0  0  0  0
  116.4424   80.1023    9.5721 N   0  0  0  0  0  0  0  0  0  0  0  0
  116.8144   79.1980    8.6480 C   0  0  0  0  0  0  0  0  0  0  0  0
  115.9479   78.4266    7.9629 N   0  0  0  0  0  0  0  0  0  0  0  0
  114.6175   78.5386    8.1703 C   0  0  0  0  0  0  0  0  0  0  0  0
  113.7993   81.3212   11.0182 H   0  0  0  0  0  0  0  0  0  0  0  0
  115.4307   81.7350   11.2923 H   0  0  0  0  0  0  0  0  0  0  0  0
  113.7486   71.9229   -1.5295 N   0  0  0  0  0  0  0  0  0  0  0  0
  112.4629   72.3073   -1.6375 C   0  0  0  0  0  0  0  0  0  0  0  0
  111.7784   71.4718   -2.4481 N   0  0  0  0  0  0  0  0  0  0  0  0
  112.6524   70.5390   -2.8726 C   0  0  0  0  0  0  0  0  0  0  0  0
  112.5821   69.3701   -3.7583 C   0  0  0  0  0  0  0  0  0  0  0  0
  111.4216   69.0260   -4.3548 N   0  0  0  0  0  0  0  0  0  0  0  0
  113.7175   68.6596   -3.9377 N   0  0  0  0  0  0  0  0  0  0  0  0
  114.8720   69.0006   -3.3294 C   0  0  0  0  0  0  0  0  0  0  0  0
  115.0170   70.0618   -2.5121 N   0  0  0  0  0  0  0  0  0  0  0  0
  113.9459   70.8396   -2.2615 C   0  0  0  0  0  0  0  0  0  0  0  0
  110.6117   69.5648   -4.2035 H   0  0  0  0  0  0  0  0  0  0  0  0
  111.3849   68.2360   -4.9412 H   0  0  0  0  0  0  0  0  0  0  0  0
  1  2  2  0  0  0
  1  3  1  0  0  0
  1  4  1  0  0  0
  1 21  1  0  0  0
  4  5  1  0  0  0
  5  6  1  0  0  0
  6  7  1  0  0  0
  6  8  1  0  0  0
  7 12  1  0  0  0
  8  9  1  0  0  0
  8 10  1  0  0  0
  9 13  1  0  0  0
 10 11  1  0  0  0
 10 12  1  0  0  0
 12 29  1  0  0  0
 29 30  1  0  0  0
 29 38  1  0  0  0
 30 31  2  0  0  0
 31 32  1  0  0  0
 32 33  2  0  0  0
 32 38  1  0  0  0
 33 34  1  0  0  0
 33 35  1  0  0  0
 35 36  2  0  0  0
 36 37  1  0  0  0
 37 38  2  0  0  0
 13 14  2  0  0  0
 13 15  1  0  0  0
 13 16  1  0  0  0
 16 17  1  0  0  0
 17 18  1  0  0  0
 18 19  1  0  0  0
 18 20  1  0  0  0
 19 24  1  0  0  0
 20 21  1  0  0  0
 20 22  1  0  0  0
 22 23  1  0  0  0
 22 24  1  0  0  0
 24 41  1  0  0  0
 41 42  1  0  0  0
 41 50  1  0  0  0
 42 43  2  0  0  0
 43 44  1  0  0  0
 44 45  2  0  0  0
 44 50  1  0  0  0
 45 46  1  0  0  0
 45 47  1  0  0  0
 47 48  2  0  0  0
 48 49  1  0  0  0
 49 50  2  0  0  0
  3 25  1  0  0  0
 11 26  1  0  0  0
 34 39  1  0  0  0
 34 40  1  0  0  0
 15 27  1  0  0  0
 23 28  1  0  0  0
 46 51  1  0  0  0
 46 52  1  0  0  0
M  END
> <minimizedAffinity>
-13.56550

$$$$
