5UXF_2BA_A_401
  RCSB PDB12061719563D
Coordinates from PDB:5UXF:A:401 Model:1 without hydrogens
 44 50  0  0  0  0            999 V2000
  114.7510   76.9830    0.7800   P 0  0  0  0  0  0  0  0  0  0  0  0
  114.0800   77.0170   -0.5530   O 0  0  0  0  0  0  0  0  0  0  0  0
  115.8730   77.9490    1.0850   O 0  0  0  0  0  0  0  0  0  0  0  0
  113.5890   77.1320    1.8900   O 0  0  0  0  0  0  0  0  0  0  0  0
  113.8590   77.7580    3.1380   C 0  0  0  0  0  0  0  0  0  0  0  0
  114.0180   76.6950    4.2310   C 0  0  0  0  0  0  0  0  0  0  0  0
  114.4260   77.3550    5.4440   O 0  0  0  0  0  0  0  0  0  0  0  0
  112.7460   75.9380    4.5660   C 0  0  0  0  0  0  0  0  0  0  0  0
  113.0960   74.6130    4.9980   O 0  0  0  0  0  0  0  0  0  0  0  0
  112.2590   76.7070    5.7790   C 0  0  0  0  0  0  0  0  0  0  0  0
  111.2920   75.9430    6.5200   O 0  0  0  0  0  0  0  0  0  0  0  0
  113.5720   76.9480    6.5070   C 0  0  0  0  0  0  0  0  0  0  0  0
  113.6360   78.0160    7.5420   N 0  0  0  0  0  0  0  0  0  0  0  0
  114.7870   78.5590    8.0010   C 0  0  0  0  0  0  0  0  0  0  0  0
  114.5470   79.4910    8.9630   N 0  0  0  0  0  0  0  0  0  0  0  0
  113.2090   79.5310    9.1220   C 0  0  0  0  0  0  0  0  0  0  0  0
  112.2810   80.2910    9.9830   C 0  0  0  0  0  0  0  0  0  0  0  0
  112.7620   81.2090   10.8550   N 0  0  0  0  0  0  0  0  0  0  0  0
  110.9570   80.0440    9.8630   N 0  0  0  0  0  0  0  0  0  0  0  0
  110.4900   79.1360    8.9870   C 0  0  0  0  0  0  0  0  0  0  0  0
  111.2770   78.4080    8.1710   N 0  0  0  0  0  0  0  0  0  0  0  0
  112.6200   78.5520    8.2050   C 0  0  0  0  0  0  0  0  0  0  0  0
  112.4720   73.2720    4.3430   P 0  0  0  0  0  0  0  0  0  0  0  0
  112.9660   72.1410    5.1940   O 0  0  0  0  0  0  0  0  0  0  0  0
  111.0000   73.4930    4.1120   O 0  0  0  0  0  0  0  0  0  0  0  0
  113.1350   73.1780    2.8790   O 0  0  0  0  0  0  0  0  0  0  0  0
  114.5530   73.0760    2.8360   C 0  0  0  0  0  0  0  0  0  0  0  0
  115.0290   73.1560    1.3960   C 0  0  0  0  0  0  0  0  0  0  0  0
  114.5190   72.0720    0.6250   O 0  0  0  0  0  0  0  0  0  0  0  0
  114.5370   74.3720    0.6430   C 0  0  0  0  0  0  0  0  0  0  0  0
  115.3210   75.5050    1.0170   O 0  0  0  0  0  0  0  0  0  0  0  0
  114.7180   73.9430   -0.8050   C 0  0  0  0  0  0  0  0  0  0  0  0
  115.9940   74.3870   -1.2750   O 0  0  0  0  0  0  0  0  0  0  0  0
  114.7410   72.4260   -0.7430   C 0  0  0  0  0  0  0  0  0  0  0  0
  113.6750   71.7670   -1.5170   N 0  0  0  0  0  0  0  0  0  0  0  0
  112.3650   72.0770   -1.5240   C 0  0  0  0  0  0  0  0  0  0  0  0
  111.6770   71.2370   -2.3270   N 0  0  0  0  0  0  0  0  0  0  0  0
  112.5730   70.3780   -2.8500   C 0  0  0  0  0  0  0  0  0  0  0  0
  112.5110   69.2460   -3.7830   C 0  0  0  0  0  0  0  0  0  0  0  0
  111.3350   68.8580   -4.3190   N 0  0  0  0  0  0  0  0  0  0  0  0
  113.6710   68.6140   -4.0680   N 0  0  0  0  0  0  0  0  0  0  0  0
  114.8420   68.9980   -3.5200   C 0  0  0  0  0  0  0  0  0  0  0  0
  114.9800   70.0300   -2.6650   N 0  0  0  0  0  0  0  0  0  0  0  0
  113.8850   70.7300   -2.3100   C 0  0  0  0  0  0  0  0  0  0  0  0
  1  2  2  0  0  0  0
  1  3  1  0  0  0  0
  1  4  1  0  0  0  0
  1 31  1  0  0  0  0
  4  5  1  0  0  0  0
  5  6  1  0  0  0  0
  6  7  1  0  0  0  0
  6  8  1  0  0  0  0
  7 12  1  0  0  0  0
  8  9  1  0  0  0  0
  8 10  1  0  0  0  0
  9 23  1  0  0  0  0
 10 11  1  0  0  0  0
 10 12  1  0  0  0  0
 12 13  1  0  0  0  0
 13 14  1  0  0  0  0
 13 22  1  0  0  0  0
 14 15  2  0  0  0  0
 15 16  1  0  0  0  0
 16 17  2  0  0  0  0
 16 22  1  0  0  0  0
 17 18  1  0  0  0  0
 17 19  1  0  0  0  0
 19 20  2  0  0  0  0
 20 21  1  0  0  0  0
 21 22  2  0  0  0  0
 23 24  2  0  0  0  0
 23 25  1  0  0  0  0
 23 26  1  0  0  0  0
 26 27  1  0  0  0  0
 27 28  1  0  0  0  0
 28 29  1  0  0  0  0
 28 30  1  0  0  0  0
 29 34  1  0  0  0  0
 30 31  1  0  0  0  0
 30 32  1  0  0  0  0
 32 33  1  0  0  0  0
 32 34  1  0  0  0  0
 34 35  1  0  0  0  0
 35 36  1  0  0  0  0
 35 44  1  0  0  0  0
 36 37  2  0  0  0  0
 37 38  1  0  0  0  0
 38 39  2  0  0  0  0
 38 44  1  0  0  0  0
 39 40  1  0  0  0  0
 39 41  1  0  0  0  0
 41 42  2  0  0  0  0
 42 43  1  0  0  0  0
 43 44  2  0  0  0  0
A    1
P
A    2
O1P
A    3
O2P
A    4
O5'
A    5
C5'
A    6
C4'
A    7
O4'
A    8
C3'
A    9
O3'
A   10
C2'
A   11
O2'
A   12
C1'
A   13
N9
A   14
C8
A   15
N7
A   16
C5
A   17
C6
A   18
N6
A   19
N1
A   20
C2
A   21
N3
A   22
C4
A   23
P1
A   24
O1P1
A   25
O2P1
A   26
O5'1
A   27
C5'1
A   28
C4'1
A   29
O4'1
A   30
C3'1
A   31
O3'1
A   32
C2'1
A   33
O2'1
A   34
C1'1
A   35
N91
A   36
C81
A   37
N71
A   38
C51
A   39
C61
A   40
N61
A   41
N11
A   42
C21
A   43
N31
A   44
C41
M  END
>  <InstanceId>
5UXF_2BA_A_401

>  <ChemCompId>
2BA

>  <PdbId>
5UXF

>  <ChainId>
A

>  <ResidueNumber>
401

>  <InsertionCode>


>  <Model>
1

>  <AltIds>


>  <MissingHeavyAtoms>
0

>  <ObservedFormula>
C20 N10 O12 P2

>  <Name>
(2R,3R,3aS,5R,7aR,9R,10R,10aS,12R,14aR)-2,9-bis(6-amino-9H-purin-9-yl)octahydro-2H,7H-difuro[3,2-d:3',2'-j][1,3,7,9,2,8]tetraoxadiphosphacyclododecine-3,5,10,12-tetrol 5,12-dioxide

>  <SystematicName>


>  <Synonyms>
bis-(3',5')-cyclic-dimeric-Adenosine-monophosphate

>  <Type>
NON-POLYMER

>  <Formula>
C20 H24 N10 O12 P2

>  <MolecularWeight>
658.412

>  <ModifiedDate>
2011-06-04

>  <Parent>


>  <OneLetterCode>


>  <SubcomponentList>


>  <AmbiguousFlag>
N

>  <InChI>
InChI=1S/C20H24N10O12P2/c21-15-9-17(25-3-23-15)29(5-27-9)19-11(31)13-7(39-19)1-37-43(33,34)42-14-8(2-38-44(35,36)41-13)40-20(12(14)32)30-6-28-10-16(22)24-4-26-18(10)30/h3-8,11-14,19-20,31-32H,1-2H2,(H,33,34)(H,35,36)(H2,21,23,25)(H2,22,24,26)/t7-,8-,11-,12-,13-,14-,19-,20-/m1/s1

>  <InChIKey>
PDXMFTWFFKBFIN-XPWFQUROSA-N

>  <SMILES>
c1nc(c2c(n1)n(cn2)[C@H]3[C@@H]([C@H]4[C@H](O3)CO[P@](=O)(O[C@@H]5[C@@H](CO[P@](=O)(O4)O)O[C@H]([C@@H]5O)n6cnc7c6ncnc7N)O)O)N

$$$$
