5Z99_SLB_A_501
  RCSB PDB10201805263D
Coordinates from PDB:5Z99:A:501 Model:1 without hydrogens
 21 21  0  0  0  0            999 V2000
    7.9860   37.0870   -4.3870   C 0  0  0  0  0  0  0  0  0  0  0  0
    7.1590   37.6830   -3.2680   C 0  0  0  0  0  0  0  0  0  0  0  0
    7.6310   39.0740   -2.9000   C 0  0  0  0  0  0  0  0  0  0  0  0
    6.8540   39.5500   -1.7430   C 0  0  0  0  0  0  0  0  0  0  0  0
    6.9800   38.6040   -0.5640   C 0  0  0  0  0  0  0  0  0  0  0  0
    6.6430   37.1670   -0.9440   C 0  0  0  0  0  0  0  0  0  0  0  0
    7.0070   36.1740    0.1340   C 0  0  0  0  0  0  0  0  0  0  0  0
    6.6440   34.7450   -0.3200   C 0  0  0  0  0  0  0  0  0  0  0  0
    6.9200   33.7240    0.7910   C 0  0  0  0  0  0  0  0  0  0  0  0
    6.3480   39.7730    1.6110   C 0  0  0  0  0  0  0  0  0  0  0  0
    5.2240   40.1120    2.5730   C 0  0  0  0  0  0  0  0  0  0  0  0
    5.9920   38.9900    0.4550   N 0  0  0  0  0  0  0  0  0  0  0  0
    7.5530   37.1650   -5.5660   O 0  0  0  0  0  0  0  0  0  0  0  0
    9.0800   36.5180   -4.1110   O 0  0  0  0  0  0  0  0  0  0  0  0
    5.8320   37.7090   -3.6290   O 0  0  0  0  0  0  0  0  0  0  0  0
    7.3050   40.8960   -1.3810   O 0  0  0  0  0  0  0  0  0  0  0  0
    7.3680   36.7470   -2.1270   O 0  0  0  0  0  0  0  0  0  0  0  0
    8.3920   36.2160    0.4350   O 0  0  0  0  0  0  0  0  0  0  0  0
    5.2900   34.7000   -0.7170   O 0  0  0  0  0  0  0  0  0  0  0  0
    6.0980   33.9680    1.9070   O 0  0  0  0  0  0  0  0  0  0  0  0
    7.4720   40.1390    1.7990   O 0  0  0  0  0  0  0  0  0  0  0  0
  1  2  1  0  0  0  0
  1 13  2  0  0  0  0
  1 14  1  0  0  0  0
  2  3  1  0  0  0  0
  2 15  1  0  0  0  0
  2 17  1  0  0  0  0
  3  4  1  0  0  0  0
  4  5  1  0  0  0  0
  4 16  1  0  0  0  0
  5  6  1  0  0  0  0
  5 12  1  0  0  0  0
  6  7  1  0  0  0  0
  6 17  1  0  0  0  0
  7  8  1  0  0  0  0
  7 18  1  0  0  0  0
  8  9  1  0  0  0  0
  8 19  1  0  0  0  0
  9 20  1  0  0  0  0
 10 11  1  0  0  0  0
 10 12  1  0  0  0  0
 10 21  2  0  0  0  0
A    1
C1
A    2
C2
A    3
C3
A    4
C4
A    5
C5
A    6
C6
A    7
C7
A    8
C8
A    9
C9
A   10
C10
A   11
C11
A   12
N5
A   13
O1A
A   14
O1B
A   15
O2
A   16
O4
A   17
O6
A   18
O7
A   19
O8
A   20
O9
A   21
O10
M  END
>  <InstanceId>
5Z99_SLB_A_501

>  <ChemCompId>
SLB

>  <PdbId>
5Z99

>  <ChainId>
A

>  <ResidueNumber>
501

>  <InsertionCode>


>  <Model>
1

>  <AltIds>


>  <MissingHeavyAtoms>
0

>  <ObservedFormula>
C11 N O9

>  <Name>
5-N-ACETYL-BETA-D-NEURAMINIC ACID

>  <SystematicName>
(2S,4S,5R,6R)-5-acetamido-2,4-dihydroxy-6-[(1R,2R)-1,2,3-trihydroxypropyl]oxane-2-carboxylic acid

>  <Synonyms>
BETA-SIALIC ACID

>  <Type>
NON-POLYMER

>  <Formula>
C11 H19 N O9

>  <MolecularWeight>
309.27

>  <ModifiedDate>
2011-06-04

>  <Parent>


>  <OneLetterCode>


>  <SubcomponentList>


>  <AmbiguousFlag>
N

>  <InChI>
InChI=1S/C11H19NO9/c1-4(14)12-7-5(15)2-11(20,10(18)19)21-9(7)8(17)6(16)3-13/h5-9,13,15-17,20H,2-3H2,1H3,(H,12,14)(H,18,19)/t5-,6+,7+,8+,9+,11-/m0/s1

>  <InChIKey>
SQVRNKJHWKZAKO-PFQGKNLYSA-N

>  <SMILES>
CC(=O)N[C@@H]1[C@H](C[C@](O[C@H]1[C@@H]([C@@H](CO)O)O)(C(=O)O)O)O

$$$$
