4QEM_HC4_A_202


 14 14  0  0  0  0  0  0  0  0999 V2000
    3.3674  -19.7768   -5.1204 C   0  0  0  0  0  0  0  0  0  0  0  0
    4.4481  -19.1082   -5.7262 C   0  0  0  0  0  0  0  0  0  0  0  0
    5.7698  -19.4849   -5.3604 C   0  0  0  0  0  0  0  0  0  0  0  0
    5.9563  -20.5701   -4.4741 C   0  0  0  0  0  0  0  0  0  0  0  0
    4.8820  -21.2639   -3.8907 C   0  0  0  0  0  0  0  0  0  0  0  0
    3.5777  -20.8198   -4.1986 C   0  0  0  0  0  0  0  0  0  0  0  0
    7.2455  -20.8685   -4.1753 O   0  0  0  0  0  0  0  0  0  0  0  0
    7.9428  -20.3900   -4.5788 H   0  0  0  0  0  0  0  0  0  0  0  0
    1.2019  -18.9364   -4.4856 C   0  0  0  0  0  0  0  0  0  0  0  0
    1.9905  -19.3266   -5.4801 C   0  0  0  0  0  0  0  0  0  0  0  0
   -0.1745  -18.4606   -4.6725 C   0  0  0  0  0  0  0  0  0  0  0  0
   -0.7761  -17.9559   -3.6773 O   0  0  0  0  0  0  0  0  0  0  0  0
   -0.7172  -18.4914   -5.8420 O   0  0  0  0  0  0  0  0  0  0  0  0
   -0.2541  -18.8694   -6.5635 H   0  0  0  0  0  0  0  0  0  0  0  0
 11 12  2  0  0  0
 11 13  1  0  0  0
 11  9  1  0  0  0
  9 10  2  0  0  0
 10  1  1  0  0  0
  1  2  2  0  0  0
  1  6  1  0  0  0
  2  3  1  0  0  0
  3  4  2  0  0  0
  4  5  1  0  0  0
  4  7  1  0  0  0
  5  6  2  0  0  0
 13 14  1  0  0  0
  7  8  1  0  0  0
M  END
> <minimizedAffinity>
-6.82351

$$$$
4QEM_HC4_A_202


 14 14  0  0  0  0  0  0  0  0999 V2000
    3.3779  -19.8689   -5.1023 C   0  0  0  0  0  0  0  0  0  0  0  0
    3.6349  -20.9016   -4.1806 C   0  0  0  0  0  0  0  0  0  0  0  0
    4.9874  -21.2461   -3.9077 C   0  0  0  0  0  0  0  0  0  0  0  0
    6.0239  -20.4877   -4.4980 C   0  0  0  0  0  0  0  0  0  0  0  0
    5.7744  -19.4337   -5.3939 C   0  0  0  0  0  0  0  0  0  0  0  0
    4.4277  -19.1627   -5.7195 C   0  0  0  0  0  0  0  0  0  0  0  0
    7.2857  -20.8776   -4.1878 O   0  0  0  0  0  0  0  0  0  0  0  0
    7.4237  -21.5835   -3.5873 H   0  0  0  0  0  0  0  0  0  0  0  0
    1.2852  -18.8218   -4.5343 C   0  0  0  0  0  0  0  0  0  0  0  0
    1.9504  -19.5627   -5.4127 C   0  0  0  0  0  0  0  0  0  0  0  0
   -0.1201  -18.4281   -4.6950 C   0  0  0  0  0  0  0  0  0  0  0  0
   -0.7370  -17.9766   -3.6838 O   0  0  0  0  0  0  0  0  0  0  0  0
   -0.6766  -18.4739   -5.8575 O   0  0  0  0  0  0  0  0  0  0  0  0
   -0.2017  -18.8117   -6.5912 H   0  0  0  0  0  0  0  0  0  0  0  0
 11 12  2  0  0  0
 11 13  1  0  0  0
 11  9  1  0  0  0
  9 10  2  0  0  0
 10  1  1  0  0  0
  1  2  2  0  0  0
  1  6  1  0  0  0
  2  3  1  0  0  0
  3  4  2  0  0  0
  4  5  1  0  0  0
  4  7  1  0  0  0
  5  6  2  0  0  0
 13 14  1  0  0  0
  7  8  1  0  0  0
M  END
> <minimizedAffinity>
-6.76296

$$$$
4QEM_HC4_A_202


 14 14  0  0  0  0  0  0  0  0999 V2000
    3.4323  -19.9637   -4.9099 C   0  0  0  0  0  0  0  0  0  0  0  0
    4.4145  -19.2321   -5.6042 C   0  0  0  0  0  0  0  0  0  0  0  0
    5.7824  -19.5475   -5.3767 C   0  0  0  0  0  0  0  0  0  0  0  0
    6.1076  -20.6358   -4.5353 C   0  0  0  0  0  0  0  0  0  0  0  0
    5.1309  -21.3918   -3.8645 C   0  0  0  0  0  0  0  0  0  0  0  0
    3.7826  -21.0091   -4.0347 C   0  0  0  0  0  0  0  0  0  0  0  0
    7.4329  -20.8735   -4.3696 O   0  0  0  0  0  0  0  0  0  0  0  0
    8.0631  -20.3543   -4.8292 H   0  0  0  0  0  0  0  0  0  0  0  0
    1.7742  -18.3630   -5.6076 C   0  0  0  0  0  0  0  0  0  0  0  0
    2.0065  -19.5777   -5.1244 C   0  0  0  0  0  0  0  0  0  0  0  0
    0.4316  -17.8348   -5.8804 C   0  0  0  0  0  0  0  0  0  0  0  0
    0.3307  -16.6561   -6.3357 O   0  0  0  0  0  0  0  0  0  0  0  0
   -0.6039  -18.5884   -5.7287 O   0  0  0  0  0  0  0  0  0  0  0  0
   -0.5059  -19.4567   -5.3903 H   0  0  0  0  0  0  0  0  0  0  0  0
 11 12  2  0  0  0
 11 13  1  0  0  0
 11  9  1  0  0  0
  9 10  2  0  0  0
 10  1  1  0  0  0
  1  2  2  0  0  0
  1  6  1  0  0  0
  2  3  1  0  0  0
  3  4  2  0  0  0
  4  5  1  0  0  0
  4  7  1  0  0  0
  5  6  2  0  0  0
 13 14  1  0  0  0
  7  8  1  0  0  0
M  END
> <minimizedAffinity>
-6.54538

$$$$
4QEM_HC4_A_202


 14 14  0  0  0  0  0  0  0  0999 V2000
    2.7006  -20.3741   -4.1216 C   0  0  0  0  0  0  0  0  0  0  0  0
    2.4368  -19.4326   -5.1346 C   0  0  0  0  0  0  0  0  0  0  0  0
    1.2860  -18.6066   -5.0099 C   0  0  0  0  0  0  0  0  0  0  0  0
    0.4987  -18.6945   -3.8392 C   0  0  0  0  0  0  0  0  0  0  0  0
    0.7749  -19.6093   -2.8084 C   0  0  0  0  0  0  0  0  0  0  0  0
    1.8711  -20.4806   -2.9893 C   0  0  0  0  0  0  0  0  0  0  0  0
   -0.5806  -17.8737   -3.7952 O   0  0  0  0  0  0  0  0  0  0  0  0
   -0.7413  -17.2730   -4.4961 H   0  0  0  0  0  0  0  0  0  0  0  0
    5.0639  -20.6806   -4.4675 C   0  0  0  0  0  0  0  0  0  0  0  0
    3.8837  -21.2661   -4.3021 C   0  0  0  0  0  0  0  0  0  0  0  0
    6.3220  -21.4150   -4.6510 C   0  0  0  0  0  0  0  0  0  0  0  0
    6.2737  -22.5681   -5.1753 O   0  0  0  0  0  0  0  0  0  0  0  0
    7.4463  -20.8580   -4.3527 O   0  0  0  0  0  0  0  0  0  0  0  0
    7.4583  -20.0047   -3.9657 H   0  0  0  0  0  0  0  0  0  0  0  0
 11 12  2  0  0  0
 11 13  1  0  0  0
 11  9  1  0  0  0
  9 10  2  0  0  0
 10  1  1  0  0  0
  1  2  2  0  0  0
  1  6  1  0  0  0
  2  3  1  0  0  0
  3  4  2  0  0  0
  4  5  1  0  0  0
  4  7  1  0  0  0
  5  6  2  0  0  0
 13 14  1  0  0  0
  7  8  1  0  0  0
M  END
> <minimizedAffinity>
-6.13052

$$$$
4QEM_HC4_A_202


 14 14  0  0  0  0  0  0  0  0999 V2000
    3.8828  -20.9693   -4.4782 C   0  0  0  0  0  0  0  0  0  0  0  0
    4.6195  -19.9992   -5.1840 C   0  0  0  0  0  0  0  0  0  0  0  0
    5.8377  -20.3911   -5.8041 C   0  0  0  0  0  0  0  0  0  0  0  0
    6.2226  -21.7508   -5.7681 C   0  0  0  0  0  0  0  0  0  0  0  0
    5.4750  -22.7312   -5.0932 C   0  0  0  0  0  0  0  0  0  0  0  0
    4.3141  -22.3076   -4.4105 C   0  0  0  0  0  0  0  0  0  0  0  0
    7.3957  -22.0448   -6.3829 O   0  0  0  0  0  0  0  0  0  0  0  0
    7.8741  -21.3718   -6.8258 H   0  0  0  0  0  0  0  0  0  0  0  0
    1.9332  -19.5596   -4.3772 C   0  0  0  0  0  0  0  0  0  0  0  0
    2.6360  -20.5213   -3.7906 C   0  0  0  0  0  0  0  0  0  0  0  0
    0.6833  -19.0131   -3.8340 C   0  0  0  0  0  0  0  0  0  0  0  0
   -0.3508  -19.0354   -4.5668 O   0  0  0  0  0  0  0  0  0  0  0  0
    0.6352  -18.5952   -2.6149 O   0  0  0  0  0  0  0  0  0  0  0  0
    1.4122  -18.5875   -2.0913 H   0  0  0  0  0  0  0  0  0  0  0  0
 11 12  2  0  0  0
 11 13  1  0  0  0
 11  9  1  0  0  0
  9 10  2  0  0  0
 10  1  1  0  0  0
  1  2  2  0  0  0
  1  6  1  0  0  0
  2  3  1  0  0  0
  3  4  2  0  0  0
  4  5  1  0  0  0
  4  7  1  0  0  0
  5  6  2  0  0  0
 13 14  1  0  0  0
  7  8  1  0  0  0
M  END
> <minimizedAffinity>
-5.95134

$$$$
4QEM_HC4_A_202


 14 14  0  0  0  0  0  0  0  0999 V2000
    2.6832  -20.2560   -4.4241 C   0  0  0  0  0  0  0  0  0  0  0  0
    1.9191  -20.3106   -3.2429 C   0  0  0  0  0  0  0  0  0  0  0  0
    0.7996  -19.4424   -3.1186 C   0  0  0  0  0  0  0  0  0  0  0  0
    0.4395  -18.6219   -4.2119 C   0  0  0  0  0  0  0  0  0  0  0  0
    1.1786  -18.5863   -5.4069 C   0  0  0  0  0  0  0  0  0  0  0  0
    2.3364  -19.3911   -5.4792 C   0  0  0  0  0  0  0  0  0  0  0  0
   -0.6397  -17.8237   -4.0157 O   0  0  0  0  0  0  0  0  0  0  0  0
   -1.1146  -17.8677   -3.2092 H   0  0  0  0  0  0  0  0  0  0  0  0
    4.9984  -20.5995   -4.9899 C   0  0  0  0  0  0  0  0  0  0  0  0
    3.8845  -21.1380   -4.5081 C   0  0  0  0  0  0  0  0  0  0  0  0
    6.2645  -21.3296   -5.1312 C   0  0  0  0  0  0  0  0  0  0  0  0
    6.2220  -22.5927   -5.2283 O   0  0  0  0  0  0  0  0  0  0  0  0
    7.3767  -20.6842   -5.2296 O   0  0  0  0  0  0  0  0  0  0  0  0
    7.3846  -19.7502   -5.1546 H   0  0  0  0  0  0  0  0  0  0  0  0
 11 12  2  0  0  0
 11 13  1  0  0  0
 11  9  1  0  0  0
  9 10  2  0  0  0
 10  1  1  0  0  0
  1  2  2  0  0  0
  1  6  1  0  0  0
  2  3  1  0  0  0
  3  4  2  0  0  0
  4  5  1  0  0  0
  4  7  1  0  0  0
  5  6  2  0  0  0
 13 14  1  0  0  0
  7  8  1  0  0  0
M  END
> <minimizedAffinity>
-5.77366

$$$$
4QEM_HC4_A_202


 14 14  0  0  0  0  0  0  0  0999 V2000
    5.2346  -20.5559   -4.8789 C   0  0  0  0  0  0  0  0  0  0  0  0
    4.6838  -21.3113   -3.8262 C   0  0  0  0  0  0  0  0  0  0  0  0
    3.2813  -21.2401   -3.6019 C   0  0  0  0  0  0  0  0  0  0  0  0
    2.4788  -20.4892   -4.4908 C   0  0  0  0  0  0  0  0  0  0  0  0
    3.0180  -19.7588   -5.5639 C   0  0  0  0  0  0  0  0  0  0  0  0
    4.4213  -19.7718   -5.7188 C   0  0  0  0  0  0  0  0  0  0  0  0
    1.1516  -20.4715   -4.2104 O   0  0  0  0  0  0  0  0  0  0  0  0
    0.8186  -20.9678   -3.4888 H   0  0  0  0  0  0  0  0  0  0  0  0
    7.2703  -21.8042   -5.1891 C   0  0  0  0  0  0  0  0  0  0  0  0
    6.7154  -20.6049   -5.0599 C   0  0  0  0  0  0  0  0  0  0  0  0
    8.7096  -22.0227   -5.3801 C   0  0  0  0  0  0  0  0  0  0  0  0
    9.2539  -22.9985   -4.7815 O   0  0  0  0  0  0  0  0  0  0  0  0
    9.3743  -21.2799   -6.1984 O   0  0  0  0  0  0  0  0  0  0  0  0
    8.9516  -20.5636   -6.6299 H   0  0  0  0  0  0  0  0  0  0  0  0
 11 12  2  0  0  0
 11 13  1  0  0  0
 11  9  1  0  0  0
  9 10  2  0  0  0
 10  1  1  0  0  0
  1  2  2  0  0  0
  1  6  1  0  0  0
  2  3  1  0  0  0
  3  4  2  0  0  0
  4  5  1  0  0  0
  4  7  1  0  0  0
  5  6  2  0  0  0
 13 14  1  0  0  0
  7  8  1  0  0  0
M  END
> <minimizedAffinity>
-5.75628

$$$$
4QEM_HC4_A_202


 14 14  0  0  0  0  0  0  0  0999 V2000
    3.2926  -18.7724   -5.5188 C   0  0  0  0  0  0  0  0  0  0  0  0
    1.9340  -19.1151   -5.3810 C   0  0  0  0  0  0  0  0  0  0  0  0
    0.9570  -18.0952   -5.5470 C   0  0  0  0  0  0  0  0  0  0  0  0
    1.3721  -16.7994   -5.9297 C   0  0  0  0  0  0  0  0  0  0  0  0
    2.7248  -16.4580   -6.1012 C   0  0  0  0  0  0  0  0  0  0  0  0
    3.6854  -17.4612   -5.8478 C   0  0  0  0  0  0  0  0  0  0  0  0
    0.3813  -15.8832   -6.0688 O   0  0  0  0  0  0  0  0  0  0  0  0
   -0.5124  -16.1378   -5.9488 H   0  0  0  0  0  0  0  0  0  0  0  0
    3.8438  -21.0331   -4.8997 C   0  0  0  0  0  0  0  0  0  0  0  0
    4.3009  -19.8480   -5.2864 C   0  0  0  0  0  0  0  0  0  0  0  0
    4.7030  -22.1943   -4.6362 C   0  0  0  0  0  0  0  0  0  0  0  0
    5.8984  -22.1649   -5.0567 O   0  0  0  0  0  0  0  0  0  0  0  0
    4.2628  -23.1781   -3.9280 O   0  0  0  0  0  0  0  0  0  0  0  0
    3.3752  -23.1790   -3.6277 H   0  0  0  0  0  0  0  0  0  0  0  0
 11 12  2  0  0  0
 11 13  1  0  0  0
 11  9  1  0  0  0
  9 10  2  0  0  0
 10  1  1  0  0  0
  1  2  2  0  0  0
  1  6  1  0  0  0
  2  3  1  0  0  0
  3  4  2  0  0  0
  4  5  1  0  0  0
  4  7  1  0  0  0
  5  6  2  0  0  0
 13 14  1  0  0  0
  7  8  1  0  0  0
M  END
> <minimizedAffinity>
-5.68872

$$$$
4QEM_HC4_A_202


 14 14  0  0  0  0  0  0  0  0999 V2000
    3.5720  -19.8324   -4.9829 C   0  0  0  0  0  0  0  0  0  0  0  0
    3.5482  -18.5438   -5.5496 C   0  0  0  0  0  0  0  0  0  0  0  0
    2.3487  -17.7853   -5.4596 C   0  0  0  0  0  0  0  0  0  0  0  0
    1.2555  -18.3090   -4.7325 C   0  0  0  0  0  0  0  0  0  0  0  0
    1.2835  -19.5814   -4.1359 C   0  0  0  0  0  0  0  0  0  0  0  0
    2.4517  -20.3550   -4.3095 C   0  0  0  0  0  0  0  0  0  0  0  0
    0.1487  -17.5256   -4.6919 O   0  0  0  0  0  0  0  0  0  0  0  0
    0.1573  -16.6812   -5.0980 H   0  0  0  0  0  0  0  0  0  0  0  0
    5.8229  -20.0646   -5.8062 C   0  0  0  0  0  0  0  0  0  0  0  0
    4.8243  -20.6295   -5.1379 C   0  0  0  0  0  0  0  0  0  0  0  0
    7.1197  -20.7123   -6.0401 C   0  0  0  0  0  0  0  0  0  0  0  0
    7.5613  -20.7616   -7.2273 O   0  0  0  0  0  0  0  0  0  0  0  0
    7.8154  -21.1466   -5.0448 O   0  0  0  0  0  0  0  0  0  0  0  0
    7.4691  -21.1003   -4.1754 H   0  0  0  0  0  0  0  0  0  0  0  0
 11 12  2  0  0  0
 11 13  1  0  0  0
 11  9  1  0  0  0
  9 10  2  0  0  0
 10  1  1  0  0  0
  1  2  2  0  0  0
  1  6  1  0  0  0
  2  3  1  0  0  0
  3  4  2  0  0  0
  4  5  1  0  0  0
  4  7  1  0  0  0
  5  6  2  0  0  0
 13 14  1  0  0  0
  7  8  1  0  0  0
M  END
> <minimizedAffinity>
-5.65276

$$$$
4QEM_HC4_A_202


 14 14  0  0  0  0  0  0  0  0999 V2000
    4.9174  -20.3822   -4.8839 C   0  0  0  0  0  0  0  0  0  0  0  0
    4.0911  -19.5556   -5.6689 C   0  0  0  0  0  0  0  0  0  0  0  0
    2.6945  -19.5424   -5.4014 C   0  0  0  0  0  0  0  0  0  0  0  0
    2.1957  -20.2854   -4.3072 C   0  0  0  0  0  0  0  0  0  0  0  0
    3.0197  -21.0873   -3.4986 C   0  0  0  0  0  0  0  0  0  0  0  0
    4.3897  -21.1557   -3.8328 C   0  0  0  0  0  0  0  0  0  0  0  0
    0.8541  -20.2207   -4.1170 O   0  0  0  0  0  0  0  0  0  0  0  0
    0.3280  -19.6779   -4.6708 H   0  0  0  0  0  0  0  0  0  0  0  0
    6.7124  -20.9855   -6.3713 C   0  0  0  0  0  0  0  0  0  0  0  0
    6.3713  -20.4199   -5.2195 C   0  0  0  0  0  0  0  0  0  0  0  0
    8.0963  -21.0966   -6.8491 C   0  0  0  0  0  0  0  0  0  0  0  0
    8.3178  -20.9488   -8.0885 O   0  0  0  0  0  0  0  0  0  0  0  0
    9.0601  -21.2638   -6.0087 O   0  0  0  0  0  0  0  0  0  0  0  0
    8.8732  -21.3711   -5.0968 H   0  0  0  0  0  0  0  0  0  0  0  0
 11 12  2  0  0  0
 11 13  1  0  0  0
 11  9  1  0  0  0
  9 10  2  0  0  0
 10  1  1  0  0  0
  1  2  2  0  0  0
  1  6  1  0  0  0
  2  3  1  0  0  0
  3  4  2  0  0  0
  4  5  1  0  0  0
  4  7  1  0  0  0
  5  6  2  0  0  0
 13 14  1  0  0  0
  7  8  1  0  0  0
M  END
> <minimizedAffinity>
-5.59992

$$$$
