1HBV_GAN_A_600


 47 48  0  0  0  0  0  0  0  0999 V2000
   -7.6450   17.2032   23.4235 C   0  0  0  0  0  0  0  0  0  0  0  0
   -6.9431   18.1937   24.1080 C   0  0  0  0  0  0  0  0  0  0  0  0
   -6.7868   18.1946   25.6492 C   0  0  0  0  0  0  0  0  0  0  0  0
   -8.0678   18.5799   26.3872 C   0  0  0  0  0  0  0  0  0  0  0  0
   -8.2238   15.9916   24.1279 C   0  0  0  0  0  0  0  0  0  0  0  0
   -8.6517   16.1918   25.6152 C   0  0  0  0  0  0  0  0  0  0  0  0
   -9.0912   17.5714   25.9922 N   0  0  0  0  0  0  0  0  0  0  0  0
   -7.7407   17.2824   21.9037 C   0  0  0  0  0  0  0  0  0  0  0  0
   -8.7431   16.3052   21.3047 C   0  0  0  0  0  0  0  0  0  0  0  0
   -5.8900   17.4728   20.3314 C   0  0  0  0  0  0  0  0  0  0  0  0
   -6.4789   18.3272   19.6688 O   0  0  0  0  0  0  0  0  0  0  0  0
   -6.4180   16.9232   21.4149 N   0  0  0  0  0  0  0  0  0  0  0  0
   -5.8971   16.2480   21.9069 H   0  0  0  0  0  0  0  0  0  0  0  0
   -3.8531   16.2976   21.0097 N   0  0  0  0  0  0  0  0  0  0  0  0
   -4.4966   17.0432   19.8790 C   0  0  0  0  0  0  0  0  0  0  0  0
   -4.6146   16.1291   18.6478 C   0  0  0  0  0  0  0  0  0  0  0  0
   -2.9183   15.9990   20.7316 H   0  0  0  0  0  0  0  0  0  0  0  0
   -4.4164   15.4795   21.2416 H   0  0  0  0  0  0  0  0  0  0  0  0
  -10.4676   17.7112   26.5252 C   0  0  0  0  0  0  0  0  0  0  0  0
  -11.3439   16.9649   25.4953 C   0  0  0  0  0  0  0  0  0  0  0  0
  -10.8447   17.3172   27.9868 C   0  0  0  0  0  0  0  0  0  0  0  0
  -10.5391   18.0729   28.9166 O   0  0  0  0  0  0  0  0  0  0  0  0
  -11.5120   16.1650   28.1978 N   0  0  0  0  0  0  0  0  0  0  0  0
  -11.7226   15.6160   27.4082 H   0  0  0  0  0  0  0  0  0  0  0  0
  -11.9494   15.6614   29.4972 C   0  0  0  0  0  0  0  0  0  0  0  0
  -10.7636   15.3298   30.4064 C   0  0  0  0  0  0  0  0  0  0  0  0
   -9.9367   14.4596   30.0853 O   0  0  0  0  0  0  0  0  0  0  0  0
  -10.6980   15.9923   31.5459 N   0  0  0  0  0  0  0  0  0  0  0  0
  -11.3877   16.6730   31.7197 H   0  0  0  0  0  0  0  0  0  0  0  0
   -9.6740   15.7869   32.5679 C   0  0  0  0  0  0  0  0  0  0  0  0
   -8.4220   16.7256   32.5867 C   0  0  0  0  0  0  0  0  0  0  0  0
   -8.0177   17.3627   31.2838 C   0  0  0  0  0  0  0  0  0  0  0  0
   -7.2846   15.7826   32.9010 C   0  0  0  0  0  0  0  0  0  0  0  0
  -10.5029   16.1580   33.8203 C   0  0  0  0  0  0  0  0  0  0  0  0
  -10.1487   17.1273   34.5185 O   0  0  0  0  0  0  0  0  0  0  0  0
  -11.7989   15.7925   33.9290 O   0  0  0  0  0  0  0  0  0  0  0  0
  -12.0797   14.4376   34.4055 C   0  0  0  0  0  0  0  0  0  0  0  0
  -12.8955   14.3820   29.2980 C   0  0  0  0  0  0  0  0  0  0  0  0
  -13.4953   14.4708   27.9337 C   0  0  0  0  0  0  0  0  0  0  0  0
  -14.0228   14.2652   30.2960 C   0  0  0  0  0  0  0  0  0  0  0  0
   -5.6361   19.1211   26.0426 C   0  0  0  0  0  0  0  0  0  0  0  0
   -4.4024   18.4501   25.4633 C   0  0  0  0  0  0  0  0  0  0  0  0
   -3.5701   19.1790   24.6089 C   0  0  0  0  0  0  0  0  0  0  0  0
   -2.4930   18.5516   23.9822 C   0  0  0  0  0  0  0  0  0  0  0  0
   -2.2569   17.2016   24.2058 C   0  0  0  0  0  0  0  0  0  0  0  0
   -3.0866   16.4805   25.0620 C   0  0  0  0  0  0  0  0  0  0  0  0
   -4.1588   17.0908   25.6990 C   0  0  0  0  0  0  0  0  0  0  0  0
 14 15  1  0  0  0
 15 16  1  0  0  0
 15 10  1  0  0  0
 10 11  2  0  0  0
 10 12  1  0  0  0
 12  8  1  0  0  0
  8  9  1  0  0  0
  8  1  1  0  0  0
  1  2  2  0  0  0
  1  5  1  0  0  0
  2  3  1  0  0  0
  3 41  1  0  0  0
  3  4  1  0  0  0
 41 42  1  0  0  0
 42 43  2  0  0  0
 42 47  1  0  0  0
 43 44  1  0  0  0
 44 45  2  0  0  0
 45 46  1  0  0  0
 46 47  2  0  0  0
  4  7  1  0  0  0
  5  6  1  0  0  0
  6  7  1  0  0  0
  7 19  1  0  0  0
 19 20  1  0  0  0
 19 21  1  0  0  0
 21 22  2  0  0  0
 21 23  1  0  0  0
 23 25  1  0  0  0
 25 38  1  0  0  0
 25 26  1  0  0  0
 38 39  1  0  0  0
 38 40  1  0  0  0
 26 27  2  0  0  0
 26 28  1  0  0  0
 28 30  1  0  0  0
 30 31  1  0  0  0
 30 34  1  0  0  0
 31 32  1  0  0  0
 31 33  1  0  0  0
 34 35  2  0  0  0
 34 36  1  0  0  0
 36 37  1  0  0  0
 14 17  1  0  0  0
 14 18  1  0  0  0
 12 13  1  0  0  0
 23 24  1  0  0  0
 28 29  1  0  0  0
M  END
> <minimizedAffinity>
-9.62156

$$$$
1HBV_GAN_A_600


 47 48  0  0  0  0  0  0  0  0999 V2000
   -9.5433   16.1191   30.2281 C   0  0  0  0  0  0  0  0  0  0  0  0
  -10.8311   16.3063   29.7291 C   0  0  0  0  0  0  0  0  0  0  0  0
  -11.2315   15.9225   28.2826 C   0  0  0  0  0  0  0  0  0  0  0  0
  -10.6744   16.8762   27.2272 C   0  0  0  0  0  0  0  0  0  0  0  0
   -8.4590   15.4286   29.4237 C   0  0  0  0  0  0  0  0  0  0  0  0
   -8.5486   15.5704   27.8723 C   0  0  0  0  0  0  0  0  0  0  0  0
   -9.1915   16.8219   27.3631 N   0  0  0  0  0  0  0  0  0  0  0  0
   -9.2435   16.5220   31.6678 C   0  0  0  0  0  0  0  0  0  0  0  0
   -7.7939   16.2950   32.0748 C   0  0  0  0  0  0  0  0  0  0  0  0
  -10.4472   15.9956   33.7191 C   0  0  0  0  0  0  0  0  0  0  0  0
  -10.1114   17.0572   34.2444 O   0  0  0  0  0  0  0  0  0  0  0  0
  -10.0799   15.6615   32.4909 N   0  0  0  0  0  0  0  0  0  0  0  0
  -10.3834   14.8006   32.1221 H   0  0  0  0  0  0  0  0  0  0  0  0
  -12.0820   15.8465   35.5343 N   0  0  0  0  0  0  0  0  0  0  0  0
  -11.3248   15.0392   34.5227 C   0  0  0  0  0  0  0  0  0  0  0  0
  -12.3076   14.3265   33.5785 C   0  0  0  0  0  0  0  0  0  0  0  0
  -12.6775   15.2286   36.0857 H   0  0  0  0  0  0  0  0  0  0  0  0
  -12.6599   16.5368   35.0548 H   0  0  0  0  0  0  0  0  0  0  0  0
   -8.3665   17.6867   26.4859 C   0  0  0  0  0  0  0  0  0  0  0  0
   -7.2259   18.1723   27.4071 C   0  0  0  0  0  0  0  0  0  0  0  0
   -7.8195   17.2037   25.1071 C   0  0  0  0  0  0  0  0  0  0  0  0
   -6.6838   16.7191   25.0413 O   0  0  0  0  0  0  0  0  0  0  0  0
   -8.6095   17.3125   24.0202 N   0  0  0  0  0  0  0  0  0  0  0  0
   -9.5022   17.7068   24.1505 H   0  0  0  0  0  0  0  0  0  0  0  0
   -8.2548   16.8958   22.6659 C   0  0  0  0  0  0  0  0  0  0  0  0
   -7.1780   17.7976   22.0577 C   0  0  0  0  0  0  0  0  0  0  0  0
   -7.4581   18.9341   21.6404 O   0  0  0  0  0  0  0  0  0  0  0  0
   -5.9643   17.2856   21.9772 N   0  0  0  0  0  0  0  0  0  0  0  0
   -5.8242   16.3814   22.3405 H   0  0  0  0  0  0  0  0  0  0  0  0
   -4.8138   17.9659   21.3868 C   0  0  0  0  0  0  0  0  0  0  0  0
   -3.3974   17.7447   22.0145 C   0  0  0  0  0  0  0  0  0  0  0  0
   -3.1471   18.3335   23.3773 C   0  0  0  0  0  0  0  0  0  0  0  0
   -2.4858   18.5321   21.1030 C   0  0  0  0  0  0  0  0  0  0  0  0
   -4.7874   17.2521   20.0145 C   0  0  0  0  0  0  0  0  0  0  0  0
   -4.6744   16.0118   19.9766 O   0  0  0  0  0  0  0  0  0  0  0  0
   -5.3271   17.8309   18.9198 O   0  0  0  0  0  0  0  0  0  0  0  0
   -4.4064   18.3986   17.9340 C   0  0  0  0  0  0  0  0  0  0  0  0
   -9.5654   16.8633   21.7424 C   0  0  0  0  0  0  0  0  0  0  0  0
  -10.6009   16.0573   22.4546 C   0  0  0  0  0  0  0  0  0  0  0  0
   -9.3624   16.2569   20.3743 C   0  0  0  0  0  0  0  0  0  0  0  0
  -12.7546   15.8354   28.1833 C   0  0  0  0  0  0  0  0  0  0  0  0
  -13.0924   14.4903   28.8033 C   0  0  0  0  0  0  0  0  0  0  0  0
  -13.9830   14.4424   29.8797 C   0  0  0  0  0  0  0  0  0  0  0  0
  -14.2243   13.2327   30.5315 C   0  0  0  0  0  0  0  0  0  0  0  0
  -13.5720   12.0813   30.1110 C   0  0  0  0  0  0  0  0  0  0  0  0
  -12.6888   12.1333   29.0345 C   0  0  0  0  0  0  0  0  0  0  0  0
  -12.4422   13.3274   28.3703 C   0  0  0  0  0  0  0  0  0  0  0  0
 14 15  1  0  0  0
 15 16  1  0  0  0
 15 10  1  0  0  0
 10 11  2  0  0  0
 10 12  1  0  0  0
 12  8  1  0  0  0
  8  9  1  0  0  0
  8  1  1  0  0  0
  1  2  2  0  0  0
  1  5  1  0  0  0
  2  3  1  0  0  0
  3 41  1  0  0  0
  3  4  1  0  0  0
 41 42  1  0  0  0
 42 43  2  0  0  0
 42 47  1  0  0  0
 43 44  1  0  0  0
 44 45  2  0  0  0
 45 46  1  0  0  0
 46 47  2  0  0  0
  4  7  1  0  0  0
  5  6  1  0  0  0
  6  7  1  0  0  0
  7 19  1  0  0  0
 19 20  1  0  0  0
 19 21  1  0  0  0
 21 22  2  0  0  0
 21 23  1  0  0  0
 23 25  1  0  0  0
 25 38  1  0  0  0
 25 26  1  0  0  0
 38 39  1  0  0  0
 38 40  1  0  0  0
 26 27  2  0  0  0
 26 28  1  0  0  0
 28 30  1  0  0  0
 30 31  1  0  0  0
 30 34  1  0  0  0
 31 32  1  0  0  0
 31 33  1  0  0  0
 34 35  2  0  0  0
 34 36  1  0  0  0
 36 37  1  0  0  0
 14 17  1  0  0  0
 14 18  1  0  0  0
 12 13  1  0  0  0
 23 24  1  0  0  0
 28 29  1  0  0  0
M  END
> <minimizedAffinity>
-9.46004

$$$$
1HBV_GAN_A_600


 47 48  0  0  0  0  0  0  0  0999 V2000
  -10.4545   15.4400   31.6420 C   0  0  0  0  0  0  0  0  0  0  0  0
  -11.6637   15.4306   30.9491 C   0  0  0  0  0  0  0  0  0  0  0  0
  -11.7794   14.9684   29.4751 C   0  0  0  0  0  0  0  0  0  0  0  0
  -11.2061   15.9745   28.4786 C   0  0  0  0  0  0  0  0  0  0  0  0
   -9.1735   14.9000   31.0363 C   0  0  0  0  0  0  0  0  0  0  0  0
   -9.0428   15.0009   29.4846 C   0  0  0  0  0  0  0  0  0  0  0  0
   -9.7689   16.1375   28.8367 N   0  0  0  0  0  0  0  0  0  0  0  0
  -10.4389   15.9065   33.0937 C   0  0  0  0  0  0  0  0  0  0  0  0
   -9.0411   16.1868   33.6285 C   0  0  0  0  0  0  0  0  0  0  0  0
  -11.7302   14.9942   34.9467 C   0  0  0  0  0  0  0  0  0  0  0  0
  -11.9910   16.1169   35.3795 O   0  0  0  0  0  0  0  0  0  0  0  0
  -10.9985   14.8027   33.8592 N   0  0  0  0  0  0  0  0  0  0  0  0
  -10.8271   13.8811   33.5582 H   0  0  0  0  0  0  0  0  0  0  0  0
  -13.2378   14.2858   36.7398 N   0  0  0  0  0  0  0  0  0  0  0  0
  -12.2821   13.7854   35.6984 C   0  0  0  0  0  0  0  0  0  0  0  0
  -13.0163   12.8591   34.7144 C   0  0  0  0  0  0  0  0  0  0  0  0
  -13.6214   13.4950   37.2573 H   0  0  0  0  0  0  0  0  0  0  0  0
  -13.9964   14.7964   36.2878 H   0  0  0  0  0  0  0  0  0  0  0  0
   -8.9485   17.0974   28.0599 C   0  0  0  0  0  0  0  0  0  0  0  0
   -8.0592   17.7754   29.1252 C   0  0  0  0  0  0  0  0  0  0  0  0
   -8.1173   16.6709   26.8106 C   0  0  0  0  0  0  0  0  0  0  0  0
   -6.9552   16.2762   26.9613 O   0  0  0  0  0  0  0  0  0  0  0  0
   -8.6960   16.7283   25.5944 N   0  0  0  0  0  0  0  0  0  0  0  0
   -9.6252   17.0511   25.5530 H   0  0  0  0  0  0  0  0  0  0  0  0
   -8.0628   16.3527   24.3328 C   0  0  0  0  0  0  0  0  0  0  0  0
   -7.0819   17.4232   23.8488 C   0  0  0  0  0  0  0  0  0  0  0  0
   -7.4021   18.2256   22.9556 O   0  0  0  0  0  0  0  0  0  0  0  0
   -5.8865   17.4161   24.4080 N   0  0  0  0  0  0  0  0  0  0  0  0
   -5.7167   16.7534   25.1160 H   0  0  0  0  0  0  0  0  0  0  0  0
   -4.7973   18.3222   24.0507 C   0  0  0  0  0  0  0  0  0  0  0  0
   -4.2294   19.2923   25.1396 C   0  0  0  0  0  0  0  0  0  0  0  0
   -4.6838   19.0781   26.5589 C   0  0  0  0  0  0  0  0  0  0  0  0
   -4.8267   20.6273   24.7620 C   0  0  0  0  0  0  0  0  0  0  0  0
   -3.6868   17.2767   23.7914 C   0  0  0  0  0  0  0  0  0  0  0  0
   -3.0398   17.3282   22.7278 O   0  0  0  0  0  0  0  0  0  0  0  0
   -3.0917   16.6268   24.8153 O   0  0  0  0  0  0  0  0  0  0  0  0
   -1.9923   15.7178   24.4888 C   0  0  0  0  0  0  0  0  0  0  0  0
   -9.1836   16.0577   23.2245 C   0  0  0  0  0  0  0  0  0  0  0  0
  -10.5170   16.1919   23.8825 C   0  0  0  0  0  0  0  0  0  0  0  0
   -9.1096   14.6861   22.5970 C   0  0  0  0  0  0  0  0  0  0  0  0
  -13.2417   14.6604   29.1525 C   0  0  0  0  0  0  0  0  0  0  0  0
  -13.4864   13.3036   29.7904 C   0  0  0  0  0  0  0  0  0  0  0  0
  -14.5127   13.1695   30.7301 C   0  0  0  0  0  0  0  0  0  0  0  0
  -14.6855   11.9611   31.4058 C   0  0  0  0  0  0  0  0  0  0  0  0
  -13.8312   10.8978   31.1457 C   0  0  0  0  0  0  0  0  0  0  0  0
  -12.8128   11.0351   30.2047 C   0  0  0  0  0  0  0  0  0  0  0  0
  -12.6308   12.2282   29.5183 C   0  0  0  0  0  0  0  0  0  0  0  0
 14 15  1  0  0  0
 15 16  1  0  0  0
 15 10  1  0  0  0
 10 11  2  0  0  0
 10 12  1  0  0  0
 12  8  1  0  0  0
  8  9  1  0  0  0
  8  1  1  0  0  0
  1  2  2  0  0  0
  1  5  1  0  0  0
  2  3  1  0  0  0
  3 41  1  0  0  0
  3  4  1  0  0  0
 41 42  1  0  0  0
 42 43  2  0  0  0
 42 47  1  0  0  0
 43 44  1  0  0  0
 44 45  2  0  0  0
 45 46  1  0  0  0
 46 47  2  0  0  0
  4  7  1  0  0  0
  5  6  1  0  0  0
  6  7  1  0  0  0
  7 19  1  0  0  0
 19 20  1  0  0  0
 19 21  1  0  0  0
 21 22  2  0  0  0
 21 23  1  0  0  0
 23 25  1  0  0  0
 25 38  1  0  0  0
 25 26  1  0  0  0
 38 39  1  0  0  0
 38 40  1  0  0  0
 26 27  2  0  0  0
 26 28  1  0  0  0
 28 30  1  0  0  0
 30 31  1  0  0  0
 30 34  1  0  0  0
 31 32  1  0  0  0
 31 33  1  0  0  0
 34 35  2  0  0  0
 34 36  1  0  0  0
 36 37  1  0  0  0
 14 17  1  0  0  0
 14 18  1  0  0  0
 12 13  1  0  0  0
 23 24  1  0  0  0
 28 29  1  0  0  0
M  END
> <minimizedAffinity>
-9.45604

$$$$
1HBV_GAN_A_600


 47 48  0  0  0  0  0  0  0  0999 V2000
   -9.4630   16.0203   29.6661 C   0  0  0  0  0  0  0  0  0  0  0  0
  -10.7606   16.0765   29.1606 C   0  0  0  0  0  0  0  0  0  0  0  0
  -11.2556   15.1495   28.0225 C   0  0  0  0  0  0  0  0  0  0  0  0
  -10.6958   15.5230   26.6510 C   0  0  0  0  0  0  0  0  0  0  0  0
   -8.4642   14.9746   29.2098 C   0  0  0  0  0  0  0  0  0  0  0  0
   -8.6229   14.4544   27.7472 C   0  0  0  0  0  0  0  0  0  0  0  0
   -9.2139   15.4187   26.7675 N   0  0  0  0  0  0  0  0  0  0  0  0
   -9.0674   16.9694   30.7921 C   0  0  0  0  0  0  0  0  0  0  0  0
   -7.6493   16.7520   31.3022 C   0  0  0  0  0  0  0  0  0  0  0  0
   -9.8297   15.6296   32.6782 C   0  0  0  0  0  0  0  0  0  0  0  0
   -8.8963   14.8367   32.5529 O   0  0  0  0  0  0  0  0  0  0  0  0
   -9.9855   16.6773   31.8827 N   0  0  0  0  0  0  0  0  0  0  0  0
  -10.7493   17.2796   32.0346 H   0  0  0  0  0  0  0  0  0  0  0  0
  -11.0062   16.6732   34.5535 N   0  0  0  0  0  0  0  0  0  0  0  0
  -10.8358   15.3876   33.8007 C   0  0  0  0  0  0  0  0  0  0  0  0
  -12.1819   14.9497   33.1993 C   0  0  0  0  0  0  0  0  0  0  0  0
  -11.6756   16.5374   35.3111 H   0  0  0  0  0  0  0  0  0  0  0  0
  -11.3510   17.3948   33.9204 H   0  0  0  0  0  0  0  0  0  0  0  0
   -8.3834   15.7669   25.5898 C   0  0  0  0  0  0  0  0  0  0  0  0
   -9.2921   15.4429   24.3837 C   0  0  0  0  0  0  0  0  0  0  0  0
   -7.6977   17.1590   25.4295 C   0  0  0  0  0  0  0  0  0  0  0  0
   -8.3469   18.1852   25.6627 O   0  0  0  0  0  0  0  0  0  0  0  0
   -6.4036   17.2067   25.0550 N   0  0  0  0  0  0  0  0  0  0  0  0
   -5.9513   16.3482   24.8887 H   0  0  0  0  0  0  0  0  0  0  0  0
   -5.6148   18.4228   24.8746 C   0  0  0  0  0  0  0  0  0  0  0  0
   -5.4451   18.7757   23.3950 C   0  0  0  0  0  0  0  0  0  0  0  0
   -5.0842   19.9127   23.0471 O   0  0  0  0  0  0  0  0  0  0  0  0
   -5.7341   17.8217   22.5300 N   0  0  0  0  0  0  0  0  0  0  0  0
   -6.0032   16.9452   22.8886 H   0  0  0  0  0  0  0  0  0  0  0  0
   -5.6828   17.9744   21.0777 C   0  0  0  0  0  0  0  0  0  0  0  0
   -4.9099   16.9100   20.2298 C   0  0  0  0  0  0  0  0  0  0  0  0
   -3.5185   16.5493   20.6777 C   0  0  0  0  0  0  0  0  0  0  0  0
   -4.6989   17.6061   18.9059 C   0  0  0  0  0  0  0  0  0  0  0  0
   -7.1821   17.7657   20.7585 C   0  0  0  0  0  0  0  0  0  0  0  0
   -7.7903   18.6326   20.1019 O   0  0  0  0  0  0  0  0  0  0  0  0
   -7.7253   16.5288   20.7517 O   0  0  0  0  0  0  0  0  0  0  0  0
   -9.1856   16.4339   20.7349 C   0  0  0  0  0  0  0  0  0  0  0  0
   -4.1904   18.2630   25.5937 C   0  0  0  0  0  0  0  0  0  0  0  0
   -3.6805   16.8934   25.2881 C   0  0  0  0  0  0  0  0  0  0  0  0
   -4.2158   18.4266   27.0947 C   0  0  0  0  0  0  0  0  0  0  0  0
  -12.7843   15.1446   27.9999 C   0  0  0  0  0  0  0  0  0  0  0  0
  -13.1668   13.9825   28.9005 C   0  0  0  0  0  0  0  0  0  0  0  0
  -14.0897   14.1946   29.9288 C   0  0  0  0  0  0  0  0  0  0  0  0
  -14.3740   13.1703   30.8325 C   0  0  0  0  0  0  0  0  0  0  0  0
  -13.7324   11.9450   30.7094 C   0  0  0  0  0  0  0  0  0  0  0  0
  -12.8167   11.7372   29.6798 C   0  0  0  0  0  0  0  0  0  0  0  0
  -12.5271   12.7433   28.7679 C   0  0  0  0  0  0  0  0  0  0  0  0
 14 15  1  0  0  0
 15 16  1  0  0  0
 15 10  1  0  0  0
 10 11  2  0  0  0
 10 12  1  0  0  0
 12  8  1  0  0  0
  8  9  1  0  0  0
  8  1  1  0  0  0
  1  2  2  0  0  0
  1  5  1  0  0  0
  2  3  1  0  0  0
  3 41  1  0  0  0
  3  4  1  0  0  0
 41 42  1  0  0  0
 42 43  2  0  0  0
 42 47  1  0  0  0
 43 44  1  0  0  0
 44 45  2  0  0  0
 45 46  1  0  0  0
 46 47  2  0  0  0
  4  7  1  0  0  0
  5  6  1  0  0  0
  6  7  1  0  0  0
  7 19  1  0  0  0
 19 20  1  0  0  0
 19 21  1  0  0  0
 21 22  2  0  0  0
 21 23  1  0  0  0
 23 25  1  0  0  0
 25 38  1  0  0  0
 25 26  1  0  0  0
 38 39  1  0  0  0
 38 40  1  0  0  0
 26 27  2  0  0  0
 26 28  1  0  0  0
 28 30  1  0  0  0
 30 31  1  0  0  0
 30 34  1  0  0  0
 31 32  1  0  0  0
 31 33  1  0  0  0
 34 35  2  0  0  0
 34 36  1  0  0  0
 36 37  1  0  0  0
 14 17  1  0  0  0
 14 18  1  0  0  0
 12 13  1  0  0  0
 23 24  1  0  0  0
 28 29  1  0  0  0
M  END
> <minimizedAffinity>
-9.26481

$$$$
1HBV_GAN_A_600


 47 48  0  0  0  0  0  0  0  0999 V2000
   -9.1065   16.4630   24.8201 C   0  0  0  0  0  0  0  0  0  0  0  0
   -8.6932   17.6771   25.3654 C   0  0  0  0  0  0  0  0  0  0  0  0
   -8.3566   17.8477   26.8679 C   0  0  0  0  0  0  0  0  0  0  0  0
   -9.5912   17.8538   27.7678 C   0  0  0  0  0  0  0  0  0  0  0  0
   -9.1597   15.1876   25.6386 C   0  0  0  0  0  0  0  0  0  0  0  0
   -9.4423   15.3530   27.1643 C   0  0  0  0  0  0  0  0  0  0  0  0
  -10.2636   16.5411   27.5553 N   0  0  0  0  0  0  0  0  0  0  0  0
   -9.4103   16.3891   23.3277 C   0  0  0  0  0  0  0  0  0  0  0  0
   -9.9288   15.0299   22.8780 C   0  0  0  0  0  0  0  0  0  0  0  0
   -8.0359   17.3678   21.5708 C   0  0  0  0  0  0  0  0  0  0  0  0
   -9.0086   17.9122   21.0480 O   0  0  0  0  0  0  0  0  0  0  0  0
   -8.1375   16.6253   22.6631 N   0  0  0  0  0  0  0  0  0  0  0  0
   -7.3232   16.2189   23.0386 H   0  0  0  0  0  0  0  0  0  0  0  0
   -6.8171   18.5647   19.8181 N   0  0  0  0  0  0  0  0  0  0  0  0
   -6.6654   17.5688   20.9287 C   0  0  0  0  0  0  0  0  0  0  0  0
   -5.6780   18.1022   21.9803 C   0  0  0  0  0  0  0  0  0  0  0  0
   -5.9126   18.7167   19.3718 H   0  0  0  0  0  0  0  0  0  0  0  0
   -7.1617   19.4467   20.1971 H   0  0  0  0  0  0  0  0  0  0  0  0
  -11.5315   16.2688   28.2738 C   0  0  0  0  0  0  0  0  0  0  0  0
  -12.5104   15.8472   27.1561 C   0  0  0  0  0  0  0  0  0  0  0  0
  -11.6115   15.3031   29.4964 C   0  0  0  0  0  0  0  0  0  0  0  0
  -11.7537   14.0901   29.3027 O   0  0  0  0  0  0  0  0  0  0  0  0
  -11.5066   15.8168   30.7383 N   0  0  0  0  0  0  0  0  0  0  0  0
  -11.3931   16.7918   30.8139 H   0  0  0  0  0  0  0  0  0  0  0  0
  -11.5467   15.0509   31.9815 C   0  0  0  0  0  0  0  0  0  0  0  0
  -12.8932   14.3488   32.1729 C   0  0  0  0  0  0  0  0  0  0  0  0
  -13.9492   15.0005   32.2400 O   0  0  0  0  0  0  0  0  0  0  0  0
  -12.8553   13.0352   32.2931 N   0  0  0  0  0  0  0  0  0  0  0  0
  -11.9783   12.5941   32.2179 H   0  0  0  0  0  0  0  0  0  0  0  0
  -14.0229   12.1890   32.5297 C   0  0  0  0  0  0  0  0  0  0  0  0
  -14.0388   10.7374   31.9449 C   0  0  0  0  0  0  0  0  0  0  0  0
  -12.9178   10.3559   31.0151 C   0  0  0  0  0  0  0  0  0  0  0  0
  -15.2644   10.7313   31.0619 C   0  0  0  0  0  0  0  0  0  0  0  0
  -13.8998   12.0286   34.0634 C   0  0  0  0  0  0  0  0  0  0  0  0
  -14.9123   12.1799   34.7737 O   0  0  0  0  0  0  0  0  0  0  0  0
  -12.8976   11.3049   34.6081 O   0  0  0  0  0  0  0  0  0  0  0  0
  -12.2748   11.8251   35.8260 C   0  0  0  0  0  0  0  0  0  0  0  0
  -11.2165   16.0082   33.2249 C   0  0  0  0  0  0  0  0  0  0  0  0
   -9.7479   16.2770   33.2114 C   0  0  0  0  0  0  0  0  0  0  0  0
  -11.5734   15.4377   34.5769 C   0  0  0  0  0  0  0  0  0  0  0  0
   -7.5382   19.1242   27.0634 C   0  0  0  0  0  0  0  0  0  0  0  0
   -6.1755   18.7859   26.4833 C   0  0  0  0  0  0  0  0  0  0  0  0
   -5.5105   17.6415   26.9330 C   0  0  0  0  0  0  0  0  0  0  0  0
   -4.2144   17.3704   26.4932 C   0  0  0  0  0  0  0  0  0  0  0  0
   -3.5881   18.2442   25.6143 C   0  0  0  0  0  0  0  0  0  0  0  0
   -4.2571   19.3811   25.1654 C   0  0  0  0  0  0  0  0  0  0  0  0
   -5.5495   19.6625   25.5877 C   0  0  0  0  0  0  0  0  0  0  0  0
 14 15  1  0  0  0
 15 16  1  0  0  0
 15 10  1  0  0  0
 10 11  2  0  0  0
 10 12  1  0  0  0
 12  8  1  0  0  0
  8  9  1  0  0  0
  8  1  1  0  0  0
  1  2  2  0  0  0
  1  5  1  0  0  0
  2  3  1  0  0  0
  3 41  1  0  0  0
  3  4  1  0  0  0
 41 42  1  0  0  0
 42 43  2  0  0  0
 42 47  1  0  0  0
 43 44  1  0  0  0
 44 45  2  0  0  0
 45 46  1  0  0  0
 46 47  2  0  0  0
  4  7  1  0  0  0
  5  6  1  0  0  0
  6  7  1  0  0  0
  7 19  1  0  0  0
 19 20  1  0  0  0
 19 21  1  0  0  0
 21 22  2  0  0  0
 21 23  1  0  0  0
 23 25  1  0  0  0
 25 38  1  0  0  0
 25 26  1  0  0  0
 38 39  1  0  0  0
 38 40  1  0  0  0
 26 27  2  0  0  0
 26 28  1  0  0  0
 28 30  1  0  0  0
 30 31  1  0  0  0
 30 34  1  0  0  0
 31 32  1  0  0  0
 31 33  1  0  0  0
 34 35  2  0  0  0
 34 36  1  0  0  0
 36 37  1  0  0  0
 14 17  1  0  0  0
 14 18  1  0  0  0
 12 13  1  0  0  0
 23 24  1  0  0  0
 28 29  1  0  0  0
M  END
> <minimizedAffinity>
-9.08116

$$$$
1HBV_GAN_A_600


 47 48  0  0  0  0  0  0  0  0999 V2000
  -11.4140   14.1271   28.7491 C   0  0  0  0  0  0  0  0  0  0  0  0
  -10.0557   14.2542   29.0347 C   0  0  0  0  0  0  0  0  0  0  0  0
   -9.2373   15.5157   28.6624 C   0  0  0  0  0  0  0  0  0  0  0  0
   -8.9425   15.6264   27.1675 C   0  0  0  0  0  0  0  0  0  0  0  0
  -12.2200   15.2592   28.1425 C   0  0  0  0  0  0  0  0  0  0  0  0
  -11.4432   16.2460   27.2164 C   0  0  0  0  0  0  0  0  0  0  0  0
  -10.2676   15.6754   26.4877 N   0  0  0  0  0  0  0  0  0  0  0  0
  -12.1384   12.8496   29.1594 C   0  0  0  0  0  0  0  0  0  0  0  0
  -13.2675   12.4594   28.2153 C   0  0  0  0  0  0  0  0  0  0  0  0
  -12.9695   12.1904   31.3522 C   0  0  0  0  0  0  0  0  0  0  0  0
  -12.7176   11.0035   31.1430 O   0  0  0  0  0  0  0  0  0  0  0  0
  -12.7221   13.1385   30.4607 N   0  0  0  0  0  0  0  0  0  0  0  0
  -12.9409   14.0714   30.6865 H   0  0  0  0  0  0  0  0  0  0  0  0
  -14.2821   13.8881   32.5289 N   0  0  0  0  0  0  0  0  0  0  0  0
  -13.5854   12.5710   32.6963 C   0  0  0  0  0  0  0  0  0  0  0  0
  -14.5966   11.4933   33.1223 C   0  0  0  0  0  0  0  0  0  0  0  0
  -14.7031   14.1652   33.4157 H   0  0  0  0  0  0  0  0  0  0  0  0
  -15.0099   13.8001   31.8198 H   0  0  0  0  0  0  0  0  0  0  0  0
  -10.3033   15.7424   25.0071 C   0  0  0  0  0  0  0  0  0  0  0  0
  -11.2692   16.9103   24.7098 C   0  0  0  0  0  0  0  0  0  0  0  0
   -9.0095   15.8377   24.1406 C   0  0  0  0  0  0  0  0  0  0  0  0
   -8.3753   14.8080   23.8824 O   0  0  0  0  0  0  0  0  0  0  0  0
   -8.6234   17.0442   23.6797 N   0  0  0  0  0  0  0  0  0  0  0  0
   -9.1798   17.8187   23.9247 H   0  0  0  0  0  0  0  0  0  0  0  0
   -7.4506   17.3013   22.8478 C   0  0  0  0  0  0  0  0  0  0  0  0
   -6.3794   18.0904   23.6044 C   0  0  0  0  0  0  0  0  0  0  0  0
   -6.4243   19.3307   23.6658 O   0  0  0  0  0  0  0  0  0  0  0  0
   -5.4069   17.3827   24.1475 N   0  0  0  0  0  0  0  0  0  0  0  0
   -5.4512   16.4029   24.0617 H   0  0  0  0  0  0  0  0  0  0  0  0
   -4.2689   17.9505   24.8671 C   0  0  0  0  0  0  0  0  0  0  0  0
   -4.2113   17.8129   26.4250 C   0  0  0  0  0  0  0  0  0  0  0  0
   -5.2281   16.9135   27.0761 C   0  0  0  0  0  0  0  0  0  0  0  0
   -4.5813   19.1947   26.9103 C   0  0  0  0  0  0  0  0  0  0  0  0
   -3.1514   17.0328   24.3172 C   0  0  0  0  0  0  0  0  0  0  0  0
   -2.2589   17.5245   23.6001 O   0  0  0  0  0  0  0  0  0  0  0  0
   -2.8441   15.8687   24.9299 O   0  0  0  0  0  0  0  0  0  0  0  0
   -1.5958   15.2112   24.5413 C   0  0  0  0  0  0  0  0  0  0  0  0
   -7.8872   18.0656   21.5074 C   0  0  0  0  0  0  0  0  0  0  0  0
   -9.0063   17.2935   20.8904 C   0  0  0  0  0  0  0  0  0  0  0  0
   -6.7949   18.2089   20.4745 C   0  0  0  0  0  0  0  0  0  0  0  0
   -7.9411   15.5378   29.4727 C   0  0  0  0  0  0  0  0  0  0  0  0
   -8.3830   15.9304   30.8722 C   0  0  0  0  0  0  0  0  0  0  0  0
   -7.9045   17.1208   31.4271 C   0  0  0  0  0  0  0  0  0  0  0  0
   -8.2117   17.4469   32.7484 C   0  0  0  0  0  0  0  0  0  0  0  0
   -8.9874   16.5822   33.5091 C   0  0  0  0  0  0  0  0  0  0  0  0
   -9.4659   15.3990   32.9498 C   0  0  0  0  0  0  0  0  0  0  0  0
   -9.1753   15.0623   31.6345 C   0  0  0  0  0  0  0  0  0  0  0  0
 14 15  1  0  0  0
 15 16  1  0  0  0
 15 10  1  0  0  0
 10 11  2  0  0  0
 10 12  1  0  0  0
 12  8  1  0  0  0
  8  9  1  0  0  0
  8  1  1  0  0  0
  1  2  2  0  0  0
  1  5  1  0  0  0
  2  3  1  0  0  0
  3 41  1  0  0  0
  3  4  1  0  0  0
 41 42  1  0  0  0
 42 43  2  0  0  0
 42 47  1  0  0  0
 43 44  1  0  0  0
 44 45  2  0  0  0
 45 46  1  0  0  0
 46 47  2  0  0  0
  4  7  1  0  0  0
  5  6  1  0  0  0
  6  7  1  0  0  0
  7 19  1  0  0  0
 19 20  1  0  0  0
 19 21  1  0  0  0
 21 22  2  0  0  0
 21 23  1  0  0  0
 23 25  1  0  0  0
 25 38  1  0  0  0
 25 26  1  0  0  0
 38 39  1  0  0  0
 38 40  1  0  0  0
 26 27  2  0  0  0
 26 28  1  0  0  0
 28 30  1  0  0  0
 30 31  1  0  0  0
 30 34  1  0  0  0
 31 32  1  0  0  0
 31 33  1  0  0  0
 34 35  2  0  0  0
 34 36  1  0  0  0
 36 37  1  0  0  0
 14 17  1  0  0  0
 14 18  1  0  0  0
 12 13  1  0  0  0
 23 24  1  0  0  0
 28 29  1  0  0  0
M  END
> <minimizedAffinity>
-9.07406

$$$$
1HBV_GAN_A_600


 47 48  0  0  0  0  0  0  0  0999 V2000
  -11.4799   14.8351   28.9613 C   0  0  0  0  0  0  0  0  0  0  0  0
  -10.2989   14.6345   29.6737 C   0  0  0  0  0  0  0  0  0  0  0  0
   -9.3134   15.7845   29.9998 C   0  0  0  0  0  0  0  0  0  0  0  0
   -8.5124   16.2570   28.7877 C   0  0  0  0  0  0  0  0  0  0  0  0
  -11.9423   16.2159   28.5385 C   0  0  0  0  0  0  0  0  0  0  0  0
  -10.8240   17.2698   28.2671 C   0  0  0  0  0  0  0  0  0  0  0  0
   -9.5133   16.7286   27.7896 N   0  0  0  0  0  0  0  0  0  0  0  0
  -12.3917   13.6428   28.6928 C   0  0  0  0  0  0  0  0  0  0  0  0
  -13.4570   13.9155   27.6395 C   0  0  0  0  0  0  0  0  0  0  0  0
  -13.1078   12.1747   30.4999 C   0  0  0  0  0  0  0  0  0  0  0  0
  -12.5742   11.1951   29.9788 O   0  0  0  0  0  0  0  0  0  0  0  0
  -13.0665   13.3816   29.9553 N   0  0  0  0  0  0  0  0  0  0  0  0
  -13.5079   14.1282   30.4211 H   0  0  0  0  0  0  0  0  0  0  0  0
  -14.6553   13.2066   32.0905 N   0  0  0  0  0  0  0  0  0  0  0  0
  -13.8369   11.9782   31.8267 C   0  0  0  0  0  0  0  0  0  0  0  0
  -14.7540   10.7472   31.7322 C   0  0  0  0  0  0  0  0  0  0  0  0
  -15.1537   13.0998   32.9741 H   0  0  0  0  0  0  0  0  0  0  0  0
  -15.3277   13.3360   31.3344 H   0  0  0  0  0  0  0  0  0  0  0  0
   -9.0297   17.2144   26.4750 C   0  0  0  0  0  0  0  0  0  0  0  0
  -10.3198   17.6240   25.7312 C   0  0  0  0  0  0  0  0  0  0  0  0
   -7.9227   18.3052   26.3398 C   0  0  0  0  0  0  0  0  0  0  0  0
   -8.0136   19.3467   27.0003 O   0  0  0  0  0  0  0  0  0  0  0  0
   -6.8817   18.0760   25.5146 N   0  0  0  0  0  0  0  0  0  0  0  0
   -6.8766   17.2231   25.0229 H   0  0  0  0  0  0  0  0  0  0  0  0
   -5.7606   18.9844   25.2873 C   0  0  0  0  0  0  0  0  0  0  0  0
   -5.4561   19.1489   23.7964 C   0  0  0  0  0  0  0  0  0  0  0  0
   -4.6765   20.0306   23.3975 O   0  0  0  0  0  0  0  0  0  0  0  0
   -6.0894   18.3309   22.9770 N   0  0  0  0  0  0  0  0  0  0  0  0
   -6.6826   17.6534   23.3750 H   0  0  0  0  0  0  0  0  0  0  0  0
   -5.9724   18.3596   21.5207 C   0  0  0  0  0  0  0  0  0  0  0  0
   -4.9995   17.3553   20.8179 C   0  0  0  0  0  0  0  0  0  0  0  0
   -3.6029   17.2470   21.3699 C   0  0  0  0  0  0  0  0  0  0  0  0
   -4.8051   17.9602   19.4475 C   0  0  0  0  0  0  0  0  0  0  0  0
   -7.4016   17.8955   21.1530 C   0  0  0  0  0  0  0  0  0  0  0  0
   -8.0110   18.4745   20.2333 O   0  0  0  0  0  0  0  0  0  0  0  0
   -7.8244   16.6471   21.4490 O   0  0  0  0  0  0  0  0  0  0  0  0
   -9.0720   16.5187   22.2031 C   0  0  0  0  0  0  0  0  0  0  0  0
   -4.4680   18.4684   26.0837 C   0  0  0  0  0  0  0  0  0  0  0  0
   -4.2600   17.0335   25.7275 C   0  0  0  0  0  0  0  0  0  0  0  0
   -4.5688   18.5653   27.5874 C   0  0  0  0  0  0  0  0  0  0  0  0
   -8.3796   15.3483   31.1290 C   0  0  0  0  0  0  0  0  0  0  0  0
   -9.1220   15.7345   32.3969 C   0  0  0  0  0  0  0  0  0  0  0  0
  -10.2942   15.0511   32.7330 C   0  0  0  0  0  0  0  0  0  0  0  0
  -11.0482   15.4598   33.8335 C   0  0  0  0  0  0  0  0  0  0  0  0
  -10.6328   16.5497   34.5869 C   0  0  0  0  0  0  0  0  0  0  0  0
   -9.4610   17.2246   34.2505 C   0  0  0  0  0  0  0  0  0  0  0  0
   -8.6953   16.8272   33.1627 C   0  0  0  0  0  0  0  0  0  0  0  0
 14 15  1  0  0  0
 15 16  1  0  0  0
 15 10  1  0  0  0
 10 11  2  0  0  0
 10 12  1  0  0  0
 12  8  1  0  0  0
  8  9  1  0  0  0
  8  1  1  0  0  0
  1  2  2  0  0  0
  1  5  1  0  0  0
  2  3  1  0  0  0
  3 41  1  0  0  0
  3  4  1  0  0  0
 41 42  1  0  0  0
 42 43  2  0  0  0
 42 47  1  0  0  0
 43 44  1  0  0  0
 44 45  2  0  0  0
 45 46  1  0  0  0
 46 47  2  0  0  0
  4  7  1  0  0  0
  5  6  1  0  0  0
  6  7  1  0  0  0
  7 19  1  0  0  0
 19 20  1  0  0  0
 19 21  1  0  0  0
 21 22  2  0  0  0
 21 23  1  0  0  0
 23 25  1  0  0  0
 25 38  1  0  0  0
 25 26  1  0  0  0
 38 39  1  0  0  0
 38 40  1  0  0  0
 26 27  2  0  0  0
 26 28  1  0  0  0
 28 30  1  0  0  0
 30 31  1  0  0  0
 30 34  1  0  0  0
 31 32  1  0  0  0
 31 33  1  0  0  0
 34 35  2  0  0  0
 34 36  1  0  0  0
 36 37  1  0  0  0
 14 17  1  0  0  0
 14 18  1  0  0  0
 12 13  1  0  0  0
 23 24  1  0  0  0
 28 29  1  0  0  0
M  END
> <minimizedAffinity>
-8.94403

$$$$
1HBV_GAN_A_600


 47 48  0  0  0  0  0  0  0  0999 V2000
  -10.4568   15.0968   30.5594 C   0  0  0  0  0  0  0  0  0  0  0  0
  -11.8227   14.9684   30.3142 C   0  0  0  0  0  0  0  0  0  0  0  0
  -12.3836   14.2462   29.0637 C   0  0  0  0  0  0  0  0  0  0  0  0
  -12.2191   15.0509   27.7755 C   0  0  0  0  0  0  0  0  0  0  0  0
   -9.4132   14.4482   29.6708 C   0  0  0  0  0  0  0  0  0  0  0  0
   -9.7971   14.2642   28.1696 C   0  0  0  0  0  0  0  0  0  0  0  0
  -10.7544   15.2680   27.6085 N   0  0  0  0  0  0  0  0  0  0  0  0
   -9.9979   15.8197   31.8212 C   0  0  0  0  0  0  0  0  0  0  0  0
   -8.4913   16.0299   31.8891 C   0  0  0  0  0  0  0  0  0  0  0  0
  -11.3891   15.2330   33.7327 C   0  0  0  0  0  0  0  0  0  0  0  0
  -12.0764   16.2463   33.6033 O   0  0  0  0  0  0  0  0  0  0  0  0
  -10.3790   14.9499   32.9238 N   0  0  0  0  0  0  0  0  0  0  0  0
   -9.8681   14.1218   33.0739 H   0  0  0  0  0  0  0  0  0  0  0  0
  -12.3450   15.0689   35.9797 N   0  0  0  0  0  0  0  0  0  0  0  0
  -11.7282   14.2720   34.8694 C   0  0  0  0  0  0  0  0  0  0  0  0
  -12.7243   13.2130   34.3678 C   0  0  0  0  0  0  0  0  0  0  0  0
  -12.5812   14.4477   36.7535 H   0  0  0  0  0  0  0  0  0  0  0  0
  -13.1912   15.5263   35.6404 H   0  0  0  0  0  0  0  0  0  0  0  0
  -10.2829   16.0658   26.4513 C   0  0  0  0  0  0  0  0  0  0  0  0
  -11.5737   16.6918   25.8791 C   0  0  0  0  0  0  0  0  0  0  0  0
   -9.1411   17.1222   26.5707 C   0  0  0  0  0  0  0  0  0  0  0  0
   -9.4217   18.2861   26.8799 O   0  0  0  0  0  0  0  0  0  0  0  0
   -7.8697   16.7329   26.3486 N   0  0  0  0  0  0  0  0  0  0  0  0
   -7.7234   15.7895   26.1084 H   0  0  0  0  0  0  0  0  0  0  0  0
   -6.6906   17.5908   26.4336 C   0  0  0  0  0  0  0  0  0  0  0  0
   -5.8363   17.5095   25.1663 C   0  0  0  0  0  0  0  0  0  0  0  0
   -4.7578   16.8922   25.1618 O   0  0  0  0  0  0  0  0  0  0  0  0
   -6.2956   18.1535   24.1098 N   0  0  0  0  0  0  0  0  0  0  0  0
   -7.1639   18.6097   24.1940 H   0  0  0  0  0  0  0  0  0  0  0  0
   -5.6064   18.2372   22.8241 C   0  0  0  0  0  0  0  0  0  0  0  0
   -6.4550   18.3632   21.5152 C   0  0  0  0  0  0  0  0  0  0  0  0
   -7.8400   17.7729   21.5316 C   0  0  0  0  0  0  0  0  0  0  0  0
   -5.7024   17.5024   20.5281 C   0  0  0  0  0  0  0  0  0  0  0  0
   -4.9078   19.6047   23.0116 C   0  0  0  0  0  0  0  0  0  0  0  0
   -5.6019   20.6368   23.0862 O   0  0  0  0  0  0  0  0  0  0  0  0
   -3.6691   19.6848   23.5445 O   0  0  0  0  0  0  0  0  0  0  0  0
   -2.6826   18.6952   23.1096 C   0  0  0  0  0  0  0  0  0  0  0  0
   -5.8295   17.2104   27.7318 C   0  0  0  0  0  0  0  0  0  0  0  0
   -6.7426   17.2631   28.9118 C   0  0  0  0  0  0  0  0  0  0  0  0
   -4.6593   18.1244   28.0070 C   0  0  0  0  0  0  0  0  0  0  0  0
  -13.8527   13.8931   29.2973 C   0  0  0  0  0  0  0  0  0  0  0  0
  -13.8036   12.5864   30.0705 C   0  0  0  0  0  0  0  0  0  0  0  0
  -14.7225   12.3720   31.1019 C   0  0  0  0  0  0  0  0  0  0  0  0
  -14.6273   11.2271   31.8936 C   0  0  0  0  0  0  0  0  0  0  0  0
  -13.6140   10.3078   31.6565 C   0  0  0  0  0  0  0  0  0  0  0  0
  -12.7034   10.5237   30.6242 C   0  0  0  0  0  0  0  0  0  0  0  0
  -12.7876   11.6543   29.8226 C   0  0  0  0  0  0  0  0  0  0  0  0
 14 15  1  0  0  0
 15 16  1  0  0  0
 15 10  1  0  0  0
 10 11  2  0  0  0
 10 12  1  0  0  0
 12  8  1  0  0  0
  8  9  1  0  0  0
  8  1  1  0  0  0
  1  2  2  0  0  0
  1  5  1  0  0  0
  2  3  1  0  0  0
  3 41  1  0  0  0
  3  4  1  0  0  0
 41 42  1  0  0  0
 42 43  2  0  0  0
 42 47  1  0  0  0
 43 44  1  0  0  0
 44 45  2  0  0  0
 45 46  1  0  0  0
 46 47  2  0  0  0
  4  7  1  0  0  0
  5  6  1  0  0  0
  6  7  1  0  0  0
  7 19  1  0  0  0
 19 20  1  0  0  0
 19 21  1  0  0  0
 21 22  2  0  0  0
 21 23  1  0  0  0
 23 25  1  0  0  0
 25 38  1  0  0  0
 25 26  1  0  0  0
 38 39  1  0  0  0
 38 40  1  0  0  0
 26 27  2  0  0  0
 26 28  1  0  0  0
 28 30  1  0  0  0
 30 31  1  0  0  0
 30 34  1  0  0  0
 31 32  1  0  0  0
 31 33  1  0  0  0
 34 35  2  0  0  0
 34 36  1  0  0  0
 36 37  1  0  0  0
 14 17  1  0  0  0
 14 18  1  0  0  0
 12 13  1  0  0  0
 23 24  1  0  0  0
 28 29  1  0  0  0
M  END
> <minimizedAffinity>
-8.64232

$$$$
1HBV_GAN_A_600


 47 48  0  0  0  0  0  0  0  0999 V2000
  -11.2087   15.4309   28.8652 C   0  0  0  0  0  0  0  0  0  0  0  0
  -10.2671   14.8795   29.7322 C   0  0  0  0  0  0  0  0  0  0  0  0
   -9.1649   15.7254   30.4174 C   0  0  0  0  0  0  0  0  0  0  0  0
   -8.0500   16.1529   29.4644 C   0  0  0  0  0  0  0  0  0  0  0  0
  -11.2901   16.9226   28.6056 C   0  0  0  0  0  0  0  0  0  0  0  0
   -9.9541   17.7210   28.7190 C   0  0  0  0  0  0  0  0  0  0  0  0
   -8.7056   16.9613   28.3981 N   0  0  0  0  0  0  0  0  0  0  0  0
  -12.2609   14.5201   28.2418 C   0  0  0  0  0  0  0  0  0  0  0  0
  -13.3935   15.2754   27.5599 C   0  0  0  0  0  0  0  0  0  0  0  0
  -12.8422   12.4452   29.3777 C   0  0  0  0  0  0  0  0  0  0  0  0
  -12.3730   11.7607   28.4682 O   0  0  0  0  0  0  0  0  0  0  0  0
  -12.8276   13.7696   29.3522 N   0  0  0  0  0  0  0  0  0  0  0  0
  -13.2138   14.2635   30.1112 H   0  0  0  0  0  0  0  0  0  0  0  0
  -12.4711   10.7044   31.0576 N   0  0  0  0  0  0  0  0  0  0  0  0
  -13.4563   11.7277   30.5772 C   0  0  0  0  0  0  0  0  0  0  0  0
  -13.7421   12.7454   31.6943 C   0  0  0  0  0  0  0  0  0  0  0  0
  -12.8590   10.2099   31.8609 H   0  0  0  0  0  0  0  0  0  0  0  0
  -11.6046   11.1684   31.3299 H   0  0  0  0  0  0  0  0  0  0  0  0
   -7.8705   17.4865   27.2914 C   0  0  0  0  0  0  0  0  0  0  0  0
   -6.5073   16.7880   27.4890 C   0  0  0  0  0  0  0  0  0  0  0  0
   -8.3264   17.4361   25.8003 C   0  0  0  0  0  0  0  0  0  0  0  0
   -9.1827   18.2336   25.4006 O   0  0  0  0  0  0  0  0  0  0  0  0
   -7.7601   16.5304   24.9779 N   0  0  0  0  0  0  0  0  0  0  0  0
   -7.0840   15.9299   25.3672 H   0  0  0  0  0  0  0  0  0  0  0  0
   -8.0634   16.3637   23.5588 C   0  0  0  0  0  0  0  0  0  0  0  0
   -7.3864   17.4372   22.7033 C   0  0  0  0  0  0  0  0  0  0  0  0
   -7.8241   18.5999   22.6737 O   0  0  0  0  0  0  0  0  0  0  0  0
   -6.3487   17.0458   21.9881 N   0  0  0  0  0  0  0  0  0  0  0  0
   -6.0593   16.1090   22.0765 H   0  0  0  0  0  0  0  0  0  0  0  0
   -5.5988   17.9047   21.0742 C   0  0  0  0  0  0  0  0  0  0  0  0
   -4.0568   18.0717   21.2835 C   0  0  0  0  0  0  0  0  0  0  0  0
   -3.2368   16.8148   21.4035 C   0  0  0  0  0  0  0  0  0  0  0  0
   -3.9578   18.7049   22.6513 C   0  0  0  0  0  0  0  0  0  0  0  0
   -5.7652   17.0810   19.7753 C   0  0  0  0  0  0  0  0  0  0  0  0
   -6.7401   16.3132   19.6630 O   0  0  0  0  0  0  0  0  0  0  0  0
   -5.1918   17.4824   18.6199 O   0  0  0  0  0  0  0  0  0  0  0  0
   -4.4279   16.4882   17.8651 C   0  0  0  0  0  0  0  0  0  0  0  0
   -9.6512   16.3675   23.3344 C   0  0  0  0  0  0  0  0  0  0  0  0
  -10.2072   15.1604   24.0147 C   0  0  0  0  0  0  0  0  0  0  0  0
  -10.0876   16.3304   21.8891 C   0  0  0  0  0  0  0  0  0  0  0  0
   -8.5940   14.9499   31.6049 C   0  0  0  0  0  0  0  0  0  0  0  0
   -9.4792   15.3512   32.7725 C   0  0  0  0  0  0  0  0  0  0  0  0
  -10.6218   14.5955   33.0503 C   0  0  0  0  0  0  0  0  0  0  0  0
  -11.5045   15.0078   34.0490 C   0  0  0  0  0  0  0  0  0  0  0  0
  -11.2462   16.1729   34.7589 C   0  0  0  0  0  0  0  0  0  0  0  0
  -10.1033   16.9202   34.4814 C   0  0  0  0  0  0  0  0  0  0  0  0
   -9.2109   16.5208   33.4955 C   0  0  0  0  0  0  0  0  0  0  0  0
 14 15  1  0  0  0
 15 16  1  0  0  0
 15 10  1  0  0  0
 10 11  2  0  0  0
 10 12  1  0  0  0
 12  8  1  0  0  0
  8  9  1  0  0  0
  8  1  1  0  0  0
  1  2  2  0  0  0
  1  5  1  0  0  0
  2  3  1  0  0  0
  3 41  1  0  0  0
  3  4  1  0  0  0
 41 42  1  0  0  0
 42 43  2  0  0  0
 42 47  1  0  0  0
 43 44  1  0  0  0
 44 45  2  0  0  0
 45 46  1  0  0  0
 46 47  2  0  0  0
  4  7  1  0  0  0
  5  6  1  0  0  0
  6  7  1  0  0  0
  7 19  1  0  0  0
 19 20  1  0  0  0
 19 21  1  0  0  0
 21 22  2  0  0  0
 21 23  1  0  0  0
 23 25  1  0  0  0
 25 38  1  0  0  0
 25 26  1  0  0  0
 38 39  1  0  0  0
 38 40  1  0  0  0
 26 27  2  0  0  0
 26 28  1  0  0  0
 28 30  1  0  0  0
 30 31  1  0  0  0
 30 34  1  0  0  0
 31 32  1  0  0  0
 31 33  1  0  0  0
 34 35  2  0  0  0
 34 36  1  0  0  0
 36 37  1  0  0  0
 14 17  1  0  0  0
 14 18  1  0  0  0
 12 13  1  0  0  0
 23 24  1  0  0  0
 28 29  1  0  0  0
M  END
> <minimizedAffinity>
-8.20624

$$$$
1HBV_GAN_A_600


 47 48  0  0  0  0  0  0  0  0999 V2000
  -11.4174   15.4135   29.2151 C   0  0  0  0  0  0  0  0  0  0  0  0
  -10.5336   14.8675   30.1442 C   0  0  0  0  0  0  0  0  0  0  0  0
   -9.5833   15.7364   31.0054 C   0  0  0  0  0  0  0  0  0  0  0  0
   -8.4101   16.3146   30.2160 C   0  0  0  0  0  0  0  0  0  0  0  0
  -11.5899   16.9108   29.0491 C   0  0  0  0  0  0  0  0  0  0  0  0
  -10.3424   17.7928   29.3668 C   0  0  0  0  0  0  0  0  0  0  0  0
   -9.0096   17.1520   29.1391 N   0  0  0  0  0  0  0  0  0  0  0  0
  -12.3196   14.4790   28.4164 C   0  0  0  0  0  0  0  0  0  0  0  0
  -13.4360   15.1988   27.6721 C   0  0  0  0  0  0  0  0  0  0  0  0
  -12.8837   12.2799   29.2993 C   0  0  0  0  0  0  0  0  0  0  0  0
  -12.3136   11.7084   28.3697 O   0  0  0  0  0  0  0  0  0  0  0  0
  -12.9320   13.5998   29.4011 N   0  0  0  0  0  0  0  0  0  0  0  0
  -13.3987   14.0001   30.1700 H   0  0  0  0  0  0  0  0  0  0  0  0
  -12.5138   10.5019   30.9399 N   0  0  0  0  0  0  0  0  0  0  0  0
  -13.5517   11.4228   30.3717 C   0  0  0  0  0  0  0  0  0  0  0  0
  -14.1113   12.3300   31.4803 C   0  0  0  0  0  0  0  0  0  0  0  0
  -12.9363    9.9169   31.6608 H   0  0  0  0  0  0  0  0  0  0  0  0
  -11.7580   11.0519   31.3482 H   0  0  0  0  0  0  0  0  0  0  0  0
   -8.1049   17.8188   28.1722 C   0  0  0  0  0  0  0  0  0  0  0  0
   -6.6905   17.5051   28.7075 C   0  0  0  0  0  0  0  0  0  0  0  0
   -8.1985   17.5788   26.6336 C   0  0  0  0  0  0  0  0  0  0  0  0
   -8.4597   18.5289   25.8864 O   0  0  0  0  0  0  0  0  0  0  0  0
   -7.9749   16.3388   26.1544 N   0  0  0  0  0  0  0  0  0  0  0  0
   -7.7705   15.6332   26.8098 H   0  0  0  0  0  0  0  0  0  0  0  0
   -8.0098   15.9522   24.7462 C   0  0  0  0  0  0  0  0  0  0  0  0
   -7.1340   16.8651   23.8847 C   0  0  0  0  0  0  0  0  0  0  0  0
   -7.5109   17.2357   22.7600 O   0  0  0  0  0  0  0  0  0  0  0  0
   -5.9619   17.1983   24.3913 N   0  0  0  0  0  0  0  0  0  0  0  0
   -5.7438   16.8708   25.2938 H   0  0  0  0  0  0  0  0  0  0  0  0
   -4.9648   18.0189   23.7075 C   0  0  0  0  0  0  0  0  0  0  0  0
   -4.8708   19.5426   24.0520 C   0  0  0  0  0  0  0  0  0  0  0  0
   -5.2652   19.9608   25.4436 C   0  0  0  0  0  0  0  0  0  0  0  0
   -5.9276   20.1647   23.1700 C   0  0  0  0  0  0  0  0  0  0  0  0
   -3.6824   17.3726   24.2828 C   0  0  0  0  0  0  0  0  0  0  0  0
   -3.7721   16.3038   24.9170 O   0  0  0  0  0  0  0  0  0  0  0  0
   -2.4692   17.6484   23.7566 O   0  0  0  0  0  0  0  0  0  0  0  0
   -2.0803   16.9269   22.5442 C   0  0  0  0  0  0  0  0  0  0  0  0
   -9.5240   15.9440   24.2183 C   0  0  0  0  0  0  0  0  0  0  0  0
  -10.4080   15.6471   25.3842 C   0  0  0  0  0  0  0  0  0  0  0  0
   -9.8148   14.9257   23.1417 C   0  0  0  0  0  0  0  0  0  0  0  0
   -9.0835   14.9164   32.1950 C   0  0  0  0  0  0  0  0  0  0  0  0
  -10.1657   15.0880   33.2472 C   0  0  0  0  0  0  0  0  0  0  0  0
  -10.2337   16.2867   33.9630 C   0  0  0  0  0  0  0  0  0  0  0  0
  -11.1503   16.4249   35.0058 C   0  0  0  0  0  0  0  0  0  0  0  0
  -11.9876   15.3662   35.3321 C   0  0  0  0  0  0  0  0  0  0  0  0
  -11.9191   14.1750   34.6123 C   0  0  0  0  0  0  0  0  0  0  0  0
  -11.0175   14.0229   33.5675 C   0  0  0  0  0  0  0  0  0  0  0  0
 14 15  1  0  0  0
 15 16  1  0  0  0
 15 10  1  0  0  0
 10 11  2  0  0  0
 10 12  1  0  0  0
 12  8  1  0  0  0
  8  9  1  0  0  0
  8  1  1  0  0  0
  1  2  2  0  0  0
  1  5  1  0  0  0
  2  3  1  0  0  0
  3 41  1  0  0  0
  3  4  1  0  0  0
 41 42  1  0  0  0
 42 43  2  0  0  0
 42 47  1  0  0  0
 43 44  1  0  0  0
 44 45  2  0  0  0
 45 46  1  0  0  0
 46 47  2  0  0  0
  4  7  1  0  0  0
  5  6  1  0  0  0
  6  7  1  0  0  0
  7 19  1  0  0  0
 19 20  1  0  0  0
 19 21  1  0  0  0
 21 22  2  0  0  0
 21 23  1  0  0  0
 23 25  1  0  0  0
 25 38  1  0  0  0
 25 26  1  0  0  0
 38 39  1  0  0  0
 38 40  1  0  0  0
 26 27  2  0  0  0
 26 28  1  0  0  0
 28 30  1  0  0  0
 30 31  1  0  0  0
 30 34  1  0  0  0
 31 32  1  0  0  0
 31 33  1  0  0  0
 34 35  2  0  0  0
 34 36  1  0  0  0
 36 37  1  0  0  0
 14 17  1  0  0  0
 14 18  1  0  0  0
 12 13  1  0  0  0
 23 24  1  0  0  0
 28 29  1  0  0  0
M  END
> <minimizedAffinity>
-8.03320

$$$$
