1J4R_001_A_108


 45 48  0  0  0  0  0  0  0  0999 V2000
   26.3796   11.7826   23.4926 C   0  0  0  0  0  0  0  0  0  0  0  0
   26.6529   10.6238   23.2195 O   0  0  0  0  0  0  0  0  0  0  0  0
   26.9879   12.7996   22.8355 N   0  0  0  0  0  0  0  0  0  0  0  0
   26.8207   14.2469   23.1960 C   0  0  0  0  0  0  0  0  0  0  0  0
   26.5837   15.1619   21.9536 C   0  0  0  0  0  0  0  0  0  0  0  0
   27.6183   14.8858   20.8419 C   0  0  0  0  0  0  0  0  0  0  0  0
   27.7217   13.3836   20.5071 C   0  0  0  0  0  0  0  0  0  0  0  0
   27.9839   12.5335   21.7645 C   0  0  0  0  0  0  0  0  0  0  0  0
   25.4043   12.0348   24.5691 C   0  0  0  0  0  0  0  0  0  0  0  0
   24.4108   12.8138   24.0884 F   0  0  0  0  0  0  0  0  0  0  0  0
   24.8535   10.8516   24.8875 F   0  0  0  0  0  0  0  0  0  0  0  0
   25.9878   12.5863   25.8386 C   0  0  0  0  0  0  0  0  0  0  0  0
   25.3163   13.5539   26.6098 C   0  0  0  0  0  0  0  0  0  0  0  0
   25.8804   13.9915   27.8349 C   0  0  0  0  0  0  0  0  0  0  0  0
   27.1215   13.4547   28.2881 C   0  0  0  0  0  0  0  0  0  0  0  0
   27.7911   12.4861   27.5200 C   0  0  0  0  0  0  0  0  0  0  0  0
   27.2266   12.0556   26.2955 C   0  0  0  0  0  0  0  0  0  0  0  0
   25.2359   14.9424   28.5937 O   0  0  0  0  0  0  0  0  0  0  0  0
   24.0162   14.6048   29.2691 C   0  0  0  0  0  0  0  0  0  0  0  0
   28.9652   11.9247   28.0011 O   0  0  0  0  0  0  0  0  0  0  0  0
   29.5898   10.8555   27.2803 C   0  0  0  0  0  0  0  0  0  0  0  0
   27.6962   13.9050   29.4715 O   0  0  0  0  0  0  0  0  0  0  0  0
   28.6407   15.0000   29.3979 C   0  0  0  0  0  0  0  0  0  0  0  0
   29.3786   12.8168   22.2993 C   0  0  0  0  0  0  0  0  0  0  0  0
   30.3260   12.8431   21.5380 O   0  0  0  0  0  0  0  0  0  0  0  0
   29.6017   13.0464   23.6159 O   0  0  0  0  0  0  0  0  0  0  0  0
   30.6817   13.9467   23.8978 C   0  0  0  0  0  0  0  0  0  0  0  0
   31.3135   13.5628   25.2333 C   0  0  0  0  0  0  0  0  0  0  0  0
   32.7543   13.0654   25.0240 C   0  0  0  0  0  0  0  0  0  0  0  0
   32.7096   11.6850   24.4023 C   0  0  0  0  0  0  0  0  0  0  0  0
   33.6697   11.6374   23.2438 C   0  0  0  0  0  0  0  0  0  0  0  0
   34.2580   12.8250   22.7531 C   0  0  0  0  0  0  0  0  0  0  0  0
   35.1808   12.7632   21.7753 N   0  0  0  0  0  0  0  0  0  0  0  0
   35.5706   11.5742   21.2342 C   0  0  0  0  0  0  0  0  0  0  0  0
   35.0157   10.3628   21.6713 C   0  0  0  0  0  0  0  0  0  0  0  0
   34.0516   10.4004   22.6876 C   0  0  0  0  0  0  0  0  0  0  0  0
   30.1998   15.4108   23.9370 C   0  0  0  0  0  0  0  0  0  0  0  0
   30.0026   15.8973   25.3554 C   0  0  0  0  0  0  0  0  0  0  0  0
   28.5529   15.6337   25.7580 C   0  0  0  0  0  0  0  0  0  0  0  0
   27.9350   16.9374   26.1912 C   0  0  0  0  0  0  0  0  0  0  0  0
   26.5475   17.1153   26.1010 C   0  0  0  0  0  0  0  0  0  0  0  0
   25.9684   18.3200   26.5018 C   0  0  0  0  0  0  0  0  0  0  0  0
   26.7782   19.3535   26.9908 C   0  0  0  0  0  0  0  0  0  0  0  0
   28.1678   19.1720   27.0799 C   0  0  0  0  0  0  0  0  0  0  0  0
   28.7450   17.9659   26.6782 C   0  0  0  0  0  0  0  0  0  0  0  0
 12 13  2  0  0  0
 12 17  1  0  0  0
 12  9  1  0  0  0
 13 14  1  0  0  0
 14 15  2  0  0  0
 14 18  1  0  0  0
 15 16  1  0  0  0
 15 22  1  0  0  0
 16 17  2  0  0  0
 16 20  1  0  0  0
 18 19  1  0  0  0
 22 23  1  0  0  0
 20 21  1  0  0  0
  9 10  1  0  0  0
  9 11  1  0  0  0
  9  1  1  0  0  0
  1  2  2  0  0  0
  1  3  1  0  0  0
  3  4  1  0  0  0
  3  8  1  0  0  0
  4  5  1  0  0  0
  5  6  1  0  0  0
  6  7  1  0  0  0
  7  8  1  0  0  0
  8 24  1  0  0  0
 24 25  2  0  0  0
 24 26  1  0  0  0
 26 27  1  0  0  0
 27 28  1  0  0  0
 27 37  1  0  0  0
 28 29  1  0  0  0
 29 30  1  0  0  0
 30 31  1  0  0  0
 31 32  2  0  0  0
 31 36  1  0  0  0
 32 33  1  0  0  0
 33 34  2  0  0  0
 34 35  1  0  0  0
 35 36  2  0  0  0
 37 38  1  0  0  0
 38 39  1  0  0  0
 39 40  1  0  0  0
 40 41  2  0  0  0
 40 45  1  0  0  0
 41 42  1  0  0  0
 42 43  2  0  0  0
 43 44  1  0  0  0
 44 45  2  0  0  0
M  END
> <minimizedAffinity>
-8.20058

$$$$
1J4R_001_A_108


 45 48  0  0  0  0  0  0  0  0999 V2000
   26.4107   11.7593   23.4802 C   0  0  0  0  0  0  0  0  0  0  0  0
   26.6955   10.6076   23.1892 O   0  0  0  0  0  0  0  0  0  0  0  0
   27.0097   12.7923   22.8398 N   0  0  0  0  0  0  0  0  0  0  0  0
   26.8282   14.2321   23.2228 C   0  0  0  0  0  0  0  0  0  0  0  0
   26.5834   15.1642   21.9947 C   0  0  0  0  0  0  0  0  0  0  0  0
   27.6216   14.9156   20.8799 C   0  0  0  0  0  0  0  0  0  0  0  0
   27.7399   13.4199   20.5216 C   0  0  0  0  0  0  0  0  0  0  0  0
   28.0092   12.5528   21.7658 C   0  0  0  0  0  0  0  0  0  0  0  0
   25.4321   11.9851   24.5596 C   0  0  0  0  0  0  0  0  0  0  0  0
   24.4673   12.8175   24.1110 F   0  0  0  0  0  0  0  0  0  0  0  0
   24.8430   10.8043   24.8113 F   0  0  0  0  0  0  0  0  0  0  0  0
   26.0183   12.4526   25.8610 C   0  0  0  0  0  0  0  0  0  0  0  0
   27.2447   11.9603   26.3466 C   0  0  0  0  0  0  0  0  0  0  0  0
   27.7865   12.4846   27.5475 C   0  0  0  0  0  0  0  0  0  0  0  0
   27.0960   13.5076   28.2622 C   0  0  0  0  0  0  0  0  0  0  0  0
   25.8728   14.0019   27.7762 C   0  0  0  0  0  0  0  0  0  0  0  0
   25.3335   13.4724   26.5794 C   0  0  0  0  0  0  0  0  0  0  0  0
   28.9815   12.0057   28.0353 O   0  0  0  0  0  0  0  0  0  0  0  0
   29.6648   10.9566   27.3352 C   0  0  0  0  0  0  0  0  0  0  0  0
   25.2417   15.0407   28.4450 O   0  0  0  0  0  0  0  0  0  0  0  0
   24.0729   14.7751   29.2300 C   0  0  0  0  0  0  0  0  0  0  0  0
   27.6054   14.0012   29.4581 O   0  0  0  0  0  0  0  0  0  0  0  0
   27.2584   13.3124   30.6836 C   0  0  0  0  0  0  0  0  0  0  0  0
   29.4005   12.8411   22.3064 C   0  0  0  0  0  0  0  0  0  0  0  0
   30.3576   12.8245   21.5568 O   0  0  0  0  0  0  0  0  0  0  0  0
   29.6103   13.1220   23.6152 O   0  0  0  0  0  0  0  0  0  0  0  0
   30.6707   14.0528   23.8711 C   0  0  0  0  0  0  0  0  0  0  0  0
   31.3486   13.6845   25.1883 C   0  0  0  0  0  0  0  0  0  0  0  0
   32.7427   13.0878   24.9279 C   0  0  0  0  0  0  0  0  0  0  0  0
   32.6303   11.5777   24.8982 C   0  0  0  0  0  0  0  0  0  0  0  0
   33.4002   11.0517   23.7162 C   0  0  0  0  0  0  0  0  0  0  0  0
   33.5942   11.8587   22.5724 C   0  0  0  0  0  0  0  0  0  0  0  0
   34.3571   11.4127   21.5572 N   0  0  0  0  0  0  0  0  0  0  0  0
   34.9561   10.1888   21.5972 C   0  0  0  0  0  0  0  0  0  0  0  0
   34.7926    9.3379   22.6998 C   0  0  0  0  0  0  0  0  0  0  0  0
   34.0017    9.7787   23.7693 C   0  0  0  0  0  0  0  0  0  0  0  0
   30.1478   15.5022   23.9274 C   0  0  0  0  0  0  0  0  0  0  0  0
   29.9970   15.9878   25.3517 C   0  0  0  0  0  0  0  0  0  0  0  0
   28.5576   15.7361   25.7967 C   0  0  0  0  0  0  0  0  0  0  0  0
   27.9526   17.0505   26.2157 C   0  0  0  0  0  0  0  0  0  0  0  0
   26.5654   17.2359   26.1373 C   0  0  0  0  0  0  0  0  0  0  0  0
   25.9981   18.4505   26.5250 C   0  0  0  0  0  0  0  0  0  0  0  0
   26.8195   19.4864   26.9889 C   0  0  0  0  0  0  0  0  0  0  0  0
   28.2088   19.2973   27.0662 C   0  0  0  0  0  0  0  0  0  0  0  0
   28.7742   18.0813   26.6777 C   0  0  0  0  0  0  0  0  0  0  0  0
 12 13  2  0  0  0
 12 17  1  0  0  0
 12  9  1  0  0  0
 13 14  1  0  0  0
 14 15  2  0  0  0
 14 18  1  0  0  0
 15 16  1  0  0  0
 15 22  1  0  0  0
 16 17  2  0  0  0
 16 20  1  0  0  0
 18 19  1  0  0  0
 22 23  1  0  0  0
 20 21  1  0  0  0
  9 10  1  0  0  0
  9 11  1  0  0  0
  9  1  1  0  0  0
  1  2  2  0  0  0
  1  3  1  0  0  0
  3  4  1  0  0  0
  3  8  1  0  0  0
  4  5  1  0  0  0
  5  6  1  0  0  0
  6  7  1  0  0  0
  7  8  1  0  0  0
  8 24  1  0  0  0
 24 25  2  0  0  0
 24 26  1  0  0  0
 26 27  1  0  0  0
 27 28  1  0  0  0
 27 37  1  0  0  0
 28 29  1  0  0  0
 29 30  1  0  0  0
 30 31  1  0  0  0
 31 32  2  0  0  0
 31 36  1  0  0  0
 32 33  1  0  0  0
 33 34  2  0  0  0
 34 35  1  0  0  0
 35 36  2  0  0  0
 37 38  1  0  0  0
 38 39  1  0  0  0
 39 40  1  0  0  0
 40 41  2  0  0  0
 40 45  1  0  0  0
 41 42  1  0  0  0
 42 43  2  0  0  0
 43 44  1  0  0  0
 44 45  2  0  0  0
M  END
> <minimizedAffinity>
-8.12720

$$$$
1J4R_001_A_108


 45 48  0  0  0  0  0  0  0  0999 V2000
   26.4163   11.8293   23.5974 C   0  0  0  0  0  0  0  0  0  0  0  0
   26.6813   10.6691   23.3222 O   0  0  0  0  0  0  0  0  0  0  0  0
   26.9871   12.8425   22.9019 N   0  0  0  0  0  0  0  0  0  0  0  0
   26.8311   14.2924   23.2566 C   0  0  0  0  0  0  0  0  0  0  0  0
   26.5294   15.1945   22.0188 C   0  0  0  0  0  0  0  0  0  0  0  0
   27.5097   14.9121   20.8604 C   0  0  0  0  0  0  0  0  0  0  0  0
   27.6036   13.4072   20.5350 C   0  0  0  0  0  0  0  0  0  0  0  0
   27.9308   12.5703   21.7860 C   0  0  0  0  0  0  0  0  0  0  0  0
   25.4936   12.0878   24.7180 C   0  0  0  0  0  0  0  0  0  0  0  0
   24.5368   12.9495   24.3095 F   0  0  0  0  0  0  0  0  0  0  0  0
   24.8792   10.9266   24.9989 F   0  0  0  0  0  0  0  0  0  0  0  0
   26.1509   12.5387   25.9911 C   0  0  0  0  0  0  0  0  0  0  0  0
   25.6272   13.5878   26.7703 C   0  0  0  0  0  0  0  0  0  0  0  0
   26.2487   13.9291   27.9982 C   0  0  0  0  0  0  0  0  0  0  0  0
   27.3984   13.2141   28.4461 C   0  0  0  0  0  0  0  0  0  0  0  0
   27.9202   12.1643   27.6700 C   0  0  0  0  0  0  0  0  0  0  0  0
   27.2992   11.8299   26.4428 C   0  0  0  0  0  0  0  0  0  0  0  0
   25.7493   14.9578   28.7648 O   0  0  0  0  0  0  0  0  0  0  0  0
   24.3335   15.0709   28.9657 C   0  0  0  0  0  0  0  0  0  0  0  0
   29.0000   11.4344   28.1456 O   0  0  0  0  0  0  0  0  0  0  0  0
   29.9842   10.9410   27.2287 C   0  0  0  0  0  0  0  0  0  0  0  0
   28.0323   13.5669   29.6324 O   0  0  0  0  0  0  0  0  0  0  0  0
   27.5573   12.9706   30.8634 C   0  0  0  0  0  0  0  0  0  0  0  0
   29.3486   12.8645   22.2493 C   0  0  0  0  0  0  0  0  0  0  0  0
   30.2664   12.8278   21.4529 O   0  0  0  0  0  0  0  0  0  0  0  0
   29.6251   13.1727   23.5395 O   0  0  0  0  0  0  0  0  0  0  0  0
   30.6776   14.1298   23.7198 C   0  0  0  0  0  0  0  0  0  0  0  0
   31.6813   13.5805   24.7303 C   0  0  0  0  0  0  0  0  0  0  0  0
   32.0900   12.1448   24.3572 C   0  0  0  0  0  0  0  0  0  0  0  0
   33.1927   11.6919   25.2914 C   0  0  0  0  0  0  0  0  0  0  0  0
   33.8068   10.4287   24.7496 C   0  0  0  0  0  0  0  0  0  0  0  0
   34.2374    9.4088   25.6280 C   0  0  0  0  0  0  0  0  0  0  0  0
   34.7042    8.2480   25.1321 N   0  0  0  0  0  0  0  0  0  0  0  0
   34.7773    8.0220   23.7897 C   0  0  0  0  0  0  0  0  0  0  0  0
   34.3753    8.9990   22.8676 C   0  0  0  0  0  0  0  0  0  0  0  0
   33.8867   10.2172   23.3589 C   0  0  0  0  0  0  0  0  0  0  0  0
   30.1285   15.4887   24.1984 C   0  0  0  0  0  0  0  0  0  0  0  0
   29.5350   15.3951   25.5863 C   0  0  0  0  0  0  0  0  0  0  0  0
   29.7794   16.7204   26.3053 C   0  0  0  0  0  0  0  0  0  0  0  0
   28.4652   17.4474   26.4223 C   0  0  0  0  0  0  0  0  0  0  0  0
   28.4443   18.7886   26.8292 C   0  0  0  0  0  0  0  0  0  0  0  0
   27.2306   19.4685   26.9384 C   0  0  0  0  0  0  0  0  0  0  0  0
   26.0319   18.8056   26.6444 C   0  0  0  0  0  0  0  0  0  0  0  0
   26.0564   17.4620   26.2370 C   0  0  0  0  0  0  0  0  0  0  0  0
   27.2718   16.7837   26.1285 C   0  0  0  0  0  0  0  0  0  0  0  0
 12 13  2  0  0  0
 12 17  1  0  0  0
 12  9  1  0  0  0
 13 14  1  0  0  0
 14 15  2  0  0  0
 14 18  1  0  0  0
 15 16  1  0  0  0
 15 22  1  0  0  0
 16 17  2  0  0  0
 16 20  1  0  0  0
 18 19  1  0  0  0
 22 23  1  0  0  0
 20 21  1  0  0  0
  9 10  1  0  0  0
  9 11  1  0  0  0
  9  1  1  0  0  0
  1  2  2  0  0  0
  1  3  1  0  0  0
  3  4  1  0  0  0
  3  8  1  0  0  0
  4  5  1  0  0  0
  5  6  1  0  0  0
  6  7  1  0  0  0
  7  8  1  0  0  0
  8 24  1  0  0  0
 24 25  2  0  0  0
 24 26  1  0  0  0
 26 27  1  0  0  0
 27 28  1  0  0  0
 27 37  1  0  0  0
 28 29  1  0  0  0
 29 30  1  0  0  0
 30 31  1  0  0  0
 31 32  2  0  0  0
 31 36  1  0  0  0
 32 33  1  0  0  0
 33 34  2  0  0  0
 34 35  1  0  0  0
 35 36  2  0  0  0
 37 38  1  0  0  0
 38 39  1  0  0  0
 39 40  1  0  0  0
 40 41  2  0  0  0
 40 45  1  0  0  0
 41 42  1  0  0  0
 42 43  2  0  0  0
 43 44  1  0  0  0
 44 45  2  0  0  0
M  END
> <minimizedAffinity>
-7.85571

$$$$
1J4R_001_A_108


 45 48  0  0  0  0  0  0  0  0999 V2000
   26.3541   11.8059   23.5451 C   0  0  0  0  0  0  0  0  0  0  0  0
   26.5818   10.6418   23.2535 O   0  0  0  0  0  0  0  0  0  0  0  0
   26.9585   12.8100   22.8649 N   0  0  0  0  0  0  0  0  0  0  0  0
   26.8490   14.2590   23.2403 C   0  0  0  0  0  0  0  0  0  0  0  0
   26.5788   15.1881   22.0152 C   0  0  0  0  0  0  0  0  0  0  0  0
   27.5514   14.8906   20.8541 C   0  0  0  0  0  0  0  0  0  0  0  0
   27.5970   13.3883   20.5072 C   0  0  0  0  0  0  0  0  0  0  0  0
   27.8948   12.5234   21.7464 C   0  0  0  0  0  0  0  0  0  0  0  0
   25.4384   12.0781   24.6681 C   0  0  0  0  0  0  0  0  0  0  0  0
   24.4250   12.8567   24.2301 F   0  0  0  0  0  0  0  0  0  0  0  0
   24.8989   10.9025   25.0309 F   0  0  0  0  0  0  0  0  0  0  0  0
   26.0911   12.6426   25.8975 C   0  0  0  0  0  0  0  0  0  0  0  0
   25.4287   13.5528   26.7430 C   0  0  0  0  0  0  0  0  0  0  0  0
   26.0653   14.0032   27.9272 C   0  0  0  0  0  0  0  0  0  0  0  0
   27.3702   13.5371   28.2647 C   0  0  0  0  0  0  0  0  0  0  0  0
   28.0311   12.6258   27.4225 C   0  0  0  0  0  0  0  0  0  0  0  0
   27.3936   12.1823   26.2391 C   0  0  0  0  0  0  0  0  0  0  0  0
   25.4298   14.8986   28.7577 O   0  0  0  0  0  0  0  0  0  0  0  0
   25.0262   16.1771   28.2473 C   0  0  0  0  0  0  0  0  0  0  0  0
   29.2731   12.1305   27.7927 O   0  0  0  0  0  0  0  0  0  0  0  0
   29.7207   10.8725   27.2732 C   0  0  0  0  0  0  0  0  0  0  0  0
   28.0131   14.0016   29.4068 O   0  0  0  0  0  0  0  0  0  0  0  0
   28.7718   15.2311   29.3104 C   0  0  0  0  0  0  0  0  0  0  0  0
   29.3206   12.7648   22.2155 C   0  0  0  0  0  0  0  0  0  0  0  0
   30.2305   12.7752   21.4093 O   0  0  0  0  0  0  0  0  0  0  0  0
   29.6131   12.9737   23.5220 O   0  0  0  0  0  0  0  0  0  0  0  0
   30.7348   13.8349   23.7598 C   0  0  0  0  0  0  0  0  0  0  0  0
   31.5222   13.3069   24.9562 C   0  0  0  0  0  0  0  0  0  0  0  0
   32.4374   12.1464   24.5284 C   0  0  0  0  0  0  0  0  0  0  0  0
   33.2405   12.5774   23.3188 C   0  0  0  0  0  0  0  0  0  0  0  0
   33.9096   11.3698   22.7185 C   0  0  0  0  0  0  0  0  0  0  0  0
   34.7938   11.5115   21.6251 C   0  0  0  0  0  0  0  0  0  0  0  0
   35.4540   10.4384   21.1517 N   0  0  0  0  0  0  0  0  0  0  0  0
   35.2936    9.2009   21.7004 C   0  0  0  0  0  0  0  0  0  0  0  0
   34.4225    8.9945   22.7798 C   0  0  0  0  0  0  0  0  0  0  0  0
   33.7222   10.0957   23.2902 C   0  0  0  0  0  0  0  0  0  0  0  0
   30.2862   15.2877   24.0159 C   0  0  0  0  0  0  0  0  0  0  0  0
   31.3702   16.0973   24.6915 C   0  0  0  0  0  0  0  0  0  0  0  0
   30.7051   17.1392   25.5888 C   0  0  0  0  0  0  0  0  0  0  0  0
   31.0456   18.5084   25.0611 C   0  0  0  0  0  0  0  0  0  0  0  0
   31.8341   18.6353   23.9091 C   0  0  0  0  0  0  0  0  0  0  0  0
   32.1522   19.9006   23.4140 C   0  0  0  0  0  0  0  0  0  0  0  0
   31.6849   21.0446   24.0741 C   0  0  0  0  0  0  0  0  0  0  0  0
   30.8952   20.9140   25.2279 C   0  0  0  0  0  0  0  0  0  0  0  0
   30.5782   19.6471   25.7215 C   0  0  0  0  0  0  0  0  0  0  0  0
 12 13  2  0  0  0
 12 17  1  0  0  0
 12  9  1  0  0  0
 13 14  1  0  0  0
 14 15  2  0  0  0
 14 18  1  0  0  0
 15 16  1  0  0  0
 15 22  1  0  0  0
 16 17  2  0  0  0
 16 20  1  0  0  0
 18 19  1  0  0  0
 22 23  1  0  0  0
 20 21  1  0  0  0
  9 10  1  0  0  0
  9 11  1  0  0  0
  9  1  1  0  0  0
  1  2  2  0  0  0
  1  3  1  0  0  0
  3  4  1  0  0  0
  3  8  1  0  0  0
  4  5  1  0  0  0
  5  6  1  0  0  0
  6  7  1  0  0  0
  7  8  1  0  0  0
  8 24  1  0  0  0
 24 25  2  0  0  0
 24 26  1  0  0  0
 26 27  1  0  0  0
 27 28  1  0  0  0
 27 37  1  0  0  0
 28 29  1  0  0  0
 29 30  1  0  0  0
 30 31  1  0  0  0
 31 32  2  0  0  0
 31 36  1  0  0  0
 32 33  1  0  0  0
 33 34  2  0  0  0
 34 35  1  0  0  0
 35 36  2  0  0  0
 37 38  1  0  0  0
 38 39  1  0  0  0
 39 40  1  0  0  0
 40 41  2  0  0  0
 40 45  1  0  0  0
 41 42  1  0  0  0
 42 43  2  0  0  0
 43 44  1  0  0  0
 44 45  2  0  0  0
M  END
> <minimizedAffinity>
-7.73075

$$$$
1J4R_001_A_108


 45 48  0  0  0  0  0  0  0  0999 V2000
   26.4196   11.8553   23.5530 C   0  0  0  0  0  0  0  0  0  0  0  0
   26.6790   10.6925   23.2839 O   0  0  0  0  0  0  0  0  0  0  0  0
   27.0277   12.8627   22.8809 N   0  0  0  0  0  0  0  0  0  0  0  0
   26.8782   14.3137   23.2342 C   0  0  0  0  0  0  0  0  0  0  0  0
   26.6321   15.2227   21.9892 C   0  0  0  0  0  0  0  0  0  0  0  0
   27.6488   14.9302   20.8652 C   0  0  0  0  0  0  0  0  0  0  0  0
   27.7344   13.4250   20.5389 C   0  0  0  0  0  0  0  0  0  0  0  0
   28.0064   12.5808   21.7982 C   0  0  0  0  0  0  0  0  0  0  0  0
   25.4615   12.1232   24.6412 C   0  0  0  0  0  0  0  0  0  0  0  0
   24.4573   12.8903   24.1637 F   0  0  0  0  0  0  0  0  0  0  0  0
   24.9204   10.9440   24.9894 F   0  0  0  0  0  0  0  0  0  0  0  0
   26.0642   12.6988   25.8909 C   0  0  0  0  0  0  0  0  0  0  0  0
   25.4648   13.7672   26.5847 C   0  0  0  0  0  0  0  0  0  0  0  0
   26.0389   14.2284   27.7964 C   0  0  0  0  0  0  0  0  0  0  0  0
   27.2173   13.6142   28.3141 C   0  0  0  0  0  0  0  0  0  0  0  0
   27.8147   12.5452   27.6233 C   0  0  0  0  0  0  0  0  0  0  0  0
   27.2407   12.0910   26.4119 C   0  0  0  0  0  0  0  0  0  0  0  0
   25.4653   15.2770   28.4796 O   0  0  0  0  0  0  0  0  0  0  0  0
   24.1518   15.1277   29.0366 C   0  0  0  0  0  0  0  0  0  0  0  0
   28.9235   11.9142   28.1684 O   0  0  0  0  0  0  0  0  0  0  0  0
   29.7658   11.1097   27.3340 C   0  0  0  0  0  0  0  0  0  0  0  0
   27.8041   14.0847   29.4837 O   0  0  0  0  0  0  0  0  0  0  0  0
   27.3368   13.5487   30.7450 C   0  0  0  0  0  0  0  0  0  0  0  0
   29.4108   12.8552   22.3118 C   0  0  0  0  0  0  0  0  0  0  0  0
   30.2988   13.1334   21.5295 O   0  0  0  0  0  0  0  0  0  0  0  0
   29.7075   12.8008   23.6328 O   0  0  0  0  0  0  0  0  0  0  0  0
   30.6658   13.7706   24.0773 C   0  0  0  0  0  0  0  0  0  0  0  0
   31.9630   13.0553   24.4457 C   0  0  0  0  0  0  0  0  0  0  0  0
   32.4881   13.5572   25.8020 C   0  0  0  0  0  0  0  0  0  0  0  0
   33.9331   13.9813   25.6402 C   0  0  0  0  0  0  0  0  0  0  0  0
   34.0442   15.4580   25.9110 C   0  0  0  0  0  0  0  0  0  0  0  0
   33.5263   16.0072   27.1058 C   0  0  0  0  0  0  0  0  0  0  0  0
   33.7074   17.3125   27.3790 N   0  0  0  0  0  0  0  0  0  0  0  0
   34.3833   18.1342   26.5267 C   0  0  0  0  0  0  0  0  0  0  0  0
   34.9113   17.6509   25.3208 C   0  0  0  0  0  0  0  0  0  0  0  0
   34.7347   16.2953   25.0125 C   0  0  0  0  0  0  0  0  0  0  0  0
   30.1382   14.5732   25.2835 C   0  0  0  0  0  0  0  0  0  0  0  0
   29.8486   16.0112   24.9155 C   0  0  0  0  0  0  0  0  0  0  0  0
   31.0216   16.5443   24.0951 C   0  0  0  0  0  0  0  0  0  0  0  0
   31.2530   17.9833   24.4755 C   0  0  0  0  0  0  0  0  0  0  0  0
   31.9305   18.8371   23.5941 C   0  0  0  0  0  0  0  0  0  0  0  0
   32.1472   20.1717   23.9396 C   0  0  0  0  0  0  0  0  0  0  0  0
   31.6894   20.6553   25.1723 C   0  0  0  0  0  0  0  0  0  0  0  0
   31.0111   19.7973   26.0529 C   0  0  0  0  0  0  0  0  0  0  0  0
   30.7955   18.4624   25.7052 C   0  0  0  0  0  0  0  0  0  0  0  0
 12 13  2  0  0  0
 12 17  1  0  0  0
 12  9  1  0  0  0
 13 14  1  0  0  0
 14 15  2  0  0  0
 14 18  1  0  0  0
 15 16  1  0  0  0
 15 22  1  0  0  0
 16 17  2  0  0  0
 16 20  1  0  0  0
 18 19  1  0  0  0
 22 23  1  0  0  0
 20 21  1  0  0  0
  9 10  1  0  0  0
  9 11  1  0  0  0
  9  1  1  0  0  0
  1  2  2  0  0  0
  1  3  1  0  0  0
  3  4  1  0  0  0
  3  8  1  0  0  0
  4  5  1  0  0  0
  5  6  1  0  0  0
  6  7  1  0  0  0
  7  8  1  0  0  0
  8 24  1  0  0  0
 24 25  2  0  0  0
 24 26  1  0  0  0
 26 27  1  0  0  0
 27 28  1  0  0  0
 27 37  1  0  0  0
 28 29  1  0  0  0
 29 30  1  0  0  0
 30 31  1  0  0  0
 31 32  2  0  0  0
 31 36  1  0  0  0
 32 33  1  0  0  0
 33 34  2  0  0  0
 34 35  1  0  0  0
 35 36  2  0  0  0
 37 38  1  0  0  0
 38 39  1  0  0  0
 39 40  1  0  0  0
 40 41  2  0  0  0
 40 45  1  0  0  0
 41 42  1  0  0  0
 42 43  2  0  0  0
 43 44  1  0  0  0
 44 45  2  0  0  0
M  END
> <minimizedAffinity>
-7.52118

$$$$
1J4R_001_A_108


 45 48  0  0  0  0  0  0  0  0999 V2000
   26.3871   11.8365   23.5280 C   0  0  0  0  0  0  0  0  0  0  0  0
   26.6586   10.6755   23.2624 O   0  0  0  0  0  0  0  0  0  0  0  0
   26.9891   12.8481   22.8569 N   0  0  0  0  0  0  0  0  0  0  0  0
   26.8244   14.2983   23.2066 C   0  0  0  0  0  0  0  0  0  0  0  0
   26.5760   15.2026   21.9586 C   0  0  0  0  0  0  0  0  0  0  0  0
   27.6009   14.9175   20.8402 C   0  0  0  0  0  0  0  0  0  0  0  0
   27.7021   13.4125   20.5173 C   0  0  0  0  0  0  0  0  0  0  0  0
   27.9758   12.5733   21.7795 C   0  0  0  0  0  0  0  0  0  0  0  0
   25.4212   12.0975   24.6110 C   0  0  0  0  0  0  0  0  0  0  0  0
   24.4072   12.8457   24.1245 F   0  0  0  0  0  0  0  0  0  0  0  0
   24.8969   10.9127   24.9658 F   0  0  0  0  0  0  0  0  0  0  0  0
   26.0107   12.6912   25.8584 C   0  0  0  0  0  0  0  0  0  0  0  0
   25.4011   13.7658   26.5335 C   0  0  0  0  0  0  0  0  0  0  0  0
   25.9628   14.2446   27.7442 C   0  0  0  0  0  0  0  0  0  0  0  0
   27.1390   13.6417   28.2799 C   0  0  0  0  0  0  0  0  0  0  0  0
   27.7465   12.5665   27.6079 C   0  0  0  0  0  0  0  0  0  0  0  0
   27.1849   12.0947   26.3973 C   0  0  0  0  0  0  0  0  0  0  0  0
   25.3791   15.2994   28.4090 O   0  0  0  0  0  0  0  0  0  0  0  0
   24.1153   15.1151   29.0622 C   0  0  0  0  0  0  0  0  0  0  0  0
   28.8529   11.9467   28.1706 O   0  0  0  0  0  0  0  0  0  0  0  0
   29.5808   10.9696   27.4168 C   0  0  0  0  0  0  0  0  0  0  0  0
   27.7136   14.1292   29.4485 O   0  0  0  0  0  0  0  0  0  0  0  0
   27.2492   13.5949   30.7116 C   0  0  0  0  0  0  0  0  0  0  0  0
   29.3749   12.8617   22.2995 C   0  0  0  0  0  0  0  0  0  0  0  0
   30.2917   13.0204   21.5170 O   0  0  0  0  0  0  0  0  0  0  0  0
   29.6356   12.9509   23.6262 O   0  0  0  0  0  0  0  0  0  0  0  0
   30.9250   13.4861   23.9540 C   0  0  0  0  0  0  0  0  0  0  0  0
   31.7372   12.4169   24.6802 C   0  0  0  0  0  0  0  0  0  0  0  0
   32.6232   11.6461   23.6862 C   0  0  0  0  0  0  0  0  0  0  0  0
   33.4426   12.6397   22.8893 C   0  0  0  0  0  0  0  0  0  0  0  0
   34.7034   11.9675   22.4150 C   0  0  0  0  0  0  0  0  0  0  0  0
   34.6363   10.8105   21.6062 C   0  0  0  0  0  0  0  0  0  0  0  0
   35.7658   10.2677   21.1152 N   0  0  0  0  0  0  0  0  0  0  0  0
   36.9905   10.8055   21.3783 C   0  0  0  0  0  0  0  0  0  0  0  0
   37.1230   11.9464   22.1828 C   0  0  0  0  0  0  0  0  0  0  0  0
   35.9618   12.5297   22.7074 C   0  0  0  0  0  0  0  0  0  0  0  0
   30.8053   14.7504   24.8283 C   0  0  0  0  0  0  0  0  0  0  0  0
   31.9998   14.9148   25.7412 C   0  0  0  0  0  0  0  0  0  0  0  0
   32.9776   15.8875   25.0849 C   0  0  0  0  0  0  0  0  0  0  0  0
   34.3747   15.3558   25.2714 C   0  0  0  0  0  0  0  0  0  0  0  0
   34.5905   14.2315   26.0801 C   0  0  0  0  0  0  0  0  0  0  0  0
   35.8819   13.7328   26.2561 C   0  0  0  0  0  0  0  0  0  0  0  0
   36.9634   14.3619   25.6256 C   0  0  0  0  0  0  0  0  0  0  0  0
   36.7437   15.4880   24.8160 C   0  0  0  0  0  0  0  0  0  0  0  0
   35.4508   15.9852   24.6414 C   0  0  0  0  0  0  0  0  0  0  0  0
 12 13  2  0  0  0
 12 17  1  0  0  0
 12  9  1  0  0  0
 13 14  1  0  0  0
 14 15  2  0  0  0
 14 18  1  0  0  0
 15 16  1  0  0  0
 15 22  1  0  0  0
 16 17  2  0  0  0
 16 20  1  0  0  0
 18 19  1  0  0  0
 22 23  1  0  0  0
 20 21  1  0  0  0
  9 10  1  0  0  0
  9 11  1  0  0  0
  9  1  1  0  0  0
  1  2  2  0  0  0
  1  3  1  0  0  0
  3  4  1  0  0  0
  3  8  1  0  0  0
  4  5  1  0  0  0
  5  6  1  0  0  0
  6  7  1  0  0  0
  7  8  1  0  0  0
  8 24  1  0  0  0
 24 25  2  0  0  0
 24 26  1  0  0  0
 26 27  1  0  0  0
 27 28  1  0  0  0
 27 37  1  0  0  0
 28 29  1  0  0  0
 29 30  1  0  0  0
 30 31  1  0  0  0
 31 32  2  0  0  0
 31 36  1  0  0  0
 32 33  1  0  0  0
 33 34  2  0  0  0
 34 35  1  0  0  0
 35 36  2  0  0  0
 37 38  1  0  0  0
 38 39  1  0  0  0
 39 40  1  0  0  0
 40 41  2  0  0  0
 40 45  1  0  0  0
 41 42  1  0  0  0
 42 43  2  0  0  0
 43 44  1  0  0  0
 44 45  2  0  0  0
M  END
> <minimizedAffinity>
-7.27486

$$$$
1J4R_001_A_108


 45 48  0  0  0  0  0  0  0  0999 V2000
   30.4182   11.8232   28.1446 C   0  0  0  0  0  0  0  0  0  0  0  0
   30.0611   10.8322   27.5261 O   0  0  0  0  0  0  0  0  0  0  0  0
   29.5932   12.3913   29.0571 N   0  0  0  0  0  0  0  0  0  0  0  0
   29.8877   13.6840   29.7605 C   0  0  0  0  0  0  0  0  0  0  0  0
   29.5993   13.6241   31.2935 C   0  0  0  0  0  0  0  0  0  0  0  0
   28.2042   13.0309   31.5840 C   0  0  0  0  0  0  0  0  0  0  0  0
   27.9785   11.6942   30.8481 C   0  0  0  0  0  0  0  0  0  0  0  0
   28.2498   11.8197   29.3371 C   0  0  0  0  0  0  0  0  0  0  0  0
   31.7449   12.3925   27.8453 C   0  0  0  0  0  0  0  0  0  0  0  0
   31.6347   13.7353   27.7465 F   0  0  0  0  0  0  0  0  0  0  0  0
   32.5300   12.1421   28.9062 F   0  0  0  0  0  0  0  0  0  0  0  0
   32.4383   11.7955   26.6541 C   0  0  0  0  0  0  0  0  0  0  0  0
   33.3925   10.7684   26.7834 C   0  0  0  0  0  0  0  0  0  0  0  0
   33.9678   10.1933   25.6220 C   0  0  0  0  0  0  0  0  0  0  0  0
   33.5826   10.6494   24.3267 C   0  0  0  0  0  0  0  0  0  0  0  0
   32.6275   11.6729   24.1968 C   0  0  0  0  0  0  0  0  0  0  0  0
   32.0592   12.2471   25.3590 C   0  0  0  0  0  0  0  0  0  0  0  0
   34.9070    9.1933   25.7367 O   0  0  0  0  0  0  0  0  0  0  0  0
   34.4806    7.8387   25.9390 C   0  0  0  0  0  0  0  0  0  0  0  0
   32.2137   12.0645   22.9318 O   0  0  0  0  0  0  0  0  0  0  0  0
   31.3239   13.1782   22.7876 C   0  0  0  0  0  0  0  0  0  0  0  0
   34.1686   10.1130   23.1855 O   0  0  0  0  0  0  0  0  0  0  0  0
   35.3724   10.7377   22.6785 C   0  0  0  0  0  0  0  0  0  0  0  0
   27.1899   12.6982   28.6921 C   0  0  0  0  0  0  0  0  0  0  0  0
   26.1056   12.8307   29.2256 O   0  0  0  0  0  0  0  0  0  0  0  0
   27.4196   13.3490   27.5261 O   0  0  0  0  0  0  0  0  0  0  0  0
   27.2847   12.5431   26.3476 C   0  0  0  0  0  0  0  0  0  0  0  0
   28.3333   12.9763   25.3263 C   0  0  0  0  0  0  0  0  0  0  0  0
   29.0037   14.2893   25.7669 C   0  0  0  0  0  0  0  0  0  0  0  0
   28.5617   15.4000   24.8368 C   0  0  0  0  0  0  0  0  0  0  0  0
   27.7060   16.3716   25.6048 C   0  0  0  0  0  0  0  0  0  0  0  0
   26.2983   16.2468   25.5965 C   0  0  0  0  0  0  0  0  0  0  0  0
   25.5468   17.0657   26.3554 N   0  0  0  0  0  0  0  0  0  0  0  0
   26.1084   18.0268   27.1423 C   0  0  0  0  0  0  0  0  0  0  0  0
   27.4984   18.2070   27.1852 C   0  0  0  0  0  0  0  0  0  0  0  0
   28.3030   17.3677   26.4028 C   0  0  0  0  0  0  0  0  0  0  0  0
   25.8712   12.6600   25.7430 C   0  0  0  0  0  0  0  0  0  0  0  0
   25.7700   11.9453   24.4141 C   0  0  0  0  0  0  0  0  0  0  0  0
   25.1506   12.9027   23.3979 C   0  0  0  0  0  0  0  0  0  0  0  0
   26.2140   13.2971   22.4065 C   0  0  0  0  0  0  0  0  0  0  0  0
   27.1286   12.3393   21.9472 C   0  0  0  0  0  0  0  0  0  0  0  0
   28.1154   12.6975   21.0277 C   0  0  0  0  0  0  0  0  0  0  0  0
   28.1925   14.0187   20.5680 C   0  0  0  0  0  0  0  0  0  0  0  0
   27.2747   14.9757   21.0301 C   0  0  0  0  0  0  0  0  0  0  0  0
   26.2883   14.6152   21.9500 C   0  0  0  0  0  0  0  0  0  0  0  0
 12 13  2  0  0  0
 12 17  1  0  0  0
 12  9  1  0  0  0
 13 14  1  0  0  0
 14 15  2  0  0  0
 14 18  1  0  0  0
 15 16  1  0  0  0
 15 22  1  0  0  0
 16 17  2  0  0  0
 16 20  1  0  0  0
 18 19  1  0  0  0
 22 23  1  0  0  0
 20 21  1  0  0  0
  9 10  1  0  0  0
  9 11  1  0  0  0
  9  1  1  0  0  0
  1  2  2  0  0  0
  1  3  1  0  0  0
  3  4  1  0  0  0
  3  8  1  0  0  0
  4  5  1  0  0  0
  5  6  1  0  0  0
  6  7  1  0  0  0
  7  8  1  0  0  0
  8 24  1  0  0  0
 24 25  2  0  0  0
 24 26  1  0  0  0
 26 27  1  0  0  0
 27 28  1  0  0  0
 27 37  1  0  0  0
 28 29  1  0  0  0
 29 30  1  0  0  0
 30 31  1  0  0  0
 31 32  2  0  0  0
 31 36  1  0  0  0
 32 33  1  0  0  0
 33 34  2  0  0  0
 34 35  1  0  0  0
 35 36  2  0  0  0
 37 38  1  0  0  0
 38 39  1  0  0  0
 39 40  1  0  0  0
 40 41  2  0  0  0
 40 45  1  0  0  0
 41 42  1  0  0  0
 42 43  2  0  0  0
 43 44  1  0  0  0
 44 45  2  0  0  0
M  END
> <minimizedAffinity>
-7.26563

$$$$
1J4R_001_A_108


 45 48  0  0  0  0  0  0  0  0999 V2000
   35.1219   10.4334   23.5888 C   0  0  0  0  0  0  0  0  0  0  0  0
   34.4991    9.4674   24.0023 O   0  0  0  0  0  0  0  0  0  0  0  0
   34.6068   11.6806   23.7124 N   0  0  0  0  0  0  0  0  0  0  0  0
   35.2314   12.9067   23.1132 C   0  0  0  0  0  0  0  0  0  0  0  0
   35.2786   14.1132   24.1027 C   0  0  0  0  0  0  0  0  0  0  0  0
   33.9096   14.3462   24.7767 C   0  0  0  0  0  0  0  0  0  0  0  0
   33.3380   13.0511   25.3895 C   0  0  0  0  0  0  0  0  0  0  0  0
   33.2886   11.9048   24.3620 C   0  0  0  0  0  0  0  0  0  0  0  0
   36.4195   10.1975   22.9297 C   0  0  0  0  0  0  0  0  0  0  0  0
   37.3346   11.0480   23.4437 F   0  0  0  0  0  0  0  0  0  0  0  0
   36.8106    8.9560   23.2617 F   0  0  0  0  0  0  0  0  0  0  0  0
   36.3875   10.2450   21.4287 C   0  0  0  0  0  0  0  0  0  0  0  0
   37.2355   11.0927   20.6908 C   0  0  0  0  0  0  0  0  0  0  0  0
   37.2122   11.0496   19.2737 C   0  0  0  0  0  0  0  0  0  0  0  0
   36.3363   10.1515   18.5953 C   0  0  0  0  0  0  0  0  0  0  0  0
   35.4915    9.3024   19.3316 C   0  0  0  0  0  0  0  0  0  0  0  0
   35.5149    9.3521   20.7460 C   0  0  0  0  0  0  0  0  0  0  0  0
   38.0319   11.8790   18.5419 O   0  0  0  0  0  0  0  0  0  0  0  0
   39.3988   11.5072   18.3160 C   0  0  0  0  0  0  0  0  0  0  0  0
   34.6901    8.3886   18.6627 O   0  0  0  0  0  0  0  0  0  0  0  0
   35.1579    7.0503   18.4554 C   0  0  0  0  0  0  0  0  0  0  0  0
   36.2845   10.1292   17.2059 O   0  0  0  0  0  0  0  0  0  0  0  0
   37.2410    9.3021   16.5006 C   0  0  0  0  0  0  0  0  0  0  0  0
   32.2520   12.2120   23.2931 C   0  0  0  0  0  0  0  0  0  0  0  0
   32.4775   11.9323   22.1317 O   0  0  0  0  0  0  0  0  0  0  0  0
   31.0672   12.7941   23.5987 O   0  0  0  0  0  0  0  0  0  0  0  0
   30.6345   13.8038   22.6770 C   0  0  0  0  0  0  0  0  0  0  0  0
   30.0522   14.9767   23.4617 C   0  0  0  0  0  0  0  0  0  0  0  0
   29.9325   14.6199   24.9535 C   0  0  0  0  0  0  0  0  0  0  0  0
   28.4654   14.5108   25.3139 C   0  0  0  0  0  0  0  0  0  0  0  0
   28.3001   13.4682   26.3872 C   0  0  0  0  0  0  0  0  0  0  0  0
   27.2064   13.5281   27.2802 C   0  0  0  0  0  0  0  0  0  0  0  0
   27.0188   12.5445   28.1795 N   0  0  0  0  0  0  0  0  0  0  0  0
   27.8633   11.4773   28.2584 C   0  0  0  0  0  0  0  0  0  0  0  0
   28.9721   11.3664   27.4070 C   0  0  0  0  0  0  0  0  0  0  0  0
   29.1902   12.3786   26.4627 C   0  0  0  0  0  0  0  0  0  0  0  0
   29.5888   13.2530   21.6869 C   0  0  0  0  0  0  0  0  0  0  0  0
   28.4929   14.2587   21.4133 C   0  0  0  0  0  0  0  0  0  0  0  0
   27.2435   13.5009   20.9683 C   0  0  0  0  0  0  0  0  0  0  0  0
   26.6397   12.8296   22.1741 C   0  0  0  0  0  0  0  0  0  0  0  0
   26.9195   11.4810   22.4344 C   0  0  0  0  0  0  0  0  0  0  0  0
   26.3646   10.8533   23.5503 C   0  0  0  0  0  0  0  0  0  0  0  0
   25.5230   11.5736   24.4081 C   0  0  0  0  0  0  0  0  0  0  0  0
   25.2448   12.9245   24.1445 C   0  0  0  0  0  0  0  0  0  0  0  0
   25.8010   13.5505   23.0274 C   0  0  0  0  0  0  0  0  0  0  0  0
 12 13  2  0  0  0
 12 17  1  0  0  0
 12  9  1  0  0  0
 13 14  1  0  0  0
 14 15  2  0  0  0
 14 18  1  0  0  0
 15 16  1  0  0  0
 15 22  1  0  0  0
 16 17  2  0  0  0
 16 20  1  0  0  0
 18 19  1  0  0  0
 22 23  1  0  0  0
 20 21  1  0  0  0
  9 10  1  0  0  0
  9 11  1  0  0  0
  9  1  1  0  0  0
  1  2  2  0  0  0
  1  3  1  0  0  0
  3  4  1  0  0  0
  3  8  1  0  0  0
  4  5  1  0  0  0
  5  6  1  0  0  0
  6  7  1  0  0  0
  7  8  1  0  0  0
  8 24  1  0  0  0
 24 25  2  0  0  0
 24 26  1  0  0  0
 26 27  1  0  0  0
 27 28  1  0  0  0
 27 37  1  0  0  0
 28 29  1  0  0  0
 29 30  1  0  0  0
 30 31  1  0  0  0
 31 32  2  0  0  0
 31 36  1  0  0  0
 32 33  1  0  0  0
 33 34  2  0  0  0
 34 35  1  0  0  0
 35 36  2  0  0  0
 37 38  1  0  0  0
 38 39  1  0  0  0
 39 40  1  0  0  0
 40 41  2  0  0  0
 40 45  1  0  0  0
 41 42  1  0  0  0
 42 43  2  0  0  0
 43 44  1  0  0  0
 44 45  2  0  0  0
M  END
> <minimizedAffinity>
-7.25134

$$$$
1J4R_001_A_108


 45 48  0  0  0  0  0  0  0  0999 V2000
   30.2803   11.6746   27.9091 C   0  0  0  0  0  0  0  0  0  0  0  0
   29.8619   10.8162   27.1475 O   0  0  0  0  0  0  0  0  0  0  0  0
   29.4617   12.2137   28.8447 N   0  0  0  0  0  0  0  0  0  0  0  0
   29.8445   13.3659   29.7270 C   0  0  0  0  0  0  0  0  0  0  0  0
   29.4507   13.1472   31.2216 C   0  0  0  0  0  0  0  0  0  0  0  0
   27.9843   12.6847   31.3585 C   0  0  0  0  0  0  0  0  0  0  0  0
   27.6674   11.4853   30.4417 C   0  0  0  0  0  0  0  0  0  0  0  0
   28.0498   11.7679   28.9767 C   0  0  0  0  0  0  0  0  0  0  0  0
   31.6768   12.1224   27.7569 C   0  0  0  0  0  0  0  0  0  0  0  0
   31.7026   13.4722   27.7084 F   0  0  0  0  0  0  0  0  0  0  0  0
   32.3313   11.7592   28.8723 F   0  0  0  0  0  0  0  0  0  0  0  0
   32.4207   11.5036   26.6080 C   0  0  0  0  0  0  0  0  0  0  0  0
   32.2453   11.9432   25.2821 C   0  0  0  0  0  0  0  0  0  0  0  0
   33.0222   11.3706   24.2432 C   0  0  0  0  0  0  0  0  0  0  0  0
   33.9793   10.3549   24.5366 C   0  0  0  0  0  0  0  0  0  0  0  0
   34.1572    9.9175   25.8609 C   0  0  0  0  0  0  0  0  0  0  0  0
   33.3763   10.4888   26.8940 C   0  0  0  0  0  0  0  0  0  0  0  0
   32.8541   11.7878   22.9421 O   0  0  0  0  0  0  0  0  0  0  0  0
   31.7421   12.6288   22.6042 C   0  0  0  0  0  0  0  0  0  0  0  0
   35.1351    8.9748   26.1434 O   0  0  0  0  0  0  0  0  0  0  0  0
   35.0800    8.2391   27.3717 C   0  0  0  0  0  0  0  0  0  0  0  0
   34.7194    9.7657   23.5174 O   0  0  0  0  0  0  0  0  0  0  0  0
   34.1804    8.5833   22.8786 C   0  0  0  0  0  0  0  0  0  0  0  0
   27.1339   12.8352   28.3993 C   0  0  0  0  0  0  0  0  0  0  0  0
   26.0260   13.0029   28.8707 O   0  0  0  0  0  0  0  0  0  0  0  0
   27.5199   13.6178   27.3627 O   0  0  0  0  0  0  0  0  0  0  0  0
   27.4330   12.9980   26.0725 C   0  0  0  0  0  0  0  0  0  0  0  0
   28.6121   13.4583   25.2193 C   0  0  0  0  0  0  0  0  0  0  0  0
   28.3834   14.8936   24.7145 C   0  0  0  0  0  0  0  0  0  0  0  0
   29.6284   15.3611   23.9896 C   0  0  0  0  0  0  0  0  0  0  0  0
   30.5748   15.9756   24.9860 C   0  0  0  0  0  0  0  0  0  0  0  0
   30.0970   16.8754   25.9655 C   0  0  0  0  0  0  0  0  0  0  0  0
   30.9342   17.3515   26.9057 N   0  0  0  0  0  0  0  0  0  0  0  0
   32.2478   16.9892   26.9429 C   0  0  0  0  0  0  0  0  0  0  0  0
   32.7836   16.1085   25.9923 C   0  0  0  0  0  0  0  0  0  0  0  0
   31.9326   15.5998   25.0018 C   0  0  0  0  0  0  0  0  0  0  0  0
   26.1025   13.3384   25.3716 C   0  0  0  0  0  0  0  0  0  0  0  0
   25.6237   12.2014   24.4970 C   0  0  0  0  0  0  0  0  0  0  0  0
   25.0340   12.7926   23.2180 C   0  0  0  0  0  0  0  0  0  0  0  0
   26.1689   13.2107   22.3200 C   0  0  0  0  0  0  0  0  0  0  0  0
   27.1920   12.3008   22.0200 C   0  0  0  0  0  0  0  0  0  0  0  0
   28.2456   12.6811   21.1877 C   0  0  0  0  0  0  0  0  0  0  0  0
   28.2805   13.9768   20.6559 C   0  0  0  0  0  0  0  0  0  0  0  0
   27.2539   14.8859   20.9584 C   0  0  0  0  0  0  0  0  0  0  0  0
   26.2008   14.5033   21.7914 C   0  0  0  0  0  0  0  0  0  0  0  0
 12 13  2  0  0  0
 12 17  1  0  0  0
 12  9  1  0  0  0
 13 14  1  0  0  0
 14 15  2  0  0  0
 14 18  1  0  0  0
 15 16  1  0  0  0
 15 22  1  0  0  0
 16 17  2  0  0  0
 16 20  1  0  0  0
 18 19  1  0  0  0
 22 23  1  0  0  0
 20 21  1  0  0  0
  9 10  1  0  0  0
  9 11  1  0  0  0
  9  1  1  0  0  0
  1  2  2  0  0  0
  1  3  1  0  0  0
  3  4  1  0  0  0
  3  8  1  0  0  0
  4  5  1  0  0  0
  5  6  1  0  0  0
  6  7  1  0  0  0
  7  8  1  0  0  0
  8 24  1  0  0  0
 24 25  2  0  0  0
 24 26  1  0  0  0
 26 27  1  0  0  0
 27 28  1  0  0  0
 27 37  1  0  0  0
 28 29  1  0  0  0
 29 30  1  0  0  0
 30 31  1  0  0  0
 31 32  2  0  0  0
 31 36  1  0  0  0
 32 33  1  0  0  0
 33 34  2  0  0  0
 34 35  1  0  0  0
 35 36  2  0  0  0
 37 38  1  0  0  0
 38 39  1  0  0  0
 39 40  1  0  0  0
 40 41  2  0  0  0
 40 45  1  0  0  0
 41 42  1  0  0  0
 42 43  2  0  0  0
 43 44  1  0  0  0
 44 45  2  0  0  0
M  END
> <minimizedAffinity>
-7.12287

$$$$
1J4R_001_A_108


 45 48  0  0  0  0  0  0  0  0999 V2000
   26.4221   11.7841   23.5639 C   0  0  0  0  0  0  0  0  0  0  0  0
   26.6682   10.6251   23.2670 O   0  0  0  0  0  0  0  0  0  0  0  0
   27.0023   12.8008   22.8813 N   0  0  0  0  0  0  0  0  0  0  0  0
   26.8699   14.2465   23.2618 C   0  0  0  0  0  0  0  0  0  0  0  0
   26.5723   15.1739   22.0419 C   0  0  0  0  0  0  0  0  0  0  0  0
   27.5399   14.8972   20.8714 C   0  0  0  0  0  0  0  0  0  0  0  0
   27.6095   13.3969   20.5198 C   0  0  0  0  0  0  0  0  0  0  0  0
   27.9338   12.5342   21.7539 C   0  0  0  0  0  0  0  0  0  0  0  0
   25.5115   12.0366   24.6957 C   0  0  0  0  0  0  0  0  0  0  0  0
   24.5211   12.8598   24.2877 F   0  0  0  0  0  0  0  0  0  0  0  0
   24.9388   10.8630   25.0106 F   0  0  0  0  0  0  0  0  0  0  0  0
   26.1766   12.5335   25.9475 C   0  0  0  0  0  0  0  0  0  0  0  0
   27.3988   12.0042   26.4035 C   0  0  0  0  0  0  0  0  0  0  0  0
   28.0177   12.5555   27.5541 C   0  0  0  0  0  0  0  0  0  0  0  0
   27.4086   13.6424   28.2479 C   0  0  0  0  0  0  0  0  0  0  0  0
   26.1895   14.1735   27.7912 C   0  0  0  0  0  0  0  0  0  0  0  0
   25.5731   13.6172   26.6449 C   0  0  0  0  0  0  0  0  0  0  0  0
   29.2094   12.0412   28.0131 O   0  0  0  0  0  0  0  0  0  0  0  0
   29.8212   10.9424   27.3231 C   0  0  0  0  0  0  0  0  0  0  0  0
   25.6384   15.2713   28.4361 O   0  0  0  0  0  0  0  0  0  0  0  0
   25.6000   16.5406   27.7725 C   0  0  0  0  0  0  0  0  0  0  0  0
   27.9934   14.1643   29.3964 O   0  0  0  0  0  0  0  0  0  0  0  0
   28.9631   15.2289   29.2450 C   0  0  0  0  0  0  0  0  0  0  0  0
   29.3591   12.8000   22.2113 C   0  0  0  0  0  0  0  0  0  0  0  0
   30.2582   12.8511   21.3947 O   0  0  0  0  0  0  0  0  0  0  0  0
   29.6627   12.9866   23.5186 O   0  0  0  0  0  0  0  0  0  0  0  0
   30.9077   13.6560   23.7602 C   0  0  0  0  0  0  0  0  0  0  0  0
   31.7801   12.7766   24.6523 C   0  0  0  0  0  0  0  0  0  0  0  0
   32.8785   12.0897   23.8224 C   0  0  0  0  0  0  0  0  0  0  0  0
   34.0890   11.8646   24.7044 C   0  0  0  0  0  0  0  0  0  0  0  0
   34.7123   13.1954   25.0311 C   0  0  0  0  0  0  0  0  0  0  0  0
   35.0007   13.5406   26.3708 C   0  0  0  0  0  0  0  0  0  0  0  0
   35.6370   14.6944   26.6452 N   0  0  0  0  0  0  0  0  0  0  0  0
   36.0166   15.5539   25.6575 C   0  0  0  0  0  0  0  0  0  0  0  0
   35.7492   15.2724   24.3100 C   0  0  0  0  0  0  0  0  0  0  0  0
   35.0862   14.0778   23.9982 C   0  0  0  0  0  0  0  0  0  0  0  0
   30.6893   15.0330   24.4185 C   0  0  0  0  0  0  0  0  0  0  0  0
   31.8677   15.4366   25.2761 C   0  0  0  0  0  0  0  0  0  0  0  0
   31.5295   16.7543   25.9706 C   0  0  0  0  0  0  0  0  0  0  0  0
   32.2461   17.8680   25.2528 C   0  0  0  0  0  0  0  0  0  0  0  0
   31.6162   18.5321   24.1912 C   0  0  0  0  0  0  0  0  0  0  0  0
   32.2738   19.5656   23.5227 C   0  0  0  0  0  0  0  0  0  0  0  0
   33.5678   19.9350   23.9127 C   0  0  0  0  0  0  0  0  0  0  0  0
   34.1960   19.2677   24.9766 C   0  0  0  0  0  0  0  0  0  0  0  0
   33.5362   18.2339   25.6439 C   0  0  0  0  0  0  0  0  0  0  0  0
 12 13  2  0  0  0
 12 17  1  0  0  0
 12  9  1  0  0  0
 13 14  1  0  0  0
 14 15  2  0  0  0
 14 18  1  0  0  0
 15 16  1  0  0  0
 15 22  1  0  0  0
 16 17  2  0  0  0
 16 20  1  0  0  0
 18 19  1  0  0  0
 22 23  1  0  0  0
 20 21  1  0  0  0
  9 10  1  0  0  0
  9 11  1  0  0  0
  9  1  1  0  0  0
  1  2  2  0  0  0
  1  3  1  0  0  0
  3  4  1  0  0  0
  3  8  1  0  0  0
  4  5  1  0  0  0
  5  6  1  0  0  0
  6  7  1  0  0  0
  7  8  1  0  0  0
  8 24  1  0  0  0
 24 25  2  0  0  0
 24 26  1  0  0  0
 26 27  1  0  0  0
 27 28  1  0  0  0
 27 37  1  0  0  0
 28 29  1  0  0  0
 29 30  1  0  0  0
 30 31  1  0  0  0
 31 32  2  0  0  0
 31 36  1  0  0  0
 32 33  1  0  0  0
 33 34  2  0  0  0
 34 35  1  0  0  0
 35 36  2  0  0  0
 37 38  1  0  0  0
 38 39  1  0  0  0
 39 40  1  0  0  0
 40 41  2  0  0  0
 40 45  1  0  0  0
 41 42  1  0  0  0
 42 43  2  0  0  0
 43 44  1  0  0  0
 44 45  2  0  0  0
M  END
> <minimizedAffinity>
-7.10171

$$$$
