5NJZ_8ZH_A_1001


 36 39  0  0  0  0  0  0  0  0999 V2000
  -99.0593  -18.8082   43.5096 N   0  0  0  0  0  0  0  0  0  0  0  0
  -99.1944  -18.6362   42.5497 H   0  0  0  0  0  0  0  0  0  0  0  0
  -96.3979  -17.9842   45.8208 C   0  0  0  0  0  0  0  0  0  0  0  0
  -97.6602  -18.1399   45.2622 C   0  0  0  0  0  0  0  0  0  0  0  0
  -95.2584  -18.3858   45.1363 C   0  0  0  0  0  0  0  0  0  0  0  0
  -95.3848  -18.9347   43.8724 C   0  0  0  0  0  0  0  0  0  0  0  0
  -96.6483  -19.0803   43.3199 C   0  0  0  0  0  0  0  0  0  0  0  0
  -97.8031  -18.6797   43.9891 C   0  0  0  0  0  0  0  0  0  0  0  0
  -97.2645  -17.8274   47.8983 N   0  0  0  0  0  0  0  0  0  0  0  0
  -96.2534  -17.4620   47.0973 C   0  0  0  0  0  0  0  0  0  0  0  0
  -95.3190  -16.7172   47.3959 O   0  0  0  0  0  0  0  0  0  0  0  0
  -97.9406  -18.4303   47.5127 H   0  0  0  0  0  0  0  0  0  0  0  0
  -96.6356  -18.2816   50.2201 C   0  0  0  0  0  0  0  0  0  0  0  0
  -96.6176  -17.5986   51.5785 C   0  0  0  0  0  0  0  0  0  0  0  0
  -97.7655  -16.6874   51.7430 N   0  0  0  0  0  0  0  0  0  0  0  0
  -98.9999  -17.3073   51.2263 C   0  0  0  0  0  0  0  0  0  0  0  0
  -98.9289  -17.4765   49.7107 C   0  0  0  0  0  0  0  0  0  0  0  0
  -97.4627  -17.4163   49.2955 C   0  0  0  0  0  0  0  0  0  0  0  0
  -97.5842  -15.8243   51.2305 H   0  0  0  0  0  0  0  0  0  0  0  0
 -100.1426  -19.1513   44.2317 C   0  0  0  0  0  0  0  0  0  0  0  0
 -100.2498  -20.0656   45.6388 S   0  0  0  0  0  0  0  0  0  0  0  0
 -101.3909  -18.7921   43.8740 N   0  0  0  0  0  0  0  0  0  0  0  0
 -102.3685  -19.2260   44.7126 C   0  0  0  0  0  0  0  0  0  0  0  0
 -101.9247  -19.9583   45.7496 C   0  0  0  0  0  0  0  0  0  0  0  0
 -102.6498  -20.5254   46.7394 C   0  0  0  0  0  0  0  0  0  0  0  0
 -102.1351  -20.6749   47.8475 O   0  0  0  0  0  0  0  0  0  0  0  0
 -103.9211  -20.9188   46.4618 N   0  0  0  0  0  0  0  0  0  0  0  0
 -104.2903  -20.8070   45.5561 H   0  0  0  0  0  0  0  0  0  0  0  0
 -104.6795  -21.4705   47.4527 C   0  0  0  0  0  0  0  0  0  0  0  0
 -105.3641  -20.6554   48.3649 C   0  0  0  0  0  0  0  0  0  0  0  0
 -105.3143  -18.9274   48.2882 Cl  0  0  0  0  0  0  0  0  0  0  0  0
 -106.1264  -21.2419   49.3741 C   0  0  0  0  0  0  0  0  0  0  0  0
 -106.2106  -22.6254   49.4882 C   0  0  0  0  0  0  0  0  0  0  0  0
 -105.5181  -23.4304   48.5840 C   0  0  0  0  0  0  0  0  0  0  0  0
 -104.7514  -22.8633   47.5666 C   0  0  0  0  0  0  0  0  0  0  0  0
 -104.0752  -23.7106   46.6818 C   0  0  0  0  0  0  0  0  0  0  0  0
 14 15  1  0  0  0
 14 13  1  0  0  0
 16 15  1  0  0  0
 16 17  1  0  0  0
 13 18  1  0  0  0
 11 10  2  0  0  0
 17 18  1  0  0  0
 18  9  1  0  0  0
 10  9  1  0  0  0
 10  3  1  0  0  0
  4  3  2  0  0  0
  4  8  1  0  0  0
  3  5  1  0  0  0
  1  8  1  0  0  0
  1 20  1  0  0  0
 22 20  2  0  0  0
 22 23  1  0  0  0
  8  7  2  0  0  0
 20 21  1  0  0  0
 23 24  2  0  0  0
  5  6  2  0  0  0
  7  6  1  0  0  0
 24 21  1  0  0  0
 24 25  1  0  0  0
 31 30  1  0  0  0
 27 25  1  0  0  0
 27 29  1  0  0  0
 25 26  2  0  0  0
 30 29  2  0  0  0
 30 32  1  0  0  0
 29 35  1  0  0  0
 32 33  2  0  0  0
 35 36  1  0  0  0
 35 34  2  0  0  0
 33 34  1  0  0  0
 15 19  1  0  0  0
  9 12  1  0  0  0
  1  2  1  0  0  0
 27 28  1  0  0  0
M  END
> <minimizedAffinity>
-10.74161

$$$$
5NJZ_8ZH_A_1001


 36 39  0  0  0  0  0  0  0  0999 V2000
  -99.1577  -18.7115   43.5507 N   0  0  0  0  0  0  0  0  0  0  0  0
  -99.3106  -18.4747   42.6074 H   0  0  0  0  0  0  0  0  0  0  0  0
  -96.4439  -17.9641   45.8267 C   0  0  0  0  0  0  0  0  0  0  0  0
  -97.7173  -18.0844   45.2851 C   0  0  0  0  0  0  0  0  0  0  0  0
  -95.3251  -18.3955   45.1264 C   0  0  0  0  0  0  0  0  0  0  0  0
  -95.4834  -18.9387   43.8637 C   0  0  0  0  0  0  0  0  0  0  0  0
  -96.7577  -19.0489   43.3281 C   0  0  0  0  0  0  0  0  0  0  0  0
  -97.8921  -18.6181   44.0134 C   0  0  0  0  0  0  0  0  0  0  0  0
  -97.2763  -17.7896   47.9167 N   0  0  0  0  0  0  0  0  0  0  0  0
  -96.2680  -17.4481   47.1019 C   0  0  0  0  0  0  0  0  0  0  0  0
  -95.3110  -16.7275   47.3881 O   0  0  0  0  0  0  0  0  0  0  0  0
  -97.9728  -18.3747   47.5401 H   0  0  0  0  0  0  0  0  0  0  0  0
  -96.5816  -18.2269   50.2230 C   0  0  0  0  0  0  0  0  0  0  0  0
  -96.5379  -17.5389   51.5783 C   0  0  0  0  0  0  0  0  0  0  0  0
  -97.6937  -16.6430   51.7695 N   0  0  0  0  0  0  0  0  0  0  0  0
  -98.9323  -17.2816   51.2869 C   0  0  0  0  0  0  0  0  0  0  0  0
  -98.8981  -17.4552   49.7704 C   0  0  0  0  0  0  0  0  0  0  0  0
  -97.4441  -17.3763   49.3174 C   0  0  0  0  0  0  0  0  0  0  0  0
  -97.5376  -15.7793   51.2498 H   0  0  0  0  0  0  0  0  0  0  0  0
 -100.2279  -19.1008   44.2688 C   0  0  0  0  0  0  0  0  0  0  0  0
 -100.3028  -20.0401   45.6615 S   0  0  0  0  0  0  0  0  0  0  0  0
 -101.4879  -18.7766   43.9184 N   0  0  0  0  0  0  0  0  0  0  0  0
 -102.4493  -19.2551   44.7514 C   0  0  0  0  0  0  0  0  0  0  0  0
 -101.9801  -19.9888   45.7762 C   0  0  0  0  0  0  0  0  0  0  0  0
 -102.6846  -20.5945   46.7579 C   0  0  0  0  0  0  0  0  0  0  0  0
 -102.1007  -20.9482   47.7822 O   0  0  0  0  0  0  0  0  0  0  0  0
 -104.0147  -20.7981   46.5642 N   0  0  0  0  0  0  0  0  0  0  0  0
 -104.4424  -20.5252   45.7205 H   0  0  0  0  0  0  0  0  0  0  0  0
 -104.7501  -21.3849   47.5522 C   0  0  0  0  0  0  0  0  0  0  0  0
 -104.8179  -22.7812   47.6577 C   0  0  0  0  0  0  0  0  0  0  0  0
 -103.9744  -23.8380   46.5779 Cl  0  0  0  0  0  0  0  0  0  0  0  0
 -105.5824  -23.3583   48.6707 C   0  0  0  0  0  0  0  0  0  0  0  0
 -106.2816  -22.5643   49.5733 C   0  0  0  0  0  0  0  0  0  0  0  0
 -106.2187  -21.1760   49.4559 C   0  0  0  0  0  0  0  0  0  0  0  0
 -105.4584  -20.5792   48.4506 C   0  0  0  0  0  0  0  0  0  0  0  0
 -105.4238  -19.1826   48.3726 C   0  0  0  0  0  0  0  0  0  0  0  0
 14 15  1  0  0  0
 14 13  1  0  0  0
 16 15  1  0  0  0
 16 17  1  0  0  0
 13 18  1  0  0  0
 11 10  2  0  0  0
 17 18  1  0  0  0
 18  9  1  0  0  0
 10  9  1  0  0  0
 10  3  1  0  0  0
  4  3  2  0  0  0
  4  8  1  0  0  0
  3  5  1  0  0  0
  1  8  1  0  0  0
  1 20  1  0  0  0
 22 20  2  0  0  0
 22 23  1  0  0  0
  8  7  2  0  0  0
 20 21  1  0  0  0
 23 24  2  0  0  0
  5  6  2  0  0  0
  7  6  1  0  0  0
 24 21  1  0  0  0
 24 25  1  0  0  0
 31 30  1  0  0  0
 27 25  1  0  0  0
 27 29  1  0  0  0
 25 26  2  0  0  0
 30 29  2  0  0  0
 30 32  1  0  0  0
 29 35  1  0  0  0
 32 33  2  0  0  0
 35 36  1  0  0  0
 35 34  2  0  0  0
 33 34  1  0  0  0
 15 19  1  0  0  0
  9 12  1  0  0  0
  1  2  1  0  0  0
 27 28  1  0  0  0
M  END
> <minimizedAffinity>
-10.66935

$$$$
5NJZ_8ZH_A_1001


 36 39  0  0  0  0  0  0  0  0999 V2000
  -99.1308  -18.5838   43.5749 N   0  0  0  0  0  0  0  0  0  0  0  0
  -99.2901  -18.2385   42.6668 H   0  0  0  0  0  0  0  0  0  0  0  0
  -96.3412  -18.0847   45.8272 C   0  0  0  0  0  0  0  0  0  0  0  0
  -97.6275  -18.1053   45.3033 C   0  0  0  0  0  0  0  0  0  0  0  0
  -95.2633  -18.5663   45.0961 C   0  0  0  0  0  0  0  0  0  0  0  0
  -95.4751  -19.0589   43.8205 C   0  0  0  0  0  0  0  0  0  0  0  0
  -96.7615  -19.0695   43.3029 C   0  0  0  0  0  0  0  0  0  0  0  0
  -97.8552  -18.5871   44.0193 C   0  0  0  0  0  0  0  0  0  0  0  0
  -94.9010  -17.9778   47.5610 N   0  0  0  0  0  0  0  0  0  0  0  0
  -96.1135  -17.6208   47.1141 C   0  0  0  0  0  0  0  0  0  0  0  0
  -96.9713  -17.0036   47.7467 O   0  0  0  0  0  0  0  0  0  0  0  0
  -94.3248  -18.4722   46.9342 H   0  0  0  0  0  0  0  0  0  0  0  0
  -93.7645  -16.3089   48.9451 C   0  0  0  0  0  0  0  0  0  0  0  0
  -93.5293  -15.9726   50.4092 C   0  0  0  0  0  0  0  0  0  0  0  0
  -93.4083  -17.1899   51.2329 N   0  0  0  0  0  0  0  0  0  0  0  0
  -92.5810  -18.2009   50.5486 C   0  0  0  0  0  0  0  0  0  0  0  0
  -93.2835  -18.7197   49.2963 C   0  0  0  0  0  0  0  0  0  0  0  0
  -94.3475  -17.7037   48.8948 C   0  0  0  0  0  0  0  0  0  0  0  0
  -94.3378  -17.5751   51.4001 H   0  0  0  0  0  0  0  0  0  0  0  0
 -100.2030  -19.0122   44.2673 C   0  0  0  0  0  0  0  0  0  0  0  0
 -100.2762  -19.8644   45.7150 S   0  0  0  0  0  0  0  0  0  0  0  0
 -101.4647  -18.8139   43.8381 N   0  0  0  0  0  0  0  0  0  0  0  0
 -102.4275  -19.3149   44.6560 C   0  0  0  0  0  0  0  0  0  0  0  0
 -101.9561  -19.9419   45.7484 C   0  0  0  0  0  0  0  0  0  0  0  0
 -102.6609  -20.5393   46.7349 C   0  0  0  0  0  0  0  0  0  0  0  0
 -102.1117  -20.7571   47.8148 O   0  0  0  0  0  0  0  0  0  0  0  0
 -103.9514  -20.8861   46.4850 N   0  0  0  0  0  0  0  0  0  0  0  0
 -104.3491  -20.7197   45.6000 H   0  0  0  0  0  0  0  0  0  0  0  0
 -104.6890  -21.4673   47.4746 C   0  0  0  0  0  0  0  0  0  0  0  0
 -105.3457  -20.6803   48.4310 C   0  0  0  0  0  0  0  0  0  0  0  0
 -105.2863  -18.9510   48.4128 Cl  0  0  0  0  0  0  0  0  0  0  0  0
 -106.0871  -21.2969   49.4379 C   0  0  0  0  0  0  0  0  0  0  0  0
 -106.1777  -22.6830   49.5062 C   0  0  0  0  0  0  0  0  0  0  0  0
 -105.5128  -23.4603   48.5580 C   0  0  0  0  0  0  0  0  0  0  0  0
 -104.7674  -22.8627   47.5421 C   0  0  0  0  0  0  0  0  0  0  0  0
 -104.1187  -23.6828   46.6123 C   0  0  0  0  0  0  0  0  0  0  0  0
 14 15  1  0  0  0
 14 13  1  0  0  0
 16 15  1  0  0  0
 16 17  1  0  0  0
 13 18  1  0  0  0
 11 10  2  0  0  0
 17 18  1  0  0  0
 18  9  1  0  0  0
 10  9  1  0  0  0
 10  3  1  0  0  0
  4  3  2  0  0  0
  4  8  1  0  0  0
  3  5  1  0  0  0
  1  8  1  0  0  0
  1 20  1  0  0  0
 22 20  2  0  0  0
 22 23  1  0  0  0
  8  7  2  0  0  0
 20 21  1  0  0  0
 23 24  2  0  0  0
  5  6  2  0  0  0
  7  6  1  0  0  0
 24 21  1  0  0  0
 24 25  1  0  0  0
 31 30  1  0  0  0
 27 25  1  0  0  0
 27 29  1  0  0  0
 25 26  2  0  0  0
 30 29  2  0  0  0
 30 32  1  0  0  0
 29 35  1  0  0  0
 32 33  2  0  0  0
 35 36  1  0  0  0
 35 34  2  0  0  0
 33 34  1  0  0  0
 15 19  1  0  0  0
  9 12  1  0  0  0
  1  2  1  0  0  0
 27 28  1  0  0  0
M  END
> <minimizedAffinity>
-10.17778

$$$$
5NJZ_8ZH_A_1001


 36 39  0  0  0  0  0  0  0  0999 V2000
  -99.0968  -18.5137   43.6519 N   0  0  0  0  0  0  0  0  0  0  0  0
  -99.2586  -18.0804   42.7828 H   0  0  0  0  0  0  0  0  0  0  0  0
  -95.5083  -18.9313   43.4231 C   0  0  0  0  0  0  0  0  0  0  0  0
  -96.8488  -18.8182   43.0772 C   0  0  0  0  0  0  0  0  0  0  0  0
  -95.0994  -18.8240   44.7458 C   0  0  0  0  0  0  0  0  0  0  0  0
  -96.0462  -18.6169   45.7335 C   0  0  0  0  0  0  0  0  0  0  0  0
  -97.3828  -18.5119   45.3798 C   0  0  0  0  0  0  0  0  0  0  0  0
  -97.8132  -18.6208   44.0589 C   0  0  0  0  0  0  0  0  0  0  0  0
  -93.5792  -19.9512   42.8489 N   0  0  0  0  0  0  0  0  0  0  0  0
  -94.5424  -19.1109   42.4444 C   0  0  0  0  0  0  0  0  0  0  0  0
  -94.5822  -18.5102   41.3699 O   0  0  0  0  0  0  0  0  0  0  0  0
  -93.6879  -20.3551   43.7401 H   0  0  0  0  0  0  0  0  0  0  0  0
  -92.7573  -21.1250   40.8640 C   0  0  0  0  0  0  0  0  0  0  0  0
  -91.5303  -21.1829   39.9679 C   0  0  0  0  0  0  0  0  0  0  0  0
  -90.2886  -20.9656   40.7333 N   0  0  0  0  0  0  0  0  0  0  0  0
  -90.3274  -21.7055   42.0084 C   0  0  0  0  0  0  0  0  0  0  0  0
  -91.3921  -21.1288   42.9383 C   0  0  0  0  0  0  0  0  0  0  0  0
  -92.3767  -20.3286   42.0923 C   0  0  0  0  0  0  0  0  0  0  0  0
  -90.1843  -19.9696   40.9270 H   0  0  0  0  0  0  0  0  0  0  0  0
 -100.1737  -18.9486   44.3327 C   0  0  0  0  0  0  0  0  0  0  0  0
 -100.2567  -19.8223   45.7671 S   0  0  0  0  0  0  0  0  0  0  0  0
 -101.4326  -18.7394   43.9007 N   0  0  0  0  0  0  0  0  0  0  0  0
 -102.4011  -19.2492   44.7066 C   0  0  0  0  0  0  0  0  0  0  0  0
 -101.9369  -19.8943   45.7915 C   0  0  0  0  0  0  0  0  0  0  0  0
 -102.6485  -20.5039   46.7657 C   0  0  0  0  0  0  0  0  0  0  0  0
 -102.1183  -20.7018   47.8588 O   0  0  0  0  0  0  0  0  0  0  0  0
 -103.9238  -20.8847   46.4892 N   0  0  0  0  0  0  0  0  0  0  0  0
 -104.3057  -20.7333   45.5945 H   0  0  0  0  0  0  0  0  0  0  0  0
 -104.6687  -21.4790   47.4656 C   0  0  0  0  0  0  0  0  0  0  0  0
 -105.3628  -20.7037   48.4049 C   0  0  0  0  0  0  0  0  0  0  0  0
 -105.3421  -18.9736   48.3809 Cl  0  0  0  0  0  0  0  0  0  0  0  0
 -106.1109  -21.3334   49.3986 C   0  0  0  0  0  0  0  0  0  0  0  0
 -106.1715  -22.7209   49.4706 C   0  0  0  0  0  0  0  0  0  0  0  0
 -105.4696  -23.4863   48.5396 C   0  0  0  0  0  0  0  0  0  0  0  0
 -104.7168  -22.8756   47.5370 C   0  0  0  0  0  0  0  0  0  0  0  0
 -104.0305  -23.6840   46.6242 C   0  0  0  0  0  0  0  0  0  0  0  0
 14 15  1  0  0  0
 14 13  1  0  0  0
 16 15  1  0  0  0
 16 17  1  0  0  0
 13 18  1  0  0  0
 11 10  2  0  0  0
 17 18  1  0  0  0
 18  9  1  0  0  0
 10  9  1  0  0  0
 10  3  1  0  0  0
  4  3  2  0  0  0
  4  8  1  0  0  0
  3  5  1  0  0  0
  1  8  1  0  0  0
  1 20  1  0  0  0
 22 20  2  0  0  0
 22 23  1  0  0  0
  8  7  2  0  0  0
 20 21  1  0  0  0
 23 24  2  0  0  0
  5  6  2  0  0  0
  7  6  1  0  0  0
 24 21  1  0  0  0
 24 25  1  0  0  0
 31 30  1  0  0  0
 27 25  1  0  0  0
 27 29  1  0  0  0
 25 26  2  0  0  0
 30 29  2  0  0  0
 30 32  1  0  0  0
 29 35  1  0  0  0
 32 33  2  0  0  0
 35 36  1  0  0  0
 35 34  2  0  0  0
 33 34  1  0  0  0
 15 19  1  0  0  0
  9 12  1  0  0  0
  1  2  1  0  0  0
 27 28  1  0  0  0
M  END
> <minimizedAffinity>
-9.93624

$$$$
5NJZ_8ZH_A_1001


 36 39  0  0  0  0  0  0  0  0999 V2000
  -99.1021  -18.8109   43.4231 N   0  0  0  0  0  0  0  0  0  0  0  0
  -99.2560  -18.6328   42.4672 H   0  0  0  0  0  0  0  0  0  0  0  0
  -95.5221  -18.2819   43.3345 C   0  0  0  0  0  0  0  0  0  0  0  0
  -96.8467  -18.4175   42.9388 C   0  0  0  0  0  0  0  0  0  0  0  0
  -95.1593  -18.3962   44.6701 C   0  0  0  0  0  0  0  0  0  0  0  0
  -96.1325  -18.6648   45.6164 C   0  0  0  0  0  0  0  0  0  0  0  0
  -97.4513  -18.8052   45.2115 C   0  0  0  0  0  0  0  0  0  0  0  0
  -97.8344  -18.6980   43.8759 C   0  0  0  0  0  0  0  0  0  0  0  0
  -93.9273  -16.8243   42.6838 N   0  0  0  0  0  0  0  0  0  0  0  0
  -94.5372  -17.9850   42.4045 C   0  0  0  0  0  0  0  0  0  0  0  0
  -94.3212  -18.7063   41.4297 O   0  0  0  0  0  0  0  0  0  0  0  0
  -94.2117  -16.3595   43.5037 H   0  0  0  0  0  0  0  0  0  0  0  0
  -91.5410  -16.8433   42.1378 C   0  0  0  0  0  0  0  0  0  0  0  0
  -90.5892  -16.3671   41.0518 C   0  0  0  0  0  0  0  0  0  0  0  0
  -91.0283  -15.0852   40.4694 N   0  0  0  0  0  0  0  0  0  0  0  0
  -91.4894  -14.1649   41.5254 C   0  0  0  0  0  0  0  0  0  0  0  0
  -92.7680  -14.6846   42.1779 C   0  0  0  0  0  0  0  0  0  0  0  0
  -92.8756  -16.1776   41.8861 C   0  0  0  0  0  0  0  0  0  0  0  0
  -91.7938  -15.2580   39.8178 H   0  0  0  0  0  0  0  0  0  0  0  0
 -100.1730  -19.1459   44.1670 C   0  0  0  0  0  0  0  0  0  0  0  0
 -100.2588  -20.0608   45.5752 S   0  0  0  0  0  0  0  0  0  0  0  0
 -101.4255  -18.7763   43.8352 N   0  0  0  0  0  0  0  0  0  0  0  0
 -102.3891  -19.2032   44.6933 C   0  0  0  0  0  0  0  0  0  0  0  0
 -101.9302  -19.9401   45.7204 C   0  0  0  0  0  0  0  0  0  0  0  0
 -102.6394  -20.5023   46.7243 C   0  0  0  0  0  0  0  0  0  0  0  0
 -102.1055  -20.6512   47.8233 O   0  0  0  0  0  0  0  0  0  0  0  0
 -103.9169  -20.8918   46.4705 N   0  0  0  0  0  0  0  0  0  0  0  0
 -104.3019  -20.7807   45.5712 H   0  0  0  0  0  0  0  0  0  0  0  0
 -104.6594  -21.4385   47.4760 C   0  0  0  0  0  0  0  0  0  0  0  0
 -105.3002  -20.6195   48.4161 C   0  0  0  0  0  0  0  0  0  0  0  0
 -105.2145  -18.8922   48.3573 Cl  0  0  0  0  0  0  0  0  0  0  0  0
 -106.0469  -21.2011   49.4398 C   0  0  0  0  0  0  0  0  0  0  0  0
 -106.1583  -22.5837   49.5407 C   0  0  0  0  0  0  0  0  0  0  0  0
 -105.5091  -23.3929   48.6086 C   0  0  0  0  0  0  0  0  0  0  0  0
 -104.7587  -22.8306   47.5763 C   0  0  0  0  0  0  0  0  0  0  0  0
 -104.1262  -23.6819   46.6636 C   0  0  0  0  0  0  0  0  0  0  0  0
 14 15  1  0  0  0
 14 13  1  0  0  0
 16 15  1  0  0  0
 16 17  1  0  0  0
 13 18  1  0  0  0
 11 10  2  0  0  0
 17 18  1  0  0  0
 18  9  1  0  0  0
 10  9  1  0  0  0
 10  3  1  0  0  0
  4  3  2  0  0  0
  4  8  1  0  0  0
  3  5  1  0  0  0
  1  8  1  0  0  0
  1 20  1  0  0  0
 22 20  2  0  0  0
 22 23  1  0  0  0
  8  7  2  0  0  0
 20 21  1  0  0  0
 23 24  2  0  0  0
  5  6  2  0  0  0
  7  6  1  0  0  0
 24 21  1  0  0  0
 24 25  1  0  0  0
 31 30  1  0  0  0
 27 25  1  0  0  0
 27 29  1  0  0  0
 25 26  2  0  0  0
 30 29  2  0  0  0
 30 32  1  0  0  0
 29 35  1  0  0  0
 32 33  2  0  0  0
 35 36  1  0  0  0
 35 34  2  0  0  0
 33 34  1  0  0  0
 15 19  1  0  0  0
  9 12  1  0  0  0
  1  2  1  0  0  0
 27 28  1  0  0  0
M  END
> <minimizedAffinity>
-9.80224

$$$$
5NJZ_8ZH_A_1001


 36 39  0  0  0  0  0  0  0  0999 V2000
  -98.4579  -18.6434   43.5821 N   0  0  0  0  0  0  0  0  0  0  0  0
  -98.5603  -18.2939   42.6674 H   0  0  0  0  0  0  0  0  0  0  0  0
  -94.8695  -19.1169   43.6340 C   0  0  0  0  0  0  0  0  0  0  0  0
  -96.1839  -19.0341   43.1923 C   0  0  0  0  0  0  0  0  0  0  0  0
  -94.5422  -18.8560   44.9581 C   0  0  0  0  0  0  0  0  0  0  0  0
  -95.5452  -18.5241   45.8517 C   0  0  0  0  0  0  0  0  0  0  0  0
  -96.8553  -18.4503   45.4035 C   0  0  0  0  0  0  0  0  0  0  0  0
  -97.2042  -18.7124   44.0800 C   0  0  0  0  0  0  0  0  0  0  0  0
  -94.2983  -20.1141   41.6922 N   0  0  0  0  0  0  0  0  0  0  0  0
  -93.8475  -19.4207   42.7473 C   0  0  0  0  0  0  0  0  0  0  0  0
  -92.6761  -19.1128   42.9712 O   0  0  0  0  0  0  0  0  0  0  0  0
  -95.2673  -20.2839   41.6537 H   0  0  0  0  0  0  0  0  0  0  0  0
  -93.2367  -19.5691   39.5547 C   0  0  0  0  0  0  0  0  0  0  0  0
  -92.1332  -20.0738   38.6383 C   0  0  0  0  0  0  0  0  0  0  0  0
  -92.0380  -21.5453   38.6631 N   0  0  0  0  0  0  0  0  0  0  0  0
  -93.3809  -22.1541   38.6336 C   0  0  0  0  0  0  0  0  0  0  0  0
  -94.1421  -21.8521   39.9221 C   0  0  0  0  0  0  0  0  0  0  0  0
  -93.4879  -20.6456   40.5870 C   0  0  0  0  0  0  0  0  0  0  0  0
  -91.5572  -21.8356   39.5146 H   0  0  0  0  0  0  0  0  0  0  0  0
  -99.5796  -19.0115   44.2293 C   0  0  0  0  0  0  0  0  0  0  0  0
  -99.7608  -19.7523   45.7279 S   0  0  0  0  0  0  0  0  0  0  0  0
 -100.8068  -18.8375   43.7012 N   0  0  0  0  0  0  0  0  0  0  0  0
 -101.8288  -19.2693   44.4862 C   0  0  0  0  0  0  0  0  0  0  0  0
 -101.4399  -19.8159   45.6518 C   0  0  0  0  0  0  0  0  0  0  0  0
 -102.2170  -20.3329   46.6294 C   0  0  0  0  0  0  0  0  0  0  0  0
 -101.7270  -20.5308   47.7412 O   0  0  0  0  0  0  0  0  0  0  0  0
 -103.5119  -20.6244   46.3361 N   0  0  0  0  0  0  0  0  0  0  0  0
 -103.8619  -20.4770   45.4278 H   0  0  0  0  0  0  0  0  0  0  0  0
 -104.3211  -21.1235   47.3146 C   0  0  0  0  0  0  0  0  0  0  0  0
 -104.4298  -22.5069   47.5138 C   0  0  0  0  0  0  0  0  0  0  0  0
 -103.5479  -23.6556   46.5668 Cl  0  0  0  0  0  0  0  0  0  0  0  0
 -105.2693  -22.9940   48.5147 C   0  0  0  0  0  0  0  0  0  0  0  0
 -106.0029  -22.1230   49.3131 C   0  0  0  0  0  0  0  0  0  0  0  0
 -105.8985  -20.7483   49.1022 C   0  0  0  0  0  0  0  0  0  0  0  0
 -105.0632  -20.2410   48.1073 C   0  0  0  0  0  0  0  0  0  0  0  0
 -104.9893  -18.8546   47.9333 C   0  0  0  0  0  0  0  0  0  0  0  0
 14 15  1  0  0  0
 14 13  1  0  0  0
 16 15  1  0  0  0
 16 17  1  0  0  0
 13 18  1  0  0  0
 11 10  2  0  0  0
 17 18  1  0  0  0
 18  9  1  0  0  0
 10  9  1  0  0  0
 10  3  1  0  0  0
  4  3  2  0  0  0
  4  8  1  0  0  0
  3  5  1  0  0  0
  1  8  1  0  0  0
  1 20  1  0  0  0
 22 20  2  0  0  0
 22 23  1  0  0  0
  8  7  2  0  0  0
 20 21  1  0  0  0
 23 24  2  0  0  0
  5  6  2  0  0  0
  7  6  1  0  0  0
 24 21  1  0  0  0
 24 25  1  0  0  0
 31 30  1  0  0  0
 27 25  1  0  0  0
 27 29  1  0  0  0
 25 26  2  0  0  0
 30 29  2  0  0  0
 30 32  1  0  0  0
 29 35  1  0  0  0
 32 33  2  0  0  0
 35 36  1  0  0  0
 35 34  2  0  0  0
 33 34  1  0  0  0
 15 19  1  0  0  0
  9 12  1  0  0  0
  1  2  1  0  0  0
 27 28  1  0  0  0
M  END
> <minimizedAffinity>
-9.69807

$$$$
5NJZ_8ZH_A_1001


 36 39  0  0  0  0  0  0  0  0999 V2000
  -98.7435  -18.6685   43.5812 N   0  0  0  0  0  0  0  0  0  0  0  0
  -98.8803  -18.2916   42.6821 H   0  0  0  0  0  0  0  0  0  0  0  0
  -95.1440  -19.0364   43.4733 C   0  0  0  0  0  0  0  0  0  0  0  0
  -96.4744  -18.9502   43.0834 C   0  0  0  0  0  0  0  0  0  0  0  0
  -94.7787  -18.8974   44.8058 C   0  0  0  0  0  0  0  0  0  0  0  0
  -95.7591  -18.6855   45.7590 C   0  0  0  0  0  0  0  0  0  0  0  0
  -97.0853  -18.6075   45.3616 C   0  0  0  0  0  0  0  0  0  0  0  0
  -97.4721  -18.7484   44.0302 C   0  0  0  0  0  0  0  0  0  0  0  0
  -93.1278  -19.9426   43.0200 N   0  0  0  0  0  0  0  0  0  0  0  0
  -94.1450  -19.2203   42.5292 C   0  0  0  0  0  0  0  0  0  0  0  0
  -94.2080  -18.7186   41.4060 O   0  0  0  0  0  0  0  0  0  0  0  0
  -93.2243  -20.2765   43.9411 H   0  0  0  0  0  0  0  0  0  0  0  0
  -92.1285  -21.3994   41.3254 C   0  0  0  0  0  0  0  0  0  0  0  0
  -90.9140  -21.4645   40.4127 C   0  0  0  0  0  0  0  0  0  0  0  0
  -89.7235  -20.8724   41.0507 N   0  0  0  0  0  0  0  0  0  0  0  0
  -89.6294  -21.2874   42.4627 C   0  0  0  0  0  0  0  0  0  0  0  0
  -90.7719  -20.6908   43.2809 C   0  0  0  0  0  0  0  0  0  0  0  0
  -91.8826  -20.2849   42.3180 C   0  0  0  0  0  0  0  0  0  0  0  0
  -89.7891  -19.8556   41.0040 H   0  0  0  0  0  0  0  0  0  0  0  0
  -99.8396  -19.0600   44.2577 C   0  0  0  0  0  0  0  0  0  0  0  0
  -99.9646  -19.8216   45.7517 S   0  0  0  0  0  0  0  0  0  0  0  0
 -101.0848  -18.8968   43.7696 N   0  0  0  0  0  0  0  0  0  0  0  0
 -102.0762  -19.3524   44.5800 C   0  0  0  0  0  0  0  0  0  0  0  0
 -101.6442  -19.9076   45.7262 C   0  0  0  0  0  0  0  0  0  0  0  0
 -102.3838  -20.4473   46.7205 C   0  0  0  0  0  0  0  0  0  0  0  0
 -101.8413  -20.7122   47.7932 O   0  0  0  0  0  0  0  0  0  0  0  0
 -103.7014  -20.6860   46.4861 N   0  0  0  0  0  0  0  0  0  0  0  0
 -104.0948  -20.4853   45.6062 H   0  0  0  0  0  0  0  0  0  0  0  0
 -104.4724  -21.2069   47.4839 C   0  0  0  0  0  0  0  0  0  0  0  0
 -104.5882  -22.5946   47.6456 C   0  0  0  0  0  0  0  0  0  0  0  0
 -103.7621  -23.7224   46.6257 Cl  0  0  0  0  0  0  0  0  0  0  0  0
 -105.3883  -23.1038   48.6674 C   0  0  0  0  0  0  0  0  0  0  0  0
 -106.0759  -22.2505   49.5237 C   0  0  0  0  0  0  0  0  0  0  0  0
 -105.9650  -20.8711   49.3503 C   0  0  0  0  0  0  0  0  0  0  0  0
 -105.1686  -20.3418   48.3353 C   0  0  0  0  0  0  0  0  0  0  0  0
 -105.0865  -18.9515   48.2004 C   0  0  0  0  0  0  0  0  0  0  0  0
 14 15  1  0  0  0
 14 13  1  0  0  0
 16 15  1  0  0  0
 16 17  1  0  0  0
 13 18  1  0  0  0
 11 10  2  0  0  0
 17 18  1  0  0  0
 18  9  1  0  0  0
 10  9  1  0  0  0
 10  3  1  0  0  0
  4  3  2  0  0  0
  4  8  1  0  0  0
  3  5  1  0  0  0
  1  8  1  0  0  0
  1 20  1  0  0  0
 22 20  2  0  0  0
 22 23  1  0  0  0
  8  7  2  0  0  0
 20 21  1  0  0  0
 23 24  2  0  0  0
  5  6  2  0  0  0
  7  6  1  0  0  0
 24 21  1  0  0  0
 24 25  1  0  0  0
 31 30  1  0  0  0
 27 25  1  0  0  0
 27 29  1  0  0  0
 25 26  2  0  0  0
 30 29  2  0  0  0
 30 32  1  0  0  0
 29 35  1  0  0  0
 32 33  2  0  0  0
 35 36  1  0  0  0
 35 34  2  0  0  0
 33 34  1  0  0  0
 15 19  1  0  0  0
  9 12  1  0  0  0
  1  2  1  0  0  0
 27 28  1  0  0  0
M  END
> <minimizedAffinity>
-9.57233

$$$$
5NJZ_8ZH_A_1001


 36 39  0  0  0  0  0  0  0  0999 V2000
  -97.8926  -19.0655   45.3665 N   0  0  0  0  0  0  0  0  0  0  0  0
  -97.4585  -19.3696   44.5369 H   0  0  0  0  0  0  0  0  0  0  0  0
  -96.9076  -17.6153   48.5336 C   0  0  0  0  0  0  0  0  0  0  0  0
  -97.6542  -18.2417   47.5438 C   0  0  0  0  0  0  0  0  0  0  0  0
  -95.6032  -17.2042   48.2933 C   0  0  0  0  0  0  0  0  0  0  0  0
  -95.0472  -17.4091   47.0428 C   0  0  0  0  0  0  0  0  0  0  0  0
  -95.8021  -18.0291   46.0587 C   0  0  0  0  0  0  0  0  0  0  0  0
  -97.1137  -18.4451   46.2793 C   0  0  0  0  0  0  0  0  0  0  0  0
  -98.6597  -17.9674   49.9112 N   0  0  0  0  0  0  0  0  0  0  0  0
  -97.4380  -17.4266   49.8010 C   0  0  0  0  0  0  0  0  0  0  0  0
  -96.8415  -16.7891   50.6698 O   0  0  0  0  0  0  0  0  0  0  0  0
  -99.0047  -18.4488   49.1247 H   0  0  0  0  0  0  0  0  0  0  0  0
 -100.1382  -19.2726   51.3615 C   0  0  0  0  0  0  0  0  0  0  0  0
 -100.7390  -19.2282   52.7576 C   0  0  0  0  0  0  0  0  0  0  0  0
 -101.0393  -17.8461   53.1755 N   0  0  0  0  0  0  0  0  0  0  0  0
 -101.6494  -17.0885   52.0670 C   0  0  0  0  0  0  0  0  0  0  0  0
 -100.6459  -16.8793   50.9356 C   0  0  0  0  0  0  0  0  0  0  0  0
  -99.5348  -17.9123   51.0910 C   0  0  0  0  0  0  0  0  0  0  0  0
 -100.1741  -17.3864   53.4591 H   0  0  0  0  0  0  0  0  0  0  0  0
  -99.2115  -19.3035   45.4940 C   0  0  0  0  0  0  0  0  0  0  0  0
 -100.0444  -20.1105   46.7116 S   0  0  0  0  0  0  0  0  0  0  0  0
 -100.1081  -18.9097   44.5686 N   0  0  0  0  0  0  0  0  0  0  0  0
 -101.3967  -19.2353   44.8523 C   0  0  0  0  0  0  0  0  0  0  0  0
 -101.5568  -19.9139   46.0024 C   0  0  0  0  0  0  0  0  0  0  0  0
 -102.7063  -20.3739   46.5447 C   0  0  0  0  0  0  0  0  0  0  0  0
 -103.7686  -20.1689   45.9576 O   0  0  0  0  0  0  0  0  0  0  0  0
 -102.6389  -21.0375   47.7292 N   0  0  0  0  0  0  0  0  0  0  0  0
 -101.7737  -21.1597   48.1829 H   0  0  0  0  0  0  0  0  0  0  0  0
 -103.7838  -21.5324   48.2821 C   0  0  0  0  0  0  0  0  0  0  0  0
 -104.3094  -22.7599   47.8555 C   0  0  0  0  0  0  0  0  0  0  0  0
 -103.5484  -23.7253   46.6376 Cl  0  0  0  0  0  0  0  0  0  0  0  0
 -105.4851  -23.2416   48.4295 C   0  0  0  0  0  0  0  0  0  0  0  0
 -106.1437  -22.5155   49.4160 C   0  0  0  0  0  0  0  0  0  0  0  0
 -105.6212  -21.2897   49.8279 C   0  0  0  0  0  0  0  0  0  0  0  0
 -104.4455  -20.7912   49.2673 C   0  0  0  0  0  0  0  0  0  0  0  0
 -103.9581  -19.5577   49.7130 C   0  0  0  0  0  0  0  0  0  0  0  0
 14 15  1  0  0  0
 14 13  1  0  0  0
 16 15  1  0  0  0
 16 17  1  0  0  0
 13 18  1  0  0  0
 11 10  2  0  0  0
 17 18  1  0  0  0
 18  9  1  0  0  0
 10  9  1  0  0  0
 10  3  1  0  0  0
  4  3  2  0  0  0
  4  8  1  0  0  0
  3  5  1  0  0  0
  1  8  1  0  0  0
  1 20  1  0  0  0
 22 20  2  0  0  0
 22 23  1  0  0  0
  8  7  2  0  0  0
 20 21  1  0  0  0
 23 24  2  0  0  0
  5  6  2  0  0  0
  7  6  1  0  0  0
 24 21  1  0  0  0
 24 25  1  0  0  0
 31 30  1  0  0  0
 27 25  1  0  0  0
 27 29  1  0  0  0
 25 26  2  0  0  0
 30 29  2  0  0  0
 30 32  1  0  0  0
 29 35  1  0  0  0
 32 33  2  0  0  0
 35 36  1  0  0  0
 35 34  2  0  0  0
 33 34  1  0  0  0
 15 19  1  0  0  0
  9 12  1  0  0  0
  1  2  1  0  0  0
 27 28  1  0  0  0
M  END
> <minimizedAffinity>
-9.32035

$$$$
5NJZ_8ZH_A_1001


 36 39  0  0  0  0  0  0  0  0999 V2000
  -98.7495  -18.7827   43.7809 N   0  0  0  0  0  0  0  0  0  0  0  0
  -98.6255  -18.6791   42.8097 H   0  0  0  0  0  0  0  0  0  0  0  0
  -96.7325  -18.0934   46.7067 C   0  0  0  0  0  0  0  0  0  0  0  0
  -97.8203  -18.2101   45.8509 C   0  0  0  0  0  0  0  0  0  0  0  0
  -95.4601  -18.4755   46.3023 C   0  0  0  0  0  0  0  0  0  0  0  0
  -95.2742  -18.9647   45.0213 C   0  0  0  0  0  0  0  0  0  0  0  0
  -96.3647  -19.0714   44.1715 C   0  0  0  0  0  0  0  0  0  0  0  0
  -97.6482  -18.6895   44.5574 C   0  0  0  0  0  0  0  0  0  0  0  0
  -95.7291  -17.4519   48.6232 N   0  0  0  0  0  0  0  0  0  0  0  0
  -96.9040  -17.6318   48.0030 C   0  0  0  0  0  0  0  0  0  0  0  0
  -98.0211  -17.4704   48.4960 O   0  0  0  0  0  0  0  0  0  0  0  0
  -94.9169  -17.6236   48.0939 H   0  0  0  0  0  0  0  0  0  0  0  0
  -94.1623  -16.4114   50.1902 C   0  0  0  0  0  0  0  0  0  0  0  0
  -94.1573  -15.6939   51.5308 C   0  0  0  0  0  0  0  0  0  0  0  0
  -95.1887  -16.2312   52.4377 N   0  0  0  0  0  0  0  0  0  0  0  0
  -95.2245  -17.7040   52.3702 C   0  0  0  0  0  0  0  0  0  0  0  0
  -95.7133  -18.1728   51.0019 C   0  0  0  0  0  0  0  0  0  0  0  0
  -95.5345  -17.0233   50.0157 C   0  0  0  0  0  0  0  0  0  0  0  0
  -96.0995  -15.8611   52.1659 H   0  0  0  0  0  0  0  0  0  0  0  0
 -100.0023  -19.0049   44.2210 C   0  0  0  0  0  0  0  0  0  0  0  0
 -100.5284  -19.7829   45.6159 S   0  0  0  0  0  0  0  0  0  0  0  0
 -101.0899  -18.6173   43.5266 N   0  0  0  0  0  0  0  0  0  0  0  0
 -102.2768  -18.9248   44.1131 C   0  0  0  0  0  0  0  0  0  0  0  0
 -102.1644  -19.5824   45.2808 C   0  0  0  0  0  0  0  0  0  0  0  0
 -103.1557  -20.0214   46.0880 C   0  0  0  0  0  0  0  0  0  0  0  0
 -104.3155  -19.6869   45.8470 O   0  0  0  0  0  0  0  0  0  0  0  0
 -102.8240  -20.8094   47.1449 N   0  0  0  0  0  0  0  0  0  0  0  0
 -101.8820  -21.0348   47.3215 H   0  0  0  0  0  0  0  0  0  0  0  0
 -103.8111  -21.2844   47.9580 C   0  0  0  0  0  0  0  0  0  0  0  0
 -104.3750  -22.5479   47.7325 C   0  0  0  0  0  0  0  0  0  0  0  0
 -103.8555  -23.5826   46.4466 Cl  0  0  0  0  0  0  0  0  0  0  0  0
 -105.3883  -23.0088   48.5719 C   0  0  0  0  0  0  0  0  0  0  0  0
 -105.8484  -22.2271   49.6260 C   0  0  0  0  0  0  0  0  0  0  0  0
 -105.2907  -20.9664   49.8379 C   0  0  0  0  0  0  0  0  0  0  0  0
 -104.2752  -20.4878   49.0107 C   0  0  0  0  0  0  0  0  0  0  0  0
 -103.7449  -19.2177   49.2625 C   0  0  0  0  0  0  0  0  0  0  0  0
 14 15  1  0  0  0
 14 13  1  0  0  0
 16 15  1  0  0  0
 16 17  1  0  0  0
 13 18  1  0  0  0
 11 10  2  0  0  0
 17 18  1  0  0  0
 18  9  1  0  0  0
 10  9  1  0  0  0
 10  3  1  0  0  0
  4  3  2  0  0  0
  4  8  1  0  0  0
  3  5  1  0  0  0
  1  8  1  0  0  0
  1 20  1  0  0  0
 22 20  2  0  0  0
 22 23  1  0  0  0
  8  7  2  0  0  0
 20 21  1  0  0  0
 23 24  2  0  0  0
  5  6  2  0  0  0
  7  6  1  0  0  0
 24 21  1  0  0  0
 24 25  1  0  0  0
 31 30  1  0  0  0
 27 25  1  0  0  0
 27 29  1  0  0  0
 25 26  2  0  0  0
 30 29  2  0  0  0
 30 32  1  0  0  0
 29 35  1  0  0  0
 32 33  2  0  0  0
 35 36  1  0  0  0
 35 34  2  0  0  0
 33 34  1  0  0  0
 15 19  1  0  0  0
  9 12  1  0  0  0
  1  2  1  0  0  0
 27 28  1  0  0  0
M  END
> <minimizedAffinity>
-9.18697

$$$$
5NJZ_8ZH_A_1001


 36 39  0  0  0  0  0  0  0  0999 V2000
  -98.0955  -18.9360   45.7427 N   0  0  0  0  0  0  0  0  0  0  0  0
  -97.6199  -19.0823   44.8932 H   0  0  0  0  0  0  0  0  0  0  0  0
  -95.3215  -17.4098   47.4975 C   0  0  0  0  0  0  0  0  0  0  0  0
  -96.1115  -17.9432   46.4872 C   0  0  0  0  0  0  0  0  0  0  0  0
  -95.7862  -17.3335   48.8039 C   0  0  0  0  0  0  0  0  0  0  0  0
  -97.0499  -17.8113   49.1030 C   0  0  0  0  0  0  0  0  0  0  0  0
  -97.8290  -18.3482   48.0894 C   0  0  0  0  0  0  0  0  0  0  0  0
  -97.3790  -18.4372   46.7734 C   0  0  0  0  0  0  0  0  0  0  0  0
  -94.0367  -16.2904   46.0184 N   0  0  0  0  0  0  0  0  0  0  0  0
  -94.0636  -16.9006   47.2119 C   0  0  0  0  0  0  0  0  0  0  0  0
  -93.1072  -17.0593   47.9716 O   0  0  0  0  0  0  0  0  0  0  0  0
  -94.8870  -16.2434   45.5246 H   0  0  0  0  0  0  0  0  0  0  0  0
  -93.1913  -14.2924   44.8846 C   0  0  0  0  0  0  0  0  0  0  0  0
  -91.8739  -13.6102   44.5507 C   0  0  0  0  0  0  0  0  0  0  0  0
  -90.8077  -14.5924   44.2798 N   0  0  0  0  0  0  0  0  0  0  0  0
  -91.3177  -15.6973   43.4468 C   0  0  0  0  0  0  0  0  0  0  0  0
  -92.3424  -16.5280   44.2153 C   0  0  0  0  0  0  0  0  0  0  0  0
  -92.8621  -15.6848   45.3748 C   0  0  0  0  0  0  0  0  0  0  0  0
  -90.4668  -14.9693   45.1642 H   0  0  0  0  0  0  0  0  0  0  0  0
  -99.4041  -19.2503   45.7774 C   0  0  0  0  0  0  0  0  0  0  0  0
 -100.2946  -20.0096   46.9848 S   0  0  0  0  0  0  0  0  0  0  0  0
 -100.2349  -18.9933   44.7483 N   0  0  0  0  0  0  0  0  0  0  0  0
 -101.5224  -19.3800   44.9482 C   0  0  0  0  0  0  0  0  0  0  0  0
 -101.7456  -19.9722   46.1349 C   0  0  0  0  0  0  0  0  0  0  0  0
 -102.9101  -20.4623   46.6150 C   0  0  0  0  0  0  0  0  0  0  0  0
 -103.9596  -20.1879   46.0331 O   0  0  0  0  0  0  0  0  0  0  0  0
 -102.8717  -21.2327   47.7343 N   0  0  0  0  0  0  0  0  0  0  0  0
 -102.0160  -21.4093   48.1880 H   0  0  0  0  0  0  0  0  0  0  0  0
 -104.0323  -21.7585   48.2219 C   0  0  0  0  0  0  0  0  0  0  0  0
 -104.7714  -21.0742   49.1970 C   0  0  0  0  0  0  0  0  0  0  0  0
 -104.2858  -19.5361   49.8234 Cl  0  0  0  0  0  0  0  0  0  0  0  0
 -105.9503  -21.6351   49.6862 C   0  0  0  0  0  0  0  0  0  0  0  0
 -106.3974  -22.8672   49.2212 C   0  0  0  0  0  0  0  0  0  0  0  0
 -105.6515  -23.5478   48.2591 C   0  0  0  0  0  0  0  0  0  0  0  0
 -104.4705  -23.0030   47.7559 C   0  0  0  0  0  0  0  0  0  0  0  0
 -103.7562  -23.7213   46.7906 C   0  0  0  0  0  0  0  0  0  0  0  0
 14 15  1  0  0  0
 14 13  1  0  0  0
 16 15  1  0  0  0
 16 17  1  0  0  0
 13 18  1  0  0  0
 11 10  2  0  0  0
 17 18  1  0  0  0
 18  9  1  0  0  0
 10  9  1  0  0  0
 10  3  1  0  0  0
  4  3  2  0  0  0
  4  8  1  0  0  0
  3  5  1  0  0  0
  1  8  1  0  0  0
  1 20  1  0  0  0
 22 20  2  0  0  0
 22 23  1  0  0  0
  8  7  2  0  0  0
 20 21  1  0  0  0
 23 24  2  0  0  0
  5  6  2  0  0  0
  7  6  1  0  0  0
 24 21  1  0  0  0
 24 25  1  0  0  0
 31 30  1  0  0  0
 27 25  1  0  0  0
 27 29  1  0  0  0
 25 26  2  0  0  0
 30 29  2  0  0  0
 30 32  1  0  0  0
 29 35  1  0  0  0
 32 33  2  0  0  0
 35 36  1  0  0  0
 35 34  2  0  0  0
 33 34  1  0  0  0
 15 19  1  0  0  0
  9 12  1  0  0  0
  1  2  1  0  0  0
 27 28  1  0  0  0
M  END
> <minimizedAffinity>
-9.09848

$$$$
