4EO6_0S2_A_600


 28 29  0  0  0  0  0  0  0  0999 V2000
    9.2904   32.9340   73.9078 C   0  0  0  0  0  0  0  0  0  0  0  0
    9.3155   32.3446   72.6595 C   0  0  0  0  0  0  0  0  0  0  0  0
    7.7792   32.3502   71.9393 S   0  0  0  0  0  0  0  0  0  0  0  0
    7.0585   33.1483   73.2689 C   0  0  0  0  0  0  0  0  0  0  0  0
    7.9875   33.4177   74.2778 C   0  0  0  0  0  0  0  0  0  0  0  0
    5.6446   33.4731   73.2100 C   0  0  0  0  0  0  0  0  0  0  0  0
    4.8974   32.4585   72.7016 O   0  0  0  0  0  0  0  0  0  0  0  0
    5.1415   34.5445   73.5124 O   0  0  0  0  0  0  0  0  0  0  0  0
    5.6754   35.2309   73.8615 H   0  0  0  0  0  0  0  0  0  0  0  0
    7.7120   35.4604   75.5698 C   0  0  0  0  0  0  0  0  0  0  0  0
    7.6655   34.0528   75.5065 N   0  0  0  0  0  0  0  0  0  0  0  0
    7.4548   36.0968   76.5972 O   0  0  0  0  0  0  0  0  0  0  0  0
    8.1322   36.2244   74.3148 C   0  0  0  0  0  0  0  0  0  0  0  0
    9.5479   36.7636   74.5980 C   0  0  0  0  0  0  0  0  0  0  0  0
   10.0795   37.6432   73.4680 C   0  0  0  0  0  0  0  0  0  0  0  0
    9.0888   38.7639   73.1302 C   0  0  0  0  0  0  0  0  0  0  0  0
    7.6839   38.2019   72.8346 C   0  0  0  0  0  0  0  0  0  0  0  0
    7.1711   37.3785   74.0242 C   0  0  0  0  0  0  0  0  0  0  0  0
    9.6211   39.5867   71.9528 C   0  0  0  0  0  0  0  0  0  0  0  0
    6.6186   31.9176   76.2922 C   0  0  0  0  0  0  0  0  0  0  0  0
    7.3056   33.2249   76.6937 C   0  0  0  0  0  0  0  0  0  0  0  0
    8.5533   32.9262   77.5357 C   0  0  0  0  0  0  0  0  0  0  0  0
   10.4611   31.7838   72.0269 C   0  0  0  0  0  0  0  0  0  0  0  0
   11.4338   31.3379   71.4789 C   0  0  0  0  0  0  0  0  0  0  0  0
   12.6354   30.8076   70.7998 C   0  0  0  0  0  0  0  0  0  0  0  0
   13.8557   31.6713   71.1577 C   0  0  0  0  0  0  0  0  0  0  0  0
   12.8681   29.3481   71.2189 C   0  0  0  0  0  0  0  0  0  0  0  0
   12.4254   30.8812   69.2727 C   0  0  0  0  0  0  0  0  0  0  0  0
 28 25  1  0  0  0
 25 27  1  0  0  0
 25 26  1  0  0  0
 25 24  1  0  0  0
 24 23  3  0  0  0
  3  2  1  0  0  0
  3  4  1  0  0  0
 19 16  1  0  0  0
 23  2  1  0  0  0
  7  6  2  0  0  0
  2  1  2  0  0  0
 17 16  1  0  0  0
 17 18  1  0  0  0
  6  4  1  0  0  0
  6  8  1  0  0  0
 16 15  1  0  0  0
  4  5  2  0  0  0
 15 14  1  0  0  0
  1  5  1  0  0  0
 18 13  1  0  0  0
  5 11  1  0  0  0
 13 14  1  0  0  0
 13 10  1  0  0  0
 11 10  1  0  0  0
 11 21  1  0  0  0
 10 12  2  0  0  0
 20 21  1  0  0  0
 21 22  1  0  0  0
  8  9  1  0  0  0
M  END
> <minimizedAffinity>
-7.86472

$$$$
4EO6_0S2_A_600


 28 29  0  0  0  0  0  0  0  0999 V2000
    5.1408   36.5605   76.4412 C   0  0  0  0  0  0  0  0  0  0  0  0
    5.1048   37.5173   77.4360 C   0  0  0  0  0  0  0  0  0  0  0  0
    6.4463   37.3914   78.4672 S   0  0  0  0  0  0  0  0  0  0  0  0
    7.1038   36.0722   77.6003 C   0  0  0  0  0  0  0  0  0  0  0  0
    6.3019   35.7147   76.5128 C   0  0  0  0  0  0  0  0  0  0  0  0
    8.3679   35.5062   78.0361 C   0  0  0  0  0  0  0  0  0  0  0  0
    9.4388   36.1894   77.5538 O   0  0  0  0  0  0  0  0  0  0  0  0
    8.5077   34.4957   78.7083 O   0  0  0  0  0  0  0  0  0  0  0  0
    7.7553   34.0399   79.0310 H   0  0  0  0  0  0  0  0  0  0  0  0
    7.4626   34.8753   74.5467 C   0  0  0  0  0  0  0  0  0  0  0  0
    6.5914   34.6408   75.6300 N   0  0  0  0  0  0  0  0  0  0  0  0
    7.7653   34.0032   73.7255 O   0  0  0  0  0  0  0  0  0  0  0  0
    8.0280   36.2839   74.3690 C   0  0  0  0  0  0  0  0  0  0  0  0
    7.2067   36.9334   73.2382 C   0  0  0  0  0  0  0  0  0  0  0  0
    7.7155   38.3247   72.8659 C   0  0  0  0  0  0  0  0  0  0  0  0
    9.2159   38.2958   72.5500 C   0  0  0  0  0  0  0  0  0  0  0  0
   10.0200   37.6575   73.7001 C   0  0  0  0  0  0  0  0  0  0  0  0
    9.5102   36.2396   73.9927 C   0  0  0  0  0  0  0  0  0  0  0  0
    9.7069   39.7143   72.2442 C   0  0  0  0  0  0  0  0  0  0  0  0
    5.5891   33.0937   77.3255 C   0  0  0  0  0  0  0  0  0  0  0  0
    5.9613   33.3081   75.8566 C   0  0  0  0  0  0  0  0  0  0  0  0
    4.7191   33.1461   74.9703 C   0  0  0  0  0  0  0  0  0  0  0  0
    4.0856   38.4954   77.6134 C   0  0  0  0  0  0  0  0  0  0  0  0
    3.2464   39.3439   77.7588 C   0  0  0  0  0  0  0  0  0  0  0  0
    2.2267   40.4008   77.9311 C   0  0  0  0  0  0  0  0  0  0  0  0
    1.8101   40.4819   79.4086 C   0  0  0  0  0  0  0  0  0  0  0  0
    2.7898   41.7489   77.4564 C   0  0  0  0  0  0  0  0  0  0  0  0
    0.9789   40.0382   77.0986 C   0  0  0  0  0  0  0  0  0  0  0  0
 28 25  1  0  0  0
 25 27  1  0  0  0
 25 26  1  0  0  0
 25 24  1  0  0  0
 24 23  3  0  0  0
  3  2  1  0  0  0
  3  4  1  0  0  0
 19 16  1  0  0  0
 23  2  1  0  0  0
  7  6  2  0  0  0
  2  1  2  0  0  0
 17 16  1  0  0  0
 17 18  1  0  0  0
  6  4  1  0  0  0
  6  8  1  0  0  0
 16 15  1  0  0  0
  4  5  2  0  0  0
 15 14  1  0  0  0
  1  5  1  0  0  0
 18 13  1  0  0  0
  5 11  1  0  0  0
 13 14  1  0  0  0
 13 10  1  0  0  0
 11 10  1  0  0  0
 11 21  1  0  0  0
 10 12  2  0  0  0
 20 21  1  0  0  0
 21 22  1  0  0  0
  8  9  1  0  0  0
M  END
> <minimizedAffinity>
-6.67820

$$$$
4EO6_0S2_A_600


 28 29  0  0  0  0  0  0  0  0999 V2000
    8.7055   33.0711   75.5508 C   0  0  0  0  0  0  0  0  0  0  0  0
    8.7498   32.1899   74.4887 C   0  0  0  0  0  0  0  0  0  0  0  0
    7.2988   32.2042   73.6092 S   0  0  0  0  0  0  0  0  0  0  0  0
    6.5933   33.3917   74.6173 C   0  0  0  0  0  0  0  0  0  0  0  0
    7.4619   33.7884   75.6379 C   0  0  0  0  0  0  0  0  0  0  0  0
    5.2536   33.8629   74.3151 C   0  0  0  0  0  0  0  0  0  0  0  0
    5.2225   34.6898   73.2374 O   0  0  0  0  0  0  0  0  0  0  0  0
    4.2457   33.6226   74.9623 O   0  0  0  0  0  0  0  0  0  0  0  0
    4.2896   33.0493   75.7021 H   0  0  0  0  0  0  0  0  0  0  0  0
    7.2876   36.1133   76.3322 C   0  0  0  0  0  0  0  0  0  0  0  0
    7.1337   34.7449   76.6348 N   0  0  0  0  0  0  0  0  0  0  0  0
    7.0333   37.0137   77.1391 O   0  0  0  0  0  0  0  0  0  0  0  0
    7.8248   36.4897   74.9520 C   0  0  0  0  0  0  0  0  0  0  0  0
    9.2903   36.9156   75.1667 C   0  0  0  0  0  0  0  0  0  0  0  0
    9.9499   37.4214   73.8851 C   0  0  0  0  0  0  0  0  0  0  0  0
    9.1128   38.5302   73.2359 C   0  0  0  0  0  0  0  0  0  0  0  0
    7.6555   38.0781   73.0153 C   0  0  0  0  0  0  0  0  0  0  0  0
    7.0203   37.6390   74.3418 C   0  0  0  0  0  0  0  0  0  0  0  0
    9.7671   38.9695   71.9222 C   0  0  0  0  0  0  0  0  0  0  0  0
    5.9551   32.9263   77.8903 C   0  0  0  0  0  0  0  0  0  0  0  0
    6.6546   34.2852   77.9703 C   0  0  0  0  0  0  0  0  0  0  0  0
    7.8225   34.2177   78.9634 C   0  0  0  0  0  0  0  0  0  0  0  0
    9.8493   31.3523   74.1477 C   0  0  0  0  0  0  0  0  0  0  0  0
   10.7925   30.6699   73.8475 C   0  0  0  0  0  0  0  0  0  0  0  0
   11.9628   29.8467   73.4744 C   0  0  0  0  0  0  0  0  0  0  0  0
   12.9149   30.6707   72.5925 C   0  0  0  0  0  0  0  0  0  0  0  0
   12.6851   29.3651   74.7417 C   0  0  0  0  0  0  0  0  0  0  0  0
   11.4828   28.6290   72.6568 C   0  0  0  0  0  0  0  0  0  0  0  0
 28 25  1  0  0  0
 25 27  1  0  0  0
 25 26  1  0  0  0
 25 24  1  0  0  0
 24 23  3  0  0  0
  3  2  1  0  0  0
  3  4  1  0  0  0
 19 16  1  0  0  0
 23  2  1  0  0  0
  7  6  2  0  0  0
  2  1  2  0  0  0
 17 16  1  0  0  0
 17 18  1  0  0  0
  6  4  1  0  0  0
  6  8  1  0  0  0
 16 15  1  0  0  0
  4  5  2  0  0  0
 15 14  1  0  0  0
  1  5  1  0  0  0
 18 13  1  0  0  0
  5 11  1  0  0  0
 13 14  1  0  0  0
 13 10  1  0  0  0
 11 10  1  0  0  0
 11 21  1  0  0  0
 10 12  2  0  0  0
 20 21  1  0  0  0
 21 22  1  0  0  0
  8  9  1  0  0  0
M  END
> <minimizedAffinity>
-6.26515

$$$$
4EO6_0S2_A_600


 28 29  0  0  0  0  0  0  0  0999 V2000
    4.7303   34.8156   76.6834 C   0  0  0  0  0  0  0  0  0  0  0  0
    5.1807   33.5267   76.8896 C   0  0  0  0  0  0  0  0  0  0  0  0
    6.3715   33.4710   78.0970 S   0  0  0  0  0  0  0  0  0  0  0  0
    6.2980   35.1567   78.3749 C   0  0  0  0  0  0  0  0  0  0  0  0
    5.3610   35.7789   77.5451 C   0  0  0  0  0  0  0  0  0  0  0  0
    7.1441   35.7361   79.4028 C   0  0  0  0  0  0  0  0  0  0  0  0
    8.4566   35.4289   79.2319 O   0  0  0  0  0  0  0  0  0  0  0  0
    6.7617   36.3813   80.3671 O   0  0  0  0  0  0  0  0  0  0  0  0
    5.8518   36.5820   80.4656 H   0  0  0  0  0  0  0  0  0  0  0  0
    5.8505   37.9969   76.6743 C   0  0  0  0  0  0  0  0  0  0  0  0
    5.1036   37.1754   77.5431 N   0  0  0  0  0  0  0  0  0  0  0  0
    5.6993   39.2216   76.6102 O   0  0  0  0  0  0  0  0  0  0  0  0
    6.9162   37.3386   75.7991 C   0  0  0  0  0  0  0  0  0  0  0  0
    8.2692   37.6495   76.4684 C   0  0  0  0  0  0  0  0  0  0  0  0
    9.4583   37.1400   75.6561 C   0  0  0  0  0  0  0  0  0  0  0  0
    9.3958   37.6484   74.2107 C   0  0  0  0  0  0  0  0  0  0  0  0
    8.0414   37.3130   73.5550 C   0  0  0  0  0  0  0  0  0  0  0  0
    6.8847   37.8994   74.3762 C   0  0  0  0  0  0  0  0  0  0  0  0
   10.5646   37.0685   73.4080 C   0  0  0  0  0  0  0  0  0  0  0  0
    2.9479   38.4411   77.6976 C   0  0  0  0  0  0  0  0  0  0  0  0
    4.0719   37.7375   78.4618 C   0  0  0  0  0  0  0  0  0  0  0  0
    3.4898   36.6322   79.3530 C   0  0  0  0  0  0  0  0  0  0  0  0
    4.7353   32.3680   76.1926 C   0  0  0  0  0  0  0  0  0  0  0  0
    4.3382   31.4072   75.5888 C   0  0  0  0  0  0  0  0  0  0  0  0
    3.8397   30.2373   74.8343 C   0  0  0  0  0  0  0  0  0  0  0  0
    4.6322   28.9841   75.2400 C   0  0  0  0  0  0  0  0  0  0  0  0
    2.3418   30.0395   75.1114 C   0  0  0  0  0  0  0  0  0  0  0  0
    4.0604   30.4786   73.3261 C   0  0  0  0  0  0  0  0  0  0  0  0
 28 25  1  0  0  0
 25 27  1  0  0  0
 25 26  1  0  0  0
 25 24  1  0  0  0
 24 23  3  0  0  0
  3  2  1  0  0  0
  3  4  1  0  0  0
 19 16  1  0  0  0
 23  2  1  0  0  0
  7  6  2  0  0  0
  2  1  2  0  0  0
 17 16  1  0  0  0
 17 18  1  0  0  0
  6  4  1  0  0  0
  6  8  1  0  0  0
 16 15  1  0  0  0
  4  5  2  0  0  0
 15 14  1  0  0  0
  1  5  1  0  0  0
 18 13  1  0  0  0
  5 11  1  0  0  0
 13 14  1  0  0  0
 13 10  1  0  0  0
 11 10  1  0  0  0
 11 21  1  0  0  0
 10 12  2  0  0  0
 20 21  1  0  0  0
 21 22  1  0  0  0
  8  9  1  0  0  0
M  END
> <minimizedAffinity>
-5.59106

$$$$
4EO6_0S2_A_600


 28 29  0  0  0  0  0  0  0  0999 V2000
    7.4293   33.8650   77.6894 C   0  0  0  0  0  0  0  0  0  0  0  0
    7.8883   32.6892   77.1298 C   0  0  0  0  0  0  0  0  0  0  0  0
    6.9915   32.2653   75.7532 S   0  0  0  0  0  0  0  0  0  0  0  0
    5.9875   33.6446   75.8706 C   0  0  0  0  0  0  0  0  0  0  0  0
    6.3290   34.4431   76.9658 C   0  0  0  0  0  0  0  0  0  0  0  0
    4.9604   33.8526   74.8657 C   0  0  0  0  0  0  0  0  0  0  0  0
    3.7245   33.4936   75.3015 O   0  0  0  0  0  0  0  0  0  0  0  0
    5.1436   34.2440   73.7230 O   0  0  0  0  0  0  0  0  0  0  0  0
    6.0043   34.4865   73.4432 H   0  0  0  0  0  0  0  0  0  0  0  0
    5.9405   36.8163   76.5991 C   0  0  0  0  0  0  0  0  0  0  0  0
    5.6513   35.6396   77.3198 N   0  0  0  0  0  0  0  0  0  0  0  0
    5.4049   37.9030   76.8418 O   0  0  0  0  0  0  0  0  0  0  0  0
    6.9894   36.7423   75.4902 C   0  0  0  0  0  0  0  0  0  0  0  0
    8.2731   37.3622   76.0757 C   0  0  0  0  0  0  0  0  0  0  0  0
    9.4020   37.4553   75.0508 C   0  0  0  0  0  0  0  0  0  0  0  0
    8.9350   38.1788   73.7819 C   0  0  0  0  0  0  0  0  0  0  0  0
    7.6599   37.5332   73.2039 C   0  0  0  0  0  0  0  0  0  0  0  0
    6.5390   37.5203   74.2525 C   0  0  0  0  0  0  0  0  0  0  0  0
   10.0685   38.1983   72.7515 C   0  0  0  0  0  0  0  0  0  0  0  0
    4.0078   34.2598   78.6113 C   0  0  0  0  0  0  0  0  0  0  0  0
    4.6718   35.6286   78.4446 C   0  0  0  0  0  0  0  0  0  0  0  0
    5.3560   36.0440   79.7539 C   0  0  0  0  0  0  0  0  0  0  0  0
    8.9665   31.8993   77.6203 C   0  0  0  0  0  0  0  0  0  0  0  0
    9.8724   31.2122   78.0109 C   0  0  0  0  0  0  0  0  0  0  0  0
   10.9860   30.3570   78.4746 C   0  0  0  0  0  0  0  0  0  0  0  0
   10.4483   29.2820   79.4330 C   0  0  0  0  0  0  0  0  0  0  0  0
   11.6778   29.7045   77.2682 C   0  0  0  0  0  0  0  0  0  0  0  0
   12.0011   31.2257   79.2470 C   0  0  0  0  0  0  0  0  0  0  0  0
 28 25  1  0  0  0
 25 27  1  0  0  0
 25 26  1  0  0  0
 25 24  1  0  0  0
 24 23  3  0  0  0
  3  2  1  0  0  0
  3  4  1  0  0  0
 19 16  1  0  0  0
 23  2  1  0  0  0
  7  6  2  0  0  0
  2  1  2  0  0  0
 17 16  1  0  0  0
 17 18  1  0  0  0
  6  4  1  0  0  0
  6  8  1  0  0  0
 16 15  1  0  0  0
  4  5  2  0  0  0
 15 14  1  0  0  0
  1  5  1  0  0  0
 18 13  1  0  0  0
  5 11  1  0  0  0
 13 14  1  0  0  0
 13 10  1  0  0  0
 11 10  1  0  0  0
 11 21  1  0  0  0
 10 12  2  0  0  0
 20 21  1  0  0  0
 21 22  1  0  0  0
  8  9  1  0  0  0
M  END
> <minimizedAffinity>
-5.52802

$$$$
4EO6_0S2_A_600


 28 29  0  0  0  0  0  0  0  0999 V2000
    9.6221   33.7421   73.4089 C   0  0  0  0  0  0  0  0  0  0  0  0
    9.7711   32.6359   72.5961 C   0  0  0  0  0  0  0  0  0  0  0  0
    8.2743   31.9194   72.2422 S   0  0  0  0  0  0  0  0  0  0  0  0
    7.4028   33.0758   73.1520 C   0  0  0  0  0  0  0  0  0  0  0  0
    8.2498   34.0216   73.7363 C   0  0  0  0  0  0  0  0  0  0  0  0
    5.9546   32.9833   73.2013 C   0  0  0  0  0  0  0  0  0  0  0  0
    5.5236   31.7541   73.5879 O   0  0  0  0  0  0  0  0  0  0  0  0
    5.1685   33.8620   72.8814 O   0  0  0  0  0  0  0  0  0  0  0  0
    5.4873   34.7027   72.6179 H   0  0  0  0  0  0  0  0  0  0  0  0
    7.4648   34.8023   75.9024 C   0  0  0  0  0  0  0  0  0  0  0  0
    7.8032   35.0859   74.5635 N   0  0  0  0  0  0  0  0  0  0  0  0
    7.0610   35.6631   76.6914 O   0  0  0  0  0  0  0  0  0  0  0  0
    7.5742   33.3555   76.3820 C   0  0  0  0  0  0  0  0  0  0  0  0
    6.1976   32.9979   76.9756 C   0  0  0  0  0  0  0  0  0  0  0  0
    6.1687   31.6021   77.5953 C   0  0  0  0  0  0  0  0  0  0  0  0
    7.3022   31.4282   78.6134 C   0  0  0  0  0  0  0  0  0  0  0  0
    8.6712   31.7751   77.9949 C   0  0  0  0  0  0  0  0  0  0  0  0
    8.6663   33.2074   77.4429 C   0  0  0  0  0  0  0  0  0  0  0  0
    7.2846   30.0001   79.1675 C   0  0  0  0  0  0  0  0  0  0  0  0
    6.2490   36.9811   74.0485 C   0  0  0  0  0  0  0  0  0  0  0  0
    7.6878   36.4616   73.9990 C   0  0  0  0  0  0  0  0  0  0  0  0
    8.6208   37.4256   74.7440 C   0  0  0  0  0  0  0  0  0  0  0  0
   11.0056   32.1244   72.1048 C   0  0  0  0  0  0  0  0  0  0  0  0
   12.0401   31.6641   71.7008 C   0  0  0  0  0  0  0  0  0  0  0  0
   13.3058   31.0801   71.2074 C   0  0  0  0  0  0  0  0  0  0  0  0
   14.4950   31.8897   71.7489 C   0  0  0  0  0  0  0  0  0  0  0  0
   13.4084   29.6125   71.6495 C   0  0  0  0  0  0  0  0  0  0  0  0
   13.3311   31.1602   69.6664 C   0  0  0  0  0  0  0  0  0  0  0  0
 28 25  1  0  0  0
 25 27  1  0  0  0
 25 26  1  0  0  0
 25 24  1  0  0  0
 24 23  3  0  0  0
  3  2  1  0  0  0
  3  4  1  0  0  0
 19 16  1  0  0  0
 23  2  1  0  0  0
  7  6  2  0  0  0
  2  1  2  0  0  0
 17 16  1  0  0  0
 17 18  1  0  0  0
  6  4  1  0  0  0
  6  8  1  0  0  0
 16 15  1  0  0  0
  4  5  2  0  0  0
 15 14  1  0  0  0
  1  5  1  0  0  0
 18 13  1  0  0  0
  5 11  1  0  0  0
 13 14  1  0  0  0
 13 10  1  0  0  0
 11 10  1  0  0  0
 11 21  1  0  0  0
 10 12  2  0  0  0
 20 21  1  0  0  0
 21 22  1  0  0  0
  8  9  1  0  0  0
M  END
> <minimizedAffinity>
-5.47256

$$$$
4EO6_0S2_A_600


 28 29  0  0  0  0  0  0  0  0999 V2000
    8.7574   31.2301   73.9034 C   0  0  0  0  0  0  0  0  0  0  0  0
    9.1227   31.5194   72.6037 C   0  0  0  0  0  0  0  0  0  0  0  0
    7.8042   32.0892   71.7004 S   0  0  0  0  0  0  0  0  0  0  0  0
    6.7296   31.9737   73.0256 C   0  0  0  0  0  0  0  0  0  0  0  0
    7.3701   31.4969   74.1728 C   0  0  0  0  0  0  0  0  0  0  0  0
    5.3484   32.3844   72.8470 C   0  0  0  0  0  0  0  0  0  0  0  0
    5.2144   33.7326   72.7452 O   0  0  0  0  0  0  0  0  0  0  0  0
    4.3752   31.6460   72.8445 O   0  0  0  0  0  0  0  0  0  0  0  0
    4.4903   30.7188   72.9157 H   0  0  0  0  0  0  0  0  0  0  0  0
    6.5075   32.3841   76.2672 C   0  0  0  0  0  0  0  0  0  0  0  0
    6.7184   31.2804   75.4157 N   0  0  0  0  0  0  0  0  0  0  0  0
    5.9559   32.2887   77.3687 O   0  0  0  0  0  0  0  0  0  0  0  0
    7.0167   33.7516   75.8133 C   0  0  0  0  0  0  0  0  0  0  0  0
    8.2361   34.0684   76.7009 C   0  0  0  0  0  0  0  0  0  0  0  0
    8.8091   35.4600   76.4387 C   0  0  0  0  0  0  0  0  0  0  0  0
    7.7190   36.5332   76.5461 C   0  0  0  0  0  0  0  0  0  0  0  0
    6.5164   36.2055   75.6388 C   0  0  0  0  0  0  0  0  0  0  0  0
    5.9405   34.8252   75.9842 C   0  0  0  0  0  0  0  0  0  0  0  0
    8.3116   37.9065   76.2150 C   0  0  0  0  0  0  0  0  0  0  0  0
    5.9274   29.0590   74.5718 C   0  0  0  0  0  0  0  0  0  0  0  0
    6.2912   29.9029   75.7956 C   0  0  0  0  0  0  0  0  0  0  0  0
    7.3920   29.2059   76.6065 C   0  0  0  0  0  0  0  0  0  0  0  0
   10.4256   31.3641   72.0512 C   0  0  0  0  0  0  0  0  0  0  0  0
   11.5368   31.2265   71.6134 C   0  0  0  0  0  0  0  0  0  0  0  0
   12.9091   31.0495   71.0920 C   0  0  0  0  0  0  0  0  0  0  0  0
   12.9164   31.2667   69.5701 C   0  0  0  0  0  0  0  0  0  0  0  0
   13.8591   32.0407   71.7811 C   0  0  0  0  0  0  0  0  0  0  0  0
   13.3734   29.6051   71.3740 C   0  0  0  0  0  0  0  0  0  0  0  0
 28 25  1  0  0  0
 25 27  1  0  0  0
 25 26  1  0  0  0
 25 24  1  0  0  0
 24 23  3  0  0  0
  3  2  1  0  0  0
  3  4  1  0  0  0
 19 16  1  0  0  0
 23  2  1  0  0  0
  7  6  2  0  0  0
  2  1  2  0  0  0
 17 16  1  0  0  0
 17 18  1  0  0  0
  6  4  1  0  0  0
  6  8  1  0  0  0
 16 15  1  0  0  0
  4  5  2  0  0  0
 15 14  1  0  0  0
  1  5  1  0  0  0
 18 13  1  0  0  0
  5 11  1  0  0  0
 13 14  1  0  0  0
 13 10  1  0  0  0
 11 10  1  0  0  0
 11 21  1  0  0  0
 10 12  2  0  0  0
 20 21  1  0  0  0
 21 22  1  0  0  0
  8  9  1  0  0  0
M  END
> <minimizedAffinity>
-5.24737

$$$$
4EO6_0S2_A_600


 28 29  0  0  0  0  0  0  0  0999 V2000
    8.2984   31.7078   75.5215 C   0  0  0  0  0  0  0  0  0  0  0  0
    9.0411   30.9914   74.6041 C   0  0  0  0  0  0  0  0  0  0  0  0
    8.3372   31.0412   73.0610 S   0  0  0  0  0  0  0  0  0  0  0  0
    7.0414   32.0270   73.5841 C   0  0  0  0  0  0  0  0  0  0  0  0
    7.1349   32.3271   74.9460 C   0  0  0  0  0  0  0  0  0  0  0  0
    6.0479   32.4527   72.6147 C   0  0  0  0  0  0  0  0  0  0  0  0
    6.6011   32.8294   71.4323 O   0  0  0  0  0  0  0  0  0  0  0  0
    4.8453   32.5399   72.8112 O   0  0  0  0  0  0  0  0  0  0  0  0
    4.4846   32.2743   73.6342 H   0  0  0  0  0  0  0  0  0  0  0  0
    6.2256   34.5115   75.5108 C   0  0  0  0  0  0  0  0  0  0  0  0
    6.1855   33.1097   75.6550 N   0  0  0  0  0  0  0  0  0  0  0  0
    5.4444   35.2707   76.0939 O   0  0  0  0  0  0  0  0  0  0  0  0
    7.3087   35.1128   74.6160 C   0  0  0  0  0  0  0  0  0  0  0  0
    8.4630   35.5143   75.5550 C   0  0  0  0  0  0  0  0  0  0  0  0
    9.5967   36.2285   74.8216 C   0  0  0  0  0  0  0  0  0  0  0  0
    9.0658   37.4187   74.0135 C   0  0  0  0  0  0  0  0  0  0  0  0
    7.9237   36.9924   73.0696 C   0  0  0  0  0  0  0  0  0  0  0  0
    6.7848   36.3369   73.8628 C   0  0  0  0  0  0  0  0  0  0  0  0
   10.2155   38.0726   73.2406 C   0  0  0  0  0  0  0  0  0  0  0  0
    4.8495   31.0289   76.0525 C   0  0  0  0  0  0  0  0  0  0  0  0
    5.1889   32.4396   76.5393 C   0  0  0  0  0  0  0  0  0  0  0  0
    5.7050   32.3874   77.9836 C   0  0  0  0  0  0  0  0  0  0  0  0
   10.2433   30.2805   74.8800 C   0  0  0  0  0  0  0  0  0  0  0  0
   11.2749   29.7032   75.0991 C   0  0  0  0  0  0  0  0  0  0  0  0
   12.5535   29.0091   75.3634 C   0  0  0  0  0  0  0  0  0  0  0  0
   12.4170   27.5198   75.0074 C   0  0  0  0  0  0  0  0  0  0  0  0
   13.6771   29.6578   74.5410 C   0  0  0  0  0  0  0  0  0  0  0  0
   12.8838   29.1159   76.8671 C   0  0  0  0  0  0  0  0  0  0  0  0
 28 25  1  0  0  0
 25 27  1  0  0  0
 25 26  1  0  0  0
 25 24  1  0  0  0
 24 23  3  0  0  0
  3  2  1  0  0  0
  3  4  1  0  0  0
 19 16  1  0  0  0
 23  2  1  0  0  0
  7  6  2  0  0  0
  2  1  2  0  0  0
 17 16  1  0  0  0
 17 18  1  0  0  0
  6  4  1  0  0  0
  6  8  1  0  0  0
 16 15  1  0  0  0
  4  5  2  0  0  0
 15 14  1  0  0  0
  1  5  1  0  0  0
 18 13  1  0  0  0
  5 11  1  0  0  0
 13 14  1  0  0  0
 13 10  1  0  0  0
 11 10  1  0  0  0
 11 21  1  0  0  0
 10 12  2  0  0  0
 20 21  1  0  0  0
 21 22  1  0  0  0
  8  9  1  0  0  0
M  END
> <minimizedAffinity>
-5.18619

$$$$
4EO6_0S2_A_600


 28 29  0  0  0  0  0  0  0  0999 V2000
   15.2874   29.2388   73.5530 C   0  0  0  0  0  0  0  0  0  0  0  0
   14.8865   28.4457   74.6097 C   0  0  0  0  0  0  0  0  0  0  0  0
   13.8646   27.1935   74.0934 S   0  0  0  0  0  0  0  0  0  0  0  0
   13.9493   27.6768   72.4552 C   0  0  0  0  0  0  0  0  0  0  0  0
   14.7607   28.8025   72.2878 C   0  0  0  0  0  0  0  0  0  0  0  0
   13.2364   26.9004   71.4567 C   0  0  0  0  0  0  0  0  0  0  0  0
   11.9809   27.3684   71.2311 O   0  0  0  0  0  0  0  0  0  0  0  0
   13.6507   25.8953   70.8995 O   0  0  0  0  0  0  0  0  0  0  0  0
   14.5200   25.5899   71.0696 H   0  0  0  0  0  0  0  0  0  0  0  0
   14.0531   30.3741   70.5711 C   0  0  0  0  0  0  0  0  0  0  0  0
   14.9953   29.4351   71.0384 N   0  0  0  0  0  0  0  0  0  0  0  0
   14.1716   30.9673   69.4937 O   0  0  0  0  0  0  0  0  0  0  0  0
   12.8156   30.6399   71.4273 C   0  0  0  0  0  0  0  0  0  0  0  0
   11.6294   30.7255   70.4471 C   0  0  0  0  0  0  0  0  0  0  0  0
   10.3179   31.0887   71.1408 C   0  0  0  0  0  0  0  0  0  0  0  0
   10.4726   32.3648   71.9770 C   0  0  0  0  0  0  0  0  0  0  0  0
   11.6536   32.2519   72.9614 C   0  0  0  0  0  0  0  0  0  0  0  0
   12.9562   31.9476   72.2085 C   0  0  0  0  0  0  0  0  0  0  0  0
    9.1608   32.6649   72.7092 C   0  0  0  0  0  0  0  0  0  0  0  0
   17.4517   29.8287   70.7484 C   0  0  0  0  0  0  0  0  0  0  0  0
   16.2113   29.0838   70.2494 C   0  0  0  0  0  0  0  0  0  0  0  0
   16.4558   27.5694   70.2895 C   0  0  0  0  0  0  0  0  0  0  0  0
   15.2539   28.6278   75.9731 C   0  0  0  0  0  0  0  0  0  0  0  0
   15.5337   28.7805   77.1323 C   0  0  0  0  0  0  0  0  0  0  0  0
   15.8595   28.9636   78.5630 C   0  0  0  0  0  0  0  0  0  0  0  0
   15.1541   27.8820   79.3969 C   0  0  0  0  0  0  0  0  0  0  0  0
   17.3808   28.8903   78.7634 C   0  0  0  0  0  0  0  0  0  0  0  0
   15.3416   30.3418   79.0257 C   0  0  0  0  0  0  0  0  0  0  0  0
 28 25  1  0  0  0
 25 27  1  0  0  0
 25 26  1  0  0  0
 25 24  1  0  0  0
 24 23  3  0  0  0
  3  2  1  0  0  0
  3  4  1  0  0  0
 19 16  1  0  0  0
 23  2  1  0  0  0
  7  6  2  0  0  0
  2  1  2  0  0  0
 17 16  1  0  0  0
 17 18  1  0  0  0
  6  4  1  0  0  0
  6  8  1  0  0  0
 16 15  1  0  0  0
  4  5  2  0  0  0
 15 14  1  0  0  0
  1  5  1  0  0  0
 18 13  1  0  0  0
  5 11  1  0  0  0
 13 14  1  0  0  0
 13 10  1  0  0  0
 11 10  1  0  0  0
 11 21  1  0  0  0
 10 12  2  0  0  0
 20 21  1  0  0  0
 21 22  1  0  0  0
  8  9  1  0  0  0
M  END
> <minimizedAffinity>
-5.10524

$$$$
4EO6_0S2_A_600


 28 29  0  0  0  0  0  0  0  0999 V2000
    7.7682   33.5004   73.4957 C   0  0  0  0  0  0  0  0  0  0  0  0
    8.0595   34.6292   74.2356 C   0  0  0  0  0  0  0  0  0  0  0  0
    8.1841   34.2722   75.8897 S   0  0  0  0  0  0  0  0  0  0  0  0
    7.8666   32.6093   75.6479 C   0  0  0  0  0  0  0  0  0  0  0  0
    7.6614   32.3114   74.2978 C   0  0  0  0  0  0  0  0  0  0  0  0
    7.8696   31.7202   76.7957 C   0  0  0  0  0  0  0  0  0  0  0  0
    6.7742   31.8818   77.5832 O   0  0  0  0  0  0  0  0  0  0  0  0
    8.7614   30.9417   77.0976 O   0  0  0  0  0  0  0  0  0  0  0  0
    9.5082   30.8457   76.5400 H   0  0  0  0  0  0  0  0  0  0  0  0
    8.4116   30.2139   73.3203 C   0  0  0  0  0  0  0  0  0  0  0  0
    7.3577   31.0140   73.8069 N   0  0  0  0  0  0  0  0  0  0  0  0
    8.2401   29.0768   72.8685 O   0  0  0  0  0  0  0  0  0  0  0  0
    9.8228   30.8003   73.3257 C   0  0  0  0  0  0  0  0  0  0  0  0
   10.1247   31.1980   71.8677 C   0  0  0  0  0  0  0  0  0  0  0  0
   11.5497   31.7159   71.6821 C   0  0  0  0  0  0  0  0  0  0  0  0
   12.5744   30.7179   72.2351 C   0  0  0  0  0  0  0  0  0  0  0  0
   12.2635   30.3463   73.6987 C   0  0  0  0  0  0  0  0  0  0  0  0
   10.8442   29.7745   73.8202 C   0  0  0  0  0  0  0  0  0  0  0  0
   13.9864   31.2947   72.0923 C   0  0  0  0  0  0  0  0  0  0  0  0
    5.6350   29.6502   75.0090 C   0  0  0  0  0  0  0  0  0  0  0  0
    5.9441   30.5385   73.8017 C   0  0  0  0  0  0  0  0  0  0  0  0
    4.9787   31.7309   73.7654 C   0  0  0  0  0  0  0  0  0  0  0  0
    8.2313   35.9434   73.7159 C   0  0  0  0  0  0  0  0  0  0  0  0
    8.4057   37.0533   73.2879 C   0  0  0  0  0  0  0  0  0  0  0  0
    8.6395   38.4165   72.7650 C   0  0  0  0  0  0  0  0  0  0  0  0
    7.8225   39.4310   73.5814 C   0  0  0  0  0  0  0  0  0  0  0  0
   10.1372   38.7509   72.8356 C   0  0  0  0  0  0  0  0  0  0  0  0
    8.1621   38.4830   71.2990 C   0  0  0  0  0  0  0  0  0  0  0  0
 28 25  1  0  0  0
 25 27  1  0  0  0
 25 26  1  0  0  0
 25 24  1  0  0  0
 24 23  3  0  0  0
  3  2  1  0  0  0
  3  4  1  0  0  0
 19 16  1  0  0  0
 23  2  1  0  0  0
  7  6  2  0  0  0
  2  1  2  0  0  0
 17 16  1  0  0  0
 17 18  1  0  0  0
  6  4  1  0  0  0
  6  8  1  0  0  0
 16 15  1  0  0  0
  4  5  2  0  0  0
 15 14  1  0  0  0
  1  5  1  0  0  0
 18 13  1  0  0  0
  5 11  1  0  0  0
 13 14  1  0  0  0
 13 10  1  0  0  0
 11 10  1  0  0  0
 11 21  1  0  0  0
 10 12  2  0  0  0
 20 21  1  0  0  0
 21 22  1  0  0  0
  8  9  1  0  0  0
M  END
> <minimizedAffinity>
-5.08515

$$$$
