1C5T_ESP_A_246


 16 17  0  0  0  0  0  0  0  0999 V2000
   45.6676   19.4945   53.4939 C   0  0  0  0  0  0  0  0  0  0  0  0
   45.0983   19.2255   51.8142 S   0  0  0  0  0  0  0  0  0  0  0  0
   45.0110   20.9466   51.4425 C   0  0  0  0  0  0  0  0  0  0  0  0
   45.4162   21.6078   52.5960 C   0  0  0  0  0  0  0  0  0  0  0  0
   45.7619   20.8520   53.6945 C   0  0  0  0  0  0  0  0  0  0  0  0
   44.6537   21.5284   50.3152 N   0  0  0  0  0  0  0  0  0  0  0  0
   44.6799   22.8512   50.3077 C   0  0  0  0  0  0  0  0  0  0  0  0
   45.0695   23.6177   51.4090 C   0  0  0  0  0  0  0  0  0  0  0  0
   45.4419   22.9842   52.5813 C   0  0  0  0  0  0  0  0  0  0  0  0
   45.9253   18.4175   54.3195 C   0  0  0  0  0  0  0  0  0  0  0  0
   45.7000   17.2335   53.8466 N   0  0  0  0  0  0  0  0  0  0  0  0
   46.3659   18.6556   55.5204 N   0  0  0  0  0  0  0  0  0  0  0  0
   45.3661   17.1262   52.9267 H   0  0  0  0  0  0  0  0  0  0  0  0
   45.8625   16.4405   54.4069 H   0  0  0  0  0  0  0  0  0  0  0  0
   46.5153   19.5831   55.8150 H   0  0  0  0  0  0  0  0  0  0  0  0
   46.5498   17.9084   56.1344 H   0  0  0  0  0  0  0  0  0  0  0  0
 10  1  1  0  0  0
 10 11  1  0  0  0
 10 12  2  0  0  0
  1  2  1  0  0  0
  1  5  2  0  0  0
  2  3  1  0  0  0
  3  4  2  0  0  0
  3  6  1  0  0  0
  4  5  1  0  0  0
  4  9  1  0  0  0
  6  7  2  0  0  0
  7  8  1  0  0  0
  8  9  2  0  0  0
 11 13  1  0  0  0
 11 14  1  0  0  0
 12 15  1  0  0  0
 12 16  1  0  0  0
M  CHG 1  12   1
M  END
> <minimizedAffinity>
-6.60228

$$$$
1C5T_ESP_A_246


 16 17  0  0  0  0  0  0  0  0999 V2000
   45.6534   19.5789   53.3430 C   0  0  0  0  0  0  0  0  0  0  0  0
   45.9547   21.2250   53.9888 S   0  0  0  0  0  0  0  0  0  0  0  0
   45.1161   22.0274   52.6618 C   0  0  0  0  0  0  0  0  0  0  0  0
   44.6636   21.0128   51.8264 C   0  0  0  0  0  0  0  0  0  0  0  0
   44.9457   19.7092   52.1707 C   0  0  0  0  0  0  0  0  0  0  0  0
   44.9237   23.3169   52.4692 N   0  0  0  0  0  0  0  0  0  0  0  0
   44.2519   23.6500   51.3792 C   0  0  0  0  0  0  0  0  0  0  0  0
   43.7513   22.7147   50.4700 C   0  0  0  0  0  0  0  0  0  0  0  0
   43.9646   21.3662   50.6943 C   0  0  0  0  0  0  0  0  0  0  0  0
   46.1165   18.4708   54.0253 C   0  0  0  0  0  0  0  0  0  0  0  0
   47.0778   18.6493   54.8742 N   0  0  0  0  0  0  0  0  0  0  0  0
   45.5705   17.3182   53.7679 N   0  0  0  0  0  0  0  0  0  0  0  0
   47.4447   19.5511   55.0199 H   0  0  0  0  0  0  0  0  0  0  0  0
   47.4417   17.8831   55.3739 H   0  0  0  0  0  0  0  0  0  0  0  0
   44.8417   17.2550   53.1089 H   0  0  0  0  0  0  0  0  0  0  0  0
   45.8860   16.5094   54.2320 H   0  0  0  0  0  0  0  0  0  0  0  0
 10  1  1  0  0  0
 10 11  1  0  0  0
 10 12  2  0  0  0
  1  2  1  0  0  0
  1  5  2  0  0  0
  2  3  1  0  0  0
  3  4  2  0  0  0
  3  6  1  0  0  0
  4  5  1  0  0  0
  4  9  1  0  0  0
  6  7  2  0  0  0
  7  8  1  0  0  0
  8  9  2  0  0  0
 11 13  1  0  0  0
 11 14  1  0  0  0
 12 15  1  0  0  0
 12 16  1  0  0  0
M  CHG 1  12   1
M  END
> <minimizedAffinity>
-6.28332

$$$$
1C5T_ESP_A_246


 16 17  0  0  0  0  0  0  0  0999 V2000
   44.4494   21.8077   51.1331 C   0  0  0  0  0  0  0  0  0  0  0  0
   44.0755   20.1102   50.6898 S   0  0  0  0  0  0  0  0  0  0  0  0
   44.8355   19.4415   52.1331 C   0  0  0  0  0  0  0  0  0  0  0  0
   45.3148   20.5302   52.8521 C   0  0  0  0  0  0  0  0  0  0  0  0
   45.1233   21.7913   52.3321 C   0  0  0  0  0  0  0  0  0  0  0  0
   44.9389   18.1798   52.4998 N   0  0  0  0  0  0  0  0  0  0  0  0
   45.5638   17.9543   53.6439 C   0  0  0  0  0  0  0  0  0  0  0  0
   46.0856   18.9714   54.4472 C   0  0  0  0  0  0  0  0  0  0  0  0
   45.9635   20.2886   54.0421 C   0  0  0  0  0  0  0  0  0  0  0  0
   44.0578   22.8426   50.3064 C   0  0  0  0  0  0  0  0  0  0  0  0
   42.8300   23.2446   50.3914 N   0  0  0  0  0  0  0  0  0  0  0  0
   44.9376   23.3417   49.4880 N   0  0  0  0  0  0  0  0  0  0  0  0
   42.2167   22.8210   51.0346 H   0  0  0  0  0  0  0  0  0  0  0  0
   42.5096   23.9738   49.8127 H   0  0  0  0  0  0  0  0  0  0  0  0
   45.8559   22.9871   49.4764 H   0  0  0  0  0  0  0  0  0  0  0  0
   44.6849   24.0740   48.8804 H   0  0  0  0  0  0  0  0  0  0  0  0
 10  1  1  0  0  0
 10 11  1  0  0  0
 10 12  2  0  0  0
  1  2  1  0  0  0
  1  5  2  0  0  0
  2  3  1  0  0  0
  3  4  2  0  0  0
  3  6  1  0  0  0
  4  5  1  0  0  0
  4  9  1  0  0  0
  6  7  2  0  0  0
  7  8  1  0  0  0
  8  9  2  0  0  0
 11 13  1  0  0  0
 11 14  1  0  0  0
 12 15  1  0  0  0
 12 16  1  0  0  0
M  CHG 1  12   1
M  END
> <minimizedAffinity>
-5.89447

$$$$
1C5T_ESP_A_246


 16 17  0  0  0  0  0  0  0  0999 V2000
   43.8845   22.2982   51.0073 C   0  0  0  0  0  0  0  0  0  0  0  0
   44.5963   22.7412   52.5931 S   0  0  0  0  0  0  0  0  0  0  0  0
   45.0904   21.0904   52.9656 C   0  0  0  0  0  0  0  0  0  0  0  0
   44.6944   20.3186   51.8795 C   0  0  0  0  0  0  0  0  0  0  0  0
   44.0482   20.9434   50.8357 C   0  0  0  0  0  0  0  0  0  0  0  0
   45.7180   20.6398   54.0333 N   0  0  0  0  0  0  0  0  0  0  0  0
   45.9715   19.3415   54.0564 C   0  0  0  0  0  0  0  0  0  0  0  0
   45.6188   18.4718   53.0213 C   0  0  0  0  0  0  0  0  0  0  0  0
   44.9618   18.9684   51.9096 C   0  0  0  0  0  0  0  0  0  0  0  0
   43.3090   23.2685   50.2103 C   0  0  0  0  0  0  0  0  0  0  0  0
   42.1139   23.6621   50.5153 N   0  0  0  0  0  0  0  0  0  0  0  0
   43.9934   23.7186   49.1994 N   0  0  0  0  0  0  0  0  0  0  0  0
   41.6533   23.2780   51.2961 H   0  0  0  0  0  0  0  0  0  0  0  0
   41.6656   24.3456   49.9665 H   0  0  0  0  0  0  0  0  0  0  0  0
   44.8991   23.3740   49.0256 H   0  0  0  0  0  0  0  0  0  0  0  0
   43.6056   24.4038   48.6084 H   0  0  0  0  0  0  0  0  0  0  0  0
 10  1  1  0  0  0
 10 11  1  0  0  0
 10 12  2  0  0  0
  1  2  1  0  0  0
  1  5  2  0  0  0
  2  3  1  0  0  0
  3  4  2  0  0  0
  3  6  1  0  0  0
  4  5  1  0  0  0
  4  9  1  0  0  0
  6  7  2  0  0  0
  7  8  1  0  0  0
  8  9  2  0  0  0
 11 13  1  0  0  0
 11 14  1  0  0  0
 12 15  1  0  0  0
 12 16  1  0  0  0
M  CHG 1  12   1
M  END
> <minimizedAffinity>
-5.87912

$$$$
1C5T_ESP_A_246


 16 17  0  0  0  0  0  0  0  0999 V2000
   45.3442   19.6539   53.1880 C   0  0  0  0  0  0  0  0  0  0  0  0
   44.6788   20.4533   51.7266 S   0  0  0  0  0  0  0  0  0  0  0  0
   45.1120   22.0732   52.2709 C   0  0  0  0  0  0  0  0  0  0  0  0
   45.7280   21.9094   53.5062 C   0  0  0  0  0  0  0  0  0  0  0  0
   45.8533   20.6330   54.0090 C   0  0  0  0  0  0  0  0  0  0  0  0
   44.9218   23.2254   51.6601 N   0  0  0  0  0  0  0  0  0  0  0  0
   45.3504   24.3019   52.2988 C   0  0  0  0  0  0  0  0  0  0  0  0
   45.9824   24.2551   53.5440 C   0  0  0  0  0  0  0  0  0  0  0  0
   46.1723   23.0335   54.1651 C   0  0  0  0  0  0  0  0  0  0  0  0
   45.2810   18.2801   53.3164 C   0  0  0  0  0  0  0  0  0  0  0  0
   44.3360   17.6626   52.6824 N   0  0  0  0  0  0  0  0  0  0  0  0
   46.1628   17.6924   54.0714 N   0  0  0  0  0  0  0  0  0  0  0  0
   43.7017   18.1712   52.1272 H   0  0  0  0  0  0  0  0  0  0  0  0
   44.2516   16.6844   52.7555 H   0  0  0  0  0  0  0  0  0  0  0  0
   46.8556   18.2248   54.5250 H   0  0  0  0  0  0  0  0  0  0  0  0
   46.1371   16.7153   54.1891 H   0  0  0  0  0  0  0  0  0  0  0  0
 10  1  1  0  0  0
 10 11  1  0  0  0
 10 12  2  0  0  0
  1  2  1  0  0  0
  1  5  2  0  0  0
  2  3  1  0  0  0
  3  4  2  0  0  0
  3  6  1  0  0  0
  4  5  1  0  0  0
  4  9  1  0  0  0
  6  7  2  0  0  0
  7  8  1  0  0  0
  8  9  2  0  0  0
 11 13  1  0  0  0
 11 14  1  0  0  0
 12 15  1  0  0  0
 12 16  1  0  0  0
M  CHG 1  12   1
M  END
> <minimizedAffinity>
-5.76044

$$$$
1C5T_ESP_A_246


 16 17  0  0  0  0  0  0  0  0999 V2000
   45.3329   23.3378   52.8371 C   0  0  0  0  0  0  0  0  0  0  0  0
   46.0738   22.4339   54.1978 S   0  0  0  0  0  0  0  0  0  0  0  0
   45.6616   20.8557   53.5290 C   0  0  0  0  0  0  0  0  0  0  0  0
   45.0014   21.1083   52.3322 C   0  0  0  0  0  0  0  0  0  0  0  0
   44.8138   22.4196   51.9543 C   0  0  0  0  0  0  0  0  0  0  0  0
   45.9181   19.6603   54.0212 N   0  0  0  0  0  0  0  0  0  0  0  0
   45.4931   18.6316   53.3061 C   0  0  0  0  0  0  0  0  0  0  0  0
   44.8188   18.7680   52.0900 C   0  0  0  0  0  0  0  0  0  0  0  0
   44.5624   20.0333   51.5925 C   0  0  0  0  0  0  0  0  0  0  0  0
   45.3628   24.7187   52.8240 C   0  0  0  0  0  0  0  0  0  0  0  0
   45.4010   25.3056   51.6706 N   0  0  0  0  0  0  0  0  0  0  0  0
   45.3624   25.3439   53.9651 N   0  0  0  0  0  0  0  0  0  0  0  0
   45.3987   24.7693   50.8450 H   0  0  0  0  0  0  0  0  0  0  0  0
   45.4323   26.2883   51.6191 H   0  0  0  0  0  0  0  0  0  0  0  0
   45.3320   24.8333   54.8062 H   0  0  0  0  0  0  0  0  0  0  0  0
   45.3924   26.3277   53.9873 H   0  0  0  0  0  0  0  0  0  0  0  0
 10  1  1  0  0  0
 10 11  1  0  0  0
 10 12  2  0  0  0
  1  2  1  0  0  0
  1  5  2  0  0  0
  2  3  1  0  0  0
  3  4  2  0  0  0
  3  6  1  0  0  0
  4  5  1  0  0  0
  4  9  1  0  0  0
  6  7  2  0  0  0
  7  8  1  0  0  0
  8  9  2  0  0  0
 11 13  1  0  0  0
 11 14  1  0  0  0
 12 15  1  0  0  0
 12 16  1  0  0  0
M  CHG 1  12   1
M  END
> <minimizedAffinity>
-5.00924

$$$$
1C5T_ESP_A_246


 16 17  0  0  0  0  0  0  0  0999 V2000
   45.2961   21.1499   51.9642 C   0  0  0  0  0  0  0  0  0  0  0  0
   45.9088   20.8755   53.6276 S   0  0  0  0  0  0  0  0  0  0  0  0
   45.9757   22.5944   54.0135 C   0  0  0  0  0  0  0  0  0  0  0  0
   45.5327   23.2590   52.8760 C   0  0  0  0  0  0  0  0  0  0  0  0
   45.1743   22.5074   51.7787 C   0  0  0  0  0  0  0  0  0  0  0  0
   46.3493   23.1719   55.1377 N   0  0  0  0  0  0  0  0  0  0  0  0
   46.3009   24.4939   55.1584 C   0  0  0  0  0  0  0  0  0  0  0  0
   45.8729   25.2636   54.0738 C   0  0  0  0  0  0  0  0  0  0  0  0
   45.4841   24.6346   52.9044 C   0  0  0  0  0  0  0  0  0  0  0  0
   45.0374   20.0763   51.1346 C   0  0  0  0  0  0  0  0  0  0  0  0
   44.9229   18.9095   51.6839 N   0  0  0  0  0  0  0  0  0  0  0  0
   44.9360   20.2980   49.8565 N   0  0  0  0  0  0  0  0  0  0  0  0
   45.0113   18.8140   52.6598 H   0  0  0  0  0  0  0  0  0  0  0  0
   44.7476   18.1177   51.1258 H   0  0  0  0  0  0  0  0  0  0  0  0
   45.0342   21.2128   49.5063 H   0  0  0  0  0  0  0  0  0  0  0  0
   44.7611   19.5508   49.2397 H   0  0  0  0  0  0  0  0  0  0  0  0
 10  1  1  0  0  0
 10 11  1  0  0  0
 10 12  2  0  0  0
  1  2  1  0  0  0
  1  5  2  0  0  0
  2  3  1  0  0  0
  3  4  2  0  0  0
  3  6  1  0  0  0
  4  5  1  0  0  0
  4  9  1  0  0  0
  6  7  2  0  0  0
  7  8  1  0  0  0
  8  9  2  0  0  0
 11 13  1  0  0  0
 11 14  1  0  0  0
 12 15  1  0  0  0
 12 16  1  0  0  0
M  CHG 1  12   1
M  END
> <minimizedAffinity>
-4.99500

$$$$
1C5T_ESP_A_246


 16 17  0  0  0  0  0  0  0  0999 V2000
   46.0638   23.0755   53.4626 C   0  0  0  0  0  0  0  0  0  0  0  0
   45.0176   22.6769   52.0612 S   0  0  0  0  0  0  0  0  0  0  0  0
   45.0626   20.9419   52.3705 C   0  0  0  0  0  0  0  0  0  0  0  0
   45.8529   20.7756   53.5018 C   0  0  0  0  0  0  0  0  0  0  0  0
   46.3961   21.8970   54.0891 C   0  0  0  0  0  0  0  0  0  0  0  0
   44.4740   19.9707   51.7016 N   0  0  0  0  0  0  0  0  0  0  0  0
   44.6749   18.7445   52.1560 C   0  0  0  0  0  0  0  0  0  0  0  0
   45.4505   18.4607   53.2829 C   0  0  0  0  0  0  0  0  0  0  0  0
   46.0573   19.4971   53.9697 C   0  0  0  0  0  0  0  0  0  0  0  0
   46.3879   24.3905   53.7341 C   0  0  0  0  0  0  0  0  0  0  0  0
   45.7233   25.3113   53.1122 N   0  0  0  0  0  0  0  0  0  0  0  0
   47.3438   24.6245   54.5852 N   0  0  0  0  0  0  0  0  0  0  0  0
   45.0109   25.0623   52.4800 H   0  0  0  0  0  0  0  0  0  0  0  0
   45.9304   26.2605   53.2715 H   0  0  0  0  0  0  0  0  0  0  0  0
   47.8080   23.8745   55.0226 H   0  0  0  0  0  0  0  0  0  0  0  0
   47.6030   25.5516   54.7918 H   0  0  0  0  0  0  0  0  0  0  0  0
 10  1  1  0  0  0
 10 11  1  0  0  0
 10 12  2  0  0  0
  1  2  1  0  0  0
  1  5  2  0  0  0
  2  3  1  0  0  0
  3  4  2  0  0  0
  3  6  1  0  0  0
  4  5  1  0  0  0
  4  9  1  0  0  0
  6  7  2  0  0  0
  7  8  1  0  0  0
  8  9  2  0  0  0
 11 13  1  0  0  0
 11 14  1  0  0  0
 12 15  1  0  0  0
 12 16  1  0  0  0
M  CHG 1  12   1
M  END
> <minimizedAffinity>
-4.92343

$$$$
1C5T_ESP_A_246


 16 17  0  0  0  0  0  0  0  0999 V2000
   45.2490   21.6198   52.4808 C   0  0  0  0  0  0  0  0  0  0  0  0
   44.2340   21.1948   51.0642 S   0  0  0  0  0  0  0  0  0  0  0  0
   44.1498   22.8550   50.4773 C   0  0  0  0  0  0  0  0  0  0  0  0
   44.8883   23.6160   51.3760 C   0  0  0  0  0  0  0  0  0  0  0  0
   45.4724   22.9766   52.4472 C   0  0  0  0  0  0  0  0  0  0  0  0
   43.5367   23.3201   49.4074 N   0  0  0  0  0  0  0  0  0  0  0  0
   43.6367   24.6226   49.1978 C   0  0  0  0  0  0  0  0  0  0  0  0
   44.3521   25.4823   50.0351 C   0  0  0  0  0  0  0  0  0  0  0  0
   44.9889   24.9706   51.1517 C   0  0  0  0  0  0  0  0  0  0  0  0
   45.6565   20.6370   53.3616 C   0  0  0  0  0  0  0  0  0  0  0  0
   45.4271   19.4059   53.0327 N   0  0  0  0  0  0  0  0  0  0  0  0
   46.2331   21.0048   54.4685 N   0  0  0  0  0  0  0  0  0  0  0  0
   44.9856   19.1990   52.1774 H   0  0  0  0  0  0  0  0  0  0  0  0
   45.6943   18.6768   53.6378 H   0  0  0  0  0  0  0  0  0  0  0  0
   46.3764   21.9608   54.6549 H   0  0  0  0  0  0  0  0  0  0  0  0
   46.5261   20.3270   55.1197 H   0  0  0  0  0  0  0  0  0  0  0  0
 10  1  1  0  0  0
 10 11  1  0  0  0
 10 12  2  0  0  0
  1  2  1  0  0  0
  1  5  2  0  0  0
  2  3  1  0  0  0
  3  4  2  0  0  0
  3  6  1  0  0  0
  4  5  1  0  0  0
  4  9  1  0  0  0
  6  7  2  0  0  0
  7  8  1  0  0  0
  8  9  2  0  0  0
 11 13  1  0  0  0
 11 14  1  0  0  0
 12 15  1  0  0  0
 12 16  1  0  0  0
M  CHG 1  12   1
M  END
> <minimizedAffinity>
-4.87212

$$$$
1C5T_ESP_A_246


 16 17  0  0  0  0  0  0  0  0999 V2000
   44.7431   22.4253   53.0905 C   0  0  0  0  0  0  0  0  0  0  0  0
   44.4876   22.2305   51.3257 S   0  0  0  0  0  0  0  0  0  0  0  0
   43.1364   23.3617   51.2768 C   0  0  0  0  0  0  0  0  0  0  0  0
   42.9679   23.8126   52.5808 C   0  0  0  0  0  0  0  0  0  0  0  0
   43.8083   23.3208   53.5552 C   0  0  0  0  0  0  0  0  0  0  0  0
   42.4161   23.7397   50.2399 N   0  0  0  0  0  0  0  0  0  0  0  0
   41.4523   24.6120   50.4860 C   0  0  0  0  0  0  0  0  0  0  0  0
   41.1931   25.1315   51.7568 C   0  0  0  0  0  0  0  0  0  0  0  0
   41.9637   24.7207   52.8299 C   0  0  0  0  0  0  0  0  0  0  0  0
   45.7507   21.7266   53.7265 C   0  0  0  0  0  0  0  0  0  0  0  0
   46.2666   20.7175   53.1005 N   0  0  0  0  0  0  0  0  0  0  0  0
   46.1118   22.1146   54.9147 N   0  0  0  0  0  0  0  0  0  0  0  0
   45.9446   20.4793   52.2011 H   0  0  0  0  0  0  0  0  0  0  0  0
   46.9808   20.1884   53.5238 H   0  0  0  0  0  0  0  0  0  0  0  0
   45.6759   22.8923   55.3323 H   0  0  0  0  0  0  0  0  0  0  0  0
   46.8210   21.6304   55.3963 H   0  0  0  0  0  0  0  0  0  0  0  0
 10  1  1  0  0  0
 10 11  1  0  0  0
 10 12  2  0  0  0
  1  2  1  0  0  0
  1  5  2  0  0  0
  2  3  1  0  0  0
  3  4  2  0  0  0
  3  6  1  0  0  0
  4  5  1  0  0  0
  4  9  1  0  0  0
  6  7  2  0  0  0
  7  8  1  0  0  0
  8  9  2  0  0  0
 11 13  1  0  0  0
 11 14  1  0  0  0
 12 15  1  0  0  0
 12 16  1  0  0  0
M  CHG 1  12   1
M  END
> <minimizedAffinity>
-4.71253

$$$$
