1IKT_OXN_A_123


 25 25  0  0  0  0  0  0  0  0999 V2000
   30.2822   31.1625   15.7785 C   0  0  0  0  0  0  0  0  0  0  0  0
   29.2479   31.8048   15.0168 C   0  0  0  0  0  0  0  0  0  0  0  0
   29.4380   33.1152   14.4467 C   0  0  0  0  0  0  0  0  0  0  0  0
   30.6793   33.7368   14.6672 C   0  0  0  0  0  0  0  0  0  0  0  0
   31.7325   33.1796   15.3992 C   0  0  0  0  0  0  0  0  0  0  0  0
   31.5208   31.8623   15.9629 C   0  0  0  0  0  0  0  0  0  0  0  0
   30.0536   29.7589   16.4025 C   0  0  0  0  0  0  0  0  0  0  0  0
   29.0668   29.8615   17.5594 C   0  0  0  0  0  0  0  0  0  0  0  0
   31.3758   29.2737   16.9924 C   0  0  0  0  0  0  0  0  0  0  0  0
   29.5687   28.7245   15.3415 C   0  0  0  0  0  0  0  0  0  0  0  0
   29.8724   28.3622   13.8972 C   0  0  0  0  0  0  0  0  0  0  0  0
   31.2183   28.9569   13.4606 C   0  0  0  0  0  0  0  0  0  0  0  0
   30.0257   26.8398   13.8372 C   0  0  0  0  0  0  0  0  0  0  0  0
   28.8382   28.7599   12.8231 C   0  0  0  0  0  0  0  0  0  0  0  0
   30.9265   35.0138   14.0289 O   0  0  0  0  0  0  0  0  0  0  0  0
   31.6180   35.9553   14.8616 C   0  0  0  0  0  0  0  0  0  0  0  0
   32.7631   36.5834   14.0915 C   0  0  0  0  0  0  0  0  0  0  0  0
   32.2948   37.6808   13.3007 O   0  0  0  0  0  0  0  0  0  0  0  0
   32.9745   38.8976   13.6337 C   0  0  0  0  0  0  0  0  0  0  0  0
   32.1497   39.7109   14.6122 C   0  0  0  0  0  0  0  0  0  0  0  0
   32.8054   39.7773   15.8788 O   0  0  0  0  0  0  0  0  0  0  0  0
   34.0751   40.4312   15.8006 C   0  0  0  0  0  0  0  0  0  0  0  0
   33.9483   41.8833   16.2594 C   0  0  0  0  0  0  0  0  0  0  0  0
   33.3674   42.6759   15.2235 O   0  0  0  0  0  0  0  0  0  0  0  0
   33.2061   44.0384   15.6155 C   0  0  0  0  0  0  0  0  0  0  0  0
 10 11  1  0  0  0
 10  7  1  0  0  0
 11 12  1  0  0  0
 11 13  1  0  0  0
 11 14  1  0  0  0
  7  1  1  0  0  0
  7  8  1  0  0  0
  7  9  1  0  0  0
  1  2  2  0  0  0
  1  6  1  0  0  0
  2  3  1  0  0  0
  3  4  2  0  0  0
  4  5  1  0  0  0
  4 15  1  0  0  0
  5  6  2  0  0  0
 15 16  1  0  0  0
 16 17  1  0  0  0
 17 18  1  0  0  0
 18 19  1  0  0  0
 19 20  1  0  0  0
 20 21  1  0  0  0
 21 22  1  0  0  0
 22 23  1  0  0  0
 23 24  1  0  0  0
 24 25  1  0  0  0
M  END
> <minimizedAffinity>
-7.70796

$$$$
1IKT_OXN_A_123


 25 25  0  0  0  0  0  0  0  0999 V2000
   30.0516   30.0365   14.2923 C   0  0  0  0  0  0  0  0  0  0  0  0
   29.3046   31.2157   14.6296 C   0  0  0  0  0  0  0  0  0  0  0  0
   29.9318   32.5126   14.6846 C   0  0  0  0  0  0  0  0  0  0  0  0
   31.3055   32.5737   14.3928 C   0  0  0  0  0  0  0  0  0  0  0  0
   32.1009   31.4727   14.0603 C   0  0  0  0  0  0  0  0  0  0  0  0
   31.4509   30.1793   14.0102 C   0  0  0  0  0  0  0  0  0  0  0  0
   29.3645   28.6442   14.2570 C   0  0  0  0  0  0  0  0  0  0  0  0
   30.3192   27.6108   13.6711 C   0  0  0  0  0  0  0  0  0  0  0  0
   28.1666   28.7230   13.3133 C   0  0  0  0  0  0  0  0  0  0  0  0
   28.8632   28.2089   15.6676 C   0  0  0  0  0  0  0  0  0  0  0  0
   29.3745   28.2150   17.0987 C   0  0  0  0  0  0  0  0  0  0  0  0
   29.0375   29.5436   17.7892 C   0  0  0  0  0  0  0  0  0  0  0  0
   28.6123   27.1227   17.8541 C   0  0  0  0  0  0  0  0  0  0  0  0
   30.8798   27.9620   17.3258 C   0  0  0  0  0  0  0  0  0  0  0  0
   31.9379   33.8767   14.3530 O   0  0  0  0  0  0  0  0  0  0  0  0
   31.1855   34.8659   13.6364 C   0  0  0  0  0  0  0  0  0  0  0  0
   32.0530   35.5009   12.5672 C   0  0  0  0  0  0  0  0  0  0  0  0
   32.0504   36.9262   12.6988 O   0  0  0  0  0  0  0  0  0  0  0  0
   32.6260   37.3412   13.9437 C   0  0  0  0  0  0  0  0  0  0  0  0
   33.0095   38.8070   13.8841 C   0  0  0  0  0  0  0  0  0  0  0  0
   31.9431   39.6195   14.3755 O   0  0  0  0  0  0  0  0  0  0  0  0
   32.2979   40.3172   15.5726 C   0  0  0  0  0  0  0  0  0  0  0  0
   33.8178   40.3660   15.7227 C   0  0  0  0  0  0  0  0  0  0  0  0
   34.2330   41.6838   16.0830 O   0  0  0  0  0  0  0  0  0  0  0  0
   33.1847   42.4267   16.7036 C   0  0  0  0  0  0  0  0  0  0  0  0
 10 11  1  0  0  0
 10  7  1  0  0  0
 11 12  1  0  0  0
 11 13  1  0  0  0
 11 14  1  0  0  0
  7  1  1  0  0  0
  7  8  1  0  0  0
  7  9  1  0  0  0
  1  2  2  0  0  0
  1  6  1  0  0  0
  2  3  1  0  0  0
  3  4  2  0  0  0
  4  5  1  0  0  0
  4 15  1  0  0  0
  5  6  2  0  0  0
 15 16  1  0  0  0
 16 17  1  0  0  0
 17 18  1  0  0  0
 18 19  1  0  0  0
 19 20  1  0  0  0
 20 21  1  0  0  0
 21 22  1  0  0  0
 22 23  1  0  0  0
 23 24  1  0  0  0
 24 25  1  0  0  0
M  END
> <minimizedAffinity>
-7.43682

$$$$
1IKT_OXN_A_123


 25 25  0  0  0  0  0  0  0  0999 V2000
   30.8864   31.0283   14.3352 C   0  0  0  0  0  0  0  0  0  0  0  0
   29.9006   32.0389   14.5987 C   0  0  0  0  0  0  0  0  0  0  0  0
   30.1682   33.4332   14.3489 C   0  0  0  0  0  0  0  0  0  0  0  0
   31.4349   33.7612   13.8353 C   0  0  0  0  0  0  0  0  0  0  0  0
   32.4472   32.8376   13.5566 C   0  0  0  0  0  0  0  0  0  0  0  0
   32.1573   31.4421   13.8143 C   0  0  0  0  0  0  0  0  0  0  0  0
   30.5884   29.5327   14.6288 C   0  0  0  0  0  0  0  0  0  0  0  0
   31.7148   28.6638   14.0820 C   0  0  0  0  0  0  0  0  0  0  0  0
   29.3209   29.1378   13.8744 C   0  0  0  0  0  0  0  0  0  0  0  0
   30.3675   29.2730   16.1501 C   0  0  0  0  0  0  0  0  0  0  0  0
   31.0714   29.5800   17.4615 C   0  0  0  0  0  0  0  0  0  0  0  0
   30.0646   29.6272   18.6191 C   0  0  0  0  0  0  0  0  0  0  0  0
   32.0166   28.4104   17.7500 C   0  0  0  0  0  0  0  0  0  0  0  0
   31.9079   30.8743   17.5431 C   0  0  0  0  0  0  0  0  0  0  0  0
   31.6951   35.1445   13.4914 O   0  0  0  0  0  0  0  0  0  0  0  0
   31.8109   36.0135   14.6269 C   0  0  0  0  0  0  0  0  0  0  0  0
   32.8613   37.0742   14.3612 C   0  0  0  0  0  0  0  0  0  0  0  0
   32.3299   38.1104   13.5289 O   0  0  0  0  0  0  0  0  0  0  0  0
   33.1237   39.3012   13.5991 C   0  0  0  0  0  0  0  0  0  0  0  0
   33.5937   39.5380   15.0212 C   0  0  0  0  0  0  0  0  0  0  0  0
   32.5382   40.0922   15.8070 O   0  0  0  0  0  0  0  0  0  0  0  0
   32.5898   41.5208   15.8574 C   0  0  0  0  0  0  0  0  0  0  0  0
   33.6845   41.9742   16.8223 C   0  0  0  0  0  0  0  0  0  0  0  0
   33.1556   42.9157   17.7565 O   0  0  0  0  0  0  0  0  0  0  0  0
   33.8531   42.8880   19.0009 C   0  0  0  0  0  0  0  0  0  0  0  0
 10 11  1  0  0  0
 10  7  1  0  0  0
 11 12  1  0  0  0
 11 13  1  0  0  0
 11 14  1  0  0  0
  7  1  1  0  0  0
  7  8  1  0  0  0
  7  9  1  0  0  0
  1  2  2  0  0  0
  1  6  1  0  0  0
  2  3  1  0  0  0
  3  4  2  0  0  0
  4  5  1  0  0  0
  4 15  1  0  0  0
  5  6  2  0  0  0
 15 16  1  0  0  0
 16 17  1  0  0  0
 17 18  1  0  0  0
 18 19  1  0  0  0
 19 20  1  0  0  0
 20 21  1  0  0  0
 21 22  1  0  0  0
 22 23  1  0  0  0
 23 24  1  0  0  0
 24 25  1  0  0  0
M  END
> <minimizedAffinity>
-7.20988

$$$$
1IKT_OXN_A_123


 25 25  0  0  0  0  0  0  0  0999 V2000
   31.4138   33.4479   14.5118 C   0  0  0  0  0  0  0  0  0  0  0  0
   31.3864   34.6113   15.3533 C   0  0  0  0  0  0  0  0  0  0  0  0
   31.7062   35.9192   14.8383 C   0  0  0  0  0  0  0  0  0  0  0  0
   32.0448   36.0073   13.4769 C   0  0  0  0  0  0  0  0  0  0  0  0
   32.0975   34.9230   12.5954 C   0  0  0  0  0  0  0  0  0  0  0  0
   31.7722   33.6181   13.1332 C   0  0  0  0  0  0  0  0  0  0  0  0
   31.0858   32.0434   15.0876 C   0  0  0  0  0  0  0  0  0  0  0  0
   29.5762   31.8755   15.2135 C   0  0  0  0  0  0  0  0  0  0  0  0
   31.6585   31.9572   16.5005 C   0  0  0  0  0  0  0  0  0  0  0  0
   31.7071   30.9032   14.2248 C   0  0  0  0  0  0  0  0  0  0  0  0
   31.6471   29.3867   14.1460 C   0  0  0  0  0  0  0  0  0  0  0  0
   30.4967   28.9362   13.2354 C   0  0  0  0  0  0  0  0  0  0  0  0
   32.9434   28.9186   13.4788 C   0  0  0  0  0  0  0  0  0  0  0  0
   31.5048   28.6029   15.4677 C   0  0  0  0  0  0  0  0  0  0  0  0
   32.2817   37.3220   12.9157 O   0  0  0  0  0  0  0  0  0  0  0  0
   32.9485   38.2238   13.8102 C   0  0  0  0  0  0  0  0  0  0  0  0
   32.9069   39.6323   13.2505 C   0  0  0  0  0  0  0  0  0  0  0  0
   33.1377   40.5921   14.2870 O   0  0  0  0  0  0  0  0  0  0  0  0
   33.8108   40.0054   15.4076 C   0  0  0  0  0  0  0  0  0  0  0  0
   34.4376   41.0841   16.2695 C   0  0  0  0  0  0  0  0  0  0  0  0
   33.4644   42.0692   16.6175 O   0  0  0  0  0  0  0  0  0  0  0  0
   33.6137   42.5299   17.9634 C   0  0  0  0  0  0  0  0  0  0  0  0
   33.2089   43.9999   18.0645 C   0  0  0  0  0  0  0  0  0  0  0  0
   32.4467   44.2181   19.2521 O   0  0  0  0  0  0  0  0  0  0  0  0
   32.9419   43.4607   20.3553 C   0  0  0  0  0  0  0  0  0  0  0  0
 10 11  1  0  0  0
 10  7  1  0  0  0
 11 12  1  0  0  0
 11 13  1  0  0  0
 11 14  1  0  0  0
  7  1  1  0  0  0
  7  8  1  0  0  0
  7  9  1  0  0  0
  1  2  2  0  0  0
  1  6  1  0  0  0
  2  3  1  0  0  0
  3  4  2  0  0  0
  4  5  1  0  0  0
  4 15  1  0  0  0
  5  6  2  0  0  0
 15 16  1  0  0  0
 16 17  1  0  0  0
 17 18  1  0  0  0
 18 19  1  0  0  0
 19 20  1  0  0  0
 20 21  1  0  0  0
 21 22  1  0  0  0
 22 23  1  0  0  0
 23 24  1  0  0  0
 24 25  1  0  0  0
M  END
> <minimizedAffinity>
-7.12514

$$$$
1IKT_OXN_A_123


 25 25  0  0  0  0  0  0  0  0999 V2000
   31.6722   33.5672   14.3530 C   0  0  0  0  0  0  0  0  0  0  0  0
   31.4111   34.6461   15.2641 C   0  0  0  0  0  0  0  0  0  0  0  0
   31.5493   36.0225   14.8585 C   0  0  0  0  0  0  0  0  0  0  0  0
   31.9496   36.2634   13.5328 C   0  0  0  0  0  0  0  0  0  0  0  0
   32.2256   35.2694   12.5888 C   0  0  0  0  0  0  0  0  0  0  0  0
   32.0800   33.8933   13.0168 C   0  0  0  0  0  0  0  0  0  0  0  0
   31.5376   32.0898   14.8122 C   0  0  0  0  0  0  0  0  0  0  0  0
   32.1885   31.9114   16.1787 C   0  0  0  0  0  0  0  0  0  0  0  0
   32.3143   31.2098   13.8355 C   0  0  0  0  0  0  0  0  0  0  0  0
   30.0504   31.6224   14.8339 C   0  0  0  0  0  0  0  0  0  0  0  0
   29.2786   30.3183   14.9487 C   0  0  0  0  0  0  0  0  0  0  0  0
   29.9828   29.3547   15.9138 C   0  0  0  0  0  0  0  0  0  0  0  0
   27.9214   30.6516   15.5746 C   0  0  0  0  0  0  0  0  0  0  0  0
   29.0020   29.5295   13.6515 C   0  0  0  0  0  0  0  0  0  0  0  0
   32.0078   37.6372   13.0759 O   0  0  0  0  0  0  0  0  0  0  0  0
   33.3119   38.2272   13.1737 C   0  0  0  0  0  0  0  0  0  0  0  0
   33.3274   39.2678   14.2763 C   0  0  0  0  0  0  0  0  0  0  0  0
   32.0058   39.7600   14.5215 O   0  0  0  0  0  0  0  0  0  0  0  0
   31.9733   40.6417   15.6505 C   0  0  0  0  0  0  0  0  0  0  0  0
   33.3828   40.9732   16.1008 C   0  0  0  0  0  0  0  0  0  0  0  0
   33.3514   41.8856   17.1986 O   0  0  0  0  0  0  0  0  0  0  0  0
   33.2644   43.2480   16.7716 C   0  0  0  0  0  0  0  0  0  0  0  0
   33.2323   44.1784   17.9833 C   0  0  0  0  0  0  0  0  0  0  0  0
   33.1439   45.5378   17.5556 O   0  0  0  0  0  0  0  0  0  0  0  0
   33.0449   45.6495   16.1365 C   0  0  0  0  0  0  0  0  0  0  0  0
 10 11  1  0  0  0
 10  7  1  0  0  0
 11 12  1  0  0  0
 11 13  1  0  0  0
 11 14  1  0  0  0
  7  1  1  0  0  0
  7  8  1  0  0  0
  7  9  1  0  0  0
  1  2  2  0  0  0
  1  6  1  0  0  0
  2  3  1  0  0  0
  3  4  2  0  0  0
  4  5  1  0  0  0
  4 15  1  0  0  0
  5  6  2  0  0  0
 15 16  1  0  0  0
 16 17  1  0  0  0
 17 18  1  0  0  0
 18 19  1  0  0  0
 19 20  1  0  0  0
 20 21  1  0  0  0
 21 22  1  0  0  0
 22 23  1  0  0  0
 23 24  1  0  0  0
 24 25  1  0  0  0
M  END
> <minimizedAffinity>
-6.70210

$$$$
1IKT_OXN_A_123


 25 25  0  0  0  0  0  0  0  0999 V2000
   30.0834   28.4396   17.7023 C   0  0  0  0  0  0  0  0  0  0  0  0
   31.3379   28.9059   17.1815 C   0  0  0  0  0  0  0  0  0  0  0  0
   31.4240   30.1115   16.3958 C   0  0  0  0  0  0  0  0  0  0  0  0
   30.2278   30.8118   16.1624 C   0  0  0  0  0  0  0  0  0  0  0  0
   28.9695   30.4214   16.6311 C   0  0  0  0  0  0  0  0  0  0  0  0
   28.9054   29.2075   17.4187 C   0  0  0  0  0  0  0  0  0  0  0  0
   30.0056   27.1279   18.5301 C   0  0  0  0  0  0  0  0  0  0  0  0
   28.9786   27.2805   19.6458 C   0  0  0  0  0  0  0  0  0  0  0  0
   31.3578   26.9031   19.2031 C   0  0  0  0  0  0  0  0  0  0  0  0
   29.6809   25.8945   17.6335 C   0  0  0  0  0  0  0  0  0  0  0  0
   28.9911   25.6121   16.3092 C   0  0  0  0  0  0  0  0  0  0  0  0
   28.9901   24.1070   16.0085 C   0  0  0  0  0  0  0  0  0  0  0  0
   27.5260   26.0286   16.4666 C   0  0  0  0  0  0  0  0  0  0  0  0
   29.5343   26.3195   15.0499 C   0  0  0  0  0  0  0  0  0  0  0  0
   30.3021   32.0730   15.4531 O   0  0  0  0  0  0  0  0  0  0  0  0
   31.3077   32.1060   14.4304 C   0  0  0  0  0  0  0  0  0  0  0  0
   31.9810   33.4643   14.4109 C   0  0  0  0  0  0  0  0  0  0  0  0
   31.0564   34.4891   14.7900 O   0  0  0  0  0  0  0  0  0  0  0  0
   31.6837   35.7769   14.8270 C   0  0  0  0  0  0  0  0  0  0  0  0
   32.0991   36.2008   13.4317 C   0  0  0  0  0  0  0  0  0  0  0  0
   32.3883   37.5988   13.4031 O   0  0  0  0  0  0  0  0  0  0  0  0
   33.4528   37.9524   14.2906 C   0  0  0  0  0  0  0  0  0  0  0  0
   33.3893   39.4430   14.6212 C   0  0  0  0  0  0  0  0  0  0  0  0
   32.5251   39.6616   15.7366 O   0  0  0  0  0  0  0  0  0  0  0  0
   31.7109   40.8209   15.5665 C   0  0  0  0  0  0  0  0  0  0  0  0
 10 11  1  0  0  0
 10  7  1  0  0  0
 11 12  1  0  0  0
 11 13  1  0  0  0
 11 14  1  0  0  0
  7  1  1  0  0  0
  7  8  1  0  0  0
  7  9  1  0  0  0
  1  2  2  0  0  0
  1  6  1  0  0  0
  2  3  1  0  0  0
  3  4  2  0  0  0
  4  5  1  0  0  0
  4 15  1  0  0  0
  5  6  2  0  0  0
 15 16  1  0  0  0
 16 17  1  0  0  0
 17 18  1  0  0  0
 18 19  1  0  0  0
 19 20  1  0  0  0
 20 21  1  0  0  0
 21 22  1  0  0  0
 22 23  1  0  0  0
 23 24  1  0  0  0
 24 25  1  0  0  0
M  END
> <minimizedAffinity>
-6.67314

$$$$
1IKT_OXN_A_123


 25 25  0  0  0  0  0  0  0  0999 V2000
   29.8253   28.3771   15.8316 C   0  0  0  0  0  0  0  0  0  0  0  0
   28.8326   29.2817   15.3230 C   0  0  0  0  0  0  0  0  0  0  0  0
   29.0751   30.7010   15.2520 C   0  0  0  0  0  0  0  0  0  0  0  0
   30.3251   31.1614   15.7007 C   0  0  0  0  0  0  0  0  0  0  0  0
   31.3399   30.3462   16.2116 C   0  0  0  0  0  0  0  0  0  0  0  0
   31.0758   28.9234   16.2737 C   0  0  0  0  0  0  0  0  0  0  0  0
   29.5401   26.8530   15.9196 C   0  0  0  0  0  0  0  0  0  0  0  0
   30.4906   26.2057   16.9197 C   0  0  0  0  0  0  0  0  0  0  0  0
   29.8395   26.2284   14.5587 C   0  0  0  0  0  0  0  0  0  0  0  0
   28.0536   26.5614   16.2885 C   0  0  0  0  0  0  0  0  0  0  0  0
   27.2187   25.3840   16.7641 C   0  0  0  0  0  0  0  0  0  0  0  0
   27.0866   25.3956   18.2931 C   0  0  0  0  0  0  0  0  0  0  0  0
   25.8078   25.5755   16.2007 C   0  0  0  0  0  0  0  0  0  0  0  0
   27.6813   23.9667   16.3657 C   0  0  0  0  0  0  0  0  0  0  0  0
   30.6260   32.5713   15.5552 O   0  0  0  0  0  0  0  0  0  0  0  0
   29.9954   33.1860   14.4227 C   0  0  0  0  0  0  0  0  0  0  0  0
   30.6461   34.5242   14.1317 C   0  0  0  0  0  0  0  0  0  0  0  0
   31.0748   34.5885   12.7675 O   0  0  0  0  0  0  0  0  0  0  0  0
   32.1402   35.5310   12.5943 C   0  0  0  0  0  0  0  0  0  0  0  0
   32.1602   36.5204   13.7431 C   0  0  0  0  0  0  0  0  0  0  0  0
   32.1716   37.8587   13.2454 O   0  0  0  0  0  0  0  0  0  0  0  0
   32.8125   38.7681   14.1444 C   0  0  0  0  0  0  0  0  0  0  0  0
   31.8133   39.2708   15.1856 C   0  0  0  0  0  0  0  0  0  0  0  0
   32.2541   40.5163   15.7271 O   0  0  0  0  0  0  0  0  0  0  0  0
   33.6135   40.7955   15.3956 C   0  0  0  0  0  0  0  0  0  0  0  0
 10 11  1  0  0  0
 10  7  1  0  0  0
 11 12  1  0  0  0
 11 13  1  0  0  0
 11 14  1  0  0  0
  7  1  1  0  0  0
  7  8  1  0  0  0
  7  9  1  0  0  0
  1  2  2  0  0  0
  1  6  1  0  0  0
  2  3  1  0  0  0
  3  4  2  0  0  0
  4  5  1  0  0  0
  4 15  1  0  0  0
  5  6  2  0  0  0
 15 16  1  0  0  0
 16 17  1  0  0  0
 17 18  1  0  0  0
 18 19  1  0  0  0
 19 20  1  0  0  0
 20 21  1  0  0  0
 21 22  1  0  0  0
 22 23  1  0  0  0
 23 24  1  0  0  0
 24 25  1  0  0  0
M  END
> <minimizedAffinity>
-6.59831

$$$$
1IKT_OXN_A_123


 25 25  0  0  0  0  0  0  0  0999 V2000
   30.4638   29.5412   16.0183 C   0  0  0  0  0  0  0  0  0  0  0  0
   29.8063   30.0001   17.2097 C   0  0  0  0  0  0  0  0  0  0  0  0
   30.1991   29.5284   18.5141 C   0  0  0  0  0  0  0  0  0  0  0  0
   31.2539   28.6009   18.5699 C   0  0  0  0  0  0  0  0  0  0  0  0
   31.9401   28.1041   17.4574 C   0  0  0  0  0  0  0  0  0  0  0  0
   31.5299   28.5915   16.1566 C   0  0  0  0  0  0  0  0  0  0  0  0
   30.0148   30.0448   14.6194 C   0  0  0  0  0  0  0  0  0  0  0  0
   28.5922   30.5862   14.6966 C   0  0  0  0  0  0  0  0  0  0  0  0
   29.9815   28.8518   13.6668 C   0  0  0  0  0  0  0  0  0  0  0  0
   30.9925   31.1158   14.0472 C   0  0  0  0  0  0  0  0  0  0  0  0
   31.5484   32.4698   14.4559 C   0  0  0  0  0  0  0  0  0  0  0  0
   32.8016   32.8108   13.6380 C   0  0  0  0  0  0  0  0  0  0  0  0
   30.4916   33.5179   14.0962 C   0  0  0  0  0  0  0  0  0  0  0  0
   31.9127   32.6793   15.9408 C   0  0  0  0  0  0  0  0  0  0  0  0
   31.7261   28.1815   19.8740 O   0  0  0  0  0  0  0  0  0  0  0  0
   31.9593   26.7700   19.9810 C   0  0  0  0  0  0  0  0  0  0  0  0
   30.8176   26.1127   20.7315 C   0  0  0  0  0  0  0  0  0  0  0  0
   30.4548   24.8749   20.1110 O   0  0  0  0  0  0  0  0  0  0  0  0
   31.0874   24.7204   18.8346 C   0  0  0  0  0  0  0  0  0  0  0  0
   30.1968   23.9276   17.8978 C   0  0  0  0  0  0  0  0  0  0  0  0
   28.8881   23.7928   18.4526 O   0  0  0  0  0  0  0  0  0  0  0  0
   27.8876   24.4197   17.6453 C   0  0  0  0  0  0  0  0  0  0  0  0
   27.5084   25.7768   18.2365 C   0  0  0  0  0  0  0  0  0  0  0  0
   28.1910   26.8219   17.5431 O   0  0  0  0  0  0  0  0  0  0  0  0
   28.2263   26.5984   16.1343 C   0  0  0  0  0  0  0  0  0  0  0  0
 10 11  1  0  0  0
 10  7  1  0  0  0
 11 12  1  0  0  0
 11 13  1  0  0  0
 11 14  1  0  0  0
  7  1  1  0  0  0
  7  8  1  0  0  0
  7  9  1  0  0  0
  1  2  2  0  0  0
  1  6  1  0  0  0
  2  3  1  0  0  0
  3  4  2  0  0  0
  4  5  1  0  0  0
  4 15  1  0  0  0
  5  6  2  0  0  0
 15 16  1  0  0  0
 16 17  1  0  0  0
 17 18  1  0  0  0
 18 19  1  0  0  0
 19 20  1  0  0  0
 20 21  1  0  0  0
 21 22  1  0  0  0
 22 23  1  0  0  0
 23 24  1  0  0  0
 24 25  1  0  0  0
M  END
> <minimizedAffinity>
-6.44766

$$$$
1IKT_OXN_A_123


 25 25  0  0  0  0  0  0  0  0999 V2000
   29.1492   27.1555   16.1605 C   0  0  0  0  0  0  0  0  0  0  0  0
   28.6987   28.4017   16.7140 C   0  0  0  0  0  0  0  0  0  0  0  0
   29.0909   29.6646   16.1397 C   0  0  0  0  0  0  0  0  0  0  0  0
   29.9319   29.6238   15.0142 C   0  0  0  0  0  0  0  0  0  0  0  0
   30.4150   28.4536   14.4203 C   0  0  0  0  0  0  0  0  0  0  0  0
   30.0086   27.1959   15.0127 C   0  0  0  0  0  0  0  0  0  0  0  0
   28.7332   25.8045   16.8037 C   0  0  0  0  0  0  0  0  0  0  0  0
   28.6559   24.7235   15.7322 C   0  0  0  0  0  0  0  0  0  0  0  0
   27.3264   25.9580   17.3775 C   0  0  0  0  0  0  0  0  0  0  0  0
   29.7003   25.3871   17.9531 C   0  0  0  0  0  0  0  0  0  0  0  0
   30.4783   26.0578   19.0730 C   0  0  0  0  0  0  0  0  0  0  0  0
   30.9908   25.0158   20.0767 C   0  0  0  0  0  0  0  0  0  0  0  0
   31.7149   26.7017   18.4397 C   0  0  0  0  0  0  0  0  0  0  0  0
   29.7617   27.1525   19.8913 C   0  0  0  0  0  0  0  0  0  0  0  0
   30.2659   30.8756   14.3656 O   0  0  0  0  0  0  0  0  0  0  0  0
   31.4726   31.4789   14.8534 C   0  0  0  0  0  0  0  0  0  0  0  0
   31.2494   32.9589   15.0958 C   0  0  0  0  0  0  0  0  0  0  0  0
   31.9885   33.7400   14.1511 O   0  0  0  0  0  0  0  0  0  0  0  0
   31.3620   35.0058   13.9097 C   0  0  0  0  0  0  0  0  0  0  0  0
   31.9937   36.0797   14.7740 C   0  0  0  0  0  0  0  0  0  0  0  0
   32.2193   37.2638   14.0087 O   0  0  0  0  0  0  0  0  0  0  0  0
   33.4917   37.8559   14.2848 C   0  0  0  0  0  0  0  0  0  0  0  0
   33.3457   39.3692   14.4392 C   0  0  0  0  0  0  0  0  0  0  0  0
   33.4141   39.7303   15.8189 O   0  0  0  0  0  0  0  0  0  0  0  0
   33.8754   41.0680   16.0022 C   0  0  0  0  0  0  0  0  0  0  0  0
 10 11  1  0  0  0
 10  7  1  0  0  0
 11 12  1  0  0  0
 11 13  1  0  0  0
 11 14  1  0  0  0
  7  1  1  0  0  0
  7  8  1  0  0  0
  7  9  1  0  0  0
  1  2  2  0  0  0
  1  6  1  0  0  0
  2  3  1  0  0  0
  3  4  2  0  0  0
  4  5  1  0  0  0
  4 15  1  0  0  0
  5  6  2  0  0  0
 15 16  1  0  0  0
 16 17  1  0  0  0
 17 18  1  0  0  0
 18 19  1  0  0  0
 19 20  1  0  0  0
 20 21  1  0  0  0
 21 22  1  0  0  0
 22 23  1  0  0  0
 23 24  1  0  0  0
 24 25  1  0  0  0
M  END
> <minimizedAffinity>
-6.37123

$$$$
1IKT_OXN_A_123


 25 25  0  0  0  0  0  0  0  0999 V2000
   29.8036   28.6790   17.4414 C   0  0  0  0  0  0  0  0  0  0  0  0
   28.7807   29.3968   16.7337 C   0  0  0  0  0  0  0  0  0  0  0  0
   29.0308   30.6989   16.1677 C   0  0  0  0  0  0  0  0  0  0  0  0
   30.3191   31.2352   16.3371 C   0  0  0  0  0  0  0  0  0  0  0  0
   31.3651   30.6014   17.0149 C   0  0  0  0  0  0  0  0  0  0  0  0
   31.0927   29.2939   17.5755 C   0  0  0  0  0  0  0  0  0  0  0  0
   29.5112   27.2857   18.0620 C   0  0  0  0  0  0  0  0  0  0  0  0
   29.4450   27.3993   19.5804 C   0  0  0  0  0  0  0  0  0  0  0  0
   30.6824   26.3604   17.7398 C   0  0  0  0  0  0  0  0  0  0  0  0
   28.2043   26.6580   17.4888 C   0  0  0  0  0  0  0  0  0  0  0  0
   27.7014   25.2877   17.0659 C   0  0  0  0  0  0  0  0  0  0  0  0
   27.7121   24.3159   18.2538 C   0  0  0  0  0  0  0  0  0  0  0  0
   26.2374   25.4541   16.6488 C   0  0  0  0  0  0  0  0  0  0  0  0
   28.4301   24.5813   15.9034 C   0  0  0  0  0  0  0  0  0  0  0  0
   30.6210   32.5010   15.7000 O   0  0  0  0  0  0  0  0  0  0  0  0
   31.9456   32.5754   15.1542 C   0  0  0  0  0  0  0  0  0  0  0  0
   31.9382   33.4141   13.8911 C   0  0  0  0  0  0  0  0  0  0  0  0
   32.8375   32.8687   12.9203 O   0  0  0  0  0  0  0  0  0  0  0  0
   33.6259   31.8064   13.4710 C   0  0  0  0  0  0  0  0  0  0  0  0
   33.4972   30.5587   12.6190 C   0  0  0  0  0  0  0  0  0  0  0  0
   32.9106   29.4993   13.3758 O   0  0  0  0  0  0  0  0  0  0  0  0
   31.4819   29.5658   13.3881 C   0  0  0  0  0  0  0  0  0  0  0  0
   30.8966   28.2278   13.8376 C   0  0  0  0  0  0  0  0  0  0  0  0
   29.4796   28.2284   13.6615 O   0  0  0  0  0  0  0  0  0  0  0  0
   29.1089   28.3087   12.2860 C   0  0  0  0  0  0  0  0  0  0  0  0
 10 11  1  0  0  0
 10  7  1  0  0  0
 11 12  1  0  0  0
 11 13  1  0  0  0
 11 14  1  0  0  0
  7  1  1  0  0  0
  7  8  1  0  0  0
  7  9  1  0  0  0
  1  2  2  0  0  0
  1  6  1  0  0  0
  2  3  1  0  0  0
  3  4  2  0  0  0
  4  5  1  0  0  0
  4 15  1  0  0  0
  5  6  2  0  0  0
 15 16  1  0  0  0
 16 17  1  0  0  0
 17 18  1  0  0  0
 18 19  1  0  0  0
 19 20  1  0  0  0
 20 21  1  0  0  0
 21 22  1  0  0  0
 22 23  1  0  0  0
 23 24  1  0  0  0
 24 25  1  0  0  0
M  END
> <minimizedAffinity>
-6.11269

$$$$
