3KGQ_CIT_A_310
  RCSB PDB12061709263D
Coordinates from PDB:3KGQ:A:310 Model:1 without hydrogens
 13 12  0  0  0  0            999 V2000
    3.8950    0.7110    6.0870   C 0  0  0  0  0  0  0  0  0  0  0  0
    3.1130    0.9690    7.0150   O 0  0  0  0  0  0  0  0  0  0  0  0
    3.8160    1.4190    5.0750   O 0  0  0  0  0  0  0  0  0  0  0  0
    4.9030   -0.4100    6.1880   C 0  0  0  0  0  0  0  0  0  0  0  0
    6.3020    0.1900    6.0690   C 0  0  0  0  0  0  0  0  0  0  0  0
    6.3780    1.3480    6.9520   O 0  0  0  0  0  0  0  0  0  0  0  0
    7.3590   -0.8330    6.4800   C 0  0  0  0  0  0  0  0  0  0  0  0
    8.7480   -0.2500    6.3540   C 0  0  0  0  0  0  0  0  0  0  0  0
    9.2620   -0.0980    5.2240   O 0  0  0  0  0  0  0  0  0  0  0  0
    9.3970    0.0820    7.3750   O 0  0  0  0  0  0  0  0  0  0  0  0
    6.5130    0.6150    4.6180   C 0  0  0  0  0  0  0  0  0  0  0  0
    6.1950   -0.1480    3.6760   O 0  0  0  0  0  0  0  0  0  0  0  0
    6.9990    1.7400    4.3620   O 0  0  0  0  0  0  0  0  0  0  0  0
  1  2  2  0  0  0  0
  1  3  1  0  0  0  0
  1  4  1  0  0  0  0
  4  5  1  0  0  0  0
  5  6  1  0  0  0  0
  5  7  1  0  0  0  0
  5 11  1  0  0  0  0
  7  8  1  0  0  0  0
  8  9  2  0  0  0  0
  8 10  1  0  0  0  0
 11 12  2  0  0  0  0
 11 13  1  0  0  0  0
A    1
C1
A    2
O1
A    3
O2
A    4
C2
A    5
C3
A    6
O7
A    7
C4
A    8
C5
A    9
O3
A   10
O4
A   11
C6
A   12
O5
A   13
O6
M  END
>  <InstanceId>
3KGQ_CIT_A_310

>  <ChemCompId>
CIT

>  <PdbId>
3KGQ

>  <ChainId>
A

>  <ResidueNumber>
310

>  <InsertionCode>


>  <Model>
1

>  <AltIds>


>  <MissingHeavyAtoms>
0

>  <ObservedFormula>
C6 O7

>  <Name>
CITRIC ACID

>  <SystematicName>
2-hydroxypropane-1,2,3-tricarboxylic acid

>  <Synonyms>


>  <Type>
NON-POLYMER

>  <Formula>
C6 H8 O7

>  <MolecularWeight>
192.124

>  <ModifiedDate>
2011-06-04

>  <Parent>


>  <OneLetterCode>


>  <SubcomponentList>


>  <AmbiguousFlag>
N

>  <InChI>
InChI=1S/C6H8O7/c7-3(8)1-6(13,5(11)12)2-4(9)10/h13H,1-2H2,(H,7,8)(H,9,10)(H,11,12)

>  <InChIKey>
KRKNYBCHXYNGOX-UHFFFAOYSA-N

>  <SMILES>
C(C(=O)O)C(CC(=O)O)(C(=O)O)O

$$$$
