4HEG_G52_A_401


 44 48  0  0  0  0  0  0  0  0999 V2000
  -13.5195  -20.9499   19.2381 C   0  0  0  0  0  0  0  0  0  0  0  0
  -14.5767  -21.9485   19.2855 N   0  0  0  0  0  0  0  0  0  0  0  0
  -14.5954  -23.1805   18.7790 C   0  0  0  0  0  0  0  0  0  0  0  0
  -13.6601  -23.7499   18.1961 O   0  0  0  0  0  0  0  0  0  0  0  0
  -15.3949  -21.6747   19.7596 H   0  0  0  0  0  0  0  0  0  0  0  0
  -15.7883  -23.8078   18.9527 O   0  0  0  0  0  0  0  0  0  0  0  0
  -15.7912  -24.9237   19.8447 C   0  0  0  0  0  0  0  0  0  0  0  0
  -16.3538  -24.4178   21.1749 C   0  0  0  0  0  0  0  0  0  0  0  0
  -17.7739  -24.4112   21.0289 O   0  0  0  0  0  0  0  0  0  0  0  0
  -18.1699  -25.3557   20.0323 C   0  0  0  0  0  0  0  0  0  0  0  0
  -18.8264  -24.6399   18.9801 O   0  0  0  0  0  0  0  0  0  0  0  0
  -18.2554  -24.9213   17.7198 C   0  0  0  0  0  0  0  0  0  0  0  0
  -17.1685  -25.9711   17.9485 C   0  0  0  0  0  0  0  0  0  0  0  0
  -16.8904  -25.9233   19.4437 C   0  0  0  0  0  0  0  0  0  0  0  0
  -19.2017  -25.5351   16.8412 O   0  0  0  0  0  0  0  0  0  0  0  0
  -19.3481  -26.8588   17.3448 C   0  0  0  0  0  0  0  0  0  0  0  0
  -17.9014  -27.2650   17.5531 C   0  0  0  0  0  0  0  0  0  0  0  0
  -13.7800  -19.9551   18.1138 C   0  0  0  0  0  0  0  0  0  0  0  0
  -14.3631  -18.7353   18.5849 O   0  0  0  0  0  0  0  0  0  0  0  0
  -15.2371  -18.9197   18.9631 H   0  0  0  0  0  0  0  0  0  0  0  0
  -14.6198  -20.5637   17.0018 C   0  0  0  0  0  0  0  0  0  0  0  0
  -14.2661  -19.9208   15.7378 N   0  0  0  0  0  0  0  0  0  0  0  0
  -12.7853  -20.3723   15.1827 S   0  0  0  0  0  0  0  0  0  0  0  0
  -12.7805  -20.1192   13.7051 O   0  0  0  0  0  0  0  0  0  0  0  0
  -12.6183  -21.7916   15.5191 O   0  0  0  0  0  0  0  0  0  0  0  0
   -9.6515  -17.9120   17.3675 C   0  0  0  0  0  0  0  0  0  0  0  0
  -10.8426  -17.3427   16.9146 C   0  0  0  0  0  0  0  0  0  0  0  0
  -11.8095  -18.0872   16.2580 C   0  0  0  0  0  0  0  0  0  0  0  0
  -11.5588  -19.4087   15.9798 C   0  0  0  0  0  0  0  0  0  0  0  0
  -10.3417  -19.9608   16.3443 C   0  0  0  0  0  0  0  0  0  0  0  0
   -9.3608  -19.2141   16.9982 C   0  0  0  0  0  0  0  0  0  0  0  0
   -8.8009  -17.0845   18.0112 O   0  0  0  0  0  0  0  0  0  0  0  0
   -8.3589  -15.9740   17.2390 C   0  0  0  0  0  0  0  0  0  0  0  0
  -15.3200  -19.9047   14.7478 C   0  0  0  0  0  0  0  0  0  0  0  0
  -16.1215  -21.2114   14.6855 C   0  0  0  0  0  0  0  0  0  0  0  0
  -17.6144  -20.9733   14.4435 C   0  0  0  0  0  0  0  0  0  0  0  0
  -15.6209  -22.0737   13.5025 C   0  0  0  0  0  0  0  0  0  0  0  0
  -12.1695  -21.6542   19.0738 C   0  0  0  0  0  0  0  0  0  0  0  0
   -9.8378  -21.4905   19.9899 C   0  0  0  0  0  0  0  0  0  0  0  0
   -8.8867  -20.8083   20.7202 C   0  0  0  0  0  0  0  0  0  0  0  0
   -9.1730  -19.5544   21.2389 C   0  0  0  0  0  0  0  0  0  0  0  0
  -10.3539  -18.9007   20.9124 C   0  0  0  0  0  0  0  0  0  0  0  0
  -11.3281  -19.5842   20.2113 C   0  0  0  0  0  0  0  0  0  0  0  0
  -11.0683  -20.8741   19.7786 C   0  0  0  0  0  0  0  0  0  0  0  0
 27 26  2  0  0  0
 32 26  1  0  0  0
 26 31  1  0  0  0
 27 28  1  0  0  0
 28 29  2  0  0  0
 29 30  1  0  0  0
 29 23  1  0  0  0
 31 30  2  0  0  0
 24 23  2  0  0  0
 23 25  2  0  0  0
 23 22  1  0  0  0
 22 21  1  0  0  0
 22 34  1  0  0  0
 34 35  1  0  0  0
 36 35  1  0  0  0
 35 37  1  0  0  0
 21 18  1  0  0  0
  1 18  1  0  0  0
 18 19  1  0  0  0
 38  1  1  0  0  0
  1  2  1  0  0  0
  2  3  1  0  0  0
  4  3  2  0  0  0
  3  6  1  0  0  0
  6  7  1  0  0  0
 14  7  1  0  0  0
  7  8  1  0  0  0
  9  8  1  0  0  0
 10  9  1  0  0  0
 14 10  1  0  0  0
 11 10  1  0  0  0
 12 11  1  0  0  0
 15 12  1  0  0  0
 13 12  1  0  0  0
 17 13  1  0  0  0
 13 14  1  0  0  0
 44 38  1  0  0  0
 40 39  2  0  0  0
 39 44  1  0  0  0
 41 40  1  0  0  0
 41 42  2  0  0  0
 42 43  1  0  0  0
 43 44  2  0  0  0
 32 33  1  0  0  0
 16 15  1  0  0  0
 17 16  1  0  0  0
 19 20  1  0  0  0
  2  5  1  0  0  0
M  END
> <minimizedAffinity>
-10.47616

$$$$
4HEG_G52_A_401


 44 48  0  0  0  0  0  0  0  0999 V2000
  -11.4940  -18.9772   18.5962 C   0  0  0  0  0  0  0  0  0  0  0  0
  -10.5531  -18.0788   17.9445 N   0  0  0  0  0  0  0  0  0  0  0  0
   -9.7339  -18.3146   16.9207 C   0  0  0  0  0  0  0  0  0  0  0  0
   -9.6543  -19.3681   16.2706 O   0  0  0  0  0  0  0  0  0  0  0  0
  -10.5166  -17.1665   18.3127 H   0  0  0  0  0  0  0  0  0  0  0  0
   -8.9379  -17.2543   16.6227 O   0  0  0  0  0  0  0  0  0  0  0  0
   -8.6679  -17.0371   15.2367 C   0  0  0  0  0  0  0  0  0  0  0  0
   -9.5956  -15.9077   14.7831 C   0  0  0  0  0  0  0  0  0  0  0  0
   -8.9702  -14.6913   15.1920 O   0  0  0  0  0  0  0  0  0  0  0  0
   -7.5595  -14.8819   15.3170 C   0  0  0  0  0  0  0  0  0  0  0  0
   -7.1977  -14.6291   16.6793 O   0  0  0  0  0  0  0  0  0  0  0  0
   -6.4741  -15.7056   17.2373 C   0  0  0  0  0  0  0  0  0  0  0  0
   -6.2782  -16.7342   16.1240 C   0  0  0  0  0  0  0  0  0  0  0  0
   -7.2992  -16.3559   15.0611 C   0  0  0  0  0  0  0  0  0  0  0  0
   -5.1574  -15.3063   17.6257 O   0  0  0  0  0  0  0  0  0  0  0  0
   -4.4558  -15.1506   16.3965 C   0  0  0  0  0  0  0  0  0  0  0  0
   -4.8437  -16.4210   15.6637 C   0  0  0  0  0  0  0  0  0  0  0  0
  -12.9214  -18.6398   18.1842 C   0  0  0  0  0  0  0  0  0  0  0  0
  -13.4097  -17.4531   18.8192 O   0  0  0  0  0  0  0  0  0  0  0  0
  -13.4528  -17.5939   19.7780 H   0  0  0  0  0  0  0  0  0  0  0  0
  -13.8687  -19.8069   18.4142 C   0  0  0  0  0  0  0  0  0  0  0  0
  -13.7901  -20.7110   17.2685 N   0  0  0  0  0  0  0  0  0  0  0  0
  -13.4506  -22.2614   17.6992 S   0  0  0  0  0  0  0  0  0  0  0  0
  -12.2358  -22.2116   18.5763 O   0  0  0  0  0  0  0  0  0  0  0  0
  -13.2266  -23.0100   16.4563 O   0  0  0  0  0  0  0  0  0  0  0  0
  -16.9535  -24.1017   19.9329 C   0  0  0  0  0  0  0  0  0  0  0  0
  -17.0739  -23.6733   18.6102 C   0  0  0  0  0  0  0  0  0  0  0  0
  -16.0084  -23.1219   17.9167 C   0  0  0  0  0  0  0  0  0  0  0  0
  -14.8173  -22.9239   18.5716 C   0  0  0  0  0  0  0  0  0  0  0  0
  -14.7141  -23.2616   19.9111 C   0  0  0  0  0  0  0  0  0  0  0  0
  -15.7860  -23.8095   20.6170 C   0  0  0  0  0  0  0  0  0  0  0  0
  -18.0592  -24.6406   20.4893 O   0  0  0  0  0  0  0  0  0  0  0  0
  -18.5909  -25.7571   19.7854 C   0  0  0  0  0  0  0  0  0  0  0  0
  -14.8505  -20.5561   16.2976 C   0  0  0  0  0  0  0  0  0  0  0  0
  -14.3971  -19.8765   14.9990 C   0  0  0  0  0  0  0  0  0  0  0  0
  -12.8955  -20.0357   14.7466 C   0  0  0  0  0  0  0  0  0  0  0  0
  -15.1128  -20.5287   13.7924 C   0  0  0  0  0  0  0  0  0  0  0  0
  -11.3035  -18.8904   20.1133 C   0  0  0  0  0  0  0  0  0  0  0  0
   -9.4008  -20.5216   20.2590 C   0  0  0  0  0  0  0  0  0  0  0  0
   -8.1351  -20.8438   20.7038 C   0  0  0  0  0  0  0  0  0  0  0  0
   -7.3743  -19.9036   21.3823 C   0  0  0  0  0  0  0  0  0  0  0  0
   -7.8027  -18.5875   21.4959 C   0  0  0  0  0  0  0  0  0  0  0  0
   -9.0803  -18.2595   21.0860 C   0  0  0  0  0  0  0  0  0  0  0  0
   -9.8696  -19.2320   20.4944 C   0  0  0  0  0  0  0  0  0  0  0  0
 27 26  2  0  0  0
 32 26  1  0  0  0
 26 31  1  0  0  0
 27 28  1  0  0  0
 28 29  2  0  0  0
 29 30  1  0  0  0
 29 23  1  0  0  0
 31 30  2  0  0  0
 24 23  2  0  0  0
 23 25  2  0  0  0
 23 22  1  0  0  0
 22 21  1  0  0  0
 22 34  1  0  0  0
 34 35  1  0  0  0
 36 35  1  0  0  0
 35 37  1  0  0  0
 21 18  1  0  0  0
  1 18  1  0  0  0
 18 19  1  0  0  0
 38  1  1  0  0  0
  1  2  1  0  0  0
  2  3  1  0  0  0
  4  3  2  0  0  0
  3  6  1  0  0  0
  6  7  1  0  0  0
 14  7  1  0  0  0
  7  8  1  0  0  0
  9  8  1  0  0  0
 10  9  1  0  0  0
 14 10  1  0  0  0
 11 10  1  0  0  0
 12 11  1  0  0  0
 15 12  1  0  0  0
 13 12  1  0  0  0
 17 13  1  0  0  0
 13 14  1  0  0  0
 44 38  1  0  0  0
 40 39  2  0  0  0
 39 44  1  0  0  0
 41 40  1  0  0  0
 41 42  2  0  0  0
 42 43  1  0  0  0
 43 44  2  0  0  0
 32 33  1  0  0  0
 16 15  1  0  0  0
 17 16  1  0  0  0
 19 20  1  0  0  0
  2  5  1  0  0  0
M  END
> <minimizedAffinity>
-10.45719

$$$$
4HEG_G52_A_401


 44 48  0  0  0  0  0  0  0  0999 V2000
  -11.5198  -19.6651   17.4774 C   0  0  0  0  0  0  0  0  0  0  0  0
  -10.6779  -18.5424   17.0928 N   0  0  0  0  0  0  0  0  0  0  0  0
   -9.6074  -18.5247   16.3001 C   0  0  0  0  0  0  0  0  0  0  0  0
   -9.1406  -19.4882   15.6736 O   0  0  0  0  0  0  0  0  0  0  0  0
  -10.9362  -17.6717   17.4726 H   0  0  0  0  0  0  0  0  0  0  0  0
   -9.0229  -17.3002   16.2248 O   0  0  0  0  0  0  0  0  0  0  0  0
   -8.6219  -16.8707   14.9226 C   0  0  0  0  0  0  0  0  0  0  0  0
   -9.4882  -15.6575   14.5771 C   0  0  0  0  0  0  0  0  0  0  0  0
   -8.8878  -14.5407   15.2329 O   0  0  0  0  0  0  0  0  0  0  0  0
   -7.4975  -14.7884   15.4517 C   0  0  0  0  0  0  0  0  0  0  0  0
   -7.2611  -14.7682   16.8639 O   0  0  0  0  0  0  0  0  0  0  0  0
   -6.6071  -15.9402   17.3022 C   0  0  0  0  0  0  0  0  0  0  0  0
   -6.3216  -16.7816   16.0587 C   0  0  0  0  0  0  0  0  0  0  0  0
   -7.2340  -16.2088   14.9839 C   0  0  0  0  0  0  0  0  0  0  0  0
   -5.3272  -15.6458   17.8673 O   0  0  0  0  0  0  0  0  0  0  0  0
   -4.5119  -15.3143   16.7480 C   0  0  0  0  0  0  0  0  0  0  0  0
   -4.8465  -16.4390   15.7864 C   0  0  0  0  0  0  0  0  0  0  0  0
  -12.7006  -19.7936   16.5231 C   0  0  0  0  0  0  0  0  0  0  0  0
  -13.9124  -19.2686   17.0761 O   0  0  0  0  0  0  0  0  0  0  0  0
  -14.1635  -19.7879   17.8560 H   0  0  0  0  0  0  0  0  0  0  0  0
  -12.8955  -21.2263   16.0523 C   0  0  0  0  0  0  0  0  0  0  0  0
  -14.3274  -21.5137   15.9961 N   0  0  0  0  0  0  0  0  0  0  0  0
  -14.9361  -21.4367   14.4703 S   0  0  0  0  0  0  0  0  0  0  0  0
  -14.0184  -22.2378   13.5965 O   0  0  0  0  0  0  0  0  0  0  0  0
  -14.9811  -20.0167   14.1003 O   0  0  0  0  0  0  0  0  0  0  0  0
  -19.1038  -23.2436   14.5808 C   0  0  0  0  0  0  0  0  0  0  0  0
  -18.0103  -23.9578   14.0889 C   0  0  0  0  0  0  0  0  0  0  0  0
  -16.7335  -23.4199   14.0622 C   0  0  0  0  0  0  0  0  0  0  0  0
  -16.5492  -22.1194   14.4642 C   0  0  0  0  0  0  0  0  0  0  0  0
  -17.6430  -21.3717   14.8685 C   0  0  0  0  0  0  0  0  0  0  0  0
  -18.9323  -21.9052   14.8897 C   0  0  0  0  0  0  0  0  0  0  0  0
  -20.2905  -23.8873   14.5720 O   0  0  0  0  0  0  0  0  0  0  0  0
  -20.2206  -25.2608   14.9373 C   0  0  0  0  0  0  0  0  0  0  0  0
  -14.7491  -22.6574   16.7741 C   0  0  0  0  0  0  0  0  0  0  0  0
  -15.5387  -22.2827   18.0351 C   0  0  0  0  0  0  0  0  0  0  0  0
  -16.7208  -23.2220   18.2881 C   0  0  0  0  0  0  0  0  0  0  0  0
  -14.6215  -22.3934   19.2761 C   0  0  0  0  0  0  0  0  0  0  0  0
  -11.9769  -19.4774   18.9270 C   0  0  0  0  0  0  0  0  0  0  0  0
  -10.5417  -19.0643   20.9449 C   0  0  0  0  0  0  0  0  0  0  0  0
   -9.4808  -19.4244   21.7500 C   0  0  0  0  0  0  0  0  0  0  0  0
   -8.7743  -20.5897   21.4925 C   0  0  0  0  0  0  0  0  0  0  0  0
   -9.2065  -21.4859   20.5238 C   0  0  0  0  0  0  0  0  0  0  0  0
  -10.2453  -21.1229   19.6888 C   0  0  0  0  0  0  0  0  0  0  0  0
  -10.8842  -19.9113   19.8944 C   0  0  0  0  0  0  0  0  0  0  0  0
 27 26  2  0  0  0
 32 26  1  0  0  0
 26 31  1  0  0  0
 27 28  1  0  0  0
 28 29  2  0  0  0
 29 30  1  0  0  0
 29 23  1  0  0  0
 31 30  2  0  0  0
 24 23  2  0  0  0
 23 25  2  0  0  0
 23 22  1  0  0  0
 22 21  1  0  0  0
 22 34  1  0  0  0
 34 35  1  0  0  0
 36 35  1  0  0  0
 35 37  1  0  0  0
 21 18  1  0  0  0
  1 18  1  0  0  0
 18 19  1  0  0  0
 38  1  1  0  0  0
  1  2  1  0  0  0
  2  3  1  0  0  0
  4  3  2  0  0  0
  3  6  1  0  0  0
  6  7  1  0  0  0
 14  7  1  0  0  0
  7  8  1  0  0  0
  9  8  1  0  0  0
 10  9  1  0  0  0
 14 10  1  0  0  0
 11 10  1  0  0  0
 12 11  1  0  0  0
 15 12  1  0  0  0
 13 12  1  0  0  0
 17 13  1  0  0  0
 13 14  1  0  0  0
 44 38  1  0  0  0
 40 39  2  0  0  0
 39 44  1  0  0  0
 41 40  1  0  0  0
 41 42  2  0  0  0
 42 43  1  0  0  0
 43 44  2  0  0  0
 32 33  1  0  0  0
 16 15  1  0  0  0
 17 16  1  0  0  0
 19 20  1  0  0  0
  2  5  1  0  0  0
M  END
> <minimizedAffinity>
-10.35462

$$$$
4HEG_G52_A_401


 44 48  0  0  0  0  0  0  0  0999 V2000
  -10.7894  -17.5233   16.7962 C   0  0  0  0  0  0  0  0  0  0  0  0
   -9.8401  -17.5096   17.8988 N   0  0  0  0  0  0  0  0  0  0  0  0
   -8.9443  -16.5801   18.2280 C   0  0  0  0  0  0  0  0  0  0  0  0
   -8.7810  -15.4855   17.6678 O   0  0  0  0  0  0  0  0  0  0  0  0
   -9.8630  -18.3001   18.4852 H   0  0  0  0  0  0  0  0  0  0  0  0
   -8.1697  -16.9401   19.2850 O   0  0  0  0  0  0  0  0  0  0  0  0
   -7.0458  -17.7712   18.9903 C   0  0  0  0  0  0  0  0  0  0  0  0
   -5.8253  -17.0932   19.6171 C   0  0  0  0  0  0  0  0  0  0  0  0
   -5.8419  -17.4454   21.0004 O   0  0  0  0  0  0  0  0  0  0  0  0
   -6.5517  -18.6715   21.1870 C   0  0  0  0  0  0  0  0  0  0  0  0
   -7.6790  -18.4066   22.0294 O   0  0  0  0  0  0  0  0  0  0  0  0
   -8.8848  -18.8539   21.4467 C   0  0  0  0  0  0  0  0  0  0  0  0
   -8.5155  -19.5396   20.1316 C   0  0  0  0  0  0  0  0  0  0  0  0
   -7.1034  -19.0614   19.8271 C   0  0  0  0  0  0  0  0  0  0  0  0
   -9.5084  -19.8642   22.2432 O   0  0  0  0  0  0  0  0  0  0  0  0
   -8.6993  -21.0197   22.0496 C   0  0  0  0  0  0  0  0  0  0  0  0
   -8.5318  -21.0225   20.5418 C   0  0  0  0  0  0  0  0  0  0  0  0
  -12.0452  -18.2923   17.1873 C   0  0  0  0  0  0  0  0  0  0  0  0
  -12.7355  -17.6917   18.2884 O   0  0  0  0  0  0  0  0  0  0  0  0
  -12.1709  -17.7173   19.0768 H   0  0  0  0  0  0  0  0  0  0  0  0
  -11.7485  -19.7572   17.4673 C   0  0  0  0  0  0  0  0  0  0  0  0
  -12.9521  -20.5418   17.1992 N   0  0  0  0  0  0  0  0  0  0  0  0
  -13.8672  -20.7891   18.5431 S   0  0  0  0  0  0  0  0  0  0  0  0
  -14.9440  -19.7461   18.5323 O   0  0  0  0  0  0  0  0  0  0  0  0
  -12.9691  -20.6702   19.6983 O   0  0  0  0  0  0  0  0  0  0  0  0
  -15.6704  -24.9596   18.4949 C   0  0  0  0  0  0  0  0  0  0  0  0
  -14.2931  -24.7575   18.3947 C   0  0  0  0  0  0  0  0  0  0  0  0
  -13.7327  -23.4904   18.4205 C   0  0  0  0  0  0  0  0  0  0  0  0
  -14.5610  -22.3959   18.4735 C   0  0  0  0  0  0  0  0  0  0  0  0
  -15.9337  -22.5823   18.4813 C   0  0  0  0  0  0  0  0  0  0  0  0
  -16.5040  -23.8554   18.4471 C   0  0  0  0  0  0  0  0  0  0  0  0
  -16.0886  -26.2431   18.4785 O   0  0  0  0  0  0  0  0  0  0  0  0
  -17.4299  -26.4221   18.0383 C   0  0  0  0  0  0  0  0  0  0  0  0
  -13.6838  -20.1480   16.0156 C   0  0  0  0  0  0  0  0  0  0  0  0
  -13.5319  -21.1303   14.8469 C   0  0  0  0  0  0  0  0  0  0  0  0
  -14.7550  -22.0356   14.6783 C   0  0  0  0  0  0  0  0  0  0  0  0
  -13.3859  -20.3449   13.5220 C   0  0  0  0  0  0  0  0  0  0  0  0
  -10.1151  -18.1249   15.5597 C   0  0  0  0  0  0  0  0  0  0  0  0
   -7.7062  -17.5555   15.1408 C   0  0  0  0  0  0  0  0  0  0  0  0
   -6.7448  -16.6491   14.7440 C   0  0  0  0  0  0  0  0  0  0  0  0
   -7.1176  -15.4028   14.2635 C   0  0  0  0  0  0  0  0  0  0  0  0
   -8.4525  -15.0983   14.0319 C   0  0  0  0  0  0  0  0  0  0  0  0
   -9.4261  -15.9818   14.4557 C   0  0  0  0  0  0  0  0  0  0  0  0
   -9.0434  -17.1861   15.0230 C   0  0  0  0  0  0  0  0  0  0  0  0
 27 26  2  0  0  0
 32 26  1  0  0  0
 26 31  1  0  0  0
 27 28  1  0  0  0
 28 29  2  0  0  0
 29 30  1  0  0  0
 29 23  1  0  0  0
 31 30  2  0  0  0
 24 23  2  0  0  0
 23 25  2  0  0  0
 23 22  1  0  0  0
 22 21  1  0  0  0
 22 34  1  0  0  0
 34 35  1  0  0  0
 36 35  1  0  0  0
 35 37  1  0  0  0
 21 18  1  0  0  0
  1 18  1  0  0  0
 18 19  1  0  0  0
 38  1  1  0  0  0
  1  2  1  0  0  0
  2  3  1  0  0  0
  4  3  2  0  0  0
  3  6  1  0  0  0
  6  7  1  0  0  0
 14  7  1  0  0  0
  7  8  1  0  0  0
  9  8  1  0  0  0
 10  9  1  0  0  0
 14 10  1  0  0  0
 11 10  1  0  0  0
 12 11  1  0  0  0
 15 12  1  0  0  0
 13 12  1  0  0  0
 17 13  1  0  0  0
 13 14  1  0  0  0
 44 38  1  0  0  0
 40 39  2  0  0  0
 39 44  1  0  0  0
 41 40  1  0  0  0
 41 42  2  0  0  0
 42 43  1  0  0  0
 43 44  2  0  0  0
 32 33  1  0  0  0
 16 15  1  0  0  0
 17 16  1  0  0  0
 19 20  1  0  0  0
  2  5  1  0  0  0
M  END
> <minimizedAffinity>
-10.16675

$$$$
4HEG_G52_A_401


 44 48  0  0  0  0  0  0  0  0999 V2000
  -10.8797  -17.5074   16.9872 C   0  0  0  0  0  0  0  0  0  0  0  0
   -9.7800  -17.8121   17.8900 N   0  0  0  0  0  0  0  0  0  0  0  0
   -8.8139  -17.0133   18.3409 C   0  0  0  0  0  0  0  0  0  0  0  0
   -8.6957  -15.8002   18.1103 O   0  0  0  0  0  0  0  0  0  0  0  0
   -9.7450  -18.7411   18.2139 H   0  0  0  0  0  0  0  0  0  0  0  0
   -7.9067  -17.6630   19.1166 O   0  0  0  0  0  0  0  0  0  0  0  0
   -8.4392  -18.5238   20.1248 C   0  0  0  0  0  0  0  0  0  0  0  0
   -7.8575  -19.9149   19.8628 C   0  0  0  0  0  0  0  0  0  0  0  0
   -6.5462  -19.9100   20.4269 O   0  0  0  0  0  0  0  0  0  0  0  0
   -6.4628  -18.9349   21.4682 C   0  0  0  0  0  0  0  0  0  0  0  0
   -5.4733  -17.9702   21.0932 O   0  0  0  0  0  0  0  0  0  0  0  0
   -5.9798  -16.6533   21.1448 C   0  0  0  0  0  0  0  0  0  0  0  0
   -7.4125  -16.7482   21.6684 C   0  0  0  0  0  0  0  0  0  0  0  0
   -7.7966  -18.2094   21.4873 C   0  0  0  0  0  0  0  0  0  0  0  0
   -5.2747  -15.8579   22.1010 O   0  0  0  0  0  0  0  0  0  0  0  0
   -5.7204  -16.3415   23.3639 C   0  0  0  0  0  0  0  0  0  0  0  0
   -7.2219  -16.3961   23.1541 C   0  0  0  0  0  0  0  0  0  0  0  0
  -12.1581  -18.1882   17.4602 C   0  0  0  0  0  0  0  0  0  0  0  0
  -12.9782  -17.3241   18.2542 O   0  0  0  0  0  0  0  0  0  0  0  0
  -12.5055  -17.0870   19.0674 H   0  0  0  0  0  0  0  0  0  0  0  0
  -11.8696  -19.4880   18.1948 C   0  0  0  0  0  0  0  0  0  0  0  0
  -12.1414  -20.6081   17.2961 N   0  0  0  0  0  0  0  0  0  0  0  0
  -11.7860  -22.0671   17.9666 S   0  0  0  0  0  0  0  0  0  0  0  0
  -10.7491  -21.8188   19.0205 O   0  0  0  0  0  0  0  0  0  0  0  0
  -11.3015  -22.9286   16.8811 O   0  0  0  0  0  0  0  0  0  0  0  0
  -15.4830  -23.8921   19.8765 C   0  0  0  0  0  0  0  0  0  0  0  0
  -15.0107  -24.3261   18.6371 C   0  0  0  0  0  0  0  0  0  0  0  0
  -13.8775  -23.7842   18.0520 C   0  0  0  0  0  0  0  0  0  0  0  0
  -13.2401  -22.7391   18.6751 C   0  0  0  0  0  0  0  0  0  0  0  0
  -13.7536  -22.2400   19.8610 C   0  0  0  0  0  0  0  0  0  0  0  0
  -14.8990  -22.7760   20.4507 C   0  0  0  0  0  0  0  0  0  0  0  0
  -16.5843  -24.5149   20.3476 O   0  0  0  0  0  0  0  0  0  0  0  0
  -17.5504  -24.8389   19.3544 C   0  0  0  0  0  0  0  0  0  0  0  0
  -13.4081  -20.5375   16.6021 C   0  0  0  0  0  0  0  0  0  0  0  0
  -13.3879  -21.2068   15.2217 C   0  0  0  0  0  0  0  0  0  0  0  0
  -14.7054  -21.9139   14.8930 C   0  0  0  0  0  0  0  0  0  0  0  0
  -13.1845  -20.1340   14.1256 C   0  0  0  0  0  0  0  0  0  0  0  0
  -10.4980  -17.9361   15.5673 C   0  0  0  0  0  0  0  0  0  0  0  0
   -8.0575  -17.7215   15.0191 C   0  0  0  0  0  0  0  0  0  0  0  0
   -6.9789  -16.9412   14.6571 C   0  0  0  0  0  0  0  0  0  0  0  0
   -7.1568  -15.5967   14.3677 C   0  0  0  0  0  0  0  0  0  0  0  0
   -8.4296  -15.0468   14.2896 C   0  0  0  0  0  0  0  0  0  0  0  0
   -9.5145  -15.8064   14.6821 C   0  0  0  0  0  0  0  0  0  0  0  0
   -9.3141  -17.1233   15.0617 C   0  0  0  0  0  0  0  0  0  0  0  0
 27 26  2  0  0  0
 32 26  1  0  0  0
 26 31  1  0  0  0
 27 28  1  0  0  0
 28 29  2  0  0  0
 29 30  1  0  0  0
 29 23  1  0  0  0
 31 30  2  0  0  0
 24 23  2  0  0  0
 23 25  2  0  0  0
 23 22  1  0  0  0
 22 21  1  0  0  0
 22 34  1  0  0  0
 34 35  1  0  0  0
 36 35  1  0  0  0
 35 37  1  0  0  0
 21 18  1  0  0  0
  1 18  1  0  0  0
 18 19  1  0  0  0
 38  1  1  0  0  0
  1  2  1  0  0  0
  2  3  1  0  0  0
  4  3  2  0  0  0
  3  6  1  0  0  0
  6  7  1  0  0  0
 14  7  1  0  0  0
  7  8  1  0  0  0
  9  8  1  0  0  0
 10  9  1  0  0  0
 14 10  1  0  0  0
 11 10  1  0  0  0
 12 11  1  0  0  0
 15 12  1  0  0  0
 13 12  1  0  0  0
 17 13  1  0  0  0
 13 14  1  0  0  0
 44 38  1  0  0  0
 40 39  2  0  0  0
 39 44  1  0  0  0
 41 40  1  0  0  0
 41 42  2  0  0  0
 42 43  1  0  0  0
 43 44  2  0  0  0
 32 33  1  0  0  0
 16 15  1  0  0  0
 17 16  1  0  0  0
 19 20  1  0  0  0
  2  5  1  0  0  0
M  END
> <minimizedAffinity>
-10.11917

$$$$
4HEG_G52_A_401


 44 48  0  0  0  0  0  0  0  0999 V2000
  -10.8529  -17.8829   16.9379 C   0  0  0  0  0  0  0  0  0  0  0  0
   -9.8193  -18.2433   17.8966 N   0  0  0  0  0  0  0  0  0  0  0  0
   -8.8495  -17.4900   18.4131 C   0  0  0  0  0  0  0  0  0  0  0  0
   -8.6705  -16.2798   18.2080 O   0  0  0  0  0  0  0  0  0  0  0  0
   -9.8395  -19.1771   18.2078 H   0  0  0  0  0  0  0  0  0  0  0  0
   -8.0144  -18.1857   19.2288 O   0  0  0  0  0  0  0  0  0  0  0  0
   -8.1744  -17.9670   20.6314 C   0  0  0  0  0  0  0  0  0  0  0  0
   -8.4787  -19.3315   21.2540 C   0  0  0  0  0  0  0  0  0  0  0  0
   -7.2207  -19.9891   21.4047 O   0  0  0  0  0  0  0  0  0  0  0  0
   -6.1696  -19.0249   21.4928 C   0  0  0  0  0  0  0  0  0  0  0  0
   -5.2811  -19.2366   20.3899 O   0  0  0  0  0  0  0  0  0  0  0  0
   -5.0731  -18.0520   19.6503 C   0  0  0  0  0  0  0  0  0  0  0  0
   -5.8367  -16.9397   20.3682 C   0  0  0  0  0  0  0  0  0  0  0  0
   -6.8129  -17.6656   21.2823 C   0  0  0  0  0  0  0  0  0  0  0  0
   -3.7006  -17.6525   19.6760 O   0  0  0  0  0  0  0  0  0  0  0  0
   -3.4993  -17.1561   20.9953 C   0  0  0  0  0  0  0  0  0  0  0  0
   -4.7121  -16.2616   21.1702 C   0  0  0  0  0  0  0  0  0  0  0  0
  -12.1722  -18.5511   17.3045 C   0  0  0  0  0  0  0  0  0  0  0  0
  -12.8500  -17.8783   18.3711 O   0  0  0  0  0  0  0  0  0  0  0  0
  -12.3127  -17.9267   19.1772 H   0  0  0  0  0  0  0  0  0  0  0  0
  -11.9907  -20.0269   17.6229 C   0  0  0  0  0  0  0  0  0  0  0  0
  -13.2623  -20.7153   17.4095 N   0  0  0  0  0  0  0  0  0  0  0  0
  -14.1824  -20.7957   18.7702 S   0  0  0  0  0  0  0  0  0  0  0  0
  -15.1801  -19.6800   18.6854 O   0  0  0  0  0  0  0  0  0  0  0  0
  -13.2690  -20.6591   19.9114 O   0  0  0  0  0  0  0  0  0  0  0  0
  -16.3834  -24.7661   18.9672 C   0  0  0  0  0  0  0  0  0  0  0  0
  -15.3936  -24.4323   19.8927 C   0  0  0  0  0  0  0  0  0  0  0  0
  -14.7252  -23.2192   19.8482 C   0  0  0  0  0  0  0  0  0  0  0  0
  -14.9924  -22.3480   18.8205 C   0  0  0  0  0  0  0  0  0  0  0  0
  -15.9075  -22.7083   17.8449 C   0  0  0  0  0  0  0  0  0  0  0  0
  -16.5776  -23.9318   17.8798 C   0  0  0  0  0  0  0  0  0  0  0  0
  -16.9739  -25.9689   19.1318 O   0  0  0  0  0  0  0  0  0  0  0  0
  -17.5408  -26.5160   17.9468 C   0  0  0  0  0  0  0  0  0  0  0  0
  -13.9674  -20.3313   16.2069 C   0  0  0  0  0  0  0  0  0  0  0  0
  -13.5622  -21.1475   14.9725 C   0  0  0  0  0  0  0  0  0  0  0  0
  -14.7065  -22.0144   14.4406 C   0  0  0  0  0  0  0  0  0  0  0  0
  -13.1694  -20.1911   13.8216 C   0  0  0  0  0  0  0  0  0  0  0  0
  -10.3902  -18.2702   15.5303 C   0  0  0  0  0  0  0  0  0  0  0  0
   -7.9920  -17.7850   14.9682 C   0  0  0  0  0  0  0  0  0  0  0  0
   -7.0043  -16.8851   14.6246 C   0  0  0  0  0  0  0  0  0  0  0  0
   -7.3239  -15.5571   14.3847 C   0  0  0  0  0  0  0  0  0  0  0  0
   -8.6475  -15.1398   14.3376 C   0  0  0  0  0  0  0  0  0  0  0  0
   -9.6431  -16.0208   14.7125 C   0  0  0  0  0  0  0  0  0  0  0  0
   -9.3030  -17.3221   15.0433 C   0  0  0  0  0  0  0  0  0  0  0  0
 27 26  2  0  0  0
 32 26  1  0  0  0
 26 31  1  0  0  0
 27 28  1  0  0  0
 28 29  2  0  0  0
 29 30  1  0  0  0
 29 23  1  0  0  0
 31 30  2  0  0  0
 24 23  2  0  0  0
 23 25  2  0  0  0
 23 22  1  0  0  0
 22 21  1  0  0  0
 22 34  1  0  0  0
 34 35  1  0  0  0
 36 35  1  0  0  0
 35 37  1  0  0  0
 21 18  1  0  0  0
  1 18  1  0  0  0
 18 19  1  0  0  0
 38  1  1  0  0  0
  1  2  1  0  0  0
  2  3  1  0  0  0
  4  3  2  0  0  0
  3  6  1  0  0  0
  6  7  1  0  0  0
 14  7  1  0  0  0
  7  8  1  0  0  0
  9  8  1  0  0  0
 10  9  1  0  0  0
 14 10  1  0  0  0
 11 10  1  0  0  0
 12 11  1  0  0  0
 15 12  1  0  0  0
 13 12  1  0  0  0
 17 13  1  0  0  0
 13 14  1  0  0  0
 44 38  1  0  0  0
 40 39  2  0  0  0
 39 44  1  0  0  0
 41 40  1  0  0  0
 41 42  2  0  0  0
 42 43  1  0  0  0
 43 44  2  0  0  0
 32 33  1  0  0  0
 16 15  1  0  0  0
 17 16  1  0  0  0
 19 20  1  0  0  0
  2  5  1  0  0  0
M  END
> <minimizedAffinity>
-9.77018

$$$$
4HEG_G52_A_401


 44 48  0  0  0  0  0  0  0  0999 V2000
  -11.3870  -18.5621   16.6402 C   0  0  0  0  0  0  0  0  0  0  0  0
  -10.5347  -19.0810   17.6992 N   0  0  0  0  0  0  0  0  0  0  0  0
  -10.7274  -19.0701   19.0174 C   0  0  0  0  0  0  0  0  0  0  0  0
  -11.7322  -18.6482   19.6099 O   0  0  0  0  0  0  0  0  0  0  0  0
   -9.6959  -19.4998   17.3988 H   0  0  0  0  0  0  0  0  0  0  0  0
   -9.6773  -19.5820   19.7116 O   0  0  0  0  0  0  0  0  0  0  0  0
   -9.5583  -19.1675   21.0736 C   0  0  0  0  0  0  0  0  0  0  0  0
   -8.9173  -20.3332   21.8301 C   0  0  0  0  0  0  0  0  0  0  0  0
   -7.5142  -20.2441   21.5823 O   0  0  0  0  0  0  0  0  0  0  0  0
   -7.1560  -18.8980   21.2634 C   0  0  0  0  0  0  0  0  0  0  0  0
   -6.6133  -18.8864   19.9383 O   0  0  0  0  0  0  0  0  0  0  0  0
   -7.2669  -17.9455   19.1130 C   0  0  0  0  0  0  0  0  0  0  0  0
   -8.2872  -17.2189   19.9887 C   0  0  0  0  0  0  0  0  0  0  0  0
   -8.4515  -18.1075   21.2130 C   0  0  0  0  0  0  0  0  0  0  0  0
   -6.3656  -16.9342   18.6559 O   0  0  0  0  0  0  0  0  0  0  0  0
   -6.1245  -16.1273   19.8040 C   0  0  0  0  0  0  0  0  0  0  0  0
   -7.5323  -15.9226   20.3310 C   0  0  0  0  0  0  0  0  0  0  0  0
  -12.7412  -19.2600   16.6597 C   0  0  0  0  0  0  0  0  0  0  0  0
  -13.6110  -18.7415   17.6718 O   0  0  0  0  0  0  0  0  0  0  0  0
  -13.2283  -18.9138   18.5463 H   0  0  0  0  0  0  0  0  0  0  0  0
  -12.5995  -20.7687   16.7872 C   0  0  0  0  0  0  0  0  0  0  0  0
  -13.9289  -21.3559   16.9422 N   0  0  0  0  0  0  0  0  0  0  0  0
  -14.2662  -21.7743   18.4964 S   0  0  0  0  0  0  0  0  0  0  0  0
  -15.0506  -20.6426   19.0895 O   0  0  0  0  0  0  0  0  0  0  0  0
  -12.9792  -21.9906   19.1688 O   0  0  0  0  0  0  0  0  0  0  0  0
  -16.6891  -25.6163   18.3723 C   0  0  0  0  0  0  0  0  0  0  0  0
  -17.2954  -24.3654   18.2480 C   0  0  0  0  0  0  0  0  0  0  0  0
  -16.5639  -23.1888   18.2725 C   0  0  0  0  0  0  0  0  0  0  0  0
  -15.2103  -23.2496   18.4983 C   0  0  0  0  0  0  0  0  0  0  0  0
  -14.6121  -24.4803   18.7139 C   0  0  0  0  0  0  0  0  0  0  0  0
  -15.3448  -25.6679   18.6986 C   0  0  0  0  0  0  0  0  0  0  0  0
  -17.5097  -26.6866   18.3112 O   0  0  0  0  0  0  0  0  0  0  0  0
  -18.1278  -26.8859   17.0451 C   0  0  0  0  0  0  0  0  0  0  0  0
  -14.9868  -20.6588   16.2449 C   0  0  0  0  0  0  0  0  0  0  0  0
  -15.4175  -21.3455   14.9423 C   0  0  0  0  0  0  0  0  0  0  0  0
  -16.9320  -21.2936   14.7245 C   0  0  0  0  0  0  0  0  0  0  0  0
  -14.7791  -20.6189   13.7347 C   0  0  0  0  0  0  0  0  0  0  0  0
  -10.6771  -18.7338   15.2940 C   0  0  0  0  0  0  0  0  0  0  0  0
   -8.2395  -18.1714   15.0839 C   0  0  0  0  0  0  0  0  0  0  0  0
   -7.2284  -17.2332   15.0544 C   0  0  0  0  0  0  0  0  0  0  0  0
   -7.5306  -15.8807   15.1073 C   0  0  0  0  0  0  0  0  0  0  0  0
   -8.8461  -15.4412   15.0397 C   0  0  0  0  0  0  0  0  0  0  0  0
   -9.8680  -16.3683   15.1032 C   0  0  0  0  0  0  0  0  0  0  0  0
   -9.5539  -17.7167   15.1464 C   0  0  0  0  0  0  0  0  0  0  0  0
 27 26  2  0  0  0
 32 26  1  0  0  0
 26 31  1  0  0  0
 27 28  1  0  0  0
 28 29  2  0  0  0
 29 30  1  0  0  0
 29 23  1  0  0  0
 31 30  2  0  0  0
 24 23  2  0  0  0
 23 25  2  0  0  0
 23 22  1  0  0  0
 22 21  1  0  0  0
 22 34  1  0  0  0
 34 35  1  0  0  0
 36 35  1  0  0  0
 35 37  1  0  0  0
 21 18  1  0  0  0
  1 18  1  0  0  0
 18 19  1  0  0  0
 38  1  1  0  0  0
  1  2  1  0  0  0
  2  3  1  0  0  0
  4  3  2  0  0  0
  3  6  1  0  0  0
  6  7  1  0  0  0
 14  7  1  0  0  0
  7  8  1  0  0  0
  9  8  1  0  0  0
 10  9  1  0  0  0
 14 10  1  0  0  0
 11 10  1  0  0  0
 12 11  1  0  0  0
 15 12  1  0  0  0
 13 12  1  0  0  0
 17 13  1  0  0  0
 13 14  1  0  0  0
 44 38  1  0  0  0
 40 39  2  0  0  0
 39 44  1  0  0  0
 41 40  1  0  0  0
 41 42  2  0  0  0
 42 43  1  0  0  0
 43 44  2  0  0  0
 32 33  1  0  0  0
 16 15  1  0  0  0
 17 16  1  0  0  0
 19 20  1  0  0  0
  2  5  1  0  0  0
M  END
> <minimizedAffinity>
-9.50601

$$$$
4HEG_G52_A_401


 44 48  0  0  0  0  0  0  0  0999 V2000
  -15.3366  -22.9056   17.3138 C   0  0  0  0  0  0  0  0  0  0  0  0
  -16.2192  -23.4741   16.3063 N   0  0  0  0  0  0  0  0  0  0  0  0
  -17.5506  -23.5039   16.2724 C   0  0  0  0  0  0  0  0  0  0  0  0
  -18.3187  -22.9860   17.0974 O   0  0  0  0  0  0  0  0  0  0  0  0
  -15.7680  -23.8971   15.5403 H   0  0  0  0  0  0  0  0  0  0  0  0
  -18.0393  -24.1890   15.2054 O   0  0  0  0  0  0  0  0  0  0  0  0
  -19.4608  -24.2091   15.0650 C   0  0  0  0  0  0  0  0  0  0  0  0
  -19.7520  -24.1502   13.5637 C   0  0  0  0  0  0  0  0  0  0  0  0
  -19.5909  -25.4818   13.0751 O   0  0  0  0  0  0  0  0  0  0  0  0
  -19.7989  -26.4214   14.1314 C   0  0  0  0  0  0  0  0  0  0  0  0
  -18.5855  -27.1601   14.3122 O   0  0  0  0  0  0  0  0  0  0  0  0
  -18.1475  -27.1273   15.6541 C   0  0  0  0  0  0  0  0  0  0  0  0
  -19.2022  -26.3566   16.4474 C   0  0  0  0  0  0  0  0  0  0  0  0
  -20.0091  -25.6083   15.3965 C   0  0  0  0  0  0  0  0  0  0  0  0
  -18.1181  -28.4366   16.2276 O   0  0  0  0  0  0  0  0  0  0  0  0
  -19.4883  -28.7693   16.4253 C   0  0  0  0  0  0  0  0  0  0  0  0
  -20.0168  -27.5028   17.0720 C   0  0  0  0  0  0  0  0  0  0  0  0
  -14.3283  -21.9652   16.6655 C   0  0  0  0  0  0  0  0  0  0  0  0
  -14.2611  -22.1280   15.2447 O   0  0  0  0  0  0  0  0  0  0  0  0
  -13.9413  -23.0198   15.0362 H   0  0  0  0  0  0  0  0  0  0  0  0
  -12.9488  -22.0942   17.2920 C   0  0  0  0  0  0  0  0  0  0  0  0
  -12.3645  -20.7612   17.4250 N   0  0  0  0  0  0  0  0  0  0  0  0
  -12.4811  -20.1610   18.9517 S   0  0  0  0  0  0  0  0  0  0  0  0
  -13.4053  -21.0695   19.7053 O   0  0  0  0  0  0  0  0  0  0  0  0
  -12.9976  -18.7919   18.8335 O   0  0  0  0  0  0  0  0  0  0  0  0
   -8.4100  -20.1519   20.9699 C   0  0  0  0  0  0  0  0  0  0  0  0
   -9.0796  -18.9648   20.6695 C   0  0  0  0  0  0  0  0  0  0  0  0
  -10.3266  -18.9575   20.0651 C   0  0  0  0  0  0  0  0  0  0  0  0
  -10.8899  -20.1508   19.6840 C   0  0  0  0  0  0  0  0  0  0  0  0
  -10.1931  -21.3293   19.8951 C   0  0  0  0  0  0  0  0  0  0  0  0
   -8.9335  -21.3424   20.4957 C   0  0  0  0  0  0  0  0  0  0  0  0
   -7.2113  -20.0243   21.5778 O   0  0  0  0  0  0  0  0  0  0  0  0
   -6.4205  -18.9407   21.1033 C   0  0  0  0  0  0  0  0  0  0  0  0
  -11.0751  -20.5962   16.7916 C   0  0  0  0  0  0  0  0  0  0  0  0
  -11.0504  -19.4853   15.7336 C   0  0  0  0  0  0  0  0  0  0  0  0
  -12.4540  -19.0746   15.2809 C   0  0  0  0  0  0  0  0  0  0  0  0
  -10.3955  -18.2155   16.3270 C   0  0  0  0  0  0  0  0  0  0  0  0
  -14.6478  -24.0407   18.0770 C   0  0  0  0  0  0  0  0  0  0  0  0
  -16.3224  -25.7984   18.7165 C   0  0  0  0  0  0  0  0  0  0  0  0
  -17.2579  -26.2905   19.6032 C   0  0  0  0  0  0  0  0  0  0  0  0
  -17.4757  -25.6498   20.8137 C   0  0  0  0  0  0  0  0  0  0  0  0
  -16.6624  -24.6006   21.2213 C   0  0  0  0  0  0  0  0  0  0  0  0
  -15.7457  -24.0765   20.3309 C   0  0  0  0  0  0  0  0  0  0  0  0
  -15.6022  -24.6654   19.0854 C   0  0  0  0  0  0  0  0  0  0  0  0
 27 26  2  0  0  0
 32 26  1  0  0  0
 26 31  1  0  0  0
 27 28  1  0  0  0
 28 29  2  0  0  0
 29 30  1  0  0  0
 29 23  1  0  0  0
 31 30  2  0  0  0
 24 23  2  0  0  0
 23 25  2  0  0  0
 23 22  1  0  0  0
 22 21  1  0  0  0
 22 34  1  0  0  0
 34 35  1  0  0  0
 36 35  1  0  0  0
 35 37  1  0  0  0
 21 18  1  0  0  0
  1 18  1  0  0  0
 18 19  1  0  0  0
 38  1  1  0  0  0
  1  2  1  0  0  0
  2  3  1  0  0  0
  4  3  2  0  0  0
  3  6  1  0  0  0
  6  7  1  0  0  0
 14  7  1  0  0  0
  7  8  1  0  0  0
  9  8  1  0  0  0
 10  9  1  0  0  0
 14 10  1  0  0  0
 11 10  1  0  0  0
 12 11  1  0  0  0
 15 12  1  0  0  0
 13 12  1  0  0  0
 17 13  1  0  0  0
 13 14  1  0  0  0
 44 38  1  0  0  0
 40 39  2  0  0  0
 39 44  1  0  0  0
 41 40  1  0  0  0
 41 42  2  0  0  0
 42 43  1  0  0  0
 43 44  2  0  0  0
 32 33  1  0  0  0
 16 15  1  0  0  0
 17 16  1  0  0  0
 19 20  1  0  0  0
  2  5  1  0  0  0
M  END
> <minimizedAffinity>
-9.26855

$$$$
4HEG_G52_A_401


 44 48  0  0  0  0  0  0  0  0999 V2000
  -10.4866  -19.2098   16.4050 C   0  0  0  0  0  0  0  0  0  0  0  0
  -11.6759  -20.0374   16.5392 N   0  0  0  0  0  0  0  0  0  0  0  0
  -11.7769  -21.3646   16.5961 C   0  0  0  0  0  0  0  0  0  0  0  0
  -10.8368  -22.1738   16.5997 O   0  0  0  0  0  0  0  0  0  0  0  0
  -12.5274  -19.5466   16.5960 H   0  0  0  0  0  0  0  0  0  0  0  0
  -13.0641  -21.7972   16.6485 O   0  0  0  0  0  0  0  0  0  0  0  0
  -14.0121  -20.8916   17.2159 C   0  0  0  0  0  0  0  0  0  0  0  0
  -15.0805  -20.6516   16.1467 C   0  0  0  0  0  0  0  0  0  0  0  0
  -15.9669  -21.7686   16.2129 O   0  0  0  0  0  0  0  0  0  0  0  0
  -15.9225  -22.3548   17.5154 C   0  0  0  0  0  0  0  0  0  0  0  0
  -15.4630  -23.7040   17.3783 O   0  0  0  0  0  0  0  0  0  0  0  0
  -14.3578  -23.9685   18.2163 C   0  0  0  0  0  0  0  0  0  0  0  0
  -14.1063  -22.7018   19.0336 C   0  0  0  0  0  0  0  0  0  0  0  0
  -14.8531  -21.6045   18.2895 C   0  0  0  0  0  0  0  0  0  0  0  0
  -14.6577  -24.9880   19.1728 O   0  0  0  0  0  0  0  0  0  0  0  0
  -15.5271  -24.3553   20.1062 C   0  0  0  0  0  0  0  0  0  0  0  0
  -14.7967  -23.0508   20.3636 C   0  0  0  0  0  0  0  0  0  0  0  0
  -10.1138  -18.5956   17.7485 C   0  0  0  0  0  0  0  0  0  0  0  0
  -10.5732  -17.2461   17.8811 O   0  0  0  0  0  0  0  0  0  0  0  0
  -10.1332  -16.6885   17.2205 H   0  0  0  0  0  0  0  0  0  0  0  0
   -8.6205  -18.6893   18.0196 C   0  0  0  0  0  0  0  0  0  0  0  0
   -8.3933  -18.5629   19.4578 N   0  0  0  0  0  0  0  0  0  0  0  0
   -7.5746  -17.1941   19.8584 S   0  0  0  0  0  0  0  0  0  0  0  0
   -7.4648  -17.1764   21.3535 O   0  0  0  0  0  0  0  0  0  0  0  0
   -8.3485  -16.0641   19.3297 O   0  0  0  0  0  0  0  0  0  0  0  0
   -3.5009  -17.4049   17.8566 C   0  0  0  0  0  0  0  0  0  0  0  0
   -3.8144  -18.1979   18.9614 C   0  0  0  0  0  0  0  0  0  0  0  0
   -5.0577  -18.1496   19.5713 C   0  0  0  0  0  0  0  0  0  0  0  0
   -5.9862  -17.2427   19.1217 C   0  0  0  0  0  0  0  0  0  0  0  0
   -5.6534  -16.3873   18.0842 C   0  0  0  0  0  0  0  0  0  0  0  0
   -4.4003  -16.4256   17.4715 C   0  0  0  0  0  0  0  0  0  0  0  0
   -2.2629  -17.5610   17.3412 O   0  0  0  0  0  0  0  0  0  0  0  0
   -2.1471  -17.2138   15.9661 C   0  0  0  0  0  0  0  0  0  0  0  0
   -9.5423  -18.8614   20.2836 C   0  0  0  0  0  0  0  0  0  0  0  0
   -9.4570  -20.2250   20.9816 C   0  0  0  0  0  0  0  0  0  0  0  0
   -9.8984  -21.3770   20.0750 C   0  0  0  0  0  0  0  0  0  0  0  0
   -7.9897  -20.5181   21.3747 C   0  0  0  0  0  0  0  0  0  0  0  0
  -10.7370  -18.1390   15.3391 C   0  0  0  0  0  0  0  0  0  0  0  0
   -8.2673  -18.0974   14.8900 C   0  0  0  0  0  0  0  0  0  0  0  0
   -7.0977  -17.3879   14.7112 C   0  0  0  0  0  0  0  0  0  0  0  0
   -7.1192  -16.0014   14.6928 C   0  0  0  0  0  0  0  0  0  0  0  0
   -8.3217  -15.3070   14.7025 C   0  0  0  0  0  0  0  0  0  0  0  0
   -9.4965  -16.0016   14.9152 C   0  0  0  0  0  0  0  0  0  0  0  0
   -9.4535  -17.3815   15.0279 C   0  0  0  0  0  0  0  0  0  0  0  0
 27 26  2  0  0  0
 32 26  1  0  0  0
 26 31  1  0  0  0
 27 28  1  0  0  0
 28 29  2  0  0  0
 29 30  1  0  0  0
 29 23  1  0  0  0
 31 30  2  0  0  0
 24 23  2  0  0  0
 23 25  2  0  0  0
 23 22  1  0  0  0
 22 21  1  0  0  0
 22 34  1  0  0  0
 34 35  1  0  0  0
 36 35  1  0  0  0
 35 37  1  0  0  0
 21 18  1  0  0  0
  1 18  1  0  0  0
 18 19  1  0  0  0
 38  1  1  0  0  0
  1  2  1  0  0  0
  2  3  1  0  0  0
  4  3  2  0  0  0
  3  6  1  0  0  0
  6  7  1  0  0  0
 14  7  1  0  0  0
  7  8  1  0  0  0
  9  8  1  0  0  0
 10  9  1  0  0  0
 14 10  1  0  0  0
 11 10  1  0  0  0
 12 11  1  0  0  0
 15 12  1  0  0  0
 13 12  1  0  0  0
 17 13  1  0  0  0
 13 14  1  0  0  0
 44 38  1  0  0  0
 40 39  2  0  0  0
 39 44  1  0  0  0
 41 40  1  0  0  0
 41 42  2  0  0  0
 42 43  1  0  0  0
 43 44  2  0  0  0
 32 33  1  0  0  0
 16 15  1  0  0  0
 17 16  1  0  0  0
 19 20  1  0  0  0
  2  5  1  0  0  0
M  END
> <minimizedAffinity>
-9.11608

$$$$
4HEG_G52_A_401


 44 48  0  0  0  0  0  0  0  0999 V2000
  -12.7992  -20.5566   19.0512 C   0  0  0  0  0  0  0  0  0  0  0  0
  -13.6045  -21.7681   19.0841 N   0  0  0  0  0  0  0  0  0  0  0  0
  -14.4519  -22.1915   20.0207 C   0  0  0  0  0  0  0  0  0  0  0  0
  -14.7671  -21.5843   21.0555 O   0  0  0  0  0  0  0  0  0  0  0  0
  -13.5096  -22.3592   18.3025 H   0  0  0  0  0  0  0  0  0  0  0  0
  -14.9766  -23.4150   19.7480 O   0  0  0  0  0  0  0  0  0  0  0  0
  -14.9325  -23.8309   18.3820 C   0  0  0  0  0  0  0  0  0  0  0  0
  -13.9002  -24.9578   18.3020 C   0  0  0  0  0  0  0  0  0  0  0  0
  -14.5689  -26.1411   18.7384 O   0  0  0  0  0  0  0  0  0  0  0  0
  -15.9773  -26.0140   18.5325 C   0  0  0  0  0  0  0  0  0  0  0  0
  -16.6209  -26.1012   19.8087 O   0  0  0  0  0  0  0  0  0  0  0  0
  -17.4755  -25.0014   20.0405 C   0  0  0  0  0  0  0  0  0  0  0  0
  -17.4497  -24.1440   18.7756 C   0  0  0  0  0  0  0  0  0  0  0  0
  -16.2124  -24.6044   18.0190 C   0  0  0  0  0  0  0  0  0  0  0  0
  -18.8348  -25.4172   20.1935 O   0  0  0  0  0  0  0  0  0  0  0  0
  -19.2474  -25.7752   18.8787 C   0  0  0  0  0  0  0  0  0  0  0  0
  -18.7410  -24.5952   18.0709 C   0  0  0  0  0  0  0  0  0  0  0  0
  -13.3356  -19.5918   18.0010 C   0  0  0  0  0  0  0  0  0  0  0  0
  -13.9109  -18.4155   18.5798 O   0  0  0  0  0  0  0  0  0  0  0  0
  -14.6841  -18.6616   19.1113 H   0  0  0  0  0  0  0  0  0  0  0  0
  -14.3184  -20.2689   17.0587 C   0  0  0  0  0  0  0  0  0  0  0  0
  -14.0958  -19.7665   15.7044 N   0  0  0  0  0  0  0  0  0  0  0  0
  -12.6675  -20.2687   15.0623 S   0  0  0  0  0  0  0  0  0  0  0  0
  -12.7914  -20.1379   13.5740 O   0  0  0  0  0  0  0  0  0  0  0  0
  -12.4682  -21.6562   15.4986 O   0  0  0  0  0  0  0  0  0  0  0  0
   -9.2945  -17.5900   16.5094 C   0  0  0  0  0  0  0  0  0  0  0  0
   -9.1181  -18.9651   16.3483 C   0  0  0  0  0  0  0  0  0  0  0  0
  -10.1369  -19.7884   15.8962 C   0  0  0  0  0  0  0  0  0  0  0  0
  -11.3791  -19.2484   15.6683 C   0  0  0  0  0  0  0  0  0  0  0  0
  -11.5896  -17.9011   15.9123 C   0  0  0  0  0  0  0  0  0  0  0  0
  -10.5698  -17.0687   16.3755 C   0  0  0  0  0  0  0  0  0  0  0  0
   -8.2182  -16.8957   16.9363 O   0  0  0  0  0  0  0  0  0  0  0  0
   -7.8099  -15.8453   16.0675 C   0  0  0  0  0  0  0  0  0  0  0  0
  -15.2388  -19.8639   14.8240 C   0  0  0  0  0  0  0  0  0  0  0  0
  -15.9179  -21.2394   14.8523 C   0  0  0  0  0  0  0  0  0  0  0  0
  -17.4398  -21.1455   14.7154 C   0  0  0  0  0  0  0  0  0  0  0  0
  -15.4249  -22.0884   13.6565 C   0  0  0  0  0  0  0  0  0  0  0  0
  -11.3380  -20.9312   18.7870 C   0  0  0  0  0  0  0  0  0  0  0  0
  -10.9388  -19.3597   20.7036 C   0  0  0  0  0  0  0  0  0  0  0  0
  -10.0757  -18.7653   21.6009 C   0  0  0  0  0  0  0  0  0  0  0  0
   -8.7396  -19.1355   21.6329 C   0  0  0  0  0  0  0  0  0  0  0  0
   -8.2781  -20.2051   20.8771 C   0  0  0  0  0  0  0  0  0  0  0  0
   -9.1218  -20.7864   19.9507 C   0  0  0  0  0  0  0  0  0  0  0  0
  -10.4313  -20.3440   19.8598 C   0  0  0  0  0  0  0  0  0  0  0  0
 27 26  2  0  0  0
 32 26  1  0  0  0
 26 31  1  0  0  0
 27 28  1  0  0  0
 28 29  2  0  0  0
 29 30  1  0  0  0
 29 23  1  0  0  0
 31 30  2  0  0  0
 24 23  2  0  0  0
 23 25  2  0  0  0
 23 22  1  0  0  0
 22 21  1  0  0  0
 22 34  1  0  0  0
 34 35  1  0  0  0
 36 35  1  0  0  0
 35 37  1  0  0  0
 21 18  1  0  0  0
  1 18  1  0  0  0
 18 19  1  0  0  0
 38  1  1  0  0  0
  1  2  1  0  0  0
  2  3  1  0  0  0
  4  3  2  0  0  0
  3  6  1  0  0  0
  6  7  1  0  0  0
 14  7  1  0  0  0
  7  8  1  0  0  0
  9  8  1  0  0  0
 10  9  1  0  0  0
 14 10  1  0  0  0
 11 10  1  0  0  0
 12 11  1  0  0  0
 15 12  1  0  0  0
 13 12  1  0  0  0
 17 13  1  0  0  0
 13 14  1  0  0  0
 44 38  1  0  0  0
 40 39  2  0  0  0
 39 44  1  0  0  0
 41 40  1  0  0  0
 41 42  2  0  0  0
 42 43  1  0  0  0
 43 44  2  0  0  0
 32 33  1  0  0  0
 16 15  1  0  0  0
 17 16  1  0  0  0
 19 20  1  0  0  0
  2  5  1  0  0  0
M  END
> <minimizedAffinity>
-9.08344

$$$$
