3I51_45C_A_1


 12 12  0  0  0  0  0  0  0  0999 V2000
    2.7940   -2.4982   18.6945 C   0  0  0  0  0  0  0  0  0  0  0  0
    3.7905   -1.8565   19.3666 C   0  0  0  0  0  0  0  0  0  0  0  0
    3.5404   -0.9671   20.4126 C   0  0  0  0  0  0  0  0  0  0  0  0
    2.2114   -0.8297   20.7661 C   0  0  0  0  0  0  0  0  0  0  0  0
    1.1951   -1.4710   20.0597 C   0  0  0  0  0  0  0  0  0  0  0  0
    1.4644   -2.3312   19.0277 C   0  0  0  0  0  0  0  0  0  0  0  0
    3.0901   -3.3130   17.6653 O   0  0  0  0  0  0  0  0  0  0  0  0
    5.0369   -2.0936   18.9329 O   0  0  0  0  0  0  0  0  0  0  0  0
    1.8935    0.2828   22.0813 Cl  0  0  0  0  0  0  0  0  0  0  0  0
   -0.5340   -1.2681   20.4789 Cl  0  0  0  0  0  0  0  0  0  0  0  0
    2.4037   -3.7536   17.2040 H   0  0  0  0  0  0  0  0  0  0  0  0
    5.1816   -2.6949   18.2290 H   0  0  0  0  0  0  0  0  0  0  0  0
  7  1  1  0  0  0
  1  6  2  0  0  0
  1  2  1  0  0  0
  8  2  1  0  0  0
  2  3  2  0  0  0
  3  4  1  0  0  0
  5  4  2  0  0  0
  4  9  1  0  0  0
  6  5  1  0  0  0
  5 10  1  0  0  0
  7 11  1  0  0  0
  8 12  1  0  0  0
M  END
> <minimizedAffinity>
-5.57446

$$$$
3I51_45C_A_1


 12 12  0  0  0  0  0  0  0  0999 V2000
    3.7803   -1.8157   19.3373 C   0  0  0  0  0  0  0  0  0  0  0  0
    2.7842   -2.4823   18.6891 C   0  0  0  0  0  0  0  0  0  0  0  0
    1.4420   -2.3684   19.0540 C   0  0  0  0  0  0  0  0  0  0  0  0
    1.1821   -1.4795   20.0798 C   0  0  0  0  0  0  0  0  0  0  0  0
    2.2075   -0.8183   20.7539 C   0  0  0  0  0  0  0  0  0  0  0  0
    3.5200   -0.9550   20.3853 C   0  0  0  0  0  0  0  0  0  0  0  0
    5.0625   -1.9955   18.9706 O   0  0  0  0  0  0  0  0  0  0  0  0
    3.1733   -3.2990   17.6995 O   0  0  0  0  0  0  0  0  0  0  0  0
   -0.5020   -1.3307   20.5383 Cl  0  0  0  0  0  0  0  0  0  0  0  0
    1.8887    0.3029   22.1134 Cl  0  0  0  0  0  0  0  0  0  0  0  0
    5.7463   -1.5364   19.4173 H   0  0  0  0  0  0  0  0  0  0  0  0
    4.0801   -3.3597   17.4713 H   0  0  0  0  0  0  0  0  0  0  0  0
  7  1  1  0  0  0
  1  6  2  0  0  0
  1  2  1  0  0  0
  8  2  1  0  0  0
  2  3  2  0  0  0
  3  4  1  0  0  0
  5  4  2  0  0  0
  4  9  1  0  0  0
  6  5  1  0  0  0
  5 10  1  0  0  0
  7 11  1  0  0  0
  8 12  1  0  0  0
M  END
> <minimizedAffinity>
-5.51120

$$$$
3I51_45C_A_1


 12 12  0  0  0  0  0  0  0  0999 V2000
    0.8568   -1.3123   20.5851 C   0  0  0  0  0  0  0  0  0  0  0  0
    1.8275   -0.6006   21.2236 C   0  0  0  0  0  0  0  0  0  0  0  0
    3.1742   -0.6759   20.8649 C   0  0  0  0  0  0  0  0  0  0  0  0
    3.4503   -1.4744   19.7712 C   0  0  0  0  0  0  0  0  0  0  0  0
    2.4563   -2.2177   19.1369 C   0  0  0  0  0  0  0  0  0  0  0  0
    1.1417   -2.1368   19.5146 C   0  0  0  0  0  0  0  0  0  0  0  0
   -0.4208   -1.2344   21.0003 O   0  0  0  0  0  0  0  0  0  0  0  0
    1.4198    0.1496   22.2575 O   0  0  0  0  0  0  0  0  0  0  0  0
    5.1390   -1.5685   19.3152 Cl  0  0  0  0  0  0  0  0  0  0  0  0
    2.8067   -3.2901   17.7462 Cl  0  0  0  0  0  0  0  0  0  0  0  0
   -1.0872   -1.7244   20.5601 H   0  0  0  0  0  0  0  0  0  0  0  0
    0.5105    0.1854   22.4805 H   0  0  0  0  0  0  0  0  0  0  0  0
  7  1  1  0  0  0
  1  6  2  0  0  0
  1  2  1  0  0  0
  8  2  1  0  0  0
  2  3  2  0  0  0
  3  4  1  0  0  0
  5  4  2  0  0  0
  4  9  1  0  0  0
  6  5  1  0  0  0
  5 10  1  0  0  0
  7 11  1  0  0  0
  8 12  1  0  0  0
M  END
> <minimizedAffinity>
-4.51696

$$$$
3I51_45C_A_1


 12 12  0  0  0  0  0  0  0  0999 V2000
    1.8030   -0.6087   21.2137 C   0  0  0  0  0  0  0  0  0  0  0  0
    0.8456   -1.3385   20.5754 C   0  0  0  0  0  0  0  0  0  0  0  0
    1.1300   -2.1619   19.4851 C   0  0  0  0  0  0  0  0  0  0  0  0
    2.4649   -2.2386   19.1353 C   0  0  0  0  0  0  0  0  0  0  0  0
    3.4360   -1.4721   19.7773 C   0  0  0  0  0  0  0  0  0  0  0  0
    3.1309   -0.6610   20.8386 C   0  0  0  0  0  0  0  0  0  0  0  0
    1.4657    0.2021   22.2334 O   0  0  0  0  0  0  0  0  0  0  0  0
   -0.4072   -1.1850   21.0282 O   0  0  0  0  0  0  0  0  0  0  0  0
    2.8266   -3.2742   17.7695 Cl  0  0  0  0  0  0  0  0  0  0  0  0
    5.1627   -1.5286   19.3061 Cl  0  0  0  0  0  0  0  0  0  0  0  0
    2.1252    0.7033   22.6713 H   0  0  0  0  0  0  0  0  0  0  0  0
   -0.5751   -0.6270   21.7619 H   0  0  0  0  0  0  0  0  0  0  0  0
  7  1  1  0  0  0
  1  6  2  0  0  0
  1  2  1  0  0  0
  8  2  1  0  0  0
  2  3  2  0  0  0
  3  4  1  0  0  0
  5  4  2  0  0  0
  4  9  1  0  0  0
  6  5  1  0  0  0
  5 10  1  0  0  0
  7 11  1  0  0  0
  8 12  1  0  0  0
M  END
> <minimizedAffinity>
-4.49910

$$$$
3I51_45C_A_1


 12 12  0  0  0  0  0  0  0  0999 V2000
    4.0566   -0.5623   20.1603 C   0  0  0  0  0  0  0  0  0  0  0  0
    3.1775   -0.4262   21.1923 C   0  0  0  0  0  0  0  0  0  0  0  0
    1.9913   -1.1572   21.2711 C   0  0  0  0  0  0  0  0  0  0  0  0
    1.7984   -2.0805   20.2609 C   0  0  0  0  0  0  0  0  0  0  0  0
    2.6899   -2.1987   19.1960 C   0  0  0  0  0  0  0  0  0  0  0  0
    3.8430   -1.4611   19.1339 C   0  0  0  0  0  0  0  0  0  0  0  0
    5.1651    0.1992   20.1130 O   0  0  0  0  0  0  0  0  0  0  0  0
    3.4955    0.4928   22.1155 O   0  0  0  0  0  0  0  0  0  0  0  0
    0.3125   -3.0031   20.3583 Cl  0  0  0  0  0  0  0  0  0  0  0  0
    2.4303   -3.3600   17.8578 Cl  0  0  0  0  0  0  0  0  0  0  0  0
    5.7687    0.1044   19.4026 H   0  0  0  0  0  0  0  0  0  0  0  0
    4.2974    0.9721   22.0427 H   0  0  0  0  0  0  0  0  0  0  0  0
  7  1  1  0  0  0
  1  6  2  0  0  0
  1  2  1  0  0  0
  8  2  1  0  0  0
  2  3  2  0  0  0
  3  4  1  0  0  0
  5  4  2  0  0  0
  4  9  1  0  0  0
  6  5  1  0  0  0
  5 10  1  0  0  0
  7 11  1  0  0  0
  8 12  1  0  0  0
M  END
> <minimizedAffinity>
-4.17226

$$$$
3I51_45C_A_1


 12 12  0  0  0  0  0  0  0  0999 V2000
    3.2162   -0.3934   21.1400 C   0  0  0  0  0  0  0  0  0  0  0  0
    4.0900   -0.5628   20.1083 C   0  0  0  0  0  0  0  0  0  0  0  0
    3.8797   -1.4935   19.0899 C   0  0  0  0  0  0  0  0  0  0  0  0
    2.6879   -2.1896   19.1628 C   0  0  0  0  0  0  0  0  0  0  0  0
    1.8093   -2.0283   20.2328 C   0  0  0  0  0  0  0  0  0  0  0  0
    2.0429   -1.1163   21.2282 C   0  0  0  0  0  0  0  0  0  0  0  0
    3.4899    0.4890   22.1183 O   0  0  0  0  0  0  0  0  0  0  0  0
    5.1989    0.1899   20.1501 O   0  0  0  0  0  0  0  0  0  0  0  0
    2.4183   -3.3561   17.8841 Cl  0  0  0  0  0  0  0  0  0  0  0  0
    0.2826   -2.9552   20.3627 Cl  0  0  0  0  0  0  0  0  0  0  0  0
    2.8880    0.6044   22.8271 H   0  0  0  0  0  0  0  0  0  0  0  0
    5.3192    0.8087   20.8434 H   0  0  0  0  0  0  0  0  0  0  0  0
  7  1  1  0  0  0
  1  6  2  0  0  0
  1  2  1  0  0  0
  8  2  1  0  0  0
  2  3  2  0  0  0
  3  4  1  0  0  0
  5  4  2  0  0  0
  4  9  1  0  0  0
  6  5  1  0  0  0
  5 10  1  0  0  0
  7 11  1  0  0  0
  8 12  1  0  0  0
M  END
> <minimizedAffinity>
-4.08466

$$$$
3I51_45C_A_1


 12 12  0  0  0  0  0  0  0  0999 V2000
    4.4079   -0.9278   19.9987 C   0  0  0  0  0  0  0  0  0  0  0  0
    3.8553   -2.0604   19.4806 C   0  0  0  0  0  0  0  0  0  0  0  0
    2.5071   -2.3818   19.6437 C   0  0  0  0  0  0  0  0  0  0  0  0
    1.7516   -1.4378   20.3132 C   0  0  0  0  0  0  0  0  0  0  0  0
    2.3274   -0.2925   20.8607 C   0  0  0  0  0  0  0  0  0  0  0  0
    3.6568   -0.0037   20.6978 C   0  0  0  0  0  0  0  0  0  0  0  0
    5.7235   -0.6885   19.8474 O   0  0  0  0  0  0  0  0  0  0  0  0
    4.6975   -2.8819   18.8373 O   0  0  0  0  0  0  0  0  0  0  0  0
    0.0579   -1.8357   20.5166 Cl  0  0  0  0  0  0  0  0  0  0  0  0
    1.3688    0.9176   21.7682 Cl  0  0  0  0  0  0  0  0  0  0  0  0
    6.1020    0.0908   20.2043 H   0  0  0  0  0  0  0  0  0  0  0  0
    5.5990   -2.6458   18.7395 H   0  0  0  0  0  0  0  0  0  0  0  0
  7  1  1  0  0  0
  1  6  2  0  0  0
  1  2  1  0  0  0
  8  2  1  0  0  0
  2  3  2  0  0  0
  3  4  1  0  0  0
  5  4  2  0  0  0
  4  9  1  0  0  0
  6  5  1  0  0  0
  5 10  1  0  0  0
  7 11  1  0  0  0
  8 12  1  0  0  0
M  END
> <minimizedAffinity>
-3.90734

$$$$
3I51_45C_A_1


 12 12  0  0  0  0  0  0  0  0999 V2000
    3.8413   -0.6151   20.1590 C   0  0  0  0  0  0  0  0  0  0  0  0
    3.4026   -1.4631   19.1869 C   0  0  0  0  0  0  0  0  0  0  0  0
    2.3239   -2.3284   19.3746 C   0  0  0  0  0  0  0  0  0  0  0  0
    1.6859   -2.2208   20.5958 C   0  0  0  0  0  0  0  0  0  0  0  0
    2.1535   -1.3679   21.5943 C   0  0  0  0  0  0  0  0  0  0  0  0
    3.2227   -0.5356   21.3911 C   0  0  0  0  0  0  0  0  0  0  0  0
    4.9135    0.1675   19.9385 O   0  0  0  0  0  0  0  0  0  0  0  0
    4.1012   -1.4539   18.0424 O   0  0  0  0  0  0  0  0  0  0  0  0
    0.3287   -3.3024   20.8339 Cl  0  0  0  0  0  0  0  0  0  0  0  0
    1.3630   -1.2500   23.1968 Cl  0  0  0  0  0  0  0  0  0  0  0  0
    5.2139    0.7502   20.6080 H   0  0  0  0  0  0  0  0  0  0  0  0
    4.8220   -0.8643   17.9382 H   0  0  0  0  0  0  0  0  0  0  0  0
  7  1  1  0  0  0
  1  6  2  0  0  0
  1  2  1  0  0  0
  8  2  1  0  0  0
  2  3  2  0  0  0
  3  4  1  0  0  0
  5  4  2  0  0  0
  4  9  1  0  0  0
  6  5  1  0  0  0
  5 10  1  0  0  0
  7 11  1  0  0  0
  8 12  1  0  0  0
M  END
> <minimizedAffinity>
-3.78954

$$$$
3I51_45C_A_1


 12 12  0  0  0  0  0  0  0  0999 V2000
    2.4220   -2.5339   19.0972 C   0  0  0  0  0  0  0  0  0  0  0  0
    1.5245   -2.3580   20.1072 C   0  0  0  0  0  0  0  0  0  0  0  0
    1.7399   -1.4645   21.1575 C   0  0  0  0  0  0  0  0  0  0  0  0
    2.9000   -0.7186   21.0698 C   0  0  0  0  0  0  0  0  0  0  0  0
    3.8250   -0.9196   20.0466 C   0  0  0  0  0  0  0  0  0  0  0  0
    3.5973   -1.8117   19.0319 C   0  0  0  0  0  0  0  0  0  0  0  0
    2.1828   -3.4404   18.1319 O   0  0  0  0  0  0  0  0  0  0  0  0
    0.4313   -3.1330   20.0611 O   0  0  0  0  0  0  0  0  0  0  0  0
    3.1722    0.4070   22.3842 Cl  0  0  0  0  0  0  0  0  0  0  0  0
    5.3528    0.0090   19.9445 Cl  0  0  0  0  0  0  0  0  0  0  0  0
    2.8010   -3.5601   17.4380 H   0  0  0  0  0  0  0  0  0  0  0  0
    0.3071   -3.7259   19.3462 H   0  0  0  0  0  0  0  0  0  0  0  0
  7  1  1  0  0  0
  1  6  2  0  0  0
  1  2  1  0  0  0
  8  2  1  0  0  0
  2  3  2  0  0  0
  3  4  1  0  0  0
  5  4  2  0  0  0
  4  9  1  0  0  0
  6  5  1  0  0  0
  5 10  1  0  0  0
  7 11  1  0  0  0
  8 12  1  0  0  0
M  END
> <minimizedAffinity>
-3.11871

$$$$
3I51_45C_A_1


 12 12  0  0  0  0  0  0  0  0999 V2000
    1.5765   -2.2143   20.0724 C   0  0  0  0  0  0  0  0  0  0  0  0
    2.4884   -2.4576   19.0897 C   0  0  0  0  0  0  0  0  0  0  0  0
    3.7093   -1.7858   19.0137 C   0  0  0  0  0  0  0  0  0  0  0  0
    3.9610   -0.8998   20.0441 C   0  0  0  0  0  0  0  0  0  0  0  0
    3.0146   -0.6384   21.0336 C   0  0  0  0  0  0  0  0  0  0  0  0
    1.8169   -1.3021   21.0809 C   0  0  0  0  0  0  0  0  0  0  0  0
    0.3963   -2.8609   20.0732 O   0  0  0  0  0  0  0  0  0  0  0  0
    2.1249   -3.3552   18.1623 O   0  0  0  0  0  0  0  0  0  0  0  0
    5.4942   -0.0573   19.9546 Cl  0  0  0  0  0  0  0  0  0  0  0  0
    3.3098    0.5392   22.3499 Cl  0  0  0  0  0  0  0  0  0  0  0  0
   -0.2297   -2.6925   20.7497 H   0  0  0  0  0  0  0  0  0  0  0  0
    1.3003   -3.7945   18.2332 H   0  0  0  0  0  0  0  0  0  0  0  0
  7  1  1  0  0  0
  1  6  2  0  0  0
  1  2  1  0  0  0
  8  2  1  0  0  0
  2  3  2  0  0  0
  3  4  1  0  0  0
  5  4  2  0  0  0
  4  9  1  0  0  0
  6  5  1  0  0  0
  5 10  1  0  0  0
  7 11  1  0  0  0
  8 12  1  0  0  0
M  END
> <minimizedAffinity>
-3.02131

$$$$
