1G74_OLA_A_132
  RCSB PDB12061702343D
Coordinates from PDB:1G74:A:132 Model:1 without hydrogens
 20 19  0  0  0  0            999 V2000
  -49.3100   66.7060  -12.0240   C 0  0  0  0  0  0  0  0  0  0  0  0
  -49.8630   67.5500  -12.7240   O 0  0  0  0  0  0  0  0  0  0  0  0
  -49.2590   65.5400  -12.3780   O 0  0  0  0  0  0  0  0  0  0  0  0
  -48.6860   67.0870  -10.7120   C 0  0  0  0  0  0  0  0  0  0  0  0
  -47.2540   67.5360  -10.9030   C 0  0  0  0  0  0  0  0  0  0  0  0
  -46.5990   67.9150   -9.6010   C 0  0  0  0  0  0  0  0  0  0  0  0
  -45.4230   66.9660   -9.3680   C 0  0  0  0  0  0  0  0  0  0  0  0
  -45.8350   65.7410   -8.5460   C 0  0  0  0  0  0  0  0  0  0  0  0
  -45.9060   66.0990   -7.0750   C 0  0  0  0  0  0  0  0  0  0  0  0
  -44.5580   66.2530   -6.4030   C 0  0  0  0  0  0  0  0  0  0  0  0
  -44.8620   66.6500   -5.0530   C 0  0  0  0  0  0  0  0  0  0  0  0
  -44.9200   67.9780   -4.5750   C 0  0  0  0  0  0  0  0  0  0  0  0
  -44.6790   69.2080   -5.3240   C 0  0  0  0  0  0  0  0  0  0  0  0
  -45.9140   69.6490   -6.0680   C 0  0  0  0  0  0  0  0  0  0  0  0
  -45.6410   70.9150   -6.8340   C 0  0  0  0  0  0  0  0  0  0  0  0
  -46.8790   71.3370   -7.6050   C 0  0  0  0  0  0  0  0  0  0  0  0
  -47.7610   72.3150   -6.8270   C 0  0  0  0  0  0  0  0  0  0  0  0
  -48.9990   72.6670   -7.6460   C 0  0  0  0  0  0  0  0  0  0  0  0
  -50.0060   71.5170   -7.7850   C 0  0  0  0  0  0  0  0  0  0  0  0
  -51.1880   71.9810   -8.6310   C 0  0  0  0  0  0  0  0  0  0  0  0
  1  2  2  0  0  0  0
  1  3  1  0  0  0  0
  1  4  1  0  0  0  0
  4  5  1  0  0  0  0
  5  6  1  0  0  0  0
  6  7  1  0  0  0  0
  7  8  1  0  0  0  0
  8  9  1  0  0  0  0
  9 10  1  0  0  0  0
 10 11  1  0  0  0  0
 11 12  2  0  0  0  0
 12 13  1  0  0  0  0
 13 14  1  0  0  0  0
 14 15  1  0  0  0  0
 15 16  1  0  0  0  0
 16 17  1  0  0  0  0
 17 18  1  0  0  0  0
 18 19  1  0  0  0  0
 19 20  1  0  0  0  0
A    1
C1
A    2
O1
A    3
O2
A    4
C2
A    5
C3
A    6
C4
A    7
C5
A    8
C6
A    9
C7
A   10
C8
A   11
C9
A   12
C10
A   13
C11
A   14
C12
A   15
C13
A   16
C14
A   17
C15
A   18
C16
A   19
C17
A   20
C18
M  END
>  <InstanceId>
1G74_OLA_A_132

>  <ChemCompId>
OLA

>  <PdbId>
1G74

>  <ChainId>
A

>  <ResidueNumber>
132

>  <InsertionCode>


>  <Model>
1

>  <AltIds>


>  <MissingHeavyAtoms>
0

>  <ObservedFormula>
C18 O2

>  <Name>
OLEIC ACID

>  <SystematicName>
(Z)-octadec-9-enoic acid

>  <Synonyms>


>  <Type>
NON-POLYMER

>  <Formula>
C18 H34 O2

>  <MolecularWeight>
282.461

>  <ModifiedDate>
2011-06-04

>  <Parent>


>  <OneLetterCode>


>  <SubcomponentList>


>  <AmbiguousFlag>
N

>  <InChI>
InChI=1S/C18H34O2/c1-2-3-4-5-6-7-8-9-10-11-12-13-14-15-16-17-18(19)20/h9-10H,2-8,11-17H2,1H3,(H,19,20)/b10-9-

>  <InChIKey>
ZQPPMHVWECSIRJ-KTKRTIGZSA-N

>  <SMILES>
CCCCCCCC\C=C/CCCCCCCC(=O)O

$$$$
