4IBC_12G_A_401


 35 38  0  0  0  0  0  0  0  0999 V2000
    0.9155   19.8484   -0.6491 C   0  0  0  0  0  0  0  0  0  0  0  0
    1.8412   20.2979    0.2109 N   0  0  0  0  0  0  0  0  0  0  0  0
    2.8481   19.4218    0.3279 C   0  0  0  0  0  0  0  0  0  0  0  0
    3.9696   19.5799    1.1085 O   0  0  0  0  0  0  0  0  0  0  0  0
    2.5619   18.3203   -0.4654 C   0  0  0  0  0  0  0  0  0  0  0  0
    3.3355   17.1942   -0.6155 O   0  0  0  0  0  0  0  0  0  0  0  0
    1.3279   18.5819   -1.0601 C   0  0  0  0  0  0  0  0  0  0  0  0
    4.1539   17.1245   -0.1646 H   0  0  0  0  0  0  0  0  0  0  0  0
    2.6770   20.9061   -3.0435 Cl  0  0  0  0  0  0  0  0  0  0  0  0
    1.0188   21.2897   -2.7477 C   0  0  0  0  0  0  0  0  0  0  0  0
    0.3882   22.1495   -3.6375 C   0  0  0  0  0  0  0  0  0  0  0  0
   -0.9370   22.4977   -3.4472 C   0  0  0  0  0  0  0  0  0  0  0  0
   -1.6386   21.9852   -2.3670 C   0  0  0  0  0  0  0  0  0  0  0  0
   -1.0146   21.1300   -1.4723 C   0  0  0  0  0  0  0  0  0  0  0  0
    0.3148   20.7711   -1.6605 C   0  0  0  0  0  0  0  0  0  0  0  0
    1.7217   21.4948    0.9885 C   0  0  0  0  0  0  0  0  0  0  0  0
    0.9631   21.4801    2.1474 C   0  0  0  0  0  0  0  0  0  0  0  0
    0.8413   22.6363    2.9042 C   0  0  0  0  0  0  0  0  0  0  0  0
    1.4812   23.7996    2.5034 C   0  0  0  0  0  0  0  0  0  0  0  0
    2.2386   23.8170    1.3409 C   0  0  0  0  0  0  0  0  0  0  0  0
    2.3592   22.6587    0.5823 C   0  0  0  0  0  0  0  0  0  0  0  0
    1.3317   25.0346    3.3261 C   0  0  0  0  0  0  0  0  0  0  0  0
    0.3643   24.9258    4.4600 C   0  0  0  0  0  0  0  0  0  0  0  0
   -0.8510   25.2259    4.2837 O   0  0  0  0  0  0  0  0  0  0  0  0
    0.7585   24.5224    5.5872 O   0  0  0  0  0  0  0  0  0  0  0  0
    1.6596   24.3003    5.7165 H   0  0  0  0  0  0  0  0  0  0  0  0
    0.4415   17.6136   -1.7725 C   0  0  0  0  0  0  0  0  0  0  0  0
    0.3374   16.4869   -1.3302 O   0  0  0  0  0  0  0  0  0  0  0  0
   -0.3349   17.9468   -2.9990 C   0  0  0  0  0  0  0  0  0  0  0  0
   -1.7199   18.0760   -2.9530 C   0  0  0  0  0  0  0  0  0  0  0  0
   -2.5824   17.8870   -1.4610 Cl  0  0  0  0  0  0  0  0  0  0  0  0
   -2.4183   18.3712   -4.1151 C   0  0  0  0  0  0  0  0  0  0  0  0
   -1.7314   18.5235   -5.3097 C   0  0  0  0  0  0  0  0  0  0  0  0
   -0.3498   18.3804   -5.3562 C   0  0  0  0  0  0  0  0  0  0  0  0
    0.3517   18.0888   -4.2013 C   0  0  0  0  0  0  0  0  0  0  0  0
 24 23  2  0  0  0
 22 23  1  0  0  0
 22 19  1  0  0  0
 23 25  1  0  0  0
 20 19  2  0  0  0
 20 21  1  0  0  0
 19 18  1  0  0  0
 21 16  2  0  0  0
 18 17  2  0  0  0
 16 17  1  0  0  0
 16  2  1  0  0  0
  4  3  2  0  0  0
  2  3  1  0  0  0
  2  1  1  0  0  0
  3  5  1  0  0  0
  9 10  1  0  0  0
  1  7  1  0  0  0
  1 15  1  0  0  0
  5  6  1  0  0  0
  5  7  2  0  0  0
  7 27  1  0  0  0
 15 10  2  0  0  0
 15 14  1  0  0  0
 10 11  1  0  0  0
 27 28  2  0  0  0
 27 29  1  0  0  0
 35 29  2  0  0  0
 35 34  1  0  0  0
 29 30  1  0  0  0
 14 13  2  0  0  0
 11 12  2  0  0  0
 34 33  2  0  0  0
 30 31  1  0  0  0
 30 32  2  0  0  0
 13 12  1  0  0  0
 33 32  1  0  0  0
 25 26  1  0  0  0
  6  8  1  0  0  0
M  END
> <minimizedAffinity>
-6.91247

$$$$
4IBC_12G_A_401


 35 38  0  0  0  0  0  0  0  0999 V2000
    2.4280   20.7023    1.7321 C   0  0  0  0  0  0  0  0  0  0  0  0
    1.6369   20.0760    0.8486 N   0  0  0  0  0  0  0  0  0  0  0  0
    1.1135   18.9641    1.3823 C   0  0  0  0  0  0  0  0  0  0  0  0
    0.2433   18.1009    0.7578 O   0  0  0  0  0  0  0  0  0  0  0  0
    1.6077   18.8248    2.6709 C   0  0  0  0  0  0  0  0  0  0  0  0
    1.3250   17.8090    3.5526 O   0  0  0  0  0  0  0  0  0  0  0  0
    2.4582   19.9102    2.8787 C   0  0  0  0  0  0  0  0  0  0  0  0
    0.7338   17.1252    3.3056 H   0  0  0  0  0  0  0  0  0  0  0  0
    0.2628   21.9745    3.6421 Cl  0  0  0  0  0  0  0  0  0  0  0  0
    1.4316   22.8356    2.7058 C   0  0  0  0  0  0  0  0  0  0  0  0
    1.4267   24.2221    2.7867 C   0  0  0  0  0  0  0  0  0  0  0  0
    2.3351   24.9646    2.0541 C   0  0  0  0  0  0  0  0  0  0  0  0
    3.2548   24.3235    1.2386 C   0  0  0  0  0  0  0  0  0  0  0  0
    3.2629   22.9403    1.1495 C   0  0  0  0  0  0  0  0  0  0  0  0
    2.3571   22.1876    1.8873 C   0  0  0  0  0  0  0  0  0  0  0  0
    1.4619   20.4727   -0.5165 C   0  0  0  0  0  0  0  0  0  0  0  0
    2.4085   20.1044   -1.4585 C   0  0  0  0  0  0  0  0  0  0  0  0
    2.2464   20.4870   -2.7820 C   0  0  0  0  0  0  0  0  0  0  0  0
    1.1384   21.2306   -3.1596 C   0  0  0  0  0  0  0  0  0  0  0  0
    0.1910   21.6033   -2.2167 C   0  0  0  0  0  0  0  0  0  0  0  0
    0.3545   21.2209   -0.8905 C   0  0  0  0  0  0  0  0  0  0  0  0
    0.9859   21.6392   -4.5858 C   0  0  0  0  0  0  0  0  0  0  0  0
    0.4431   20.5820   -5.4920 C   0  0  0  0  0  0  0  0  0  0  0  0
    1.2156   19.9758   -6.2881 O   0  0  0  0  0  0  0  0  0  0  0  0
   -0.7816   20.2866   -5.4519 O   0  0  0  0  0  0  0  0  0  0  0  0
   -1.3530   20.7368   -4.8613 H   0  0  0  0  0  0  0  0  0  0  0  0
    3.4530   20.0848    3.9791 C   0  0  0  0  0  0  0  0  0  0  0  0
    3.0444   20.2521    5.1109 O   0  0  0  0  0  0  0  0  0  0  0  0
    4.9281   20.0606    3.7757 C   0  0  0  0  0  0  0  0  0  0  0  0
    5.6503   18.8813    3.9326 C   0  0  0  0  0  0  0  0  0  0  0  0
    4.8524   17.3960    4.3362 Cl  0  0  0  0  0  0  0  0  0  0  0  0
    7.0261   18.8925    3.7522 C   0  0  0  0  0  0  0  0  0  0  0  0
    7.6670   20.0785    3.4289 C   0  0  0  0  0  0  0  0  0  0  0  0
    6.9459   21.2580    3.2863 C   0  0  0  0  0  0  0  0  0  0  0  0
    5.5748   21.2525    3.4622 C   0  0  0  0  0  0  0  0  0  0  0  0
 24 23  2  0  0  0
 22 23  1  0  0  0
 22 19  1  0  0  0
 23 25  1  0  0  0
 20 19  2  0  0  0
 20 21  1  0  0  0
 19 18  1  0  0  0
 21 16  2  0  0  0
 18 17  2  0  0  0
 16 17  1  0  0  0
 16  2  1  0  0  0
  4  3  2  0  0  0
  2  3  1  0  0  0
  2  1  1  0  0  0
  3  5  1  0  0  0
  9 10  1  0  0  0
  1  7  1  0  0  0
  1 15  1  0  0  0
  5  6  1  0  0  0
  5  7  2  0  0  0
  7 27  1  0  0  0
 15 10  2  0  0  0
 15 14  1  0  0  0
 10 11  1  0  0  0
 27 28  2  0  0  0
 27 29  1  0  0  0
 35 29  2  0  0  0
 35 34  1  0  0  0
 29 30  1  0  0  0
 14 13  2  0  0  0
 11 12  2  0  0  0
 34 33  2  0  0  0
 30 31  1  0  0  0
 30 32  2  0  0  0
 13 12  1  0  0  0
 33 32  1  0  0  0
 25 26  1  0  0  0
  6  8  1  0  0  0
M  END
> <minimizedAffinity>
-6.84999

$$$$
4IBC_12G_A_401


 35 38  0  0  0  0  0  0  0  0999 V2000
   -0.2010   19.9769   -3.1180 C   0  0  0  0  0  0  0  0  0  0  0  0
    0.8592   20.7627   -2.8792 N   0  0  0  0  0  0  0  0  0  0  0  0
    1.3672   21.2383   -4.0242 C   0  0  0  0  0  0  0  0  0  0  0  0
    2.4410   22.0903   -4.1388 O   0  0  0  0  0  0  0  0  0  0  0  0
    0.6314   20.7158   -5.0777 C   0  0  0  0  0  0  0  0  0  0  0  0
    0.8373   20.9477   -6.4167 O   0  0  0  0  0  0  0  0  0  0  0  0
   -0.3413   19.8987   -4.5026 C   0  0  0  0  0  0  0  0  0  0  0  0
    1.5261   21.5200   -6.6926 H   0  0  0  0  0  0  0  0  0  0  0  0
   -2.0126   22.5498   -3.3481 Cl  0  0  0  0  0  0  0  0  0  0  0  0
   -2.2877   21.1960   -2.3109 C   0  0  0  0  0  0  0  0  0  0  0  0
   -3.4068   21.2313   -1.4892 C   0  0  0  0  0  0  0  0  0  0  0  0
   -3.6742   20.1784   -0.6328 C   0  0  0  0  0  0  0  0  0  0  0  0
   -2.8244   19.0838   -0.5960 C   0  0  0  0  0  0  0  0  0  0  0  0
   -1.7032   19.0434   -1.4100 C   0  0  0  0  0  0  0  0  0  0  0  0
   -1.4316   20.0950   -2.2772 C   0  0  0  0  0  0  0  0  0  0  0  0
    1.4443   20.9763   -1.5894 C   0  0  0  0  0  0  0  0  0  0  0  0
    1.2261   22.1770   -0.9341 C   0  0  0  0  0  0  0  0  0  0  0  0
    1.7916   22.3916    0.3144 C   0  0  0  0  0  0  0  0  0  0  0  0
    2.5674   21.4051    0.9045 C   0  0  0  0  0  0  0  0  0  0  0  0
    2.7898   20.2031    0.2480 C   0  0  0  0  0  0  0  0  0  0  0  0
    2.2242   19.9891   -1.0035 C   0  0  0  0  0  0  0  0  0  0  0  0
    3.1733   21.6576    2.2438 C   0  0  0  0  0  0  0  0  0  0  0  0
    4.6633   21.5539    2.2935 C   0  0  0  0  0  0  0  0  0  0  0  0
    5.2160   20.8153    3.1579 O   0  0  0  0  0  0  0  0  0  0  0  0
    5.3667   22.1922    1.4650 O   0  0  0  0  0  0  0  0  0  0  0  0
    4.9558   22.7393    0.8248 H   0  0  0  0  0  0  0  0  0  0  0  0
   -1.2010   18.8901   -5.1916 C   0  0  0  0  0  0  0  0  0  0  0  0
   -2.1893   19.2759   -5.7834 O   0  0  0  0  0  0  0  0  0  0  0  0
   -0.9175   17.4281   -5.2040 C   0  0  0  0  0  0  0  0  0  0  0  0
   -1.7615   16.5325   -4.5540 C   0  0  0  0  0  0  0  0  0  0  0  0
   -3.1877   17.0857   -3.7381 Cl  0  0  0  0  0  0  0  0  0  0  0  0
   -1.4633   15.1774   -4.5691 C   0  0  0  0  0  0  0  0  0  0  0  0
   -0.3238   14.7319   -5.2212 C   0  0  0  0  0  0  0  0  0  0  0  0
    0.5253   15.6292   -5.8579 C   0  0  0  0  0  0  0  0  0  0  0  0
    0.2320   16.9801   -5.8485 C   0  0  0  0  0  0  0  0  0  0  0  0
 24 23  2  0  0  0
 22 23  1  0  0  0
 22 19  1  0  0  0
 23 25  1  0  0  0
 20 19  2  0  0  0
 20 21  1  0  0  0
 19 18  1  0  0  0
 21 16  2  0  0  0
 18 17  2  0  0  0
 16 17  1  0  0  0
 16  2  1  0  0  0
  4  3  2  0  0  0
  2  3  1  0  0  0
  2  1  1  0  0  0
  3  5  1  0  0  0
  9 10  1  0  0  0
  1  7  1  0  0  0
  1 15  1  0  0  0
  5  6  1  0  0  0
  5  7  2  0  0  0
  7 27  1  0  0  0
 15 10  2  0  0  0
 15 14  1  0  0  0
 10 11  1  0  0  0
 27 28  2  0  0  0
 27 29  1  0  0  0
 35 29  2  0  0  0
 35 34  1  0  0  0
 29 30  1  0  0  0
 14 13  2  0  0  0
 11 12  2  0  0  0
 34 33  2  0  0  0
 30 31  1  0  0  0
 30 32  2  0  0  0
 13 12  1  0  0  0
 33 32  1  0  0  0
 25 26  1  0  0  0
  6  8  1  0  0  0
M  END
> <minimizedAffinity>
-6.73504

$$$$
4IBC_12G_A_401


 35 38  0  0  0  0  0  0  0  0999 V2000
    3.3721   21.1413    1.4800 C   0  0  0  0  0  0  0  0  0  0  0  0
    2.8143   20.4245    0.4933 N   0  0  0  0  0  0  0  0  0  0  0  0
    3.3576   19.2015    0.4270 C   0  0  0  0  0  0  0  0  0  0  0  0
    3.0025   18.2068   -0.4541 O   0  0  0  0  0  0  0  0  0  0  0  0
    4.3490   19.1121    1.3932 C   0  0  0  0  0  0  0  0  0  0  0  0
    5.1532   18.0264    1.6454 O   0  0  0  0  0  0  0  0  0  0  0  0
    4.3732   20.3482    2.0384 C   0  0  0  0  0  0  0  0  0  0  0  0
    5.0487   17.2401    1.1466 H   0  0  0  0  0  0  0  0  0  0  0  0
    3.1101   24.2477    0.9935 Cl  0  0  0  0  0  0  0  0  0  0  0  0
    2.3469   23.3426    2.2516 C   0  0  0  0  0  0  0  0  0  0  0  0
    1.5421   24.0359    3.1462 C   0  0  0  0  0  0  0  0  0  0  0  0
    0.9110   23.3646    4.1780 C   0  0  0  0  0  0  0  0  0  0  0  0
    1.0801   21.9959    4.3184 C   0  0  0  0  0  0  0  0  0  0  0  0
    1.8853   21.2980    3.4320 C   0  0  0  0  0  0  0  0  0  0  0  0
    2.5178   21.9649    2.3894 C   0  0  0  0  0  0  0  0  0  0  0  0
    1.8513   20.9286   -0.4395 C   0  0  0  0  0  0  0  0  0  0  0  0
    2.2858   21.4920   -1.6280 C   0  0  0  0  0  0  0  0  0  0  0  0
    1.3587   21.9842   -2.5350 C   0  0  0  0  0  0  0  0  0  0  0  0
    0.0030   21.9072   -2.2535 C   0  0  0  0  0  0  0  0  0  0  0  0
   -0.4339   21.3464   -1.0620 C   0  0  0  0  0  0  0  0  0  0  0  0
    0.4954   20.8546   -0.1530 C   0  0  0  0  0  0  0  0  0  0  0  0
   -0.9780   22.4491   -3.2377 C   0  0  0  0  0  0  0  0  0  0  0  0
   -2.3919   22.0137   -3.0264 C   0  0  0  0  0  0  0  0  0  0  0  0
   -2.7696   20.8775   -3.4319 O   0  0  0  0  0  0  0  0  0  0  0  0
   -3.2027   22.7743   -2.4325 O   0  0  0  0  0  0  0  0  0  0  0  0
   -2.9215   23.6163   -2.1325 H   0  0  0  0  0  0  0  0  0  0  0  0
    5.4314   20.8731    2.9525 C   0  0  0  0  0  0  0  0  0  0  0  0
    5.5721   22.0760    3.0487 O   0  0  0  0  0  0  0  0  0  0  0  0
    6.3297   20.0072    3.7656 C   0  0  0  0  0  0  0  0  0  0  0  0
    5.8152   19.1822    4.7614 C   0  0  0  0  0  0  0  0  0  0  0  0
    4.1098   19.1104    5.0647 Cl  0  0  0  0  0  0  0  0  0  0  0  0
    6.6782   18.3983    5.5139 C   0  0  0  0  0  0  0  0  0  0  0  0
    8.0424   18.4531    5.2735 C   0  0  0  0  0  0  0  0  0  0  0  0
    8.5556   19.2879    4.2880 C   0  0  0  0  0  0  0  0  0  0  0  0
    7.7006   20.0693    3.5334 C   0  0  0  0  0  0  0  0  0  0  0  0
 24 23  2  0  0  0
 22 23  1  0  0  0
 22 19  1  0  0  0
 23 25  1  0  0  0
 20 19  2  0  0  0
 20 21  1  0  0  0
 19 18  1  0  0  0
 21 16  2  0  0  0
 18 17  2  0  0  0
 16 17  1  0  0  0
 16  2  1  0  0  0
  4  3  2  0  0  0
  2  3  1  0  0  0
  2  1  1  0  0  0
  3  5  1  0  0  0
  9 10  1  0  0  0
  1  7  1  0  0  0
  1 15  1  0  0  0
  5  6  1  0  0  0
  5  7  2  0  0  0
  7 27  1  0  0  0
 15 10  2  0  0  0
 15 14  1  0  0  0
 10 11  1  0  0  0
 27 28  2  0  0  0
 27 29  1  0  0  0
 35 29  2  0  0  0
 35 34  1  0  0  0
 29 30  1  0  0  0
 14 13  2  0  0  0
 11 12  2  0  0  0
 34 33  2  0  0  0
 30 31  1  0  0  0
 30 32  2  0  0  0
 13 12  1  0  0  0
 33 32  1  0  0  0
 25 26  1  0  0  0
  6  8  1  0  0  0
M  END
> <minimizedAffinity>
-6.71797

$$$$
4IBC_12G_A_401


 35 38  0  0  0  0  0  0  0  0999 V2000
    1.5373   19.9770   -1.1156 C   0  0  0  0  0  0  0  0  0  0  0  0
    2.2686   20.3293   -0.0482 N   0  0  0  0  0  0  0  0  0  0  0  0
    3.1815   19.3903    0.2348 C   0  0  0  0  0  0  0  0  0  0  0  0
    4.1074   19.4442    1.2507 O   0  0  0  0  0  0  0  0  0  0  0  0
    3.0271   18.3468   -0.6660 C   0  0  0  0  0  0  0  0  0  0  0  0
    3.7604   17.1851   -0.7093 O   0  0  0  0  0  0  0  0  0  0  0  0
    1.9703   18.7092   -1.5006 C   0  0  0  0  0  0  0  0  0  0  0  0
    4.4537   17.0455   -0.0946 H   0  0  0  0  0  0  0  0  0  0  0  0
   -1.2958   21.3649   -1.1640 Cl  0  0  0  0  0  0  0  0  0  0  0  0
   -0.0042   21.6401   -2.2777 C   0  0  0  0  0  0  0  0  0  0  0  0
   -0.2204   22.5530   -3.3017 C   0  0  0  0  0  0  0  0  0  0  0  0
    0.7755   22.8087   -4.2271 C   0  0  0  0  0  0  0  0  0  0  0  0
    1.9936   22.1540   -4.1311 C   0  0  0  0  0  0  0  0  0  0  0  0
    2.2151   21.2383   -3.1144 C   0  0  0  0  0  0  0  0  0  0  0  0
    1.2213   20.9808   -2.1776 C   0  0  0  0  0  0  0  0  0  0  0  0
    2.0361   21.4929    0.7540 C   0  0  0  0  0  0  0  0  0  0  0  0
    2.7638   22.6455    0.5075 C   0  0  0  0  0  0  0  0  0  0  0  0
    2.5453   23.7755    1.2820 C   0  0  0  0  0  0  0  0  0  0  0  0
    1.5984   23.7510    2.2949 C   0  0  0  0  0  0  0  0  0  0  0  0
    0.8710   22.5963    2.5454 C   0  0  0  0  0  0  0  0  0  0  0  0
    1.0912   21.4640    1.7701 C   0  0  0  0  0  0  0  0  0  0  0  0
    1.3835   24.9734    3.1219 C   0  0  0  0  0  0  0  0  0  0  0  0
    0.4491   24.8005    4.2752 C   0  0  0  0  0  0  0  0  0  0  0  0
    0.8497   24.2354    5.3327 O   0  0  0  0  0  0  0  0  0  0  0  0
   -0.7333   25.2300    4.1974 O   0  0  0  0  0  0  0  0  0  0  0  0
   -1.0290   25.6487    3.4129 H   0  0  0  0  0  0  0  0  0  0  0  0
    1.2197   17.8302   -2.4466 C   0  0  0  0  0  0  0  0  0  0  0  0
    1.6302   16.7039   -2.6436 O   0  0  0  0  0  0  0  0  0  0  0  0
   -0.0151   18.2491   -3.1662 C   0  0  0  0  0  0  0  0  0  0  0  0
   -1.2605   18.1719   -2.5497 C   0  0  0  0  0  0  0  0  0  0  0  0
   -1.4110   17.6182   -0.9137 Cl  0  0  0  0  0  0  0  0  0  0  0  0
   -2.3955   18.5542   -3.2504 C   0  0  0  0  0  0  0  0  0  0  0  0
   -2.2785   18.9980   -4.5586 C   0  0  0  0  0  0  0  0  0  0  0  0
   -1.0355   19.0612   -5.1772 C   0  0  0  0  0  0  0  0  0  0  0  0
    0.0991   18.6842   -4.4833 C   0  0  0  0  0  0  0  0  0  0  0  0
 24 23  2  0  0  0
 22 23  1  0  0  0
 22 19  1  0  0  0
 23 25  1  0  0  0
 20 19  2  0  0  0
 20 21  1  0  0  0
 19 18  1  0  0  0
 21 16  2  0  0  0
 18 17  2  0  0  0
 16 17  1  0  0  0
 16  2  1  0  0  0
  4  3  2  0  0  0
  2  3  1  0  0  0
  2  1  1  0  0  0
  3  5  1  0  0  0
  9 10  1  0  0  0
  1  7  1  0  0  0
  1 15  1  0  0  0
  5  6  1  0  0  0
  5  7  2  0  0  0
  7 27  1  0  0  0
 15 10  2  0  0  0
 15 14  1  0  0  0
 10 11  1  0  0  0
 27 28  2  0  0  0
 27 29  1  0  0  0
 35 29  2  0  0  0
 35 34  1  0  0  0
 29 30  1  0  0  0
 14 13  2  0  0  0
 11 12  2  0  0  0
 34 33  2  0  0  0
 30 31  1  0  0  0
 30 32  2  0  0  0
 13 12  1  0  0  0
 33 32  1  0  0  0
 25 26  1  0  0  0
  6  8  1  0  0  0
M  END
> <minimizedAffinity>
-6.64206

$$$$
4IBC_12G_A_401


 35 38  0  0  0  0  0  0  0  0999 V2000
    1.6528   21.0822    2.3829 C   0  0  0  0  0  0  0  0  0  0  0  0
    1.0519   20.5235    1.3222 N   0  0  0  0  0  0  0  0  0  0  0  0
    0.2548   19.5159    1.7022 C   0  0  0  0  0  0  0  0  0  0  0  0
   -0.5244   18.7450    0.8711 O   0  0  0  0  0  0  0  0  0  0  0  0
    0.3572   19.3743    3.0783 C   0  0  0  0  0  0  0  0  0  0  0  0
   -0.2916   18.4469    3.8582 O   0  0  0  0  0  0  0  0  0  0  0  0
    1.2613   20.3481    3.5013 C   0  0  0  0  0  0  0  0  0  0  0  0
   -0.8824   17.8352    3.4649 H   0  0  0  0  0  0  0  0  0  0  0  0
    4.1510   22.5874    1.1793 Cl  0  0  0  0  0  0  0  0  0  0  0  0
    2.8166   23.3163    1.9993 C   0  0  0  0  0  0  0  0  0  0  0  0
    2.8334   24.6960    2.1567 C   0  0  0  0  0  0  0  0  0  0  0  0
    1.7950   25.3339    2.8113 C   0  0  0  0  0  0  0  0  0  0  0  0
    0.7334   24.5946    3.3094 C   0  0  0  0  0  0  0  0  0  0  0  0
    0.7119   23.2168    3.1600 C   0  0  0  0  0  0  0  0  0  0  0  0
    1.7488   22.5698    2.4982 C   0  0  0  0  0  0  0  0  0  0  0  0
    1.3099   20.8746   -0.0422 C   0  0  0  0  0  0  0  0  0  0  0  0
    0.4644   21.7619   -0.6878 C   0  0  0  0  0  0  0  0  0  0  0  0
    0.7071   22.1047   -2.0099 C   0  0  0  0  0  0  0  0  0  0  0  0
    1.7948   21.5643   -2.6793 C   0  0  0  0  0  0  0  0  0  0  0  0
    2.6407   20.6727   -2.0353 C   0  0  0  0  0  0  0  0  0  0  0  0
    2.3964   20.3285   -0.7111 C   0  0  0  0  0  0  0  0  0  0  0  0
    2.0344   21.9388   -4.1030 C   0  0  0  0  0  0  0  0  0  0  0  0
    1.2205   21.1816   -5.1017 C   0  0  0  0  0  0  0  0  0  0  0  0
    1.2957   19.9207   -5.1513 O   0  0  0  0  0  0  0  0  0  0  0  0
    0.4500   21.7999   -5.8845 O   0  0  0  0  0  0  0  0  0  0  0  0
    0.3952   22.7346   -5.8467 H   0  0  0  0  0  0  0  0  0  0  0  0
    1.9350   20.4433    4.8310 C   0  0  0  0  0  0  0  0  0  0  0  0
    1.7541   21.4381    5.5044 O   0  0  0  0  0  0  0  0  0  0  0  0
    2.8181   19.3831    5.3915 C   0  0  0  0  0  0  0  0  0  0  0  0
    4.1223   19.2249    4.9320 C   0  0  0  0  0  0  0  0  0  0  0  0
    4.7719   20.2776    3.7173 Cl  0  0  0  0  0  0  0  0  0  0  0  0
    4.9168   18.2181    5.4617 C   0  0  0  0  0  0  0  0  0  0  0  0
    4.4005   17.3750    6.4336 C   0  0  0  0  0  0  0  0  0  0  0  0
    3.0934   17.5258    6.8812 C   0  0  0  0  0  0  0  0  0  0  0  0
    2.2979   18.5286    6.3591 C   0  0  0  0  0  0  0  0  0  0  0  0
 24 23  2  0  0  0
 22 23  1  0  0  0
 22 19  1  0  0  0
 23 25  1  0  0  0
 20 19  2  0  0  0
 20 21  1  0  0  0
 19 18  1  0  0  0
 21 16  2  0  0  0
 18 17  2  0  0  0
 16 17  1  0  0  0
 16  2  1  0  0  0
  4  3  2  0  0  0
  2  3  1  0  0  0
  2  1  1  0  0  0
  3  5  1  0  0  0
  9 10  1  0  0  0
  1  7  1  0  0  0
  1 15  1  0  0  0
  5  6  1  0  0  0
  5  7  2  0  0  0
  7 27  1  0  0  0
 15 10  2  0  0  0
 15 14  1  0  0  0
 10 11  1  0  0  0
 27 28  2  0  0  0
 27 29  1  0  0  0
 35 29  2  0  0  0
 35 34  1  0  0  0
 29 30  1  0  0  0
 14 13  2  0  0  0
 11 12  2  0  0  0
 34 33  2  0  0  0
 30 31  1  0  0  0
 30 32  2  0  0  0
 13 12  1  0  0  0
 33 32  1  0  0  0
 25 26  1  0  0  0
  6  8  1  0  0  0
M  END
> <minimizedAffinity>
-6.39786

$$$$
4IBC_12G_A_401


 35 38  0  0  0  0  0  0  0  0999 V2000
    0.7823   22.0259    2.5130 C   0  0  0  0  0  0  0  0  0  0  0  0
    1.3630   22.5548    1.4261 N   0  0  0  0  0  0  0  0  0  0  0  0
    1.8015   23.7959    1.6764 C   0  0  0  0  0  0  0  0  0  0  0  0
    2.4627   24.6131    0.7892 O   0  0  0  0  0  0  0  0  0  0  0  0
    1.4652   24.1219    2.9821 C   0  0  0  0  0  0  0  0  0  0  0  0
    1.7249   25.3091    3.6242 O   0  0  0  0  0  0  0  0  0  0  0  0
    0.7982   23.0115    3.4987 C   0  0  0  0  0  0  0  0  0  0  0  0
    2.1844   25.9926    3.1774 H   0  0  0  0  0  0  0  0  0  0  0  0
    3.6745   21.2234    3.4858 Cl  0  0  0  0  0  0  0  0  0  0  0  0
    2.3143   20.1677    3.3450 C   0  0  0  0  0  0  0  0  0  0  0  0
    2.4972   18.8333    3.6836 C   0  0  0  0  0  0  0  0  0  0  0  0
    1.4455   17.9402    3.5841 C   0  0  0  0  0  0  0  0  0  0  0  0
    0.2048   18.3785    3.1477 C   0  0  0  0  0  0  0  0  0  0  0  0
    0.0159   19.7079    2.8039 C   0  0  0  0  0  0  0  0  0  0  0  0
    1.0664   20.6120    2.9070 C   0  0  0  0  0  0  0  0  0  0  0  0
    1.4094   21.9297    0.1382 C   0  0  0  0  0  0  0  0  0  0  0  0
    2.6112   21.4240   -0.3295 C   0  0  0  0  0  0  0  0  0  0  0  0
    2.6638   20.8192   -1.5769 C   0  0  0  0  0  0  0  0  0  0  0  0
    1.5161   20.7177   -2.3487 C   0  0  0  0  0  0  0  0  0  0  0  0
    0.3122   21.2269   -1.8832 C   0  0  0  0  0  0  0  0  0  0  0  0
    0.2602   21.8339   -0.6340 C   0  0  0  0  0  0  0  0  0  0  0  0
    1.5945   20.0712   -3.6905 C   0  0  0  0  0  0  0  0  0  0  0  0
    1.0731   20.8970   -4.8217 C   0  0  0  0  0  0  0  0  0  0  0  0
    0.0788   20.4947   -5.4907 O   0  0  0  0  0  0  0  0  0  0  0  0
    1.6169   21.9998   -5.0989 O   0  0  0  0  0  0  0  0  0  0  0  0
    2.3538   22.2967   -4.6022 H   0  0  0  0  0  0  0  0  0  0  0  0
   -0.0136   22.9430    4.7506 C   0  0  0  0  0  0  0  0  0  0  0  0
   -0.8311   23.8164    4.9618 O   0  0  0  0  0  0  0  0  0  0  0  0
    0.1129   21.8582    5.7632 C   0  0  0  0  0  0  0  0  0  0  0  0
   -0.9401   20.9803    6.0030 C   0  0  0  0  0  0  0  0  0  0  0  0
   -2.4198   21.0995    5.1075 Cl  0  0  0  0  0  0  0  0  0  0  0  0
   -0.7991   19.9893    6.9639 C   0  0  0  0  0  0  0  0  0  0  0  0
    0.3831   19.8910    7.6814 C   0  0  0  0  0  0  0  0  0  0  0  0
    1.4284   20.7774    7.4503 C   0  0  0  0  0  0  0  0  0  0  0  0
    1.2947   21.7651    6.4924 C   0  0  0  0  0  0  0  0  0  0  0  0
 24 23  2  0  0  0
 22 23  1  0  0  0
 22 19  1  0  0  0
 23 25  1  0  0  0
 20 19  2  0  0  0
 20 21  1  0  0  0
 19 18  1  0  0  0
 21 16  2  0  0  0
 18 17  2  0  0  0
 16 17  1  0  0  0
 16  2  1  0  0  0
  4  3  2  0  0  0
  2  3  1  0  0  0
  2  1  1  0  0  0
  3  5  1  0  0  0
  9 10  1  0  0  0
  1  7  1  0  0  0
  1 15  1  0  0  0
  5  6  1  0  0  0
  5  7  2  0  0  0
  7 27  1  0  0  0
 15 10  2  0  0  0
 15 14  1  0  0  0
 10 11  1  0  0  0
 27 28  2  0  0  0
 27 29  1  0  0  0
 35 29  2  0  0  0
 35 34  1  0  0  0
 29 30  1  0  0  0
 14 13  2  0  0  0
 11 12  2  0  0  0
 34 33  2  0  0  0
 30 31  1  0  0  0
 30 32  2  0  0  0
 13 12  1  0  0  0
 33 32  1  0  0  0
 25 26  1  0  0  0
  6  8  1  0  0  0
M  END
> <minimizedAffinity>
-6.34592

$$$$
4IBC_12G_A_401


 35 38  0  0  0  0  0  0  0  0999 V2000
    2.4043   20.4265    1.3102 C   0  0  0  0  0  0  0  0  0  0  0  0
    3.0082   21.3051    2.1239 N   0  0  0  0  0  0  0  0  0  0  0  0
    4.3261   21.0715    2.1832 C   0  0  0  0  0  0  0  0  0  0  0  0
    5.2435   21.7986    2.9056 O   0  0  0  0  0  0  0  0  0  0  0  0
    4.6079   19.9624    1.3991 C   0  0  0  0  0  0  0  0  0  0  0  0
    5.8414   19.3890    1.2021 O   0  0  0  0  0  0  0  0  0  0  0  0
    3.3878   19.5420    0.8707 C   0  0  0  0  0  0  0  0  0  0  0  0
    6.6002   19.7582    1.6096 H   0  0  0  0  0  0  0  0  0  0  0  0
   -0.6245   19.6730    1.7726 Cl  0  0  0  0  0  0  0  0  0  0  0  0
    0.0086   20.6007    0.4601 C   0  0  0  0  0  0  0  0  0  0  0  0
   -0.8887   21.0614   -0.4946 C   0  0  0  0  0  0  0  0  0  0  0  0
   -0.4381   21.8035   -1.5715 C   0  0  0  0  0  0  0  0  0  0  0  0
    0.9123   22.0905   -1.6973 C   0  0  0  0  0  0  0  0  0  0  0  0
    1.8143   21.6304   -0.7509 C   0  0  0  0  0  0  0  0  0  0  0  0
    1.3681   20.8893    0.3369 C   0  0  0  0  0  0  0  0  0  0  0  0
    2.3289   22.2879    2.9139 C   0  0  0  0  0  0  0  0  0  0  0  0
    1.8389   21.9377    4.1614 C   0  0  0  0  0  0  0  0  0  0  0  0
    1.1781   22.8840    4.9310 C   0  0  0  0  0  0  0  0  0  0  0  0
    1.0142   24.1758    4.4541 C   0  0  0  0  0  0  0  0  0  0  0  0
    1.5013   24.5274    3.2033 C   0  0  0  0  0  0  0  0  0  0  0  0
    2.1621   23.5786    2.4320 C   0  0  0  0  0  0  0  0  0  0  0  0
    0.2939   25.1769    5.2929 C   0  0  0  0  0  0  0  0  0  0  0  0
   -1.1729   25.2853    5.0284 C   0  0  0  0  0  0  0  0  0  0  0  0
   -1.9827   24.5380    5.6480 O   0  0  0  0  0  0  0  0  0  0  0  0
   -1.6020   26.1307    4.1979 O   0  0  0  0  0  0  0  0  0  0  0  0
   -1.0007   26.6840    3.7394 H   0  0  0  0  0  0  0  0  0  0  0  0
    3.0907   18.2412    0.1992 C   0  0  0  0  0  0  0  0  0  0  0  0
    3.7341   17.2617    0.5191 O   0  0  0  0  0  0  0  0  0  0  0  0
    2.0417   18.0662   -0.8434 C   0  0  0  0  0  0  0  0  0  0  0  0
    2.2304   18.5529   -2.1335 C   0  0  0  0  0  0  0  0  0  0  0  0
    3.7054   19.3482   -2.5779 Cl  0  0  0  0  0  0  0  0  0  0  0  0
    1.2287   18.3892   -3.0797 C   0  0  0  0  0  0  0  0  0  0  0  0
    0.0482   17.7531   -2.7276 C   0  0  0  0  0  0  0  0  0  0  0  0
   -0.1439   17.2801   -1.4350 C   0  0  0  0  0  0  0  0  0  0  0  0
    0.8514   17.4380   -0.4888 C   0  0  0  0  0  0  0  0  0  0  0  0
 24 23  2  0  0  0
 22 23  1  0  0  0
 22 19  1  0  0  0
 23 25  1  0  0  0
 20 19  2  0  0  0
 20 21  1  0  0  0
 19 18  1  0  0  0
 21 16  2  0  0  0
 18 17  2  0  0  0
 16 17  1  0  0  0
 16  2  1  0  0  0
  4  3  2  0  0  0
  2  3  1  0  0  0
  2  1  1  0  0  0
  3  5  1  0  0  0
  9 10  1  0  0  0
  1  7  1  0  0  0
  1 15  1  0  0  0
  5  6  1  0  0  0
  5  7  2  0  0  0
  7 27  1  0  0  0
 15 10  2  0  0  0
 15 14  1  0  0  0
 10 11  1  0  0  0
 27 28  2  0  0  0
 27 29  1  0  0  0
 35 29  2  0  0  0
 35 34  1  0  0  0
 29 30  1  0  0  0
 14 13  2  0  0  0
 11 12  2  0  0  0
 34 33  2  0  0  0
 30 31  1  0  0  0
 30 32  2  0  0  0
 13 12  1  0  0  0
 33 32  1  0  0  0
 25 26  1  0  0  0
  6  8  1  0  0  0
M  END
> <minimizedAffinity>
-6.14003

$$$$
4IBC_12G_A_401


 35 38  0  0  0  0  0  0  0  0999 V2000
    1.8358   20.7993    3.9398 C   0  0  0  0  0  0  0  0  0  0  0  0
    1.3705   21.8440    3.2393 N   0  0  0  0  0  0  0  0  0  0  0  0
    0.9712   22.8267    4.0579 C   0  0  0  0  0  0  0  0  0  0  0  0
    0.4640   24.0449    3.6698 O   0  0  0  0  0  0  0  0  0  0  0  0
    1.1463   22.4018    5.3668 C   0  0  0  0  0  0  0  0  0  0  0  0
    0.8470   23.1099    6.5061 O   0  0  0  0  0  0  0  0  0  0  0  0
    1.6677   21.1108    5.2881 C   0  0  0  0  0  0  0  0  0  0  0  0
    0.4982   23.9771    6.4407 H   0  0  0  0  0  0  0  0  0  0  0  0
    1.6683   17.9407    2.6149 Cl  0  0  0  0  0  0  0  0  0  0  0  0
    3.1102   18.8403    2.9247 C   0  0  0  0  0  0  0  0  0  0  0  0
    4.3203   18.2604    2.5669 C   0  0  0  0  0  0  0  0  0  0  0  0
    5.5079   18.9312    2.7973 C   0  0  0  0  0  0  0  0  0  0  0  0
    5.4905   20.1869    3.3845 C   0  0  0  0  0  0  0  0  0  0  0  0
    4.2869   20.7701    3.7483 C   0  0  0  0  0  0  0  0  0  0  0  0
    3.0894   20.1045    3.5144 C   0  0  0  0  0  0  0  0  0  0  0  0
    1.2118   21.8682    1.8161 C   0  0  0  0  0  0  0  0  0  0  0  0
    2.0418   22.6727    1.0527 C   0  0  0  0  0  0  0  0  0  0  0  0
    1.8921   22.7027   -0.3261 C   0  0  0  0  0  0  0  0  0  0  0  0
    0.9186   21.9260   -0.9363 C   0  0  0  0  0  0  0  0  0  0  0  0
    0.0842   21.1222   -0.1729 C   0  0  0  0  0  0  0  0  0  0  0  0
    0.2335   21.0935    1.2086 C   0  0  0  0  0  0  0  0  0  0  0  0
    0.7680   21.9779   -2.4193 C   0  0  0  0  0  0  0  0  0  0  0  0
    1.9942   21.6147   -3.1925 C   0  0  0  0  0  0  0  0  0  0  0  0
    2.6928   20.6225   -2.8382 O   0  0  0  0  0  0  0  0  0  0  0  0
    2.3229   22.2898   -4.2049 O   0  0  0  0  0  0  0  0  0  0  0  0
    1.8042   23.0250   -4.4664 H   0  0  0  0  0  0  0  0  0  0  0  0
    1.7712   20.1062    6.3886 C   0  0  0  0  0  0  0  0  0  0  0  0
    2.1086   20.4858    7.4922 O   0  0  0  0  0  0  0  0  0  0  0  0
    1.4785   18.6559    6.2185 C   0  0  0  0  0  0  0  0  0  0  0  0
    2.5074   17.7190    6.1938 C   0  0  0  0  0  0  0  0  0  0  0  0
    4.1593   18.2056    6.3943 Cl  0  0  0  0  0  0  0  0  0  0  0  0
    2.2056   16.3761    6.0179 C   0  0  0  0  0  0  0  0  0  0  0  0
    0.8855   15.9837    5.8579 C   0  0  0  0  0  0  0  0  0  0  0  0
   -0.1393   16.9224    5.8689 C   0  0  0  0  0  0  0  0  0  0  0  0
    0.1550   18.2614    6.0464 C   0  0  0  0  0  0  0  0  0  0  0  0
 24 23  2  0  0  0
 22 23  1  0  0  0
 22 19  1  0  0  0
 23 25  1  0  0  0
 20 19  2  0  0  0
 20 21  1  0  0  0
 19 18  1  0  0  0
 21 16  2  0  0  0
 18 17  2  0  0  0
 16 17  1  0  0  0
 16  2  1  0  0  0
  4  3  2  0  0  0
  2  3  1  0  0  0
  2  1  1  0  0  0
  3  5  1  0  0  0
  9 10  1  0  0  0
  1  7  1  0  0  0
  1 15  1  0  0  0
  5  6  1  0  0  0
  5  7  2  0  0  0
  7 27  1  0  0  0
 15 10  2  0  0  0
 15 14  1  0  0  0
 10 11  1  0  0  0
 27 28  2  0  0  0
 27 29  1  0  0  0
 35 29  2  0  0  0
 35 34  1  0  0  0
 29 30  1  0  0  0
 14 13  2  0  0  0
 11 12  2  0  0  0
 34 33  2  0  0  0
 30 31  1  0  0  0
 30 32  2  0  0  0
 13 12  1  0  0  0
 33 32  1  0  0  0
 25 26  1  0  0  0
  6  8  1  0  0  0
M  END
> <minimizedAffinity>
-6.09630

$$$$
4IBC_12G_A_401


 35 38  0  0  0  0  0  0  0  0999 V2000
    2.3845   20.3277    2.3268 C   0  0  0  0  0  0  0  0  0  0  0  0
    1.8159   19.7480    1.2595 N   0  0  0  0  0  0  0  0  0  0  0  0
    1.6998   18.4256    1.4409 C   0  0  0  0  0  0  0  0  0  0  0  0
    1.1413   17.5348    0.5540 O   0  0  0  0  0  0  0  0  0  0  0  0
    2.2496   18.1048    2.6734 C   0  0  0  0  0  0  0  0  0  0  0  0
    2.3396   16.8515    3.2304 O   0  0  0  0  0  0  0  0  0  0  0  0
    2.7049   19.3051    3.2182 C   0  0  0  0  0  0  0  0  0  0  0  0
    1.9971   16.1095    2.7721 H   0  0  0  0  0  0  0  0  0  0  0  0
    3.5362   23.0810    1.3032 Cl  0  0  0  0  0  0  0  0  0  0  0  0
    2.2878   22.8693    2.4784 C   0  0  0  0  0  0  0  0  0  0  0  0
    1.7317   24.0114    3.0398 C   0  0  0  0  0  0  0  0  0  0  0  0
    0.7332   23.9031    3.9911 C   0  0  0  0  0  0  0  0  0  0  0  0
    0.2845   22.6515    4.3835 C   0  0  0  0  0  0  0  0  0  0  0  0
    0.8378   21.5072    3.8308 C   0  0  0  0  0  0  0  0  0  0  0  0
    1.8372   21.6084    2.8702 C   0  0  0  0  0  0  0  0  0  0  0  0
    1.4814   20.4256    0.0427 C   0  0  0  0  0  0  0  0  0  0  0  0
    2.4342   20.5396   -0.9563 C   0  0  0  0  0  0  0  0  0  0  0  0
    2.1178   21.1965   -2.1365 C   0  0  0  0  0  0  0  0  0  0  0  0
    0.8510   21.7316   -2.3156 C   0  0  0  0  0  0  0  0  0  0  0  0
   -0.1035   21.6214   -1.3146 C   0  0  0  0  0  0  0  0  0  0  0  0
    0.2144   20.9644   -0.1318 C   0  0  0  0  0  0  0  0  0  0  0  0
    0.5324   22.4412   -3.5883 C   0  0  0  0  0  0  0  0  0  0  0  0
    0.2460   21.5510   -4.7540 C   0  0  0  0  0  0  0  0  0  0  0  0
   -0.6293   20.6442   -4.6554 O   0  0  0  0  0  0  0  0  0  0  0  0
    0.8677   21.7140   -5.8382 O   0  0  0  0  0  0  0  0  0  0  0  0
    1.5162   22.3865   -5.9099 H   0  0  0  0  0  0  0  0  0  0  0  0
    3.6197   19.4814    4.3857 C   0  0  0  0  0  0  0  0  0  0  0  0
    3.1753   19.9748    5.4031 O   0  0  0  0  0  0  0  0  0  0  0  0
    5.0543   19.0815    4.3836 C   0  0  0  0  0  0  0  0  0  0  0  0
    6.0338   19.9426    3.8978 C   0  0  0  0  0  0  0  0  0  0  0  0
    5.6202   21.5207    3.3112 Cl  0  0  0  0  0  0  0  0  0  0  0  0
    7.3606   19.5365    3.8936 C   0  0  0  0  0  0  0  0  0  0  0  0
    7.6947   18.2753    4.3626 C   0  0  0  0  0  0  0  0  0  0  0  0
    6.7134   17.4116    4.8344 C   0  0  0  0  0  0  0  0  0  0  0  0
    5.3902   17.8116    4.8435 C   0  0  0  0  0  0  0  0  0  0  0  0
 24 23  2  0  0  0
 22 23  1  0  0  0
 22 19  1  0  0  0
 23 25  1  0  0  0
 20 19  2  0  0  0
 20 21  1  0  0  0
 19 18  1  0  0  0
 21 16  2  0  0  0
 18 17  2  0  0  0
 16 17  1  0  0  0
 16  2  1  0  0  0
  4  3  2  0  0  0
  2  3  1  0  0  0
  2  1  1  0  0  0
  3  5  1  0  0  0
  9 10  1  0  0  0
  1  7  1  0  0  0
  1 15  1  0  0  0
  5  6  1  0  0  0
  5  7  2  0  0  0
  7 27  1  0  0  0
 15 10  2  0  0  0
 15 14  1  0  0  0
 10 11  1  0  0  0
 27 28  2  0  0  0
 27 29  1  0  0  0
 35 29  2  0  0  0
 35 34  1  0  0  0
 29 30  1  0  0  0
 14 13  2  0  0  0
 11 12  2  0  0  0
 34 33  2  0  0  0
 30 31  1  0  0  0
 30 32  2  0  0  0
 13 12  1  0  0  0
 33 32  1  0  0  0
 25 26  1  0  0  0
  6  8  1  0  0  0
M  END
> <minimizedAffinity>
-6.02969

$$$$
