2GH9_MLR_A_2913
  RCSB PDB12061705413D
Coordinates from PDB:2GH9:A:2913 Model:1 without hydrogens
 34 36  0  0  0  0            999 V2000
   21.9180   19.4720   18.0840   C 0  0  0  0  0  0  0  0  0  0  0  0
   21.2150   18.1540   17.7640   C 0  0  0  0  0  0  0  0  0  0  0  0
   21.2260   17.2600   18.9880   C 0  0  0  0  0  0  0  0  0  0  0  0
   22.6760   17.0360   19.4450   C 0  0  0  0  0  0  0  0  0  0  0  0
   23.3740   18.3710   19.7510   C 0  0  0  0  0  0  0  0  0  0  0  0
   24.8750   18.1690   20.0360   C 0  0  0  0  0  0  0  0  0  0  0  0
   21.1070   20.2000   19.0030   O 0  0  0  0  0  0  0  0  0  0  0  0
   19.8710   18.3910   17.2900   O 0  0  0  0  0  0  0  0  0  0  0  0
   20.5720   16.0050   18.7380   O 0  0  0  0  0  0  0  0  0  0  0  0
   22.6620   16.3380   20.6780   O 0  0  0  0  0  0  0  0  0  0  0  0
   23.2210   19.2480   18.6370   O 0  0  0  0  0  0  0  0  0  0  0  0
   25.5480   19.4220   20.2650   O 0  0  0  0  0  0  0  0  0  0  0  0
   23.3230   15.0620   20.6720   C 0  0  0  0  0  0  0  0  0  0  0  0
   22.3730   14.0280   21.2470   C 0  0  0  0  0  0  0  0  0  0  0  0
   22.1350   14.3280   22.7440   C 0  0  0  0  0  0  0  0  0  0  0  0
   23.4260   14.4860   23.5320   C 0  0  0  0  0  0  0  0  0  0  0  0
   24.3540   15.4740   22.8300   C 0  0  0  0  0  0  0  0  0  0  0  0
   25.7230   15.5230   23.5190   C 0  0  0  0  0  0  0  0  0  0  0  0
   21.1210   14.0860   20.5580   O 0  0  0  0  0  0  0  0  0  0  0  0
   21.3320   13.3200   23.3190   O 0  0  0  0  0  0  0  0  0  0  0  0
   23.1320   14.9410   24.8680   O 0  0  0  0  0  0  0  0  0  0  0  0
   24.5310   15.1080   21.4420   O 0  0  0  0  0  0  0  0  0  0  0  0
   26.3730   16.7840   23.3370   O 0  0  0  0  0  0  0  0  0  0  0  0
   23.4320   13.9780   25.8730   C 0  0  0  0  0  0  0  0  0  0  0  0
   22.2720   14.0270   26.8500   C 0  0  0  0  0  0  0  0  0  0  0  0
   22.2410   15.3660   27.5690   C 0  0  0  0  0  0  0  0  0  0  0  0
   23.6020   15.6270   28.2020   C 0  0  0  0  0  0  0  0  0  0  0  0
   24.7480   15.5290   27.1840   C 0  0  0  0  0  0  0  0  0  0  0  0
   26.1420   15.6580   27.8160   C 0  0  0  0  0  0  0  0  0  0  0  0
   21.0270   13.8050   26.1610   O 0  0  0  0  0  0  0  0  0  0  0  0
   21.2270   15.3560   28.5690   O 0  0  0  0  0  0  0  0  0  0  0  0
   23.5620   16.9230   28.7980   O 0  0  0  0  0  0  0  0  0  0  0  0
   24.6880   14.2620   26.5230   O 0  0  0  0  0  0  0  0  0  0  0  0
   27.0840   16.0240   26.8010   O 0  0  0  0  0  0  0  0  0  0  0  0
  1  2  1  0  0  0  0
  1  7  1  0  0  0  0
  1 11  1  0  0  0  0
  2  3  1  0  0  0  0
  2  8  1  0  0  0  0
  3  4  1  0  0  0  0
  3  9  1  0  0  0  0
  4  5  1  0  0  0  0
  4 10  1  0  0  0  0
  5  6  1  0  0  0  0
  5 11  1  0  0  0  0
  6 12  1  0  0  0  0
 10 13  1  0  0  0  0
 13 14  1  0  0  0  0
 13 22  1  0  0  0  0
 14 15  1  0  0  0  0
 14 19  1  0  0  0  0
 15 16  1  0  0  0  0
 15 20  1  0  0  0  0
 16 17  1  0  0  0  0
 16 21  1  0  0  0  0
 17 18  1  0  0  0  0
 17 22  1  0  0  0  0
 18 23  1  0  0  0  0
 21 24  1  0  0  0  0
 24 25  1  0  0  0  0
 24 33  1  0  0  0  0
 25 26  1  0  0  0  0
 25 30  1  0  0  0  0
 26 27  1  0  0  0  0
 26 31  1  0  0  0  0
 27 28  1  0  0  0  0
 27 32  1  0  0  0  0
 28 29  1  0  0  0  0
 28 33  1  0  0  0  0
 29 34  1  0  0  0  0
A    1
C1A
A    2
C2A
A    3
C3A
A    4
C4A
A    5
C5A
A    6
C6A
A    7
O1X
A    8
O2A
A    9
O3A
A   10
O4A
A   11
O5A
A   12
O6A
A   13
C1B
A   14
C2B
A   15
C3B
A   16
C4B
A   17
C5B
A   18
C6B
A   19
O2B
A   20
O3B
A   21
O4B
A   22
O5B
A   23
O6B
A   24
C1C
A   25
C2C
A   26
C3C
A   27
C4C
A   28
C5C
A   29
C6C
A   30
O2C
A   31
O3C
A   32
O4C
A   33
O5C
A   34
O6C
M  END
>  <InstanceId>
2GH9_MLR_A_2913

>  <ChemCompId>
MLR

>  <PdbId>
2GH9

>  <ChainId>
A

>  <ResidueNumber>
2913

>  <InsertionCode>


>  <Model>
1

>  <AltIds>


>  <MissingHeavyAtoms>
0

>  <ObservedFormula>
C18 O16

>  <Name>
MALTOTRIOSE

>  <SystematicName>
(2S,3R,4R,5S,6R)-5-[(2R,3R,4R,5S,6R)-3,4-dihydroxy-6-(hydroxymethyl)-5-[(2R,3R,4S,5S,6R)-3,4,5-trihydroxy-6-(hydroxymethyl)oxan-2-yl]oxy-oxan-2-yl]oxy-6-(hydroxymethyl)oxane-2,3,4-triol

>  <Synonyms>
AMYLOTRIOSE

>  <Type>
NON-POLYMER

>  <Formula>
C18 H32 O16

>  <MolecularWeight>
504.437

>  <ModifiedDate>
2011-06-04

>  <Parent>


>  <OneLetterCode>


>  <SubcomponentList>


>  <AmbiguousFlag>
N

>  <InChI>
InChI=1S/C18H32O16/c19-1-4-7(22)8(23)12(27)17(31-4)34-15-6(3-21)32-18(13(28)10(15)25)33-14-5(2-20)30-16(29)11(26)9(14)24/h4-29H,1-3H2/t4-,5-,6-,7-,8+,9-,10-,11-,12-,13-,14-,15-,16+,17-,18-/m1/s1

>  <InChIKey>
FYGDTMLNYKFZSV-PXXRMHSHSA-N

>  <SMILES>
C([C@@H]1[C@H]([C@@H]([C@H]([C@H](O1)O[C@@H]2[C@H](O[C@@H]([C@@H]([C@H]2O)O)O[C@@H]3[C@H](O[C@@H]([C@@H]([C@H]3O)O)O)CO)CO)O)O)O)O

$$$$
