4K9Y_K9Y_A_701


 40 44  0  0  0  0  0  0  0  0999 V2000
  -22.6635  -27.2217    2.6813 N   0  0  0  0  0  0  0  0  0  0  0  0
  -23.1482  -28.1610    3.5022 C   0  0  0  0  0  0  0  0  0  0  0  0
  -22.4051  -28.9005    4.1436 O   0  0  0  0  0  0  0  0  0  0  0  0
  -24.5046  -28.2586    3.5531 N   0  0  0  0  0  0  0  0  0  0  0  0
  -23.3085  -26.6409    2.2167 H   0  0  0  0  0  0  0  0  0  0  0  0
  -25.0224  -27.6142    3.0183 H   0  0  0  0  0  0  0  0  0  0  0  0
  -26.5842  -28.9580    4.5375 C   0  0  0  0  0  0  0  0  0  0  0  0
  -25.2240  -29.1924    4.2972 C   0  0  0  0  0  0  0  0  0  0  0  0
  -24.6533  -30.4235    4.6427 C   0  0  0  0  0  0  0  0  0  0  0  0
  -25.4278  -31.3512    5.3203 C   0  0  0  0  0  0  0  0  0  0  0  0
  -26.7821  -31.1200    5.5771 C   0  0  0  0  0  0  0  0  0  0  0  0
  -27.3622  -29.9080    5.2022 C   0  0  0  0  0  0  0  0  0  0  0  0
  -29.0235  -30.8577    9.3843 C   0  0  0  0  0  0  0  0  0  0  0  0
  -28.4144  -30.7740    8.2155 N   0  0  0  0  0  0  0  0  0  0  0  0
  -28.0313  -31.8706    7.5553 C   0  0  0  0  0  0  0  0  0  0  0  0
  -28.2978  -33.1531    8.1006 C   0  0  0  0  0  0  0  0  0  0  0  0
  -28.9542  -33.1956    9.3486 C   0  0  0  0  0  0  0  0  0  0  0  0
  -29.2682  -32.0364    9.9455 N   0  0  0  0  0  0  0  0  0  0  0  0
  -27.8077  -34.0805    7.2347 N   0  0  0  0  0  0  0  0  0  0  0  0
  -27.4163  -32.1008    6.3549 N   0  0  0  0  0  0  0  0  0  0  0  0
  -27.2644  -33.4668    6.2183 C   0  0  0  0  0  0  0  0  0  0  0  0
  -29.1583  -34.3962   10.0043 N   0  0  0  0  0  0  0  0  0  0  0  0
  -28.9261  -35.2445    9.5617 H   0  0  0  0  0  0  0  0  0  0  0  0
  -29.5357  -34.4026   10.9136 H   0  0  0  0  0  0  0  0  0  0  0  0
  -20.7656  -25.8477    1.9863 N   0  0  0  0  0  0  0  0  0  0  0  0
  -21.3092  -27.0106    2.4401 C   0  0  0  0  0  0  0  0  0  0  0  0
  -20.3331  -27.9676    2.4328 C   0  0  0  0  0  0  0  0  0  0  0  0
  -19.1362  -27.3500    2.0783 C   0  0  0  0  0  0  0  0  0  0  0  0
  -19.4113  -26.1009    1.7868 N   0  0  0  0  0  0  0  0  0  0  0  0
  -21.4113  -24.6134    1.7359 C   0  0  0  0  0  0  0  0  0  0  0  0
  -21.1688  -24.0084    0.5031 C   0  0  0  0  0  0  0  0  0  0  0  0
  -21.7562  -22.7919    0.1904 C   0  0  0  0  0  0  0  0  0  0  0  0
  -22.6420  -22.2037    1.0981 C   0  0  0  0  0  0  0  0  0  0  0  0
  -22.9225  -22.8167    2.3281 C   0  0  0  0  0  0  0  0  0  0  0  0
  -22.2757  -24.0081    2.6637 C   0  0  0  0  0  0  0  0  0  0  0  0
  -23.3201  -20.9034    0.7104 C   0  0  0  0  0  0  0  0  0  0  0  0
  -17.7911  -28.0196    1.9052 C   0  0  0  0  0  0  0  0  0  0  0  0
  -17.7972  -28.7943    0.5879 C   0  0  0  0  0  0  0  0  0  0  0  0
  -16.7046  -26.9498    1.7806 C   0  0  0  0  0  0  0  0  0  0  0  0
  -17.4348  -29.0041    3.0213 C   0  0  0  0  0  0  0  0  0  0  0  0
 32 31  2  0  0  0
 32 33  1  0  0  0
 31 30  1  0  0  0
 38 37  1  0  0  0
 36 33  1  0  0  0
 33 34  2  0  0  0
 39 37  1  0  0  0
 30 25  1  0  0  0
 30 35  2  0  0  0
 29 25  1  0  0  0
 29 28  2  0  0  0
 37 28  1  0  0  0
 37 40  1  0  0  0
 25 26  1  0  0  0
 28 27  1  0  0  0
 34 35  1  0  0  0
 27 26  2  0  0  0
 26  1  1  0  0  0
  1  2  1  0  0  0
  2  4  1  0  0  0
  2  3  2  0  0  0
  4  8  1  0  0  0
  8  7  2  0  0  0
  8  9  1  0  0  0
  7 12  1  0  0  0
  9 10  2  0  0  0
 12 11  2  0  0  0
 10 11  1  0  0  0
 11 20  1  0  0  0
 21 20  1  0  0  0
 21 19  2  0  0  0
 20 15  1  0  0  0
 19 16  1  0  0  0
 15 16  2  0  0  0
 15 14  1  0  0  0
 16 17  1  0  0  0
 14 13  2  0  0  0
 13 18  1  0  0  0
 17 18  2  0  0  0
 17 22  1  0  0  0
  1  5  1  0  0  0
  4  6  1  0  0  0
 22 23  1  0  0  0
 22 24  1  0  0  0
M  END
> <minimizedAffinity>
-14.08422

$$$$
