3QTO_10P_H_1001


 30 32  0  0  0  0  0  0  0  0999 V2000
   17.4111  -13.9167   22.3339 C   0  0  0  0  0  0  0  0  0  0  0  0
   16.4360  -13.2715   22.7041 O   0  0  0  0  0  0  0  0  0  0  0  0
   18.2682  -13.4230   21.4462 N   0  0  0  0  0  0  0  0  0  0  0  0
   18.0492  -12.0810   20.8824 C   0  0  0  0  0  0  0  0  0  0  0  0
   19.1727  -11.9238   19.8655 C   0  0  0  0  0  0  0  0  0  0  0  0
   20.2400  -12.9306   20.2788 C   0  0  0  0  0  0  0  0  0  0  0  0
   19.4691  -14.0774   20.9105 C   0  0  0  0  0  0  0  0  0  0  0  0
   16.3858  -16.0264   22.7470 N   0  0  0  0  0  0  0  0  0  0  0  0
   17.6409  -15.3048   22.8814 C   0  0  0  0  0  0  0  0  0  0  0  0
   16.4981  -16.9740   23.1071 H   0  0  0  0  0  0  0  0  0  0  0  0
   16.1200  -16.0659   21.7630 H   0  0  0  0  0  0  0  0  0  0  0  0
   18.0251  -15.2990   24.3653 C   0  0  0  0  0  0  0  0  0  0  0  0
   19.4139  -14.7400   24.5740 C   0  0  0  0  0  0  0  0  0  0  0  0
   19.5820  -13.6267   25.3838 C   0  0  0  0  0  0  0  0  0  0  0  0
   20.5171  -15.3294   23.9595 C   0  0  0  0  0  0  0  0  0  0  0  0
   20.8466  -13.0932   25.5704 C   0  0  0  0  0  0  0  0  0  0  0  0
   21.7862  -14.7987   24.1544 C   0  0  0  0  0  0  0  0  0  0  0  0
   21.9505  -13.6766   24.9578 C   0  0  0  0  0  0  0  0  0  0  0  0
   16.6936  -11.9710   20.2269 C   0  0  0  0  0  0  0  0  0  0  0  0
   16.3528  -12.7339   19.3211 O   0  0  0  0  0  0  0  0  0  0  0  0
   15.8699  -11.0316   20.6905 N   0  0  0  0  0  0  0  0  0  0  0  0
   16.1870  -10.4570   21.4244 H   0  0  0  0  0  0  0  0  0  0  0  0
   14.5117  -10.8043   20.1672 C   0  0  0  0  0  0  0  0  0  0  0  0
   13.4634  -11.1901   21.1939 C   0  0  0  0  0  0  0  0  0  0  0  0
   12.9456  -10.2760   22.1036 C   0  0  0  0  0  0  0  0  0  0  0  0
   11.4856   -9.6600   23.9632 C   0  0  0  0  0  0  0  0  0  0  0  0
   11.5686  -11.9011   23.0631 C   0  0  0  0  0  0  0  0  0  0  0  0
   12.0522  -12.8561   22.1789 C   0  0  0  0  0  0  0  0  0  0  0  0
   13.0139  -12.5065   21.2443 C   0  0  0  0  0  0  0  0  0  0  0  0
   12.0207  -10.6384   23.0038 N   0  0  0  0  0  0  0  0  0  0  0  0
 13 12  1  0  0  0
 13 14  2  0  0  0
 13 15  1  0  0  0
 12  9  1  0  0  0
  9  1  1  0  0  0
  9  8  1  0  0  0
  1  3  1  0  0  0
  1  2  2  0  0  0
 14 16  1  0  0  0
 16 18  2  0  0  0
 18 17  1  0  0  0
 17 15  2  0  0  0
  4 19  1  0  0  0
  4  5  1  0  0  0
  4  3  1  0  0  0
 19 20  2  0  0  0
 19 21  1  0  0  0
 23 24  1  0  0  0
 23 21  1  0  0  0
 24 25  2  0  0  0
 24 29  1  0  0  0
  5  6  1  0  0  0
  6  7  1  0  0  0
  7  3  1  0  0  0
 25 30  1  0  0  0
 26 30  1  0  0  0
 27 28  1  0  0  0
 27 30  2  0  0  0
 28 29  2  0  0  0
  8 10  1  0  0  0
  8 11  1  0  0  0
 21 22  1  0  0  0
M  CHG 1  30   1
M  END
> <minimizedAffinity>
-9.57605

$$$$
3QTO_10P_H_1001


 30 32  0  0  0  0  0  0  0  0999 V2000
   17.4711  -14.0319   22.4294 C   0  0  0  0  0  0  0  0  0  0  0  0
   16.4838  -13.4169   22.8179 O   0  0  0  0  0  0  0  0  0  0  0  0
   18.2539  -13.5457   21.4717 N   0  0  0  0  0  0  0  0  0  0  0  0
   17.9355  -12.2494   20.8513 C   0  0  0  0  0  0  0  0  0  0  0  0
   18.9950  -12.0925   19.7678 C   0  0  0  0  0  0  0  0  0  0  0  0
   20.1339  -13.0204   20.1745 C   0  0  0  0  0  0  0  0  0  0  0  0
   19.4583  -14.1678   20.9063 C   0  0  0  0  0  0  0  0  0  0  0  0
   16.6006  -16.1885   22.9433 N   0  0  0  0  0  0  0  0  0  0  0  0
   17.8019  -15.3746   23.0354 C   0  0  0  0  0  0  0  0  0  0  0  0
   16.7819  -17.1089   23.3438 H   0  0  0  0  0  0  0  0  0  0  0  0
   16.3332  -16.2904   21.9642 H   0  0  0  0  0  0  0  0  0  0  0  0
   18.1923  -15.2757   24.5145 C   0  0  0  0  0  0  0  0  0  0  0  0
   19.5621  -14.6594   24.6840 C   0  0  0  0  0  0  0  0  0  0  0  0
   20.6469  -15.2291   24.0344 C   0  0  0  0  0  0  0  0  0  0  0  0
   19.7408  -13.5336   25.4857 C   0  0  0  0  0  0  0  0  0  0  0  0
   21.9108  -14.6855   24.1941 C   0  0  0  0  0  0  0  0  0  0  0  0
   21.0077  -12.9839   25.6382 C   0  0  0  0  0  0  0  0  0  0  0  0
   22.0947  -13.5632   24.9947 C   0  0  0  0  0  0  0  0  0  0  0  0
   16.5439  -12.2434   20.2657 C   0  0  0  0  0  0  0  0  0  0  0  0
   16.2213  -13.0199   19.3647 O   0  0  0  0  0  0  0  0  0  0  0  0
   15.6704  -11.3819   20.7859 N   0  0  0  0  0  0  0  0  0  0  0  0
   15.9760  -10.7928   21.5131 H   0  0  0  0  0  0  0  0  0  0  0  0
   14.2732  -11.2611   20.3346 C   0  0  0  0  0  0  0  0  0  0  0  0
   13.3641  -10.8682   21.4840 C   0  0  0  0  0  0  0  0  0  0  0  0
   12.4655  -11.7605   22.0562 C   0  0  0  0  0  0  0  0  0  0  0  0
   10.7207  -12.3472   23.6627 C   0  0  0  0  0  0  0  0  0  0  0  0
   11.7082  -10.1440   23.5631 C   0  0  0  0  0  0  0  0  0  0  0  0
   12.5864   -9.2109   23.0285 C   0  0  0  0  0  0  0  0  0  0  0  0
   13.4133   -9.5665   21.9749 C   0  0  0  0  0  0  0  0  0  0  0  0
   11.6700  -11.3922   23.0704 N   0  0  0  0  0  0  0  0  0  0  0  0
 13 12  1  0  0  0
 13 14  2  0  0  0
 13 15  1  0  0  0
 12  9  1  0  0  0
  9  1  1  0  0  0
  9  8  1  0  0  0
  1  3  1  0  0  0
  1  2  2  0  0  0
 14 16  1  0  0  0
 16 18  2  0  0  0
 18 17  1  0  0  0
 17 15  2  0  0  0
  4 19  1  0  0  0
  4  5  1  0  0  0
  4  3  1  0  0  0
 19 20  2  0  0  0
 19 21  1  0  0  0
 23 24  1  0  0  0
 23 21  1  0  0  0
 24 25  2  0  0  0
 24 29  1  0  0  0
  5  6  1  0  0  0
  6  7  1  0  0  0
  7  3  1  0  0  0
 25 30  1  0  0  0
 26 30  1  0  0  0
 27 28  1  0  0  0
 27 30  2  0  0  0
 28 29  2  0  0  0
  8 10  1  0  0  0
  8 11  1  0  0  0
 21 22  1  0  0  0
M  CHG 1  30   1
M  END
> <minimizedAffinity>
-8.82726

$$$$
3QTO_10P_H_1001


 30 32  0  0  0  0  0  0  0  0999 V2000
   17.3832  -13.7892   22.3282 C   0  0  0  0  0  0  0  0  0  0  0  0
   16.4167  -13.1127   22.6632 O   0  0  0  0  0  0  0  0  0  0  0  0
   18.2217  -13.3742   21.3842 N   0  0  0  0  0  0  0  0  0  0  0  0
   17.9917  -12.0838   20.7142 C   0  0  0  0  0  0  0  0  0  0  0  0
   19.0935  -12.0155   19.6642 C   0  0  0  0  0  0  0  0  0  0  0  0
   20.1686  -12.9865   20.1383 C   0  0  0  0  0  0  0  0  0  0  0  0
   19.4105  -14.0742   20.8803 C   0  0  0  0  0  0  0  0  0  0  0  0
   16.4192  -15.9176   22.7900 N   0  0  0  0  0  0  0  0  0  0  0  0
   17.6236  -15.1270   22.9856 C   0  0  0  0  0  0  0  0  0  0  0  0
   16.5402  -16.8339   23.2214 H   0  0  0  0  0  0  0  0  0  0  0  0
   16.2461  -16.0321   21.7913 H   0  0  0  0  0  0  0  0  0  0  0  0
   17.8705  -15.0086   24.4938 C   0  0  0  0  0  0  0  0  0  0  0  0
   18.6798  -16.1745   25.0140 C   0  0  0  0  0  0  0  0  0  0  0  0
   18.0272  -17.2311   25.6313 C   0  0  0  0  0  0  0  0  0  0  0  0
   20.0670  -16.1922   24.8817 C   0  0  0  0  0  0  0  0  0  0  0  0
   18.7573  -18.2982   26.1281 C   0  0  0  0  0  0  0  0  0  0  0  0
   20.7976  -17.2672   25.3726 C   0  0  0  0  0  0  0  0  0  0  0  0
   20.1421  -18.3196   26.0003 C   0  0  0  0  0  0  0  0  0  0  0  0
   16.6227  -12.0259   20.0805 C   0  0  0  0  0  0  0  0  0  0  0  0
   16.2610  -12.8631   19.2516 O   0  0  0  0  0  0  0  0  0  0  0  0
   15.8108  -11.0468   20.4783 N   0  0  0  0  0  0  0  0  0  0  0  0
   16.1446  -10.4120   21.1527 H   0  0  0  0  0  0  0  0  0  0  0  0
   14.4421  -10.8606   19.9661 C   0  0  0  0  0  0  0  0  0  0  0  0
   13.4149  -11.1706   21.0388 C   0  0  0  0  0  0  0  0  0  0  0  0
   13.0035  -10.2217   21.9670 C   0  0  0  0  0  0  0  0  0  0  0  0
   11.6735   -9.5028   23.8862 C   0  0  0  0  0  0  0  0  0  0  0  0
   11.5578  -11.7444   22.9911 C   0  0  0  0  0  0  0  0  0  0  0  0
   11.9333  -12.7317   22.0900 C   0  0  0  0  0  0  0  0  0  0  0  0
   12.8757  -12.4518   21.1133 C   0  0  0  0  0  0  0  0  0  0  0  0
   12.0954  -10.5171   22.9079 N   0  0  0  0  0  0  0  0  0  0  0  0
 13 12  1  0  0  0
 13 14  2  0  0  0
 13 15  1  0  0  0
 12  9  1  0  0  0
  9  1  1  0  0  0
  9  8  1  0  0  0
  1  3  1  0  0  0
  1  2  2  0  0  0
 14 16  1  0  0  0
 16 18  2  0  0  0
 18 17  1  0  0  0
 17 15  2  0  0  0
  4 19  1  0  0  0
  4  5  1  0  0  0
  4  3  1  0  0  0
 19 20  2  0  0  0
 19 21  1  0  0  0
 23 24  1  0  0  0
 23 21  1  0  0  0
 24 25  2  0  0  0
 24 29  1  0  0  0
  5  6  1  0  0  0
  6  7  1  0  0  0
  7  3  1  0  0  0
 25 30  1  0  0  0
 26 30  1  0  0  0
 27 28  1  0  0  0
 27 30  2  0  0  0
 28 29  2  0  0  0
  8 10  1  0  0  0
  8 11  1  0  0  0
 21 22  1  0  0  0
M  CHG 1  30   1
M  END
> <minimizedAffinity>
-8.38821

$$$$
3QTO_10P_H_1001


 30 32  0  0  0  0  0  0  0  0999 V2000
   16.3384  -13.5669   20.0893 C   0  0  0  0  0  0  0  0  0  0  0  0
   15.9630  -14.6914   20.4031 O   0  0  0  0  0  0  0  0  0  0  0  0
   17.6302  -13.2566   20.0511 N   0  0  0  0  0  0  0  0  0  0  0  0
   18.6390  -14.2708   20.3984 C   0  0  0  0  0  0  0  0  0  0  0  0
   19.9596  -13.5153   20.3184 C   0  0  0  0  0  0  0  0  0  0  0  0
   19.6811  -12.3002   19.4413 C   0  0  0  0  0  0  0  0  0  0  0  0
   18.2232  -11.9596   19.6999 C   0  0  0  0  0  0  0  0  0  0  0  0
   15.7061  -11.9370   18.4718 N   0  0  0  0  0  0  0  0  0  0  0  0
   15.3192  -12.5049   19.7531 C   0  0  0  0  0  0  0  0  0  0  0  0
   15.0400  -11.2115   18.2065 H   0  0  0  0  0  0  0  0  0  0  0  0
   15.7110  -12.6700   17.7626 H   0  0  0  0  0  0  0  0  0  0  0  0
   15.2873  -11.3693   20.7822 C   0  0  0  0  0  0  0  0  0  0  0  0
   13.9585  -11.3121   21.5005 C   0  0  0  0  0  0  0  0  0  0  0  0
   13.4390  -10.0798   21.8679 C   0  0  0  0  0  0  0  0  0  0  0  0
   13.2598  -12.4809   21.7968 C   0  0  0  0  0  0  0  0  0  0  0  0
   12.2307  -10.0131   22.5417 C   0  0  0  0  0  0  0  0  0  0  0  0
   12.0436  -12.4122   22.4650 C   0  0  0  0  0  0  0  0  0  0  0  0
   11.5304  -11.1767   22.8414 C   0  0  0  0  0  0  0  0  0  0  0  0
   18.4075  -14.8304   21.7814 C   0  0  0  0  0  0  0  0  0  0  0  0
   18.3391  -16.0445   21.9814 O   0  0  0  0  0  0  0  0  0  0  0  0
   18.3098  -13.9551   22.7815 N   0  0  0  0  0  0  0  0  0  0  0  0
   18.3845  -12.9968   22.5689 H   0  0  0  0  0  0  0  0  0  0  0  0
   18.0964  -14.3404   24.1873 C   0  0  0  0  0  0  0  0  0  0  0  0
   19.4182  -14.4678   24.9212 C   0  0  0  0  0  0  0  0  0  0  0  0
   20.0595  -15.6897   25.0858 C   0  0  0  0  0  0  0  0  0  0  0  0
   21.8908  -17.0817   25.9090 C   0  0  0  0  0  0  0  0  0  0  0  0
   21.8124  -14.6929   26.2653 C   0  0  0  0  0  0  0  0  0  0  0  0
   21.2152  -13.4466   26.1317 C   0  0  0  0  0  0  0  0  0  0  0  0
   20.0051  -13.3295   25.4666 C   0  0  0  0  0  0  0  0  0  0  0  0
   21.2265  -15.7802   25.7392 N   0  0  0  0  0  0  0  0  0  0  0  0
 13 12  1  0  0  0
 13 14  2  0  0  0
 13 15  1  0  0  0
 12  9  1  0  0  0
  9  1  1  0  0  0
  9  8  1  0  0  0
  1  3  1  0  0  0
  1  2  2  0  0  0
 14 16  1  0  0  0
 16 18  2  0  0  0
 18 17  1  0  0  0
 17 15  2  0  0  0
  4 19  1  0  0  0
  4  5  1  0  0  0
  4  3  1  0  0  0
 19 20  2  0  0  0
 19 21  1  0  0  0
 23 24  1  0  0  0
 23 21  1  0  0  0
 24 25  2  0  0  0
 24 29  1  0  0  0
  5  6  1  0  0  0
  6  7  1  0  0  0
  7  3  1  0  0  0
 25 30  1  0  0  0
 26 30  1  0  0  0
 27 28  1  0  0  0
 27 30  2  0  0  0
 28 29  2  0  0  0
  8 10  1  0  0  0
  8 11  1  0  0  0
 21 22  1  0  0  0
M  CHG 1  30   1
M  END
> <minimizedAffinity>
-7.56492

$$$$
3QTO_10P_H_1001


 30 32  0  0  0  0  0  0  0  0999 V2000
   17.2654  -13.9897   22.2383 C   0  0  0  0  0  0  0  0  0  0  0  0
   16.3003  -13.3309   22.6106 O   0  0  0  0  0  0  0  0  0  0  0  0
   18.1767  -13.4756   21.4187 N   0  0  0  0  0  0  0  0  0  0  0  0
   18.0314  -12.0931   20.9346 C   0  0  0  0  0  0  0  0  0  0  0  0
   19.2016  -11.9169   19.9750 C   0  0  0  0  0  0  0  0  0  0  0  0
   20.2125  -12.9892   20.3642 C   0  0  0  0  0  0  0  0  0  0  0  0
   19.3738  -14.1420   20.8896 C   0  0  0  0  0  0  0  0  0  0  0  0
   18.6815  -15.4941   23.4233 N   0  0  0  0  0  0  0  0  0  0  0  0
   17.4204  -15.4176   22.7036 C   0  0  0  0  0  0  0  0  0  0  0  0
   18.8255  -16.4473   23.7565 H   0  0  0  0  0  0  0  0  0  0  0  0
   18.6583  -14.8558   24.2186 H   0  0  0  0  0  0  0  0  0  0  0  0
   17.4795  -16.4151   21.5412 C   0  0  0  0  0  0  0  0  0  0  0  0
   16.3839  -17.4512   21.6464 C   0  0  0  0  0  0  0  0  0  0  0  0
   16.6656  -18.7707   21.3259 C   0  0  0  0  0  0  0  0  0  0  0  0
   15.1017  -17.0907   22.0567 C   0  0  0  0  0  0  0  0  0  0  0  0
   15.6673  -19.7279   21.4012 C   0  0  0  0  0  0  0  0  0  0  0  0
   14.1033  -18.0533   22.1403 C   0  0  0  0  0  0  0  0  0  0  0  0
   14.3856  -19.3729   21.8082 C   0  0  0  0  0  0  0  0  0  0  0  0
   16.7095  -11.8882   20.2346 C   0  0  0  0  0  0  0  0  0  0  0  0
   16.4232  -12.5045   19.2065 O   0  0  0  0  0  0  0  0  0  0  0  0
   15.8531  -11.0336   20.7933 N   0  0  0  0  0  0  0  0  0  0  0  0
   16.1264  -10.5771   21.6216 H   0  0  0  0  0  0  0  0  0  0  0  0
   14.5206  -10.7331   20.2415 C   0  0  0  0  0  0  0  0  0  0  0  0
   13.4294  -11.0973   21.2308 C   0  0  0  0  0  0  0  0  0  0  0  0
   12.9661  -10.2007   22.1861 C   0  0  0  0  0  0  0  0  0  0  0  0
   11.5252   -9.5846   24.0605 C   0  0  0  0  0  0  0  0  0  0  0  0
   11.4559  -11.7699   23.0313 C   0  0  0  0  0  0  0  0  0  0  0  0
   11.8816  -12.7061   22.0986 C   0  0  0  0  0  0  0  0  0  0  0  0
   12.8822  -12.3768   21.1981 C   0  0  0  0  0  0  0  0  0  0  0  0
   12.0018  -10.5436   23.0520 N   0  0  0  0  0  0  0  0  0  0  0  0
 13 12  1  0  0  0
 13 14  2  0  0  0
 13 15  1  0  0  0
 12  9  1  0  0  0
  9  1  1  0  0  0
  9  8  1  0  0  0
  1  3  1  0  0  0
  1  2  2  0  0  0
 14 16  1  0  0  0
 16 18  2  0  0  0
 18 17  1  0  0  0
 17 15  2  0  0  0
  4 19  1  0  0  0
  4  5  1  0  0  0
  4  3  1  0  0  0
 19 20  2  0  0  0
 19 21  1  0  0  0
 23 24  1  0  0  0
 23 21  1  0  0  0
 24 25  2  0  0  0
 24 29  1  0  0  0
  5  6  1  0  0  0
  6  7  1  0  0  0
  7  3  1  0  0  0
 25 30  1  0  0  0
 26 30  1  0  0  0
 27 28  1  0  0  0
 27 30  2  0  0  0
 28 29  2  0  0  0
  8 10  1  0  0  0
  8 11  1  0  0  0
 21 22  1  0  0  0
M  CHG 1  30   1
M  END
> <minimizedAffinity>
-7.16151

$$$$
3QTO_10P_H_1001


 30 32  0  0  0  0  0  0  0  0999 V2000
   16.3818  -13.5529   20.1576 C   0  0  0  0  0  0  0  0  0  0  0  0
   15.9322  -14.6454   20.4868 O   0  0  0  0  0  0  0  0  0  0  0  0
   17.6780  -13.2797   20.2652 N   0  0  0  0  0  0  0  0  0  0  0  0
   18.6005  -14.2963   20.7965 C   0  0  0  0  0  0  0  0  0  0  0  0
   19.9456  -13.5822   20.8403 C   0  0  0  0  0  0  0  0  0  0  0  0
   19.8203  -12.4175   19.8651 C   0  0  0  0  0  0  0  0  0  0  0  0
   18.3540  -12.0232   19.9164 C   0  0  0  0  0  0  0  0  0  0  0  0
   16.0041  -12.0222   18.3724 N   0  0  0  0  0  0  0  0  0  0  0  0
   15.4492  -12.4877   19.6331 C   0  0  0  0  0  0  0  0  0  0  0  0
   15.4012  -11.2978   17.9823 H   0  0  0  0  0  0  0  0  0  0  0  0
   16.0645  -12.8028   17.7186 H   0  0  0  0  0  0  0  0  0  0  0  0
   15.3396  -11.2825   20.5739 C   0  0  0  0  0  0  0  0  0  0  0  0
   14.0329  -11.2920   21.3337 C   0  0  0  0  0  0  0  0  0  0  0  0
   13.3883  -12.4991   21.5588 C   0  0  0  0  0  0  0  0  0  0  0  0
   13.4745  -10.1042   21.8022 C   0  0  0  0  0  0  0  0  0  0  0  0
   12.1817  -12.5213   22.2385 C   0  0  0  0  0  0  0  0  0  0  0  0
   12.2684  -10.1286   22.4916 C   0  0  0  0  0  0  0  0  0  0  0  0
   11.6193  -11.3385   22.7064 C   0  0  0  0  0  0  0  0  0  0  0  0
   18.1792  -14.7619   22.1695 C   0  0  0  0  0  0  0  0  0  0  0  0
   18.0776  -13.9755   23.1129 O   0  0  0  0  0  0  0  0  0  0  0  0
   17.8931  -16.0559   22.3101 N   0  0  0  0  0  0  0  0  0  0  0  0
   17.9781  -16.6386   21.5212 H   0  0  0  0  0  0  0  0  0  0  0  0
   17.4567  -16.6636   23.5791 C   0  0  0  0  0  0  0  0  0  0  0  0
   16.3001  -17.6192   23.3532 C   0  0  0  0  0  0  0  0  0  0  0  0
   15.7041  -17.7798   22.1081 C   0  0  0  0  0  0  0  0  0  0  0  0
   14.0585  -18.7843   20.6073 C   0  0  0  0  0  0  0  0  0  0  0  0
   14.1925  -19.3477   22.9534 C   0  0  0  0  0  0  0  0  0  0  0  0
   14.7493  -19.2260   24.2194 C   0  0  0  0  0  0  0  0  0  0  0  0
   15.8020  -18.3494   24.4286 C   0  0  0  0  0  0  0  0  0  0  0  0
   14.6819  -18.6288   21.9306 N   0  0  0  0  0  0  0  0  0  0  0  0
 13 12  1  0  0  0
 13 14  2  0  0  0
 13 15  1  0  0  0
 12  9  1  0  0  0
  9  1  1  0  0  0
  9  8  1  0  0  0
  1  3  1  0  0  0
  1  2  2  0  0  0
 14 16  1  0  0  0
 16 18  2  0  0  0
 18 17  1  0  0  0
 17 15  2  0  0  0
  4 19  1  0  0  0
  4  5  1  0  0  0
  4  3  1  0  0  0
 19 20  2  0  0  0
 19 21  1  0  0  0
 23 24  1  0  0  0
 23 21  1  0  0  0
 24 25  2  0  0  0
 24 29  1  0  0  0
  5  6  1  0  0  0
  6  7  1  0  0  0
  7  3  1  0  0  0
 25 30  1  0  0  0
 26 30  1  0  0  0
 27 28  1  0  0  0
 27 30  2  0  0  0
 28 29  2  0  0  0
  8 10  1  0  0  0
  8 11  1  0  0  0
 21 22  1  0  0  0
M  CHG 1  30   1
M  END
> <minimizedAffinity>
-7.10136

$$$$
3QTO_10P_H_1001


 30 32  0  0  0  0  0  0  0  0999 V2000
   16.9997  -14.4851   21.1389 C   0  0  0  0  0  0  0  0  0  0  0  0
   17.2199  -15.6864   21.0276 O   0  0  0  0  0  0  0  0  0  0  0  0
   17.9377  -13.5837   20.8665 N   0  0  0  0  0  0  0  0  0  0  0  0
   19.2731  -14.0232   20.4305 C   0  0  0  0  0  0  0  0  0  0  0  0
   20.0628  -12.7262   20.3073 C   0  0  0  0  0  0  0  0  0  0  0  0
   19.0181  -11.6251   20.1669 C   0  0  0  0  0  0  0  0  0  0  0  0
   17.8200  -12.1225   20.9578 C   0  0  0  0  0  0  0  0  0  0  0  0
   14.8466  -15.2026   21.8615 N   0  0  0  0  0  0  0  0  0  0  0  0
   15.6443  -14.0137   21.6082 C   0  0  0  0  0  0  0  0  0  0  0  0
   13.9183  -14.9273   22.1822 H   0  0  0  0  0  0  0  0  0  0  0  0
   15.2996  -15.7696   22.5782 H   0  0  0  0  0  0  0  0  0  0  0  0
   14.9144  -13.1713   20.5559 C   0  0  0  0  0  0  0  0  0  0  0  0
   13.9548  -12.1958   21.1980 C   0  0  0  0  0  0  0  0  0  0  0  0
   12.7482  -12.6616   21.6986 C   0  0  0  0  0  0  0  0  0  0  0  0
   14.2709  -10.8413   21.2858 C   0  0  0  0  0  0  0  0  0  0  0  0
   11.8517  -11.7765   22.2742 C   0  0  0  0  0  0  0  0  0  0  0  0
   13.3745   -9.9558   21.8713 C   0  0  0  0  0  0  0  0  0  0  0  0
   12.1616  -10.4236   22.3626 C   0  0  0  0  0  0  0  0  0  0  0  0
   19.9029  -14.9583   21.4346 C   0  0  0  0  0  0  0  0  0  0  0  0
   20.4140  -16.0249   21.0886 O   0  0  0  0  0  0  0  0  0  0  0  0
   19.9087  -14.5662   22.7083 N   0  0  0  0  0  0  0  0  0  0  0  0
   19.4985  -13.6989   22.9291 H   0  0  0  0  0  0  0  0  0  0  0  0
   20.4942  -15.3572   23.8046 C   0  0  0  0  0  0  0  0  0  0  0  0
   22.0062  -15.2321   23.8161 C   0  0  0  0  0  0  0  0  0  0  0  0
   22.8401  -16.3371   23.9379 C   0  0  0  0  0  0  0  0  0  0  0  0
   25.0434  -17.3831   24.0816 C   0  0  0  0  0  0  0  0  0  0  0  0
   24.7507  -14.9958   23.8478 C   0  0  0  0  0  0  0  0  0  0  0  0
   23.9655  -13.8574   23.7249 C   0  0  0  0  0  0  0  0  0  0  0  0
   22.5843  -13.9694   23.7201 C   0  0  0  0  0  0  0  0  0  0  0  0
   24.1740  -16.2040   23.9473 N   0  0  0  0  0  0  0  0  0  0  0  0
 13 12  1  0  0  0
 13 14  2  0  0  0
 13 15  1  0  0  0
 12  9  1  0  0  0
  9  1  1  0  0  0
  9  8  1  0  0  0
  1  3  1  0  0  0
  1  2  2  0  0  0
 14 16  1  0  0  0
 16 18  2  0  0  0
 18 17  1  0  0  0
 17 15  2  0  0  0
  4 19  1  0  0  0
  4  5  1  0  0  0
  4  3  1  0  0  0
 19 20  2  0  0  0
 19 21  1  0  0  0
 23 24  1  0  0  0
 23 21  1  0  0  0
 24 25  2  0  0  0
 24 29  1  0  0  0
  5  6  1  0  0  0
  6  7  1  0  0  0
  7  3  1  0  0  0
 25 30  1  0  0  0
 26 30  1  0  0  0
 27 28  1  0  0  0
 27 30  2  0  0  0
 28 29  2  0  0  0
  8 10  1  0  0  0
  8 11  1  0  0  0
 21 22  1  0  0  0
M  CHG 1  30   1
M  END
> <minimizedAffinity>
-6.84776

$$$$
3QTO_10P_H_1001


 30 32  0  0  0  0  0  0  0  0999 V2000
   17.0854  -14.5123   21.1124 C   0  0  0  0  0  0  0  0  0  0  0  0
   17.2830  -15.7139   20.9669 O   0  0  0  0  0  0  0  0  0  0  0  0
   18.0481  -13.6232   20.8909 N   0  0  0  0  0  0  0  0  0  0  0  0
   19.3839  -14.0773   20.4712 C   0  0  0  0  0  0  0  0  0  0  0  0
   20.2032  -12.7944   20.4084 C   0  0  0  0  0  0  0  0  0  0  0  0
   19.1854  -11.6670   20.2803 C   0  0  0  0  0  0  0  0  0  0  0  0
   17.9589  -12.1635   21.0271 C   0  0  0  0  0  0  0  0  0  0  0  0
   14.9407  -15.2071   21.8809 N   0  0  0  0  0  0  0  0  0  0  0  0
   15.7295  -14.0270   21.5659 C   0  0  0  0  0  0  0  0  0  0  0  0
   14.0124  -14.9222   22.1930 H   0  0  0  0  0  0  0  0  0  0  0  0
   15.4011  -15.7360   22.6217 H   0  0  0  0  0  0  0  0  0  0  0  0
   14.9887  -13.2411   20.4781 C   0  0  0  0  0  0  0  0  0  0  0  0
   14.0670  -12.2035   21.0772 C   0  0  0  0  0  0  0  0  0  0  0  0
   12.8419  -12.6010   21.5913 C   0  0  0  0  0  0  0  0  0  0  0  0
   14.4364  -10.8602   21.1124 C   0  0  0  0  0  0  0  0  0  0  0  0
   11.9798  -11.6590   22.1278 C   0  0  0  0  0  0  0  0  0  0  0  0
   13.5745   -9.9173   21.6588 C   0  0  0  0  0  0  0  0  0  0  0  0
   12.3428  -10.3169   22.1635 C   0  0  0  0  0  0  0  0  0  0  0  0
   19.9703  -15.0576   21.4584 C   0  0  0  0  0  0  0  0  0  0  0  0
   20.5055  -16.1035   21.0864 O   0  0  0  0  0  0  0  0  0  0  0  0
   19.9107  -14.7286   22.7484 N   0  0  0  0  0  0  0  0  0  0  0  0
   19.4839  -13.8752   22.9908 H   0  0  0  0  0  0  0  0  0  0  0  0
   20.4473  -15.5697   23.8324 C   0  0  0  0  0  0  0  0  0  0  0  0
   19.3920  -16.5316   24.3454 C   0  0  0  0  0  0  0  0  0  0  0  0
   19.7023  -17.8239   24.7516 C   0  0  0  0  0  0  0  0  0  0  0  0
   19.0976  -20.0250   25.6226 C   0  0  0  0  0  0  0  0  0  0  0  0
   17.4685  -18.2764   25.2646 C   0  0  0  0  0  0  0  0  0  0  0  0
   17.1018  -16.9967   24.8704 C   0  0  0  0  0  0  0  0  0  0  0  0
   18.0636  -16.1188   24.3963 C   0  0  0  0  0  0  0  0  0  0  0  0
   18.7539  -18.6584   25.2004 N   0  0  0  0  0  0  0  0  0  0  0  0
 13 12  1  0  0  0
 13 14  2  0  0  0
 13 15  1  0  0  0
 12  9  1  0  0  0
  9  1  1  0  0  0
  9  8  1  0  0  0
  1  3  1  0  0  0
  1  2  2  0  0  0
 14 16  1  0  0  0
 16 18  2  0  0  0
 18 17  1  0  0  0
 17 15  2  0  0  0
  4 19  1  0  0  0
  4  5  1  0  0  0
  4  3  1  0  0  0
 19 20  2  0  0  0
 19 21  1  0  0  0
 23 24  1  0  0  0
 23 21  1  0  0  0
 24 25  2  0  0  0
 24 29  1  0  0  0
  5  6  1  0  0  0
  6  7  1  0  0  0
  7  3  1  0  0  0
 25 30  1  0  0  0
 26 30  1  0  0  0
 27 28  1  0  0  0
 27 30  2  0  0  0
 28 29  2  0  0  0
  8 10  1  0  0  0
  8 11  1  0  0  0
 21 22  1  0  0  0
M  CHG 1  30   1
M  END
> <minimizedAffinity>
-6.80647

$$$$
3QTO_10P_H_1001


 30 32  0  0  0  0  0  0  0  0999 V2000
   16.4378  -13.8391   20.4107 C   0  0  0  0  0  0  0  0  0  0  0  0
   15.9658  -14.8849   20.8439 O   0  0  0  0  0  0  0  0  0  0  0  0
   17.7305  -13.5594   20.5418 N   0  0  0  0  0  0  0  0  0  0  0  0
   18.6214  -14.5109   21.2258 C   0  0  0  0  0  0  0  0  0  0  0  0
   19.9692  -13.8008   21.2449 C   0  0  0  0  0  0  0  0  0  0  0  0
   19.8947  -12.7559   20.1376 C   0  0  0  0  0  0  0  0  0  0  0  0
   18.4307  -12.3537   20.0801 C   0  0  0  0  0  0  0  0  0  0  0  0
   16.0940  -12.6004   18.4058 N   0  0  0  0  0  0  0  0  0  0  0  0
   15.5369  -12.8386   19.7275 C   0  0  0  0  0  0  0  0  0  0  0  0
   15.5122  -11.9264   17.9080 H   0  0  0  0  0  0  0  0  0  0  0  0
   16.1204  -13.4769   17.8849 H   0  0  0  0  0  0  0  0  0  0  0  0
   15.4791  -11.4956   20.4641 C   0  0  0  0  0  0  0  0  0  0  0  0
   14.1792  -11.3351   21.2187 C   0  0  0  0  0  0  0  0  0  0  0  0
   13.4380  -12.4624   21.5397 C   0  0  0  0  0  0  0  0  0  0  0  0
   13.7227  -10.0710   21.5874 C   0  0  0  0  0  0  0  0  0  0  0  0
   12.2365  -12.3294   22.2159 C   0  0  0  0  0  0  0  0  0  0  0  0
   12.5216   -9.9395   22.2733 C   0  0  0  0  0  0  0  0  0  0  0  0
   11.7757  -11.0700   22.5844 C   0  0  0  0  0  0  0  0  0  0  0  0
   18.1385  -14.8136   22.6239 C   0  0  0  0  0  0  0  0  0  0  0  0
   17.9346  -13.9158   23.4431 O   0  0  0  0  0  0  0  0  0  0  0  0
   17.9138  -16.0923   22.9246 N   0  0  0  0  0  0  0  0  0  0  0  0
   18.0804  -16.7691   22.2293 H   0  0  0  0  0  0  0  0  0  0  0  0
   17.4303  -16.5505   24.2386 C   0  0  0  0  0  0  0  0  0  0  0  0
   18.5564  -17.1699   25.0450 C   0  0  0  0  0  0  0  0  0  0  0  0
   19.8835  -16.7947   24.8739 C   0  0  0  0  0  0  0  0  0  0  0  0
   22.2642  -16.9513   25.4000 C   0  0  0  0  0  0  0  0  0  0  0  0
   20.5970  -18.3076   26.5046 C   0  0  0  0  0  0  0  0  0  0  0  0
   19.2888  -18.7217   26.7161 C   0  0  0  0  0  0  0  0  0  0  0  0
   18.2598  -18.1610   25.9763 C   0  0  0  0  0  0  0  0  0  0  0  0
   20.8636  -17.3560   25.5960 N   0  0  0  0  0  0  0  0  0  0  0  0
 13 12  1  0  0  0
 13 14  2  0  0  0
 13 15  1  0  0  0
 12  9  1  0  0  0
  9  1  1  0  0  0
  9  8  1  0  0  0
  1  3  1  0  0  0
  1  2  2  0  0  0
 14 16  1  0  0  0
 16 18  2  0  0  0
 18 17  1  0  0  0
 17 15  2  0  0  0
  4 19  1  0  0  0
  4  5  1  0  0  0
  4  3  1  0  0  0
 19 20  2  0  0  0
 19 21  1  0  0  0
 23 24  1  0  0  0
 23 21  1  0  0  0
 24 25  2  0  0  0
 24 29  1  0  0  0
  5  6  1  0  0  0
  6  7  1  0  0  0
  7  3  1  0  0  0
 25 30  1  0  0  0
 26 30  1  0  0  0
 27 28  1  0  0  0
 27 30  2  0  0  0
 28 29  2  0  0  0
  8 10  1  0  0  0
  8 11  1  0  0  0
 21 22  1  0  0  0
M  CHG 1  30   1
M  END
> <minimizedAffinity>
-6.75329

$$$$
3QTO_10P_H_1001


 30 32  0  0  0  0  0  0  0  0999 V2000
   20.0873  -16.2665   24.3137 C   0  0  0  0  0  0  0  0  0  0  0  0
   19.2221  -16.2587   23.4445 O   0  0  0  0  0  0  0  0  0  0  0  0
   20.4926  -15.1413   24.8934 N   0  0  0  0  0  0  0  0  0  0  0  0
   19.9059  -13.8539   24.4871 C   0  0  0  0  0  0  0  0  0  0  0  0
   20.6796  -12.8258   25.3030 C   0  0  0  0  0  0  0  0  0  0  0  0
   21.2700  -13.5982   26.4769 C   0  0  0  0  0  0  0  0  0  0  0  0
   21.5149  -14.9975   25.9381 C   0  0  0  0  0  0  0  0  0  0  0  0
   20.9798  -18.3230   23.5095 N   0  0  0  0  0  0  0  0  0  0  0  0
   20.7194  -17.5735   24.7279 C   0  0  0  0  0  0  0  0  0  0  0  0
   21.4091  -19.2176   23.7458 H   0  0  0  0  0  0  0  0  0  0  0  0
   21.6111  -17.7904   22.9111 H   0  0  0  0  0  0  0  0  0  0  0  0
   19.7996  -18.4201   25.6150 C   0  0  0  0  0  0  0  0  0  0  0  0
   20.4368  -18.7081   26.9551 C   0  0  0  0  0  0  0  0  0  0  0  0
   19.6830  -19.3165   27.9475 C   0  0  0  0  0  0  0  0  0  0  0  0
   21.7654  -18.3651   27.1988 C   0  0  0  0  0  0  0  0  0  0  0  0
   20.2486  -19.5709   29.1861 C   0  0  0  0  0  0  0  0  0  0  0  0
   22.3343  -18.6287   28.4387 C   0  0  0  0  0  0  0  0  0  0  0  0
   21.5735  -19.2288   29.4349 C   0  0  0  0  0  0  0  0  0  0  0  0
   20.0676  -13.6156   23.0051 C   0  0  0  0  0  0  0  0  0  0  0  0
   21.1753  -13.6437   22.4656 O   0  0  0  0  0  0  0  0  0  0  0  0
   18.9569  -13.4027   22.3000 N   0  0  0  0  0  0  0  0  0  0  0  0
   18.0962  -13.4034   22.7780 H   0  0  0  0  0  0  0  0  0  0  0  0
   18.9441  -13.1666   20.8459 C   0  0  0  0  0  0  0  0  0  0  0  0
   17.5524  -12.7953   20.3691 C   0  0  0  0  0  0  0  0  0  0  0  0
   16.4346  -12.9075   21.1871 C   0  0  0  0  0  0  0  0  0  0  0  0
   14.0390  -12.7040   21.6218 C   0  0  0  0  0  0  0  0  0  0  0  0
   15.0269  -12.1303   19.4924 C   0  0  0  0  0  0  0  0  0  0  0  0
   16.1084  -11.9996   18.6317 C   0  0  0  0  0  0  0  0  0  0  0  0
   17.3794  -12.3437   19.0639 C   0  0  0  0  0  0  0  0  0  0  0  0
   15.2133  -12.5753   20.7452 N   0  0  0  0  0  0  0  0  0  0  0  0
 13 12  1  0  0  0
 13 14  2  0  0  0
 13 15  1  0  0  0
 12  9  1  0  0  0
  9  1  1  0  0  0
  9  8  1  0  0  0
  1  3  1  0  0  0
  1  2  2  0  0  0
 14 16  1  0  0  0
 16 18  2  0  0  0
 18 17  1  0  0  0
 17 15  2  0  0  0
  4 19  1  0  0  0
  4  5  1  0  0  0
  4  3  1  0  0  0
 19 20  2  0  0  0
 19 21  1  0  0  0
 23 24  1  0  0  0
 23 21  1  0  0  0
 24 25  2  0  0  0
 24 29  1  0  0  0
  5  6  1  0  0  0
  6  7  1  0  0  0
  7  3  1  0  0  0
 25 30  1  0  0  0
 26 30  1  0  0  0
 27 28  1  0  0  0
 27 30  2  0  0  0
 28 29  2  0  0  0
  8 10  1  0  0  0
  8 11  1  0  0  0
 21 22  1  0  0  0
M  CHG 1  30   1
M  END
> <minimizedAffinity>
-6.72218

$$$$
