3QTO_10P_H_1001
  RCSB PDB12061710283D
Coordinates from PDB:3QTO:H:1001 Model:1 without hydrogens
 27 29  0  0  0  0            999 V2000
   16.2450  -16.0150   22.9050   N 0  0  0  0  0  0  0  0  0  0  0  0
   17.5270  -15.3320   22.9680   C 0  0  0  0  0  0  0  0  0  0  0  0
   17.3150  -13.9460   22.4080   C 0  0  0  0  0  0  0  0  0  0  0  0
   16.4100  -13.2450   22.8480   O 0  0  0  0  0  0  0  0  0  0  0  0
   17.9810  -15.3150   24.4320   C 0  0  0  0  0  0  0  0  0  0  0  0
   19.3940  -14.7950   24.5660   C 0  0  0  0  0  0  0  0  0  0  0  0
   19.6390  -13.7000   25.3810   C 0  0  0  0  0  0  0  0  0  0  0  0
   20.4430  -15.4020   23.8780   C 0  0  0  0  0  0  0  0  0  0  0  0
   20.9260  -13.2020   25.5000   C 0  0  0  0  0  0  0  0  0  0  0  0
   21.7350  -14.9070   24.0050   C 0  0  0  0  0  0  0  0  0  0  0  0
   21.9760  -13.8030   24.8140   C 0  0  0  0  0  0  0  0  0  0  0  0
   18.1100  -13.5150   21.4340   N 0  0  0  0  0  0  0  0  0  0  0  0
   17.9050  -12.1760   20.8580   C 0  0  0  0  0  0  0  0  0  0  0  0
   16.5020  -12.0120   20.3250   C 0  0  0  0  0  0  0  0  0  0  0  0
   15.9740  -12.8780   19.6250   O 0  0  0  0  0  0  0  0  0  0  0  0
   18.9370  -12.0970   19.7400   C 0  0  0  0  0  0  0  0  0  0  0  0
   19.9880  -13.1470   20.0810   C 0  0  0  0  0  0  0  0  0  0  0  0
   19.2240  -14.2400   20.8090   C 0  0  0  0  0  0  0  0  0  0  0  0
   14.4710  -10.6000   20.2420   C 0  0  0  0  0  0  0  0  0  0  0  0
   13.4610  -11.2050   21.1990   C 0  0  0  0  0  0  0  0  0  0  0  0
   12.8040  -10.4460   22.1600   C 0  0  0  0  0  0  0  0  0  0  0  0
   11.2320  -10.1850   24.0120   C 0  0  0  0  0  0  0  0  0  0  0  0
   11.6370  -12.3130   22.9410   C 0  0  0  0  0  0  0  0  0  0  0  0
   12.2650  -13.1190   22.0010   C 0  0  0  0  0  0  0  0  0  0  0  0
   13.1920  -12.5690   21.1300   C 0  0  0  0  0  0  0  0  0  0  0  0
   15.8480  -10.9030   20.6690   N 0  0  0  0  0  0  0  0  0  0  0  0
   11.9160  -11.0010   22.9970   N 0  3  0  0  0  0  0  0  0  0  0  0
  6  5  1  0  0  0  0
  6  7  2  0  0  0  0
  6  8  1  0  0  0  0
  5  2  1  0  0  0  0
  2  3  1  0  0  0  0
  2  1  1  0  0  0  0
  3 12  1  0  0  0  0
  3  4  2  0  0  0  0
  7  9  1  0  0  0  0
  9 11  2  0  0  0  0
 11 10  1  0  0  0  0
 10  8  2  0  0  0  0
 13 14  1  0  0  0  0
 13 16  1  0  0  0  0
 13 12  1  0  0  0  0
 14 15  2  0  0  0  0
 14 26  1  0  0  0  0
 19 20  1  0  0  0  0
 19 26  1  0  0  0  0
 20 21  2  0  0  0  0
 20 25  1  0  0  0  0
 16 17  1  0  0  0  0
 17 18  1  0  0  0  0
 18 12  1  0  0  0  0
 21 27  1  0  0  0  0
 22 27  1  0  0  0  0
 23 24  1  0  0  0  0
 23 27  2  0  0  0  0
 24 25  2  0  0  0  0
M  CHG  1  27   1
A    1
N22
A    2
C3
A    3
C4
A    4
O24
A    5
C2
A    6
C1
A    7
C5
A    8
C9
A    9
C6
A   10
C8
A   11
C7
A   12
N23
A   13
C10
A   14
C11
A   15
O25
A   16
C14
A   17
C15
A   18
C16
A   19
C12
A   20
C13
A   21
C17
A   22
C18
A   23
C19
A   24
C20
A   25
C21
A   26
N26
A   27
N27
M  END
>  <InstanceId>
3QTO_10P_H_1001

>  <ChemCompId>
10P

>  <PdbId>
3QTO

>  <ChainId>
H

>  <ResidueNumber>
1001

>  <InsertionCode>


>  <Model>
1

>  <AltIds>


>  <MissingHeavyAtoms>
0

>  <ObservedFormula>
C21 N4 O2

>  <Name>
D-phenylalanyl-N-[(1-methylpyridinium-3-yl)methyl]-L-prolinamide

>  <SystematicName>
(2S)-1-[(2R)-2-azanyl-3-phenyl-propanoyl]-N-[(1-methylpyridin-1-ium-3-yl)methyl]pyrrolidine-2-carboxamide

>  <Synonyms>


>  <Type>
peptide-like

>  <Formula>
C21 H27 N4 O2

>  <MolecularWeight>
367.465

>  <ModifiedDate>
2012-02-24

>  <Parent>


>  <OneLetterCode>


>  <SubcomponentList>
DPN PRO NNJ

>  <AmbiguousFlag>
N

>  <InChI>
InChI=1S/C21H26N4O2/c1-24-11-5-9-17(15-24)14-23-20(26)19-10-6-12-25(19)21(27)18(22)13-16-7-3-2-4-8-16/h2-5,7-9,11,15,18-19H,6,10,12-14,22H2,1H3/p+1/t18-,19+/m1/s1

>  <InChIKey>
RQARGWNLRRMMGY-MOPGFXCFSA-O

>  <SMILES>
C[n+]1cccc(c1)CNC(=O)[C@@H]2CCCN2C(=O)[C@@H](Cc3ccccc3)N

$$$$
