4DJX_0KQ_A_501
  RCSB PDB12061712133D
Coordinates from PDB:4DJX:A:501 Model:1 without hydrogens
 24 27  0  0  0  0            999 V2000
   22.5500   11.8310   22.8170   C 0  0  0  0  0  0  0  0  0  0  0  0
   22.3730   10.6620   21.8140   C 0  0  0  0  0  0  0  0  0  0  0  0
   22.5910    9.4540   22.6840   N 0  0  0  0  0  0  0  0  0  0  0  0
   22.7060    9.8770   23.9680   C 0  0  0  0  0  0  0  0  0  0  0  0
   22.7440   11.2800   24.0610   N 0  0  0  0  0  0  0  0  0  0  0  0
   22.8490    9.1120   25.0430   N 0  0  0  0  0  0  0  0  0  0  0  0
   22.9510   12.0640   25.2770   C 0  0  0  0  0  0  0  0  0  0  0  0
   22.5400   13.0220   22.5650   O 0  0  0  0  0  0  0  0  0  0  0  0
   23.4570   10.7360   20.7400   C 0  0  0  0  0  0  0  0  0  0  0  0
   20.9140   10.7470   21.3480   C 0  0  0  0  0  0  0  0  0  0  0  0
   23.1270   10.9510   19.4040   C 0  0  0  0  0  0  0  0  0  0  0  0
   24.1210   11.1010   18.4510   C 0  0  0  0  0  0  0  0  0  0  0  0
   25.4530   11.0630   18.8270   C 0  0  0  0  0  0  0  0  0  0  0  0
   25.8130   10.8510   20.1640   C 0  0  0  0  0  0  0  0  0  0  0  0
   24.8020   10.6620   21.1060   C 0  0  0  0  0  0  0  0  0  0  0  0
   27.2440   10.8520   20.5880   C 0  0  0  0  0  0  0  0  0  0  0  0
   28.1840   11.7050   20.0240   C 0  0  0  0  0  0  0  0  0  0  0  0
   29.8270   11.0800   21.5030   C 0  0  0  0  0  0  0  0  0  0  0  0
   27.6670   10.0400   21.6440   C 0  0  0  0  0  0  0  0  0  0  0  0
   29.4450   11.8280   20.4560   N 0  0  0  0  0  0  0  0  0  0  0  0
   20.2010    9.4730   20.9960   C 0  0  0  0  0  0  0  0  0  0  0  0
   19.7710   10.2720   22.1860   C 0  0  0  0  0  0  0  0  0  0  0  0
   28.9610   10.1830   22.0930   C 0  0  0  0  0  0  0  0  0  0  0  0
   29.5100    9.2030   23.4200  Cl 0  0  0  0  0  0  0  0  0  0  0  0
 12 13  2  0  0  0  0
 12 11  1  0  0  0  0
 13 14  1  0  0  0  0
 11  9  2  0  0  0  0
 17 20  2  0  0  0  0
 17 16  1  0  0  0  0
 14 16  1  0  0  0  0
 14 15  2  0  0  0  0
 20 18  1  0  0  0  0
 16 19  2  0  0  0  0
  9 15  1  0  0  0  0
  9  2  1  0  0  0  0
 21 10  1  0  0  0  0
 21 22  1  0  0  0  0
 10  2  1  0  0  0  0
 10 22  1  0  0  0  0
 18 23  2  0  0  0  0
 19 23  1  0  0  0  0
  2  3  1  0  0  0  0
  2  1  1  0  0  0  0
 23 24  1  0  0  0  0
  8  1  2  0  0  0  0
  3  4  1  0  0  0  0
  1  5  1  0  0  0  0
  4  5  1  0  0  0  0
  4  6  2  0  0  0  0
  5  7  1  0  0  0  0
A    1
C1
A    2
C2
A    3
N1
A    4
C3
A    5
N2
A    6
N3
A    7
C4
A    8
O1
A    9
C5
A   10
C6
A   11
C7
A   12
C8
A   13
C9
A   14
C10
A   15
C11
A   16
C12
A   17
C13
A   18
C15
A   19
C16
A   20
N5
A   21
C17
A   22
C18
A   23
C19
A   24
CL1
M  END
>  <InstanceId>
4DJX_0KQ_A_501

>  <ChemCompId>
0KQ

>  <PdbId>
4DJX

>  <ChainId>
A

>  <ResidueNumber>
501

>  <InsertionCode>


>  <Model>
1

>  <AltIds>


>  <MissingHeavyAtoms>
0

>  <ObservedFormula>
C18 N4 O Cl

>  <Name>
(2E,5R)-5-[3-(5-chloropyridin-3-yl)phenyl]-5-cyclopropyl-2-imino-3-methylimidazolidin-4-one

>  <SystematicName>
(5R)-2-azanylidene-5-[3-(5-chloranylpyridin-3-yl)phenyl]-5-cyclopropyl-3-methyl-imidazolidin-4-one

>  <Synonyms>


>  <Type>
NON-POLYMER

>  <Formula>
C18 H17 Cl N4 O

>  <MolecularWeight>
340.807

>  <ModifiedDate>
2012-03-16

>  <Parent>


>  <OneLetterCode>


>  <SubcomponentList>


>  <AmbiguousFlag>
N

>  <InChI>
InChI=1S/C18H17ClN4O/c1-23-16(24)18(13-5-6-13,22-17(23)20)14-4-2-3-11(7-14)12-8-15(19)10-21-9-12/h2-4,7-10,13H,5-6H2,1H3,(H2,20,22)/t18-/m1/s1

>  <InChIKey>
SZDQNTKTWBPIBH-GOSISDBHSA-N

>  <SMILES>
[H]/N=C/1\N[C@@](C(=O)N1C)(c2cccc(c2)c3cc(cnc3)Cl)C4CC4

$$$$
