4QGE_35O_A_601


 32 35  0  0  0  0  0  0  0  0999 V2000
   81.0208   49.1915   34.1857 N   0  0  0  0  0  0  0  0  0  0  0  0
   81.5571   49.2198   35.4041 C   0  0  0  0  0  0  0  0  0  0  0  0
   81.1266   49.6794   36.5871 N   0  0  0  0  0  0  0  0  0  0  0  0
   81.7313   48.7185   33.4394 N   0  0  0  0  0  0  0  0  0  0  0  0
   82.8758   48.3543   34.0164 C   0  0  0  0  0  0  0  0  0  0  0  0
   82.7641   48.6765   35.3017 C   0  0  0  0  0  0  0  0  0  0  0  0
   83.5499   48.5888   36.3702 C   0  0  0  0  0  0  0  0  0  0  0  0
   84.8547   48.2728   36.1467 O   0  0  0  0  0  0  0  0  0  0  0  0
   83.1314   49.0402   37.5635 N   0  0  0  0  0  0  0  0  0  0  0  0
   81.9127   49.5888   37.6696 C   0  0  0  0  0  0  0  0  0  0  0  0
   80.2322   50.0841   36.6614 H   0  0  0  0  0  0  0  0  0  0  0  0
   78.5332   48.9617   34.4637 C   0  0  0  0  0  0  0  0  0  0  0  0
   77.3978   49.5595   33.6509 C   0  0  0  0  0  0  0  0  0  0  0  0
   77.9464   49.3133   32.2558 C   0  0  0  0  0  0  0  0  0  0  0  0
   79.3911   49.7818   32.3703 C   0  0  0  0  0  0  0  0  0  0  0  0
   79.6874   49.7459   33.8637 C   0  0  0  0  0  0  0  0  0  0  0  0
   81.5286   50.1474   38.8151 N   0  0  0  0  0  0  0  0  0  0  0  0
   81.3572   51.1166   38.8394 H   0  0  0  0  0  0  0  0  0  0  0  0
   81.3524   49.3615   40.0449 C   0  0  0  0  0  0  0  0  0  0  0  0
   80.5627   48.0845   39.7469 C   0  0  0  0  0  0  0  0  0  0  0  0
   80.6119   50.1956   41.0930 C   0  0  0  0  0  0  0  0  0  0  0  0
   80.8470   51.3984   41.2053 O   0  0  0  0  0  0  0  0  0  0  0  0
   79.5954   49.5460   41.6802 N   0  0  0  0  0  0  0  0  0  0  0  0
   79.3901   48.6220   41.4095 H   0  0  0  0  0  0  0  0  0  0  0  0
   78.8593   50.1320   42.6240 C   0  0  0  0  0  0  0  0  0  0  0  0
   79.1928   49.9184   43.9573 C   0  0  0  0  0  0  0  0  0  0  0  0
   78.4829   50.5499   44.9720 C   0  0  0  0  0  0  0  0  0  0  0  0
   77.4293   51.4042   44.6640 C   0  0  0  0  0  0  0  0  0  0  0  0
   77.0821   51.6050   43.3314 C   0  0  0  0  0  0  0  0  0  0  0  0
   77.7897   50.9676   42.3178 C   0  0  0  0  0  0  0  0  0  0  0  0
   76.7339   51.9967   45.6727 O   0  0  0  0  0  0  0  0  0  0  0  0
   76.6823   51.1723   46.8406 C   0  0  0  0  0  0  0  0  0  0  0  0
 31 32  1  0  0  0
 31 28  1  0  0  0
 27 28  2  0  0  0
 27 26  1  0  0  0
 28 29  1  0  0  0
 26 25  2  0  0  0
 29 30  2  0  0  0
 25 30  1  0  0  0
 25 23  1  0  0  0
 13 14  1  0  0  0
 13 12  1  0  0  0
 23 21  1  0  0  0
 14 15  1  0  0  0
 22 21  2  0  0  0
 21 19  1  0  0  0
 20 19  1  0  0  0
 12 16  1  0  0  0
 19 17  1  0  0  0
 15 16  1  0  0  0
 16  1  1  0  0  0
  3  2  1  0  0  0
  3 10  1  0  0  0
 17 10  1  0  0  0
  1  2  1  0  0  0
  1  4  1  0  0  0
  2  6  2  0  0  0
 10  9  2  0  0  0
  4  5  2  0  0  0
  6  5  1  0  0  0
  6  7  1  0  0  0
  9  7  1  0  0  0
  7  8  2  0  0  0
  3 11  1  0  0  0
 17 18  1  0  0  0
 23 24  1  0  0  0
M  END
> <minimizedAffinity>
-9.76785

$$$$
4QGE_35O_A_601


 32 35  0  0  0  0  0  0  0  0999 V2000
   79.6633   49.8846   42.9481 N   0  0  0  0  0  0  0  0  0  0  0  0
   79.9036   49.9178   41.6389 C   0  0  0  0  0  0  0  0  0  0  0  0
   79.2333   50.4229   40.5941 N   0  0  0  0  0  0  0  0  0  0  0  0
   80.4899   49.3387   43.4997 N   0  0  0  0  0  0  0  0  0  0  0  0
   81.4279   48.8969   42.6627 C   0  0  0  0  0  0  0  0  0  0  0  0
   81.0504   49.2772   41.4458 C   0  0  0  0  0  0  0  0  0  0  0  0
   81.5358   49.1325   40.2168 C   0  0  0  0  0  0  0  0  0  0  0  0
   82.5591   48.2487   40.0626 O   0  0  0  0  0  0  0  0  0  0  0  0
   80.8786   49.6370   39.1602 N   0  0  0  0  0  0  0  0  0  0  0  0
   79.7207   50.2848   39.3526 C   0  0  0  0  0  0  0  0  0  0  0  0
   78.3819   50.8958   40.7383 H   0  0  0  0  0  0  0  0  0  0  0  0
   78.4705   51.9718   43.6825 C   0  0  0  0  0  0  0  0  0  0  0  0
   77.3210   52.1503   44.6591 C   0  0  0  0  0  0  0  0  0  0  0  0
   77.7980   51.2220   45.7630 C   0  0  0  0  0  0  0  0  0  0  0  0
   78.2196   49.9733   44.9994 C   0  0  0  0  0  0  0  0  0  0  0  0
   78.4508   50.4568   43.5739 C   0  0  0  0  0  0  0  0  0  0  0  0
   78.9983   50.6867   38.3094 N   0  0  0  0  0  0  0  0  0  0  0  0
   79.0481   51.6292   38.0292 H   0  0  0  0  0  0  0  0  0  0  0  0
   78.1283   49.7664   37.5630 C   0  0  0  0  0  0  0  0  0  0  0  0
   78.3058   49.9763   36.0572 C   0  0  0  0  0  0  0  0  0  0  0  0
   76.6667   50.0038   37.9503 C   0  0  0  0  0  0  0  0  0  0  0  0
   76.0668   49.1779   38.6376 O   0  0  0  0  0  0  0  0  0  0  0  0
   76.2225   51.2343   37.6527 N   0  0  0  0  0  0  0  0  0  0  0  0
   76.8339   51.8819   37.2331 H   0  0  0  0  0  0  0  0  0  0  0  0
   74.9665   51.5938   37.9162 C   0  0  0  0  0  0  0  0  0  0  0  0
   74.7049   52.2861   39.0939 C   0  0  0  0  0  0  0  0  0  0  0  0
   73.4178   52.7238   39.3839 C   0  0  0  0  0  0  0  0  0  0  0  0
   72.3755   52.4736   38.4974 C   0  0  0  0  0  0  0  0  0  0  0  0
   72.6315   51.7650   37.3273 C   0  0  0  0  0  0  0  0  0  0  0  0
   73.9188   51.3227   37.0417 C   0  0  0  0  0  0  0  0  0  0  0  0
   71.1189   52.8926   38.8095 O   0  0  0  0  0  0  0  0  0  0  0  0
   71.1186   54.2131   39.3595 C   0  0  0  0  0  0  0  0  0  0  0  0
 31 32  1  0  0  0
 31 28  1  0  0  0
 27 28  2  0  0  0
 27 26  1  0  0  0
 28 29  1  0  0  0
 26 25  2  0  0  0
 29 30  2  0  0  0
 25 30  1  0  0  0
 25 23  1  0  0  0
 13 14  1  0  0  0
 13 12  1  0  0  0
 23 21  1  0  0  0
 14 15  1  0  0  0
 22 21  2  0  0  0
 21 19  1  0  0  0
 20 19  1  0  0  0
 12 16  1  0  0  0
 19 17  1  0  0  0
 15 16  1  0  0  0
 16  1  1  0  0  0
  3  2  1  0  0  0
  3 10  1  0  0  0
 17 10  1  0  0  0
  1  2  1  0  0  0
  1  4  1  0  0  0
  2  6  2  0  0  0
 10  9  2  0  0  0
  4  5  2  0  0  0
  6  5  1  0  0  0
  6  7  1  0  0  0
  9  7  1  0  0  0
  7  8  2  0  0  0
  3 11  1  0  0  0
 17 18  1  0  0  0
 23 24  1  0  0  0
M  END
> <minimizedAffinity>
-9.28637

$$$$
4QGE_35O_A_601


 32 35  0  0  0  0  0  0  0  0999 V2000
   80.5529   49.0023   35.3774 N   0  0  0  0  0  0  0  0  0  0  0  0
   81.2517   48.6285   36.4473 C   0  0  0  0  0  0  0  0  0  0  0  0
   80.9306   48.4395   37.7347 N   0  0  0  0  0  0  0  0  0  0  0  0
   81.2141   49.0556   34.4579 N   0  0  0  0  0  0  0  0  0  0  0  0
   82.4765   48.7393   34.7440 C   0  0  0  0  0  0  0  0  0  0  0  0
   82.5043   48.4552   36.0427 C   0  0  0  0  0  0  0  0  0  0  0  0
   83.4435   48.0967   36.9123 C   0  0  0  0  0  0  0  0  0  0  0  0
   84.7350   48.1959   36.4945 O   0  0  0  0  0  0  0  0  0  0  0  0
   83.1369   47.8988   38.2044 N   0  0  0  0  0  0  0  0  0  0  0  0
   81.8726   48.0725   38.6155 C   0  0  0  0  0  0  0  0  0  0  0  0
   80.0019   48.5704   38.0340 H   0  0  0  0  0  0  0  0  0  0  0  0
   78.4293   49.2724   34.0599 C   0  0  0  0  0  0  0  0  0  0  0  0
   77.1467   50.0069   34.4098 C   0  0  0  0  0  0  0  0  0  0  0  0
   77.7478   51.2764   34.9885 C   0  0  0  0  0  0  0  0  0  0  0  0
   78.8314   50.7469   35.9187 C   0  0  0  0  0  0  0  0  0  0  0  0
   79.1123   49.3374   35.4151 C   0  0  0  0  0  0  0  0  0  0  0  0
   81.5744   47.9966   39.9104 N   0  0  0  0  0  0  0  0  0  0  0  0
   81.2274   47.1489   40.2713 H   0  0  0  0  0  0  0  0  0  0  0  0
   81.7471   49.1399   40.8182 C   0  0  0  0  0  0  0  0  0  0  0  0
   81.8774   48.6519   42.2632 C   0  0  0  0  0  0  0  0  0  0  0  0
   80.5497   50.0854   40.6968 C   0  0  0  0  0  0  0  0  0  0  0  0
   80.5978   51.0498   39.9339 O   0  0  0  0  0  0  0  0  0  0  0  0
   79.4454   49.6402   41.3154 N   0  0  0  0  0  0  0  0  0  0  0  0
   79.4664   48.7720   41.7789 H   0  0  0  0  0  0  0  0  0  0  0  0
   78.3206   50.3550   41.3121 C   0  0  0  0  0  0  0  0  0  0  0  0
   77.9502   51.0194   42.4765 C   0  0  0  0  0  0  0  0  0  0  0  0
   76.8115   51.8163   42.5022 C   0  0  0  0  0  0  0  0  0  0  0  0
   76.0288   51.9581   41.3611 C   0  0  0  0  0  0  0  0  0  0  0  0
   76.3873   51.2795   40.2002 C   0  0  0  0  0  0  0  0  0  0  0  0
   77.5237   50.4779   40.1781 C   0  0  0  0  0  0  0  0  0  0  0  0
   74.9067   52.7265   41.4128 O   0  0  0  0  0  0  0  0  0  0  0  0
   74.8576   53.6710   40.3396 C   0  0  0  0  0  0  0  0  0  0  0  0
 31 32  1  0  0  0
 31 28  1  0  0  0
 27 28  2  0  0  0
 27 26  1  0  0  0
 28 29  1  0  0  0
 26 25  2  0  0  0
 29 30  2  0  0  0
 25 30  1  0  0  0
 25 23  1  0  0  0
 13 14  1  0  0  0
 13 12  1  0  0  0
 23 21  1  0  0  0
 14 15  1  0  0  0
 22 21  2  0  0  0
 21 19  1  0  0  0
 20 19  1  0  0  0
 12 16  1  0  0  0
 19 17  1  0  0  0
 15 16  1  0  0  0
 16  1  1  0  0  0
  3  2  1  0  0  0
  3 10  1  0  0  0
 17 10  1  0  0  0
  1  2  1  0  0  0
  1  4  1  0  0  0
  2  6  2  0  0  0
 10  9  2  0  0  0
  4  5  2  0  0  0
  6  5  1  0  0  0
  6  7  1  0  0  0
  9  7  1  0  0  0
  7  8  2  0  0  0
  3 11  1  0  0  0
 17 18  1  0  0  0
 23 24  1  0  0  0
M  END
> <minimizedAffinity>
-9.11081

$$$$
4QGE_35O_A_601


 32 35  0  0  0  0  0  0  0  0999 V2000
   81.9598   48.4654   36.1279 N   0  0  0  0  0  0  0  0  0  0  0  0
   81.6444   48.4539   37.4214 C   0  0  0  0  0  0  0  0  0  0  0  0
   80.5535   48.8271   38.1046 N   0  0  0  0  0  0  0  0  0  0  0  0
   83.0089   48.0689   35.9614 N   0  0  0  0  0  0  0  0  0  0  0  0
   83.5921   47.7303   37.1106 C   0  0  0  0  0  0  0  0  0  0  0  0
   82.7017   47.9765   38.0671 C   0  0  0  0  0  0  0  0  0  0  0  0
   82.6831   47.8695   39.3919 C   0  0  0  0  0  0  0  0  0  0  0  0
   83.8749   47.6303   40.0038 O   0  0  0  0  0  0  0  0  0  0  0  0
   81.5960   48.2346   40.0904 N   0  0  0  0  0  0  0  0  0  0  0  0
   80.5268   48.7165   39.4407 C   0  0  0  0  0  0  0  0  0  0  0  0
   79.7709   49.1830   37.6250 H   0  0  0  0  0  0  0  0  0  0  0  0
   79.7388   48.2249   34.9757 C   0  0  0  0  0  0  0  0  0  0  0  0
   79.2786   48.7337   33.6206 C   0  0  0  0  0  0  0  0  0  0  0  0
   80.5063   48.3756   32.8006 C   0  0  0  0  0  0  0  0  0  0  0  0
   81.6536   48.8729   33.6702 C   0  0  0  0  0  0  0  0  0  0  0  0
   81.0587   48.9707   35.0687 C   0  0  0  0  0  0  0  0  0  0  0  0
   79.4884   49.1928   40.1236 N   0  0  0  0  0  0  0  0  0  0  0  0
   78.9166   48.5651   40.6220 H   0  0  0  0  0  0  0  0  0  0  0  0
   79.1691   50.6274   40.1565 C   0  0  0  0  0  0  0  0  0  0  0  0
   80.4536   51.4562   40.0779 C   0  0  0  0  0  0  0  0  0  0  0  0
   78.4146   50.9624   41.4452 C   0  0  0  0  0  0  0  0  0  0  0  0
   77.1931   51.1109   41.4262 O   0  0  0  0  0  0  0  0  0  0  0  0
   79.1668   50.8656   42.5520 N   0  0  0  0  0  0  0  0  0  0  0  0
   80.1087   50.5898   42.4750 H   0  0  0  0  0  0  0  0  0  0  0  0
   78.6590   51.1370   43.7538 C   0  0  0  0  0  0  0  0  0  0  0  0
   78.4444   52.4666   44.1016 C   0  0  0  0  0  0  0  0  0  0  0  0
   77.8702   52.7920   45.3250 C   0  0  0  0  0  0  0  0  0  0  0  0
   77.5032   51.7892   46.2163 C   0  0  0  0  0  0  0  0  0  0  0  0
   77.7339   50.4590   45.8782 C   0  0  0  0  0  0  0  0  0  0  0  0
   78.3140   50.1357   44.6562 C   0  0  0  0  0  0  0  0  0  0  0  0
   76.9613   52.1295   47.4174 O   0  0  0  0  0  0  0  0  0  0  0  0
   77.5576   53.3135   47.9549 C   0  0  0  0  0  0  0  0  0  0  0  0
 31 32  1  0  0  0
 31 28  1  0  0  0
 27 28  2  0  0  0
 27 26  1  0  0  0
 28 29  1  0  0  0
 26 25  2  0  0  0
 29 30  2  0  0  0
 25 30  1  0  0  0
 25 23  1  0  0  0
 13 14  1  0  0  0
 13 12  1  0  0  0
 23 21  1  0  0  0
 14 15  1  0  0  0
 22 21  2  0  0  0
 21 19  1  0  0  0
 20 19  1  0  0  0
 12 16  1  0  0  0
 19 17  1  0  0  0
 15 16  1  0  0  0
 16  1  1  0  0  0
  3  2  1  0  0  0
  3 10  1  0  0  0
 17 10  1  0  0  0
  1  2  1  0  0  0
  1  4  1  0  0  0
  2  6  2  0  0  0
 10  9  2  0  0  0
  4  5  2  0  0  0
  6  5  1  0  0  0
  6  7  1  0  0  0
  9  7  1  0  0  0
  7  8  2  0  0  0
  3 11  1  0  0  0
 17 18  1  0  0  0
 23 24  1  0  0  0
M  END
> <minimizedAffinity>
-9.03243

$$$$
4QGE_35O_A_601


 32 35  0  0  0  0  0  0  0  0999 V2000
   76.1388   52.2358   41.8892 N   0  0  0  0  0  0  0  0  0  0  0  0
   77.3404   51.7506   42.1952 C   0  0  0  0  0  0  0  0  0  0  0  0
   78.4189   51.4382   41.4635 N   0  0  0  0  0  0  0  0  0  0  0  0
   75.4963   52.3462   42.8168 N   0  0  0  0  0  0  0  0  0  0  0  0
   76.1433   51.9456   43.9106 C   0  0  0  0  0  0  0  0  0  0  0  0
   77.3507   51.5595   43.5090 C   0  0  0  0  0  0  0  0  0  0  0  0
   78.4284   51.0560   44.1022 C   0  0  0  0  0  0  0  0  0  0  0  0
   78.2810   50.6405   45.3898 O   0  0  0  0  0  0  0  0  0  0  0  0
   79.5185   50.7424   43.3838 N   0  0  0  0  0  0  0  0  0  0  0  0
   79.5109   50.9349   42.0570 C   0  0  0  0  0  0  0  0  0  0  0  0
   78.4093   51.5783   40.4891 H   0  0  0  0  0  0  0  0  0  0  0  0
   74.3028   53.1173   40.4159 C   0  0  0  0  0  0  0  0  0  0  0  0
   74.0823   52.9532   38.9221 C   0  0  0  0  0  0  0  0  0  0  0  0
   74.3975   51.4726   38.7945 C   0  0  0  0  0  0  0  0  0  0  0  0
   75.6866   51.3288   39.5929 C   0  0  0  0  0  0  0  0  0  0  0  0
   75.7071   52.5457   40.5083 C   0  0  0  0  0  0  0  0  0  0  0  0
   80.5356   50.5206   41.3155 N   0  0  0  0  0  0  0  0  0  0  0  0
   81.0265   51.1772   40.7704 H   0  0  0  0  0  0  0  0  0  0  0  0
   80.9568   49.1125   41.2855 C   0  0  0  0  0  0  0  0  0  0  0  0
   82.2434   48.9288   42.0943 C   0  0  0  0  0  0  0  0  0  0  0  0
   81.1868   48.6695   39.8387 C   0  0  0  0  0  0  0  0  0  0  0  0
   80.9083   47.5223   39.4912 O   0  0  0  0  0  0  0  0  0  0  0  0
   81.5012   49.6763   39.0094 N   0  0  0  0  0  0  0  0  0  0  0  0
   81.5534   50.5947   39.3602 H   0  0  0  0  0  0  0  0  0  0  0  0
   81.7439   49.4526   37.7182 C   0  0  0  0  0  0  0  0  0  0  0  0
   80.7029   49.6051   36.8085 C   0  0  0  0  0  0  0  0  0  0  0  0
   80.9242   49.4307   35.4473 C   0  0  0  0  0  0  0  0  0  0  0  0
   82.1920   49.1011   34.9795 C   0  0  0  0  0  0  0  0  0  0  0  0
   83.2309   48.9299   35.8895 C   0  0  0  0  0  0  0  0  0  0  0  0
   83.0062   49.0990   37.2516 C   0  0  0  0  0  0  0  0  0  0  0  0
   82.3832   48.9146   33.6450 O   0  0  0  0  0  0  0  0  0  0  0  0
   81.1630   48.5926   32.9715 C   0  0  0  0  0  0  0  0  0  0  0  0
 31 32  1  0  0  0
 31 28  1  0  0  0
 27 28  2  0  0  0
 27 26  1  0  0  0
 28 29  1  0  0  0
 26 25  2  0  0  0
 29 30  2  0  0  0
 25 30  1  0  0  0
 25 23  1  0  0  0
 13 14  1  0  0  0
 13 12  1  0  0  0
 23 21  1  0  0  0
 14 15  1  0  0  0
 22 21  2  0  0  0
 21 19  1  0  0  0
 20 19  1  0  0  0
 12 16  1  0  0  0
 19 17  1  0  0  0
 15 16  1  0  0  0
 16  1  1  0  0  0
  3  2  1  0  0  0
  3 10  1  0  0  0
 17 10  1  0  0  0
  1  2  1  0  0  0
  1  4  1  0  0  0
  2  6  2  0  0  0
 10  9  2  0  0  0
  4  5  2  0  0  0
  6  5  1  0  0  0
  6  7  1  0  0  0
  9  7  1  0  0  0
  7  8  2  0  0  0
  3 11  1  0  0  0
 17 18  1  0  0  0
 23 24  1  0  0  0
M  END
> <minimizedAffinity>
-9.03013

$$$$
4QGE_35O_A_601


 32 35  0  0  0  0  0  0  0  0999 V2000
   79.5809   49.6625   34.6266 N   0  0  0  0  0  0  0  0  0  0  0  0
   80.5534   49.4952   35.5207 C   0  0  0  0  0  0  0  0  0  0  0  0
   80.6721   49.8076   36.8185 N   0  0  0  0  0  0  0  0  0  0  0  0
   79.8886   49.2625   33.6113 N   0  0  0  0  0  0  0  0  0  0  0  0
   81.1247   48.7654   33.6353 C   0  0  0  0  0  0  0  0  0  0  0  0
   81.5611   48.9118   34.8828 C   0  0  0  0  0  0  0  0  0  0  0  0
   82.6907   48.6381   35.5276 C   0  0  0  0  0  0  0  0  0  0  0  0
   83.7630   48.2915   34.7645 O   0  0  0  0  0  0  0  0  0  0  0  0
   82.8236   48.9404   36.8291 N   0  0  0  0  0  0  0  0  0  0  0  0
   81.8073   49.5290   37.4757 C   0  0  0  0  0  0  0  0  0  0  0  0
   79.9251   50.2422   37.2900 H   0  0  0  0  0  0  0  0  0  0  0  0
   77.5415   49.6990   36.0956 C   0  0  0  0  0  0  0  0  0  0  0  0
   76.1862   50.3477   35.8731 C   0  0  0  0  0  0  0  0  0  0  0  0
   75.9662   49.9519   34.4230 C   0  0  0  0  0  0  0  0  0  0  0  0
   77.3034   50.2826   33.7731 C   0  0  0  0  0  0  0  0  0  0  0  0
   78.2919   50.3219   34.9310 C   0  0  0  0  0  0  0  0  0  0  0  0
   81.9636   49.9423   38.7312 N   0  0  0  0  0  0  0  0  0  0  0  0
   82.4026   50.8076   38.8976 H   0  0  0  0  0  0  0  0  0  0  0  0
   81.5009   49.1461   39.8771 C   0  0  0  0  0  0  0  0  0  0  0  0
   80.5784   48.0213   39.4005 C   0  0  0  0  0  0  0  0  0  0  0  0
   80.7541   50.0441   40.8662 C   0  0  0  0  0  0  0  0  0  0  0  0
   81.0659   51.2289   40.9831 O   0  0  0  0  0  0  0  0  0  0  0  0
   79.6579   49.4753   41.3904 N   0  0  0  0  0  0  0  0  0  0  0  0
   79.4059   48.5643   41.1151 H   0  0  0  0  0  0  0  0  0  0  0  0
   78.9047   50.1242   42.2780 C   0  0  0  0  0  0  0  0  0  0  0  0
   79.2114   50.0002   43.6290 C   0  0  0  0  0  0  0  0  0  0  0  0
   78.4833   50.6992   44.5848 C   0  0  0  0  0  0  0  0  0  0  0  0
   77.4380   51.5320   44.1994 C   0  0  0  0  0  0  0  0  0  0  0  0
   77.1175   51.6433   42.8497 C   0  0  0  0  0  0  0  0  0  0  0  0
   77.8434   50.9384   41.8953 C   0  0  0  0  0  0  0  0  0  0  0  0
   76.7243   52.1917   45.1520 O   0  0  0  0  0  0  0  0  0  0  0  0
   77.5281   53.1416   45.8578 C   0  0  0  0  0  0  0  0  0  0  0  0
 31 32  1  0  0  0
 31 28  1  0  0  0
 27 28  2  0  0  0
 27 26  1  0  0  0
 28 29  1  0  0  0
 26 25  2  0  0  0
 29 30  2  0  0  0
 25 30  1  0  0  0
 25 23  1  0  0  0
 13 14  1  0  0  0
 13 12  1  0  0  0
 23 21  1  0  0  0
 14 15  1  0  0  0
 22 21  2  0  0  0
 21 19  1  0  0  0
 20 19  1  0  0  0
 12 16  1  0  0  0
 19 17  1  0  0  0
 15 16  1  0  0  0
 16  1  1  0  0  0
  3  2  1  0  0  0
  3 10  1  0  0  0
 17 10  1  0  0  0
  1  2  1  0  0  0
  1  4  1  0  0  0
  2  6  2  0  0  0
 10  9  2  0  0  0
  4  5  2  0  0  0
  6  5  1  0  0  0
  6  7  1  0  0  0
  9  7  1  0  0  0
  7  8  2  0  0  0
  3 11  1  0  0  0
 17 18  1  0  0  0
 23 24  1  0  0  0
M  END
> <minimizedAffinity>
-8.82731

$$$$
4QGE_35O_A_601


 32 35  0  0  0  0  0  0  0  0999 V2000
   82.6808   48.0429   38.0509 N   0  0  0  0  0  0  0  0  0  0  0  0
   81.6179   48.6828   38.5343 C   0  0  0  0  0  0  0  0  0  0  0  0
   80.5628   49.2765   37.9595 N   0  0  0  0  0  0  0  0  0  0  0  0
   83.3617   47.6950   38.8881 N   0  0  0  0  0  0  0  0  0  0  0  0
   82.8875   48.0468   40.0826 C   0  0  0  0  0  0  0  0  0  0  0  0
   81.7455   48.6890   39.8558 C   0  0  0  0  0  0  0  0  0  0  0  0
   80.8297   49.2854   40.6124 C   0  0  0  0  0  0  0  0  0  0  0  0
   81.1514   49.4865   41.9194 O   0  0  0  0  0  0  0  0  0  0  0  0
   79.7644   49.8805   40.0521 N   0  0  0  0  0  0  0  0  0  0  0  0
   79.6329   49.8751   38.7178 C   0  0  0  0  0  0  0  0  0  0  0  0
   80.4704   49.2732   36.9794 H   0  0  0  0  0  0  0  0  0  0  0  0
   83.1301   49.1559   35.8423 C   0  0  0  0  0  0  0  0  0  0  0  0
   82.9916   48.6179   34.4287 C   0  0  0  0  0  0  0  0  0  0  0  0
   81.6522   47.9150   34.5699 C   0  0  0  0  0  0  0  0  0  0  0  0
   81.8071   47.1460   35.8755 C   0  0  0  0  0  0  0  0  0  0  0  0
   82.9387   47.8569   36.6059 C   0  0  0  0  0  0  0  0  0  0  0  0
   78.6486   50.5602   38.1404 N   0  0  0  0  0  0  0  0  0  0  0  0
   78.5746   51.5266   38.3132 H   0  0  0  0  0  0  0  0  0  0  0  0
   77.6688   49.9180   37.2524 C   0  0  0  0  0  0  0  0  0  0  0  0
   77.7872   50.4868   35.8362 C   0  0  0  0  0  0  0  0  0  0  0  0
   76.2533   50.1494   37.7867 C   0  0  0  0  0  0  0  0  0  0  0  0
   75.6413   49.2328   38.3343 O   0  0  0  0  0  0  0  0  0  0  0  0
   75.8771   51.4372   37.7790 N   0  0  0  0  0  0  0  0  0  0  0  0
   76.5047   52.1234   37.4557 H   0  0  0  0  0  0  0  0  0  0  0  0
   74.6672   51.8021   38.2021 C   0  0  0  0  0  0  0  0  0  0  0  0
   74.5439   52.3511   39.4741 C   0  0  0  0  0  0  0  0  0  0  0  0
   73.3088   52.7913   39.9357 C   0  0  0  0  0  0  0  0  0  0  0  0
   72.1807   52.6873   39.1287 C   0  0  0  0  0  0  0  0  0  0  0  0
   72.2983   52.1214   37.8627 C   0  0  0  0  0  0  0  0  0  0  0  0
   73.5338   51.6761   37.4049 C   0  0  0  0  0  0  0  0  0  0  0  0
   70.9771   53.1053   39.6071 O   0  0  0  0  0  0  0  0  0  0  0  0
   70.8014   54.5161   39.4485 C   0  0  0  0  0  0  0  0  0  0  0  0
 31 32  1  0  0  0
 31 28  1  0  0  0
 27 28  2  0  0  0
 27 26  1  0  0  0
 28 29  1  0  0  0
 26 25  2  0  0  0
 29 30  2  0  0  0
 25 30  1  0  0  0
 25 23  1  0  0  0
 13 14  1  0  0  0
 13 12  1  0  0  0
 23 21  1  0  0  0
 14 15  1  0  0  0
 22 21  2  0  0  0
 21 19  1  0  0  0
 20 19  1  0  0  0
 12 16  1  0  0  0
 19 17  1  0  0  0
 15 16  1  0  0  0
 16  1  1  0  0  0
  3  2  1  0  0  0
  3 10  1  0  0  0
 17 10  1  0  0  0
  1  2  1  0  0  0
  1  4  1  0  0  0
  2  6  2  0  0  0
 10  9  2  0  0  0
  4  5  2  0  0  0
  6  5  1  0  0  0
  6  7  1  0  0  0
  9  7  1  0  0  0
  7  8  2  0  0  0
  3 11  1  0  0  0
 17 18  1  0  0  0
 23 24  1  0  0  0
M  END
> <minimizedAffinity>
-8.68718

$$$$
4QGE_35O_A_601


 32 35  0  0  0  0  0  0  0  0999 V2000
   81.4182   48.9033   40.3050 N   0  0  0  0  0  0  0  0  0  0  0  0
   81.4396   49.0080   38.9778 C   0  0  0  0  0  0  0  0  0  0  0  0
   80.6206   49.5861   38.0883 N   0  0  0  0  0  0  0  0  0  0  0  0
   82.3085   48.3101   40.6806 N   0  0  0  0  0  0  0  0  0  0  0  0
   83.0819   47.8995   39.6762 C   0  0  0  0  0  0  0  0  0  0  0  0
   82.5195   48.3574   38.5617 C   0  0  0  0  0  0  0  0  0  0  0  0
   82.7906   48.2751   37.2630 C   0  0  0  0  0  0  0  0  0  0  0  0
   83.7483   47.3819   36.8926 O   0  0  0  0  0  0  0  0  0  0  0  0
   81.9827   48.8531   36.3596 N   0  0  0  0  0  0  0  0  0  0  0  0
   80.8918   49.5111   36.7773 C   0  0  0  0  0  0  0  0  0  0  0  0
   79.8189   50.0664   38.3979 H   0  0  0  0  0  0  0  0  0  0  0  0
   78.9429   49.0818   40.7043 C   0  0  0  0  0  0  0  0  0  0  0  0
   78.1536   50.0869   41.5251 C   0  0  0  0  0  0  0  0  0  0  0  0
   78.8604   51.3593   41.0902 C   0  0  0  0  0  0  0  0  0  0  0  0
   80.3328   50.9840   41.1951 C   0  0  0  0  0  0  0  0  0  0  0  0
   80.3431   49.4617   41.1543 C   0  0  0  0  0  0  0  0  0  0  0  0
   80.0187   49.9872   35.8925 N   0  0  0  0  0  0  0  0  0  0  0  0
   80.2886   50.7335   35.3099 H   0  0  0  0  0  0  0  0  0  0  0  0
   78.6638   49.4327   35.7588 C   0  0  0  0  0  0  0  0  0  0  0  0
   78.3700   49.1041   34.2929 C   0  0  0  0  0  0  0  0  0  0  0  0
   77.6363   50.4403   36.2797 C   0  0  0  0  0  0  0  0  0  0  0  0
   77.7607   51.6381   36.0260 O   0  0  0  0  0  0  0  0  0  0  0  0
   76.5486   49.8712   36.8211 N   0  0  0  0  0  0  0  0  0  0  0  0
   76.4748   48.8897   36.8418 H   0  0  0  0  0  0  0  0  0  0  0  0
   75.5665   50.6137   37.3313 C   0  0  0  0  0  0  0  0  0  0  0  0
   74.4105   50.7968   36.5798 C   0  0  0  0  0  0  0  0  0  0  0  0
   73.3420   51.5219   37.0942 C   0  0  0  0  0  0  0  0  0  0  0  0
   73.4176   52.0733   38.3690 C   0  0  0  0  0  0  0  0  0  0  0  0
   74.5803   51.9070   39.1155 C   0  0  0  0  0  0  0  0  0  0  0  0
   75.6506   51.1861   38.5967 C   0  0  0  0  0  0  0  0  0  0  0  0
   72.3686   52.7970   38.8463 O   0  0  0  0  0  0  0  0  0  0  0  0
   71.4714   51.9914   39.6160 C   0  0  0  0  0  0  0  0  0  0  0  0
 31 32  1  0  0  0
 31 28  1  0  0  0
 27 28  2  0  0  0
 27 26  1  0  0  0
 28 29  1  0  0  0
 26 25  2  0  0  0
 29 30  2  0  0  0
 25 30  1  0  0  0
 25 23  1  0  0  0
 13 14  1  0  0  0
 13 12  1  0  0  0
 23 21  1  0  0  0
 14 15  1  0  0  0
 22 21  2  0  0  0
 21 19  1  0  0  0
 20 19  1  0  0  0
 12 16  1  0  0  0
 19 17  1  0  0  0
 15 16  1  0  0  0
 16  1  1  0  0  0
  3  2  1  0  0  0
  3 10  1  0  0  0
 17 10  1  0  0  0
  1  2  1  0  0  0
  1  4  1  0  0  0
  2  6  2  0  0  0
 10  9  2  0  0  0
  4  5  2  0  0  0
  6  5  1  0  0  0
  6  7  1  0  0  0
  9  7  1  0  0  0
  7  8  2  0  0  0
  3 11  1  0  0  0
 17 18  1  0  0  0
 23 24  1  0  0  0
M  END
> <minimizedAffinity>
-8.67919

$$$$
4QGE_35O_A_601


 32 35  0  0  0  0  0  0  0  0999 V2000
   75.5189   52.4042   41.2772 N   0  0  0  0  0  0  0  0  0  0  0  0
   76.6134   51.6650   41.4460 C   0  0  0  0  0  0  0  0  0  0  0  0
   77.4301   51.0253   40.5976 N   0  0  0  0  0  0  0  0  0  0  0  0
   75.1097   52.7586   42.2734 N   0  0  0  0  0  0  0  0  0  0  0  0
   75.8461   52.3139   43.2910 C   0  0  0  0  0  0  0  0  0  0  0  0
   76.8325   51.6021   42.7539 C   0  0  0  0  0  0  0  0  0  0  0  0
   77.8599   50.9033   43.2261 C   0  0  0  0  0  0  0  0  0  0  0  0
   77.8721   50.6611   44.5653 O   0  0  0  0  0  0  0  0  0  0  0  0
   78.6901   50.2608   42.3889 N   0  0  0  0  0  0  0  0  0  0  0  0
   78.4713   50.3232   41.0676 C   0  0  0  0  0  0  0  0  0  0  0  0
   77.2654   51.0709   39.6280 H   0  0  0  0  0  0  0  0  0  0  0  0
   73.4187   52.9544   40.0102 C   0  0  0  0  0  0  0  0  0  0  0  0
   73.1031   52.8161   38.5310 C   0  0  0  0  0  0  0  0  0  0  0  0
   73.6973   51.4395   38.2867 C   0  0  0  0  0  0  0  0  0  0  0  0
   75.0551   51.5284   38.9711 C   0  0  0  0  0  0  0  0  0  0  0  0
   74.9119   52.6807   39.9565 C   0  0  0  0  0  0  0  0  0  0  0  0
   79.2115   49.5978   40.2325 N   0  0  0  0  0  0  0  0  0  0  0  0
   78.9439   48.6700   40.0406 H   0  0  0  0  0  0  0  0  0  0  0  0
   80.4165   50.1396   39.5878 C   0  0  0  0  0  0  0  0  0  0  0  0
   80.9217   51.3633   40.3563 C   0  0  0  0  0  0  0  0  0  0  0  0
   80.1014   50.5300   38.1419 C   0  0  0  0  0  0  0  0  0  0  0  0
   80.4286   51.6367   37.7145 O   0  0  0  0  0  0  0  0  0  0  0  0
   79.6533   49.5109   37.3930 N   0  0  0  0  0  0  0  0  0  0  0  0
   79.5671   48.6160   37.7942 H   0  0  0  0  0  0  0  0  0  0  0  0
   79.3232   49.6910   36.1144 C   0  0  0  0  0  0  0  0  0  0  0  0
   78.0937   50.2706   35.8192 C   0  0  0  0  0  0  0  0  0  0  0  0
   77.7309   50.5225   34.5012 C   0  0  0  0  0  0  0  0  0  0  0  0
   78.5955   50.1971   33.4613 C   0  0  0  0  0  0  0  0  0  0  0  0
   79.8183   49.6003   33.7532 C   0  0  0  0  0  0  0  0  0  0  0  0
   80.1771   49.3435   35.0722 C   0  0  0  0  0  0  0  0  0  0  0  0
   78.2129   50.4331   32.1767 O   0  0  0  0  0  0  0  0  0  0  0  0
   76.8258   50.7712   32.0873 C   0  0  0  0  0  0  0  0  0  0  0  0
 31 32  1  0  0  0
 31 28  1  0  0  0
 27 28  2  0  0  0
 27 26  1  0  0  0
 28 29  1  0  0  0
 26 25  2  0  0  0
 29 30  2  0  0  0
 25 30  1  0  0  0
 25 23  1  0  0  0
 13 14  1  0  0  0
 13 12  1  0  0  0
 23 21  1  0  0  0
 14 15  1  0  0  0
 22 21  2  0  0  0
 21 19  1  0  0  0
 20 19  1  0  0  0
 12 16  1  0  0  0
 19 17  1  0  0  0
 15 16  1  0  0  0
 16  1  1  0  0  0
  3  2  1  0  0  0
  3 10  1  0  0  0
 17 10  1  0  0  0
  1  2  1  0  0  0
  1  4  1  0  0  0
  2  6  2  0  0  0
 10  9  2  0  0  0
  4  5  2  0  0  0
  6  5  1  0  0  0
  6  7  1  0  0  0
  9  7  1  0  0  0
  7  8  2  0  0  0
  3 11  1  0  0  0
 17 18  1  0  0  0
 23 24  1  0  0  0
M  END
> <minimizedAffinity>
-8.54027

$$$$
4QGE_35O_A_601


 32 35  0  0  0  0  0  0  0  0999 V2000
   76.9238   49.5051   36.3655 N   0  0  0  0  0  0  0  0  0  0  0  0
   78.2215   49.5726   36.6559 C   0  0  0  0  0  0  0  0  0  0  0  0
   78.8987   49.8278   37.7839 N   0  0  0  0  0  0  0  0  0  0  0  0
   76.7642   49.2723   35.2674 N   0  0  0  0  0  0  0  0  0  0  0  0
   77.9223   49.1527   34.6192 C   0  0  0  0  0  0  0  0  0  0  0  0
   78.8774   49.3441   35.5244 C   0  0  0  0  0  0  0  0  0  0  0  0
   80.2062   49.3701   35.5058 C   0  0  0  0  0  0  0  0  0  0  0  0
   80.8013   49.3940   34.2821 O   0  0  0  0  0  0  0  0  0  0  0  0
   80.8993   49.6195   36.6285 N   0  0  0  0  0  0  0  0  0  0  0  0
   80.2393   49.8500   37.7725 C   0  0  0  0  0  0  0  0  0  0  0  0
   78.4112   49.9992   38.6219 H   0  0  0  0  0  0  0  0  0  0  0  0
   74.5626   48.9927   37.0589 C   0  0  0  0  0  0  0  0  0  0  0  0
   73.6344   49.7408   38.0001 C   0  0  0  0  0  0  0  0  0  0  0  0
   73.9063   51.1588   37.5278 C   0  0  0  0  0  0  0  0  0  0  0  0
   75.4265   51.2051   37.4462 C   0  0  0  0  0  0  0  0  0  0  0  0
   75.8489   49.7449   37.3536 C   0  0  0  0  0  0  0  0  0  0  0  0
   80.9045   50.2150   38.8660 N   0  0  0  0  0  0  0  0  0  0  0  0
   81.3316   51.1017   38.8911 H   0  0  0  0  0  0  0  0  0  0  0  0
   81.0210   49.3346   40.0375 C   0  0  0  0  0  0  0  0  0  0  0  0
   81.0635   47.8698   39.5952 C   0  0  0  0  0  0  0  0  0  0  0  0
   79.8326   49.5581   40.9757 C   0  0  0  0  0  0  0  0  0  0  0  0
   78.7803   48.9451   40.7980 O   0  0  0  0  0  0  0  0  0  0  0  0
   80.1317   50.2865   42.0620 N   0  0  0  0  0  0  0  0  0  0  0  0
   81.0528   50.6097   42.1900 H   0  0  0  0  0  0  0  0  0  0  0  0
   79.2017   50.5793   42.9704 C   0  0  0  0  0  0  0  0  0  0  0  0
   79.2946   49.9975   44.2303 C   0  0  0  0  0  0  0  0  0  0  0  0
   78.3746   50.3140   45.2232 C   0  0  0  0  0  0  0  0  0  0  0  0
   77.3492   51.2182   44.9667 C   0  0  0  0  0  0  0  0  0  0  0  0
   77.2434   51.7875   43.7012 C   0  0  0  0  0  0  0  0  0  0  0  0
   78.1613   51.4650   42.7073 C   0  0  0  0  0  0  0  0  0  0  0  0
   76.4467   51.4991   45.9459 O   0  0  0  0  0  0  0  0  0  0  0  0
   76.4077   50.4754   46.9444 C   0  0  0  0  0  0  0  0  0  0  0  0
 31 32  1  0  0  0
 31 28  1  0  0  0
 27 28  2  0  0  0
 27 26  1  0  0  0
 28 29  1  0  0  0
 26 25  2  0  0  0
 29 30  2  0  0  0
 25 30  1  0  0  0
 25 23  1  0  0  0
 13 14  1  0  0  0
 13 12  1  0  0  0
 23 21  1  0  0  0
 14 15  1  0  0  0
 22 21  2  0  0  0
 21 19  1  0  0  0
 20 19  1  0  0  0
 12 16  1  0  0  0
 19 17  1  0  0  0
 15 16  1  0  0  0
 16  1  1  0  0  0
  3  2  1  0  0  0
  3 10  1  0  0  0
 17 10  1  0  0  0
  1  2  1  0  0  0
  1  4  1  0  0  0
  2  6  2  0  0  0
 10  9  2  0  0  0
  4  5  2  0  0  0
  6  5  1  0  0  0
  6  7  1  0  0  0
  9  7  1  0  0  0
  7  8  2  0  0  0
  3 11  1  0  0  0
 17 18  1  0  0  0
 23 24  1  0  0  0
M  END
> <minimizedAffinity>
-8.51893

$$$$
