1M48_FRG_A_301


 37 39  0  0  0  0  0  0  0  0999 V2000
    1.1707   18.4701   -7.8595 C   0  0  0  0  0  0  0  0  0  0  0  0
    1.0586   18.4905   -5.3994 C   0  0  0  0  0  0  0  0  0  0  0  0
    2.1765   18.0176   -5.2922 O   0  0  0  0  0  0  0  0  0  0  0  0
    0.5149   18.8062   -6.5909 N   0  0  0  0  0  0  0  0  0  0  0  0
   -0.3494   19.2771   -6.6109 H   0  0  0  0  0  0  0  0  0  0  0  0
    0.2407   18.7457   -4.1482 C   0  0  0  0  0  0  0  0  0  0  0  0
    0.6922   21.0769   -1.0561 N   0  0  0  0  0  0  0  0  0  0  0  0
    0.3478   19.8991   -1.9004 C   0  0  0  0  0  0  0  0  0  0  0  0
    0.5952   22.4241   -1.6944 C   0  0  0  0  0  0  0  0  0  0  0  0
    0.7920   22.4843   -3.2144 C   0  0  0  0  0  0  0  0  0  0  0  0
    0.3057   21.2652   -3.9955 C   0  0  0  0  0  0  0  0  0  0  0  0
    0.7817   19.9600   -3.3653 C   0  0  0  0  0  0  0  0  0  0  0  0
    2.8086   20.1199   -0.4190 N   0  0  0  0  0  0  0  0  0  0  0  0
    1.7368   20.8356   -0.0790 C   0  0  0  0  0  0  0  0  0  0  0  0
    1.7403   21.3984    1.1315 N   0  0  0  0  0  0  0  0  0  0  0  0
    3.5195   19.9541    0.2415 H   0  0  0  0  0  0  0  0  0  0  0  0
    2.4711   21.2049    1.7622 H   0  0  0  0  0  0  0  0  0  0  0  0
    1.0121   22.0070    1.3936 H   0  0  0  0  0  0  0  0  0  0  0  0
    1.8254   19.6457   -8.5483 C   0  0  0  0  0  0  0  0  0  0  0  0
    1.4976   20.0051   -9.6723 O   0  0  0  0  0  0  0  0  0  0  0  0
    2.9110   20.3583   -7.8928 O   0  0  0  0  0  0  0  0  0  0  0  0
    2.6528   21.4325   -6.9890 C   0  0  0  0  0  0  0  0  0  0  0  0
    0.2174   17.7178   -8.7658 C   0  0  0  0  0  0  0  0  0  0  0  0
    0.2156   16.2384   -8.8212 C   0  0  0  0  0  0  0  0  0  0  0  0
    1.2578   15.5319   -9.4177 C   0  0  0  0  0  0  0  0  0  0  0  0
    1.2566   14.1452   -9.4360 C   0  0  0  0  0  0  0  0  0  0  0  0
   -0.8441   15.5536   -8.2405 C   0  0  0  0  0  0  0  0  0  0  0  0
   -0.8671   14.1779   -8.2616 C   0  0  0  0  0  0  0  0  0  0  0  0
    0.1788   13.4954   -8.8676 C   0  0  0  0  0  0  0  0  0  0  0  0
    0.1188   12.0480   -8.8499 C   0  0  0  0  0  0  0  0  0  0  0  0
    0.0596   10.7543   -8.8925 C   0  0  0  0  0  0  0  0  0  0  0  0
   -0.0513    9.3160   -8.9631 C   0  0  0  0  0  0  0  0  0  0  0  0
   -1.0926    8.7948   -9.7158 C   0  0  0  0  0  0  0  0  0  0  0  0
   -1.2397    7.4244   -9.8027 C   0  0  0  0  0  0  0  0  0  0  0  0
    0.8433    8.5331   -8.2795 C   0  0  0  0  0  0  0  0  0  0  0  0
    0.6971    7.1658   -8.3693 C   0  0  0  0  0  0  0  0  0  0  0  0
   -0.3416    6.6195   -9.1144 C   0  0  0  0  0  0  0  0  0  0  0  0
 13 14  2  0  0  0
 14 15  1  0  0  0
 14  7  1  0  0  0
  7  8  1  0  0  0
  7  9  1  0  0  0
  8 12  1  0  0  0
  9 10  1  0  0  0
 10 11  1  0  0  0
 11 12  1  0  0  0
 12  6  1  0  0  0
  6  2  1  0  0  0
  2  3  2  0  0  0
  2  4  1  0  0  0
  4  1  1  0  0  0
  1 19  1  0  0  0
  1 23  1  0  0  0
 19 20  2  0  0  0
 19 21  1  0  0  0
 21 22  1  0  0  0
 23 24  1  0  0  0
 24 25  2  0  0  0
 24 27  1  0  0  0
 25 26  1  0  0  0
 26 29  2  0  0  0
 27 28  2  0  0  0
 28 29  1  0  0  0
 29 30  1  0  0  0
 30 31  3  0  0  0
 31 32  1  0  0  0
 32 33  2  0  0  0
 32 35  1  0  0  0
 33 34  1  0  0  0
 34 37  2  0  0  0
 35 36  2  0  0  0
 36 37  1  0  0  0
 13 16  1  0  0  0
 15 17  1  0  0  0
 15 18  1  0  0  0
  4  5  1  0  0  0
M  END
> <minimizedAffinity>
-7.88189

$$$$
1M48_FRG_A_301


 37 39  0  0  0  0  0  0  0  0999 V2000
    1.3974   18.5699   -8.8331 C   0  0  0  0  0  0  0  0  0  0  0  0
    1.6934   19.4224   -6.5417 C   0  0  0  0  0  0  0  0  0  0  0  0
    2.1057   18.3486   -6.1392 O   0  0  0  0  0  0  0  0  0  0  0  0
    1.3910   19.6455   -7.8354 N   0  0  0  0  0  0  0  0  0  0  0  0
    1.1585   20.5588   -8.1202 H   0  0  0  0  0  0  0  0  0  0  0  0
    1.5173   20.5627   -5.5576 C   0  0  0  0  0  0  0  0  0  0  0  0
   -0.2941   20.0121   -2.1495 N   0  0  0  0  0  0  0  0  0  0  0  0
   -0.0418   20.3497   -3.5782 C   0  0  0  0  0  0  0  0  0  0  0  0
    0.8260   20.2403   -1.1877 C   0  0  0  0  0  0  0  0  0  0  0  0
    2.2493   20.1674   -1.7549 C   0  0  0  0  0  0  0  0  0  0  0  0
    2.4137   20.6387   -3.1982 C   0  0  0  0  0  0  0  0  0  0  0  0
    1.3546   20.0364   -4.1164 C   0  0  0  0  0  0  0  0  0  0  0  0
   -1.7017   18.2492   -2.9931 N   0  0  0  0  0  0  0  0  0  0  0  0
   -1.1789   18.8815   -1.9425 C   0  0  0  0  0  0  0  0  0  0  0  0
   -1.4124   18.3553   -0.7381 N   0  0  0  0  0  0  0  0  0  0  0  0
   -2.3026   17.4814   -2.8566 H   0  0  0  0  0  0  0  0  0  0  0  0
   -2.0213   17.5872   -0.6461 H   0  0  0  0  0  0  0  0  0  0  0  0
   -0.9756   18.7353    0.0582 H   0  0  0  0  0  0  0  0  0  0  0  0
    1.8325   19.0081  -10.2129 C   0  0  0  0  0  0  0  0  0  0  0  0
    2.6647   19.8906  -10.3819 O   0  0  0  0  0  0  0  0  0  0  0  0
    1.2243   18.4082  -11.3902 O   0  0  0  0  0  0  0  0  0  0  0  0
    1.9321   17.4593  -12.1877 C   0  0  0  0  0  0  0  0  0  0  0  0
    0.0656   17.8472   -8.8418 C   0  0  0  0  0  0  0  0  0  0  0  0
   -0.0080   16.3702   -8.7720 C   0  0  0  0  0  0  0  0  0  0  0  0
   -1.1343   15.7214   -8.2702 C   0  0  0  0  0  0  0  0  0  0  0  0
   -1.2007   14.3365   -8.2382 C   0  0  0  0  0  0  0  0  0  0  0  0
    1.0679   15.6288   -9.2427 C   0  0  0  0  0  0  0  0  0  0  0  0
    1.0235   14.2539   -9.2060 C   0  0  0  0  0  0  0  0  0  0  0  0
   -0.1062   13.6294   -8.6952 C   0  0  0  0  0  0  0  0  0  0  0  0
   -0.1136   12.1806   -8.6930 C   0  0  0  0  0  0  0  0  0  0  0  0
   -0.0731   10.8859   -8.7260 C   0  0  0  0  0  0  0  0  0  0  0  0
   -0.0315    9.4450   -8.8133 C   0  0  0  0  0  0  0  0  0  0  0  0
   -1.0031    8.8264   -9.5852 C   0  0  0  0  0  0  0  0  0  0  0  0
   -1.0044    7.4492   -9.6885 C   0  0  0  0  0  0  0  0  0  0  0  0
    0.9320    8.7521   -8.1261 C   0  0  0  0  0  0  0  0  0  0  0  0
    0.9313    7.3781   -8.2323 C   0  0  0  0  0  0  0  0  0  0  0  0
   -0.0352    6.7348   -8.9969 C   0  0  0  0  0  0  0  0  0  0  0  0
 13 14  2  0  0  0
 14 15  1  0  0  0
 14  7  1  0  0  0
  7  8  1  0  0  0
  7  9  1  0  0  0
  8 12  1  0  0  0
  9 10  1  0  0  0
 10 11  1  0  0  0
 11 12  1  0  0  0
 12  6  1  0  0  0
  6  2  1  0  0  0
  2  3  2  0  0  0
  2  4  1  0  0  0
  4  1  1  0  0  0
  1 19  1  0  0  0
  1 23  1  0  0  0
 19 20  2  0  0  0
 19 21  1  0  0  0
 21 22  1  0  0  0
 23 24  1  0  0  0
 24 25  2  0  0  0
 24 27  1  0  0  0
 25 26  1  0  0  0
 26 29  2  0  0  0
 27 28  2  0  0  0
 28 29  1  0  0  0
 29 30  1  0  0  0
 30 31  3  0  0  0
 31 32  1  0  0  0
 32 33  2  0  0  0
 32 35  1  0  0  0
 33 34  1  0  0  0
 34 37  2  0  0  0
 35 36  2  0  0  0
 36 37  1  0  0  0
 13 16  1  0  0  0
 15 17  1  0  0  0
 15 18  1  0  0  0
  4  5  1  0  0  0
M  END
> <minimizedAffinity>
-7.40117

$$$$
1M48_FRG_A_301


 37 39  0  0  0  0  0  0  0  0999 V2000
   -0.1076   14.0040  -11.7681 C   0  0  0  0  0  0  0  0  0  0  0  0
   -0.6011   12.1389  -10.2374 C   0  0  0  0  0  0  0  0  0  0  0  0
   -1.6214   11.8479  -10.8368 O   0  0  0  0  0  0  0  0  0  0  0  0
    0.2285   13.1175  -10.6484 N   0  0  0  0  0  0  0  0  0  0  0  0
    1.0870   13.2417  -10.1828 H   0  0  0  0  0  0  0  0  0  0  0  0
   -0.2365   11.3704   -8.9819 C   0  0  0  0  0  0  0  0  0  0  0  0
   -1.4104    7.6770   -9.4061 N   0  0  0  0  0  0  0  0  0  0  0  0
   -1.4311    9.1597   -9.2642 C   0  0  0  0  0  0  0  0  0  0  0  0
   -0.3041    6.9426   -8.7217 C   0  0  0  0  0  0  0  0  0  0  0  0
    1.0048    7.7121   -8.5037 C   0  0  0  0  0  0  0  0  0  0  0  0
    0.8600    9.2131   -8.2614 C   0  0  0  0  0  0  0  0  0  0  0  0
   -0.0743    9.8646   -9.2762 C   0  0  0  0  0  0  0  0  0  0  0  0
   -1.0370    6.7019  -11.5765 N   0  0  0  0  0  0  0  0  0  0  0  0
   -1.8978    7.1848  -10.6806 C   0  0  0  0  0  0  0  0  0  0  0  0
   -3.1973    7.0791  -10.9673 N   0  0  0  0  0  0  0  0  0  0  0  0
   -1.3641    6.3670  -12.4426 H   0  0  0  0  0  0  0  0  0  0  0  0
   -3.4813    6.7393  -11.8466 H   0  0  0  0  0  0  0  0  0  0  0  0
   -3.8716    7.3408  -10.2995 H   0  0  0  0  0  0  0  0  0  0  0  0
    0.3068   13.4750  -13.1222 C   0  0  0  0  0  0  0  0  0  0  0  0
    1.4728   13.2099  -13.3871 O   0  0  0  0  0  0  0  0  0  0  0  0
   -0.6865   13.3109  -14.1721 O   0  0  0  0  0  0  0  0  0  0  0  0
   -2.0501   13.6789  -13.9660 C   0  0  0  0  0  0  0  0  0  0  0  0
    0.4042   15.4060  -11.5061 C   0  0  0  0  0  0  0  0  0  0  0  0
    0.3103   16.0200  -10.1623 C   0  0  0  0  0  0  0  0  0  0  0  0
   -0.8252   15.8651   -9.3700 C   0  0  0  0  0  0  0  0  0  0  0  0
   -0.8871   16.4217   -8.1012 C   0  0  0  0  0  0  0  0  0  0  0  0
    1.3957   16.7438   -9.6857 C   0  0  0  0  0  0  0  0  0  0  0  0
    1.3454   17.3135   -8.4342 C   0  0  0  0  0  0  0  0  0  0  0  0
    0.2009   17.1517   -7.6654 C   0  0  0  0  0  0  0  0  0  0  0  0
    0.2015   17.7553   -6.3482 C   0  0  0  0  0  0  0  0  0  0  0  0
    0.2439   18.2571   -5.1544 C   0  0  0  0  0  0  0  0  0  0  0  0
    0.2809   18.7705   -3.8050 C   0  0  0  0  0  0  0  0  0  0  0  0
    1.3862   19.5249   -3.4418 C   0  0  0  0  0  0  0  0  0  0  0  0
    1.4652   20.0278   -2.1580 C   0  0  0  0  0  0  0  0  0  0  0  0
   -0.7443   18.4810   -2.9415 C   0  0  0  0  0  0  0  0  0  0  0  0
   -0.6656   18.9857   -1.6617 C   0  0  0  0  0  0  0  0  0  0  0  0
    0.4344   19.7413   -1.2727 C   0  0  0  0  0  0  0  0  0  0  0  0
 13 14  2  0  0  0
 14 15  1  0  0  0
 14  7  1  0  0  0
  7  8  1  0  0  0
  7  9  1  0  0  0
  8 12  1  0  0  0
  9 10  1  0  0  0
 10 11  1  0  0  0
 11 12  1  0  0  0
 12  6  1  0  0  0
  6  2  1  0  0  0
  2  3  2  0  0  0
  2  4  1  0  0  0
  4  1  1  0  0  0
  1 19  1  0  0  0
  1 23  1  0  0  0
 19 20  2  0  0  0
 19 21  1  0  0  0
 21 22  1  0  0  0
 23 24  1  0  0  0
 24 25  2  0  0  0
 24 27  1  0  0  0
 25 26  1  0  0  0
 26 29  2  0  0  0
 27 28  2  0  0  0
 28 29  1  0  0  0
 29 30  1  0  0  0
 30 31  3  0  0  0
 31 32  1  0  0  0
 32 33  2  0  0  0
 32 35  1  0  0  0
 33 34  1  0  0  0
 34 37  2  0  0  0
 35 36  2  0  0  0
 36 37  1  0  0  0
 13 16  1  0  0  0
 15 17  1  0  0  0
 15 18  1  0  0  0
  4  5  1  0  0  0
M  END
> <minimizedAffinity>
-7.31384

$$$$
1M48_FRG_A_301


 37 39  0  0  0  0  0  0  0  0999 V2000
    1.4660   18.5267   -8.3387 C   0  0  0  0  0  0  0  0  0  0  0  0
    1.5366   18.9608   -5.9156 C   0  0  0  0  0  0  0  0  0  0  0  0
    2.0680   17.8885   -5.6858 O   0  0  0  0  0  0  0  0  0  0  0  0
    1.2694   19.3857   -7.1657 N   0  0  0  0  0  0  0  0  0  0  0  0
    0.9317   20.3012   -7.2962 H   0  0  0  0  0  0  0  0  0  0  0  0
    1.1641   19.8648   -4.7564 C   0  0  0  0  0  0  0  0  0  0  0  0
   -2.3613   19.3435   -3.1754 N   0  0  0  0  0  0  0  0  0  0  0  0
   -1.2721   19.8034   -4.0815 C   0  0  0  0  0  0  0  0  0  0  0  0
   -2.0035   19.1106   -1.7438 C   0  0  0  0  0  0  0  0  0  0  0  0
   -0.5468   18.7315   -1.4486 C   0  0  0  0  0  0  0  0  0  0  0  0
    0.4998   19.3448   -2.3764 C   0  0  0  0  0  0  0  0  0  0  0  0
    0.1123   19.1991   -3.8447 C   0  0  0  0  0  0  0  0  0  0  0  0
   -4.3502   19.0217   -4.4951 N   0  0  0  0  0  0  0  0  0  0  0  0
   -3.3466   18.4833   -3.8026 C   0  0  0  0  0  0  0  0  0  0  0  0
   -3.2384   17.1529   -3.8232 N   0  0  0  0  0  0  0  0  0  0  0  0
   -5.0209   18.4411   -4.9221 H   0  0  0  0  0  0  0  0  0  0  0  0
   -3.9326   16.6093   -4.2611 H   0  0  0  0  0  0  0  0  0  0  0  0
   -2.4644   16.7154   -3.4004 H   0  0  0  0  0  0  0  0  0  0  0  0
    2.0273   19.2449   -9.5446 C   0  0  0  0  0  0  0  0  0  0  0  0
    1.5104   19.1579  -10.6516 O   0  0  0  0  0  0  0  0  0  0  0  0
    3.2438   20.0326   -9.4189 O   0  0  0  0  0  0  0  0  0  0  0  0
    3.9953   20.4237  -10.5677 C   0  0  0  0  0  0  0  0  0  0  0  0
    0.1973   17.7600   -8.6527 C   0  0  0  0  0  0  0  0  0  0  0  0
    0.1939   16.2821   -8.7397 C   0  0  0  0  0  0  0  0  0  0  0  0
    1.2293   15.5881   -9.3622 C   0  0  0  0  0  0  0  0  0  0  0  0
    1.2270   14.2021   -9.4102 C   0  0  0  0  0  0  0  0  0  0  0  0
   -0.8600   15.5855   -8.1627 C   0  0  0  0  0  0  0  0  0  0  0  0
   -0.8841   14.2105   -8.2129 C   0  0  0  0  0  0  0  0  0  0  0  0
    0.1549   13.5408   -8.8445 C   0  0  0  0  0  0  0  0  0  0  0  0
    0.0941   12.0933   -8.8571 C   0  0  0  0  0  0  0  0  0  0  0  0
    0.0167   10.8015   -8.9224 C   0  0  0  0  0  0  0  0  0  0  0  0
   -0.1193    9.3660   -9.0034 C   0  0  0  0  0  0  0  0  0  0  0  0
    0.7860    8.6000   -8.2850 C   0  0  0  0  0  0  0  0  0  0  0  0
    0.6963    7.2230   -8.3416 C   0  0  0  0  0  0  0  0  0  0  0  0
   -1.1027    8.8218   -9.7891 C   0  0  0  0  0  0  0  0  0  0  0  0
   -1.1929    7.4478   -9.8426 C   0  0  0  0  0  0  0  0  0  0  0  0
   -0.2941    6.6585   -9.1344 C   0  0  0  0  0  0  0  0  0  0  0  0
 13 14  2  0  0  0
 14 15  1  0  0  0
 14  7  1  0  0  0
  7  8  1  0  0  0
  7  9  1  0  0  0
  8 12  1  0  0  0
  9 10  1  0  0  0
 10 11  1  0  0  0
 11 12  1  0  0  0
 12  6  1  0  0  0
  6  2  1  0  0  0
  2  3  2  0  0  0
  2  4  1  0  0  0
  4  1  1  0  0  0
  1 19  1  0  0  0
  1 23  1  0  0  0
 19 20  2  0  0  0
 19 21  1  0  0  0
 21 22  1  0  0  0
 23 24  1  0  0  0
 24 25  2  0  0  0
 24 27  1  0  0  0
 25 26  1  0  0  0
 26 29  2  0  0  0
 27 28  2  0  0  0
 28 29  1  0  0  0
 29 30  1  0  0  0
 30 31  3  0  0  0
 31 32  1  0  0  0
 32 33  2  0  0  0
 32 35  1  0  0  0
 33 34  1  0  0  0
 34 37  2  0  0  0
 35 36  2  0  0  0
 36 37  1  0  0  0
 13 16  1  0  0  0
 15 17  1  0  0  0
 15 18  1  0  0  0
  4  5  1  0  0  0
M  END
> <minimizedAffinity>
-7.21018

$$$$
1M48_FRG_A_301


 37 39  0  0  0  0  0  0  0  0999 V2000
    0.9527   18.6893   -8.7451 C   0  0  0  0  0  0  0  0  0  0  0  0
    1.8688   19.9908   -6.8659 C   0  0  0  0  0  0  0  0  0  0  0  0
    2.8610   19.2870   -6.7935 O   0  0  0  0  0  0  0  0  0  0  0  0
    0.9274   19.8234   -7.8148 N   0  0  0  0  0  0  0  0  0  0  0  0
    0.1997   20.4827   -7.8862 H   0  0  0  0  0  0  0  0  0  0  0  0
    1.6797   21.1079   -5.8578 C   0  0  0  0  0  0  0  0  0  0  0  0
    1.6883   20.0086   -2.1173 N   0  0  0  0  0  0  0  0  0  0  0  0
    2.1017   20.6142   -3.4140 C   0  0  0  0  0  0  0  0  0  0  0  0
    0.8544   18.7706   -2.1789 C   0  0  0  0  0  0  0  0  0  0  0  0
   -0.0199   18.5879   -3.4260 C   0  0  0  0  0  0  0  0  0  0  0  0
    0.5496   19.1547   -4.7248 C   0  0  0  0  0  0  0  0  0  0  0  0
    1.0715   20.5767   -4.5432 C   0  0  0  0  0  0  0  0  0  0  0  0
    0.5890   21.9643   -1.2410 N   0  0  0  0  0  0  0  0  0  0  0  0
    1.4500   20.9643   -1.0525 C   0  0  0  0  0  0  0  0  0  0  0  0
    1.9675   20.8298    0.1707 N   0  0  0  0  0  0  0  0  0  0  0  0
    0.4248   22.6148   -0.5206 H   0  0  0  0  0  0  0  0  0  0  0  0
    1.7780   21.5045    0.8623 H   0  0  0  0  0  0  0  0  0  0  0  0
    2.5385   20.0560    0.3813 H   0  0  0  0  0  0  0  0  0  0  0  0
    1.1861   19.0770  -10.1874 C   0  0  0  0  0  0  0  0  0  0  0  0
    0.2667   19.3929  -10.9323 O   0  0  0  0  0  0  0  0  0  0  0  0
    2.5307   19.0372  -10.7411 O   0  0  0  0  0  0  0  0  0  0  0  0
    3.5096   20.0114  -10.3805 C   0  0  0  0  0  0  0  0  0  0  0  0
   -0.2800   17.8271   -8.5634 C   0  0  0  0  0  0  0  0  0  0  0  0
   -0.2018   16.3502   -8.6301 C   0  0  0  0  0  0  0  0  0  0  0  0
    0.8996   15.7050   -9.1887 C   0  0  0  0  0  0  0  0  0  0  0  0
    0.9721   14.3204   -9.2177 C   0  0  0  0  0  0  0  0  0  0  0  0
   -1.2466   15.6053   -8.0988 C   0  0  0  0  0  0  0  0  0  0  0  0
   -1.1964   14.2305   -8.1313 C   0  0  0  0  0  0  0  0  0  0  0  0
   -0.0922   13.6096   -8.6991 C   0  0  0  0  0  0  0  0  0  0  0  0
   -0.0766   12.1609   -8.6949 C   0  0  0  0  0  0  0  0  0  0  0  0
   -0.0518   10.8665   -8.7489 C   0  0  0  0  0  0  0  0  0  0  0  0
   -0.0608    9.4255   -8.8439 C   0  0  0  0  0  0  0  0  0  0  0  0
    0.8970    8.7344   -8.1176 C   0  0  0  0  0  0  0  0  0  0  0  0
    0.9287    7.3554   -8.1870 C   0  0  0  0  0  0  0  0  0  0  0  0
   -0.9810    8.8053   -9.6496 C   0  0  0  0  0  0  0  0  0  0  0  0
   -0.9501    7.4292   -9.7158 C   0  0  0  0  0  0  0  0  0  0  0  0
    0.0034    6.7144   -9.0001 C   0  0  0  0  0  0  0  0  0  0  0  0
 13 14  2  0  0  0
 14 15  1  0  0  0
 14  7  1  0  0  0
  7  8  1  0  0  0
  7  9  1  0  0  0
  8 12  1  0  0  0
  9 10  1  0  0  0
 10 11  1  0  0  0
 11 12  1  0  0  0
 12  6  1  0  0  0
  6  2  1  0  0  0
  2  3  2  0  0  0
  2  4  1  0  0  0
  4  1  1  0  0  0
  1 19  1  0  0  0
  1 23  1  0  0  0
 19 20  2  0  0  0
 19 21  1  0  0  0
 21 22  1  0  0  0
 23 24  1  0  0  0
 24 25  2  0  0  0
 24 27  1  0  0  0
 25 26  1  0  0  0
 26 29  2  0  0  0
 27 28  2  0  0  0
 28 29  1  0  0  0
 29 30  1  0  0  0
 30 31  3  0  0  0
 31 32  1  0  0  0
 32 33  2  0  0  0
 32 35  1  0  0  0
 33 34  1  0  0  0
 34 37  2  0  0  0
 35 36  2  0  0  0
 36 37  1  0  0  0
 13 16  1  0  0  0
 15 17  1  0  0  0
 15 18  1  0  0  0
  4  5  1  0  0  0
M  END
> <minimizedAffinity>
-7.20121

$$$$
1M48_FRG_A_301


 37 39  0  0  0  0  0  0  0  0999 V2000
    1.0598   18.9146   -8.0518 C   0  0  0  0  0  0  0  0  0  0  0  0
    0.7897   18.3404   -5.6722 C   0  0  0  0  0  0  0  0  0  0  0  0
    1.9530   17.9921   -5.5701 O   0  0  0  0  0  0  0  0  0  0  0  0
    0.2846   18.8613   -6.8073 N   0  0  0  0  0  0  0  0  0  0  0  0
   -0.6332   19.2173   -6.8015 H   0  0  0  0  0  0  0  0  0  0  0  0
   -0.1335   18.1937   -4.4781 C   0  0  0  0  0  0  0  0  0  0  0  0
    1.4354   21.4664   -3.0540 N   0  0  0  0  0  0  0  0  0  0  0  0
    1.1302   20.3209   -3.9560 C   0  0  0  0  0  0  0  0  0  0  0  0
    1.3194   21.2257   -1.5842 C   0  0  0  0  0  0  0  0  0  0  0  0
    0.3352   20.1371   -1.1380 C   0  0  0  0  0  0  0  0  0  0  0  0
    0.1778   18.9536   -2.0903 C   0  0  0  0  0  0  0  0  0  0  0  0
   -0.0211   19.4080   -3.5329 C   0  0  0  0  0  0  0  0  0  0  0  0
   -0.0461   23.3619   -3.1687 N   0  0  0  0  0  0  0  0  0  0  0  0
    1.0719   22.7668   -3.5841 C   0  0  0  0  0  0  0  0  0  0  0  0
    1.8687   23.4673   -4.3943 N   0  0  0  0  0  0  0  0  0  0  0  0
   -0.2961   24.2444   -3.5262 H   0  0  0  0  0  0  0  0  0  0  0  0
    1.5794   24.3465   -4.7297 H   0  0  0  0  0  0  0  0  0  0  0  0
    2.7457   23.1046   -4.6564 H   0  0  0  0  0  0  0  0  0  0  0  0
    1.3888   20.3149   -8.5165 C   0  0  0  0  0  0  0  0  0  0  0  0
    2.5277   20.6481   -8.8197 O   0  0  0  0  0  0  0  0  0  0  0  0
    0.3443   21.3260   -8.5697 O   0  0  0  0  0  0  0  0  0  0  0  0
    0.2871   22.3832   -7.6123 C   0  0  0  0  0  0  0  0  0  0  0  0
    0.3920   18.0829   -9.1281 C   0  0  0  0  0  0  0  0  0  0  0  0
    0.2683   16.6134   -8.9980 C   0  0  0  0  0  0  0  0  0  0  0  0
   -0.8476   16.0276   -8.4039 C   0  0  0  0  0  0  0  0  0  0  0  0
   -0.9631   14.6484   -8.3154 C   0  0  0  0  0  0  0  0  0  0  0  0
    1.2845   15.8140   -9.5052 C   0  0  0  0  0  0  0  0  0  0  0  0
    1.1915   14.4441   -9.4137 C   0  0  0  0  0  0  0  0  0  0  0  0
    0.0737   13.8830   -8.8115 C   0  0  0  0  0  0  0  0  0  0  0  0
    0.0127   12.4366   -8.7539 C   0  0  0  0  0  0  0  0  0  0  0  0
    0.0134   11.1413   -8.7225 C   0  0  0  0  0  0  0  0  0  0  0  0
    0.0251    9.6972   -8.7370 C   0  0  0  0  0  0  0  0  0  0  0  0
   -0.8807    9.0624   -9.5732 C   0  0  0  0  0  0  0  0  0  0  0  0
   -0.9084    7.6821   -9.6110 C   0  0  0  0  0  0  0  0  0  0  0  0
    0.8963    9.0184   -7.9241 C   0  0  0  0  0  0  0  0  0  0  0  0
    0.8695    7.6413   -7.9648 C   0  0  0  0  0  0  0  0  0  0  0  0
   -0.0325    6.9820   -8.7919 C   0  0  0  0  0  0  0  0  0  0  0  0
 13 14  2  0  0  0
 14 15  1  0  0  0
 14  7  1  0  0  0
  7  8  1  0  0  0
  7  9  1  0  0  0
  8 12  1  0  0  0
  9 10  1  0  0  0
 10 11  1  0  0  0
 11 12  1  0  0  0
 12  6  1  0  0  0
  6  2  1  0  0  0
  2  3  2  0  0  0
  2  4  1  0  0  0
  4  1  1  0  0  0
  1 19  1  0  0  0
  1 23  1  0  0  0
 19 20  2  0  0  0
 19 21  1  0  0  0
 21 22  1  0  0  0
 23 24  1  0  0  0
 24 25  2  0  0  0
 24 27  1  0  0  0
 25 26  1  0  0  0
 26 29  2  0  0  0
 27 28  2  0  0  0
 28 29  1  0  0  0
 29 30  1  0  0  0
 30 31  3  0  0  0
 31 32  1  0  0  0
 32 33  2  0  0  0
 32 35  1  0  0  0
 33 34  1  0  0  0
 34 37  2  0  0  0
 35 36  2  0  0  0
 36 37  1  0  0  0
 13 16  1  0  0  0
 15 17  1  0  0  0
 15 18  1  0  0  0
  4  5  1  0  0  0
M  END
> <minimizedAffinity>
-7.02087

$$$$
1M48_FRG_A_301


 37 39  0  0  0  0  0  0  0  0999 V2000
   -0.8127   18.9696   -8.4188 C   0  0  0  0  0  0  0  0  0  0  0  0
    0.8469   19.1813   -6.6116 C   0  0  0  0  0  0  0  0  0  0  0  0
    1.3649   20.1548   -7.1301 O   0  0  0  0  0  0  0  0  0  0  0  0
   -0.2472   18.5831   -7.1214 N   0  0  0  0  0  0  0  0  0  0  0  0
   -0.6808   17.8641   -6.6074 H   0  0  0  0  0  0  0  0  0  0  0  0
    1.4441   18.6169   -5.3370 C   0  0  0  0  0  0  0  0  0  0  0  0
    1.1057   19.5494   -1.5666 N   0  0  0  0  0  0  0  0  0  0  0  0
    1.4562   18.8186   -2.8164 C   0  0  0  0  0  0  0  0  0  0  0  0
   -0.1461   20.3646   -1.5827 C   0  0  0  0  0  0  0  0  0  0  0  0
   -0.5993   20.9080   -2.9437 C   0  0  0  0  0  0  0  0  0  0  0  0
   -0.2821   20.0262   -4.1496 C   0  0  0  0  0  0  0  0  0  0  0  0
    1.1637   19.5396   -4.1326 C   0  0  0  0  0  0  0  0  0  0  0  0
    3.4800   19.7149   -1.1977 N   0  0  0  0  0  0  0  0  0  0  0  0
    2.2446   20.0253   -0.8049 C   0  0  0  0  0  0  0  0  0  0  0  0
    2.1273   20.8699    0.2222 N   0  0  0  0  0  0  0  0  0  0  0  0
    4.2554   20.0360   -0.6832 H   0  0  0  0  0  0  0  0  0  0  0  0
    2.9295   21.1659    0.7102 H   0  0  0  0  0  0  0  0  0  0  0  0
    1.2386   21.1969    0.4916 H   0  0  0  0  0  0  0  0  0  0  0  0
   -2.3237   18.9662   -8.4611 C   0  0  0  0  0  0  0  0  0  0  0  0
   -2.9966   18.4172   -7.5975 O   0  0  0  0  0  0  0  0  0  0  0  0
   -3.0198   19.5890   -9.5763 O   0  0  0  0  0  0  0  0  0  0  0  0
   -3.6997   18.8049  -10.5563 C   0  0  0  0  0  0  0  0  0  0  0  0
   -0.1945   18.1485   -9.5322 C   0  0  0  0  0  0  0  0  0  0  0  0
   -0.1085   16.6733   -9.4427 C   0  0  0  0  0  0  0  0  0  0  0  0
    1.1154   16.0240   -9.2947 C   0  0  0  0  0  0  0  0  0  0  0  0
    1.1777   14.6431   -9.1827 C   0  0  0  0  0  0  0  0  0  0  0  0
   -1.2846   15.9358   -9.4852 C   0  0  0  0  0  0  0  0  0  0  0  0
   -1.2393   14.5639   -9.3885 C   0  0  0  0  0  0  0  0  0  0  0  0
   -0.0079   13.9384   -9.2486 C   0  0  0  0  0  0  0  0  0  0  0  0
   -0.0122   12.4941   -9.1337 C   0  0  0  0  0  0  0  0  0  0  0  0
   -0.0059   11.2084   -8.9734 C   0  0  0  0  0  0  0  0  0  0  0  0
    0.0477    9.7788   -8.7752 C   0  0  0  0  0  0  0  0  0  0  0  0
   -0.8464    9.0029   -9.4970 C   0  0  0  0  0  0  0  0  0  0  0  0
   -0.8342    7.6319   -9.3308 C   0  0  0  0  0  0  0  0  0  0  0  0
    0.9453    9.2517   -7.8824 C   0  0  0  0  0  0  0  0  0  0  0  0
    0.9583    7.8834   -7.7196 C   0  0  0  0  0  0  0  0  0  0  0  0
    0.0687    7.0847   -8.4289 C   0  0  0  0  0  0  0  0  0  0  0  0
 13 14  2  0  0  0
 14 15  1  0  0  0
 14  7  1  0  0  0
  7  8  1  0  0  0
  7  9  1  0  0  0
  8 12  1  0  0  0
  9 10  1  0  0  0
 10 11  1  0  0  0
 11 12  1  0  0  0
 12  6  1  0  0  0
  6  2  1  0  0  0
  2  3  2  0  0  0
  2  4  1  0  0  0
  4  1  1  0  0  0
  1 19  1  0  0  0
  1 23  1  0  0  0
 19 20  2  0  0  0
 19 21  1  0  0  0
 21 22  1  0  0  0
 23 24  1  0  0  0
 24 25  2  0  0  0
 24 27  1  0  0  0
 25 26  1  0  0  0
 26 29  2  0  0  0
 27 28  2  0  0  0
 28 29  1  0  0  0
 29 30  1  0  0  0
 30 31  3  0  0  0
 31 32  1  0  0  0
 32 33  2  0  0  0
 32 35  1  0  0  0
 33 34  1  0  0  0
 34 37  2  0  0  0
 35 36  2  0  0  0
 36 37  1  0  0  0
 13 16  1  0  0  0
 15 17  1  0  0  0
 15 18  1  0  0  0
  4  5  1  0  0  0
M  END
> <minimizedAffinity>
-6.98768

$$$$
1M48_FRG_A_301


 37 39  0  0  0  0  0  0  0  0999 V2000
   -0.8912   16.3602   -9.7544 C   0  0  0  0  0  0  0  0  0  0  0  0
   -1.4660   14.0039  -10.1815 C   0  0  0  0  0  0  0  0  0  0  0  0
   -2.2806   13.9837   -9.2754 O   0  0  0  0  0  0  0  0  0  0  0  0
   -0.7967   15.1194  -10.5316 N   0  0  0  0  0  0  0  0  0  0  0  0
   -0.2265   15.1014  -11.3339 H   0  0  0  0  0  0  0  0  0  0  0  0
   -1.1924   12.7304  -10.9582 C   0  0  0  0  0  0  0  0  0  0  0  0
   -0.3193    9.5616   -8.8616 N   0  0  0  0  0  0  0  0  0  0  0  0
   -1.0423   10.5145   -9.7494 C   0  0  0  0  0  0  0  0  0  0  0  0
    0.5607   10.1478   -7.8063 C   0  0  0  0  0  0  0  0  0  0  0  0
    1.1544   11.5328   -8.0927 C   0  0  0  0  0  0  0  0  0  0  0  0
    0.2815   12.4701   -8.9246 C   0  0  0  0  0  0  0  0  0  0  0  0
   -0.2807   11.7749  -10.1607 C   0  0  0  0  0  0  0  0  0  0  0  0
    1.2498    7.7642   -9.1903 N   0  0  0  0  0  0  0  0  0  0  0  0
    0.0807    8.3232   -9.5023 C   0  0  0  0  0  0  0  0  0  0  0  0
   -0.7232    7.6368  -10.3176 N   0  0  0  0  0  0  0  0  0  0  0  0
    1.5247    6.9237   -9.6230 H   0  0  0  0  0  0  0  0  0  0  0  0
   -0.4081    6.8003  -10.7301 H   0  0  0  0  0  0  0  0  0  0  0  0
   -1.6312    7.9672  -10.5063 H   0  0  0  0  0  0  0  0  0  0  0  0
   -1.4396   17.5361  -10.5301 C   0  0  0  0  0  0  0  0  0  0  0  0
   -0.7136   18.2915  -11.1643 O   0  0  0  0  0  0  0  0  0  0  0  0
   -2.8650   17.8243  -10.4995 O   0  0  0  0  0  0  0  0  0  0  0  0
   -3.6833   17.4009   -9.4093 C   0  0  0  0  0  0  0  0  0  0  0  0
    0.4325   16.6677   -9.0841 C   0  0  0  0  0  0  0  0  0  0  0  0
    0.4889   17.2307   -7.7161 C   0  0  0  0  0  0  0  0  0  0  0  0
    1.6719   17.7457   -7.1901 C   0  0  0  0  0  0  0  0  0  0  0  0
    1.7027   18.2966   -5.9178 C   0  0  0  0  0  0  0  0  0  0  0  0
   -0.6768   17.2603   -6.9617 C   0  0  0  0  0  0  0  0  0  0  0  0
   -0.6605   17.7916   -5.6924 C   0  0  0  0  0  0  0  0  0  0  0  0
    0.5312   18.2926   -5.1867 C   0  0  0  0  0  0  0  0  0  0  0  0
    0.4951   18.8570   -3.8528 C   0  0  0  0  0  0  0  0  0  0  0  0
    0.4302   19.4059   -2.6809 C   0  0  0  0  0  0  0  0  0  0  0  0
    0.3781   20.0599   -1.3942 C   0  0  0  0  0  0  0  0  0  0  0  0
   -0.8457   20.0849   -0.7428 C   0  0  0  0  0  0  0  0  0  0  0  0
   -0.9410   20.7077    0.4862 C   0  0  0  0  0  0  0  0  0  0  0  0
    1.5102   20.6410   -0.8832 C   0  0  0  0  0  0  0  0  0  0  0  0
    1.4143   21.2596    0.3445 C   0  0  0  0  0  0  0  0  0  0  0  0
    0.1974   21.3014    1.0150 C   0  0  0  0  0  0  0  0  0  0  0  0
 13 14  2  0  0  0
 14 15  1  0  0  0
 14  7  1  0  0  0
  7  8  1  0  0  0
  7  9  1  0  0  0
  8 12  1  0  0  0
  9 10  1  0  0  0
 10 11  1  0  0  0
 11 12  1  0  0  0
 12  6  1  0  0  0
  6  2  1  0  0  0
  2  3  2  0  0  0
  2  4  1  0  0  0
  4  1  1  0  0  0
  1 19  1  0  0  0
  1 23  1  0  0  0
 19 20  2  0  0  0
 19 21  1  0  0  0
 21 22  1  0  0  0
 23 24  1  0  0  0
 24 25  2  0  0  0
 24 27  1  0  0  0
 25 26  1  0  0  0
 26 29  2  0  0  0
 27 28  2  0  0  0
 28 29  1  0  0  0
 29 30  1  0  0  0
 30 31  3  0  0  0
 31 32  1  0  0  0
 32 33  2  0  0  0
 32 35  1  0  0  0
 33 34  1  0  0  0
 34 37  2  0  0  0
 35 36  2  0  0  0
 36 37  1  0  0  0
 13 16  1  0  0  0
 15 17  1  0  0  0
 15 18  1  0  0  0
  4  5  1  0  0  0
M  END
> <minimizedAffinity>
-6.65510

$$$$
1M48_FRG_A_301


 37 39  0  0  0  0  0  0  0  0999 V2000
    0.2249   18.4136   -7.2538 C   0  0  0  0  0  0  0  0  0  0  0  0
   -1.5733   19.9971   -6.6846 C   0  0  0  0  0  0  0  0  0  0  0  0
   -2.1771   19.1600   -6.0369 O   0  0  0  0  0  0  0  0  0  0  0  0
   -0.3760   19.7520   -7.2513 N   0  0  0  0  0  0  0  0  0  0  0  0
    0.1110   20.4942   -7.6771 H   0  0  0  0  0  0  0  0  0  0  0  0
   -2.1803   21.3758   -6.8596 C   0  0  0  0  0  0  0  0  0  0  0  0
   -0.3818   22.4655   -3.5767 N   0  0  0  0  0  0  0  0  0  0  0  0
   -0.6812   21.7766   -4.8630 C   0  0  0  0  0  0  0  0  0  0  0  0
   -1.5462   22.8569   -2.7265 C   0  0  0  0  0  0  0  0  0  0  0  0
   -2.8717   23.1236   -3.4508 C   0  0  0  0  0  0  0  0  0  0  0  0
   -3.1252   22.2849   -4.7017 C   0  0  0  0  0  0  0  0  0  0  0  0
   -1.9125   22.2644   -5.6270 C   0  0  0  0  0  0  0  0  0  0  0  0
    1.9249   22.8762   -4.1347 N   0  0  0  0  0  0  0  0  0  0  0  0
    0.7855   23.3260   -3.6091 C   0  0  0  0  0  0  0  0  0  0  0  0
    0.7506   24.6084   -3.2401 N   0  0  0  0  0  0  0  0  0  0  0  0
    2.7192   23.4573   -4.1585 H   0  0  0  0  0  0  0  0  0  0  0  0
    1.5689   25.1543   -3.2790 H   0  0  0  0  0  0  0  0  0  0  0  0
   -0.0936   25.0083   -2.9290 H   0  0  0  0  0  0  0  0  0  0  0  0
    1.6850   18.3899   -6.8634 C   0  0  0  0  0  0  0  0  0  0  0  0
    2.5755   18.6533   -7.6619 O   0  0  0  0  0  0  0  0  0  0  0  0
    2.0694   18.0013   -5.5153 O   0  0  0  0  0  0  0  0  0  0  0  0
    1.3704   18.4966   -4.3737 C   0  0  0  0  0  0  0  0  0  0  0  0
   -0.0392   17.7166   -8.5732 C   0  0  0  0  0  0  0  0  0  0  0  0
    0.0133   16.2415   -8.6873 C   0  0  0  0  0  0  0  0  0  0  0  0
    1.1009   15.5958   -9.2716 C   0  0  0  0  0  0  0  0  0  0  0  0
    1.1493   14.2118   -9.3450 C   0  0  0  0  0  0  0  0  0  0  0  0
   -1.0420   15.4980   -8.1749 C   0  0  0  0  0  0  0  0  0  0  0  0
   -1.0156   14.1243   -8.2515 C   0  0  0  0  0  0  0  0  0  0  0  0
    0.0752   13.5031   -8.8442 C   0  0  0  0  0  0  0  0  0  0  0  0
    0.0658   12.0549   -8.8863 C   0  0  0  0  0  0  0  0  0  0  0  0
   -0.0004   10.7618   -8.9343 C   0  0  0  0  0  0  0  0  0  0  0  0
   -0.1086    9.3217   -8.9506 C   0  0  0  0  0  0  0  0  0  0  0  0
    0.8887    8.6018   -8.3106 C   0  0  0  0  0  0  0  0  0  0  0  0
    0.8278    7.2221   -8.3099 C   0  0  0  0  0  0  0  0  0  0  0  0
   -1.1582    8.7284   -9.6041 C   0  0  0  0  0  0  0  0  0  0  0  0
   -1.2193    7.3518   -9.6002 C   0  0  0  0  0  0  0  0  0  0  0  0
   -0.2289    6.6081   -8.9689 C   0  0  0  0  0  0  0  0  0  0  0  0
 13 14  2  0  0  0
 14 15  1  0  0  0
 14  7  1  0  0  0
  7  8  1  0  0  0
  7  9  1  0  0  0
  8 12  1  0  0  0
  9 10  1  0  0  0
 10 11  1  0  0  0
 11 12  1  0  0  0
 12  6  1  0  0  0
  6  2  1  0  0  0
  2  3  2  0  0  0
  2  4  1  0  0  0
  4  1  1  0  0  0
  1 19  1  0  0  0
  1 23  1  0  0  0
 19 20  2  0  0  0
 19 21  1  0  0  0
 21 22  1  0  0  0
 23 24  1  0  0  0
 24 25  2  0  0  0
 24 27  1  0  0  0
 25 26  1  0  0  0
 26 29  2  0  0  0
 27 28  2  0  0  0
 28 29  1  0  0  0
 29 30  1  0  0  0
 30 31  3  0  0  0
 31 32  1  0  0  0
 32 33  2  0  0  0
 32 35  1  0  0  0
 33 34  1  0  0  0
 34 37  2  0  0  0
 35 36  2  0  0  0
 36 37  1  0  0  0
 13 16  1  0  0  0
 15 17  1  0  0  0
 15 18  1  0  0  0
  4  5  1  0  0  0
M  END
> <minimizedAffinity>
-6.60638

$$$$
1M48_FRG_A_301


 37 39  0  0  0  0  0  0  0  0999 V2000
    1.0732   18.6733   -8.0310 C   0  0  0  0  0  0  0  0  0  0  0  0
    1.2883   18.5835   -5.5794 C   0  0  0  0  0  0  0  0  0  0  0  0
    2.5046   18.6363   -5.6316 O   0  0  0  0  0  0  0  0  0  0  0  0
    0.5102   18.6628   -6.6762 N   0  0  0  0  0  0  0  0  0  0  0  0
   -0.4666   18.7154   -6.5653 H   0  0  0  0  0  0  0  0  0  0  0  0
    0.6122   18.4305   -4.2306 C   0  0  0  0  0  0  0  0  0  0  0  0
   -2.3586   20.6747   -3.0738 N   0  0  0  0  0  0  0  0  0  0  0  0
   -0.9845   20.1254   -3.2446 C   0  0  0  0  0  0  0  0  0  0  0  0
   -3.4921   19.7032   -3.1292 C   0  0  0  0  0  0  0  0  0  0  0  0
   -3.2707   18.4295   -3.9547 C   0  0  0  0  0  0  0  0  0  0  0  0
   -1.8414   17.8917   -3.9751 C   0  0  0  0  0  0  0  0  0  0  0  0
   -0.8244   18.9927   -4.2591 C   0  0  0  0  0  0  0  0  0  0  0  0
   -1.5262   22.8630   -3.6388 N   0  0  0  0  0  0  0  0  0  0  0  0
   -2.5482   22.0077   -3.6135 C   0  0  0  0  0  0  0  0  0  0  0  0
   -3.6807   22.3956   -4.2042 N   0  0  0  0  0  0  0  0  0  0  0  0
   -1.6512   23.7686   -4.0043 H   0  0  0  0  0  0  0  0  0  0  0  0
   -3.7638   23.3114   -4.5560 H   0  0  0  0  0  0  0  0  0  0  0  0
   -4.4329   21.7660   -4.2881 H   0  0  0  0  0  0  0  0  0  0  0  0
    1.3848   20.0542   -8.5611 C   0  0  0  0  0  0  0  0  0  0  0  0
    1.0487   21.0700   -7.9652 O   0  0  0  0  0  0  0  0  0  0  0  0
    2.0640   20.2049   -9.8386 O   0  0  0  0  0  0  0  0  0  0  0  0
    3.0027   21.2574  -10.0590 C   0  0  0  0  0  0  0  0  0  0  0  0
    0.2017   17.8679   -8.9733 C   0  0  0  0  0  0  0  0  0  0  0  0
    0.1255   16.3925   -8.8780 C   0  0  0  0  0  0  0  0  0  0  0  0
   -0.9445   15.7589   -8.2496 C   0  0  0  0  0  0  0  0  0  0  0  0
   -1.0170   14.3751   -8.1938 C   0  0  0  0  0  0  0  0  0  0  0  0
    1.1389   15.6368   -9.4530 C   0  0  0  0  0  0  0  0  0  0  0  0
    1.0889   14.2628   -9.3950 C   0  0  0  0  0  0  0  0  0  0  0  0
    0.0166   13.6537   -8.7577 C   0  0  0  0  0  0  0  0  0  0  0  0
   -0.0009   12.2051   -8.7370 C   0  0  0  0  0  0  0  0  0  0  0  0
   -0.0084   10.9100   -8.7767 C   0  0  0  0  0  0  0  0  0  0  0  0
   -0.0552    9.4686   -8.8539 C   0  0  0  0  0  0  0  0  0  0  0  0
    0.9494    8.7643   -8.2079 C   0  0  0  0  0  0  0  0  0  0  0  0
    0.9467    7.3844   -8.2640 C   0  0  0  0  0  0  0  0  0  0  0  0
   -1.0562    8.8604   -9.5670 C   0  0  0  0  0  0  0  0  0  0  0  0
   -1.0593    7.4834   -9.6199 C   0  0  0  0  0  0  0  0  0  0  0  0
   -0.0604    6.7554   -8.9838 C   0  0  0  0  0  0  0  0  0  0  0  0
 13 14  2  0  0  0
 14 15  1  0  0  0
 14  7  1  0  0  0
  7  8  1  0  0  0
  7  9  1  0  0  0
  8 12  1  0  0  0
  9 10  1  0  0  0
 10 11  1  0  0  0
 11 12  1  0  0  0
 12  6  1  0  0  0
  6  2  1  0  0  0
  2  3  2  0  0  0
  2  4  1  0  0  0
  4  1  1  0  0  0
  1 19  1  0  0  0
  1 23  1  0  0  0
 19 20  2  0  0  0
 19 21  1  0  0  0
 21 22  1  0  0  0
 23 24  1  0  0  0
 24 25  2  0  0  0
 24 27  1  0  0  0
 25 26  1  0  0  0
 26 29  2  0  0  0
 27 28  2  0  0  0
 28 29  1  0  0  0
 29 30  1  0  0  0
 30 31  3  0  0  0
 31 32  1  0  0  0
 32 33  2  0  0  0
 32 35  1  0  0  0
 33 34  1  0  0  0
 34 37  2  0  0  0
 35 36  2  0  0  0
 36 37  1  0  0  0
 13 16  1  0  0  0
 15 17  1  0  0  0
 15 18  1  0  0  0
  4  5  1  0  0  0
M  END
> <minimizedAffinity>
-6.51544

$$$$
