4XTX_590_A_301
  RCSB PDB12061716173D
Coordinates from PDB:4XTX:A:301 Model:1 without hydrogens
 40 44  0  0  0  0            999 V2000
   -2.2697  -10.0398   13.8582   C 0  0  0  0  0  0  0  0  0  0  0  0
   -1.1196   -9.1862   13.5942   N 0  0  0  0  0  0  0  0  0  0  0  0
   -0.1727   -9.3125   14.5097   C 0  0  0  0  0  0  0  0  0  0  0  0
    0.9182   -8.7668   14.4694   O 0  0  0  0  0  0  0  0  0  0  0  0
   -0.5757  -10.1197   15.4741   N 0  0  0  0  0  0  0  0  0  0  0  0
   -1.9234  -10.6184   15.2463   C 0  0  0  0  0  0  0  0  0  0  0  0
   -2.7495   -9.9683   16.3506   C 0  0  0  0  0  0  0  0  0  0  0  0
   -3.4843   -8.5626   15.6025   S 0  0  0  0  0  0  0  0  0  0  0  0
   -3.4730   -9.1051   13.9359   C 0  0  0  0  0  0  0  0  0  0  0  0
   -3.3833   -7.9066   12.9999   C 0  0  0  0  0  0  0  0  0  0  0  0
   -3.7135   -8.3085   11.5684   C 0  0  0  0  0  0  0  0  0  0  0  0
   -3.8741   -7.0991   10.6563   C 0  0  0  0  0  0  0  0  0  0  0  0
   -4.3263   -7.5644    9.2780   C 0  0  0  0  0  0  0  0  0  0  0  0
   -4.7075   -6.3967    8.3982   C 0  0  0  0  0  0  0  0  0  0  0  0
   -5.8354   -5.9349    8.4530   O 0  0  0  0  0  0  0  0  0  0  0  0
   -3.7625   -5.9242    7.5855   N 0  0  0  0  0  0  0  0  0  0  0  0
   -4.0356   -4.7547    6.6459   S 0  0  0  0  0  0  0  0  0  0  0  0
   -5.1533   -5.0595    5.7964   O 0  0  0  0  0  0  0  0  0  0  0  0
   -2.8777   -4.5318    5.8265   O 0  0  0  0  0  0  0  0  0  0  0  0
   -4.3474   -3.4758    7.4401   O 0  0  0  0  0  0  0  0  0  0  0  0
   -3.3067   -2.6577    7.9790   C 0  0  0  0  0  0  0  0  0  0  0  0
   -3.7368   -1.1907    7.9190   C 0  0  0  0  0  0  0  0  0  0  0  0
   -4.9466   -0.9590    8.6510   O 0  0  0  0  0  0  0  0  0  0  0  0
   -2.7113   -0.2245    8.4857   C 0  0  0  0  0  0  0  0  0  0  0  0
   -1.8151    0.2100    7.4622   O 0  0  0  0  0  0  0  0  0  0  0  0
   -3.5670    0.9259    8.9679   C 0  0  0  0  0  0  0  0  0  0  0  0
   -4.8773    0.2603    9.3986   C 0  0  0  0  0  0  0  0  0  0  0  0
   -5.0044   -0.0786   10.8478   N 0  0  0  0  0  0  0  0  0  0  0  0
   -4.0276   -0.2464   11.7532   C 0  0  0  0  0  0  0  0  0  0  0  0
   -4.5686   -0.5553   12.9512   N 0  0  0  0  0  0  0  0  0  0  0  0
   -5.9047   -0.6024   12.7910   C 0  0  0  0  0  0  0  0  0  0  0  0
   -6.1704   -0.3071   11.4649   C 0  0  0  0  0  0  0  0  0  0  0  0
   -7.4541   -0.2865   11.0329   N 0  0  0  0  0  0  0  0  0  0  0  0
   -8.4545   -0.5530   11.8800   C 0  0  0  0  0  0  0  0  0  0  0  0
   -8.2222   -0.8391   13.1687   N 0  0  0  0  0  0  0  0  0  0  0  0
   -6.9616   -0.8726   13.6505   C 0  0  0  0  0  0  0  0  0  0  0  0
   -6.7409   -1.1680   14.9554   N 0  0  0  0  0  0  0  0  0  0  0  0
   -0.7188    0.9533   11.0451   N 0  5  0  0  0  0  0  0  0  0  0  0
   -1.7130    1.2776   10.5474   N 0  3  0  0  0  0  0  0  0  0  0  0
   -2.8936    1.7081    9.9861   N 0  0  0  0  0  0  0  0  0  0  0  0
 18 17  2  0  0  0  0
 19 17  2  0  0  0  0
 17 20  1  0  0  0  0
 17 16  1  0  0  0  0
 20 21  1  0  0  0  0
 25 24  1  0  0  0  0
 16 14  1  0  0  0  0
 22 21  1  0  0  0  0
 22 24  1  0  0  0  0
 22 23  1  0  0  0  0
 14 15  2  0  0  0  0
 14 13  1  0  0  0  0
 24 26  1  0  0  0  0
 23 27  1  0  0  0  0
 26 27  1  0  0  0  0
 13 12  1  0  0  0  0
 27 28  1  0  0  0  0
 38 39  2  0  0  0  0
 12 11  1  0  0  0  0
 28 32  1  0  0  0  0
 28 29  1  0  0  0  0
 33 32  2  0  0  0  0
 33 34  1  0  0  0  0
 32 31  1  0  0  0  0
 11 10  1  0  0  0  0
 29 30  2  0  0  0  0
 34 35  2  0  0  0  0
 31 30  1  0  0  0  0
 31 36  2  0  0  0  0
 10  9  1  0  0  0  0
 35 36  1  0  0  0  0
  2  1  1  0  0  0  0
  2  3  1  0  0  0  0
 36 37  1  0  0  0  0
  1  9  1  0  0  0  0
  1  6  1  0  0  0  0
  9  8  1  0  0  0  0
  4  3  2  0  0  0  0
  3  5  1  0  0  0  0
  6  5  1  0  0  0  0
  6  7  1  0  0  0  0
  8  7  1  0  0  0  0
 26 40  1  0  0  0  0
 39 40  2  0  0  0  0
M  CHG  2  38  -1  39   1
A    1
CBI
A    2
NAU
A    3
CBA
A    4
OAC
A    5
NAT
A    6
CBF
A    7
CAO
A    8
SAY
A    9
CBH
A   10
CAK
A   11
CAI
A   12
CAH
A   13
CAJ
A   14
CAZ
A   15
OAB
A   16
NAV
A   17
SBK
A   18
OAD
A   19
OAE
A   20
OAW
A   21
CAN
A   22
CBE
A   23
OAX
A   24
CAL
A   25
OAL
A   26
CAM
A   27
CBG
A   28
N9
A   29
C8
A   30
N7
A   31
C5
A   32
C4
A   33
N3
A   34
C2
A   35
N1
A   36
C6
A   37
N6
A   38
N5
A   39
N2
A   40
N8Q
M  END
>  <InstanceId>
4XTX_590_A_301

>  <ChemCompId>
590

>  <PdbId>
4XTX

>  <ChainId>
A

>  <ResidueNumber>
301

>  <InsertionCode>


>  <Model>
1

>  <AltIds>


>  <MissingHeavyAtoms>
0

>  <ObservedFormula>
C20 N11 O7 S2

>  <Name>
9-[2-azido-2-deoxy-5-O-({5-[(3aS,4S,6aR)-2-oxohexahydro-1H-thieno[3,4-d]imidazol-4-yl]pentanoyl}sulfamoyl)-beta-D-arabinofuranosyl]-9H-purin-6-amine

>  <SystematicName>
[(2R,3S,5R)-5-(6-aminopurin-9-yl)-4-azido-3-oxidanyl-oxolan-2-yl]methyl N-[5-[(3aS,4S,6aR)-2-oxidanylidene-1,3,3a,4,6,6a-hexahydrothieno[3,4-d]imidazol-4-yl]pentanoyl]sulfamate

>  <Synonyms>


>  <Type>
NON-POLYMER

>  <Formula>
C20 H27 N11 O7 S2

>  <MolecularWeight>
597.628

>  <ModifiedDate>
2015-08-28

>  <Parent>


>  <OneLetterCode>


>  <SubcomponentList>


>  <AmbiguousFlag>
N

>  <InChI>
InChI=1S/C20H27N11O7S2/c21-17-15-18(24-7-23-17)31(8-25-15)19-14(28-30-22)16(33)10(38-19)5-37-40(35,36)29-12(32)4-2-1-3-11-13-9(6-39-11)26-20(34)27-13/h7-11,13-14,16,19,33H,1-6H2,(H,29,32)(H2,21,23,24)(H2,26,27,34)/t9-,10+,11-,13-,14-,16+,19+/m0/s1

>  <InChIKey>
UYTYJXXHSCNPCG-ROPJLRCXSA-N

>  <SMILES>
c1nc(c2c(n1)n(cn2)[C@H]3C([C@@H]([C@H](O3)COS(=O)(=O)NC(=O)CCCC[C@H]4[C@@H]5[C@H](CS4)NC(=O)N5)O)N=[N+]=[N-])N

$$$$
