5KAT_P4P_A_201


 25 28  0  0  0  0  0  0  0  0999 V2000
  -16.0420  -13.3258   -8.4580 P   0  0  0  0  0  0  0  0  0  0  0  0
  -14.6377  -12.4202   -9.1702 C   0  0  0  0  0  0  0  0  0  0  0  0
  -13.8478  -11.6002   -8.3834 C   0  0  0  0  0  0  0  0  0  0  0  0
  -12.7800  -10.9209   -8.9517 C   0  0  0  0  0  0  0  0  0  0  0  0
  -12.5013  -11.0602  -10.3027 C   0  0  0  0  0  0  0  0  0  0  0  0
  -13.2913  -11.8812  -11.0884 C   0  0  0  0  0  0  0  0  0  0  0  0
  -14.3583  -12.5616  -10.5228 C   0  0  0  0  0  0  0  0  0  0  0  0
  -17.5522  -12.3401   -8.7233 C   0  0  0  0  0  0  0  0  0  0  0  0
  -17.4543  -10.9688   -8.9217 C   0  0  0  0  0  0  0  0  0  0  0  0
  -18.5965  -10.2067   -9.1220 C   0  0  0  0  0  0  0  0  0  0  0  0
  -19.8421  -10.8134   -9.1228 C   0  0  0  0  0  0  0  0  0  0  0  0
  -19.9425  -12.1820   -8.9235 C   0  0  0  0  0  0  0  0  0  0  0  0
  -18.8003  -12.9441   -8.7232 C   0  0  0  0  0  0  0  0  0  0  0  0
  -16.1107  -14.9191   -9.3328 C   0  0  0  0  0  0  0  0  0  0  0  0
  -15.2756  -15.9601   -8.9591 C   0  0  0  0  0  0  0  0  0  0  0  0
  -15.3178  -17.1744   -9.6283 C   0  0  0  0  0  0  0  0  0  0  0  0
  -16.1960  -17.3473  -10.6844 C   0  0  0  0  0  0  0  0  0  0  0  0
  -17.0195  -16.3034  -11.0671 C   0  0  0  0  0  0  0  0  0  0  0  0
  -16.9801  -15.0935  -10.3925 C   0  0  0  0  0  0  0  0  0  0  0  0
  -16.5079  -12.8057   -5.7585 C   0  0  0  0  0  0  0  0  0  0  0  0
  -16.3498  -13.0073   -4.3950 C   0  0  0  0  0  0  0  0  0  0  0  0
  -15.5021  -14.0015   -3.9363 C   0  0  0  0  0  0  0  0  0  0  0  0
  -14.8144  -14.7936   -4.8412 C   0  0  0  0  0  0  0  0  0  0  0  0
  -14.9736  -14.5917   -6.2038 C   0  0  0  0  0  0  0  0  0  0  0  0
  -15.8213  -13.5975   -6.6696 C   0  0  0  0  0  0  0  0  0  0  0  0
  1  2  1  0  0  0
  1  8  1  0  0  0
  1 14  1  0  0  0
  1 25  1  0  0  0
  2  3  1  0  0  0
  2  7  2  0  0  0
  3  4  2  0  0  0
  4  5  1  0  0  0
  5  6  2  0  0  0
  6  7  1  0  0  0
  8  9  2  0  0  0
  8 13  1  0  0  0
  9 10  1  0  0  0
 10 11  2  0  0  0
 11 12  1  0  0  0
 12 13  2  0  0  0
 14 15  2  0  0  0
 14 19  1  0  0  0
 15 16  1  0  0  0
 16 17  2  0  0  0
 17 18  1  0  0  0
 18 19  2  0  0  0
 20 21  2  0  0  0
 20 25  1  0  0  0
 21 22  1  0  0  0
 22 23  2  0  0  0
 23 24  1  0  0  0
 24 25  2  0  0  0
M  CHG 1   1   1
M  END
> <minimizedAffinity>
-8.09643

$$$$
5KAT_P4P_A_201


 25 28  0  0  0  0  0  0  0  0999 V2000
  -16.0357  -13.2696   -8.5145 P   0  0  0  0  0  0  0  0  0  0  0  0
  -16.1074  -14.8711   -9.3686 C   0  0  0  0  0  0  0  0  0  0  0  0
  -16.9759  -15.0743  -10.4268 C   0  0  0  0  0  0  0  0  0  0  0  0
  -17.0098  -16.3066  -11.0632 C   0  0  0  0  0  0  0  0  0  0  0  0
  -16.1782  -17.3337  -10.6441 C   0  0  0  0  0  0  0  0  0  0  0  0
  -15.3095  -17.1291   -9.5863 C   0  0  0  0  0  0  0  0  0  0  0  0
  -15.2731  -15.8986   -8.9493 C   0  0  0  0  0  0  0  0  0  0  0  0
  -15.7964  -13.5807   -6.7344 C   0  0  0  0  0  0  0  0  0  0  0  0
  -16.4799  -12.8107   -5.8021 C   0  0  0  0  0  0  0  0  0  0  0  0
  -16.3045  -13.0355   -4.4442 C   0  0  0  0  0  0  0  0  0  0  0  0
  -15.4427  -14.0312   -4.0131 C   0  0  0  0  0  0  0  0  0  0  0  0
  -14.7581  -14.8002   -4.9419 C   0  0  0  0  0  0  0  0  0  0  0  0
  -14.9335  -14.5753   -6.2999 C   0  0  0  0  0  0  0  0  0  0  0  0
  -14.6293  -12.3732   -9.2406 C   0  0  0  0  0  0  0  0  0  0  0  0
  -14.3030  -12.5454  -10.5764 C   0  0  0  0  0  0  0  0  0  0  0  0
  -13.2263  -11.8709  -11.1331 C   0  0  0  0  0  0  0  0  0  0  0  0
  -12.4649  -11.0234  -10.3467 C   0  0  0  0  0  0  0  0  0  0  0  0
  -12.7815  -10.8624   -9.0095 C   0  0  0  0  0  0  0  0  0  0  0  0
  -13.8618  -11.5324   -8.4574 C   0  0  0  0  0  0  0  0  0  0  0  0
  -17.5212  -10.9451   -8.9205 C   0  0  0  0  0  0  0  0  0  0  0  0
  -18.6869  -10.2150   -9.1017 C   0  0  0  0  0  0  0  0  0  0  0  0
  -19.9128  -10.8590   -9.1076 C   0  0  0  0  0  0  0  0  0  0  0  0
  -19.9715  -12.2322   -8.9334 C   0  0  0  0  0  0  0  0  0  0  0  0
  -18.8057  -12.9610   -8.7529 C   0  0  0  0  0  0  0  0  0  0  0  0
  -17.5747  -12.3217   -8.7462 C   0  0  0  0  0  0  0  0  0  0  0  0
  1  2  1  0  0  0
  1  8  1  0  0  0
  1 14  1  0  0  0
  1 25  1  0  0  0
  2  3  1  0  0  0
  2  7  2  0  0  0
  3  4  2  0  0  0
  4  5  1  0  0  0
  5  6  2  0  0  0
  6  7  1  0  0  0
  8  9  2  0  0  0
  8 13  1  0  0  0
  9 10  1  0  0  0
 10 11  2  0  0  0
 11 12  1  0  0  0
 12 13  2  0  0  0
 14 15  2  0  0  0
 14 19  1  0  0  0
 15 16  1  0  0  0
 16 17  2  0  0  0
 17 18  1  0  0  0
 18 19  2  0  0  0
 20 21  2  0  0  0
 20 25  1  0  0  0
 21 22  1  0  0  0
 22 23  2  0  0  0
 23 24  1  0  0  0
 24 25  2  0  0  0
M  CHG 1   1   1
M  END
> <minimizedAffinity>
-8.01163

$$$$
5KAT_P4P_A_201


 25 28  0  0  0  0  0  0  0  0999 V2000
  -15.9490  -13.3480   -8.5361 P   0  0  0  0  0  0  0  0  0  0  0  0
  -17.4672  -12.3763   -8.7605 C   0  0  0  0  0  0  0  0  0  0  0  0
  -18.7097  -12.9859   -8.7499 C   0  0  0  0  0  0  0  0  0  0  0  0
  -19.8539  -12.2205   -8.9218 C   0  0  0  0  0  0  0  0  0  0  0  0
  -19.7579  -10.8495   -9.1037 C   0  0  0  0  0  0  0  0  0  0  0  0
  -18.5149  -10.2408   -9.1133 C   0  0  0  0  0  0  0  0  0  0  0  0
  -17.3702  -11.0031   -8.9409 C   0  0  0  0  0  0  0  0  0  0  0  0
  -14.5537  -12.3956   -9.2206 C   0  0  0  0  0  0  0  0  0  0  0  0
  -14.2583  -12.4825  -10.5750 C   0  0  0  0  0  0  0  0  0  0  0  0
  -13.1972  -11.7647  -11.1081 C   0  0  0  0  0  0  0  0  0  0  0  0
  -12.4255  -10.9579  -10.2875 C   0  0  0  0  0  0  0  0  0  0  0  0
  -12.7175  -10.8707   -8.9347 C   0  0  0  0  0  0  0  0  0  0  0  0
  -13.7787  -11.5885   -8.4017 C   0  0  0  0  0  0  0  0  0  0  0  0
  -15.7770  -13.6085   -6.7441 C   0  0  0  0  0  0  0  0  0  0  0  0
  -16.4662  -12.8048   -5.8499 C   0  0  0  0  0  0  0  0  0  0  0  0
  -16.3321  -12.9935   -4.4823 C   0  0  0  0  0  0  0  0  0  0  0  0
  -15.4966  -13.9883   -4.0042 C   0  0  0  0  0  0  0  0  0  0  0  0
  -14.7970  -14.7814   -4.8964 C   0  0  0  0  0  0  0  0  0  0  0  0
  -14.9380  -14.5951   -6.2624 C   0  0  0  0  0  0  0  0  0  0  0  0
  -16.9162  -15.1049  -10.4733 C   0  0  0  0  0  0  0  0  0  0  0  0
  -16.9974  -16.3191  -11.1395 C   0  0  0  0  0  0  0  0  0  0  0  0
  -16.2129  -17.3852  -10.7328 C   0  0  0  0  0  0  0  0  0  0  0  0
  -15.3475  -17.2357   -9.6613 C   0  0  0  0  0  0  0  0  0  0  0  0
  -15.2667  -16.0216   -8.9965 C   0  0  0  0  0  0  0  0  0  0  0  0
  -16.0499  -14.9498   -9.3991 C   0  0  0  0  0  0  0  0  0  0  0  0
  1  2  1  0  0  0
  1  8  1  0  0  0
  1 14  1  0  0  0
  1 25  1  0  0  0
  2  3  1  0  0  0
  2  7  2  0  0  0
  3  4  2  0  0  0
  4  5  1  0  0  0
  5  6  2  0  0  0
  6  7  1  0  0  0
  8  9  2  0  0  0
  8 13  1  0  0  0
  9 10  1  0  0  0
 10 11  2  0  0  0
 11 12  1  0  0  0
 12 13  2  0  0  0
 14 15  2  0  0  0
 14 19  1  0  0  0
 15 16  1  0  0  0
 16 17  2  0  0  0
 17 18  1  0  0  0
 18 19  2  0  0  0
 20 21  2  0  0  0
 20 25  1  0  0  0
 21 22  1  0  0  0
 22 23  2  0  0  0
 23 24  1  0  0  0
 24 25  2  0  0  0
M  CHG 1   1   1
M  END
> <minimizedAffinity>
-8.00329

$$$$
5KAT_P4P_A_201


 25 28  0  0  0  0  0  0  0  0999 V2000
  -15.9813  -13.2901   -8.5695 P   0  0  0  0  0  0  0  0  0  0  0  0
  -15.7987  -13.5702   -6.7841 C   0  0  0  0  0  0  0  0  0  0  0  0
  -14.9710  -14.5692   -6.3020 C   0  0  0  0  0  0  0  0  0  0  0  0
  -14.8479  -14.7612   -4.9336 C   0  0  0  0  0  0  0  0  0  0  0  0
  -15.5495  -13.9574   -4.0483 C   0  0  0  0  0  0  0  0  0  0  0  0
  -16.3763  -12.9581   -4.5314 C   0  0  0  0  0  0  0  0  0  0  0  0
  -16.5004  -12.7637   -5.8982 C   0  0  0  0  0  0  0  0  0  0  0  0
  -16.0777  -14.9119   -9.3961 C   0  0  0  0  0  0  0  0  0  0  0  0
  -15.2594  -15.9512   -8.9726 C   0  0  0  0  0  0  0  0  0  0  0  0
  -15.3212  -17.1897   -9.5952 C   0  0  0  0  0  0  0  0  0  0  0  0
  -16.2012  -17.3931  -10.6459 C   0  0  0  0  0  0  0  0  0  0  0  0
  -17.0180  -16.3566  -11.0715 C   0  0  0  0  0  0  0  0  0  0  0  0
  -16.9563  -15.1181  -10.4489 C   0  0  0  0  0  0  0  0  0  0  0  0
  -17.5138  -12.3324   -8.7757 C   0  0  0  0  0  0  0  0  0  0  0  0
  -17.4634  -10.9583   -8.9484 C   0  0  0  0  0  0  0  0  0  0  0  0
  -18.6294  -10.2219   -9.0976 C   0  0  0  0  0  0  0  0  0  0  0  0
  -19.8561  -10.8628   -9.0661 C   0  0  0  0  0  0  0  0  0  0  0  0
  -19.9075  -12.2328   -8.8791 C   0  0  0  0  0  0  0  0  0  0  0  0
  -18.7407  -12.9669   -8.7370 C   0  0  0  0  0  0  0  0  0  0  0  0
  -14.2362  -12.4877  -10.5908 C   0  0  0  0  0  0  0  0  0  0  0  0
  -13.1619  -11.7852  -11.1171 C   0  0  0  0  0  0  0  0  0  0  0  0
  -12.4091  -10.9582  -10.3004 C   0  0  0  0  0  0  0  0  0  0  0  0
  -12.7320  -10.8339   -8.9589 C   0  0  0  0  0  0  0  0  0  0  0  0
  -13.8063  -11.5361   -8.4340 C   0  0  0  0  0  0  0  0  0  0  0  0
  -14.5643  -12.3659   -9.2469 C   0  0  0  0  0  0  0  0  0  0  0  0
  1  2  1  0  0  0
  1  8  1  0  0  0
  1 14  1  0  0  0
  1 25  1  0  0  0
  2  3  1  0  0  0
  2  7  2  0  0  0
  3  4  2  0  0  0
  4  5  1  0  0  0
  5  6  2  0  0  0
  6  7  1  0  0  0
  8  9  2  0  0  0
  8 13  1  0  0  0
  9 10  1  0  0  0
 10 11  2  0  0  0
 11 12  1  0  0  0
 12 13  2  0  0  0
 14 15  2  0  0  0
 14 19  1  0  0  0
 15 16  1  0  0  0
 16 17  2  0  0  0
 17 18  1  0  0  0
 18 19  2  0  0  0
 20 21  2  0  0  0
 20 25  1  0  0  0
 21 22  1  0  0  0
 22 23  2  0  0  0
 23 24  1  0  0  0
 24 25  2  0  0  0
M  CHG 1   1   1
M  END
> <minimizedAffinity>
-7.93994

$$$$
5KAT_P4P_A_201


 25 28  0  0  0  0  0  0  0  0999 V2000
  -16.0061  -13.3456   -8.5592 P   0  0  0  0  0  0  0  0  0  0  0  0
  -14.5759  -12.4109   -9.1758 C   0  0  0  0  0  0  0  0  0  0  0  0
  -13.8722  -11.5572   -8.3442 C   0  0  0  0  0  0  0  0  0  0  0  0
  -12.7825  -10.8561   -8.8396 C   0  0  0  0  0  0  0  0  0  0  0  0
  -12.3960  -11.0071  -10.1624 C   0  0  0  0  0  0  0  0  0  0  0  0
  -13.0998  -11.8616  -10.9930 C   0  0  0  0  0  0  0  0  0  0  0  0
  -14.1885  -12.5639  -10.5003 C   0  0  0  0  0  0  0  0  0  0  0  0
  -16.1248  -14.8995   -9.5048 C   0  0  0  0  0  0  0  0  0  0  0  0
  -16.9727  -14.9755  -10.6022 C   0  0  0  0  0  0  0  0  0  0  0  0
  -17.0742  -16.1534  -11.3288 C   0  0  0  0  0  0  0  0  0  0  0  0
  -16.3287  -17.2612  -10.9590 C   0  0  0  0  0  0  0  0  0  0  0  0
  -15.4827  -17.1882   -9.8629 C   0  0  0  0  0  0  0  0  0  0  0  0
  -15.3811  -16.0103   -9.1363 C   0  0  0  0  0  0  0  0  0  0  0  0
  -15.6875  -13.6492   -6.7943 C   0  0  0  0  0  0  0  0  0  0  0  0
  -14.7816  -14.6224   -6.4032 C   0  0  0  0  0  0  0  0  0  0  0  0
  -14.5412  -14.8639   -5.0586 C   0  0  0  0  0  0  0  0  0  0  0  0
  -15.2172  -14.1325   -4.0970 C   0  0  0  0  0  0  0  0  0  0  0  0
  -16.1325  -13.1710   -4.4870 C   0  0  0  0  0  0  0  0  0  0  0  0
  -16.3658  -12.9271   -5.8312 C   0  0  0  0  0  0  0  0  0  0  0  0
  -18.7726  -13.0753   -8.7787 C   0  0  0  0  0  0  0  0  0  0  0  0
  -19.9574  -12.3703   -8.9329 C   0  0  0  0  0  0  0  0  0  0  0  0
  -19.9293  -10.9936   -9.0792 C   0  0  0  0  0  0  0  0  0  0  0  0
  -18.7168  -10.3235   -9.0700 C   0  0  0  0  0  0  0  0  0  0  0  0
  -17.5332  -11.0291   -8.9152 C   0  0  0  0  0  0  0  0  0  0  0  0
  -17.5547  -12.4082   -8.7680 C   0  0  0  0  0  0  0  0  0  0  0  0
  1  2  1  0  0  0
  1  8  1  0  0  0
  1 14  1  0  0  0
  1 25  1  0  0  0
  2  3  1  0  0  0
  2  7  2  0  0  0
  3  4  2  0  0  0
  4  5  1  0  0  0
  5  6  2  0  0  0
  6  7  1  0  0  0
  8  9  2  0  0  0
  8 13  1  0  0  0
  9 10  1  0  0  0
 10 11  2  0  0  0
 11 12  1  0  0  0
 12 13  2  0  0  0
 14 15  2  0  0  0
 14 19  1  0  0  0
 15 16  1  0  0  0
 16 17  2  0  0  0
 17 18  1  0  0  0
 18 19  2  0  0  0
 20 21  2  0  0  0
 20 25  1  0  0  0
 21 22  1  0  0  0
 22 23  2  0  0  0
 23 24  1  0  0  0
 24 25  2  0  0  0
M  CHG 1   1   1
M  END
> <minimizedAffinity>
-7.92839

$$$$
5KAT_P4P_A_201


 25 28  0  0  0  0  0  0  0  0999 V2000
  -16.0345  -13.2988   -8.4486 P   0  0  0  0  0  0  0  0  0  0  0  0
  -15.8191  -13.5651   -6.6648 C   0  0  0  0  0  0  0  0  0  0  0  0
  -14.9609  -14.5417   -6.1901 C   0  0  0  0  0  0  0  0  0  0  0  0
  -14.8133  -14.7235   -4.8227 C   0  0  0  0  0  0  0  0  0  0  0  0
  -15.5208  -13.9319   -3.9311 C   0  0  0  0  0  0  0  0  0  0  0  0
  -16.3781  -12.9551   -4.4069 C   0  0  0  0  0  0  0  0  0  0  0  0
  -16.5267  -12.7708   -5.7726 C   0  0  0  0  0  0  0  0  0  0  0  0
  -17.6003  -12.4025   -8.7084 C   0  0  0  0  0  0  0  0  0  0  0  0
  -17.5821  -11.0294   -8.9167 C   0  0  0  0  0  0  0  0  0  0  0  0
  -18.7673  -10.3349   -9.1130 C   0  0  0  0  0  0  0  0  0  0  0  0
  -19.9763  -11.0115   -9.0999 C   0  0  0  0  0  0  0  0  0  0  0  0
  -19.9971  -12.3821   -8.8906 C   0  0  0  0  0  0  0  0  0  0  0  0
  -18.8119  -13.0766   -8.6943 C   0  0  0  0  0  0  0  0  0  0  0  0
  -14.5977  -12.3236   -8.9902 C   0  0  0  0  0  0  0  0  0  0  0  0
  -13.9490  -11.4798   -8.1027 C   0  0  0  0  0  0  0  0  0  0  0  0
  -12.8581  -10.7274   -8.5126 C   0  0  0  0  0  0  0  0  0  0  0  0
  -12.4169  -10.8129   -9.8219 C   0  0  0  0  0  0  0  0  0  0  0  0
  -13.0734  -11.6442  -10.7121 C   0  0  0  0  0  0  0  0  0  0  0  0
  -14.1588  -12.3999  -10.2982 C   0  0  0  0  0  0  0  0  0  0  0  0
  -16.9437  -15.0137  -10.4505 C   0  0  0  0  0  0  0  0  0  0  0  0
  -16.9991  -16.2109  -11.1492 C   0  0  0  0  0  0  0  0  0  0  0  0
  -16.2130  -17.2800  -10.7535 C   0  0  0  0  0  0  0  0  0  0  0  0
  -15.3719  -17.1505   -9.6603 C   0  0  0  0  0  0  0  0  0  0  0  0
  -15.3168  -15.9532   -8.9630 C   0  0  0  0  0  0  0  0  0  0  0  0
  -16.1016  -14.8786   -9.3545 C   0  0  0  0  0  0  0  0  0  0  0  0
  1  2  1  0  0  0
  1  8  1  0  0  0
  1 14  1  0  0  0
  1 25  1  0  0  0
  2  3  1  0  0  0
  2  7  2  0  0  0
  3  4  2  0  0  0
  4  5  1  0  0  0
  5  6  2  0  0  0
  6  7  1  0  0  0
  8  9  2  0  0  0
  8 13  1  0  0  0
  9 10  1  0  0  0
 10 11  2  0  0  0
 11 12  1  0  0  0
 12 13  2  0  0  0
 14 15  2  0  0  0
 14 19  1  0  0  0
 15 16  1  0  0  0
 16 17  2  0  0  0
 17 18  1  0  0  0
 18 19  2  0  0  0
 20 21  2  0  0  0
 20 25  1  0  0  0
 21 22  1  0  0  0
 22 23  2  0  0  0
 23 24  1  0  0  0
 24 25  2  0  0  0
M  CHG 1   1   1
M  END
> <minimizedAffinity>
-7.87948

$$$$
5KAT_P4P_A_201


 25 28  0  0  0  0  0  0  0  0999 V2000
  -15.9264  -13.3582   -8.4937 P   0  0  0  0  0  0  0  0  0  0  0  0
  -16.0687  -14.9104   -9.4264 C   0  0  0  0  0  0  0  0  0  0  0  0
  -15.3382  -16.0282   -9.0623 C   0  0  0  0  0  0  0  0  0  0  0  0
  -15.4666  -17.2020   -9.7905 C   0  0  0  0  0  0  0  0  0  0  0  0
  -16.3224  -17.2598  -10.8797 C   0  0  0  0  0  0  0  0  0  0  0  0
  -17.0530  -16.1417  -11.2424 C   0  0  0  0  0  0  0  0  0  0  0  0
  -16.9272  -14.9679  -10.5160 C   0  0  0  0  0  0  0  0  0  0  0  0
  -14.5136  -12.4181   -9.1595 C   0  0  0  0  0  0  0  0  0  0  0  0
  -14.1748  -12.5407  -10.5009 C   0  0  0  0  0  0  0  0  0  0  0  0
  -13.1000  -11.8327  -11.0194 C   0  0  0  0  0  0  0  0  0  0  0  0
  -12.3582  -11.0000  -10.1971 C   0  0  0  0  0  0  0  0  0  0  0  0
  -12.6936  -10.8772   -8.8573 C   0  0  0  0  0  0  0  0  0  0  0  0
  -13.7685  -11.5852   -8.3387 C   0  0  0  0  0  0  0  0  0  0  0  0
  -17.4999  -12.4784   -8.7355 C   0  0  0  0  0  0  0  0  0  0  0  0
  -17.5149  -11.1028   -8.9032 C   0  0  0  0  0  0  0  0  0  0  0  0
  -18.7127  -10.4258   -9.0794 C   0  0  0  0  0  0  0  0  0  0  0  0
  -19.9057  -11.1280   -9.0802 C   0  0  0  0  0  0  0  0  0  0  0  0
  -19.8923  -12.4995   -8.8981 C   0  0  0  0  0  0  0  0  0  0  0  0
  -18.6936  -13.1743   -8.7290 C   0  0  0  0  0  0  0  0  0  0  0  0
  -16.3500  -12.9456   -5.7688 C   0  0  0  0  0  0  0  0  0  0  0  0
  -16.1457  -13.1785   -4.4165 C   0  0  0  0  0  0  0  0  0  0  0  0
  -15.2325  -14.1367   -4.0097 C   0  0  0  0  0  0  0  0  0  0  0  0
  -14.5257  -14.8616   -4.9553 C   0  0  0  0  0  0  0  0  0  0  0  0
  -14.7312  -14.6285   -6.3067 C   0  0  0  0  0  0  0  0  0  0  0  0
  -15.6445  -13.6701   -6.7206 C   0  0  0  0  0  0  0  0  0  0  0  0
  1  2  1  0  0  0
  1  8  1  0  0  0
  1 14  1  0  0  0
  1 25  1  0  0  0
  2  3  1  0  0  0
  2  7  2  0  0  0
  3  4  2  0  0  0
  4  5  1  0  0  0
  5  6  2  0  0  0
  6  7  1  0  0  0
  8  9  2  0  0  0
  8 13  1  0  0  0
  9 10  1  0  0  0
 10 11  2  0  0  0
 11 12  1  0  0  0
 12 13  2  0  0  0
 14 15  2  0  0  0
 14 19  1  0  0  0
 15 16  1  0  0  0
 16 17  2  0  0  0
 17 18  1  0  0  0
 18 19  2  0  0  0
 20 21  2  0  0  0
 20 25  1  0  0  0
 21 22  1  0  0  0
 22 23  2  0  0  0
 23 24  1  0  0  0
 24 25  2  0  0  0
M  CHG 1   1   1
M  END
> <minimizedAffinity>
-7.87210

$$$$
5KAT_P4P_A_201


 25 28  0  0  0  0  0  0  0  0999 V2000
  -15.9605  -13.2912   -8.5790 P   0  0  0  0  0  0  0  0  0  0  0  0
  -15.6415  -13.6538   -6.8279 C   0  0  0  0  0  0  0  0  0  0  0  0
  -14.6690  -14.5657   -6.4563 C   0  0  0  0  0  0  0  0  0  0  0  0
  -14.4440  -14.8233   -5.1118 C   0  0  0  0  0  0  0  0  0  0  0  0
  -15.1882  -14.1717   -4.1404 C   0  0  0  0  0  0  0  0  0  0  0  0
  -16.1599  -13.2593   -4.5131 C   0  0  0  0  0  0  0  0  0  0  0  0
  -16.3861  -12.9995   -5.8557 C   0  0  0  0  0  0  0  0  0  0  0  0
  -14.5679  -12.3066   -9.2224 C   0  0  0  0  0  0  0  0  0  0  0  0
  -13.8599  -11.4727   -8.3665 C   0  0  0  0  0  0  0  0  0  0  0  0
  -12.7996  -10.7158   -8.8443 C   0  0  0  0  0  0  0  0  0  0  0  0
  -12.4441  -10.7890  -10.1815 C   0  0  0  0  0  0  0  0  0  0  0  0
  -13.1504  -11.6196  -11.0381 C   0  0  0  0  0  0  0  0  0  0  0  0
  -14.2108  -12.3765  -10.5603 C   0  0  0  0  0  0  0  0  0  0  0  0
  -16.0926  -14.9029   -9.4119 C   0  0  0  0  0  0  0  0  0  0  0  0
  -15.3319  -15.9784   -8.9815 C   0  0  0  0  0  0  0  0  0  0  0  0
  -15.4224  -17.2073   -9.6185 C   0  0  0  0  0  0  0  0  0  0  0  0
  -16.2739  -17.3606  -10.6991 C   0  0  0  0  0  0  0  0  0  0  0  0
  -17.0225  -16.2831  -11.1383 C   0  0  0  0  0  0  0  0  0  0  0  0
  -16.9353  -15.0582  -10.4959 C   0  0  0  0  0  0  0  0  0  0  0  0
  -17.4515  -10.9639   -8.9472 C   0  0  0  0  0  0  0  0  0  0  0  0
  -18.6190  -10.2335   -9.1146 C   0  0  0  0  0  0  0  0  0  0  0  0
  -19.8437  -10.8797   -9.1265 C   0  0  0  0  0  0  0  0  0  0  0  0
  -19.8994  -12.2553   -8.9721 C   0  0  0  0  0  0  0  0  0  0  0  0
  -18.7318  -12.9845   -8.8054 C   0  0  0  0  0  0  0  0  0  0  0  0
  -17.5020  -12.3431   -8.7927 C   0  0  0  0  0  0  0  0  0  0  0  0
  1  2  1  0  0  0
  1  8  1  0  0  0
  1 14  1  0  0  0
  1 25  1  0  0  0
  2  3  1  0  0  0
  2  7  2  0  0  0
  3  4  2  0  0  0
  4  5  1  0  0  0
  5  6  2  0  0  0
  6  7  1  0  0  0
  8  9  2  0  0  0
  8 13  1  0  0  0
  9 10  1  0  0  0
 10 11  2  0  0  0
 11 12  1  0  0  0
 12 13  2  0  0  0
 14 15  2  0  0  0
 14 19  1  0  0  0
 15 16  1  0  0  0
 16 17  2  0  0  0
 17 18  1  0  0  0
 18 19  2  0  0  0
 20 21  2  0  0  0
 20 25  1  0  0  0
 21 22  1  0  0  0
 22 23  2  0  0  0
 23 24  1  0  0  0
 24 25  2  0  0  0
M  CHG 1   1   1
M  END
> <minimizedAffinity>
-7.74882

$$$$
5KAT_P4P_A_201


 25 28  0  0  0  0  0  0  0  0999 V2000
  -15.6641  -13.5260   -8.6253 P   0  0  0  0  0  0  0  0  0  0  0  0
  -17.1788  -12.5323   -8.7584 C   0  0  0  0  0  0  0  0  0  0  0  0
  -18.4271  -13.1242   -8.6752 C   0  0  0  0  0  0  0  0  0  0  0  0
  -19.5684  -12.3422   -8.7782 C   0  0  0  0  0  0  0  0  0  0  0  0
  -19.4636  -10.9723   -8.9638 C   0  0  0  0  0  0  0  0  0  0  0  0
  -18.2148  -10.3813   -9.0460 C   0  0  0  0  0  0  0  0  0  0  0  0
  -17.0730  -11.1602   -8.9425 C   0  0  0  0  0  0  0  0  0  0  0  0
  -15.9306  -15.0966   -9.5113 C   0  0  0  0  0  0  0  0  0  0  0  0
  -16.7781  -15.1325  -10.6111 C   0  0  0  0  0  0  0  0  0  0  0  0
  -16.9916  -16.3222  -11.2925 C   0  0  0  0  0  0  0  0  0  0  0  0
  -16.3590  -17.4821  -10.8751 C   0  0  0  0  0  0  0  0  0  0  0  0
  -15.5136  -17.4491   -9.7764 C   0  0  0  0  0  0  0  0  0  0  0  0
  -15.3001  -16.2594   -9.0950 C   0  0  0  0  0  0  0  0  0  0  0  0
  -14.3421  -12.5350   -9.3860 C   0  0  0  0  0  0  0  0  0  0  0  0
  -13.5310  -11.7296   -8.6025 C   0  0  0  0  0  0  0  0  0  0  0  0
  -12.5269  -10.9653   -9.1784 C   0  0  0  0  0  0  0  0  0  0  0  0
  -12.3370  -10.9999  -10.5492 C   0  0  0  0  0  0  0  0  0  0  0  0
  -13.1561  -11.7926  -11.3335 C   0  0  0  0  0  0  0  0  0  0  0  0
  -14.1542  -12.5604  -10.7547 C   0  0  0  0  0  0  0  0  0  0  0  0
  -16.0318  -13.3539   -5.8666 C   0  0  0  0  0  0  0  0  0  0  0  0
  -15.7330  -13.6290   -4.5401 C   0  0  0  0  0  0  0  0  0  0  0  0
  -14.6562  -14.4417   -4.2276 C   0  0  0  0  0  0  0  0  0  0  0  0
  -13.8803  -14.9792   -5.2417 C   0  0  0  0  0  0  0  0  0  0  0  0
  -14.1802  -14.7041   -6.5672 C   0  0  0  0  0  0  0  0  0  0  0  0
  -15.2575  -13.8909   -6.8868 C   0  0  0  0  0  0  0  0  0  0  0  0
  1  2  1  0  0  0
  1  8  1  0  0  0
  1 14  1  0  0  0
  1 25  1  0  0  0
  2  3  1  0  0  0
  2  7  2  0  0  0
  3  4  2  0  0  0
  4  5  1  0  0  0
  5  6  2  0  0  0
  6  7  1  0  0  0
  8  9  2  0  0  0
  8 13  1  0  0  0
  9 10  1  0  0  0
 10 11  2  0  0  0
 11 12  1  0  0  0
 12 13  2  0  0  0
 14 15  2  0  0  0
 14 19  1  0  0  0
 15 16  1  0  0  0
 16 17  2  0  0  0
 17 18  1  0  0  0
 18 19  2  0  0  0
 20 21  2  0  0  0
 20 25  1  0  0  0
 21 22  1  0  0  0
 22 23  2  0  0  0
 23 24  1  0  0  0
 24 25  2  0  0  0
M  CHG 1   1   1
M  END
> <minimizedAffinity>
-7.74429

$$$$
5KAT_P4P_A_201


 25 28  0  0  0  0  0  0  0  0999 V2000
  -15.7373  -13.4346   -8.6503 P   0  0  0  0  0  0  0  0  0  0  0  0
  -15.9736  -15.0170   -9.5103 C   0  0  0  0  0  0  0  0  0  0  0  0
  -15.3418  -16.1669   -9.0699 C   0  0  0  0  0  0  0  0  0  0  0  0
  -15.5405  -17.3632   -9.7436 C   0  0  0  0  0  0  0  0  0  0  0  0
  -16.3684  -17.4114  -10.8547 C   0  0  0  0  0  0  0  0  0  0  0  0
  -17.0004  -16.2611  -11.2938 C   0  0  0  0  0  0  0  0  0  0  0  0
  -16.8042  -15.0647  -10.6218 C   0  0  0  0  0  0  0  0  0  0  0  0
  -17.2867  -12.4817   -8.7694 C   0  0  0  0  0  0  0  0  0  0  0  0
  -18.5078  -13.1385   -8.6878 C   0  0  0  0  0  0  0  0  0  0  0  0
  -19.6944  -12.4251   -8.7798 C   0  0  0  0  0  0  0  0  0  0  0  0
  -19.6642  -11.0511   -8.9556 C   0  0  0  0  0  0  0  0  0  0  0  0
  -18.4462  -10.3934   -9.0389 C   0  0  0  0  0  0  0  0  0  0  0  0
  -17.2596  -11.1068   -8.9469 C   0  0  0  0  0  0  0  0  0  0  0  0
  -15.3298  -13.8526   -6.9276 C   0  0  0  0  0  0  0  0  0  0  0  0
  -16.0685  -13.3189   -5.8836 C   0  0  0  0  0  0  0  0  0  0  0  0
  -15.7567  -13.6276   -4.5677 C   0  0  0  0  0  0  0  0  0  0  0  0
  -14.6934  -14.4701   -4.2925 C   0  0  0  0  0  0  0  0  0  0  0  0
  -13.9465  -14.9915   -5.3340 C   0  0  0  0  0  0  0  0  0  0  0  0
  -14.2643  -14.6869   -6.6480 C   0  0  0  0  0  0  0  0  0  0  0  0
  -13.6067  -11.6364   -8.6049 C   0  0  0  0  0  0  0  0  0  0  0  0
  -12.5752  -10.8968   -9.1650 C   0  0  0  0  0  0  0  0  0  0  0  0
  -12.3222  -10.9808  -10.5238 C   0  0  0  0  0  0  0  0  0  0  0  0
  -13.1001  -11.8048  -11.3208 C   0  0  0  0  0  0  0  0  0  0  0  0
  -14.1305  -12.5440  -10.7599 C   0  0  0  0  0  0  0  0  0  0  0  0
  -14.3889  -12.4644   -9.3994 C   0  0  0  0  0  0  0  0  0  0  0  0
  1  2  1  0  0  0
  1  8  1  0  0  0
  1 14  1  0  0  0
  1 25  1  0  0  0
  2  3  1  0  0  0
  2  7  2  0  0  0
  3  4  2  0  0  0
  4  5  1  0  0  0
  5  6  2  0  0  0
  6  7  1  0  0  0
  8  9  2  0  0  0
  8 13  1  0  0  0
  9 10  1  0  0  0
 10 11  2  0  0  0
 11 12  1  0  0  0
 12 13  2  0  0  0
 14 15  2  0  0  0
 14 19  1  0  0  0
 15 16  1  0  0  0
 16 17  2  0  0  0
 17 18  1  0  0  0
 18 19  2  0  0  0
 20 21  2  0  0  0
 20 25  1  0  0  0
 21 22  1  0  0  0
 22 23  2  0  0  0
 23 24  1  0  0  0
 24 25  2  0  0  0
M  CHG 1   1   1
M  END
> <minimizedAffinity>
-7.74113

$$$$
