5KAT_P4P_A_201
  RCSB PDB12061718353D
Coordinates from PDB:5KAT:A:201 Model:1 without hydrogens
 25 28  0  0  0  0            999 V2000
  -15.8290  -13.1260   -8.4580   P 0  3  0  0  0  0  0  0  0  0  0  0
  -14.5440  -12.3050   -9.4450   C 0  0  0  0  0  0  0  0  0  0  0  0
  -13.4780  -11.6670   -8.8350   C 0  0  0  0  0  0  0  0  0  0  0  0
  -12.5090  -11.0490   -9.6120   C 0  0  0  0  0  0  0  0  0  0  0  0
  -12.6040  -11.0680  -10.9950   C 0  0  0  0  0  0  0  0  0  0  0  0
  -13.6700  -11.7070  -11.6040   C 0  0  0  0  0  0  0  0  0  0  0  0
  -14.6390  -12.3260  -10.8300   C 0  0  0  0  0  0  0  0  0  0  0  0
  -17.3290  -12.0910   -8.4970   C 0  0  0  0  0  0  0  0  0  0  0  0
  -17.2670  -10.8070   -9.0230   C 0  0  0  0  0  0  0  0  0  0  0  0
  -18.4010  -10.0080   -9.0560   C 0  0  0  0  0  0  0  0  0  0  0  0
  -19.6020  -10.4900   -8.5610   C 0  0  0  0  0  0  0  0  0  0  0  0
  -19.6660  -11.7710   -8.0340   C 0  0  0  0  0  0  0  0  0  0  0  0
  -18.5320  -12.5700   -8.0010   C 0  0  0  0  0  0  0  0  0  0  0  0
  -16.1040  -14.7470   -9.2360   C 0  0  0  0  0  0  0  0  0  0  0  0
  -15.2640  -15.8120   -8.9520   C 0  0  0  0  0  0  0  0  0  0  0  0
  -15.4640  -17.0480   -9.5490   C 0  0  0  0  0  0  0  0  0  0  0  0
  -16.5070  -17.2190  -10.4430   C 0  0  0  0  0  0  0  0  0  0  0  0
  -17.3370  -16.1520  -10.7380   C 0  0  0  0  0  0  0  0  0  0  0  0
  -17.1390  -14.9200  -10.1350   C 0  0  0  0  0  0  0  0  0  0  0  0
  -16.0590  -12.7860   -5.7000   C 0  0  0  0  0  0  0  0  0  0  0  0
  -15.6700  -12.9460   -4.3780   C 0  0  0  0  0  0  0  0  0  0  0  0
  -14.5220  -13.6590   -4.0760   C 0  0  0  0  0  0  0  0  0  0  0  0
  -13.7650  -14.2120   -5.0960   C 0  0  0  0  0  0  0  0  0  0  0  0
  -14.1550  -14.0520   -6.4170   C 0  0  0  0  0  0  0  0  0  0  0  0
  -15.3040  -13.3390   -6.7260   C 0  0  0  0  0  0  0  0  0  0  0  0
  1  2  1  0  0  0  0
  1  8  1  0  0  0  0
  1 14  1  0  0  0  0
  1 25  1  0  0  0  0
  2  3  1  0  0  0  0
  2  7  2  0  0  0  0
  3  4  2  0  0  0  0
  4  5  1  0  0  0  0
  5  6  2  0  0  0  0
  6  7  1  0  0  0  0
  8  9  2  0  0  0  0
  8 13  1  0  0  0  0
  9 10  1  0  0  0  0
 10 11  2  0  0  0  0
 11 12  1  0  0  0  0
 12 13  2  0  0  0  0
 14 15  2  0  0  0  0
 14 19  1  0  0  0  0
 15 16  1  0  0  0  0
 16 17  2  0  0  0  0
 17 18  1  0  0  0  0
 18 19  2  0  0  0  0
 20 21  2  0  0  0  0
 20 25  1  0  0  0  0
 21 22  1  0  0  0  0
 22 23  2  0  0  0  0
 23 24  1  0  0  0  0
 24 25  2  0  0  0  0
M  CHG  1   1   1
A    1
P
A    2
C1A
A    3
C2A
A    4
C3A
A    5
C4A
A    6
C5A
A    7
C6A
A    8
C1C
A    9
C6C
A   10
C5C
A   11
C4C
A   12
C3C
A   13
C2C
A   14
C1D
A   15
C6D
A   16
C5D
A   17
C4D
A   18
C3D
A   19
C2D
A   20
C6B
A   21
C5B
A   22
C4B
A   23
C3B
A   24
C2B
A   25
C1B
M  END
>  <InstanceId>
5KAT_P4P_A_201

>  <ChemCompId>
P4P

>  <PdbId>
5KAT

>  <ChainId>
A

>  <ResidueNumber>
201

>  <InsertionCode>


>  <Model>
1

>  <AltIds>


>  <MissingHeavyAtoms>
0

>  <ObservedFormula>
C24 P

>  <Name>
TETRAPHENYLPHOSPHONIUM

>  <SystematicName>
tetraphenylphosphanium

>  <Synonyms>


>  <Type>
NON-POLYMER

>  <Formula>
C24 H20 P

>  <MolecularWeight>
339.389

>  <ModifiedDate>
2011-06-04

>  <Parent>


>  <OneLetterCode>


>  <SubcomponentList>


>  <AmbiguousFlag>
N

>  <InChI>
InChI=1S/C24H20P/c1-5-13-21(14-6-1)25(22-15-7-2-8-16-22,23-17-9-3-10-18-23)24-19-11-4-12-20-24/h1-20H/q+1

>  <InChIKey>
USFPINLPPFWTJW-UHFFFAOYSA-N

>  <SMILES>
c1ccc(cc1)[P+](c2ccccc2)(c3ccccc3)c4ccccc4

$$$$
