3LJO_11U_A_501
  RCSB PDB12061709363D
Coordinates from PDB:3LJO:A:501 Model:1 without hydrogens
 28 30  0  0  0  0            999 V2000
   18.3490   -8.9850   11.9060   C 0  0  0  0  0  0  0  0  0  0  0  0
   18.2340   -8.2620   10.9100   O 0  0  0  0  0  0  0  0  0  0  0  0
   19.5760   -9.8630   11.9100   C 0  0  0  0  0  0  0  0  0  0  0  0
   20.7770   -9.0600   11.5460   N 0  0  0  0  0  0  0  0  0  0  0  0
   22.0300   -9.8670   11.7230   C 0  0  0  0  0  0  0  0  0  0  0  0
   23.2460   -9.0010   11.3040   C 0  0  0  0  0  0  0  0  0  0  0  0
   24.5150   -9.8660   11.1710   C 0  0  0  0  0  0  0  0  0  0  0  0
   24.2580  -11.0530   10.1900   C 0  0  0  0  0  0  0  0  0  0  0  0
   23.1800  -11.9950   10.8180   C 0  0  0  0  0  0  0  0  0  0  0  0
   21.8580  -11.2140   10.9570   C 0  0  0  0  0  0  0  0  0  0  0  0
   17.3120   -9.0780   12.7690   N 0  0  0  0  0  0  0  0  0  0  0  0
   16.1870   -8.1380   12.6570   C 0  0  0  0  0  0  0  0  0  0  0  0
   16.7690   -6.7260   12.7250   C 0  0  0  0  0  0  0  0  0  0  0  0
   17.7320   -6.4780   13.4270   O 0  0  0  0  0  0  0  0  0  0  0  0
   15.4760   -8.4460   14.0130   C 0  0  0  0  0  0  0  0  0  0  0  0
   15.8700   -9.9270   14.2840   C 0  0  0  0  0  0  0  0  0  0  0  0
   17.3760   -9.8800   13.9810   C 0  0  0  0  0  0  0  0  0  0  0  0
   16.1030   -5.8240   11.9620   N 0  0  0  0  0  0  0  0  0  0  0  0
   16.5030   -4.4240   11.9590   C 0  0  0  0  0  0  0  0  0  0  0  0
   17.2220   -4.1930   10.6160   C 0  0  0  0  0  0  0  0  0  0  0  0
   16.6880   -3.2950    9.6870   C 0  0  0  0  0  0  0  0  0  0  0  0
   17.3390   -3.1340    8.4530   C 0  0  0  0  0  0  0  0  0  0  0  0
   18.5010   -3.8550    8.1670   C 0  0  0  0  0  0  0  0  0  0  0  0
   19.2160   -3.6250    6.8370   C 0  0  0  0  0  0  0  0  0  0  0  0
   20.4200   -3.9930    6.5650   N 0  0  0  0  0  0  0  0  0  0  0  0
   18.3140   -3.1710    5.7580   N 0  0  0  0  0  0  0  0  0  0  0  0
   19.0390   -4.7540    9.0930   C 0  0  0  0  0  0  0  0  0  0  0  0
   18.3820   -4.9110   10.3210   C 0  0  0  0  0  0  0  0  0  0  0  0
 11  1  1  0  0  0  0
 11 17  1  0  0  0  0
 11 12  1  0  0  0  0
  1  2  2  0  0  0  0
  1  3  1  0  0  0  0
 17 16  1  0  0  0  0
 16 15  1  0  0  0  0
 15 12  1  0  0  0  0
 12 13  1  0  0  0  0
 13 18  1  0  0  0  0
 13 14  2  0  0  0  0
 18 19  1  0  0  0  0
 19 20  1  0  0  0  0
 20 28  2  0  0  0  0
 20 21  1  0  0  0  0
 28 27  1  0  0  0  0
 27 23  2  0  0  0  0
 23 24  1  0  0  0  0
 23 22  1  0  0  0  0
 24 25  2  0  0  0  0
 24 26  1  0  0  0  0
 22 21  2  0  0  0  0
  3  4  1  0  0  0  0
  4  5  1  0  0  0  0
  5 10  1  0  0  0  0
  5  6  1  0  0  0  0
 10  9  1  0  0  0  0
  9  8  1  0  0  0  0
  8  7  1  0  0  0  0
  7  6  1  0  0  0  0
A    1
C14
A    2
O32
A    3
C15
A    4
N5
A    5
C16
A    6
C21
A    7
C20
A    8
C19
A    9
C18
A   10
C17
A   11
N1
A   12
C2
A   13
C7
A   14
O22
A   15
C3
A   16
C4
A   17
C5
A   18
N23
A   19
C24
A   20
C25
A   21
C26
A   22
C27
A   23
C28
A   24
C31
A   25
N49
A   26
N48
A   27
C29
A   28
C30
M  END
>  <InstanceId>
3LJO_11U_A_501

>  <ChemCompId>
11U

>  <PdbId>
3LJO

>  <ChainId>
A

>  <ResidueNumber>
501

>  <InsertionCode>


>  <Model>
1

>  <AltIds>


>  <MissingHeavyAtoms>
0

>  <ObservedFormula>
C21 N5 O2

>  <Name>
(S)-N-(4-carbamimidoylbenzyl)-1-(2-(cyclohexylamino)ethanoyl)pyrrolidine-2-carboxamide

>  <SystematicName>
(2S)-N-[(4-carbamimidoylphenyl)methyl]-1-[2-(cyclohexylamino)ethanoyl]pyrrolidine-2-carboxamide

>  <Synonyms>
(2S)-1-[cyclohexylamino)acetyl-N-{4-[amino(imino)methyl]benzyl}pyrrolidine-2-carboxamide

>  <Type>
peptide-like

>  <Formula>
C21 H31 N5 O2

>  <MolecularWeight>
385.503

>  <ModifiedDate>
2012-01-05

>  <Parent>


>  <OneLetterCode>


>  <SubcomponentList>
M30 PRO 00S

>  <AmbiguousFlag>
N

>  <InChI>
InChI=1S/C21H31N5O2/c22-20(23)16-10-8-15(9-11-16)13-25-21(28)18-7-4-12-26(18)19(27)14-24-17-5-2-1-3-6-17/h8-11,17-18,24H,1-7,12-14H2,(H3,22,23)(H,25,28)/t18-/m0/s1

>  <InChIKey>
RYKFVFFOIYLADT-SFHVURJKSA-N

>  <SMILES>
[H]/N=C(/c1ccc(cc1)CNC(=O)[C@@H]2CCCN2C(=O)CNC3CCCCC3)\N

$$$$
