3T85_SG7_A_300


 26 26  0  0  0  0  0  0  0  0999 V2000
   16.2636    2.9476   11.2885 C   0  0  0  0  0  0  0  0  0  0  0  0
   15.6637    3.6126   12.4236 O   0  0  0  0  0  0  0  0  0  0  0  0
   17.4905    3.6102   10.7133 C   0  0  0  0  0  0  0  0  0  0  0  0
   18.3719    4.2338   11.6863 C   0  0  0  0  0  0  0  0  0  0  0  0
   17.6721    4.9835   12.7020 C   0  0  0  0  0  0  0  0  0  0  0  0
   16.6200    4.1132   13.3413 C   0  0  0  0  0  0  0  0  0  0  0  0
   16.5235    1.6394   11.6065 O   0  0  0  0  0  0  0  0  0  0  0  0
   17.0480    4.5996    9.8117 O   0  0  0  0  0  0  0  0  0  0  0  0
   17.1821    1.6042   12.3178 H   0  0  0  0  0  0  0  0  0  0  0  0
   16.5298    5.2651   10.2907 H   0  0  0  0  0  0  0  0  0  0  0  0
   19.2218    5.1523   11.0241 O   0  0  0  0  0  0  0  0  0  0  0  0
   20.4606    4.8908   10.9196 C   0  0  0  0  0  0  0  0  0  0  0  0
   21.1604    5.0454    9.5935 C   0  0  0  0  0  0  0  0  0  0  0  0
   21.0916    4.5336   11.9352 O   0  0  0  0  0  0  0  0  0  0  0  0
   18.5620    5.3660   13.7169 O   0  0  0  0  0  0  0  0  0  0  0  0
   17.7781    7.5068   14.5459 C   0  0  0  0  0  0  0  0  0  0  0  0
   18.8691    6.6005   14.0183 C   0  0  0  0  0  0  0  0  0  0  0  0
   20.0862    6.9395   14.1956 O   0  0  0  0  0  0  0  0  0  0  0  0
   15.6456    4.5268   14.4258 C   0  0  0  0  0  0  0  0  0  0  0  0
   15.6435    3.6748   15.5305 O   0  0  0  0  0  0  0  0  0  0  0  0
   16.7809    2.7375   15.7485 S   0  0  0  0  0  0  0  0  0  0  0  0
   16.7571    1.3430   15.2714 O   0  0  0  0  0  0  0  0  0  0  0  0
   16.2900    2.3783   17.0865 O   0  0  0  0  0  0  0  0  0  0  0  0
   18.1528    3.3612   16.1199 N   0  0  0  0  0  0  0  0  0  0  0  0
   18.6280    3.6676   15.2710 H   0  0  0  0  0  0  0  0  0  0  0  0
   18.7249    2.6646   16.5972 H   0  0  0  0  0  0  0  0  0  0  0  0
  1  2  1  0  0  0
  1  3  1  0  0  0
  1  7  1  0  0  0
  2  6  1  0  0  0
  3  4  1  0  0  0
  3  8  1  0  0  0
  4  5  1  0  0  0
  4 11  1  0  0  0
  5  6  1  0  0  0
  5 15  1  0  0  0
  6 19  1  0  0  0
 11 12  1  0  0  0
 12 13  1  0  0  0
 12 14  2  0  0  0
 15 17  1  0  0  0
 16 17  1  0  0  0
 17 18  2  0  0  0
 19 20  1  0  0  0
 20 21  1  0  0  0
 21 22  2  0  0  0
 21 23  2  0  0  0
 21 24  1  0  0  0
  7  9  1  0  0  0
  8 10  1  0  0  0
 24 25  1  0  0  0
 24 26  1  0  0  0
M  END
> <minimizedAffinity>
-7.56724

$$$$
3T85_SG7_A_300


 26 26  0  0  0  0  0  0  0  0999 V2000
   17.7998    6.9425   14.2011 C   0  0  0  0  0  0  0  0  0  0  0  0
   16.8439    5.9882   14.7169 O   0  0  0  0  0  0  0  0  0  0  0  0
   18.9032    6.3694   13.3472 C   0  0  0  0  0  0  0  0  0  0  0  0
   18.5132    5.2603   12.4926 C   0  0  0  0  0  0  0  0  0  0  0  0
   17.6637    4.2962   13.1499 C   0  0  0  0  0  0  0  0  0  0  0  0
   16.4824    4.9989   13.7694 C   0  0  0  0  0  0  0  0  0  0  0  0
   17.1383    7.9403   13.5325 O   0  0  0  0  0  0  0  0  0  0  0  0
   19.9196    5.9271   14.2183 O   0  0  0  0  0  0  0  0  0  0  0  0
   16.6867    7.5673   12.7593 H   0  0  0  0  0  0  0  0  0  0  0  0
   19.5721    5.2255   14.7909 H   0  0  0  0  0  0  0  0  0  0  0  0
   19.6722    4.5590   12.0811 O   0  0  0  0  0  0  0  0  0  0  0  0
   20.1499    4.7705   10.9231 C   0  0  0  0  0  0  0  0  0  0  0  0
   21.5670    5.2591   10.7636 C   0  0  0  0  0  0  0  0  0  0  0  0
   19.4390    4.5402    9.9237 O   0  0  0  0  0  0  0  0  0  0  0  0
   17.1550    3.3846   12.2126 O   0  0  0  0  0  0  0  0  0  0  0  0
   18.2016    1.4467   11.1957 C   0  0  0  0  0  0  0  0  0  0  0  0
   17.3319    2.0899   12.2539 C   0  0  0  0  0  0  0  0  0  0  0  0
   17.0801    1.4364   13.3203 O   0  0  0  0  0  0  0  0  0  0  0  0
   15.3740    4.3557   14.5784 C   0  0  0  0  0  0  0  0  0  0  0  0
   15.7034    4.1565   15.9193 O   0  0  0  0  0  0  0  0  0  0  0  0
   16.2430    2.8410   16.3647 S   0  0  0  0  0  0  0  0  0  0  0  0
   15.3854    1.6552   16.5414 O   0  0  0  0  0  0  0  0  0  0  0  0
   16.1469    3.2274   17.7795 O   0  0  0  0  0  0  0  0  0  0  0  0
   17.7753    2.6253   16.2444 N   0  0  0  0  0  0  0  0  0  0  0  0
   18.0054    2.3451   15.2911 H   0  0  0  0  0  0  0  0  0  0  0  0
   18.0678    1.8949   16.8935 H   0  0  0  0  0  0  0  0  0  0  0  0
  1  2  1  0  0  0
  1  3  1  0  0  0
  1  7  1  0  0  0
  2  6  1  0  0  0
  3  4  1  0  0  0
  3  8  1  0  0  0
  4  5  1  0  0  0
  4 11  1  0  0  0
  5  6  1  0  0  0
  5 15  1  0  0  0
  6 19  1  0  0  0
 11 12  1  0  0  0
 12 13  1  0  0  0
 12 14  2  0  0  0
 15 17  1  0  0  0
 16 17  1  0  0  0
 17 18  2  0  0  0
 19 20  1  0  0  0
 20 21  1  0  0  0
 21 22  2  0  0  0
 21 23  2  0  0  0
 21 24  1  0  0  0
  7  9  1  0  0  0
  8 10  1  0  0  0
 24 25  1  0  0  0
 24 26  1  0  0  0
M  END
> <minimizedAffinity>
-7.38656

$$$$
3T85_SG7_A_300


 26 26  0  0  0  0  0  0  0  0999 V2000
   16.1876    6.8928   13.2912 C   0  0  0  0  0  0  0  0  0  0  0  0
   16.4274    6.4109   11.9493 O   0  0  0  0  0  0  0  0  0  0  0  0
   15.9932    5.8308   14.3445 C   0  0  0  0  0  0  0  0  0  0  0  0
   16.8078    4.6384   14.1802 C   0  0  0  0  0  0  0  0  0  0  0  0
   16.8718    4.1663   12.8178 C   0  0  0  0  0  0  0  0  0  0  0  0
   17.2959    5.2923   11.9094 C   0  0  0  0  0  0  0  0  0  0  0  0
   17.1873    7.7583   13.6545 O   0  0  0  0  0  0  0  0  0  0  0  0
   14.6353    5.4530   14.3122 O   0  0  0  0  0  0  0  0  0  0  0  0
   18.0316    7.2819   13.6867 H   0  0  0  0  0  0  0  0  0  0  0  0
   14.4259    5.0736   13.4444 H   0  0  0  0  0  0  0  0  0  0  0  0
   16.2509    3.5845   14.9442 O   0  0  0  0  0  0  0  0  0  0  0  0
   16.7460    3.3106   16.0816 C   0  0  0  0  0  0  0  0  0  0  0  0
   15.8610    3.2488   17.3004 C   0  0  0  0  0  0  0  0  0  0  0  0
   17.9667    3.0661   16.1675 O   0  0  0  0  0  0  0  0  0  0  0  0
   17.8404    3.1578   12.7028 O   0  0  0  0  0  0  0  0  0  0  0  0
   18.4521    1.4923   11.0485 C   0  0  0  0  0  0  0  0  0  0  0  0
   17.6227    1.9607   12.2244 C   0  0  0  0  0  0  0  0  0  0  0  0
   16.9953    1.0918   12.9165 O   0  0  0  0  0  0  0  0  0  0  0  0
   17.4517    5.2251   10.4035 C   0  0  0  0  0  0  0  0  0  0  0  0
   18.6933    4.7410    9.9906 O   0  0  0  0  0  0  0  0  0  0  0  0
   19.9396    5.2538   10.6258 S   0  0  0  0  0  0  0  0  0  0  0  0
   20.3624    6.6613   10.5113 O   0  0  0  0  0  0  0  0  0  0  0  0
   20.7555    4.8263    9.4803 O   0  0  0  0  0  0  0  0  0  0  0  0
   20.5715    4.3883   11.7486 N   0  0  0  0  0  0  0  0  0  0  0  0
   20.0979    4.5785   12.6317 H   0  0  0  0  0  0  0  0  0  0  0  0
   21.5616    4.6169   11.8376 H   0  0  0  0  0  0  0  0  0  0  0  0
  1  2  1  0  0  0
  1  3  1  0  0  0
  1  7  1  0  0  0
  2  6  1  0  0  0
  3  4  1  0  0  0
  3  8  1  0  0  0
  4  5  1  0  0  0
  4 11  1  0  0  0
  5  6  1  0  0  0
  5 15  1  0  0  0
  6 19  1  0  0  0
 11 12  1  0  0  0
 12 13  1  0  0  0
 12 14  2  0  0  0
 15 17  1  0  0  0
 16 17  1  0  0  0
 17 18  2  0  0  0
 19 20  1  0  0  0
 20 21  1  0  0  0
 21 22  2  0  0  0
 21 23  2  0  0  0
 21 24  1  0  0  0
  7  9  1  0  0  0
  8 10  1  0  0  0
 24 25  1  0  0  0
 24 26  1  0  0  0
M  END
> <minimizedAffinity>
-7.24652

$$$$
3T85_SG7_A_300


 26 26  0  0  0  0  0  0  0  0999 V2000
   16.8530    1.8946   11.9040 C   0  0  0  0  0  0  0  0  0  0  0  0
   16.7248    2.0181   13.3388 O   0  0  0  0  0  0  0  0  0  0  0  0
   16.6793    3.1700   11.1177 C   0  0  0  0  0  0  0  0  0  0  0  0
   17.2077    4.3661   11.7521 C   0  0  0  0  0  0  0  0  0  0  0  0
   16.9081    4.4523   13.1614 C   0  0  0  0  0  0  0  0  0  0  0  0
   17.3436    3.1848   13.8518 C   0  0  0  0  0  0  0  0  0  0  0  0
   18.0486    1.2963   11.5990 O   0  0  0  0  0  0  0  0  0  0  0  0
   15.2964    3.3478   10.9090 O   0  0  0  0  0  0  0  0  0  0  0  0
   18.7784    1.8672   11.8861 H   0  0  0  0  0  0  0  0  0  0  0  0
   14.8503    3.4458   11.7647 H   0  0  0  0  0  0  0  0  0  0  0  0
   16.6288    5.5085   11.1484 O   0  0  0  0  0  0  0  0  0  0  0  0
   17.3219    6.2070   10.3449 C   0  0  0  0  0  0  0  0  0  0  0  0
   18.1661    7.3443   10.8609 C   0  0  0  0  0  0  0  0  0  0  0  0
   17.3146    5.9187    9.1309 O   0  0  0  0  0  0  0  0  0  0  0  0
   17.6287    5.5062   13.7432 O   0  0  0  0  0  0  0  0  0  0  0  0
   17.8843    7.7942   14.5079 C   0  0  0  0  0  0  0  0  0  0  0  0
   17.0976    6.5062   14.3968 C   0  0  0  0  0  0  0  0  0  0  0  0
   15.8442    6.5314   14.6336 O   0  0  0  0  0  0  0  0  0  0  0  0
   17.1790    2.8574   15.3223 C   0  0  0  0  0  0  0  0  0  0  0  0
   16.0247    3.3977   15.8898 O   0  0  0  0  0  0  0  0  0  0  0  0
   15.3604    2.7024   17.0278 S   0  0  0  0  0  0  0  0  0  0  0  0
   16.0432    2.4594   18.3114 O   0  0  0  0  0  0  0  0  0  0  0  0
   15.7167    1.3816   16.4903 O   0  0  0  0  0  0  0  0  0  0  0  0
   13.8119    2.6026   16.9917 N   0  0  0  0  0  0  0  0  0  0  0  0
   13.4070    3.4696   17.3450 H   0  0  0  0  0  0  0  0  0  0  0  0
   13.5077    1.8229   17.5747 H   0  0  0  0  0  0  0  0  0  0  0  0
  1  2  1  0  0  0
  1  3  1  0  0  0
  1  7  1  0  0  0
  2  6  1  0  0  0
  3  4  1  0  0  0
  3  8  1  0  0  0
  4  5  1  0  0  0
  4 11  1  0  0  0
  5  6  1  0  0  0
  5 15  1  0  0  0
  6 19  1  0  0  0
 11 12  1  0  0  0
 12 13  1  0  0  0
 12 14  2  0  0  0
 15 17  1  0  0  0
 16 17  1  0  0  0
 17 18  2  0  0  0
 19 20  1  0  0  0
 20 21  1  0  0  0
 21 22  2  0  0  0
 21 23  2  0  0  0
 21 24  1  0  0  0
  7  9  1  0  0  0
  8 10  1  0  0  0
 24 25  1  0  0  0
 24 26  1  0  0  0
M  END
> <minimizedAffinity>
-7.17449

$$$$
3T85_SG7_A_300


 26 26  0  0  0  0  0  0  0  0999 V2000
   16.4378    3.1308   11.0424 C   0  0  0  0  0  0  0  0  0  0  0  0
   17.1934    4.2568   10.5409 O   0  0  0  0  0  0  0  0  0  0  0  0
   16.7572    2.7026   12.4530 C   0  0  0  0  0  0  0  0  0  0  0  0
   17.0680    3.7836   13.3735 C   0  0  0  0  0  0  0  0  0  0  0  0
   17.9379    4.7886   12.8110 C   0  0  0  0  0  0  0  0  0  0  0  0
   17.3678    5.2804   11.5047 C   0  0  0  0  0  0  0  0  0  0  0  0
   15.0964    3.3785   10.9032 O   0  0  0  0  0  0  0  0  0  0  0  0
   17.8688    1.8381   12.3863 O   0  0  0  0  0  0  0  0  0  0  0  0
   14.8484    4.1363   11.4557 H   0  0  0  0  0  0  0  0  0  0  0  0
   18.6307    2.3183   12.0262 H   0  0  0  0  0  0  0  0  0  0  0  0
   17.7416    3.2560   14.5016 O   0  0  0  0  0  0  0  0  0  0  0  0
   17.1159    3.1353   15.6006 C   0  0  0  0  0  0  0  0  0  0  0  0
   15.8537    3.9220   15.8463 C   0  0  0  0  0  0  0  0  0  0  0  0
   17.5459    2.3365   16.4574 O   0  0  0  0  0  0  0  0  0  0  0  0
   18.0132    5.8955   13.6698 O   0  0  0  0  0  0  0  0  0  0  0  0
   19.4413    7.8531   13.7842 C   0  0  0  0  0  0  0  0  0  0  0  0
   19.1223    6.4144   14.1281 C   0  0  0  0  0  0  0  0  0  0  0  0
   19.7402    5.8651   15.0997 O   0  0  0  0  0  0  0  0  0  0  0  0
   17.9887    6.3089   10.5810 C   0  0  0  0  0  0  0  0  0  0  0  0
   18.8611    5.7613    9.6401 O   0  0  0  0  0  0  0  0  0  0  0  0
   20.1711    5.2025   10.0778 S   0  0  0  0  0  0  0  0  0  0  0  0
   21.1292    5.9776   10.8865 O   0  0  0  0  0  0  0  0  0  0  0  0
   20.8088    5.5773    8.8077 O   0  0  0  0  0  0  0  0  0  0  0  0
   20.3386    3.6605   10.0224 N   0  0  0  0  0  0  0  0  0  0  0  0
   19.9330    3.2441   10.8605 H   0  0  0  0  0  0  0  0  0  0  0  0
   21.3305    3.4278    9.9730 H   0  0  0  0  0  0  0  0  0  0  0  0
  1  2  1  0  0  0
  1  3  1  0  0  0
  1  7  1  0  0  0
  2  6  1  0  0  0
  3  4  1  0  0  0
  3  8  1  0  0  0
  4  5  1  0  0  0
  4 11  1  0  0  0
  5  6  1  0  0  0
  5 15  1  0  0  0
  6 19  1  0  0  0
 11 12  1  0  0  0
 12 13  1  0  0  0
 12 14  2  0  0  0
 15 17  1  0  0  0
 16 17  1  0  0  0
 17 18  2  0  0  0
 19 20  1  0  0  0
 20 21  1  0  0  0
 21 22  2  0  0  0
 21 23  2  0  0  0
 21 24  1  0  0  0
  7  9  1  0  0  0
  8 10  1  0  0  0
 24 25  1  0  0  0
 24 26  1  0  0  0
M  END
> <minimizedAffinity>
-7.04084

$$$$
3T85_SG7_A_300


 26 26  0  0  0  0  0  0  0  0999 V2000
   16.6174    3.4981   11.0600 C   0  0  0  0  0  0  0  0  0  0  0  0
   17.0268    4.8215   10.6459 O   0  0  0  0  0  0  0  0  0  0  0  0
   17.0361    3.0869   12.4495 C   0  0  0  0  0  0  0  0  0  0  0  0
   17.0227    4.1496   13.4409 C   0  0  0  0  0  0  0  0  0  0  0  0
   17.5763    5.3933   12.9613 C   0  0  0  0  0  0  0  0  0  0  0  0
   16.8985    5.7880   11.6737 C   0  0  0  0  0  0  0  0  0  0  0  0
   15.2616    3.3661   10.9034 O   0  0  0  0  0  0  0  0  0  0  0  0
   18.3472    2.5769   12.3578 O   0  0  0  0  0  0  0  0  0  0  0  0
   14.8060    3.9858   11.4945 H   0  0  0  0  0  0  0  0  0  0  0  0
   18.9445    3.2747   12.0459 H   0  0  0  0  0  0  0  0  0  0  0  0
   17.8110    3.7614   14.5511 O   0  0  0  0  0  0  0  0  0  0  0  0
   17.2416    3.2958   15.5869 C   0  0  0  0  0  0  0  0  0  0  0  0
   15.8958    3.8225   16.0154 C   0  0  0  0  0  0  0  0  0  0  0  0
   17.7995    2.3792   16.2239 O   0  0  0  0  0  0  0  0  0  0  0  0
   17.3301    6.4185   13.8870 O   0  0  0  0  0  0  0  0  0  0  0  0
   19.6918    6.7593   14.3242 C   0  0  0  0  0  0  0  0  0  0  0  0
   18.2448    7.1948   14.4065 C   0  0  0  0  0  0  0  0  0  0  0  0
   17.9867    8.4179   14.6612 O   0  0  0  0  0  0  0  0  0  0  0  0
   17.2088    7.0074   10.8291 C   0  0  0  0  0  0  0  0  0  0  0  0
   16.3698    8.0925   11.0837 O   0  0  0  0  0  0  0  0  0  0  0  0
   15.3567    8.5024   10.0711 S   0  0  0  0  0  0  0  0  0  0  0  0
   15.1627    9.9083    9.6729 O   0  0  0  0  0  0  0  0  0  0  0  0
   14.2944    8.5537   11.0856 O   0  0  0  0  0  0  0  0  0  0  0  0
   14.7932    7.3937    9.1424 N   0  0  0  0  0  0  0  0  0  0  0  0
   15.4381    7.2392    8.3674 H   0  0  0  0  0  0  0  0  0  0  0  0
   13.8863    7.6844    8.7773 H   0  0  0  0  0  0  0  0  0  0  0  0
  1  2  1  0  0  0
  1  3  1  0  0  0
  1  7  1  0  0  0
  2  6  1  0  0  0
  3  4  1  0  0  0
  3  8  1  0  0  0
  4  5  1  0  0  0
  4 11  1  0  0  0
  5  6  1  0  0  0
  5 15  1  0  0  0
  6 19  1  0  0  0
 11 12  1  0  0  0
 12 13  1  0  0  0
 12 14  2  0  0  0
 15 17  1  0  0  0
 16 17  1  0  0  0
 17 18  2  0  0  0
 19 20  1  0  0  0
 20 21  1  0  0  0
 21 22  2  0  0  0
 21 23  2  0  0  0
 21 24  1  0  0  0
  7  9  1  0  0  0
  8 10  1  0  0  0
 24 25  1  0  0  0
 24 26  1  0  0  0
M  END
> <minimizedAffinity>
-6.91192

$$$$
3T85_SG7_A_300


 26 26  0  0  0  0  0  0  0  0999 V2000
   18.6539    6.1667   14.4676 C   0  0  0  0  0  0  0  0  0  0  0  0
   18.0261    4.9330   14.8850 O   0  0  0  0  0  0  0  0  0  0  0  0
   19.1240    6.2115   13.0350 C   0  0  0  0  0  0  0  0  0  0  0  0
   18.2731    5.5191   12.0816 C   0  0  0  0  0  0  0  0  0  0  0  0
   17.8077    4.2354   12.5492 C   0  0  0  0  0  0  0  0  0  0  0  0
   17.1612    4.3915   13.9022 C   0  0  0  0  0  0  0  0  0  0  0  0
   17.8199    7.2212   14.7371 O   0  0  0  0  0  0  0  0  0  0  0  0
   20.4064    5.6271   12.9970 O   0  0  0  0  0  0  0  0  0  0  0  0
   17.0118    7.1380   14.2071 H   0  0  0  0  0  0  0  0  0  0  0  0
   20.3479    4.7003   13.2771 H   0  0  0  0  0  0  0  0  0  0  0  0
   19.0063    5.2724   10.8958 O   0  0  0  0  0  0  0  0  0  0  0  0
   18.8171    6.0127    9.8810 C   0  0  0  0  0  0  0  0  0  0  0  0
   17.4492    6.5800    9.5990 C   0  0  0  0  0  0  0  0  0  0  0  0
   19.7846    6.2848    9.1413 O   0  0  0  0  0  0  0  0  0  0  0  0
   16.8274    3.7330   11.6803 O   0  0  0  0  0  0  0  0  0  0  0  0
   16.8957    1.3114   11.5530 C   0  0  0  0  0  0  0  0  0  0  0  0
   16.9709    2.6820   10.9159 C   0  0  0  0  0  0  0  0  0  0  0  0
   16.8332    2.7783    9.6513 O   0  0  0  0  0  0  0  0  0  0  0  0
   16.5745    3.2836   14.7537 C   0  0  0  0  0  0  0  0  0  0  0  0
   16.5572    3.5759   16.1177 O   0  0  0  0  0  0  0  0  0  0  0  0
   15.6019    2.8699   17.0171 S   0  0  0  0  0  0  0  0  0  0  0  0
   16.0253    2.2429   18.2821 O   0  0  0  0  0  0  0  0  0  0  0  0
   15.7339    1.6205   16.2543 O   0  0  0  0  0  0  0  0  0  0  0  0
   14.0903    3.1563   16.8116 N   0  0  0  0  0  0  0  0  0  0  0  0
   13.8386    4.0178   17.2963 H   0  0  0  0  0  0  0  0  0  0  0  0
   13.5433    2.3821   17.1881 H   0  0  0  0  0  0  0  0  0  0  0  0
  1  2  1  0  0  0
  1  3  1  0  0  0
  1  7  1  0  0  0
  2  6  1  0  0  0
  3  4  1  0  0  0
  3  8  1  0  0  0
  4  5  1  0  0  0
  4 11  1  0  0  0
  5  6  1  0  0  0
  5 15  1  0  0  0
  6 19  1  0  0  0
 11 12  1  0  0  0
 12 13  1  0  0  0
 12 14  2  0  0  0
 15 17  1  0  0  0
 16 17  1  0  0  0
 17 18  2  0  0  0
 19 20  1  0  0  0
 20 21  1  0  0  0
 21 22  2  0  0  0
 21 23  2  0  0  0
 21 24  1  0  0  0
  7  9  1  0  0  0
  8 10  1  0  0  0
 24 25  1  0  0  0
 24 26  1  0  0  0
M  END
> <minimizedAffinity>
-6.86268

$$$$
3T85_SG7_A_300


 26 26  0  0  0  0  0  0  0  0999 V2000
   16.5304    3.2707   11.0950 C   0  0  0  0  0  0  0  0  0  0  0  0
   17.1122    4.4970   10.5969 O   0  0  0  0  0  0  0  0  0  0  0  0
   16.9056    2.8926   12.5061 C   0  0  0  0  0  0  0  0  0  0  0  0
   17.0500    4.0064   13.4286 C   0  0  0  0  0  0  0  0  0  0  0  0
   17.7628    5.1302   12.8698 C   0  0  0  0  0  0  0  0  0  0  0  0
   17.1299    5.5338   11.5622 C   0  0  0  0  0  0  0  0  0  0  0  0
   15.1675    3.3169   10.9517 O   0  0  0  0  0  0  0  0  0  0  0  0
   18.1334    2.2026   12.4421 O   0  0  0  0  0  0  0  0  0  0  0  0
   14.8083    4.0287   11.5042 H   0  0  0  0  0  0  0  0  0  0  0  0
   18.8167    2.7910   12.0848 H   0  0  0  0  0  0  0  0  0  0  0  0
   17.7910    3.5830   14.5583 O   0  0  0  0  0  0  0  0  0  0  0  0
   17.1739    3.2206   15.6079 C   0  0  0  0  0  0  0  0  0  0  0  0
   15.8682    3.8728   15.9848 C   0  0  0  0  0  0  0  0  0  0  0  0
   17.6502    2.2999   16.3026 O   0  0  0  0  0  0  0  0  0  0  0  0
   17.6705    6.2347   13.7298 O   0  0  0  0  0  0  0  0  0  0  0  0
   18.5086    8.3578   14.5515 C   0  0  0  0  0  0  0  0  0  0  0  0
   18.6900    6.8935   14.2157 C   0  0  0  0  0  0  0  0  0  0  0  0
   19.6857    6.2696   14.7128 O   0  0  0  0  0  0  0  0  0  0  0  0
   17.5941    6.6442   10.6414 C   0  0  0  0  0  0  0  0  0  0  0  0
   17.7947    6.2314    9.3240 O   0  0  0  0  0  0  0  0  0  0  0  0
   17.6212    7.2014    8.2064 S   0  0  0  0  0  0  0  0  0  0  0  0
   18.1674    8.5696    8.2570 O   0  0  0  0  0  0  0  0  0  0  0  0
   16.3039    7.6168    8.7089 O   0  0  0  0  0  0  0  0  0  0  0  0
   17.2161    6.6251    6.8234 N   0  0  0  0  0  0  0  0  0  0  0  0
   18.0477    6.2865    6.3394 H   0  0  0  0  0  0  0  0  0  0  0  0
   16.7729    7.3562    6.2670 H   0  0  0  0  0  0  0  0  0  0  0  0
  1  2  1  0  0  0
  1  3  1  0  0  0
  1  7  1  0  0  0
  2  6  1  0  0  0
  3  4  1  0  0  0
  3  8  1  0  0  0
  4  5  1  0  0  0
  4 11  1  0  0  0
  5  6  1  0  0  0
  5 15  1  0  0  0
  6 19  1  0  0  0
 11 12  1  0  0  0
 12 13  1  0  0  0
 12 14  2  0  0  0
 15 17  1  0  0  0
 16 17  1  0  0  0
 17 18  2  0  0  0
 19 20  1  0  0  0
 20 21  1  0  0  0
 21 22  2  0  0  0
 21 23  2  0  0  0
 21 24  1  0  0  0
  7  9  1  0  0  0
  8 10  1  0  0  0
 24 25  1  0  0  0
 24 26  1  0  0  0
M  END
> <minimizedAffinity>
-6.79356

$$$$
3T85_SG7_A_300


 26 26  0  0  0  0  0  0  0  0999 V2000
   18.1253    3.2270   11.4967 C   0  0  0  0  0  0  0  0  0  0  0  0
   17.3809    3.5254   12.6998 O   0  0  0  0  0  0  0  0  0  0  0  0
   17.9299    4.1867   10.3496 C   0  0  0  0  0  0  0  0  0  0  0  0
   17.7699    5.5808   10.7281 C   0  0  0  0  0  0  0  0  0  0  0  0
   16.8996    5.7746   11.8631 C   0  0  0  0  0  0  0  0  0  0  0  0
   17.3580    4.9079   13.0085 C   0  0  0  0  0  0  0  0  0  0  0  0
   19.4564    3.0986   11.7997 O   0  0  0  0  0  0  0  0  0  0  0  0
   16.7747    3.7767    9.6532 O   0  0  0  0  0  0  0  0  0  0  0  0
   19.7977    3.9468   12.1237 H   0  0  0  0  0  0  0  0  0  0  0  0
   16.0055    3.8332   10.2414 H   0  0  0  0  0  0  0  0  0  0  0  0
   17.1888    6.2925    9.6509 O   0  0  0  0  0  0  0  0  0  0  0  0
   17.9037    7.1009    8.9807 C   0  0  0  0  0  0  0  0  0  0  0  0
   17.6517    7.2958    7.5072 C   0  0  0  0  0  0  0  0  0  0  0  0
   18.7948    7.7494    9.5659 O   0  0  0  0  0  0  0  0  0  0  0  0
   16.9687    7.1057   12.3010 O   0  0  0  0  0  0  0  0  0  0  0  0
   15.8964    9.0999   11.4303 C   0  0  0  0  0  0  0  0  0  0  0  0
   15.9510    7.9226   12.3795 C   0  0  0  0  0  0  0  0  0  0  0  0
   14.8815    7.5679   12.9779 O   0  0  0  0  0  0  0  0  0  0  0  0
   16.6995    4.7891   14.3682 C   0  0  0  0  0  0  0  0  0  0  0  0
   16.1714    3.5237   14.6254 O   0  0  0  0  0  0  0  0  0  0  0  0
   16.5965    2.7738   15.8406 S   0  0  0  0  0  0  0  0  0  0  0  0
   15.8368    1.6246   16.3649 O   0  0  0  0  0  0  0  0  0  0  0  0
   15.9218    3.7334   16.7263 O   0  0  0  0  0  0  0  0  0  0  0  0
   18.0649    2.9563   16.3093 N   0  0  0  0  0  0  0  0  0  0  0  0
   18.6727    2.3384   15.7715 H   0  0  0  0  0  0  0  0  0  0  0  0
   18.1366    2.7257   17.3003 H   0  0  0  0  0  0  0  0  0  0  0  0
  1  2  1  0  0  0
  1  3  1  0  0  0
  1  7  1  0  0  0
  2  6  1  0  0  0
  3  4  1  0  0  0
  3  8  1  0  0  0
  4  5  1  0  0  0
  4 11  1  0  0  0
  5  6  1  0  0  0
  5 15  1  0  0  0
  6 19  1  0  0  0
 11 12  1  0  0  0
 12 13  1  0  0  0
 12 14  2  0  0  0
 15 17  1  0  0  0
 16 17  1  0  0  0
 17 18  2  0  0  0
 19 20  1  0  0  0
 20 21  1  0  0  0
 21 22  2  0  0  0
 21 23  2  0  0  0
 21 24  1  0  0  0
  7  9  1  0  0  0
  8 10  1  0  0  0
 24 25  1  0  0  0
 24 26  1  0  0  0
M  END
> <minimizedAffinity>
-6.31340

$$$$
3T85_SG7_A_300


 26 26  0  0  0  0  0  0  0  0999 V2000
   17.0510    7.7722   13.9179 C   0  0  0  0  0  0  0  0  0  0  0  0
   17.7690    7.2128   12.7945 O   0  0  0  0  0  0  0  0  0  0  0  0
   16.0317    6.8658   14.5618 C   0  0  0  0  0  0  0  0  0  0  0  0
   16.3974    5.4601   14.6138 C   0  0  0  0  0  0  0  0  0  0  0  0
   16.9873    4.9714   13.3905 C   0  0  0  0  0  0  0  0  0  0  0  0
   18.1385    5.8594   12.9916 C   0  0  0  0  0  0  0  0  0  0  0  0
   17.9439    8.2362   14.8494 O   0  0  0  0  0  0  0  0  0  0  0  0
   14.8363    6.9902   13.8250 O   0  0  0  0  0  0  0  0  0  0  0  0
   18.4586    7.4935   15.2020 H   0  0  0  0  0  0  0  0  0  0  0  0
   14.9858    6.6935   12.9136 H   0  0  0  0  0  0  0  0  0  0  0  0
   15.2344    4.6838   14.8364 O   0  0  0  0  0  0  0  0  0  0  0  0
   14.9714    4.2786   16.0113 C   0  0  0  0  0  0  0  0  0  0  0  0
   15.5682    2.9922   16.5225 C   0  0  0  0  0  0  0  0  0  0  0  0
   14.2375    4.9750   16.7417 O   0  0  0  0  0  0  0  0  0  0  0  0
   17.5096    3.6845   13.5885 O   0  0  0  0  0  0  0  0  0  0  0  0
   16.3358    2.5391   11.8010 C   0  0  0  0  0  0  0  0  0  0  0  0
   16.9448    2.5763   13.1858 C   0  0  0  0  0  0  0  0  0  0  0  0
   17.1919    1.4727   13.7762 O   0  0  0  0  0  0  0  0  0  0  0  0
   19.0012    5.7148   11.7541 C   0  0  0  0  0  0  0  0  0  0  0  0
   18.6969    4.5889   10.9885 O   0  0  0  0  0  0  0  0  0  0  0  0
   19.7664    3.6076   10.6522 S   0  0  0  0  0  0  0  0  0  0  0  0
   19.7106    2.1999   11.0860 O   0  0  0  0  0  0  0  0  0  0  0  0
   20.5748    4.0211   11.8080 O   0  0  0  0  0  0  0  0  0  0  0  0
   20.7330    3.9800    9.4964 N   0  0  0  0  0  0  0  0  0  0  0  0
   20.3006    3.7456    8.6027 H   0  0  0  0  0  0  0  0  0  0  0  0
   21.6036    3.4588    9.5999 H   0  0  0  0  0  0  0  0  0  0  0  0
  1  2  1  0  0  0
  1  3  1  0  0  0
  1  7  1  0  0  0
  2  6  1  0  0  0
  3  4  1  0  0  0
  3  8  1  0  0  0
  4  5  1  0  0  0
  4 11  1  0  0  0
  5  6  1  0  0  0
  5 15  1  0  0  0
  6 19  1  0  0  0
 11 12  1  0  0  0
 12 13  1  0  0  0
 12 14  2  0  0  0
 15 17  1  0  0  0
 16 17  1  0  0  0
 17 18  2  0  0  0
 19 20  1  0  0  0
 20 21  1  0  0  0
 21 22  2  0  0  0
 21 23  2  0  0  0
 21 24  1  0  0  0
  7  9  1  0  0  0
  8 10  1  0  0  0
 24 25  1  0  0  0
 24 26  1  0  0  0
M  END
> <minimizedAffinity>
-6.30534

$$$$
