3T85_SG7_A_300
  RCSB PDB12061710503D
Coordinates from PDB:3T85:A:300 Model:1 without hydrogens
 22 22  0  0  0  0            999 V2000
   16.9100    1.9370   11.6300   C 0  0  0  0  0  0  0  0  0  0  0  0
   16.8830    2.0640   13.0700   O 0  0  0  0  0  0  0  0  0  0  0  0
   16.5680    3.1850   10.8550   C 0  0  0  0  0  0  0  0  0  0  0  0
   17.0400    4.4280   11.4420   C 0  0  0  0  0  0  0  0  0  0  0  0
   16.8440    4.5030   12.8700   C 0  0  0  0  0  0  0  0  0  0  0  0
   17.4380    3.2840   13.5290   C 0  0  0  0  0  0  0  0  0  0  0  0
   18.1250    1.4390   11.2350   O 0  0  0  0  0  0  0  0  0  0  0  0
   15.1630    3.2430   10.7540   O 0  0  0  0  0  0  0  0  0  0  0  0
   16.3210    5.5110   10.8810   O 0  0  0  0  0  0  0  0  0  0  0  0
   16.9150    6.3120   10.0940   C 0  0  0  0  0  0  0  0  0  0  0  0
   16.2040    7.5370    9.5780   C 0  0  0  0  0  0  0  0  0  0  0  0
   18.1010    6.0840    9.7800   O 0  0  0  0  0  0  0  0  0  0  0  0
   17.5150    5.6200   13.3900   O 0  0  0  0  0  0  0  0  0  0  0  0
   17.8020    7.8540   14.2910   C 0  0  0  0  0  0  0  0  0  0  0  0
   16.9330    6.6940   13.8560   C 0  0  0  0  0  0  0  0  0  0  0  0
   15.6940    6.9050   13.6370   O 0  0  0  0  0  0  0  0  0  0  0  0
   17.4160    2.9590   15.0090   C 0  0  0  0  0  0  0  0  0  0  0  0
   16.3320    3.5160   15.6880   O 0  0  0  0  0  0  0  0  0  0  0  0
   15.4200    2.6410   16.4770   S 0  0  0  0  0  0  0  0  0  0  0  0
   14.0320    3.0260   16.7900   O 0  0  0  0  0  0  0  0  0  0  0  0
   15.9420    3.1630   17.7480   O 0  0  0  0  0  0  0  0  0  0  0  0
   15.8140    1.1460   16.6140   N 0  0  0  0  0  0  0  0  0  0  0  0
  1  2  1  0  0  0  0
  1  3  1  0  0  0  0
  1  7  1  0  0  0  0
  2  6  1  0  0  0  0
  3  4  1  0  0  0  0
  3  8  1  0  0  0  0
  4  5  1  0  0  0  0
  4  9  1  0  0  0  0
  5  6  1  0  0  0  0
  5 13  1  0  0  0  0
  6 17  1  0  0  0  0
  9 10  1  0  0  0  0
 10 11  1  0  0  0  0
 10 12  2  0  0  0  0
 13 15  1  0  0  0  0
 14 15  1  0  0  0  0
 15 16  2  0  0  0  0
 17 18  1  0  0  0  0
 18 19  1  0  0  0  0
 19 20  2  0  0  0  0
 19 21  2  0  0  0  0
 19 22  1  0  0  0  0
A    1
C1
A    2
O5
A    3
C2
A    4
C3
A    5
C4
A    6
C5
A    7
O1A
A    8
O2A
A    9
O3A
A   10
C3B
A   11
C3C
A   12
O3D
A   13
O4A
A   14
C4B
A   15
C4C
A   16
O4D
A   17
C5A
A   18
O5B
A   19
S5C
A   20
O5D
A   21
O5E
A   22
N5F
M  END
>  <InstanceId>
3T85_SG7_A_300

>  <ChemCompId>
SG7

>  <PdbId>
3T85

>  <ChainId>
A

>  <ResidueNumber>
300

>  <InsertionCode>


>  <Model>
1

>  <AltIds>


>  <MissingHeavyAtoms>
0

>  <ObservedFormula>
C10 N O10 S

>  <Name>
3,4-di-O-acetyl-6-O-sulfamoyl-alpha-D-mannopyranose

>  <SystematicName>
[(2R,3R,4R,5S,6S)-4-acetyloxy-5,6-bis(oxidanyl)-2-(sulfamoyloxymethyl)oxan-3-yl] ethanoate

>  <Synonyms>


>  <Type>
saccharide

>  <Formula>
C10 H17 N O10 S

>  <MolecularWeight>
343.308

>  <ModifiedDate>
2011-10-14

>  <Parent>


>  <OneLetterCode>


>  <SubcomponentList>


>  <AmbiguousFlag>
N

>  <InChI>
InChI=1S/C10H17NO10S/c1-4(12)19-8-6(3-18-22(11,16)17)21-10(15)7(14)9(8)20-5(2)13/h6-10,14-15H,3H2,1-2H3,(H2,11,16,17)/t6-,7+,8-,9-,10+/m1/s1

>  <InChIKey>
XQYNJXXCRGRITM-ZOZBQHSOSA-N

>  <SMILES>
CC(=O)O[C@@H]1[C@H](O[C@@H]([C@H]([C@H]1OC(=O)C)O)O)COS(=O)(=O)N

$$$$
