1X8R_SC1_A_601


 32 32  0  0  0  0  0  0  0  0999 V2000
   56.2776   12.1264   27.7606 C   0  0  0  0  0  0  0  0  0  0  0  0
   55.1128   11.3529   28.0615 C   0  0  0  0  0  0  0  0  0  0  0  0
   55.2304   10.1018   28.9063 C   0  0  0  0  0  0  0  0  0  0  0  0
   56.5797   10.0672   29.8020 C   0  0  0  0  0  0  0  0  0  0  0  0
   57.7971   10.2543   28.8439 C   0  0  0  0  0  0  0  0  0  0  0  0
   57.6605   11.7334   28.2729 C   0  0  0  0  0  0  0  0  0  0  0  0
   56.5400    8.8052   30.4758 O   0  0  0  0  0  0  0  0  0  0  0  0
   56.4633    8.0922   29.8225 H   0  0  0  0  0  0  0  0  0  0  0  0
   56.1512   13.3623   26.9448 C   0  0  0  0  0  0  0  0  0  0  0  0
   55.6599   13.2729   25.8300 O   0  0  0  0  0  0  0  0  0  0  0  0
   56.5409   14.3768   27.4547 O   0  0  0  0  0  0  0  0  0  0  0  0
   56.9061   14.3573   28.3174 H   0  0  0  0  0  0  0  0  0  0  0  0
   55.1045    8.8313   27.9378 O   0  0  0  0  0  0  0  0  0  0  0  0
   53.7641    7.8118   27.8005 P   0  0  0  0  0  0  0  0  0  0  0  0
   53.3159    7.5291   29.2478 O   0  0  0  0  0  0  0  0  0  0  0  0
   54.3146    6.5469   27.0402 O   0  0  0  0  0  0  0  0  0  0  0  0
   52.8048    8.7459   27.0488 O   0  0  0  0  0  0  0  0  0  0  0  0
   54.9047    6.0484   27.6269 H   0  0  0  0  0  0  0  0  0  0  0  0
   52.5453    9.4782   27.6296 H   0  0  0  0  0  0  0  0  0  0  0  0
   59.0265   10.1495   29.5724 O   0  0  0  0  0  0  0  0  0  0  0  0
   59.9882    9.0455   29.2921 C   0  0  0  0  0  0  0  0  0  0  0  0
   59.4284    7.5340   29.3230 C   0  0  0  0  0  0  0  0  0  0  0  0
   60.4159    9.1671   27.4425 P   0  0  0  0  0  0  0  0  0  0  0  0
   60.6941   10.6641   27.1441 O   0  0  0  0  0  0  0  0  0  0  0  0
   59.2088    8.7332   26.6528 O   0  0  0  0  0  0  0  0  0  0  0  0
   61.7046    8.3330   27.1451 O   0  0  0  0  0  0  0  0  0  0  0  0
   59.8961   11.1842   27.3277 H   0  0  0  0  0  0  0  0  0  0  0  0
   62.4375    8.6664   27.6861 H   0  0  0  0  0  0  0  0  0  0  0  0
   61.2164    9.2384   30.1820 C   0  0  0  0  0  0  0  0  0  0  0  0
   62.2598    9.8255   29.7372 O   0  0  0  0  0  0  0  0  0  0  0  0
   61.0150    8.8984   31.3795 O   0  0  0  0  0  0  0  0  0  0  0  0
   60.2161    8.4700   31.6168 H   0  0  0  0  0  0  0  0  0  0  0  0
  1  2  2  0  0  0
  1  6  1  0  0  0
  1  9  1  0  0  0
  2  3  1  0  0  0
  3  4  1  0  0  0
  3 13  1  0  0  0
  4  5  1  0  0  0
  4  7  1  0  0  0
  5  6  1  0  0  0
  5 20  1  0  0  0
  9 10  2  0  0  0
  9 11  1  0  0  0
 13 14  1  0  0  0
 20 21  1  0  0  0
 14 15  2  0  0  0
 14 16  1  0  0  0
 14 17  1  0  0  0
 21 22  1  0  0  0
 21 29  1  0  0  0
 21 23  1  0  0  0
 29 30  2  0  0  0
 29 31  1  0  0  0
 23 24  1  0  0  0
 23 25  2  0  0  0
 23 26  1  0  0  0
  7  8  1  0  0  0
 11 12  1  0  0  0
 16 18  1  0  0  0
 17 19  1  0  0  0
 31 32  1  0  0  0
 24 27  1  0  0  0
 26 28  1  0  0  0
M  END
> <minimizedAffinity>
-10.92557

$$$$
1X8R_SC1_A_601


 32 32  0  0  0  0  0  0  0  0999 V2000
   56.2236   12.2889   27.6300 C   0  0  0  0  0  0  0  0  0  0  0  0
   54.9855   11.6019   27.8321 C   0  0  0  0  0  0  0  0  0  0  0  0
   54.9411   10.3556   28.6909 C   0  0  0  0  0  0  0  0  0  0  0  0
   56.2017   10.2377   29.7014 C   0  0  0  0  0  0  0  0  0  0  0  0
   57.5078   10.3285   28.8524 C   0  0  0  0  0  0  0  0  0  0  0  0
   57.5257   11.8067   28.2635 C   0  0  0  0  0  0  0  0  0  0  0  0
   56.0150    8.9895   30.3761 O   0  0  0  0  0  0  0  0  0  0  0  0
   55.9454    8.2760   29.7226 H   0  0  0  0  0  0  0  0  0  0  0  0
   56.2557   13.5210   26.7994 C   0  0  0  0  0  0  0  0  0  0  0  0
   55.7436   13.4860   25.6910 O   0  0  0  0  0  0  0  0  0  0  0  0
   56.7850   14.4794   27.2920 O   0  0  0  0  0  0  0  0  0  0  0  0
   57.1545   14.4206   28.1511 H   0  0  0  0  0  0  0  0  0  0  0  0
   54.8108    9.0857   27.7222 O   0  0  0  0  0  0  0  0  0  0  0  0
   53.6695    7.8465   27.8516 P   0  0  0  0  0  0  0  0  0  0  0  0
   54.3020    6.6329   27.1427 O   0  0  0  0  0  0  0  0  0  0  0  0
   52.3920    8.4183   27.1289 O   0  0  0  0  0  0  0  0  0  0  0  0
   53.6274    7.6923   29.3787 O   0  0  0  0  0  0  0  0  0  0  0  0
   52.5537    8.4628   26.1735 H   0  0  0  0  0  0  0  0  0  0  0  0
   54.4724    7.3326   29.6908 H   0  0  0  0  0  0  0  0  0  0  0  0
   58.6589   10.1470   29.6863 O   0  0  0  0  0  0  0  0  0  0  0  0
   59.7188    9.1644   29.3210 C   0  0  0  0  0  0  0  0  0  0  0  0
   60.5081    9.3900   27.9336 C   0  0  0  0  0  0  0  0  0  0  0  0
   61.1563    9.4551   30.5325 P   0  0  0  0  0  0  0  0  0  0  0  0
   60.7977   10.7183   31.3590 O   0  0  0  0  0  0  0  0  0  0  0  0
   62.3972    9.7405   29.7276 O   0  0  0  0  0  0  0  0  0  0  0  0
   61.2893    8.2292   31.4940 O   0  0  0  0  0  0  0  0  0  0  0  0
   60.7145   11.4806   30.7649 H   0  0  0  0  0  0  0  0  0  0  0  0
   60.4574    8.1056   31.9772 H   0  0  0  0  0  0  0  0  0  0  0  0
   59.1349    7.7568   29.4459 C   0  0  0  0  0  0  0  0  0  0  0  0
   59.4384    6.8465   28.6030 O   0  0  0  0  0  0  0  0  0  0  0  0
   58.4790    7.5885   30.5095 O   0  0  0  0  0  0  0  0  0  0  0  0
   58.3021    8.3174   31.0711 H   0  0  0  0  0  0  0  0  0  0  0  0
  1  2  2  0  0  0
  1  6  1  0  0  0
  1  9  1  0  0  0
  2  3  1  0  0  0
  3  4  1  0  0  0
  3 13  1  0  0  0
  4  5  1  0  0  0
  4  7  1  0  0  0
  5  6  1  0  0  0
  5 20  1  0  0  0
  9 10  2  0  0  0
  9 11  1  0  0  0
 13 14  1  0  0  0
 20 21  1  0  0  0
 14 15  2  0  0  0
 14 16  1  0  0  0
 14 17  1  0  0  0
 21 22  1  0  0  0
 21 29  1  0  0  0
 21 23  1  0  0  0
 29 30  2  0  0  0
 29 31  1  0  0  0
 23 24  1  0  0  0
 23 25  2  0  0  0
 23 26  1  0  0  0
  7  8  1  0  0  0
 11 12  1  0  0  0
 16 18  1  0  0  0
 17 19  1  0  0  0
 31 32  1  0  0  0
 24 27  1  0  0  0
 26 28  1  0  0  0
M  END
> <minimizedAffinity>
-9.59885

$$$$
1X8R_SC1_A_601


 32 32  0  0  0  0  0  0  0  0999 V2000
   56.1581   12.0998   27.7566 C   0  0  0  0  0  0  0  0  0  0  0  0
   55.0668   11.2562   28.1348 C   0  0  0  0  0  0  0  0  0  0  0  0
   55.3225   10.0027   28.9447 C   0  0  0  0  0  0  0  0  0  0  0  0
   56.7390   10.0340   29.7299 C   0  0  0  0  0  0  0  0  0  0  0  0
   57.8631   10.3041   28.6817 C   0  0  0  0  0  0  0  0  0  0  0  0
   57.5977   11.7805   28.1504 C   0  0  0  0  0  0  0  0  0  0  0  0
   56.8249    8.7628   30.3816 O   0  0  0  0  0  0  0  0  0  0  0  0
   56.7365    8.0555   29.7236 H   0  0  0  0  0  0  0  0  0  0  0  0
   55.8970   13.3373   26.9759 C   0  0  0  0  0  0  0  0  0  0  0  0
   56.5290   14.3440   27.2573 O   0  0  0  0  0  0  0  0  0  0  0  0
   55.0750   13.2517   26.1052 O   0  0  0  0  0  0  0  0  0  0  0  0
   54.6344   12.4385   25.9550 H   0  0  0  0  0  0  0  0  0  0  0  0
   55.1914    8.7402   27.9664 O   0  0  0  0  0  0  0  0  0  0  0  0
   53.8027    7.8094   27.7212 P   0  0  0  0  0  0  0  0  0  0  0  0
   53.2316    7.5490   29.1289 O   0  0  0  0  0  0  0  0  0  0  0  0
   54.3265    6.5155   26.9913 O   0  0  0  0  0  0  0  0  0  0  0  0
   52.9629    8.8066   26.9100 O   0  0  0  0  0  0  0  0  0  0  0  0
   54.8387    5.9774   27.6150 H   0  0  0  0  0  0  0  0  0  0  0  0
   52.7082    9.5512   27.4771 H   0  0  0  0  0  0  0  0  0  0  0  0
   59.1509   10.2608   29.3084 O   0  0  0  0  0  0  0  0  0  0  0  0
   60.1886    9.2918   28.8542 C   0  0  0  0  0  0  0  0  0  0  0  0
   61.4638    9.0513   29.8107 C   0  0  0  0  0  0  0  0  0  0  0  0
   59.3965    7.5664   28.9742 P   0  0  0  0  0  0  0  0  0  0  0  0
   60.4464    6.5533   28.4461 O   0  0  0  0  0  0  0  0  0  0  0  0
   58.1965    7.5372   28.0642 O   0  0  0  0  0  0  0  0  0  0  0  0
   59.0704    7.2406   30.4683 O   0  0  0  0  0  0  0  0  0  0  0  0
   60.6507    6.7530   27.5191 H   0  0  0  0  0  0  0  0  0  0  0  0
   59.8856    7.2776   30.9927 H   0  0  0  0  0  0  0  0  0  0  0  0
   60.5846    9.6462   27.4205 C   0  0  0  0  0  0  0  0  0  0  0  0
   61.4382   10.5671   27.1872 O   0  0  0  0  0  0  0  0  0  0  0  0
   60.1007    8.8549   26.5663 O   0  0  0  0  0  0  0  0  0  0  0  0
   59.4768    8.2068   26.8284 H   0  0  0  0  0  0  0  0  0  0  0  0
  1  2  2  0  0  0
  1  6  1  0  0  0
  1  9  1  0  0  0
  2  3  1  0  0  0
  3  4  1  0  0  0
  3 13  1  0  0  0
  4  5  1  0  0  0
  4  7  1  0  0  0
  5  6  1  0  0  0
  5 20  1  0  0  0
  9 10  2  0  0  0
  9 11  1  0  0  0
 13 14  1  0  0  0
 20 21  1  0  0  0
 14 15  2  0  0  0
 14 16  1  0  0  0
 14 17  1  0  0  0
 21 22  1  0  0  0
 21 29  1  0  0  0
 21 23  1  0  0  0
 29 30  2  0  0  0
 29 31  1  0  0  0
 23 24  1  0  0  0
 23 25  2  0  0  0
 23 26  1  0  0  0
  7  8  1  0  0  0
 11 12  1  0  0  0
 16 18  1  0  0  0
 17 19  1  0  0  0
 31 32  1  0  0  0
 24 27  1  0  0  0
 26 28  1  0  0  0
M  END
> <minimizedAffinity>
-9.52301

$$$$
