4L50_D8X_A_501


 22 21  0  0  0  0  0  0  0  0999 V2000
  -38.8057  -11.0532   14.6195 C   0  0  0  0  0  0  0  0  0  0  0  0
  -38.2000  -11.4343   15.8299 O   0  0  0  0  0  0  0  0  0  0  0  0
  -38.1615  -10.6706   16.4267 H   0  0  0  0  0  0  0  0  0  0  0  0
  -37.9396   -9.9689   13.9532 C   0  0  0  0  0  0  0  0  0  0  0  0
  -36.9723   -9.4441   14.7944 O   0  0  0  0  0  0  0  0  0  0  0  0
  -38.8060   -8.9097   13.5825 O   0  0  0  0  0  0  0  0  0  0  0  0
  -36.3047  -10.0002   15.1452 H   0  0  0  0  0  0  0  0  0  0  0  0
  -39.5294   -9.0746   13.0103 H   0  0  0  0  0  0  0  0  0  0  0  0
  -37.3083  -10.4676   12.6348 C   0  0  0  0  0  0  0  0  0  0  0  0
  -38.0111  -11.0203   11.7804 O   0  0  0  0  0  0  0  0  0  0  0  0
  -35.8926  -10.1038   12.3394 C   0  0  0  0  0  0  0  0  0  0  0  0
  -35.9344   -8.8131   11.5057 C   0  0  0  0  0  0  0  0  0  0  0  0
  -35.1188   -9.0277   10.2363 C   0  0  0  0  0  0  0  0  0  0  0  0
  -35.3595   -7.5870   12.2684 C   0  0  0  0  0  0  0  0  0  0  0  0
  -40.1951  -10.5920   14.9610 C   0  0  0  0  0  0  0  0  0  0  0  0
  -41.0199  -10.8660   13.8584 O   0  0  0  0  0  0  0  0  0  0  0  0
  -43.3983  -10.0395   14.0593 O   0  0  0  0  0  0  0  0  0  0  0  0
  -42.5905  -11.2813   14.0660 P   0  0  0  0  0  0  0  0  0  0  0  0
  -42.7232  -11.9751   15.3771 O   0  0  0  0  0  0  0  0  0  0  0  0
  -43.0712  -12.2100   12.8849 O   0  0  0  0  0  0  0  0  0  0  0  0
  -43.6490  -12.2286   15.5165 H   0  0  0  0  0  0  0  0  0  0  0  0
  -44.0017  -12.4487   13.0195 H   0  0  0  0  0  0  0  0  0  0  0  0
 13 12  1  0  0  0
 12 11  1  0  0  0
 12 14  1  0  0  0
 17 18  2  0  0  0
 11  9  1  0  0  0
  2  1  1  0  0  0
  9 10  2  0  0  0
  9  4  1  0  0  0
 18 20  1  0  0  0
 18 19  1  0  0  0
 18 16  1  0  0  0
  5  4  1  0  0  0
  1  4  1  0  0  0
  1 15  1  0  0  0
  4  6  1  0  0  0
 16 15  1  0  0  0
 19 21  1  0  0  0
 20 22  1  0  0  0
  2  3  1  0  0  0
  5  7  1  0  0  0
  6  8  1  0  0  0
M  END
> <minimizedAffinity>
-8.72422

$$$$
4L50_D8X_A_501


 22 21  0  0  0  0  0  0  0  0999 V2000
  -38.4561  -11.8017   13.8071 C   0  0  0  0  0  0  0  0  0  0  0  0
  -38.2850  -11.5090   15.1717 O   0  0  0  0  0  0  0  0  0  0  0  0
  -38.9739  -10.8892   15.4583 H   0  0  0  0  0  0  0  0  0  0  0  0
  -38.2959  -10.5015   12.9987 C   0  0  0  0  0  0  0  0  0  0  0  0
  -39.3541   -9.6217   13.1571 O   0  0  0  0  0  0  0  0  0  0  0  0
  -38.2408  -10.8636   11.6290 O   0  0  0  0  0  0  0  0  0  0  0  0
  -39.5484   -9.2702   14.0037 H   0  0  0  0  0  0  0  0  0  0  0  0
  -37.5823  -11.4582   11.3278 H   0  0  0  0  0  0  0  0  0  0  0  0
  -36.9514   -9.8019   13.2960 C   0  0  0  0  0  0  0  0  0  0  0  0
  -36.7594   -9.2682   14.3949 O   0  0  0  0  0  0  0  0  0  0  0  0
  -35.8392   -9.9471   12.3134 C   0  0  0  0  0  0  0  0  0  0  0  0
  -35.7780   -8.6318   11.5201 C   0  0  0  0  0  0  0  0  0  0  0  0
  -35.3141   -8.9408   10.1016 C   0  0  0  0  0  0  0  0  0  0  0  0
  -34.8056   -7.5958   12.1499 C   0  0  0  0  0  0  0  0  0  0  0  0
  -39.8125  -12.4353   13.6705 C   0  0  0  0  0  0  0  0  0  0  0  0
  -40.6236  -11.9365   14.7021 O   0  0  0  0  0  0  0  0  0  0  0  0
  -42.6202  -12.1505   13.1697 O   0  0  0  0  0  0  0  0  0  0  0  0
  -42.1683  -11.4772   14.4096 P   0  0  0  0  0  0  0  0  0  0  0  0
  -42.1926   -9.9989   14.2311 O   0  0  0  0  0  0  0  0  0  0  0  0
  -43.1045  -11.9174   15.6005 O   0  0  0  0  0  0  0  0  0  0  0  0
  -43.1018   -9.7092   14.0567 H   0  0  0  0  0  0  0  0  0  0  0  0
  -44.0153  -11.6399   15.4153 H   0  0  0  0  0  0  0  0  0  0  0  0
 13 12  1  0  0  0
 12 11  1  0  0  0
 12 14  1  0  0  0
 17 18  2  0  0  0
 11  9  1  0  0  0
  2  1  1  0  0  0
  9 10  2  0  0  0
  9  4  1  0  0  0
 18 20  1  0  0  0
 18 19  1  0  0  0
 18 16  1  0  0  0
  5  4  1  0  0  0
  1  4  1  0  0  0
  1 15  1  0  0  0
  4  6  1  0  0  0
 16 15  1  0  0  0
 19 21  1  0  0  0
 20 22  1  0  0  0
  2  3  1  0  0  0
  5  7  1  0  0  0
  6  8  1  0  0  0
M  END
> <minimizedAffinity>
-8.56396

$$$$
4L50_D8X_A_501


 22 21  0  0  0  0  0  0  0  0999 V2000
  -39.2966  -12.0937   12.7929 C   0  0  0  0  0  0  0  0  0  0  0  0
  -38.4558  -13.1843   12.5089 O   0  0  0  0  0  0  0  0  0  0  0  0
  -38.2152  -13.6309   13.3357 H   0  0  0  0  0  0  0  0  0  0  0  0
  -38.5265  -11.0911   13.6713 C   0  0  0  0  0  0  0  0  0  0  0  0
  -38.3000  -11.5491   14.9588 O   0  0  0  0  0  0  0  0  0  0  0  0
  -39.3206   -9.9205   13.7661 O   0  0  0  0  0  0  0  0  0  0  0  0
  -37.7886  -12.3218   15.0980 H   0  0  0  0  0  0  0  0  0  0  0  0
  -39.5780   -9.4648   12.9889 H   0  0  0  0  0  0  0  0  0  0  0  0
  -37.2057  -10.6424   13.0082 C   0  0  0  0  0  0  0  0  0  0  0  0
  -36.2414  -11.4151   12.9609 O   0  0  0  0  0  0  0  0  0  0  0  0
  -37.1821   -9.3465   12.2707 C   0  0  0  0  0  0  0  0  0  0  0  0
  -35.7272   -9.1169   11.8305 C   0  0  0  0  0  0  0  0  0  0  0  0
  -35.3050   -7.7166   12.2591 C   0  0  0  0  0  0  0  0  0  0  0  0
  -35.5374   -9.2483   10.2936 C   0  0  0  0  0  0  0  0  0  0  0  0
  -40.5237  -12.6578   13.4530 C   0  0  0  0  0  0  0  0  0  0  0  0
  -41.6291  -11.9165   13.0060 O   0  0  0  0  0  0  0  0  0  0  0  0
  -44.0148  -11.2434   13.4912 O   0  0  0  0  0  0  0  0  0  0  0  0
  -42.6518  -11.2073   14.0706 P   0  0  0  0  0  0  0  0  0  0  0  0
  -42.2154   -9.7978   14.2731 O   0  0  0  0  0  0  0  0  0  0  0  0
  -42.6555  -11.9985   15.4353 O   0  0  0  0  0  0  0  0  0  0  0  0
  -42.8114   -9.3620   14.9021 H   0  0  0  0  0  0  0  0  0  0  0  0
  -43.2643  -11.5689   16.0564 H   0  0  0  0  0  0  0  0  0  0  0  0
 13 12  1  0  0  0
 12 11  1  0  0  0
 12 14  1  0  0  0
 17 18  2  0  0  0
 11  9  1  0  0  0
  2  1  1  0  0  0
  9 10  2  0  0  0
  9  4  1  0  0  0
 18 20  1  0  0  0
 18 19  1  0  0  0
 18 16  1  0  0  0
  5  4  1  0  0  0
  1  4  1  0  0  0
  1 15  1  0  0  0
  4  6  1  0  0  0
 16 15  1  0  0  0
 19 21  1  0  0  0
 20 22  1  0  0  0
  2  3  1  0  0  0
  5  7  1  0  0  0
  6  8  1  0  0  0
M  END
> <minimizedAffinity>
-8.41847

$$$$
4L50_D8X_A_501


 22 21  0  0  0  0  0  0  0  0999 V2000
  -39.8326  -10.9008   13.6200 C   0  0  0  0  0  0  0  0  0  0  0  0
  -39.9875  -10.2873   12.3644 O   0  0  0  0  0  0  0  0  0  0  0  0
  -39.6750  -10.8883   11.6701 H   0  0  0  0  0  0  0  0  0  0  0  0
  -38.3356  -11.1688   13.8581 C   0  0  0  0  0  0  0  0  0  0  0  0
  -37.8867  -12.3403   13.2707 O   0  0  0  0  0  0  0  0  0  0  0  0
  -38.1493  -11.2924   15.2581 O   0  0  0  0  0  0  0  0  0  0  0  0
  -37.9301  -12.4446   12.3405 H   0  0  0  0  0  0  0  0  0  0  0  0
  -38.3974  -10.5909   15.8275 H   0  0  0  0  0  0  0  0  0  0  0  0
  -37.4618   -9.9699   13.4287 C   0  0  0  0  0  0  0  0  0  0  0  0
  -37.6979   -8.8398   13.8720 O   0  0  0  0  0  0  0  0  0  0  0  0
  -36.2309  -10.2342   12.6296 C   0  0  0  0  0  0  0  0  0  0  0  0
  -36.0818   -9.0597   11.6491 C   0  0  0  0  0  0  0  0  0  0  0  0
  -35.7677   -9.6180   10.2661 C   0  0  0  0  0  0  0  0  0  0  0  0
  -34.9517   -8.0750   12.0595 C   0  0  0  0  0  0  0  0  0  0  0  0
  -40.6736  -12.1466   13.5961 C   0  0  0  0  0  0  0  0  0  0  0  0
  -41.9395  -11.7988   13.0987 O   0  0  0  0  0  0  0  0  0  0  0  0
  -42.8987  -11.8158   15.4354 O   0  0  0  0  0  0  0  0  0  0  0  0
  -43.1042  -11.2204   14.0945 P   0  0  0  0  0  0  0  0  0  0  0  0
  -44.4303  -11.6234   13.5496 O   0  0  0  0  0  0  0  0  0  0  0  0
  -42.9948   -9.6509   14.2101 O   0  0  0  0  0  0  0  0  0  0  0  0
  -45.1330  -11.2884   14.1283 H   0  0  0  0  0  0  0  0  0  0  0  0
  -43.6891   -9.3212   14.8017 H   0  0  0  0  0  0  0  0  0  0  0  0
 13 12  1  0  0  0
 12 11  1  0  0  0
 12 14  1  0  0  0
 17 18  2  0  0  0
 11  9  1  0  0  0
  2  1  1  0  0  0
  9 10  2  0  0  0
  9  4  1  0  0  0
 18 20  1  0  0  0
 18 19  1  0  0  0
 18 16  1  0  0  0
  5  4  1  0  0  0
  1  4  1  0  0  0
  1 15  1  0  0  0
  4  6  1  0  0  0
 16 15  1  0  0  0
 19 21  1  0  0  0
 20 22  1  0  0  0
  2  3  1  0  0  0
  5  7  1  0  0  0
  6  8  1  0  0  0
M  END
> <minimizedAffinity>
-7.96012

$$$$
4L50_D8X_A_501


 22 21  0  0  0  0  0  0  0  0999 V2000
  -39.9966  -11.9629   13.2379 C   0  0  0  0  0  0  0  0  0  0  0  0
  -40.6624  -13.1888   13.4129 O   0  0  0  0  0  0  0  0  0  0  0  0
  -40.4642  -13.5415   14.2945 H   0  0  0  0  0  0  0  0  0  0  0  0
  -38.4792  -12.2074   13.3249 C   0  0  0  0  0  0  0  0  0  0  0  0
  -38.1313  -13.5445   13.2253 O   0  0  0  0  0  0  0  0  0  0  0  0
  -38.0527  -11.7469   14.5962 O   0  0  0  0  0  0  0  0  0  0  0  0
  -38.3344  -14.0247   12.4468 H   0  0  0  0  0  0  0  0  0  0  0  0
  -38.2030  -10.8566   14.8466 H   0  0  0  0  0  0  0  0  0  0  0  0
  -37.7006  -11.3596   12.2952 C   0  0  0  0  0  0  0  0  0  0  0  0
  -38.2028  -11.1053   11.1941 O   0  0  0  0  0  0  0  0  0  0  0  0
  -36.4302  -10.7065   12.7236 C   0  0  0  0  0  0  0  0  0  0  0  0
  -36.6114   -9.1975   12.4932 C   0  0  0  0  0  0  0  0  0  0  0  0
  -35.2683   -8.6033   12.0862 C   0  0  0  0  0  0  0  0  0  0  0  0
  -37.1245   -8.4545   13.7582 C   0  0  0  0  0  0  0  0  0  0  0  0
  -40.5210  -11.0341   14.2972 C   0  0  0  0  0  0  0  0  0  0  0  0
  -41.6953  -11.5997   14.8189 O   0  0  0  0  0  0  0  0  0  0  0  0
  -44.1971  -11.7508   15.1333 O   0  0  0  0  0  0  0  0  0  0  0  0
  -43.1661  -11.1579   14.2498 P   0  0  0  0  0  0  0  0  0  0  0  0
  -43.3108  -11.6841   12.8641 O   0  0  0  0  0  0  0  0  0  0  0  0
  -43.3131   -9.5875   14.2752 O   0  0  0  0  0  0  0  0  0  0  0  0
  -44.1780  -11.4311   12.5110 H   0  0  0  0  0  0  0  0  0  0  0  0
  -44.1873   -9.3390   13.9362 H   0  0  0  0  0  0  0  0  0  0  0  0
 13 12  1  0  0  0
 12 11  1  0  0  0
 12 14  1  0  0  0
 17 18  2  0  0  0
 11  9  1  0  0  0
  2  1  1  0  0  0
  9 10  2  0  0  0
  9  4  1  0  0  0
 18 20  1  0  0  0
 18 19  1  0  0  0
 18 16  1  0  0  0
  5  4  1  0  0  0
  1  4  1  0  0  0
  1 15  1  0  0  0
  4  6  1  0  0  0
 16 15  1  0  0  0
 19 21  1  0  0  0
 20 22  1  0  0  0
  2  3  1  0  0  0
  5  7  1  0  0  0
  6  8  1  0  0  0
M  END
> <minimizedAffinity>
-7.53040

$$$$
4L50_D8X_A_501


 22 21  0  0  0  0  0  0  0  0999 V2000
  -39.1234  -12.3796   12.7943 C   0  0  0  0  0  0  0  0  0  0  0  0
  -37.9866  -12.9854   13.3577 O   0  0  0  0  0  0  0  0  0  0  0  0
  -37.7064  -12.4834   14.1390 H   0  0  0  0  0  0  0  0  0  0  0  0
  -38.7515  -10.9565   12.3401 C   0  0  0  0  0  0  0  0  0  0  0  0
  -39.8435  -10.1111   12.2317 O   0  0  0  0  0  0  0  0  0  0  0  0
  -38.1653  -11.0667   11.0539 O   0  0  0  0  0  0  0  0  0  0  0  0
  -40.3618   -9.9161   12.9876 H   0  0  0  0  0  0  0  0  0  0  0  0
  -37.4070  -11.6027   10.9290 H   0  0  0  0  0  0  0  0  0  0  0  0
  -37.6617  -10.3328   13.2393 C   0  0  0  0  0  0  0  0  0  0  0  0
  -36.5419  -10.8530   13.3087 O   0  0  0  0  0  0  0  0  0  0  0  0
  -37.9261   -9.0046   13.8637 C   0  0  0  0  0  0  0  0  0  0  0  0
  -38.8109   -9.2646   15.0936 C   0  0  0  0  0  0  0  0  0  0  0  0
  -38.8876   -7.9842   15.9166 C   0  0  0  0  0  0  0  0  0  0  0  0
  -38.2650  -10.4069   15.9951 C   0  0  0  0  0  0  0  0  0  0  0  0
  -40.1964  -12.4174   13.8465 C   0  0  0  0  0  0  0  0  0  0  0  0
  -41.4134  -12.0888   13.2284 O   0  0  0  0  0  0  0  0  0  0  0  0
  -43.8371  -11.3780   13.2597 O   0  0  0  0  0  0  0  0  0  0  0  0
  -42.5875  -11.2973   14.0515 P   0  0  0  0  0  0  0  0  0  0  0  0
  -42.1711   -9.8766   14.2134 O   0  0  0  0  0  0  0  0  0  0  0  0
  -42.8264  -11.9787   15.4540 O   0  0  0  0  0  0  0  0  0  0  0  0
  -42.8565   -9.3922   14.6998 H   0  0  0  0  0  0  0  0  0  0  0  0
  -43.5232  -11.5012   15.9310 H   0  0  0  0  0  0  0  0  0  0  0  0
 13 12  1  0  0  0
 12 11  1  0  0  0
 12 14  1  0  0  0
 17 18  2  0  0  0
 11  9  1  0  0  0
  2  1  1  0  0  0
  9 10  2  0  0  0
  9  4  1  0  0  0
 18 20  1  0  0  0
 18 19  1  0  0  0
 18 16  1  0  0  0
  5  4  1  0  0  0
  1  4  1  0  0  0
  1 15  1  0  0  0
  4  6  1  0  0  0
 16 15  1  0  0  0
 19 21  1  0  0  0
 20 22  1  0  0  0
  2  3  1  0  0  0
  5  7  1  0  0  0
  6  8  1  0  0  0
M  END
> <minimizedAffinity>
-7.15409

$$$$
4L50_D8X_A_501


 22 21  0  0  0  0  0  0  0  0999 V2000
  -41.2549  -12.3017   14.1636 C   0  0  0  0  0  0  0  0  0  0  0  0
  -41.6101  -13.3905   13.3479 O   0  0  0  0  0  0  0  0  0  0  0  0
  -41.9654  -13.0622   12.5072 H   0  0  0  0  0  0  0  0  0  0  0  0
  -42.5196  -11.4784   14.4679 C   0  0  0  0  0  0  0  0  0  0  0  0
  -42.3103  -10.1101   14.4168 O   0  0  0  0  0  0  0  0  0  0  0  0
  -42.9225  -11.8016   15.7882 O   0  0  0  0  0  0  0  0  0  0  0  0
  -42.0364   -9.7075   13.6163 H   0  0  0  0  0  0  0  0  0  0  0  0
  -43.1111  -12.6907   16.0161 H   0  0  0  0  0  0  0  0  0  0  0  0
  -43.7025  -11.8867   13.5627 C   0  0  0  0  0  0  0  0  0  0  0  0
  -43.5844  -11.8482   12.3323 O   0  0  0  0  0  0  0  0  0  0  0  0
  -44.9063  -12.4990   14.1949 C   0  0  0  0  0  0  0  0  0  0  0  0
  -45.7291  -13.1273   13.0586 C   0  0  0  0  0  0  0  0  0  0  0  0
  -47.2085  -12.9996   13.4016 C   0  0  0  0  0  0  0  0  0  0  0  0
  -45.3951  -14.6286   12.8350 C   0  0  0  0  0  0  0  0  0  0  0  0
  -40.1983  -11.5339   13.4192 C   0  0  0  0  0  0  0  0  0  0  0  0
  -39.0262  -11.5604   14.1915 O   0  0  0  0  0  0  0  0  0  0  0  0
  -37.3863   -9.6827   14.5981 O   0  0  0  0  0  0  0  0  0  0  0  0
  -38.6197  -10.2934   15.1464 P   0  0  0  0  0  0  0  0  0  0  0  0
  -38.3735  -10.8036   16.5237 O   0  0  0  0  0  0  0  0  0  0  0  0
  -39.7701   -9.2140   15.1416 O   0  0  0  0  0  0  0  0  0  0  0  0
  -38.1311  -10.0648   17.1037 H   0  0  0  0  0  0  0  0  0  0  0  0
  -39.5175   -8.4697   15.7101 H   0  0  0  0  0  0  0  0  0  0  0  0
 13 12  1  0  0  0
 12 11  1  0  0  0
 12 14  1  0  0  0
 17 18  2  0  0  0
 11  9  1  0  0  0
  2  1  1  0  0  0
  9 10  2  0  0  0
  9  4  1  0  0  0
 18 20  1  0  0  0
 18 19  1  0  0  0
 18 16  1  0  0  0
  5  4  1  0  0  0
  1  4  1  0  0  0
  1 15  1  0  0  0
  4  6  1  0  0  0
 16 15  1  0  0  0
 19 21  1  0  0  0
 20 22  1  0  0  0
  2  3  1  0  0  0
  5  7  1  0  0  0
  6  8  1  0  0  0
M  END
> <minimizedAffinity>
-7.01905

$$$$
4L50_D8X_A_501


 22 21  0  0  0  0  0  0  0  0999 V2000
  -38.3398   -9.4304   14.5605 C   0  0  0  0  0  0  0  0  0  0  0  0
  -37.7531   -9.8578   15.7647 O   0  0  0  0  0  0  0  0  0  0  0  0
  -36.9488  -10.3640   15.5707 H   0  0  0  0  0  0  0  0  0  0  0  0
  -38.7410  -10.6690   13.7391 C   0  0  0  0  0  0  0  0  0  0  0  0
  -37.7868  -11.6730   13.7568 O   0  0  0  0  0  0  0  0  0  0  0  0
  -38.8954  -10.2479   12.3941 O   0  0  0  0  0  0  0  0  0  0  0  0
  -37.5487  -12.0788   14.5671 H   0  0  0  0  0  0  0  0  0  0  0  0
  -39.5048   -9.5682   12.1830 H   0  0  0  0  0  0  0  0  0  0  0  0
  -40.1217  -11.2166   14.1622 C   0  0  0  0  0  0  0  0  0  0  0  0
  -40.3094  -11.5953   15.3244 O   0  0  0  0  0  0  0  0  0  0  0  0
  -41.2584  -11.1031   13.2037 C   0  0  0  0  0  0  0  0  0  0  0  0
  -42.5450  -11.3045   14.0205 C   0  0  0  0  0  0  0  0  0  0  0  0
  -43.5329  -12.1063   13.1814 C   0  0  0  0  0  0  0  0  0  0  0  0
  -43.2115   -9.9619   14.4311 C   0  0  0  0  0  0  0  0  0  0  0  0
  -37.3280   -8.5534   13.8771 C   0  0  0  0  0  0  0  0  0  0  0  0
  -36.2688   -9.3720   13.4538 O   0  0  0  0  0  0  0  0  0  0  0  0
  -35.6651   -7.6935   11.6653 O   0  0  0  0  0  0  0  0  0  0  0  0
  -35.5485   -9.1314   12.0028 P   0  0  0  0  0  0  0  0  0  0  0  0
  -36.2549   -9.9582   10.9852 O   0  0  0  0  0  0  0  0  0  0  0  0
  -34.0205   -9.5158   12.0804 O   0  0  0  0  0  0  0  0  0  0  0  0
  -35.8403   -9.8275   10.1180 H   0  0  0  0  0  0  0  0  0  0  0  0
  -33.6059   -9.3691   11.2158 H   0  0  0  0  0  0  0  0  0  0  0  0
 13 12  1  0  0  0
 12 11  1  0  0  0
 12 14  1  0  0  0
 17 18  2  0  0  0
 11  9  1  0  0  0
  2  1  1  0  0  0
  9 10  2  0  0  0
  9  4  1  0  0  0
 18 20  1  0  0  0
 18 19  1  0  0  0
 18 16  1  0  0  0
  5  4  1  0  0  0
  1  4  1  0  0  0
  1 15  1  0  0  0
  4  6  1  0  0  0
 16 15  1  0  0  0
 19 21  1  0  0  0
 20 22  1  0  0  0
  2  3  1  0  0  0
  5  7  1  0  0  0
  6  8  1  0  0  0
M  END
> <minimizedAffinity>
-6.90096

$$$$
4L50_D8X_A_501


 22 21  0  0  0  0  0  0  0  0999 V2000
  -37.8266  -10.7158   13.4114 C   0  0  0  0  0  0  0  0  0  0  0  0
  -38.3980  -10.6280   12.1297 O   0  0  0  0  0  0  0  0  0  0  0  0
  -38.9473   -9.8304   12.0746 H   0  0  0  0  0  0  0  0  0  0  0  0
  -38.9567  -10.8409   14.4492 C   0  0  0  0  0  0  0  0  0  0  0  0
  -39.5214   -9.6246   14.7963 O   0  0  0  0  0  0  0  0  0  0  0  0
  -38.3890  -11.4003   15.6217 O   0  0  0  0  0  0  0  0  0  0  0  0
  -39.9483   -9.1034   14.1451 H   0  0  0  0  0  0  0  0  0  0  0  0
  -37.9575  -12.2311   15.5829 H   0  0  0  0  0  0  0  0  0  0  0  0
  -40.0432  -11.8414   13.9977 C   0  0  0  0  0  0  0  0  0  0  0  0
  -39.7621  -12.7455   13.2021 O   0  0  0  0  0  0  0  0  0  0  0  0
  -41.3701  -11.8083   14.6773 C   0  0  0  0  0  0  0  0  0  0  0  0
  -42.3603  -11.1854   13.6800 C   0  0  0  0  0  0  0  0  0  0  0  0
  -43.0703  -10.0223   14.3623 C   0  0  0  0  0  0  0  0  0  0  0  0
  -43.4271  -12.1994   13.1809 C   0  0  0  0  0  0  0  0  0  0  0  0
  -36.9769   -9.4883   13.5879 C   0  0  0  0  0  0  0  0  0  0  0  0
  -35.7140   -9.7593   13.0376 O   0  0  0  0  0  0  0  0  0  0  0  0
  -35.9226   -9.4894   10.5348 O   0  0  0  0  0  0  0  0  0  0  0  0
  -35.1876   -8.9613   11.7078 P   0  0  0  0  0  0  0  0  0  0  0  0
  -33.7275   -9.2128   11.5567 O   0  0  0  0  0  0  0  0  0  0  0  0
  -35.4834   -7.4177   11.8436 O   0  0  0  0  0  0  0  0  0  0  0  0
  -33.3986   -8.7465   10.7723 H   0  0  0  0  0  0  0  0  0  0  0  0
  -35.1673   -6.9570   11.0507 H   0  0  0  0  0  0  0  0  0  0  0  0
 13 12  1  0  0  0
 12 11  1  0  0  0
 12 14  1  0  0  0
 17 18  2  0  0  0
 11  9  1  0  0  0
  2  1  1  0  0  0
  9 10  2  0  0  0
  9  4  1  0  0  0
 18 20  1  0  0  0
 18 19  1  0  0  0
 18 16  1  0  0  0
  5  4  1  0  0  0
  1  4  1  0  0  0
  1 15  1  0  0  0
  4  6  1  0  0  0
 16 15  1  0  0  0
 19 21  1  0  0  0
 20 22  1  0  0  0
  2  3  1  0  0  0
  5  7  1  0  0  0
  6  8  1  0  0  0
M  END
> <minimizedAffinity>
-6.83447

$$$$
4L50_D8X_A_501


 22 21  0  0  0  0  0  0  0  0999 V2000
  -42.0516  -11.9882   14.5754 C   0  0  0  0  0  0  0  0  0  0  0  0
  -41.5907  -13.2922   14.3224 O   0  0  0  0  0  0  0  0  0  0  0  0
  -41.1127  -13.3082   13.4785 H   0  0  0  0  0  0  0  0  0  0  0  0
  -43.0350  -11.5865   13.4613 C   0  0  0  0  0  0  0  0  0  0  0  0
  -42.4087  -11.2112   12.2842 O   0  0  0  0  0  0  0  0  0  0  0  0
  -43.7681  -10.4682   13.9324 O   0  0  0  0  0  0  0  0  0  0  0  0
  -41.8730  -11.8255   11.8220 H   0  0  0  0  0  0  0  0  0  0  0  0
  -44.2622  -10.5324   14.7259 H   0  0  0  0  0  0  0  0  0  0  0  0
  -44.0850  -12.6879   13.1971 C   0  0  0  0  0  0  0  0  0  0  0  0
  -43.7335  -13.7855   12.7487 O   0  0  0  0  0  0  0  0  0  0  0  0
  -45.4835  -12.4674   13.6654 C   0  0  0  0  0  0  0  0  0  0  0  0
  -46.1824  -13.8359   13.6252 C   0  0  0  0  0  0  0  0  0  0  0  0
  -47.1892  -13.8341   12.4811 C   0  0  0  0  0  0  0  0  0  0  0  0
  -46.9283  -14.1680   14.9475 C   0  0  0  0  0  0  0  0  0  0  0  0
  -40.8342  -11.1097   14.6528 C   0  0  0  0  0  0  0  0  0  0  0  0
  -39.7050  -11.9281   14.4908 O   0  0  0  0  0  0  0  0  0  0  0  0
  -38.9411  -13.1793   12.4338 O   0  0  0  0  0  0  0  0  0  0  0  0
  -38.8153  -11.8707   13.1169 P   0  0  0  0  0  0  0  0  0  0  0  0
  -37.3953  -11.6175   13.4875 O   0  0  0  0  0  0  0  0  0  0  0  0
  -39.3590  -10.7405   12.1601 O   0  0  0  0  0  0  0  0  0  0  0  0
  -36.8531  -11.5804   12.6840 H   0  0  0  0  0  0  0  0  0  0  0  0
  -38.8244  -10.7168   11.3512 H   0  0  0  0  0  0  0  0  0  0  0  0
 13 12  1  0  0  0
 12 11  1  0  0  0
 12 14  1  0  0  0
 17 18  2  0  0  0
 11  9  1  0  0  0
  2  1  1  0  0  0
  9 10  2  0  0  0
  9  4  1  0  0  0
 18 20  1  0  0  0
 18 19  1  0  0  0
 18 16  1  0  0  0
  5  4  1  0  0  0
  1  4  1  0  0  0
  1 15  1  0  0  0
  4  6  1  0  0  0
 16 15  1  0  0  0
 19 21  1  0  0  0
 20 22  1  0  0  0
  2  3  1  0  0  0
  5  7  1  0  0  0
  6  8  1  0  0  0
M  END
> <minimizedAffinity>
-6.83164

$$$$
