1SLN_INH_A_256


 44 45  0  0  0  0  0  0  0  0999 V2000
  -17.4587   92.8034   81.8862 C   0  0  0  0  0  0  0  0  0  0  0  0
  -19.8601   92.4874   82.0187 C   0  0  0  0  0  0  0  0  0  0  0  0
  -19.9840   93.3829   82.8554 O   0  0  0  0  0  0  0  0  0  0  0  0
  -18.6899   92.1278   81.5042 N   0  0  0  0  0  0  0  0  0  0  0  0
  -18.6545   91.3908   80.8524 H   0  0  0  0  0  0  0  0  0  0  0  0
  -21.0802   91.7215   81.5283 C   0  0  0  0  0  0  0  0  0  0  0  0
  -22.0593   91.6686   82.6222 N   0  0  0  0  0  0  0  0  0  0  0  0
  -21.7434   90.9756   83.3007 H   0  0  0  0  0  0  0  0  0  0  0  0
  -24.4437   92.1441   83.0028 C   0  0  0  0  0  0  0  0  0  0  0  0
  -23.4335   91.3072   82.1936 C   0  0  0  0  0  0  0  0  0  0  0  0
  -23.7712   89.8193   82.2620 C   0  0  0  0  0  0  0  0  0  0  0  0
  -23.0936   89.1125   83.0192 O   0  0  0  0  0  0  0  0  0  0  0  0
  -24.7035   89.3268   81.5756 O   0  0  0  0  0  0  0  0  0  0  0  0
  -25.2071   89.8756   81.0071 H   0  0  0  0  0  0  0  0  0  0  0  0
  -21.7011   92.4444   80.3214 C   0  0  0  0  0  0  0  0  0  0  0  0
  -21.4890   91.7215   78.9989 C   0  0  0  0  0  0  0  0  0  0  0  0
  -22.7035   91.2268   78.2795 C   0  0  0  0  0  0  0  0  0  0  0  0
  -22.5753   90.5253   77.0831 C   0  0  0  0  0  0  0  0  0  0  0  0
  -23.6858   90.0848   76.3951 C   0  0  0  0  0  0  0  0  0  0  0  0
  -24.9493   90.3413   76.8914 C   0  0  0  0  0  0  0  0  0  0  0  0
  -25.0995   91.0406   78.0840 C   0  0  0  0  0  0  0  0  0  0  0  0
  -23.9759   91.4795   78.7717 C   0  0  0  0  0  0  0  0  0  0  0  0
  -16.8274   93.5041   80.6960 C   0  0  0  0  0  0  0  0  0  0  0  0
  -16.8140   92.9630   79.5928 O   0  0  0  0  0  0  0  0  0  0  0  0
  -16.2056   94.6523   80.9714 N   0  0  0  0  0  0  0  0  0  0  0  0
  -16.2267   94.9148   81.9200 H   0  0  0  0  0  0  0  0  0  0  0  0
  -15.5441   95.5235   80.1516 C   0  0  0  0  0  0  0  0  0  0  0  0
  -16.2984   96.3683   79.3445 C   0  0  0  0  0  0  0  0  0  0  0  0
  -15.6769   97.2508   78.4518 C   0  0  0  0  0  0  0  0  0  0  0  0
  -14.2979   97.2901   78.3700 C   0  0  0  0  0  0  0  0  0  0  0  0
  -13.5351   96.4579   79.1717 C   0  0  0  0  0  0  0  0  0  0  0  0
  -14.1618   95.5780   80.0602 C   0  0  0  0  0  0  0  0  0  0  0  0
  -16.4449   91.8161   82.4090 C   0  0  0  0  0  0  0  0  0  0  0  0
  -16.3520   91.7225   83.8832 C   0  0  0  0  0  0  0  0  0  0  0  0
  -16.2590   93.1205   84.3546 C   0  0  0  0  0  0  0  0  0  0  0  0
  -15.3077   93.3028   85.4316 N   0  0  0  0  0  0  0  0  0  0  0  0
  -14.4436   92.8335   85.3832 H   0  0  0  0  0  0  0  0  0  0  0  0
  -15.5550   94.0802   86.4854 C   0  0  0  0  0  0  0  0  0  0  0  0
  -15.0525   93.7723   87.6803 N   0  0  0  0  0  0  0  0  0  0  0  0
  -16.3038   95.1758   86.3354 N   0  0  0  0  0  0  0  0  0  0  0  0
  -14.5008   92.9642   87.7890 H   0  0  0  0  0  0  0  0  0  0  0  0
  -15.2329   94.3530   88.4546 H   0  0  0  0  0  0  0  0  0  0  0  0
  -16.6742   95.4017   85.4516 H   0  0  0  0  0  0  0  0  0  0  0  0
  -16.4852   95.7577   87.1085 H   0  0  0  0  0  0  0  0  0  0  0  0
  9 10  1  0  0  0
 10 11  1  0  0  0
 10  7  1  0  0  0
 11 12  2  0  0  0
 11 13  1  0  0  0
  7  6  1  0  0  0
  6 15  1  0  0  0
  6  2  1  0  0  0
 15 16  1  0  0  0
 16 17  1  0  0  0
 17 18  2  0  0  0
 17 22  1  0  0  0
 18 19  1  0  0  0
 19 20  2  0  0  0
 20 21  1  0  0  0
 21 22  2  0  0  0
  2  3  2  0  0  0
  2  4  1  0  0  0
  4  1  1  0  0  0
  1 33  1  0  0  0
  1 23  1  0  0  0
 33 34  1  0  0  0
 34 35  1  0  0  0
 35 36  1  0  0  0
 36 38  1  0  0  0
 38 39  1  0  0  0
 38 40  2  0  0  0
 23 24  2  0  0  0
 23 25  1  0  0  0
 25 27  1  0  0  0
 27 28  2  0  0  0
 27 32  1  0  0  0
 28 29  1  0  0  0
 29 30  2  0  0  0
 30 31  1  0  0  0
 31 32  2  0  0  0
 13 14  1  0  0  0
  7  8  1  0  0  0
  4  5  1  0  0  0
 36 37  1  0  0  0
 39 41  1  0  0  0
 39 42  1  0  0  0
 40 43  1  0  0  0
 40 44  1  0  0  0
 25 26  1  0  0  0
M  CHG 1  40   1
M  END
> <minimizedAffinity>
-9.26849

$$$$
1SLN_INH_A_256


 44 45  0  0  0  0  0  0  0  0999 V2000
  -16.7307   95.0906   79.4202 C   0  0  0  0  0  0  0  0  0  0  0  0
  -17.5879   93.3352   80.8582 C   0  0  0  0  0  0  0  0  0  0  0  0
  -16.9501   92.4652   80.2635 O   0  0  0  0  0  0  0  0  0  0  0  0
  -17.5582   94.6192   80.5207 N   0  0  0  0  0  0  0  0  0  0  0  0
  -18.1060   95.2640   81.0241 H   0  0  0  0  0  0  0  0  0  0  0  0
  -18.4748   92.9648   82.0380 C   0  0  0  0  0  0  0  0  0  0  0  0
  -19.2872   91.8025   81.6546 N   0  0  0  0  0  0  0  0  0  0  0  0
  -18.8381   91.3466   80.8603 H   0  0  0  0  0  0  0  0  0  0  0  0
  -21.6385   91.1545   81.9830 C   0  0  0  0  0  0  0  0  0  0  0  0
  -20.6828   92.1334   81.2729 C   0  0  0  0  0  0  0  0  0  0  0  0
  -20.9580   92.1799   79.7714 C   0  0  0  0  0  0  0  0  0  0  0  0
  -20.7480   93.2487   79.1836 O   0  0  0  0  0  0  0  0  0  0  0  0
  -21.3823   91.1706   79.1514 O   0  0  0  0  0  0  0  0  0  0  0  0
  -21.5362   90.3688   79.6112 H   0  0  0  0  0  0  0  0  0  0  0  0
  -17.6044   92.6015   83.2526 C   0  0  0  0  0  0  0  0  0  0  0  0
  -16.6993   93.7332   83.7181 C   0  0  0  0  0  0  0  0  0  0  0  0
  -15.8501   93.4868   84.9245 C   0  0  0  0  0  0  0  0  0  0  0  0
  -15.8733   94.3779   85.9948 C   0  0  0  0  0  0  0  0  0  0  0  0
  -15.0777   94.1785   87.1029 C   0  0  0  0  0  0  0  0  0  0  0  0
  -14.2394   93.0819   87.1598 C   0  0  0  0  0  0  0  0  0  0  0  0
  -14.2006   92.1803   86.1017 C   0  0  0  0  0  0  0  0  0  0  0  0
  -15.0062   92.3875   84.9899 C   0  0  0  0  0  0  0  0  0  0  0  0
  -15.4114   95.6463   79.9270 C   0  0  0  0  0  0  0  0  0  0  0  0
  -15.3117   96.0510   81.0829 O   0  0  0  0  0  0  0  0  0  0  0  0
  -14.4506   95.7666   79.0089 N   0  0  0  0  0  0  0  0  0  0  0  0
  -14.7085   95.4805   78.1029 H   0  0  0  0  0  0  0  0  0  0  0  0
  -13.1665   96.2221   79.1208 C   0  0  0  0  0  0  0  0  0  0  0  0
  -12.1390   95.2864   79.1716 C   0  0  0  0  0  0  0  0  0  0  0  0
  -10.8076   95.6914   79.3307 C   0  0  0  0  0  0  0  0  0  0  0  0
  -10.5044   97.0356   79.4353 C   0  0  0  0  0  0  0  0  0  0  0  0
  -11.5175   97.9778   79.3811 C   0  0  0  0  0  0  0  0  0  0  0  0
  -12.8452   97.5669   79.2233 C   0  0  0  0  0  0  0  0  0  0  0  0
  -17.4205   96.2016   78.6678 C   0  0  0  0  0  0  0  0  0  0  0  0
  -18.5872   95.7889   77.8560 C   0  0  0  0  0  0  0  0  0  0  0  0
  -19.6753   96.7106   78.2454 C   0  0  0  0  0  0  0  0  0  0  0  0
  -20.5976   96.1397   79.2055 N   0  0  0  0  0  0  0  0  0  0  0  0
  -21.2433   95.4641   78.8960 H   0  0  0  0  0  0  0  0  0  0  0  0
  -20.6071   96.4921   80.4906 C   0  0  0  0  0  0  0  0  0  0  0  0
  -20.3240   97.7445   80.8462 N   0  0  0  0  0  0  0  0  0  0  0  0
  -20.9107   95.5836   81.4213 N   0  0  0  0  0  0  0  0  0  0  0  0
  -20.1005   98.4128   80.1587 H   0  0  0  0  0  0  0  0  0  0  0  0
  -20.3383   98.0016   81.7964 H   0  0  0  0  0  0  0  0  0  0  0  0
  -21.1196   94.6586   81.1566 H   0  0  0  0  0  0  0  0  0  0  0  0
  -20.9255   95.8388   82.3720 H   0  0  0  0  0  0  0  0  0  0  0  0
  9 10  1  0  0  0
 10 11  1  0  0  0
 10  7  1  0  0  0
 11 12  2  0  0  0
 11 13  1  0  0  0
  7  6  1  0  0  0
  6 15  1  0  0  0
  6  2  1  0  0  0
 15 16  1  0  0  0
 16 17  1  0  0  0
 17 18  2  0  0  0
 17 22  1  0  0  0
 18 19  1  0  0  0
 19 20  2  0  0  0
 20 21  1  0  0  0
 21 22  2  0  0  0
  2  3  2  0  0  0
  2  4  1  0  0  0
  4  1  1  0  0  0
  1 33  1  0  0  0
  1 23  1  0  0  0
 33 34  1  0  0  0
 34 35  1  0  0  0
 35 36  1  0  0  0
 36 38  1  0  0  0
 38 39  1  0  0  0
 38 40  2  0  0  0
 23 24  2  0  0  0
 23 25  1  0  0  0
 25 27  1  0  0  0
 27 28  2  0  0  0
 27 32  1  0  0  0
 28 29  1  0  0  0
 29 30  2  0  0  0
 30 31  1  0  0  0
 31 32  2  0  0  0
 13 14  1  0  0  0
  7  8  1  0  0  0
  4  5  1  0  0  0
 36 37  1  0  0  0
 39 41  1  0  0  0
 39 42  1  0  0  0
 40 43  1  0  0  0
 40 44  1  0  0  0
 25 26  1  0  0  0
M  CHG 1  40   1
M  END
> <minimizedAffinity>
-8.84364

$$$$
1SLN_INH_A_256


 44 45  0  0  0  0  0  0  0  0999 V2000
  -19.8886   92.4058   81.2589 C   0  0  0  0  0  0  0  0  0  0  0  0
  -17.4942   92.5839   81.6038 C   0  0  0  0  0  0  0  0  0  0  0  0
  -17.2580   91.6906   80.7891 O   0  0  0  0  0  0  0  0  0  0  0  0
  -18.7224   92.9881   81.9062 N   0  0  0  0  0  0  0  0  0  0  0  0
  -18.8463   93.6946   82.5805 H   0  0  0  0  0  0  0  0  0  0  0  0
  -16.3531   93.2801   82.3310 C   0  0  0  0  0  0  0  0  0  0  0  0
  -16.2826   94.6674   81.8531 N   0  0  0  0  0  0  0  0  0  0  0  0
  -17.1843   95.1114   82.0266 H   0  0  0  0  0  0  0  0  0  0  0  0
  -14.6500   95.5809   80.2543 C   0  0  0  0  0  0  0  0  0  0  0  0
  -15.9695   94.7994   80.4083 C   0  0  0  0  0  0  0  0  0  0  0  0
  -17.0755   95.4118   79.5515 C   0  0  0  0  0  0  0  0  0  0  0  0
  -18.1500   95.6756   80.1063 O   0  0  0  0  0  0  0  0  0  0  0  0
  -16.9040   95.6415   78.3264 O   0  0  0  0  0  0  0  0  0  0  0  0
  -16.0844   95.4359   77.9214 H   0  0  0  0  0  0  0  0  0  0  0  0
  -16.6177   93.2744   83.8459 C   0  0  0  0  0  0  0  0  0  0  0  0
  -15.6037   92.4652   84.6418 C   0  0  0  0  0  0  0  0  0  0  0  0
  -14.9859   93.1168   85.8381 C   0  0  0  0  0  0  0  0  0  0  0  0
  -13.9497   92.4883   86.5246 C   0  0  0  0  0  0  0  0  0  0  0  0
  -13.3870   93.0639   87.6438 C   0  0  0  0  0  0  0  0  0  0  0  0
  -13.8539   94.2814   88.1001 C   0  0  0  0  0  0  0  0  0  0  0  0
  -14.8882   94.9254   87.4296 C   0  0  0  0  0  0  0  0  0  0  0  0
  -15.4485   94.3397   86.3022 C   0  0  0  0  0  0  0  0  0  0  0  0
  -20.6418   93.4469   80.4496 C   0  0  0  0  0  0  0  0  0  0  0  0
  -20.7201   93.3454   79.2275 O   0  0  0  0  0  0  0  0  0  0  0  0
  -21.0825   94.5000   81.1406 N   0  0  0  0  0  0  0  0  0  0  0  0
  -20.8671   94.4818   82.1010 H   0  0  0  0  0  0  0  0  0  0  0  0
  -21.7843   95.6000   80.7326 C   0  0  0  0  0  0  0  0  0  0  0  0
  -21.2818   96.8564   81.0531 C   0  0  0  0  0  0  0  0  0  0  0  0
  -21.9794   98.0189   80.7010 C   0  0  0  0  0  0  0  0  0  0  0  0
  -23.1801   97.9230   80.0235 C   0  0  0  0  0  0  0  0  0  0  0  0
  -23.6889   96.6782   79.6939 C   0  0  0  0  0  0  0  0  0  0  0  0
  -22.9881   95.5211   80.0494 C   0  0  0  0  0  0  0  0  0  0  0  0
  -20.8519   91.8568   82.2820 C   0  0  0  0  0  0  0  0  0  0  0  0
  -21.9355   91.0062   81.7409 C   0  0  0  0  0  0  0  0  0  0  0  0
  -23.1647   91.4659   82.4212 C   0  0  0  0  0  0  0  0  0  0  0  0
  -24.1916   90.4477   82.5050 N   0  0  0  0  0  0  0  0  0  0  0  0
  -24.1476   89.6807   81.8894 H   0  0  0  0  0  0  0  0  0  0  0  0
  -25.1934   90.5074   83.3817 C   0  0  0  0  0  0  0  0  0  0  0  0
  -25.7153   91.6837   83.7268 N   0  0  0  0  0  0  0  0  0  0  0  0
  -25.6779   89.3792   83.9072 N   0  0  0  0  0  0  0  0  0  0  0  0
  -25.3568   92.5142   83.3384 H   0  0  0  0  0  0  0  0  0  0  0  0
  -26.4593   91.7223   84.3703 H   0  0  0  0  0  0  0  0  0  0  0  0
  -25.2911   88.5110   83.6509 H   0  0  0  0  0  0  0  0  0  0  0  0
  -26.4220   89.4159   84.5508 H   0  0  0  0  0  0  0  0  0  0  0  0
  9 10  1  0  0  0
 10 11  1  0  0  0
 10  7  1  0  0  0
 11 12  2  0  0  0
 11 13  1  0  0  0
  7  6  1  0  0  0
  6 15  1  0  0  0
  6  2  1  0  0  0
 15 16  1  0  0  0
 16 17  1  0  0  0
 17 18  2  0  0  0
 17 22  1  0  0  0
 18 19  1  0  0  0
 19 20  2  0  0  0
 20 21  1  0  0  0
 21 22  2  0  0  0
  2  3  2  0  0  0
  2  4  1  0  0  0
  4  1  1  0  0  0
  1 33  1  0  0  0
  1 23  1  0  0  0
 33 34  1  0  0  0
 34 35  1  0  0  0
 35 36  1  0  0  0
 36 38  1  0  0  0
 38 39  1  0  0  0
 38 40  2  0  0  0
 23 24  2  0  0  0
 23 25  1  0  0  0
 25 27  1  0  0  0
 27 28  2  0  0  0
 27 32  1  0  0  0
 28 29  1  0  0  0
 29 30  2  0  0  0
 30 31  1  0  0  0
 31 32  2  0  0  0
 13 14  1  0  0  0
  7  8  1  0  0  0
  4  5  1  0  0  0
 36 37  1  0  0  0
 39 41  1  0  0  0
 39 42  1  0  0  0
 40 43  1  0  0  0
 40 44  1  0  0  0
 25 26  1  0  0  0
M  CHG 1  40   1
M  END
> <minimizedAffinity>
-8.80851

$$$$
1SLN_INH_A_256


 44 45  0  0  0  0  0  0  0  0999 V2000
  -17.4541   92.7349   82.4677 C   0  0  0  0  0  0  0  0  0  0  0  0
  -16.6810   93.6847   80.3738 C   0  0  0  0  0  0  0  0  0  0  0  0
  -16.9848   92.6717   79.7422 O   0  0  0  0  0  0  0  0  0  0  0  0
  -16.8553   93.8057   81.6847 N   0  0  0  0  0  0  0  0  0  0  0  0
  -16.5743   94.6348   82.1351 H   0  0  0  0  0  0  0  0  0  0  0  0
  -16.0635   94.8778   79.6591 C   0  0  0  0  0  0  0  0  0  0  0  0
  -17.0428   95.9728   79.6634 N   0  0  0  0  0  0  0  0  0  0  0  0
  -17.1621   96.2912   80.6250 H   0  0  0  0  0  0  0  0  0  0  0  0
  -18.4263   95.9533   77.6282 C   0  0  0  0  0  0  0  0  0  0  0  0
  -18.3760   95.6006   79.1279 C   0  0  0  0  0  0  0  0  0  0  0  0
  -19.5702   96.1927   79.8732 C   0  0  0  0  0  0  0  0  0  0  0  0
  -20.0787   97.2232   79.4131 O   0  0  0  0  0  0  0  0  0  0  0  0
  -20.0235   95.6553   80.9165 O   0  0  0  0  0  0  0  0  0  0  0  0
  -19.6272   94.8753   81.2519 H   0  0  0  0  0  0  0  0  0  0  0  0
  -14.7910   95.3276   80.3962 C   0  0  0  0  0  0  0  0  0  0  0  0
  -13.9498   96.3253   79.6129 C   0  0  0  0  0  0  0  0  0  0  0  0
  -12.6721   95.8306   79.0127 C   0  0  0  0  0  0  0  0  0  0  0  0
  -12.5836   95.5946   77.6428 C   0  0  0  0  0  0  0  0  0  0  0  0
  -11.4211   95.1145   77.0782 C   0  0  0  0  0  0  0  0  0  0  0  0
  -10.3231   94.8582   77.8764 C   0  0  0  0  0  0  0  0  0  0  0  0
  -10.3906   95.0865   79.2465 C   0  0  0  0  0  0  0  0  0  0  0  0
  -11.5646   95.5716   79.8073 C   0  0  0  0  0  0  0  0  0  0  0  0
  -18.9703   92.8080   82.4245 C   0  0  0  0  0  0  0  0  0  0  0  0
  -19.5738   93.6042   83.1400 O   0  0  0  0  0  0  0  0  0  0  0  0
  -19.5666   91.8849   81.6676 N   0  0  0  0  0  0  0  0  0  0  0  0
  -18.9520   91.2581   81.2218 H   0  0  0  0  0  0  0  0  0  0  0  0
  -20.8914   91.6673   81.4099 C   0  0  0  0  0  0  0  0  0  0  0  0
  -21.3843   92.0205   80.1585 C   0  0  0  0  0  0  0  0  0  0  0  0
  -22.7419   91.8626   79.8519 C   0  0  0  0  0  0  0  0  0  0  0  0
  -23.6063   91.3467   80.7986 C   0  0  0  0  0  0  0  0  0  0  0  0
  -23.1274   90.9862   82.0467 C   0  0  0  0  0  0  0  0  0  0  0  0
  -21.7708   91.1475   82.3471 C   0  0  0  0  0  0  0  0  0  0  0  0
  -17.0459   92.8368   83.9165 C   0  0  0  0  0  0  0  0  0  0  0  0
  -15.9165   91.9694   84.3199 C   0  0  0  0  0  0  0  0  0  0  0  0
  -15.1511   92.7634   85.3041 C   0  0  0  0  0  0  0  0  0  0  0  0
  -15.8818   93.9041   85.8170 N   0  0  0  0  0  0  0  0  0  0  0  0
  -16.6583   94.2345   85.3100 H   0  0  0  0  0  0  0  0  0  0  0  0
  -15.5454   94.5243   86.9475 C   0  0  0  0  0  0  0  0  0  0  0  0
  -15.9716   95.7637   87.1866 N   0  0  0  0  0  0  0  0  0  0  0  0
  -14.7841   93.8927   87.8448 N   0  0  0  0  0  0  0  0  0  0  0  0
  -16.5327   96.2277   86.5240 H   0  0  0  0  0  0  0  0  0  0  0  0
  -15.7255   96.2156   88.0260 H   0  0  0  0  0  0  0  0  0  0  0  0
  -14.4701   92.9768   87.6664 H   0  0  0  0  0  0  0  0  0  0  0  0
  -14.5370   94.3429   88.6848 H   0  0  0  0  0  0  0  0  0  0  0  0
  9 10  1  0  0  0
 10 11  1  0  0  0
 10  7  1  0  0  0
 11 12  2  0  0  0
 11 13  1  0  0  0
  7  6  1  0  0  0
  6 15  1  0  0  0
  6  2  1  0  0  0
 15 16  1  0  0  0
 16 17  1  0  0  0
 17 18  2  0  0  0
 17 22  1  0  0  0
 18 19  1  0  0  0
 19 20  2  0  0  0
 20 21  1  0  0  0
 21 22  2  0  0  0
  2  3  2  0  0  0
  2  4  1  0  0  0
  4  1  1  0  0  0
  1 33  1  0  0  0
  1 23  1  0  0  0
 33 34  1  0  0  0
 34 35  1  0  0  0
 35 36  1  0  0  0
 36 38  1  0  0  0
 38 39  1  0  0  0
 38 40  2  0  0  0
 23 24  2  0  0  0
 23 25  1  0  0  0
 25 27  1  0  0  0
 27 28  2  0  0  0
 27 32  1  0  0  0
 28 29  1  0  0  0
 29 30  2  0  0  0
 30 31  1  0  0  0
 31 32  2  0  0  0
 13 14  1  0  0  0
  7  8  1  0  0  0
  4  5  1  0  0  0
 36 37  1  0  0  0
 39 41  1  0  0  0
 39 42  1  0  0  0
 40 43  1  0  0  0
 40 44  1  0  0  0
 25 26  1  0  0  0
M  CHG 1  40   1
M  END
> <minimizedAffinity>
-8.76385

$$$$
1SLN_INH_A_256


 44 45  0  0  0  0  0  0  0  0999 V2000
  -23.2280   92.4300   81.0005 C   0  0  0  0  0  0  0  0  0  0  0  0
  -20.9476   92.5024   81.8243 C   0  0  0  0  0  0  0  0  0  0  0  0
  -21.2099   91.7559   82.7684 O   0  0  0  0  0  0  0  0  0  0  0  0
  -21.8499   92.8927   80.9315 N   0  0  0  0  0  0  0  0  0  0  0  0
  -21.5816   93.5062   80.2098 H   0  0  0  0  0  0  0  0  0  0  0  0
  -19.5348   93.0361   81.6380 C   0  0  0  0  0  0  0  0  0  0  0  0
  -19.6268   94.4149   81.1394 N   0  0  0  0  0  0  0  0  0  0  0  0
  -20.5972   94.5984   80.8843 H   0  0  0  0  0  0  0  0  0  0  0  0
  -18.2886   93.3554   79.3665 C   0  0  0  0  0  0  0  0  0  0  0  0
  -18.7742   94.6938   79.9570 C   0  0  0  0  0  0  0  0  0  0  0  0
  -17.6043   95.6442   80.2022 C   0  0  0  0  0  0  0  0  0  0  0  0
  -17.3085   96.4341   79.2963 O   0  0  0  0  0  0  0  0  0  0  0  0
  -16.9626   95.6280   81.2843 O   0  0  0  0  0  0  0  0  0  0  0  0
  -17.1992   95.0238   81.9603 H   0  0  0  0  0  0  0  0  0  0  0  0
  -18.7911   93.0281   82.9840 C   0  0  0  0  0  0  0  0  0  0  0  0
  -17.3288   92.6206   82.8734 C   0  0  0  0  0  0  0  0  0  0  0  0
  -16.4510   92.8687   84.0588 C   0  0  0  0  0  0  0  0  0  0  0  0
  -16.6041   94.0269   84.8172 C   0  0  0  0  0  0  0  0  0  0  0  0
  -15.7864   94.2823   85.8973 C   0  0  0  0  0  0  0  0  0  0  0  0
  -14.7953   93.3823   86.2382 C   0  0  0  0  0  0  0  0  0  0  0  0
  -14.6252   92.2200   85.4938 C   0  0  0  0  0  0  0  0  0  0  0  0
  -15.4540   91.9694   84.4083 C   0  0  0  0  0  0  0  0  0  0  0  0
  -23.6373   91.7367   79.7129 C   0  0  0  0  0  0  0  0  0  0  0  0
  -24.4717   90.8349   79.7319 O   0  0  0  0  0  0  0  0  0  0  0  0
  -22.9481   92.0927   78.6271 N   0  0  0  0  0  0  0  0  0  0  0  0
  -22.2488   92.7672   78.7860 H   0  0  0  0  0  0  0  0  0  0  0  0
  -23.0544   91.6738   77.3302 C   0  0  0  0  0  0  0  0  0  0  0  0
  -23.6859   92.5125   76.4181 C   0  0  0  0  0  0  0  0  0  0  0  0
  -23.8641   92.1184   75.0859 C   0  0  0  0  0  0  0  0  0  0  0  0
  -23.4058   90.8844   74.6654 C   0  0  0  0  0  0  0  0  0  0  0  0
  -22.7708   90.0419   75.5622 C   0  0  0  0  0  0  0  0  0  0  0  0
  -22.5970   90.4407   76.8916 C   0  0  0  0  0  0  0  0  0  0  0  0
  -24.1735   93.5885   81.2007 C   0  0  0  0  0  0  0  0  0  0  0  0
  -25.3612   93.3010   82.0358 C   0  0  0  0  0  0  0  0  0  0  0  0
  -24.8816   92.3779   83.0860 C   0  0  0  0  0  0  0  0  0  0  0  0
  -25.8037   91.2968   83.3673 N   0  0  0  0  0  0  0  0  0  0  0  0
  -26.7441   91.5158   83.5592 H   0  0  0  0  0  0  0  0  0  0  0  0
  -25.4303   90.0176   83.3767 C   0  0  0  0  0  0  0  0  0  0  0  0
  -24.4687   89.5921   82.5586 N   0  0  0  0  0  0  0  0  0  0  0  0
  -26.0206   89.1645   84.2178 N   0  0  0  0  0  0  0  0  0  0  0  0
  -24.0347   90.2224   81.9392 H   0  0  0  0  0  0  0  0  0  0  0  0
  -24.1920   88.6474   82.5734 H   0  0  0  0  0  0  0  0  0  0  0  0
  -26.7310   89.4807   84.8216 H   0  0  0  0  0  0  0  0  0  0  0  0
  -25.7453   88.2194   84.2341 H   0  0  0  0  0  0  0  0  0  0  0  0
  9 10  1  0  0  0
 10 11  1  0  0  0
 10  7  1  0  0  0
 11 12  2  0  0  0
 11 13  1  0  0  0
  7  6  1  0  0  0
  6 15  1  0  0  0
  6  2  1  0  0  0
 15 16  1  0  0  0
 16 17  1  0  0  0
 17 18  2  0  0  0
 17 22  1  0  0  0
 18 19  1  0  0  0
 19 20  2  0  0  0
 20 21  1  0  0  0
 21 22  2  0  0  0
  2  3  2  0  0  0
  2  4  1  0  0  0
  4  1  1  0  0  0
  1 33  1  0  0  0
  1 23  1  0  0  0
 33 34  1  0  0  0
 34 35  1  0  0  0
 35 36  1  0  0  0
 36 38  1  0  0  0
 38 39  1  0  0  0
 38 40  2  0  0  0
 23 24  2  0  0  0
 23 25  1  0  0  0
 25 27  1  0  0  0
 27 28  2  0  0  0
 27 32  1  0  0  0
 28 29  1  0  0  0
 29 30  2  0  0  0
 30 31  1  0  0  0
 31 32  2  0  0  0
 13 14  1  0  0  0
  7  8  1  0  0  0
  4  5  1  0  0  0
 36 37  1  0  0  0
 39 41  1  0  0  0
 39 42  1  0  0  0
 40 43  1  0  0  0
 40 44  1  0  0  0
 25 26  1  0  0  0
M  CHG 1  40   1
M  END
> <minimizedAffinity>
-8.72213

$$$$
1SLN_INH_A_256


 44 45  0  0  0  0  0  0  0  0999 V2000
  -17.3723   92.5164   82.3855 C   0  0  0  0  0  0  0  0  0  0  0  0
  -19.6968   92.3306   81.7176 C   0  0  0  0  0  0  0  0  0  0  0  0
  -20.0824   92.9786   82.6916 O   0  0  0  0  0  0  0  0  0  0  0  0
  -18.4196   92.0461   81.4910 N   0  0  0  0  0  0  0  0  0  0  0  0
  -18.1768   91.5072   80.7037 H   0  0  0  0  0  0  0  0  0  0  0  0
  -20.6995   91.8014   80.7026 C   0  0  0  0  0  0  0  0  0  0  0  0
  -22.0508   92.0174   81.2365 N   0  0  0  0  0  0  0  0  0  0  0  0
  -21.9700   92.2505   82.2262 H   0  0  0  0  0  0  0  0  0  0  0  0
  -24.0680   91.1847   80.0990 C   0  0  0  0  0  0  0  0  0  0  0  0
  -22.9522   90.8454   81.1069 C   0  0  0  0  0  0  0  0  0  0  0  0
  -23.5348   90.3188   82.4167 C   0  0  0  0  0  0  0  0  0  0  0  0
  -24.2530   91.0842   83.0727 O   0  0  0  0  0  0  0  0  0  0  0  0
  -23.2960   89.1501   82.8170 O   0  0  0  0  0  0  0  0  0  0  0  0
  -22.7502   88.5831   82.3085 H   0  0  0  0  0  0  0  0  0  0  0  0
  -20.5480   92.5599   79.3734 C   0  0  0  0  0  0  0  0  0  0  0  0
  -21.5565   93.6853   79.1921 C   0  0  0  0  0  0  0  0  0  0  0  0
  -21.0290   95.0840   79.1415 C   0  0  0  0  0  0  0  0  0  0  0  0
  -20.7389   95.7693   80.3190 C   0  0  0  0  0  0  0  0  0  0  0  0
  -20.2763   97.0676   80.2900 C   0  0  0  0  0  0  0  0  0  0  0  0
  -20.0973   97.7075   79.0788 C   0  0  0  0  0  0  0  0  0  0  0  0
  -20.3815   97.0415   77.8915 C   0  0  0  0  0  0  0  0  0  0  0  0
  -20.8457   95.7334   77.9293 C   0  0  0  0  0  0  0  0  0  0  0  0
  -16.7748   93.8215   81.8895 C   0  0  0  0  0  0  0  0  0  0  0  0
  -16.5321   94.7322   82.6781 O   0  0  0  0  0  0  0  0  0  0  0  0
  -16.6602   93.9316   80.5646 N   0  0  0  0  0  0  0  0  0  0  0  0
  -16.9785   93.1502   80.0574 H   0  0  0  0  0  0  0  0  0  0  0  0
  -16.1730   94.9521   79.7965 C   0  0  0  0  0  0  0  0  0  0  0  0
  -17.0551   95.6196   78.9538 C   0  0  0  0  0  0  0  0  0  0  0  0
  -16.6051   96.6436   78.1106 C   0  0  0  0  0  0  0  0  0  0  0  0
  -15.2705   97.0023   78.1143 C   0  0  0  0  0  0  0  0  0  0  0  0
  -14.3827   96.3491   78.9523 C   0  0  0  0  0  0  0  0  0  0  0  0
  -14.8381   95.3265   79.7910 C   0  0  0  0  0  0  0  0  0  0  0  0
  -16.2464   91.5154   82.4665 C   0  0  0  0  0  0  0  0  0  0  0  0
  -15.1016   91.9156   83.3149 C   0  0  0  0  0  0  0  0  0  0  0  0
  -15.6367   91.9580   84.6922 C   0  0  0  0  0  0  0  0  0  0  0  0
  -15.4482   93.2378   85.3440 N   0  0  0  0  0  0  0  0  0  0  0  0
  -15.6932   94.0570   84.8561 H   0  0  0  0  0  0  0  0  0  0  0  0
  -14.9566   93.3509   86.5775 C   0  0  0  0  0  0  0  0  0  0  0  0
  -15.4382   94.2721   87.4110 N   0  0  0  0  0  0  0  0  0  0  0  0
  -13.9827   92.5292   86.9772 N   0  0  0  0  0  0  0  0  0  0  0  0
  -16.1562   94.8769   87.1145 H   0  0  0  0  0  0  0  0  0  0  0  0
  -15.0760   94.3478   88.3233 H   0  0  0  0  0  0  0  0  0  0  0  0
  -13.6281   91.8491   86.3599 H   0  0  0  0  0  0  0  0  0  0  0  0
  -13.6193   92.6035   87.8891 H   0  0  0  0  0  0  0  0  0  0  0  0
  9 10  1  0  0  0
 10 11  1  0  0  0
 10  7  1  0  0  0
 11 12  2  0  0  0
 11 13  1  0  0  0
  7  6  1  0  0  0
  6 15  1  0  0  0
  6  2  1  0  0  0
 15 16  1  0  0  0
 16 17  1  0  0  0
 17 18  2  0  0  0
 17 22  1  0  0  0
 18 19  1  0  0  0
 19 20  2  0  0  0
 20 21  1  0  0  0
 21 22  2  0  0  0
  2  3  2  0  0  0
  2  4  1  0  0  0
  4  1  1  0  0  0
  1 33  1  0  0  0
  1 23  1  0  0  0
 33 34  1  0  0  0
 34 35  1  0  0  0
 35 36  1  0  0  0
 36 38  1  0  0  0
 38 39  1  0  0  0
 38 40  2  0  0  0
 23 24  2  0  0  0
 23 25  1  0  0  0
 25 27  1  0  0  0
 27 28  2  0  0  0
 27 32  1  0  0  0
 28 29  1  0  0  0
 29 30  2  0  0  0
 30 31  1  0  0  0
 31 32  2  0  0  0
 13 14  1  0  0  0
  7  8  1  0  0  0
  4  5  1  0  0  0
 36 37  1  0  0  0
 39 41  1  0  0  0
 39 42  1  0  0  0
 40 43  1  0  0  0
 40 44  1  0  0  0
 25 26  1  0  0  0
M  CHG 1  40   1
M  END
> <minimizedAffinity>
-8.67774

$$$$
1SLN_INH_A_256


 44 45  0  0  0  0  0  0  0  0999 V2000
  -17.9568   92.8642   82.1318 C   0  0  0  0  0  0  0  0  0  0  0  0
  -16.7726   94.1177   80.4258 C   0  0  0  0  0  0  0  0  0  0  0  0
  -16.5992   93.1130   79.7345 O   0  0  0  0  0  0  0  0  0  0  0  0
  -17.4000   94.0975   81.5960 N   0  0  0  0  0  0  0  0  0  0  0  0
  -17.4900   94.9320   82.1105 H   0  0  0  0  0  0  0  0  0  0  0  0
  -16.2504   95.4689   79.9599 C   0  0  0  0  0  0  0  0  0  0  0  0
  -15.1375   95.2353   79.0300 N   0  0  0  0  0  0  0  0  0  0  0  0
  -15.1141   94.2412   78.8028 H   0  0  0  0  0  0  0  0  0  0  0  0
  -13.8876   97.0628   80.1043 C   0  0  0  0  0  0  0  0  0  0  0  0
  -13.8070   95.6223   79.5619 C   0  0  0  0  0  0  0  0  0  0  0  0
  -12.6410   95.4649   78.5883 C   0  0  0  0  0  0  0  0  0  0  0  0
  -11.4952   95.5568   79.0474 O   0  0  0  0  0  0  0  0  0  0  0  0
  -12.8342   95.2493   77.3639 O   0  0  0  0  0  0  0  0  0  0  0  0
  -13.7079   95.1825   77.0321 H   0  0  0  0  0  0  0  0  0  0  0  0
  -17.3672   96.2400   79.2366 C   0  0  0  0  0  0  0  0  0  0  0  0
  -18.5221   95.3602   78.7797 C   0  0  0  0  0  0  0  0  0  0  0  0
  -19.8599   95.5962   79.4058 C   0  0  0  0  0  0  0  0  0  0  0  0
  -20.0278   96.6111   80.3448 C   0  0  0  0  0  0  0  0  0  0  0  0
  -21.2481   96.8249   80.9496 C   0  0  0  0  0  0  0  0  0  0  0  0
  -22.3258   96.0229   80.6273 C   0  0  0  0  0  0  0  0  0  0  0  0
  -22.1794   95.0036   79.6927 C   0  0  0  0  0  0  0  0  0  0  0  0
  -20.9474   94.7958   79.0869 C   0  0  0  0  0  0  0  0  0  0  0  0
  -19.4737   92.8724   82.0596 C   0  0  0  0  0  0  0  0  0  0  0  0
  -20.1129   93.8044   82.5421 O   0  0  0  0  0  0  0  0  0  0  0  0
  -20.0290   91.7665   81.5602 N   0  0  0  0  0  0  0  0  0  0  0  0
  -19.3883   91.0677   81.2949 H   0  0  0  0  0  0  0  0  0  0  0  0
  -21.3421   91.4455   81.3567 C   0  0  0  0  0  0  0  0  0  0  0  0
  -21.8211   91.4326   80.0512 C   0  0  0  0  0  0  0  0  0  0  0  0
  -23.1677   91.1548   79.7842 C   0  0  0  0  0  0  0  0  0  0  0  0
  -24.0351   90.8857   80.8258 C   0  0  0  0  0  0  0  0  0  0  0  0
  -23.5699   90.8902   82.1299 C   0  0  0  0  0  0  0  0  0  0  0  0
  -22.2243   91.1696   82.3900 C   0  0  0  0  0  0  0  0  0  0  0  0
  -17.5825   92.6925   83.5831 C   0  0  0  0  0  0  0  0  0  0  0  0
  -16.3493   91.9128   83.8323 C   0  0  0  0  0  0  0  0  0  0  0  0
  -15.4211   92.8565   84.4904 C   0  0  0  0  0  0  0  0  0  0  0  0
  -16.0912   93.8503   85.3037 N   0  0  0  0  0  0  0  0  0  0  0  0
  -16.9389   94.2322   84.9800 H   0  0  0  0  0  0  0  0  0  0  0  0
  -15.6065   94.2685   86.4725 C   0  0  0  0  0  0  0  0  0  0  0  0
  -14.6400   93.5840   87.0828 N   0  0  0  0  0  0  0  0  0  0  0  0
  -16.0896   95.3839   87.0257 N   0  0  0  0  0  0  0  0  0  0  0  0
  -14.2851   92.7620   86.6735 H   0  0  0  0  0  0  0  0  0  0  0  0
  -14.2808   93.9002   87.9432 H   0  0  0  0  0  0  0  0  0  0  0  0
  -16.8038   95.8883   86.5732 H   0  0  0  0  0  0  0  0  0  0  0  0
  -15.7317   95.7016   87.8860 H   0  0  0  0  0  0  0  0  0  0  0  0
  9 10  1  0  0  0
 10 11  1  0  0  0
 10  7  1  0  0  0
 11 12  2  0  0  0
 11 13  1  0  0  0
  7  6  1  0  0  0
  6 15  1  0  0  0
  6  2  1  0  0  0
 15 16  1  0  0  0
 16 17  1  0  0  0
 17 18  2  0  0  0
 17 22  1  0  0  0
 18 19  1  0  0  0
 19 20  2  0  0  0
 20 21  1  0  0  0
 21 22  2  0  0  0
  2  3  2  0  0  0
  2  4  1  0  0  0
  4  1  1  0  0  0
  1 33  1  0  0  0
  1 23  1  0  0  0
 33 34  1  0  0  0
 34 35  1  0  0  0
 35 36  1  0  0  0
 36 38  1  0  0  0
 38 39  1  0  0  0
 38 40  2  0  0  0
 23 24  2  0  0  0
 23 25  1  0  0  0
 25 27  1  0  0  0
 27 28  2  0  0  0
 27 32  1  0  0  0
 28 29  1  0  0  0
 29 30  2  0  0  0
 30 31  1  0  0  0
 31 32  2  0  0  0
 13 14  1  0  0  0
  7  8  1  0  0  0
  4  5  1  0  0  0
 36 37  1  0  0  0
 39 41  1  0  0  0
 39 42  1  0  0  0
 40 43  1  0  0  0
 40 44  1  0  0  0
 25 26  1  0  0  0
M  CHG 1  40   1
M  END
> <minimizedAffinity>
-8.51020

$$$$
1SLN_INH_A_256


 44 45  0  0  0  0  0  0  0  0999 V2000
  -17.9539   92.4457   81.8123 C   0  0  0  0  0  0  0  0  0  0  0  0
  -20.3414   92.0564   81.6319 C   0  0  0  0  0  0  0  0  0  0  0  0
  -20.5670   92.6214   82.7030 O   0  0  0  0  0  0  0  0  0  0  0  0
  -19.1216   91.9107   81.1278 N   0  0  0  0  0  0  0  0  0  0  0  0
  -19.0049   91.4321   80.2754 H   0  0  0  0  0  0  0  0  0  0  0  0
  -21.4859   91.4722   80.8168 C   0  0  0  0  0  0  0  0  0  0  0  0
  -22.7450   92.0313   81.3268 N   0  0  0  0  0  0  0  0  0  0  0  0
  -22.5872   92.3564   82.2807 H   0  0  0  0  0  0  0  0  0  0  0  0
  -25.1878   91.8413   81.0973 C   0  0  0  0  0  0  0  0  0  0  0  0
  -23.8760   91.0705   81.3441 C   0  0  0  0  0  0  0  0  0  0  0  0
  -23.9764   90.1989   82.5941 C   0  0  0  0  0  0  0  0  0  0  0  0
  -24.8303   90.5027   83.4371 O   0  0  0  0  0  0  0  0  0  0  0  0
  -23.2208   89.2073   82.7639 O   0  0  0  0  0  0  0  0  0  0  0  0
  -22.5794   88.9906   82.1161 H   0  0  0  0  0  0  0  0  0  0  0  0
  -21.3207   91.8528   79.3360 C   0  0  0  0  0  0  0  0  0  0  0  0
  -22.5976   92.3726   78.6910 C   0  0  0  0  0  0  0  0  0  0  0  0
  -22.9410   91.8606   77.3282 C   0  0  0  0  0  0  0  0  0  0  0  0
  -23.3143   92.7442   76.3183 C   0  0  0  0  0  0  0  0  0  0  0  0
  -23.6582   92.2860   75.0644 C   0  0  0  0  0  0  0  0  0  0  0  0
  -23.6379   90.9307   74.7975 C   0  0  0  0  0  0  0  0  0  0  0  0
  -23.2688   90.0313   75.7920 C   0  0  0  0  0  0  0  0  0  0  0  0
  -22.9223   90.5011   77.0519 C   0  0  0  0  0  0  0  0  0  0  0  0
  -17.5221   93.7687   81.2045 C   0  0  0  0  0  0  0  0  0  0  0  0
  -17.1478   94.6903   81.9259 O   0  0  0  0  0  0  0  0  0  0  0  0
  -17.6977   93.8773   79.8861 N   0  0  0  0  0  0  0  0  0  0  0  0
  -18.0901   93.0833   79.4561 H   0  0  0  0  0  0  0  0  0  0  0  0
  -17.4219   94.9109   79.0350 C   0  0  0  0  0  0  0  0  0  0  0  0
  -16.2205   95.5925   79.1962 C   0  0  0  0  0  0  0  0  0  0  0  0
  -15.9031   96.6881   78.3833 C   0  0  0  0  0  0  0  0  0  0  0  0
  -16.7882   97.0993   77.4050 C   0  0  0  0  0  0  0  0  0  0  0  0
  -17.9855   96.4262   77.2307 C   0  0  0  0  0  0  0  0  0  0  0  0
  -18.2973   95.3336   78.0465 C   0  0  0  0  0  0  0  0  0  0  0  0
  -16.7838   91.5007   81.6957 C   0  0  0  0  0  0  0  0  0  0  0  0
  -15.6735   91.7458   82.6432 C   0  0  0  0  0  0  0  0  0  0  0  0
  -16.3171   91.8812   83.9670 C   0  0  0  0  0  0  0  0  0  0  0  0
  -15.5683   92.7099   84.8893 N   0  0  0  0  0  0  0  0  0  0  0  0
  -14.6487   92.4460   85.1216 H   0  0  0  0  0  0  0  0  0  0  0  0
  -16.0738   93.8150   85.4360 C   0  0  0  0  0  0  0  0  0  0  0  0
  -17.0487   94.4836   84.8213 N   0  0  0  0  0  0  0  0  0  0  0  0
  -15.6031   94.2451   86.6095 N   0  0  0  0  0  0  0  0  0  0  0  0
  -17.3944   94.1650   83.9563 H   0  0  0  0  0  0  0  0  0  0  0  0
  -17.4232   95.2961   85.2320 H   0  0  0  0  0  0  0  0  0  0  0  0
  -14.8828   93.7498   87.0623 H   0  0  0  0  0  0  0  0  0  0  0  0
  -15.9764   95.0574   87.0218 H   0  0  0  0  0  0  0  0  0  0  0  0
  9 10  1  0  0  0
 10 11  1  0  0  0
 10  7  1  0  0  0
 11 12  2  0  0  0
 11 13  1  0  0  0
  7  6  1  0  0  0
  6 15  1  0  0  0
  6  2  1  0  0  0
 15 16  1  0  0  0
 16 17  1  0  0  0
 17 18  2  0  0  0
 17 22  1  0  0  0
 18 19  1  0  0  0
 19 20  2  0  0  0
 20 21  1  0  0  0
 21 22  2  0  0  0
  2  3  2  0  0  0
  2  4  1  0  0  0
  4  1  1  0  0  0
  1 33  1  0  0  0
  1 23  1  0  0  0
 33 34  1  0  0  0
 34 35  1  0  0  0
 35 36  1  0  0  0
 36 38  1  0  0  0
 38 39  1  0  0  0
 38 40  2  0  0  0
 23 24  2  0  0  0
 23 25  1  0  0  0
 25 27  1  0  0  0
 27 28  2  0  0  0
 27 32  1  0  0  0
 28 29  1  0  0  0
 29 30  2  0  0  0
 30 31  1  0  0  0
 31 32  2  0  0  0
 13 14  1  0  0  0
  7  8  1  0  0  0
  4  5  1  0  0  0
 36 37  1  0  0  0
 39 41  1  0  0  0
 39 42  1  0  0  0
 40 43  1  0  0  0
 40 44  1  0  0  0
 25 26  1  0  0  0
M  CHG 1  40   1
M  END
> <minimizedAffinity>
-8.36260

$$$$
1SLN_INH_A_256


 44 45  0  0  0  0  0  0  0  0999 V2000
  -17.9314   93.9745   81.5406 C   0  0  0  0  0  0  0  0  0  0  0  0
  -17.9669   95.4179   79.5914 C   0  0  0  0  0  0  0  0  0  0  0  0
  -18.6960   96.2395   80.1487 O   0  0  0  0  0  0  0  0  0  0  0  0
  -17.5573   94.2957   80.1713 N   0  0  0  0  0  0  0  0  0  0  0  0
  -16.9902   93.6695   79.6657 H   0  0  0  0  0  0  0  0  0  0  0  0
  -17.4955   95.6544   78.1640 C   0  0  0  0  0  0  0  0  0  0  0  0
  -18.6780   95.8710   77.3198 N   0  0  0  0  0  0  0  0  0  0  0  0
  -18.7433   95.0986   76.6569 H   0  0  0  0  0  0  0  0  0  0  0  0
  -19.9176   97.9551   76.8999 C   0  0  0  0  0  0  0  0  0  0  0  0
  -18.6553   97.1415   76.5529 C   0  0  0  0  0  0  0  0  0  0  0  0
  -18.4948   96.9918   75.0416 C   0  0  0  0  0  0  0  0  0  0  0  0
  -18.8061   95.9051   74.5375 O   0  0  0  0  0  0  0  0  0  0  0  0
  -18.0629   97.9366   74.3317 O   0  0  0  0  0  0  0  0  0  0  0  0
  -17.8316   98.7531   74.7289 H   0  0  0  0  0  0  0  0  0  0  0  0
  -16.5945   96.8995   78.1104 C   0  0  0  0  0  0  0  0  0  0  0  0
  -15.5596   96.9551   79.2251 C   0  0  0  0  0  0  0  0  0  0  0  0
  -14.1724   96.4977   78.9031 C   0  0  0  0  0  0  0  0  0  0  0  0
  -13.3692   95.9367   79.8932 C   0  0  0  0  0  0  0  0  0  0  0  0
  -12.0797   95.5336   79.6185 C   0  0  0  0  0  0  0  0  0  0  0  0
  -11.5673   95.6873   78.3448 C   0  0  0  0  0  0  0  0  0  0  0  0
  -12.3524   96.2456   77.3418 C   0  0  0  0  0  0  0  0  0  0  0  0
  -13.6506   96.6476   77.6263 C   0  0  0  0  0  0  0  0  0  0  0  0
  -16.7212   93.9968   82.4577 C   0  0  0  0  0  0  0  0  0  0  0  0
  -15.6046   94.2401   82.0059 O   0  0  0  0  0  0  0  0  0  0  0  0
  -16.9507   93.6214   83.7175 N   0  0  0  0  0  0  0  0  0  0  0  0
  -17.8833   93.3708   83.9092 H   0  0  0  0  0  0  0  0  0  0  0  0
  -16.1024   93.5279   84.7855 C   0  0  0  0  0  0  0  0  0  0  0  0
  -15.2645   92.4209   84.8646 C   0  0  0  0  0  0  0  0  0  0  0  0
  -14.4060   92.2481   85.9578 C   0  0  0  0  0  0  0  0  0  0  0  0
  -14.3838   93.1872   86.9713 C   0  0  0  0  0  0  0  0  0  0  0  0
  -15.2093   94.2966   86.9022 C   0  0  0  0  0  0  0  0  0  0  0  0
  -16.0653   94.4628   85.8085 C   0  0  0  0  0  0  0  0  0  0  0  0
  -18.5259   92.5905   81.6239 C   0  0  0  0  0  0  0  0  0  0  0  0
  -19.9397   92.4807   81.1997 C   0  0  0  0  0  0  0  0  0  0  0  0
  -20.6524   91.9237   82.3689 C   0  0  0  0  0  0  0  0  0  0  0  0
  -21.4567   90.7613   82.0527 N   0  0  0  0  0  0  0  0  0  0  0  0
  -21.0302   90.0027   81.5925 H   0  0  0  0  0  0  0  0  0  0  0  0
  -22.7507   90.6773   82.3597 C   0  0  0  0  0  0  0  0  0  0  0  0
  -23.5092   91.7725   82.3799 N   0  0  0  0  0  0  0  0  0  0  0  0
  -23.2861   89.4862   82.6396 N   0  0  0  0  0  0  0  0  0  0  0  0
  -23.1127   92.6496   82.1733 H   0  0  0  0  0  0  0  0  0  0  0  0
  -24.4660   91.7046   82.6013 H   0  0  0  0  0  0  0  0  0  0  0  0
  -22.7242   88.6780   82.6242 H   0  0  0  0  0  0  0  0  0  0  0  0
  -24.2428   89.4164   82.8613 H   0  0  0  0  0  0  0  0  0  0  0  0
  9 10  1  0  0  0
 10 11  1  0  0  0
 10  7  1  0  0  0
 11 12  2  0  0  0
 11 13  1  0  0  0
  7  6  1  0  0  0
  6 15  1  0  0  0
  6  2  1  0  0  0
 15 16  1  0  0  0
 16 17  1  0  0  0
 17 18  2  0  0  0
 17 22  1  0  0  0
 18 19  1  0  0  0
 19 20  2  0  0  0
 20 21  1  0  0  0
 21 22  2  0  0  0
  2  3  2  0  0  0
  2  4  1  0  0  0
  4  1  1  0  0  0
  1 33  1  0  0  0
  1 23  1  0  0  0
 33 34  1  0  0  0
 34 35  1  0  0  0
 35 36  1  0  0  0
 36 38  1  0  0  0
 38 39  1  0  0  0
 38 40  2  0  0  0
 23 24  2  0  0  0
 23 25  1  0  0  0
 25 27  1  0  0  0
 27 28  2  0  0  0
 27 32  1  0  0  0
 28 29  1  0  0  0
 29 30  2  0  0  0
 30 31  1  0  0  0
 31 32  2  0  0  0
 13 14  1  0  0  0
  7  8  1  0  0  0
  4  5  1  0  0  0
 36 37  1  0  0  0
 39 41  1  0  0  0
 39 42  1  0  0  0
 40 43  1  0  0  0
 40 44  1  0  0  0
 25 26  1  0  0  0
M  CHG 1  40   1
M  END
> <minimizedAffinity>
-8.19569

$$$$
1SLN_INH_A_256


 44 45  0  0  0  0  0  0  0  0999 V2000
  -20.1607   92.8709   80.6780 C   0  0  0  0  0  0  0  0  0  0  0  0
  -22.1038   91.7516   79.7530 C   0  0  0  0  0  0  0  0  0  0  0  0
  -21.5123   91.4760   78.7083 O   0  0  0  0  0  0  0  0  0  0  0  0
  -21.5452   92.4280   80.7499 N   0  0  0  0  0  0  0  0  0  0  0  0
  -22.0773   92.6336   81.5523 H   0  0  0  0  0  0  0  0  0  0  0  0
  -23.5509   91.3244   79.9508 C   0  0  0  0  0  0  0  0  0  0  0  0
  -24.0011   91.8194   81.2585 N   0  0  0  0  0  0  0  0  0  0  0  0
  -23.2198   91.7547   81.9110 H   0  0  0  0  0  0  0  0  0  0  0  0
  -26.2258   92.0799   82.2781 C   0  0  0  0  0  0  0  0  0  0  0  0
  -25.1485   91.0721   81.8313 C   0  0  0  0  0  0  0  0  0  0  0  0
  -24.8014   90.1014   82.9580 C   0  0  0  0  0  0  0  0  0  0  0  0
  -25.5258   90.1065   83.9617 O   0  0  0  0  0  0  0  0  0  0  0  0
  -23.8164   89.3233   82.8725 O   0  0  0  0  0  0  0  0  0  0  0  0
  -23.2778   89.3318   82.1058 H   0  0  0  0  0  0  0  0  0  0  0  0
  -24.4308   91.9303   78.8446 C   0  0  0  0  0  0  0  0  0  0  0  0
  -25.0875   90.8917   77.9465 C   0  0  0  0  0  0  0  0  0  0  0  0
  -24.5763   90.7671   76.5463 C   0  0  0  0  0  0  0  0  0  0  0  0
  -23.5773   89.8455   76.2417 C   0  0  0  0  0  0  0  0  0  0  0  0
  -23.0777   89.7362   74.9614 C   0  0  0  0  0  0  0  0  0  0  0  0
  -23.5679   90.5514   73.9596 C   0  0  0  0  0  0  0  0  0  0  0  0
  -24.5649   91.4786   74.2426 C   0  0  0  0  0  0  0  0  0  0  0  0
  -25.0639   91.5814   75.5343 C   0  0  0  0  0  0  0  0  0  0  0  0
  -19.4384   92.6234   81.9907 C   0  0  0  0  0  0  0  0  0  0  0  0
  -20.0663   92.2776   82.9888 O   0  0  0  0  0  0  0  0  0  0  0  0
  -18.1383   92.9238   81.9941 N   0  0  0  0  0  0  0  0  0  0  0  0
  -17.7943   93.2741   81.1408 H   0  0  0  0  0  0  0  0  0  0  0  0
  -17.2059   92.8245   82.9889 C   0  0  0  0  0  0  0  0  0  0  0  0
  -17.1748   93.8171   83.9623 C   0  0  0  0  0  0  0  0  0  0  0  0
  -16.2134   93.7928   84.9807 C   0  0  0  0  0  0  0  0  0  0  0  0
  -15.2843   92.7709   85.0266 C   0  0  0  0  0  0  0  0  0  0  0  0
  -15.3075   91.7736   84.0664 C   0  0  0  0  0  0  0  0  0  0  0  0
  -16.2693   91.8042   83.0513 C   0  0  0  0  0  0  0  0  0  0  0  0
  -20.0850   94.3522   80.4021 C   0  0  0  0  0  0  0  0  0  0  0  0
  -19.4386   94.7274   79.1246 C   0  0  0  0  0  0  0  0  0  0  0  0
  -18.6733   95.9561   79.4243 C   0  0  0  0  0  0  0  0  0  0  0  0
  -17.6533   95.7670   80.4352 N   0  0  0  0  0  0  0  0  0  0  0  0
  -17.9187   95.7844   81.3831 H   0  0  0  0  0  0  0  0  0  0  0  0
  -16.3702   95.5704   80.1340 C   0  0  0  0  0  0  0  0  0  0  0  0
  -15.9724   94.4110   79.6118 N   0  0  0  0  0  0  0  0  0  0  0  0
  -15.4848   96.5465   80.3510 N   0  0  0  0  0  0  0  0  0  0  0  0
  -16.6266   93.6927   79.4525 H   0  0  0  0  0  0  0  0  0  0  0  0
  -15.0244   94.2726   79.3852 H   0  0  0  0  0  0  0  0  0  0  0  0
  -15.7806   97.4025   80.7370 H   0  0  0  0  0  0  0  0  0  0  0  0
  -14.5364   96.4099   80.1251 H   0  0  0  0  0  0  0  0  0  0  0  0
  9 10  1  0  0  0
 10 11  1  0  0  0
 10  7  1  0  0  0
 11 12  2  0  0  0
 11 13  1  0  0  0
  7  6  1  0  0  0
  6 15  1  0  0  0
  6  2  1  0  0  0
 15 16  1  0  0  0
 16 17  1  0  0  0
 17 18  2  0  0  0
 17 22  1  0  0  0
 18 19  1  0  0  0
 19 20  2  0  0  0
 20 21  1  0  0  0
 21 22  2  0  0  0
  2  3  2  0  0  0
  2  4  1  0  0  0
  4  1  1  0  0  0
  1 33  1  0  0  0
  1 23  1  0  0  0
 33 34  1  0  0  0
 34 35  1  0  0  0
 35 36  1  0  0  0
 36 38  1  0  0  0
 38 39  1  0  0  0
 38 40  2  0  0  0
 23 24  2  0  0  0
 23 25  1  0  0  0
 25 27  1  0  0  0
 27 28  2  0  0  0
 27 32  1  0  0  0
 28 29  1  0  0  0
 29 30  2  0  0  0
 30 31  1  0  0  0
 31 32  2  0  0  0
 13 14  1  0  0  0
  7  8  1  0  0  0
  4  5  1  0  0  0
 36 37  1  0  0  0
 39 41  1  0  0  0
 39 42  1  0  0  0
 40 43  1  0  0  0
 40 44  1  0  0  0
 25 26  1  0  0  0
M  CHG 1  40   1
M  END
> <minimizedAffinity>
-8.19060

$$$$
