5MRO_Q9P_A_401


 19 21  0  0  0  0  0  0  0  0999 V2000
    5.6873   21.0738  -18.4015 N   0  0  0  0  0  0  0  0  0  0  0  0
    5.0042   20.1850  -19.1205 C   0  0  0  0  0  0  0  0  0  0  0  0
    3.8796   22.6516  -18.5579 C   0  0  0  0  0  0  0  0  0  0  0  0
    3.1712   21.6756  -19.3025 C   0  0  0  0  0  0  0  0  0  0  0  0
    4.3037   18.4942  -20.2171 C   0  0  0  0  0  0  0  0  0  0  0  0
    2.0380   21.8918  -19.7435 O   0  0  0  0  0  0  0  0  0  0  0  0
    3.7815   20.4986  -19.5518 N   0  0  0  0  0  0  0  0  0  0  0  0
    3.3612   19.4241  -20.2390 N   0  0  0  0  0  0  0  0  0  0  0  0
    5.3220   18.9669  -19.5293 N   0  0  0  0  0  0  0  0  0  0  0  0
    5.1625   22.2727  -18.1037 C   0  0  0  0  0  0  0  0  0  0  0  0
    6.1720   23.2766  -17.1833 Cl  0  0  0  0  0  0  0  0  0  0  0  0
    1.5914   21.2292  -20.2330 H   0  0  0  0  0  0  0  0  0  0  0  0
    3.3135   23.8876  -18.2058 C   0  0  0  0  0  0  0  0  0  0  0  0
    3.5645   24.9824  -19.0839 C   0  0  0  0  0  0  0  0  0  0  0  0
    4.1855   27.3238  -19.3664 C   0  0  0  0  0  0  0  0  0  0  0  0
    3.6265   26.0164  -21.2932 C   0  0  0  0  0  0  0  0  0  0  0  0
    3.3865   24.9123  -20.4734 C   0  0  0  0  0  0  0  0  0  0  0  0
    4.0281   27.2293  -20.7472 C   0  0  0  0  0  0  0  0  0  0  0  0
    3.9532   26.2185  -18.5505 C   0  0  0  0  0  0  0  0  0  0  0  0
 16 18  2  0  0  0
 16 17  1  0  0  0
 18 15  1  0  0  0
 17 14  2  0  0  0
  5  8  2  0  0  0
  5  9  1  0  0  0
  8  7  1  0  0  0
  9  2  2  0  0  0
 15 19  2  0  0  0
  7  2  1  0  0  0
  7  4  1  0  0  0
  6  4  1  0  0  0
  2  1  1  0  0  0
  4  3  2  0  0  0
 14 19  1  0  0  0
 14 13  1  0  0  0
  1 10  2  0  0  0
  3 10  1  0  0  0
  3 13  1  0  0  0
 10 11  1  0  0  0
  6 12  1  0  0  0
M  END
> <minimizedAffinity>
-10.31960

$$$$
5MRO_Q9P_A_401


 19 21  0  0  0  0  0  0  0  0999 V2000
    3.5665   21.1035  -18.0607 N   0  0  0  0  0  0  0  0  0  0  0  0
    4.8047   20.6403  -18.2211 C   0  0  0  0  0  0  0  0  0  0  0  0
    4.3964   23.3427  -17.7786 C   0  0  0  0  0  0  0  0  0  0  0  0
    5.6995   22.8204  -17.9740 C   0  0  0  0  0  0  0  0  0  0  0  0
    6.5673   19.4748  -18.5157 C   0  0  0  0  0  0  0  0  0  0  0  0
    6.7006   23.5427  -17.9364 O   0  0  0  0  0  0  0  0  0  0  0  0
    5.8297   21.4925  -18.1729 N   0  0  0  0  0  0  0  0  0  0  0  0
    6.9262   20.7397  -18.3584 N   0  0  0  0  0  0  0  0  0  0  0  0
    5.2553   19.4126  -18.4258 N   0  0  0  0  0  0  0  0  0  0  0  0
    3.3379   22.4103  -17.8564 C   0  0  0  0  0  0  0  0  0  0  0  0
    1.7035   22.8208  -17.6715 Cl  0  0  0  0  0  0  0  0  0  0  0  0
    7.5510   23.1721  -18.0689 H   0  0  0  0  0  0  0  0  0  0  0  0
    4.1523   24.7154  -17.6118 C   0  0  0  0  0  0  0  0  0  0  0  0
    3.9765   25.4854  -18.7988 C   0  0  0  0  0  0  0  0  0  0  0  0
    4.0214   27.6653  -19.8914 C   0  0  0  0  0  0  0  0  0  0  0  0
    3.3484   25.7379  -21.1431 C   0  0  0  0  0  0  0  0  0  0  0  0
    3.5243   24.9417  -20.0101 C   0  0  0  0  0  0  0  0  0  0  0  0
    3.5958   27.1043  -21.0933 C   0  0  0  0  0  0  0  0  0  0  0  0
    4.2041   26.8676  -18.7636 C   0  0  0  0  0  0  0  0  0  0  0  0
 16 18  2  0  0  0
 16 17  1  0  0  0
 18 15  1  0  0  0
 17 14  2  0  0  0
  5  8  2  0  0  0
  5  9  1  0  0  0
  8  7  1  0  0  0
  9  2  2  0  0  0
 15 19  2  0  0  0
  7  2  1  0  0  0
  7  4  1  0  0  0
  6  4  1  0  0  0
  2  1  1  0  0  0
  4  3  2  0  0  0
 14 19  1  0  0  0
 14 13  1  0  0  0
  1 10  2  0  0  0
  3 10  1  0  0  0
  3 13  1  0  0  0
 10 11  1  0  0  0
  6 12  1  0  0  0
M  END
> <minimizedAffinity>
-8.16441

$$$$
5MRO_Q9P_A_401


 19 21  0  0  0  0  0  0  0  0999 V2000
    5.0806   24.7775  -18.2619 N   0  0  0  0  0  0  0  0  0  0  0  0
    4.3658   25.2031  -19.3018 C   0  0  0  0  0  0  0  0  0  0  0  0
    3.9508   22.6552  -18.3012 C   0  0  0  0  0  0  0  0  0  0  0  0
    3.2218   23.1313  -19.4196 C   0  0  0  0  0  0  0  0  0  0  0  0
    3.4701   26.2892  -20.9049 C   0  0  0  0  0  0  0  0  0  0  0  0
    2.3642   22.4397  -19.9778 O   0  0  0  0  0  0  0  0  0  0  0  0
    3.4641   24.3869  -19.8495 N   0  0  0  0  0  0  0  0  0  0  0  0
    2.9126   25.0892  -20.8526 N   0  0  0  0  0  0  0  0  0  0  0  0
    4.3655   26.3614  -19.9425 N   0  0  0  0  0  0  0  0  0  0  0  0
    4.9089   23.5431  -17.7633 C   0  0  0  0  0  0  0  0  0  0  0  0
    5.9010   23.1719  -16.4397 Cl  0  0  0  0  0  0  0  0  0  0  0  0
    1.8965   22.7785  -20.7156 H   0  0  0  0  0  0  0  0  0  0  0  0
    3.8056   21.3482  -17.8085 C   0  0  0  0  0  0  0  0  0  0  0  0
    4.6153   20.3411  -18.4107 C   0  0  0  0  0  0  0  0  0  0  0  0
    4.8701   18.6236  -20.1232 C   0  0  0  0  0  0  0  0  0  0  0  0
    6.6248   18.9620  -18.5292 C   0  0  0  0  0  0  0  0  0  0  0  0
    5.8744   19.9679  -17.9180 C   0  0  0  0  0  0  0  0  0  0  0  0
    6.1298   18.2830  -19.6358 C   0  0  0  0  0  0  0  0  0  0  0  0
    4.1259   19.6333  -19.5166 C   0  0  0  0  0  0  0  0  0  0  0  0
 16 18  2  0  0  0
 16 17  1  0  0  0
 18 15  1  0  0  0
 17 14  2  0  0  0
  5  8  2  0  0  0
  5  9  1  0  0  0
  8  7  1  0  0  0
  9  2  2  0  0  0
 15 19  2  0  0  0
  7  2  1  0  0  0
  7  4  1  0  0  0
  6  4  1  0  0  0
  2  1  1  0  0  0
  4  3  2  0  0  0
 14 19  1  0  0  0
 14 13  1  0  0  0
  1 10  2  0  0  0
  3 10  1  0  0  0
  3 13  1  0  0  0
 10 11  1  0  0  0
  6 12  1  0  0  0
M  END
> <minimizedAffinity>
-7.72082

$$$$
