5V82_96Y_A_401


 31 35  0  0  0  0  0  0  0  0999 V2000
  -22.3851   35.1395   -0.9907 C   0  0  0  0  0  0  0  0  0  0  0  0
  -22.7939   36.4172   -1.3553 C   0  0  0  0  0  0  0  0  0  0  0  0
  -22.1352   34.2295   -2.0070 C   0  0  0  0  0  0  0  0  0  0  0  0
  -22.9336   36.7024   -2.7276 C   0  0  0  0  0  0  0  0  0  0  0  0
  -22.6558   35.7141   -3.6784 C   0  0  0  0  0  0  0  0  0  0  0  0
  -22.2823   34.5217   -3.2918 N   0  0  0  0  0  0  0  0  0  0  0  0
  -23.3746   38.0846   -2.8193 C   0  0  0  0  0  0  0  0  0  0  0  0
  -23.4893   38.5385   -1.6068 N   0  0  0  0  0  0  0  0  0  0  0  0
  -23.1230   37.5613   -0.6788 N   0  0  0  0  0  0  0  0  0  0  0  0
  -21.4102   31.2277   -0.1091 C   0  0  0  0  0  0  0  0  0  0  0  0
  -21.6818   32.8845   -1.6631 C   0  0  0  0  0  0  0  0  0  0  0  0
  -21.5780   30.7161    1.2976 C   0  0  0  0  0  0  0  0  0  0  0  0
  -20.8325   30.4271   -1.0777 C   0  0  0  0  0  0  0  0  0  0  0  0
  -20.7000   30.8711   -2.3199 N   0  0  0  0  0  0  0  0  0  0  0  0
  -21.1000   32.0838   -2.6496 C   0  0  0  0  0  0  0  0  0  0  0  0
  -21.8135   32.4494   -0.4184 N   0  0  0  0  0  0  0  0  0  0  0  0
  -23.2055   37.7349    0.7042 C   0  0  0  0  0  0  0  0  0  0  0  0
  -23.3090   39.0268    1.2140 C   0  0  0  0  0  0  0  0  0  0  0  0
  -23.4342   39.1933    2.5845 C   0  0  0  0  0  0  0  0  0  0  0  0
  -23.4870   38.0674    3.3978 C   0  0  0  0  0  0  0  0  0  0  0  0
  -23.4082   36.8106    2.8188 C   0  0  0  0  0  0  0  0  0  0  0  0
  -23.2827   36.6809    1.5088 N   0  0  0  0  0  0  0  0  0  0  0  0
  -23.4922   35.5954    3.7053 C   0  0  0  0  0  0  0  0  0  0  0  0
  -23.7906   34.3349    2.8682 C   0  0  0  0  0  0  0  0  0  0  0  0
  -23.9197   33.1666    3.7499 N   0  0  0  0  0  0  0  0  0  0  0  0
  -22.6496   32.9045    4.4391 C   0  0  0  0  0  0  0  0  0  0  0  0
  -22.2863   34.1117    5.3088 C   0  0  0  0  0  0  0  0  0  0  0  0
  -22.1862   35.3903    4.4613 C   0  0  0  0  0  0  0  0  0  0  0  0
  -21.1453   35.2826    3.5372 F   0  0  0  0  0  0  0  0  0  0  0  0
  -21.9945   36.4935    5.3007 F   0  0  0  0  0  0  0  0  0  0  0  0
  -24.1746   32.3512    3.1927 H   0  0  0  0  0  0  0  0  0  0  0  0
  5  6  2  0  0  0
  5  4  1  0  0  0
  6  3  1  0  0  0
  7  4  1  0  0  0
  7  8  2  0  0  0
  4  2  2  0  0  0
 15 14  2  0  0  0
 15 11  1  0  0  0
 14 13  1  0  0  0
  3 11  1  0  0  0
  3  1  2  0  0  0
  8  9  1  0  0  0
 11 16  2  0  0  0
  2  1  1  0  0  0
  2  9  1  0  0  0
 13 10  2  0  0  0
  9 17  1  0  0  0
 16 10  1  0  0  0
 10 12  1  0  0  0
 17 18  2  0  0  0
 17 22  1  0  0  0
 18 19  1  0  0  0
 22 21  2  0  0  0
 19 20  2  0  0  0
 21 20  1  0  0  0
 21 23  1  0  0  0
 24 23  1  0  0  0
 24 25  1  0  0  0
 29 28  1  0  0  0
 23 28  1  0  0  0
 25 26  1  0  0  0
 28 30  1  0  0  0
 28 27  1  0  0  0
 26 27  1  0  0  0
 25 31  1  0  0  0
M  END
> <minimizedAffinity>
-11.35808

$$$$
5V82_96Y_A_401


 31 35  0  0  0  0  0  0  0  0999 V2000
  -22.5016   35.9493   -0.4288 C   0  0  0  0  0  0  0  0  0  0  0  0
  -22.4981   35.4576   -1.7291 C   0  0  0  0  0  0  0  0  0  0  0  0
  -22.8563   37.2773   -0.2442 C   0  0  0  0  0  0  0  0  0  0  0  0
  -22.8474   36.3376   -2.7719 C   0  0  0  0  0  0  0  0  0  0  0  0
  -23.1918   37.6626   -2.4820 C   0  0  0  0  0  0  0  0  0  0  0  0
  -23.1734   38.0870   -1.2450 N   0  0  0  0  0  0  0  0  0  0  0  0
  -22.7522   35.5746   -4.0056 C   0  0  0  0  0  0  0  0  0  0  0  0
  -22.3686   34.3730   -3.6921 N   0  0  0  0  0  0  0  0  0  0  0  0
  -22.2223   34.2482   -2.3089 N   0  0  0  0  0  0  0  0  0  0  0  0
  -22.6149   37.5398    3.3629 C   0  0  0  0  0  0  0  0  0  0  0  0
  -22.8936   37.8229    1.1099 C   0  0  0  0  0  0  0  0  0  0  0  0
  -22.2470   36.6669    4.5338 C   0  0  0  0  0  0  0  0  0  0  0  0
  -22.9836   38.8574    3.5644 C   0  0  0  0  0  0  0  0  0  0  0  0
  -23.2913   39.6306    2.5323 N   0  0  0  0  0  0  0  0  0  0  0  0
  -23.2670   39.1558    1.3021 C   0  0  0  0  0  0  0  0  0  0  0  0
  -22.5891   37.0428    2.1368 N   0  0  0  0  0  0  0  0  0  0  0  0
  -21.7584   33.0916   -1.6791 C   0  0  0  0  0  0  0  0  0  0  0  0
  -21.1508   32.1041   -2.4506 C   0  0  0  0  0  0  0  0  0  0  0  0
  -20.6527   30.9766   -1.8164 C   0  0  0  0  0  0  0  0  0  0  0  0
  -20.7450   30.8861   -0.4325 C   0  0  0  0  0  0  0  0  0  0  0  0
  -21.3360   31.9210    0.2750 C   0  0  0  0  0  0  0  0  0  0  0  0
  -21.8088   32.9825   -0.3562 N   0  0  0  0  0  0  0  0  0  0  0  0
  -21.4087   31.8262    1.7768 C   0  0  0  0  0  0  0  0  0  0  0  0
  -21.9007   33.1579    2.3796 C   0  0  0  0  0  0  0  0  0  0  0  0
  -21.9187   33.0680    3.8460 N   0  0  0  0  0  0  0  0  0  0  0  0
  -22.8785   32.0458    4.2830 C   0  0  0  0  0  0  0  0  0  0  0  0
  -22.4510   30.6814    3.7338 C   0  0  0  0  0  0  0  0  0  0  0  0
  -22.3556   30.7110    2.1998 C   0  0  0  0  0  0  0  0  0  0  0  0
  -23.6107   30.9513    1.6376 F   0  0  0  0  0  0  0  0  0  0  0  0
  -21.8284   29.4987    1.7409 F   0  0  0  0  0  0  0  0  0  0  0  0
  -22.1890   33.9713    4.2351 H   0  0  0  0  0  0  0  0  0  0  0  0
  5  6  2  0  0  0
  5  4  1  0  0  0
  6  3  1  0  0  0
  7  4  1  0  0  0
  7  8  2  0  0  0
  4  2  2  0  0  0
 15 14  2  0  0  0
 15 11  1  0  0  0
 14 13  1  0  0  0
  3 11  1  0  0  0
  3  1  2  0  0  0
  8  9  1  0  0  0
 11 16  2  0  0  0
  2  1  1  0  0  0
  2  9  1  0  0  0
 13 10  2  0  0  0
  9 17  1  0  0  0
 16 10  1  0  0  0
 10 12  1  0  0  0
 17 18  2  0  0  0
 17 22  1  0  0  0
 18 19  1  0  0  0
 22 21  2  0  0  0
 19 20  2  0  0  0
 21 20  1  0  0  0
 21 23  1  0  0  0
 24 23  1  0  0  0
 24 25  1  0  0  0
 29 28  1  0  0  0
 23 28  1  0  0  0
 25 26  1  0  0  0
 28 30  1  0  0  0
 28 27  1  0  0  0
 26 27  1  0  0  0
 25 31  1  0  0  0
M  END
> <minimizedAffinity>
-11.21797

$$$$
5V82_96Y_A_401


 31 35  0  0  0  0  0  0  0  0999 V2000
  -22.4733   36.0214   -0.0516 C   0  0  0  0  0  0  0  0  0  0  0  0
  -22.5237   35.6934   -1.4016 C   0  0  0  0  0  0  0  0  0  0  0  0
  -22.7948   37.3220    0.3069 C   0  0  0  0  0  0  0  0  0  0  0  0
  -22.8906   36.7005   -2.3155 C   0  0  0  0  0  0  0  0  0  0  0  0
  -23.1984   37.9849   -1.8533 C   0  0  0  0  0  0  0  0  0  0  0  0
  -23.1295   38.2535   -0.5751 N   0  0  0  0  0  0  0  0  0  0  0  0
  -22.8526   36.0936   -3.6360 C   0  0  0  0  0  0  0  0  0  0  0  0
  -22.4826   34.8567   -3.4860 N   0  0  0  0  0  0  0  0  0  0  0  0
  -22.2920   34.5604   -2.1347 N   0  0  0  0  0  0  0  0  0  0  0  0
  -23.0999   39.2673    3.3501 C   0  0  0  0  0  0  0  0  0  0  0  0
  -22.7752   37.6973    1.7181 C   0  0  0  0  0  0  0  0  0  0  0  0
  -23.5022   40.6591    3.7619 C   0  0  0  0  0  0  0  0  0  0  0  0
  -22.7164   38.3417    4.3034 C   0  0  0  0  0  0  0  0  0  0  0  0
  -22.3784   37.1116    3.9427 N   0  0  0  0  0  0  0  0  0  0  0  0
  -22.3864   36.7541    2.6731 C   0  0  0  0  0  0  0  0  0  0  0  0
  -23.1099   38.9300    2.0705 N   0  0  0  0  0  0  0  0  0  0  0  0
  -21.8301   33.3280   -1.6684 C   0  0  0  0  0  0  0  0  0  0  0  0
  -21.3234   32.4099   -2.5849 C   0  0  0  0  0  0  0  0  0  0  0  0
  -20.8259   31.2048   -2.1139 C   0  0  0  0  0  0  0  0  0  0  0  0
  -20.8178   30.9686   -0.7442 C   0  0  0  0  0  0  0  0  0  0  0  0
  -21.3108   31.9402    0.1125 C   0  0  0  0  0  0  0  0  0  0  0  0
  -21.7855   33.0786   -0.3644 N   0  0  0  0  0  0  0  0  0  0  0  0
  -21.2744   31.6865    1.5971 C   0  0  0  0  0  0  0  0  0  0  0  0
  -21.5959   32.9790    2.3747 C   0  0  0  0  0  0  0  0  0  0  0  0
  -21.5075   32.7296    3.8200 N   0  0  0  0  0  0  0  0  0  0  0  0
  -22.5184   31.7467    4.2311 C   0  0  0  0  0  0  0  0  0  0  0  0
  -22.2597   30.4212    3.5088 C   0  0  0  0  0  0  0  0  0  0  0  0
  -22.2821   30.6120    1.9836 C   0  0  0  0  0  0  0  0  0  0  0  0
  -23.5504   31.0140    1.5609 F   0  0  0  0  0  0  0  0  0  0  0  0
  -21.9036   29.4190    1.3578 F   0  0  0  0  0  0  0  0  0  0  0  0
  -21.6641   33.6034    4.3223 H   0  0  0  0  0  0  0  0  0  0  0  0
  5  6  2  0  0  0
  5  4  1  0  0  0
  6  3  1  0  0  0
  7  4  1  0  0  0
  7  8  2  0  0  0
  4  2  2  0  0  0
 15 14  2  0  0  0
 15 11  1  0  0  0
 14 13  1  0  0  0
  3 11  1  0  0  0
  3  1  2  0  0  0
  8  9  1  0  0  0
 11 16  2  0  0  0
  2  1  1  0  0  0
  2  9  1  0  0  0
 13 10  2  0  0  0
  9 17  1  0  0  0
 16 10  1  0  0  0
 10 12  1  0  0  0
 17 18  2  0  0  0
 17 22  1  0  0  0
 18 19  1  0  0  0
 22 21  2  0  0  0
 19 20  2  0  0  0
 21 20  1  0  0  0
 21 23  1  0  0  0
 24 23  1  0  0  0
 24 25  1  0  0  0
 29 28  1  0  0  0
 23 28  1  0  0  0
 25 26  1  0  0  0
 28 30  1  0  0  0
 28 27  1  0  0  0
 26 27  1  0  0  0
 25 31  1  0  0  0
M  END
> <minimizedAffinity>
-11.12019

$$$$
5V82_96Y_A_401


 31 35  0  0  0  0  0  0  0  0999 V2000
  -22.8683   34.7307    1.8738 C   0  0  0  0  0  0  0  0  0  0  0  0
  -22.9277   36.1149    1.7603 C   0  0  0  0  0  0  0  0  0  0  0  0
  -22.7966   34.1922    3.1499 C   0  0  0  0  0  0  0  0  0  0  0  0
  -22.9052   36.8789    2.9435 C   0  0  0  0  0  0  0  0  0  0  0  0
  -22.8322   36.2400    4.1863 C   0  0  0  0  0  0  0  0  0  0  0  0
  -22.7688   34.9350    4.2477 N   0  0  0  0  0  0  0  0  0  0  0  0
  -22.9685   38.2729    2.5363 C   0  0  0  0  0  0  0  0  0  0  0  0
  -23.0084   38.2982    1.2374 N   0  0  0  0  0  0  0  0  0  0  0  0
  -23.0083   37.0012    0.7197 N   0  0  0  0  0  0  0  0  0  0  0  0
  -22.3691   30.6662    2.4269 C   0  0  0  0  0  0  0  0  0  0  0  0
  -22.7558   32.7411    3.3094 C   0  0  0  0  0  0  0  0  0  0  0  0
  -21.9583   29.7954    1.2687 C   0  0  0  0  0  0  0  0  0  0  0  0
  -22.7035   30.0975    3.6424 C   0  0  0  0  0  0  0  0  0  0  0  0
  -23.0489   30.8648    4.6669 N   0  0  0  0  0  0  0  0  0  0  0  0
  -23.0952   32.1770    4.5420 C   0  0  0  0  0  0  0  0  0  0  0  0
  -22.4140   31.9805    2.2796 N   0  0  0  0  0  0  0  0  0  0  0  0
  -22.9806   36.7109   -0.6458 C   0  0  0  0  0  0  0  0  0  0  0  0
  -23.0259   37.7628   -1.5573 C   0  0  0  0  0  0  0  0  0  0  0  0
  -22.9546   37.4737   -2.9112 C   0  0  0  0  0  0  0  0  0  0  0  0
  -22.8056   36.1508   -3.3106 C   0  0  0  0  0  0  0  0  0  0  0  0
  -22.7376   35.1570   -2.3469 C   0  0  0  0  0  0  0  0  0  0  0  0
  -22.8147   35.4604   -1.0621 N   0  0  0  0  0  0  0  0  0  0  0  0
  -22.5503   33.7286   -2.7877 C   0  0  0  0  0  0  0  0  0  0  0  0
  -22.7123   33.6088   -4.3168 C   0  0  0  0  0  0  0  0  0  0  0  0
  -22.5773   32.2043   -4.7266 N   0  0  0  0  0  0  0  0  0  0  0  0
  -21.2279   31.7111   -4.4219 C   0  0  0  0  0  0  0  0  0  0  0  0
  -20.9908   31.7845   -2.9105 C   0  0  0  0  0  0  0  0  0  0  0  0
  -21.1691   33.2216   -2.3946 C   0  0  0  0  0  0  0  0  0  0  0  0
  -20.2064   34.0636   -2.9541 F   0  0  0  0  0  0  0  0  0  0  0  0
  -21.0867   33.2301   -0.9977 F   0  0  0  0  0  0  0  0  0  0  0  0
  -22.7442   32.1292   -5.7301 H   0  0  0  0  0  0  0  0  0  0  0  0
  5  6  2  0  0  0
  5  4  1  0  0  0
  6  3  1  0  0  0
  7  4  1  0  0  0
  7  8  2  0  0  0
  4  2  2  0  0  0
 15 14  2  0  0  0
 15 11  1  0  0  0
 14 13  1  0  0  0
  3 11  1  0  0  0
  3  1  2  0  0  0
  8  9  1  0  0  0
 11 16  2  0  0  0
  2  1  1  0  0  0
  2  9  1  0  0  0
 13 10  2  0  0  0
  9 17  1  0  0  0
 16 10  1  0  0  0
 10 12  1  0  0  0
 17 18  2  0  0  0
 17 22  1  0  0  0
 18 19  1  0  0  0
 22 21  2  0  0  0
 19 20  2  0  0  0
 21 20  1  0  0  0
 21 23  1  0  0  0
 24 23  1  0  0  0
 24 25  1  0  0  0
 29 28  1  0  0  0
 23 28  1  0  0  0
 25 26  1  0  0  0
 28 30  1  0  0  0
 28 27  1  0  0  0
 26 27  1  0  0  0
 25 31  1  0  0  0
M  END
> <minimizedAffinity>
-10.97842

$$$$
5V82_96Y_A_401


 31 35  0  0  0  0  0  0  0  0999 V2000
  -21.6314   32.9885    0.0070 C   0  0  0  0  0  0  0  0  0  0  0  0
  -21.5686   32.7932   -1.3680 C   0  0  0  0  0  0  0  0  0  0  0  0
  -21.3354   31.9079    0.8244 C   0  0  0  0  0  0  0  0  0  0  0  0
  -21.2157   31.5141   -1.8407 C   0  0  0  0  0  0  0  0  0  0  0  0
  -20.9336   30.4871   -0.9331 C   0  0  0  0  0  0  0  0  0  0  0  0
  -21.0136   30.7113    0.3531 N   0  0  0  0  0  0  0  0  0  0  0  0
  -21.2363   31.5901   -3.2923 C   0  0  0  0  0  0  0  0  0  0  0  0
  -21.5843   32.8003   -3.6144 N   0  0  0  0  0  0  0  0  0  0  0  0
  -21.7760   33.5782   -2.4705 N   0  0  0  0  0  0  0  0  0  0  0  0
  -22.0012   31.3299    4.3402 C   0  0  0  0  0  0  0  0  0  0  0  0
  -21.3687   32.0814    2.2741 C   0  0  0  0  0  0  0  0  0  0  0  0
  -22.6710   30.2942    5.2046 C   0  0  0  0  0  0  0  0  0  0  0  0
  -21.4134   32.4424    4.9142 C   0  0  0  0  0  0  0  0  0  0  0  0
  -20.8091   33.3458    4.1549 N   0  0  0  0  0  0  0  0  0  0  0  0
  -20.7712   33.2090    2.8437 C   0  0  0  0  0  0  0  0  0  0  0  0
  -21.9784   31.1766    3.0261 N   0  0  0  0  0  0  0  0  0  0  0  0
  -22.2175   34.9025   -2.4980 C   0  0  0  0  0  0  0  0  0  0  0  0
  -22.8455   35.3776   -3.6466 C   0  0  0  0  0  0  0  0  0  0  0  0
  -23.3212   36.6797   -3.6548 C   0  0  0  0  0  0  0  0  0  0  0  0
  -23.1866   37.4533   -2.5079 C   0  0  0  0  0  0  0  0  0  0  0  0
  -22.5772   36.9052   -1.3902 C   0  0  0  0  0  0  0  0  0  0  0  0
  -22.1267   35.6621   -1.4120 N   0  0  0  0  0  0  0  0  0  0  0  0
  -22.4587   37.7421   -0.1431 C   0  0  0  0  0  0  0  0  0  0  0  0
  -23.5529   38.8286   -0.1149 C   0  0  0  0  0  0  0  0  0  0  0  0
  -23.3947   39.6684    1.0803 N   0  0  0  0  0  0  0  0  0  0  0  0
  -23.5873   38.8673    2.2961 C   0  0  0  0  0  0  0  0  0  0  0  0
  -22.5239   37.7663    2.3512 C   0  0  0  0  0  0  0  0  0  0  0  0
  -22.5902   36.8740    1.1012 C   0  0  0  0  0  0  0  0  0  0  0  0
  -23.8104   36.1976    1.0490 F   0  0  0  0  0  0  0  0  0  0  0  0
  -21.5209   35.9716    1.1140 F   0  0  0  0  0  0  0  0  0  0  0  0
  -24.0860   40.4181    1.0586 H   0  0  0  0  0  0  0  0  0  0  0  0
  5  6  2  0  0  0
  5  4  1  0  0  0
  6  3  1  0  0  0
  7  4  1  0  0  0
  7  8  2  0  0  0
  4  2  2  0  0  0
 15 14  2  0  0  0
 15 11  1  0  0  0
 14 13  1  0  0  0
  3 11  1  0  0  0
  3  1  2  0  0  0
  8  9  1  0  0  0
 11 16  2  0  0  0
  2  1  1  0  0  0
  2  9  1  0  0  0
 13 10  2  0  0  0
  9 17  1  0  0  0
 16 10  1  0  0  0
 10 12  1  0  0  0
 17 18  2  0  0  0
 17 22  1  0  0  0
 18 19  1  0  0  0
 22 21  2  0  0  0
 19 20  2  0  0  0
 21 20  1  0  0  0
 21 23  1  0  0  0
 24 23  1  0  0  0
 24 25  1  0  0  0
 29 28  1  0  0  0
 23 28  1  0  0  0
 25 26  1  0  0  0
 28 30  1  0  0  0
 28 27  1  0  0  0
 26 27  1  0  0  0
 25 31  1  0  0  0
M  END
> <minimizedAffinity>
-10.94628

$$$$
5V82_96Y_A_401


 31 35  0  0  0  0  0  0  0  0999 V2000
  -22.1639   33.7772    2.1295 C   0  0  0  0  0  0  0  0  0  0  0  0
  -22.0681   32.4174    1.8568 C   0  0  0  0  0  0  0  0  0  0  0  0
  -22.4785   34.1525    3.4271 C   0  0  0  0  0  0  0  0  0  0  0  0
  -22.3018   31.5117    2.9100 C   0  0  0  0  0  0  0  0  0  0  0  0
  -22.6125   31.9909    4.1875 C   0  0  0  0  0  0  0  0  0  0  0  0
  -22.7017   33.2786    4.3988 N   0  0  0  0  0  0  0  0  0  0  0  0
  -22.1472   30.1789    2.3505 C   0  0  0  0  0  0  0  0  0  0  0  0
  -21.8657   30.3160    1.0890 N   0  0  0  0  0  0  0  0  0  0  0  0
  -21.7845   31.6675    0.7468 N   0  0  0  0  0  0  0  0  0  0  0  0
  -22.8788   37.7395    3.0933 C   0  0  0  0  0  0  0  0  0  0  0  0
  -22.5653   35.5726    3.7565 C   0  0  0  0  0  0  0  0  0  0  0  0
  -23.1601   38.7456    2.0082 C   0  0  0  0  0  0  0  0  0  0  0  0
  -22.7069   38.1547    4.4013 C   0  0  0  0  0  0  0  0  0  0  0  0
  -22.4759   37.2676    5.3591 N   0  0  0  0  0  0  0  0  0  0  0  0
  -22.3905   35.9811    5.0815 C   0  0  0  0  0  0  0  0  0  0  0  0
  -22.7919   36.4537    2.7931 N   0  0  0  0  0  0  0  0  0  0  0  0
  -21.5607   32.1267   -0.5526 C   0  0  0  0  0  0  0  0  0  0  0  0
  -21.2382   31.2042   -1.5449 C   0  0  0  0  0  0  0  0  0  0  0  0
  -21.0591   31.6580   -2.8425 C   0  0  0  0  0  0  0  0  0  0  0  0
  -21.2412   33.0088   -3.1149 C   0  0  0  0  0  0  0  0  0  0  0  0
  -21.5913   33.8655   -2.0832 C   0  0  0  0  0  0  0  0  0  0  0  0
  -21.7495   33.4068   -0.8531 N   0  0  0  0  0  0  0  0  0  0  0  0
  -21.8118   35.3234   -2.3923 C   0  0  0  0  0  0  0  0  0  0  0  0
  -22.7729   35.4835   -3.5879 C   0  0  0  0  0  0  0  0  0  0  0  0
  -22.9393   36.9073   -3.9101 N   0  0  0  0  0  0  0  0  0  0  0  0
  -23.5677   37.6148   -2.7870 C   0  0  0  0  0  0  0  0  0  0  0  0
  -22.6633   37.5144   -1.5550 C   0  0  0  0  0  0  0  0  0  0  0  0
  -22.3968   36.0461   -1.1861 C   0  0  0  0  0  0  0  0  0  0  0  0
  -23.5847   35.4126   -0.8167 F   0  0  0  0  0  0  0  0  0  0  0  0
  -21.4582   35.9875   -0.1499 F   0  0  0  0  0  0  0  0  0  0  0  0
  -23.5292   36.9983   -4.7373 H   0  0  0  0  0  0  0  0  0  0  0  0
  5  6  2  0  0  0
  5  4  1  0  0  0
  6  3  1  0  0  0
  7  4  1  0  0  0
  7  8  2  0  0  0
  4  2  2  0  0  0
 15 14  2  0  0  0
 15 11  1  0  0  0
 14 13  1  0  0  0
  3 11  1  0  0  0
  3  1  2  0  0  0
  8  9  1  0  0  0
 11 16  2  0  0  0
  2  1  1  0  0  0
  2  9  1  0  0  0
 13 10  2  0  0  0
  9 17  1  0  0  0
 16 10  1  0  0  0
 10 12  1  0  0  0
 17 18  2  0  0  0
 17 22  1  0  0  0
 18 19  1  0  0  0
 22 21  2  0  0  0
 19 20  2  0  0  0
 21 20  1  0  0  0
 21 23  1  0  0  0
 24 23  1  0  0  0
 24 25  1  0  0  0
 29 28  1  0  0  0
 23 28  1  0  0  0
 25 26  1  0  0  0
 28 30  1  0  0  0
 28 27  1  0  0  0
 26 27  1  0  0  0
 25 31  1  0  0  0
M  END
> <minimizedAffinity>
-10.79334

$$$$
5V82_96Y_A_401


 31 35  0  0  0  0  0  0  0  0999 V2000
  -22.1033   33.9656   -0.6799 C   0  0  0  0  0  0  0  0  0  0  0  0
  -21.5914   32.6781   -0.7930 C   0  0  0  0  0  0  0  0  0  0  0  0
  -21.9435   34.8188   -1.7615 C   0  0  0  0  0  0  0  0  0  0  0  0
  -20.9404   32.3262   -1.9915 C   0  0  0  0  0  0  0  0  0  0  0  0
  -20.8311   33.2604   -3.0275 C   0  0  0  0  0  0  0  0  0  0  0  0
  -21.3191   34.4645   -2.8761 N   0  0  0  0  0  0  0  0  0  0  0  0
  -20.5032   30.9486   -1.8349 C   0  0  0  0  0  0  0  0  0  0  0  0
  -20.8610   30.5587   -0.6478 N   0  0  0  0  0  0  0  0  0  0  0  0
  -21.5493   31.5753    0.0176 N   0  0  0  0  0  0  0  0  0  0  0  0
  -23.1139   37.9852   -0.4416 C   0  0  0  0  0  0  0  0  0  0  0  0
  -22.4885   36.1717   -1.6880 C   0  0  0  0  0  0  0  0  0  0  0  0
  -23.2532   38.6664    0.8945 C   0  0  0  0  0  0  0  0  0  0  0  0
  -23.4957   38.6376   -1.5997 C   0  0  0  0  0  0  0  0  0  0  0  0
  -23.3575   38.0445   -2.7774 N   0  0  0  0  0  0  0  0  0  0  0  0
  -22.8707   36.8218   -2.8645 C   0  0  0  0  0  0  0  0  0  0  0  0
  -22.6278   36.7562   -0.5070 N   0  0  0  0  0  0  0  0  0  0  0  0
  -22.0008   31.4732    1.3349 C   0  0  0  0  0  0  0  0  0  0  0  0
  -22.1301   30.2089    1.9046 C   0  0  0  0  0  0  0  0  0  0  0  0
  -22.5371   30.1131    3.2263 C   0  0  0  0  0  0  0  0  0  0  0  0
  -22.7680   31.2794    3.9463 C   0  0  0  0  0  0  0  0  0  0  0  0
  -22.5905   32.5049    3.3236 C   0  0  0  0  0  0  0  0  0  0  0  0
  -22.2076   32.5671    2.0594 N   0  0  0  0  0  0  0  0  0  0  0  0
  -22.8180   33.7640    4.1190 C   0  0  0  0  0  0  0  0  0  0  0  0
  -21.4783   34.3268    4.6356 C   0  0  0  0  0  0  0  0  0  0  0  0
  -21.7192   35.5252    5.4510 N   0  0  0  0  0  0  0  0  0  0  0  0
  -22.3168   36.5879    4.6322 C   0  0  0  0  0  0  0  0  0  0  0  0
  -23.6667   36.1103    4.0885 C   0  0  0  0  0  0  0  0  0  0  0  0
  -23.5039   34.8223    3.2653 C   0  0  0  0  0  0  0  0  0  0  0  0
  -22.7215   35.0621    2.1342 F   0  0  0  0  0  0  0  0  0  0  0  0
  -24.7653   34.3360    2.9042 F   0  0  0  0  0  0  0  0  0  0  0  0
  -20.8334   35.8544    5.8350 H   0  0  0  0  0  0  0  0  0  0  0  0
  5  6  2  0  0  0
  5  4  1  0  0  0
  6  3  1  0  0  0
  7  4  1  0  0  0
  7  8  2  0  0  0
  4  2  2  0  0  0
 15 14  2  0  0  0
 15 11  1  0  0  0
 14 13  1  0  0  0
  3 11  1  0  0  0
  3  1  2  0  0  0
  8  9  1  0  0  0
 11 16  2  0  0  0
  2  1  1  0  0  0
  2  9  1  0  0  0
 13 10  2  0  0  0
  9 17  1  0  0  0
 16 10  1  0  0  0
 10 12  1  0  0  0
 17 18  2  0  0  0
 17 22  1  0  0  0
 18 19  1  0  0  0
 22 21  2  0  0  0
 19 20  2  0  0  0
 21 20  1  0  0  0
 21 23  1  0  0  0
 24 23  1  0  0  0
 24 25  1  0  0  0
 29 28  1  0  0  0
 23 28  1  0  0  0
 25 26  1  0  0  0
 28 30  1  0  0  0
 28 27  1  0  0  0
 26 27  1  0  0  0
 25 31  1  0  0  0
M  END
> <minimizedAffinity>
-10.78723

$$$$
5V82_96Y_A_401


 31 35  0  0  0  0  0  0  0  0999 V2000
  -22.7076   36.5715    1.7680 C   0  0  0  0  0  0  0  0  0  0  0  0
  -22.9955   37.4542    0.7333 C   0  0  0  0  0  0  0  0  0  0  0  0
  -22.7893   37.0531    3.0660 C   0  0  0  0  0  0  0  0  0  0  0  0
  -23.3443   38.7772    1.0680 C   0  0  0  0  0  0  0  0  0  0  0  0
  -23.4000   39.1666    2.4109 C   0  0  0  0  0  0  0  0  0  0  0  0
  -23.1125   38.3064    3.3533 N   0  0  0  0  0  0  0  0  0  0  0  0
  -23.5805   39.4721   -0.1868 C   0  0  0  0  0  0  0  0  0  0  0  0
  -23.3698   38.6231   -1.1482 N   0  0  0  0  0  0  0  0  0  0  0  0
  -23.0318   37.3700   -0.6329 N   0  0  0  0  0  0  0  0  0  0  0  0
  -21.6707   34.1703    4.9572 C   0  0  0  0  0  0  0  0  0  0  0  0
  -22.5161   36.1488    4.1797 C   0  0  0  0  0  0  0  0  0  0  0  0
  -20.9780   32.8570    4.7046 C   0  0  0  0  0  0  0  0  0  0  0  0
  -22.0452   34.5255    6.2402 C   0  0  0  0  0  0  0  0  0  0  0  0
  -22.6399   35.6889    6.4650 N   0  0  0  0  0  0  0  0  0  0  0  0
  -22.8984   36.5179    5.4722 C   0  0  0  0  0  0  0  0  0  0  0  0
  -21.9255   34.9858    3.9467 N   0  0  0  0  0  0  0  0  0  0  0  0
  -22.6854   36.2733   -1.4246 C   0  0  0  0  0  0  0  0  0  0  0  0
  -22.8518   36.3616   -2.8045 C   0  0  0  0  0  0  0  0  0  0  0  0
  -22.4665   35.2872   -3.5913 C   0  0  0  0  0  0  0  0  0  0  0  0
  -21.8970   34.1757   -2.9815 C   0  0  0  0  0  0  0  0  0  0  0  0
  -21.7341   34.1686   -1.6051 C   0  0  0  0  0  0  0  0  0  0  0  0
  -22.1164   35.2047   -0.8778 N   0  0  0  0  0  0  0  0  0  0  0  0
  -21.0923   32.9705   -0.9553 C   0  0  0  0  0  0  0  0  0  0  0  0
  -21.7245   32.7005    0.4253 C   0  0  0  0  0  0  0  0  0  0  0  0
  -21.0557   31.5615    1.0689 N   0  0  0  0  0  0  0  0  0  0  0  0
  -21.2611   30.3382    0.2826 C   0  0  0  0  0  0  0  0  0  0  0  0
  -20.6454   30.5203   -1.1080 C   0  0  0  0  0  0  0  0  0  0  0  0
  -21.2586   31.7328   -1.8269 C   0  0  0  0  0  0  0  0  0  0  0  0
  -22.6200   31.5262   -2.0571 F   0  0  0  0  0  0  0  0  0  0  0  0
  -20.5787   31.9561   -3.0294 F   0  0  0  0  0  0  0  0  0  0  0  0
  -21.4416   31.4292    2.0037 H   0  0  0  0  0  0  0  0  0  0  0  0
  5  6  2  0  0  0
  5  4  1  0  0  0
  6  3  1  0  0  0
  7  4  1  0  0  0
  7  8  2  0  0  0
  4  2  2  0  0  0
 15 14  2  0  0  0
 15 11  1  0  0  0
 14 13  1  0  0  0
  3 11  1  0  0  0
  3  1  2  0  0  0
  8  9  1  0  0  0
 11 16  2  0  0  0
  2  1  1  0  0  0
  2  9  1  0  0  0
 13 10  2  0  0  0
  9 17  1  0  0  0
 16 10  1  0  0  0
 10 12  1  0  0  0
 17 18  2  0  0  0
 17 22  1  0  0  0
 18 19  1  0  0  0
 22 21  2  0  0  0
 19 20  2  0  0  0
 21 20  1  0  0  0
 21 23  1  0  0  0
 24 23  1  0  0  0
 24 25  1  0  0  0
 29 28  1  0  0  0
 23 28  1  0  0  0
 25 26  1  0  0  0
 28 30  1  0  0  0
 28 27  1  0  0  0
 26 27  1  0  0  0
 25 31  1  0  0  0
M  END
> <minimizedAffinity>
-10.52720

$$$$
5V82_96Y_A_401


 31 35  0  0  0  0  0  0  0  0999 V2000
  -22.2134   34.4103   -0.5947 C   0  0  0  0  0  0  0  0  0  0  0  0
  -21.7320   33.2311   -1.1517 C   0  0  0  0  0  0  0  0  0  0  0  0
  -22.1700   35.5554   -1.3760 C   0  0  0  0  0  0  0  0  0  0  0  0
  -21.2274   33.2760   -2.4660 C   0  0  0  0  0  0  0  0  0  0  0  0
  -21.2281   34.4832   -3.1737 C   0  0  0  0  0  0  0  0  0  0  0  0
  -21.6821   35.5719   -2.6086 N   0  0  0  0  0  0  0  0  0  0  0  0
  -20.7902   31.9273   -2.7869 C   0  0  0  0  0  0  0  0  0  0  0  0
  -21.0131   31.1864   -1.7425 N   0  0  0  0  0  0  0  0  0  0  0  0
  -21.6090   31.9356   -0.7257 N   0  0  0  0  0  0  0  0  0  0  0  0
  -23.4142   38.0363    0.9556 C   0  0  0  0  0  0  0  0  0  0  0  0
  -22.6880   36.8082   -0.8328 C   0  0  0  0  0  0  0  0  0  0  0  0
  -23.6950   38.1552    2.4305 C   0  0  0  0  0  0  0  0  0  0  0  0
  -23.6405   39.1102    0.1140 C   0  0  0  0  0  0  0  0  0  0  0  0
  -23.3776   39.0110   -1.1816 N   0  0  0  0  0  0  0  0  0  0  0  0
  -22.9126   37.8872   -1.6920 C   0  0  0  0  0  0  0  0  0  0  0  0
  -22.9527   36.8983    0.4624 N   0  0  0  0  0  0  0  0  0  0  0  0
  -21.9067   31.4271    0.5401 C   0  0  0  0  0  0  0  0  0  0  0  0
  -21.8915   30.0475    0.7304 C   0  0  0  0  0  0  0  0  0  0  0  0
  -22.1451   29.5479    1.9984 C   0  0  0  0  0  0  0  0  0  0  0  0
  -22.3708   30.4391    3.0409 C   0  0  0  0  0  0  0  0  0  0  0  0
  -22.3414   31.8009    2.7848 C   0  0  0  0  0  0  0  0  0  0  0  0
  -22.1034   32.2501    1.5640 N   0  0  0  0  0  0  0  0  0  0  0  0
  -22.5615   32.7599    3.9256 C   0  0  0  0  0  0  0  0  0  0  0  0
  -22.9465   31.9953    5.2084 C   0  0  0  0  0  0  0  0  0  0  0  0
  -23.2071   32.9449    6.2989 N   0  0  0  0  0  0  0  0  0  0  0  0
  -21.9875   33.6954    6.6246 C   0  0  0  0  0  0  0  0  0  0  0  0
  -21.5438   34.4984    5.3981 C   0  0  0  0  0  0  0  0  0  0  0  0
  -21.3030   33.5747    4.1932 C   0  0  0  0  0  0  0  0  0  0  0  0
  -20.2483   32.6980    4.4537 F   0  0  0  0  0  0  0  0  0  0  0  0
  -21.0387   34.3479    3.0572 F   0  0  0  0  0  0  0  0  0  0  0  0
  -23.5172   32.4323    7.1244 H   0  0  0  0  0  0  0  0  0  0  0  0
  5  6  2  0  0  0
  5  4  1  0  0  0
  6  3  1  0  0  0
  7  4  1  0  0  0
  7  8  2  0  0  0
  4  2  2  0  0  0
 15 14  2  0  0  0
 15 11  1  0  0  0
 14 13  1  0  0  0
  3 11  1  0  0  0
  3  1  2  0  0  0
  8  9  1  0  0  0
 11 16  2  0  0  0
  2  1  1  0  0  0
  2  9  1  0  0  0
 13 10  2  0  0  0
  9 17  1  0  0  0
 16 10  1  0  0  0
 10 12  1  0  0  0
 17 18  2  0  0  0
 17 22  1  0  0  0
 18 19  1  0  0  0
 22 21  2  0  0  0
 19 20  2  0  0  0
 21 20  1  0  0  0
 21 23  1  0  0  0
 24 23  1  0  0  0
 24 25  1  0  0  0
 29 28  1  0  0  0
 23 28  1  0  0  0
 25 26  1  0  0  0
 28 30  1  0  0  0
 28 27  1  0  0  0
 26 27  1  0  0  0
 25 31  1  0  0  0
M  END
> <minimizedAffinity>
-10.52603

$$$$
5V82_96Y_A_401


 31 35  0  0  0  0  0  0  0  0999 V2000
  -22.0053   33.6481    1.1000 C   0  0  0  0  0  0  0  0  0  0  0  0
  -21.8377   34.1902   -0.1691 C   0  0  0  0  0  0  0  0  0  0  0  0
  -21.7555   32.2932    1.2589 C   0  0  0  0  0  0  0  0  0  0  0  0
  -21.4326   33.3309   -1.2092 C   0  0  0  0  0  0  0  0  0  0  0  0
  -21.2043   31.9755   -0.9466 C   0  0  0  0  0  0  0  0  0  0  0  0
  -21.3827   31.5045    0.2605 N   0  0  0  0  0  0  0  0  0  0  0  0
  -21.3464   34.1469   -2.4092 C   0  0  0  0  0  0  0  0  0  0  0  0
  -21.6866   35.3580   -2.0823 N   0  0  0  0  0  0  0  0  0  0  0  0
  -21.9737   35.4373   -0.7179 N   0  0  0  0  0  0  0  0  0  0  0  0
  -22.4608   29.9016    3.8897 C   0  0  0  0  0  0  0  0  0  0  0  0
  -21.8989   31.6930    2.5825 C   0  0  0  0  0  0  0  0  0  0  0  0
  -22.9373   28.4788    4.0207 C   0  0  0  0  0  0  0  0  0  0  0  0
  -22.1540   30.6407    5.0177 C   0  0  0  0  0  0  0  0  0  0  0  0
  -21.7186   31.8875    4.9018 N   0  0  0  0  0  0  0  0  0  0  0  0
  -21.5857   32.4486    3.7156 C   0  0  0  0  0  0  0  0  0  0  0  0
  -22.3389   30.4478    2.6906 N   0  0  0  0  0  0  0  0  0  0  0  0
  -22.4305   36.5962   -0.0873 C   0  0  0  0  0  0  0  0  0  0  0  0
  -22.8717   37.6588   -0.8722 C   0  0  0  0  0  0  0  0  0  0  0  0
  -23.3650   38.7911   -0.2427 C   0  0  0  0  0  0  0  0  0  0  0  0
  -23.4348   38.8139    1.1452 C   0  0  0  0  0  0  0  0  0  0  0  0
  -23.0055   37.7081    1.8622 C   0  0  0  0  0  0  0  0  0  0  0  0
  -22.5333   36.6433    1.2362 N   0  0  0  0  0  0  0  0  0  0  0  0
  -23.1087   37.7314    3.3650 C   0  0  0  0  0  0  0  0  0  0  0  0
  -22.9386   39.1691    3.8966 C   0  0  0  0  0  0  0  0  0  0  0  0
  -22.9910   39.1701    5.3650 N   0  0  0  0  0  0  0  0  0  0  0  0
  -24.3095   38.7195    5.8290 C   0  0  0  0  0  0  0  0  0  0  0  0
  -24.5518   37.2847    5.3510 C   0  0  0  0  0  0  0  0  0  0  0  0
  -24.4583   37.1915    3.8195 C   0  0  0  0  0  0  0  0  0  0  0  0
  -25.4680   37.9483    3.2222 F   0  0  0  0  0  0  0  0  0  0  0  0
  -24.5423   35.8510    3.4268 F   0  0  0  0  0  0  0  0  0  0  0  0
  -22.8191   40.1155    5.7071 H   0  0  0  0  0  0  0  0  0  0  0  0
  5  6  2  0  0  0
  5  4  1  0  0  0
  6  3  1  0  0  0
  7  4  1  0  0  0
  7  8  2  0  0  0
  4  2  2  0  0  0
 15 14  2  0  0  0
 15 11  1  0  0  0
 14 13  1  0  0  0
  3 11  1  0  0  0
  3  1  2  0  0  0
  8  9  1  0  0  0
 11 16  2  0  0  0
  2  1  1  0  0  0
  2  9  1  0  0  0
 13 10  2  0  0  0
  9 17  1  0  0  0
 16 10  1  0  0  0
 10 12  1  0  0  0
 17 18  2  0  0  0
 17 22  1  0  0  0
 18 19  1  0  0  0
 22 21  2  0  0  0
 19 20  2  0  0  0
 21 20  1  0  0  0
 21 23  1  0  0  0
 24 23  1  0  0  0
 24 25  1  0  0  0
 29 28  1  0  0  0
 23 28  1  0  0  0
 25 26  1  0  0  0
 28 30  1  0  0  0
 28 27  1  0  0  0
 26 27  1  0  0  0
 25 31  1  0  0  0
M  END
> <minimizedAffinity>
-10.45023

$$$$
