1G54_FFB_A_555
  RCSB PDB12061702343D
Coordinates from PDB:1G54:A:555 Model:1 without hydrogens
 25 26  0  0  0  0            999 V2000
   -3.4990    3.5140   14.8940   C 0  0  0  0  0  0  0  0  0  0  0  0
   -3.9700    2.4230   15.6520   C 0  0  0  0  0  0  0  0  0  0  0  0
   -5.3570    2.3000   15.9540   C 0  0  0  0  0  0  0  0  0  0  0  0
   -6.1840    3.3040   15.4690   C 0  0  0  0  0  0  0  0  0  0  0  0
   -5.6860    4.3730   14.7270   C 0  0  0  0  0  0  0  0  0  0  0  0
   -4.3550    4.5030   14.4230   C 0  0  0  0  0  0  0  0  0  0  0  0
   -3.8980    5.7010   13.5960   C 0  0  0  0  0  0  0  0  0  0  0  0
   -4.8220    6.4410   13.2880   O 0  0  0  0  0  0  0  0  0  0  0  0
   -2.5810    6.0700   13.1380   N 0  0  0  0  0  0  0  0  0  0  0  0
   -2.5570    7.3350   12.3420   C 0  0  0  0  0  0  0  0  0  0  0  0
   -5.9420    0.8710   16.9250   S 0  0  0  0  0  0  0  0  0  0  0  0
   -5.4100   -0.5200   16.1990   N 0  0  0  0  0  0  0  0  0  0  0  0
   -7.3760    1.0970   16.9330   O 0  0  0  0  0  0  0  0  0  0  0  0
   -5.3850    1.0630   18.2610   O 0  0  0  0  0  0  0  0  0  0  0  0
   -2.2100    8.6120   12.8640   C 0  0  0  0  0  0  0  0  0  0  0  0
   -2.2510    9.7780   12.0200   C 0  0  0  0  0  0  0  0  0  0  0  0
   -1.9020   11.0540   12.5910   C 0  0  0  0  0  0  0  0  0  0  0  0
   -1.5250   11.1470   13.9530   C 0  0  0  0  0  0  0  0  0  0  0  0
   -1.4860    9.9880   14.7750   C 0  0  0  0  0  0  0  0  0  0  0  0
   -1.8250    8.7280   14.2450   C 0  0  0  0  0  0  0  0  0  0  0  0
   -2.6090    9.6900   10.7320   F 0  0  0  0  0  0  0  0  0  0  0  0
   -1.9340   12.1560   11.8310   F 0  0  0  0  0  0  0  0  0  0  0  0
   -1.2010   12.3350   14.4790   F 0  0  0  0  0  0  0  0  0  0  0  0
   -1.1280   10.0760   16.0630   F 0  0  0  0  0  0  0  0  0  0  0  0
   -1.7760    7.6620   15.0560   F 0  0  0  0  0  0  0  0  0  0  0  0
  1  2  2  0  0  0  0
  1  6  1  0  0  0  0
  2  3  1  0  0  0  0
  3  4  2  0  0  0  0
  3 11  1  0  0  0  0
  4  5  1  0  0  0  0
  5  6  2  0  0  0  0
  6  7  1  0  0  0  0
  7  8  2  0  0  0  0
  7  9  1  0  0  0  0
  9 10  1  0  0  0  0
 10 15  1  0  0  0  0
 11 12  1  0  0  0  0
 11 13  2  0  0  0  0
 11 14  2  0  0  0  0
 15 16  2  0  0  0  0
 15 20  1  0  0  0  0
 16 17  1  0  0  0  0
 16 21  1  0  0  0  0
 17 18  2  0  0  0  0
 17 22  1  0  0  0  0
 18 19  1  0  0  0  0
 18 23  1  0  0  0  0
 19 20  2  0  0  0  0
 19 24  1  0  0  0  0
 20 25  1  0  0  0  0
A    1
C01
A    2
C02
A    3
C03
A    4
C04
A    5
C05
A    6
C06
A    7
C07
A    8
O08
A    9
N09
A   10
C10
A   11
S11
A   12
NP2
A   13
O13
A   14
O14
A   15
C15
A   16
C16
A   17
C17
A   18
C18
A   19
C19
A   20
C20
A   21
F21
A   22
F22
A   23
F23
A   24
F24
A   25
F25
M  END
>  <InstanceId>
1G54_FFB_A_555

>  <ChemCompId>
FFB

>  <PdbId>
1G54

>  <ChainId>
A

>  <ResidueNumber>
555

>  <InsertionCode>


>  <Model>
1

>  <AltIds>


>  <MissingHeavyAtoms>
0

>  <ObservedFormula>
C14 N2 O3 S F5

>  <Name>
N-(2,3,4,5,6-PENTAFLOURO-BENZYL)-4-SULFAMOYL-BENZAMIDE

>  <SystematicName>
N-[(2,3,4,5,6-pentafluorophenyl)methyl]-4-sulfamoyl-benzamide

>  <Synonyms>


>  <Type>
NON-POLYMER

>  <Formula>
C14 H9 F5 N2 O3 S

>  <MolecularWeight>
380.29

>  <ModifiedDate>
2011-06-04

>  <Parent>


>  <OneLetterCode>


>  <SubcomponentList>


>  <AmbiguousFlag>
N

>  <InChI>
InChI=1S/C14H9F5N2O3S/c15-9-8(10(16)12(18)13(19)11(9)17)5-21-14(22)6-1-3-7(4-2-6)25(20,23)24/h1-4H,5H2,(H,21,22)(H2,20,23,24)

>  <InChIKey>
LRKSHOLYETXPGY-UHFFFAOYSA-N

>  <SMILES>
c1cc(ccc1C(=O)NCc2c(c(c(c(c2F)F)F)F)F)S(=O)(=O)N

$$$$
