1G32_R11_B_1
  RCSB PDB12061702333D
Coordinates from PDB:1G32:B:1 Model:1 without hydrogens
 32 36  0  0  0  0            999 V2000
   10.1660  -12.6970   23.8340   N 0  0  0  0  0  0  0  0  0  0  0  0
   10.8230  -10.7090   24.4120   N 0  0  0  0  0  0  0  0  0  0  0  0
   11.0710  -11.7560   23.6370   C 0  0  0  0  0  0  0  0  0  0  0  0
   12.0760  -11.8060   22.6420   C 0  0  0  0  0  0  0  0  0  0  0  0
   12.2170  -12.9390   21.7620   C 0  0  0  0  0  0  0  0  0  0  0  0
   13.2200  -12.9870   20.7710   C 0  0  0  0  0  0  0  0  0  0  0  0
   14.1190  -11.9080   20.6180   C 0  0  0  0  0  0  0  0  0  0  0  0
   14.0130  -10.7820   21.4600   C 0  0  0  0  0  0  0  0  0  0  0  0
   13.0130  -10.7280   22.4530   C 0  0  0  0  0  0  0  0  0  0  0  0
   15.1590  -11.9140   19.6150   N 0  0  0  0  0  0  0  0  0  0  0  0
   16.6070  -11.5930   19.7590   C 0  0  0  0  0  0  0  0  0  0  0  0
   16.7710  -13.3400   21.5380   N 0  0  0  0  0  0  0  0  0  0  0  0
   17.4550  -12.5180   20.6530   C 0  0  0  0  0  0  0  0  0  0  0  0
   18.8740  -12.5480   20.5970   N 0  0  0  0  0  0  0  0  0  0  0  0
   19.0790  -13.5130   21.5770   C 0  0  0  0  0  0  0  0  0  0  0  0
   17.8250  -13.9740   22.1300   C 0  0  0  0  0  0  0  0  0  0  0  0
   20.3100  -14.0490   22.0620   C 0  0  0  0  0  0  0  0  0  0  0  0
   20.2710  -15.0180   23.0730   C 0  0  0  0  0  0  0  0  0  0  0  0
   19.0360  -15.4790   23.6240   C 0  0  0  0  0  0  0  0  0  0  0  0
   17.8040  -14.9660   23.1580   C 0  0  0  0  0  0  0  0  0  0  0  0
   19.8590  -11.7950   19.7590   C 0  0  0  0  0  0  0  0  0  0  0  0
   19.0640  -16.5290   24.7460   C 0  0  0  0  0  0  0  0  0  0  0  0
   20.3380  -16.4640   25.5410   N 0  0  0  0  0  0  0  0  0  0  0  0
   21.3530  -17.4090   25.8040   C 0  0  0  0  0  0  0  0  0  0  0  0
   22.4750  -17.0940   26.5840   N 0  0  0  0  0  0  0  0  0  0  0  0
   22.1430  -15.7810   26.8580   C 0  0  0  0  0  0  0  0  0  0  0  0
   20.8880  -15.4060   26.2450   C 0  0  0  0  0  0  0  0  0  0  0  0
   22.8680  -14.8260   27.6370   C 0  0  0  0  0  0  0  0  0  0  0  0
   22.3250  -13.5250   27.7860   C 0  0  0  0  0  0  0  0  0  0  0  0
   21.1070  -13.1530   27.1880   C 0  0  0  0  0  0  0  0  0  0  0  0
   20.3730  -14.0790   26.4250   C 0  0  0  0  0  0  0  0  0  0  0  0
   21.2740  -18.8190   25.2420   C 0  0  0  0  0  0  0  0  0  0  0  0
  1  3  2  0  0  0  0
  2  3  1  0  0  0  0
  3  4  1  0  0  0  0
  4  5  2  0  0  0  0
  4  9  1  0  0  0  0
  5  6  1  0  0  0  0
  6  7  2  0  0  0  0
  7  8  1  0  0  0  0
  7 10  1  0  0  0  0
  8  9  2  0  0  0  0
 10 11  1  0  0  0  0
 11 13  1  0  0  0  0
 12 13  2  0  0  0  0
 12 16  1  0  0  0  0
 13 14  1  0  0  0  0
 14 15  1  0  0  0  0
 14 21  1  0  0  0  0
 15 16  2  0  0  0  0
 15 17  1  0  0  0  0
 16 20  1  0  0  0  0
 17 18  2  0  0  0  0
 18 19  1  0  0  0  0
 19 20  2  0  0  0  0
 19 22  1  0  0  0  0
 22 23  1  0  0  0  0
 23 24  1  0  0  0  0
 23 27  1  0  0  0  0
 24 25  2  0  0  0  0
 24 32  1  0  0  0  0
 25 26  1  0  0  0  0
 26 27  2  0  0  0  0
 26 28  1  0  0  0  0
 27 31  1  0  0  0  0
 28 29  2  0  0  0  0
 29 30  1  0  0  0  0
 30 31  2  0  0  0  0
A    1
N1
A    2
N2
A    3
C1
A    4
C2
A    5
C3
A    6
C4
A    7
C5
A    8
C6
A    9
C7
A   10
N
A   11
C
A   12
N3
A   13
C8
A   14
N9
A   15
C3A
A   16
C7A
A   17
C10
A   18
C11
A   19
C12
A   20
C13
A   21
C14
A   22
C9
A   23
N4
A   24
C15
A   25
N16
A   26
C17
A   27
C18
A   28
C19
A   29
C20
A   30
C21
A   31
C22
A   32
C23
M  END
>  <InstanceId>
1G32_R11_B_1

>  <ChemCompId>
R11

>  <PdbId>
1G32

>  <ChainId>
B

>  <ResidueNumber>
1

>  <InsertionCode>


>  <Model>
1

>  <AltIds>


>  <MissingHeavyAtoms>
0

>  <ObservedFormula>
C25 N7

>  <Name>
4-{[1-METHYL-5-(2-METHYL-BENZOIMIDAZOL-1-YLMETHYL)-1H-BENZOIMIDAZOL-2-YLMETHYL]-AMINO}-BENZAMIDINE

>  <SystematicName>
4-[[1-methyl-5-[(2-methylbenzimidazol-1-yl)methyl]benzimidazol-2-yl]methylamino]benzenecarboximidamide

>  <Synonyms>


>  <Type>
NON-POLYMER

>  <Formula>
C25 H25 N7

>  <MolecularWeight>
423.513

>  <ModifiedDate>
2011-06-04

>  <Parent>


>  <OneLetterCode>


>  <SubcomponentList>


>  <AmbiguousFlag>
N

>  <InChI>
InChI=1S/C25H25N7/c1-16-29-20-5-3-4-6-23(20)32(16)15-17-7-12-22-21(13-17)30-24(31(22)2)14-28-19-10-8-18(9-11-19)25(26)27/h3-13,28H,14-15H2,1-2H3,(H3,26,27)

>  <InChIKey>
IRKPNOLLMNHSOU-UHFFFAOYSA-N

>  <SMILES>
[H]/N=C(/c1ccc(cc1)NCc2nc3cc(ccc3n2C)Cn4c(nc5c4cccc5)C)\N

$$$$
