1OE8_GSH_A_301
  RCSB PDB12061703323D
Coordinates from PDB:1OE8:A:301 Model:1 without hydrogens
 20 19  0  0  0  0            999 V2000
   15.0660   -4.0860   22.2650   N 0  0  0  0  0  0  0  0  0  0  0  0
   14.6520   -2.6740   22.7050   C 0  0  0  0  0  0  0  0  0  0  0  0
   14.7280   -1.8090   21.3790   C 0  0  0  0  0  0  0  0  0  0  0  0
   14.0200   -0.8370   21.1870   O 0  0  0  0  0  0  0  0  0  0  0  0
   15.5450   -2.3440   20.5710   O 0  0  0  0  0  0  0  0  0  0  0  0
   15.7730   -2.1280   23.6290   C 0  0  0  0  0  0  0  0  0  0  0  0
   15.3630   -0.7590   24.2500   C 0  0  0  0  0  0  0  0  0  0  0  0
   16.3750   -0.3640   25.3180   C 0  0  0  0  0  0  0  0  0  0  0  0
   17.1410   -1.1950   25.9190   O 0  0  0  0  0  0  0  0  0  0  0  0
   16.4990    0.9440   25.5880   N 0  0  0  0  0  0  0  0  0  0  0  0
   17.4370    1.2270   26.6510   C 0  0  0  0  0  0  0  0  0  0  0  0
   16.6940    2.3350   27.5300   C 0  0  0  0  0  0  0  0  0  0  0  0
   15.7380    2.9700   27.1000   O 0  0  0  0  0  0  0  0  0  0  0  0
   18.6290    2.0520   26.0840   C 0  0  0  0  0  0  0  0  0  0  0  0
   19.4780    1.0670   24.8360   S 0  0  0  0  0  0  0  0  0  0  0  0
   17.2050    2.5640   28.7640   N 0  0  0  0  0  0  0  0  0  0  0  0
   16.5300    3.5880   29.5800   C 0  0  0  0  0  0  0  0  0  0  0  0
   15.6780    2.9400   30.6650   C 0  0  0  0  0  0  0  0  0  0  0  0
   15.2190    3.7020   31.5620   O 0  0  0  0  0  0  0  0  0  0  0  0
   15.5390    1.6870   30.6260   O 0  0  0  0  0  0  0  0  0  0  0  0
  1  2  1  0  0  0  0
  2  3  1  0  0  0  0
  2  6  1  0  0  0  0
  3  4  2  0  0  0  0
  3  5  1  0  0  0  0
  6  7  1  0  0  0  0
  7  8  1  0  0  0  0
  8  9  2  0  0  0  0
  8 10  1  0  0  0  0
 10 11  1  0  0  0  0
 11 12  1  0  0  0  0
 11 14  1  0  0  0  0
 12 13  2  0  0  0  0
 12 16  1  0  0  0  0
 14 15  1  0  0  0  0
 16 17  1  0  0  0  0
 17 18  1  0  0  0  0
 18 19  2  0  0  0  0
 18 20  1  0  0  0  0
A    1
N1
A    2
CA1
A    3
C1
A    4
O11
A    5
O12
A    6
CB1
A    7
CG1
A    8
CD1
A    9
OE1
A   10
N2
A   11
CA2
A   12
C2
A   13
O2
A   14
CB2
A   15
SG2
A   16
N3
A   17
CA3
A   18
C3
A   19
O31
A   20
O32
M  END
>  <InstanceId>
1OE8_GSH_A_301

>  <ChemCompId>
GSH

>  <PdbId>
1OE8

>  <ChainId>
A

>  <ResidueNumber>
301

>  <InsertionCode>


>  <Model>
1

>  <AltIds>


>  <MissingHeavyAtoms>
0

>  <ObservedFormula>
C10 N3 O6 S

>  <Name>
GLUTATHIONE

>  <SystematicName>
(2S)-2-azanyl-5-[[(2R)-1-(2-hydroxy-2-oxoethylamino)-1-oxidanylidene-3-sulfanyl-propan-2-yl]amino]-5-oxidanylidene-pentanoic acid

>  <Synonyms>


>  <Type>
NON-POLYMER

>  <Formula>
C10 H17 N3 O6 S

>  <MolecularWeight>
307.323

>  <ModifiedDate>
2014-04-22

>  <Parent>


>  <OneLetterCode>


>  <SubcomponentList>


>  <AmbiguousFlag>
N

>  <InChI>
InChI=1S/C10H17N3O6S/c11-5(10(18)19)1-2-7(14)13-6(4-20)9(17)12-3-8(15)16/h5-6,20H,1-4,11H2,(H,12,17)(H,13,14)(H,15,16)(H,18,19)/t5-,6-/m0/s1

>  <InChIKey>
RWSXRVCMGQZWBV-WDSKDSINSA-N

>  <SMILES>
C(CC(=O)N[C@@H](CS)C(=O)NCC(=O)O)[C@@H](C(=O)O)N

$$$$
