5AMD_45I_A_266


 29 30  0  0  0  0  0  0  0  0999 V2000
   -4.3553    2.6513   13.5821 C   0  0  0  0  0  0  0  0  0  0  0  0
   -4.2834    1.3002   13.8802 C   0  0  0  0  0  0  0  0  0  0  0  0
   -4.8973    0.7720   15.0329 C   0  0  0  0  0  0  0  0  0  0  0  0
   -5.6393    1.5896   15.9330 C   0  0  0  0  0  0  0  0  0  0  0  0
   -5.7372    2.9579   15.6162 C   0  0  0  0  0  0  0  0  0  0  0  0
   -5.1531    3.5266   14.4653 C   0  0  0  0  0  0  0  0  0  0  0  0
   -6.4166    1.0318   17.3111 S   0  0  0  0  0  0  0  0  0  0  0  0
   -5.7536   -0.1781   17.7395 O   0  0  0  0  0  0  0  0  0  0  0  0
   -6.3003    2.1289   18.4319 N   0  0  0  0  0  0  0  0  0  0  0  0
   -7.7873    0.8825   17.0057 O   0  0  0  0  0  0  0  0  0  0  0  0
   -5.3192    2.2620   18.6770 H   0  0  0  0  0  0  0  0  0  0  0  0
   -6.8191    1.8282   19.2571 H   0  0  0  0  0  0  0  0  0  0  0  0
   -4.2993    3.2162   11.2641 O   0  0  0  0  0  0  0  0  0  0  0  0
   -3.7248    3.1480   12.3403 C   0  0  0  0  0  0  0  0  0  0  0  0
   -2.4628    3.4372   12.4233 O   0  0  0  0  0  0  0  0  0  0  0  0
   -2.0235    3.3845   13.2492 H   0  0  0  0  0  0  0  0  0  0  0  0
   -5.2536    5.1346   14.1835 S   0  0  0  0  0  0  0  0  0  0  0  0
   -3.9634    5.6707   13.9375 O   0  0  0  0  0  0  0  0  0  0  0  0
   -6.1555    5.9247   14.9953 O   0  0  0  0  0  0  0  0  0  0  0  0
   -6.0194    5.2967   12.7928 N   0  0  0  0  0  0  0  0  0  0  0  0
   -7.0176    5.2556   12.9986 H   0  0  0  0  0  0  0  0  0  0  0  0
   -5.8025    6.4967   11.9784 C   0  0  0  0  0  0  0  0  0  0  0  0
   -7.1001    7.2506   11.7048 C   0  0  0  0  0  0  0  0  0  0  0  0
   -7.0330    7.9911   10.4046 C   0  0  0  0  0  0  0  0  0  0  0  0
   -7.8164    7.5714    9.3304 C   0  0  0  0  0  0  0  0  0  0  0  0
   -7.7524    8.2641    8.1164 C   0  0  0  0  0  0  0  0  0  0  0  0
   -6.9236    9.3862    7.9899 C   0  0  0  0  0  0  0  0  0  0  0  0
   -6.1355    9.8016    9.0744 C   0  0  0  0  0  0  0  0  0  0  0  0
   -6.2010    9.1087   10.2841 C   0  0  0  0  0  0  0  0  0  0  0  0
 13 14  2  0  0  0
 14 15  1  0  0  0
 14  1  1  0  0  0
  1  2  1  0  0  0
  1  6  2  0  0  0
  2  3  2  0  0  0
  3  4  1  0  0  0
  4  7  1  0  0  0
  4  5  2  0  0  0
  7  8  2  0  0  0
  7  9  1  0  0  0
  7 10  2  0  0  0
  5  6  1  0  0  0
  6 17  1  0  0  0
 17 18  2  0  0  0
 17 19  2  0  0  0
 17 20  1  0  0  0
 20 22  1  0  0  0
 22 23  1  0  0  0
 23 24  1  0  0  0
 24 25  1  0  0  0
 24 29  2  0  0  0
 25 26  2  0  0  0
 26 27  1  0  0  0
 27 28  2  0  0  0
 28 29  1  0  0  0
 15 16  1  0  0  0
  9 11  1  0  0  0
  9 12  1  0  0  0
 20 21  1  0  0  0
M  END
> <minimizedAffinity>
-7.86057

$$$$
5AMD_45I_A_266


 29 30  0  0  0  0  0  0  0  0999 V2000
   -4.6178    2.8725   13.3385 C   0  0  0  0  0  0  0  0  0  0  0  0
   -4.3313    1.5427   13.6012 C   0  0  0  0  0  0  0  0  0  0  0  0
   -4.7816    0.9167   14.7801 C   0  0  0  0  0  0  0  0  0  0  0  0
   -5.5700    1.6067   15.7454 C   0  0  0  0  0  0  0  0  0  0  0  0
   -5.8860    2.9499   15.4661 C   0  0  0  0  0  0  0  0  0  0  0  0
   -5.4709    3.6116   14.2918 C   0  0  0  0  0  0  0  0  0  0  0  0
   -6.1618    0.9248   17.1594 S   0  0  0  0  0  0  0  0  0  0  0  0
   -5.6122    1.6605   18.2745 O   0  0  0  0  0  0  0  0  0  0  0  0
   -7.7296    1.0497   17.1591 N   0  0  0  0  0  0  0  0  0  0  0  0
   -5.8470   -0.4518   17.1421 O   0  0  0  0  0  0  0  0  0  0  0  0
   -7.9922    2.0352   17.1714 H   0  0  0  0  0  0  0  0  0  0  0  0
   -8.1077    0.5867   17.9856 H   0  0  0  0  0  0  0  0  0  0  0  0
   -3.0130    3.8687   11.8799 O   0  0  0  0  0  0  0  0  0  0  0  0
   -4.1527    3.4709   12.0688 C   0  0  0  0  0  0  0  0  0  0  0  0
   -5.0610    3.6434   11.1587 O   0  0  0  0  0  0  0  0  0  0  0  0
   -5.9346    3.3378   11.3049 H   0  0  0  0  0  0  0  0  0  0  0  0
   -5.8215    5.1912   14.0529 S   0  0  0  0  0  0  0  0  0  0  0  0
   -6.1645    5.8087   15.2831 O   0  0  0  0  0  0  0  0  0  0  0  0
   -6.5984    5.5592   12.8876 O   0  0  0  0  0  0  0  0  0  0  0  0
   -4.4526    5.8926   13.6279 N   0  0  0  0  0  0  0  0  0  0  0  0
   -4.7003    6.7598   13.1515 H   0  0  0  0  0  0  0  0  0  0  0  0
   -3.4635    6.2389   14.6537 C   0  0  0  0  0  0  0  0  0  0  0  0
   -2.0885    6.5219   14.0570 C   0  0  0  0  0  0  0  0  0  0  0  0
   -1.8020    7.9918   14.0284 C   0  0  0  0  0  0  0  0  0  0  0  0
   -1.2830    8.6158   15.1620 C   0  0  0  0  0  0  0  0  0  0  0  0
   -1.0163    9.9890   15.1336 C   0  0  0  0  0  0  0  0  0  0  0  0
   -1.2477   10.7263   13.9654 C   0  0  0  0  0  0  0  0  0  0  0  0
   -1.7730   10.0925   12.8287 C   0  0  0  0  0  0  0  0  0  0  0  0
   -2.0384    8.7227   12.8597 C   0  0  0  0  0  0  0  0  0  0  0  0
 13 14  2  0  0  0
 14 15  1  0  0  0
 14  1  1  0  0  0
  1  2  1  0  0  0
  1  6  2  0  0  0
  2  3  2  0  0  0
  3  4  1  0  0  0
  4  7  1  0  0  0
  4  5  2  0  0  0
  7  8  2  0  0  0
  7  9  1  0  0  0
  7 10  2  0  0  0
  5  6  1  0  0  0
  6 17  1  0  0  0
 17 18  2  0  0  0
 17 19  2  0  0  0
 17 20  1  0  0  0
 20 22  1  0  0  0
 22 23  1  0  0  0
 23 24  1  0  0  0
 24 25  1  0  0  0
 24 29  2  0  0  0
 25 26  2  0  0  0
 26 27  1  0  0  0
 27 28  2  0  0  0
 28 29  1  0  0  0
 15 16  1  0  0  0
  9 11  1  0  0  0
  9 12  1  0  0  0
 20 21  1  0  0  0
M  END
> <minimizedAffinity>
-7.82943

$$$$
5AMD_45I_A_266


 29 30  0  0  0  0  0  0  0  0999 V2000
   -5.5266    4.5910   14.0670 C   0  0  0  0  0  0  0  0  0  0  0  0
   -6.2805    4.9423   15.1751 C   0  0  0  0  0  0  0  0  0  0  0  0
   -6.5904    4.0015   16.1768 C   0  0  0  0  0  0  0  0  0  0  0  0
   -6.1277    2.6556   16.1153 C   0  0  0  0  0  0  0  0  0  0  0  0
   -5.3376    2.3047   15.0041 C   0  0  0  0  0  0  0  0  0  0  0  0
   -4.9891    3.2172   13.9868 C   0  0  0  0  0  0  0  0  0  0  0  0
   -6.4348    1.4856   17.2778 S   0  0  0  0  0  0  0  0  0  0  0  0
   -7.7120    0.8812   16.9772 O   0  0  0  0  0  0  0  0  0  0  0  0
   -5.3007    0.3983   17.2076 N   0  0  0  0  0  0  0  0  0  0  0  0
   -6.3523    2.1018   18.5458 O   0  0  0  0  0  0  0  0  0  0  0  0
   -5.3322   -0.0677   16.3008 H   0  0  0  0  0  0  0  0  0  0  0  0
   -5.4421   -0.2887   17.9481 H   0  0  0  0  0  0  0  0  0  0  0  0
   -4.2259    6.3618   13.1356 O   0  0  0  0  0  0  0  0  0  0  0  0
   -5.1986    5.6260   13.0632 C   0  0  0  0  0  0  0  0  0  0  0  0
   -6.0660    5.7863   12.1119 O   0  0  0  0  0  0  0  0  0  0  0  0
   -6.8115    5.2212   12.0576 H   0  0  0  0  0  0  0  0  0  0  0  0
   -4.1163    2.7327   12.6911 S   0  0  0  0  0  0  0  0  0  0  0  0
   -4.7288    3.1800   11.4924 O   0  0  0  0  0  0  0  0  0  0  0  0
   -3.5599    1.3958   12.6919 O   0  0  0  0  0  0  0  0  0  0  0  0
   -2.7398    3.5375   12.7545 N   0  0  0  0  0  0  0  0  0  0  0  0
   -2.0534    2.9161   13.1825 H   0  0  0  0  0  0  0  0  0  0  0  0
   -2.1381    4.0483   11.5185 C   0  0  0  0  0  0  0  0  0  0  0  0
   -0.7336    4.5987   11.7452 C   0  0  0  0  0  0  0  0  0  0  0  0
    0.1115    4.4502   10.5176 C   0  0  0  0  0  0  0  0  0  0  0  0
   -0.4042    4.8194    9.2760 C   0  0  0  0  0  0  0  0  0  0  0  0
    0.3866    4.6797    8.1303 C   0  0  0  0  0  0  0  0  0  0  0  0
    1.6963    4.1939    8.2346 C   0  0  0  0  0  0  0  0  0  0  0  0
    2.2081    3.8214    9.4872 C   0  0  0  0  0  0  0  0  0  0  0  0
    1.4172    3.9615   10.6284 C   0  0  0  0  0  0  0  0  0  0  0  0
 13 14  2  0  0  0
 14 15  1  0  0  0
 14  1  1  0  0  0
  1  2  1  0  0  0
  1  6  2  0  0  0
  2  3  2  0  0  0
  3  4  1  0  0  0
  4  7  1  0  0  0
  4  5  2  0  0  0
  7  8  2  0  0  0
  7  9  1  0  0  0
  7 10  2  0  0  0
  5  6  1  0  0  0
  6 17  1  0  0  0
 17 18  2  0  0  0
 17 19  2  0  0  0
 17 20  1  0  0  0
 20 22  1  0  0  0
 22 23  1  0  0  0
 23 24  1  0  0  0
 24 25  1  0  0  0
 24 29  2  0  0  0
 25 26  2  0  0  0
 26 27  1  0  0  0
 27 28  2  0  0  0
 28 29  1  0  0  0
 15 16  1  0  0  0
  9 11  1  0  0  0
  9 12  1  0  0  0
 20 21  1  0  0  0
M  END
> <minimizedAffinity>
-7.72022

$$$$
5AMD_45I_A_266


 29 30  0  0  0  0  0  0  0  0999 V2000
   -5.6107    4.7780   13.7238 C   0  0  0  0  0  0  0  0  0  0  0  0
   -6.3620    4.9767   14.8707 C   0  0  0  0  0  0  0  0  0  0  0  0
   -6.4636    3.9792   15.8603 C   0  0  0  0  0  0  0  0  0  0  0  0
   -5.7843    2.7323   15.7454 C   0  0  0  0  0  0  0  0  0  0  0  0
   -4.9976    2.5402   14.5938 C   0  0  0  0  0  0  0  0  0  0  0  0
   -4.8540    3.5166   13.5863 C   0  0  0  0  0  0  0  0  0  0  0  0
   -5.8373    1.5065   16.8896 S   0  0  0  0  0  0  0  0  0  0  0  0
   -4.5339    0.8857   16.9402 O   0  0  0  0  0  0  0  0  0  0  0  0
   -6.1811    2.1392   18.2877 N   0  0  0  0  0  0  0  0  0  0  0  0
   -6.8966    0.6379   16.5462 O   0  0  0  0  0  0  0  0  0  0  0  0
   -5.4333    2.7744   18.5666 H   0  0  0  0  0  0  0  0  0  0  0  0
   -6.2746    1.3983   18.9825 H   0  0  0  0  0  0  0  0  0  0  0  0
   -4.6716    6.7613   12.7858 O   0  0  0  0  0  0  0  0  0  0  0  0
   -5.5073    5.8715   12.7337 C   0  0  0  0  0  0  0  0  0  0  0  0
   -6.4298    5.8981   11.8220 O   0  0  0  0  0  0  0  0  0  0  0  0
   -7.0700    5.2150   11.7833 H   0  0  0  0  0  0  0  0  0  0  0  0
   -3.9716    3.2102   12.2436 S   0  0  0  0  0  0  0  0  0  0  0  0
   -4.8037    3.2312   11.0949 O   0  0  0  0  0  0  0  0  0  0  0  0
   -2.9522    2.1836   12.3046 O   0  0  0  0  0  0  0  0  0  0  0  0
   -3.0025    4.4633   12.0512 N   0  0  0  0  0  0  0  0  0  0  0  0
   -3.5366    5.2927   12.3106 H   0  0  0  0  0  0  0  0  0  0  0  0
   -1.7372    4.5246   12.7900 C   0  0  0  0  0  0  0  0  0  0  0  0
   -1.8864    5.2346   14.1318 C   0  0  0  0  0  0  0  0  0  0  0  0
   -1.6316    6.7046   13.9987 C   0  0  0  0  0  0  0  0  0  0  0  0
   -2.1469    7.5832   14.9505 C   0  0  0  0  0  0  0  0  0  0  0  0
   -1.9081    8.9561   14.8245 C   0  0  0  0  0  0  0  0  0  0  0  0
   -1.1360    9.4408   13.7610 C   0  0  0  0  0  0  0  0  0  0  0  0
   -0.6227    8.5511   12.8047 C   0  0  0  0  0  0  0  0  0  0  0  0
   -0.8625    7.1822   12.9327 C   0  0  0  0  0  0  0  0  0  0  0  0
 13 14  2  0  0  0
 14 15  1  0  0  0
 14  1  1  0  0  0
  1  2  1  0  0  0
  1  6  2  0  0  0
  2  3  2  0  0  0
  3  4  1  0  0  0
  4  7  1  0  0  0
  4  5  2  0  0  0
  7  8  2  0  0  0
  7  9  1  0  0  0
  7 10  2  0  0  0
  5  6  1  0  0  0
  6 17  1  0  0  0
 17 18  2  0  0  0
 17 19  2  0  0  0
 17 20  1  0  0  0
 20 22  1  0  0  0
 22 23  1  0  0  0
 23 24  1  0  0  0
 24 25  1  0  0  0
 24 29  2  0  0  0
 25 26  2  0  0  0
 26 27  1  0  0  0
 27 28  2  0  0  0
 28 29  1  0  0  0
 15 16  1  0  0  0
  9 11  1  0  0  0
  9 12  1  0  0  0
 20 21  1  0  0  0
M  END
> <minimizedAffinity>
-7.63661

$$$$
5AMD_45I_A_266


 29 30  0  0  0  0  0  0  0  0999 V2000
   -5.5113    4.5874   14.0752 C   0  0  0  0  0  0  0  0  0  0  0  0
   -6.2965    4.8750   15.1799 C   0  0  0  0  0  0  0  0  0  0  0  0
   -6.6013    3.8877   16.1374 C   0  0  0  0  0  0  0  0  0  0  0  0
   -6.1016    2.5577   16.0332 C   0  0  0  0  0  0  0  0  0  0  0  0
   -5.2802    2.2715   14.9262 C   0  0  0  0  0  0  0  0  0  0  0  0
   -4.9358    3.2322   13.9528 C   0  0  0  0  0  0  0  0  0  0  0  0
   -6.4007    1.3351   17.1425 S   0  0  0  0  0  0  0  0  0  0  0  0
   -7.7600    0.8837   16.9546 O   0  0  0  0  0  0  0  0  0  0  0  0
   -5.4029    0.1513   16.8661 N   0  0  0  0  0  0  0  0  0  0  0  0
   -6.1139    1.8382   18.4305 O   0  0  0  0  0  0  0  0  0  0  0  0
   -5.5835   -0.2364   15.9401 H   0  0  0  0  0  0  0  0  0  0  0  0
   -5.5337   -0.5750   17.5702 H   0  0  0  0  0  0  0  0  0  0  0  0
   -4.2465    6.4341   13.2473 O   0  0  0  0  0  0  0  0  0  0  0  0
   -5.1909    5.6694   13.1196 C   0  0  0  0  0  0  0  0  0  0  0  0
   -6.0361    5.8360   12.1497 O   0  0  0  0  0  0  0  0  0  0  0  0
   -6.7599    5.2488   12.0530 H   0  0  0  0  0  0  0  0  0  0  0  0
   -4.0244    2.8221   12.6580 S   0  0  0  0  0  0  0  0  0  0  0  0
   -4.6534    3.2499   11.4606 O   0  0  0  0  0  0  0  0  0  0  0  0
   -3.3875    1.5217   12.6438 O   0  0  0  0  0  0  0  0  0  0  0  0
   -2.7002    3.7083   12.7460 N   0  0  0  0  0  0  0  0  0  0  0  0
   -2.1015    3.2760   13.4497 H   0  0  0  0  0  0  0  0  0  0  0  0
   -1.8757    3.9051   11.5494 C   0  0  0  0  0  0  0  0  0  0  0  0
   -1.8089    5.3701   11.1295 C   0  0  0  0  0  0  0  0  0  0  0  0
   -2.5769    5.6074    9.8657 C   0  0  0  0  0  0  0  0  0  0  0  0
   -2.3694    4.7762    8.7658 C   0  0  0  0  0  0  0  0  0  0  0  0
   -3.0875    4.9995    7.5860 C   0  0  0  0  0  0  0  0  0  0  0  0
   -4.0259    6.0374    7.5195 C   0  0  0  0  0  0  0  0  0  0  0  0
   -4.2277    6.8722    8.6295 C   0  0  0  0  0  0  0  0  0  0  0  0
   -3.5100    6.6475    9.8050 C   0  0  0  0  0  0  0  0  0  0  0  0
 13 14  2  0  0  0
 14 15  1  0  0  0
 14  1  1  0  0  0
  1  2  1  0  0  0
  1  6  2  0  0  0
  2  3  2  0  0  0
  3  4  1  0  0  0
  4  7  1  0  0  0
  4  5  2  0  0  0
  7  8  2  0  0  0
  7  9  1  0  0  0
  7 10  2  0  0  0
  5  6  1  0  0  0
  6 17  1  0  0  0
 17 18  2  0  0  0
 17 19  2  0  0  0
 17 20  1  0  0  0
 20 22  1  0  0  0
 22 23  1  0  0  0
 23 24  1  0  0  0
 24 25  1  0  0  0
 24 29  2  0  0  0
 25 26  2  0  0  0
 26 27  1  0  0  0
 27 28  2  0  0  0
 28 29  1  0  0  0
 15 16  1  0  0  0
  9 11  1  0  0  0
  9 12  1  0  0  0
 20 21  1  0  0  0
M  END
> <minimizedAffinity>
-7.55556

$$$$
5AMD_45I_A_266


 29 30  0  0  0  0  0  0  0  0999 V2000
   -3.7771    5.9048   10.8260 C   0  0  0  0  0  0  0  0  0  0  0  0
   -2.9493    6.9140   10.3616 C   0  0  0  0  0  0  0  0  0  0  0  0
   -1.5576    6.7255   10.2515 C   0  0  0  0  0  0  0  0  0  0  0  0
   -0.9361    5.4882   10.5865 C   0  0  0  0  0  0  0  0  0  0  0  0
   -1.7797    4.4526   11.0315 C   0  0  0  0  0  0  0  0  0  0  0  0
   -3.1788    4.5913   11.1415 C   0  0  0  0  0  0  0  0  0  0  0  0
    0.7082    5.1799   10.4605 S   0  0  0  0  0  0  0  0  0  0  0  0
    1.3117    5.4407   11.7468 O   0  0  0  0  0  0  0  0  0  0  0  0
    0.9074    3.6683   10.0748 N   0  0  0  0  0  0  0  0  0  0  0  0
    1.2153    5.9584    9.3969 O   0  0  0  0  0  0  0  0  0  0  0  0
    0.5503    3.0762   10.8245 H   0  0  0  0  0  0  0  0  0  0  0  0
    1.9005    3.4807    9.9370 H   0  0  0  0  0  0  0  0  0  0  0  0
   -5.7813    6.8113   11.7515 O   0  0  0  0  0  0  0  0  0  0  0  0
   -5.2354    6.1422   10.8873 C   0  0  0  0  0  0  0  0  0  0  0  0
   -5.9480    5.5152   10.0030 O   0  0  0  0  0  0  0  0  0  0  0  0
   -5.5280    5.0024    9.3408 H   0  0  0  0  0  0  0  0  0  0  0  0
   -4.0980    3.3686   11.7207 S   0  0  0  0  0  0  0  0  0  0  0  0
   -3.3172    2.5148   12.5416 O   0  0  0  0  0  0  0  0  0  0  0  0
   -5.0545    2.7411   10.8329 O   0  0  0  0  0  0  0  0  0  0  0  0
   -5.1434    4.0341   12.7260 N   0  0  0  0  0  0  0  0  0  0  0  0
   -5.9647    3.4294   12.7414 H   0  0  0  0  0  0  0  0  0  0  0  0
   -4.7619    4.2684   14.1224 C   0  0  0  0  0  0  0  0  0  0  0  0
   -5.9568    4.1916   15.0676 C   0  0  0  0  0  0  0  0  0  0  0  0
   -5.9604    2.9043   15.8333 C   0  0  0  0  0  0  0  0  0  0  0  0
   -7.0214    2.6140   16.6899 C   0  0  0  0  0  0  0  0  0  0  0  0
   -7.0231    1.4112   17.4046 C   0  0  0  0  0  0  0  0  0  0  0  0
   -5.9762    0.4948   17.2416 C   0  0  0  0  0  0  0  0  0  0  0  0
   -4.9099    0.7946   16.3798 C   0  0  0  0  0  0  0  0  0  0  0  0
   -4.9106    1.9952   15.6683 C   0  0  0  0  0  0  0  0  0  0  0  0
 13 14  2  0  0  0
 14 15  1  0  0  0
 14  1  1  0  0  0
  1  2  1  0  0  0
  1  6  2  0  0  0
  2  3  2  0  0  0
  3  4  1  0  0  0
  4  7  1  0  0  0
  4  5  2  0  0  0
  7  8  2  0  0  0
  7  9  1  0  0  0
  7 10  2  0  0  0
  5  6  1  0  0  0
  6 17  1  0  0  0
 17 18  2  0  0  0
 17 19  2  0  0  0
 17 20  1  0  0  0
 20 22  1  0  0  0
 22 23  1  0  0  0
 23 24  1  0  0  0
 24 25  1  0  0  0
 24 29  2  0  0  0
 25 26  2  0  0  0
 26 27  1  0  0  0
 27 28  2  0  0  0
 28 29  1  0  0  0
 15 16  1  0  0  0
  9 11  1  0  0  0
  9 12  1  0  0  0
 20 21  1  0  0  0
M  END
> <minimizedAffinity>
-7.42710

$$$$
5AMD_45I_A_266


 29 30  0  0  0  0  0  0  0  0999 V2000
   -1.8083    4.9318   10.4776 C   0  0  0  0  0  0  0  0  0  0  0  0
   -1.4445    4.2446   11.6243 C   0  0  0  0  0  0  0  0  0  0  0  0
   -2.3246    3.3341   12.2414 C   0  0  0  0  0  0  0  0  0  0  0  0
   -3.6163    3.0562   11.7088 C   0  0  0  0  0  0  0  0  0  0  0  0
   -3.9763    3.7325   10.5276 C   0  0  0  0  0  0  0  0  0  0  0  0
   -3.1216    4.6393    9.8672 C   0  0  0  0  0  0  0  0  0  0  0  0
   -4.7098    1.9703   12.3718 S   0  0  0  0  0  0  0  0  0  0  0  0
   -5.5952    2.7048   13.2455 O   0  0  0  0  0  0  0  0  0  0  0  0
   -5.5356    1.3140   11.2053 N   0  0  0  0  0  0  0  0  0  0  0  0
   -3.9734    0.9418   12.9997 O   0  0  0  0  0  0  0  0  0  0  0  0
   -6.0811    2.0322   10.7290 H   0  0  0  0  0  0  0  0  0  0  0  0
   -6.1641    0.6082   11.5890 H   0  0  0  0  0  0  0  0  0  0  0  0
    0.0227    5.4917    9.0531 O   0  0  0  0  0  0  0  0  0  0  0  0
   -0.8331    5.8484    9.8488 C   0  0  0  0  0  0  0  0  0  0  0  0
   -0.8679    7.0788   10.2585 O   0  0  0  0  0  0  0  0  0  0  0  0
   -1.5248    7.3510   10.8688 H   0  0  0  0  0  0  0  0  0  0  0  0
   -3.6210    5.4375    8.5297 S   0  0  0  0  0  0  0  0  0  0  0  0
   -3.7745    4.5329    7.4478 O   0  0  0  0  0  0  0  0  0  0  0  0
   -3.0362    6.7291    8.2356 O   0  0  0  0  0  0  0  0  0  0  0  0
   -5.1043    5.9391    8.8375 N   0  0  0  0  0  0  0  0  0  0  0  0
   -5.5681    5.1914    9.3536 H   0  0  0  0  0  0  0  0  0  0  0  0
   -5.3110    7.1739    9.6009 C   0  0  0  0  0  0  0  0  0  0  0  0
   -6.0169    6.9198   10.9291 C   0  0  0  0  0  0  0  0  0  0  0  0
   -5.0321    6.7882   12.0499 C   0  0  0  0  0  0  0  0  0  0  0  0
   -3.8364    7.5035   12.0053 C   0  0  0  0  0  0  0  0  0  0  0  0
   -2.9174    7.3792   13.0531 C   0  0  0  0  0  0  0  0  0  0  0  0
   -3.2090    6.5589   14.1505 C   0  0  0  0  0  0  0  0  0  0  0  0
   -4.4133    5.8394   14.1877 C   0  0  0  0  0  0  0  0  0  0  0  0
   -5.3280    5.9650   13.1412 C   0  0  0  0  0  0  0  0  0  0  0  0
 13 14  2  0  0  0
 14 15  1  0  0  0
 14  1  1  0  0  0
  1  2  1  0  0  0
  1  6  2  0  0  0
  2  3  2  0  0  0
  3  4  1  0  0  0
  4  7  1  0  0  0
  4  5  2  0  0  0
  7  8  2  0  0  0
  7  9  1  0  0  0
  7 10  2  0  0  0
  5  6  1  0  0  0
  6 17  1  0  0  0
 17 18  2  0  0  0
 17 19  2  0  0  0
 17 20  1  0  0  0
 20 22  1  0  0  0
 22 23  1  0  0  0
 23 24  1  0  0  0
 24 25  1  0  0  0
 24 29  2  0  0  0
 25 26  2  0  0  0
 26 27  1  0  0  0
 27 28  2  0  0  0
 28 29  1  0  0  0
 15 16  1  0  0  0
  9 11  1  0  0  0
  9 12  1  0  0  0
 20 21  1  0  0  0
M  END
> <minimizedAffinity>
-7.39336

$$$$
5AMD_45I_A_266


 29 30  0  0  0  0  0  0  0  0999 V2000
   -6.0454    6.4549   11.5882 C   0  0  0  0  0  0  0  0  0  0  0  0
   -6.9006    7.4581   11.1618 C   0  0  0  0  0  0  0  0  0  0  0  0
   -7.0385    7.7694    9.7949 C   0  0  0  0  0  0  0  0  0  0  0  0
   -6.3291    7.0579    8.7849 C   0  0  0  0  0  0  0  0  0  0  0  0
   -5.4813    6.0194    9.2148 C   0  0  0  0  0  0  0  0  0  0  0  0
   -5.3252    5.6626   10.5703 C   0  0  0  0  0  0  0  0  0  0  0  0
   -6.4575    7.3538    7.1386 S   0  0  0  0  0  0  0  0  0  0  0  0
   -7.6859    8.0785    6.9091 O   0  0  0  0  0  0  0  0  0  0  0  0
   -5.2304    8.2286    6.6885 N   0  0  0  0  0  0  0  0  0  0  0  0
   -6.3633    6.1153    6.4665 O   0  0  0  0  0  0  0  0  0  0  0  0
   -5.2680    9.1337    7.1573 H   0  0  0  0  0  0  0  0  0  0  0  0
   -5.2639    8.3672    5.6786 H   0  0  0  0  0  0  0  0  0  0  0  0
   -6.8926    5.6849   13.6821 O   0  0  0  0  0  0  0  0  0  0  0  0
   -5.9657    6.1435   13.0315 C   0  0  0  0  0  0  0  0  0  0  0  0
   -4.8572    6.4713   13.6204 O   0  0  0  0  0  0  0  0  0  0  0  0
   -4.1471    6.8229   13.1202 H   0  0  0  0  0  0  0  0  0  0  0  0
   -4.2799    4.4840   11.0103 S   0  0  0  0  0  0  0  0  0  0  0  0
   -3.1275    5.0508   11.6129 O   0  0  0  0  0  0  0  0  0  0  0  0
   -4.0760    3.3681   10.1103 O   0  0  0  0  0  0  0  0  0  0  0  0
   -4.9874    3.6790   12.1927 N   0  0  0  0  0  0  0  0  0  0  0  0
   -5.7222    3.1139   11.7672 H   0  0  0  0  0  0  0  0  0  0  0  0
   -4.1943    2.7795   13.0367 C   0  0  0  0  0  0  0  0  0  0  0  0
   -4.0742    3.2891   14.4694 C   0  0  0  0  0  0  0  0  0  0  0  0
   -4.9764    2.5292   15.3925 C   0  0  0  0  0  0  0  0  0  0  0  0
   -6.2083    3.0721   15.7550 C   0  0  0  0  0  0  0  0  0  0  0  0
   -7.0497    2.3610   16.6176 C   0  0  0  0  0  0  0  0  0  0  0  0
   -6.6655    1.1011   17.0944 C   0  0  0  0  0  0  0  0  0  0  0  0
   -5.4228    0.5618   16.7278 C   0  0  0  0  0  0  0  0  0  0  0  0
   -4.5854    1.2732   15.8674 C   0  0  0  0  0  0  0  0  0  0  0  0
 13 14  2  0  0  0
 14 15  1  0  0  0
 14  1  1  0  0  0
  1  2  1  0  0  0
  1  6  2  0  0  0
  2  3  2  0  0  0
  3  4  1  0  0  0
  4  7  1  0  0  0
  4  5  2  0  0  0
  7  8  2  0  0  0
  7  9  1  0  0  0
  7 10  2  0  0  0
  5  6  1  0  0  0
  6 17  1  0  0  0
 17 18  2  0  0  0
 17 19  2  0  0  0
 17 20  1  0  0  0
 20 22  1  0  0  0
 22 23  1  0  0  0
 23 24  1  0  0  0
 24 25  1  0  0  0
 24 29  2  0  0  0
 25 26  2  0  0  0
 26 27  1  0  0  0
 27 28  2  0  0  0
 28 29  1  0  0  0
 15 16  1  0  0  0
  9 11  1  0  0  0
  9 12  1  0  0  0
 20 21  1  0  0  0
M  END
> <minimizedAffinity>
-7.26772

$$$$
5AMD_45I_A_266


 29 30  0  0  0  0  0  0  0  0999 V2000
   -3.8699    3.3632   11.3057 C   0  0  0  0  0  0  0  0  0  0  0  0
   -4.9979    2.5795   11.4873 C   0  0  0  0  0  0  0  0  0  0  0  0
   -5.2336    1.9078   12.7030 C   0  0  0  0  0  0  0  0  0  0  0  0
   -4.3431    2.0180   13.8095 C   0  0  0  0  0  0  0  0  0  0  0  0
   -3.2111    2.8369   13.6359 C   0  0  0  0  0  0  0  0  0  0  0  0
   -2.9439    3.5405   12.4432 C   0  0  0  0  0  0  0  0  0  0  0  0
   -4.5664    1.2690   15.2939 S   0  0  0  0  0  0  0  0  0  0  0  0
   -3.4771    1.6580   16.1593 O   0  0  0  0  0  0  0  0  0  0  0  0
   -5.9316    1.7580   15.9026 N   0  0  0  0  0  0  0  0  0  0  0  0
   -4.6781   -0.1203   15.0665 O   0  0  0  0  0  0  0  0  0  0  0  0
   -5.8849    2.7614   16.0797 H   0  0  0  0  0  0  0  0  0  0  0  0
   -6.1090    1.2661   16.7784 H   0  0  0  0  0  0  0  0  0  0  0  0
   -4.4344    4.9575    9.6221 O   0  0  0  0  0  0  0  0  0  0  0  0
   -3.6890    4.0764   10.0230 C   0  0  0  0  0  0  0  0  0  0  0  0
   -2.7204    3.6520    9.2717 O   0  0  0  0  0  0  0  0  0  0  0  0
   -2.1495    2.9762    9.5805 H   0  0  0  0  0  0  0  0  0  0  0  0
   -1.5805    4.4298   12.2837 S   0  0  0  0  0  0  0  0  0  0  0  0
   -0.6403    3.7444   11.4723 O   0  0  0  0  0  0  0  0  0  0  0  0
   -1.0693    5.1275   13.4451 O   0  0  0  0  0  0  0  0  0  0  0  0
   -1.9827    5.7123   11.4233 N   0  0  0  0  0  0  0  0  0  0  0  0
   -2.8133    5.4603   10.8877 H   0  0  0  0  0  0  0  0  0  0  0  0
   -2.2816    6.9781   12.1005 C   0  0  0  0  0  0  0  0  0  0  0  0
   -3.7558    7.3555   11.9937 C   0  0  0  0  0  0  0  0  0  0  0  0
   -4.5779    6.6223   13.0086 C   0  0  0  0  0  0  0  0  0  0  0  0
   -5.8319    6.1273   12.6534 C   0  0  0  0  0  0  0  0  0  0  0  0
   -6.5987    5.4429   13.6028 C   0  0  0  0  0  0  0  0  0  0  0  0
   -6.0983    5.2367   14.8947 C   0  0  0  0  0  0  0  0  0  0  0  0
   -4.8364    5.7402   15.2465 C   0  0  0  0  0  0  0  0  0  0  0  0
   -4.0737    6.4227   14.2977 C   0  0  0  0  0  0  0  0  0  0  0  0
 13 14  2  0  0  0
 14 15  1  0  0  0
 14  1  1  0  0  0
  1  2  1  0  0  0
  1  6  2  0  0  0
  2  3  2  0  0  0
  3  4  1  0  0  0
  4  7  1  0  0  0
  4  5  2  0  0  0
  7  8  2  0  0  0
  7  9  1  0  0  0
  7 10  2  0  0  0
  5  6  1  0  0  0
  6 17  1  0  0  0
 17 18  2  0  0  0
 17 19  2  0  0  0
 17 20  1  0  0  0
 20 22  1  0  0  0
 22 23  1  0  0  0
 23 24  1  0  0  0
 24 25  1  0  0  0
 24 29  2  0  0  0
 25 26  2  0  0  0
 26 27  1  0  0  0
 27 28  2  0  0  0
 28 29  1  0  0  0
 15 16  1  0  0  0
  9 11  1  0  0  0
  9 12  1  0  0  0
 20 21  1  0  0  0
M  END
> <minimizedAffinity>
-7.09923

$$$$
5AMD_45I_A_266


 29 30  0  0  0  0  0  0  0  0999 V2000
   -2.3611    4.7057   11.4300 C   0  0  0  0  0  0  0  0  0  0  0  0
   -2.5891    4.8682   10.0731 C   0  0  0  0  0  0  0  0  0  0  0  0
   -3.7336    5.5389    9.5991 C   0  0  0  0  0  0  0  0  0  0  0  0
   -4.6972    6.1024   10.4842 C   0  0  0  0  0  0  0  0  0  0  0  0
   -4.4522    5.9629   11.8635 C   0  0  0  0  0  0  0  0  0  0  0  0
   -3.3126    5.3142   12.3825 C   0  0  0  0  0  0  0  0  0  0  0  0
   -6.0706    6.9339    9.9974 S   0  0  0  0  0  0  0  0  0  0  0  0
   -6.9198    7.1095   11.1527 O   0  0  0  0  0  0  0  0  0  0  0  0
   -5.6355    8.3376    9.4373 N   0  0  0  0  0  0  0  0  0  0  0  0
   -6.6572    6.2165    8.9318 O   0  0  0  0  0  0  0  0  0  0  0  0
   -5.2063    8.8836   10.1843 H   0  0  0  0  0  0  0  0  0  0  0  0
   -6.4549    8.8311    9.0831 H   0  0  0  0  0  0  0  0  0  0  0  0
   -1.0707    2.8457   12.1852 O   0  0  0  0  0  0  0  0  0  0  0  0
   -1.1255    4.0262   11.8752 C   0  0  0  0  0  0  0  0  0  0  0  0
   -0.0815    4.7840   12.0124 O   0  0  0  0  0  0  0  0  0  0  0  0
   -0.1250    5.6892   11.7742 H   0  0  0  0  0  0  0  0  0  0  0  0
   -3.1145    5.1337   13.9961 S   0  0  0  0  0  0  0  0  0  0  0  0
   -4.1593    5.7916   14.6947 O   0  0  0  0  0  0  0  0  0  0  0  0
   -1.7793    5.2415   14.5460 O   0  0  0  0  0  0  0  0  0  0  0  0
   -3.3486    3.5855   14.3038 N   0  0  0  0  0  0  0  0  0  0  0  0
   -3.5828    3.5130   15.2939 H   0  0  0  0  0  0  0  0  0  0  0  0
   -4.3787    2.8452   13.5681 C   0  0  0  0  0  0  0  0  0  0  0  0
   -4.6792    1.4906   14.2020 C   0  0  0  0  0  0  0  0  0  0  0  0
   -5.3775    1.6506   15.5173 C   0  0  0  0  0  0  0  0  0  0  0  0
   -6.2192    2.7428   15.7234 C   0  0  0  0  0  0  0  0  0  0  0  0
   -6.8705    2.8909   16.9528 C   0  0  0  0  0  0  0  0  0  0  0  0
   -6.6955    1.9343   17.9610 C   0  0  0  0  0  0  0  0  0  0  0  0
   -5.8446    0.8387   17.7480 C   0  0  0  0  0  0  0  0  0  0  0  0
   -5.1960    0.6936   16.5209 C   0  0  0  0  0  0  0  0  0  0  0  0
 13 14  2  0  0  0
 14 15  1  0  0  0
 14  1  1  0  0  0
  1  2  1  0  0  0
  1  6  2  0  0  0
  2  3  2  0  0  0
  3  4  1  0  0  0
  4  7  1  0  0  0
  4  5  2  0  0  0
  7  8  2  0  0  0
  7  9  1  0  0  0
  7 10  2  0  0  0
  5  6  1  0  0  0
  6 17  1  0  0  0
 17 18  2  0  0  0
 17 19  2  0  0  0
 17 20  1  0  0  0
 20 22  1  0  0  0
 22 23  1  0  0  0
 23 24  1  0  0  0
 24 25  1  0  0  0
 24 29  2  0  0  0
 25 26  2  0  0  0
 26 27  1  0  0  0
 27 28  2  0  0  0
 28 29  1  0  0  0
 15 16  1  0  0  0
  9 11  1  0  0  0
  9 12  1  0  0  0
 20 21  1  0  0  0
M  END
> <minimizedAffinity>
-7.08339

$$$$
