3P7I_P7I_A_313


 11 10  0  0  0  0  0  0  0  0999 V2000
   -6.2506  -21.4059   12.3905 O   0  0  0  0  0  0  0  0  0  0  0  0
   -5.4585  -23.4365   13.8100 O   0  0  0  0  0  0  0  0  0  0  0  0
   -5.1132  -20.9875   14.6677 O   0  0  0  0  0  0  0  0  0  0  0  0
   -5.2058  -21.9909   13.4204 P   0  0  0  0  0  0  0  0  0  0  0  0
   -7.1329  -21.3993   12.7935 H   0  0  0  0  0  0  0  0  0  0  0  0
   -6.3277  -23.5099   14.2343 H   0  0  0  0  0  0  0  0  0  0  0  0
   -3.6038  -21.9934   12.6641 C   0  0  0  0  0  0  0  0  0  0  0  0
   -4.7934  -23.5288   11.1110 N   0  0  0  0  0  0  0  0  0  0  0  0
   -3.6525  -22.6676   11.2488 C   0  0  0  0  0  0  0  0  0  0  0  0
   -4.7923  -23.9485   10.1813 H   0  0  0  0  0  0  0  0  0  0  0  0
   -5.6471  -22.9852   11.2376 H   0  0  0  0  0  0  0  0  0  0  0  0
  8  9  1  0  0  0
  4  1  1  0  0  0
  4  2  1  0  0  0
  3  4  2  0  0  0
  9  7  1  0  0  0
  7  4  1  0  0  0
  8 10  1  0  0  0
  8 11  1  0  0  0
  1  5  1  0  0  0
  2  6  1  0  0  0
M  END
> <minimizedAffinity>
-5.39025

$$$$
3P7I_P7I_A_313


 11 10  0  0  0  0  0  0  0  0999 V2000
   -5.4627  -23.4627   13.8377 O   0  0  0  0  0  0  0  0  0  0  0  0
   -5.0019  -21.0196   14.6023 O   0  0  0  0  0  0  0  0  0  0  0  0
   -6.2468  -21.5056   12.3513 O   0  0  0  0  0  0  0  0  0  0  0  0
   -5.1521  -21.9695   13.4274 P   0  0  0  0  0  0  0  0  0  0  0  0
   -6.3179  -23.5015   14.2937 H   0  0  0  0  0  0  0  0  0  0  0  0
   -5.8301  -20.9956   15.1066 H   0  0  0  0  0  0  0  0  0  0  0  0
   -3.5878  -21.9227   12.5973 C   0  0  0  0  0  0  0  0  0  0  0  0
   -4.7429  -23.5884   11.1565 N   0  0  0  0  0  0  0  0  0  0  0  0
   -3.6717  -22.6329   11.2014 C   0  0  0  0  0  0  0  0  0  0  0  0
   -4.7671  -24.0291   10.2369 H   0  0  0  0  0  0  0  0  0  0  0  0
   -5.6291  -23.1140   11.3296 H   0  0  0  0  0  0  0  0  0  0  0  0
  8  9  1  0  0  0
  4  1  1  0  0  0
  4  2  1  0  0  0
  3  4  2  0  0  0
  9  7  1  0  0  0
  7  4  1  0  0  0
  8 10  1  0  0  0
  8 11  1  0  0  0
  1  5  1  0  0  0
  2  6  1  0  0  0
M  END
> <minimizedAffinity>
-5.31282

$$$$
3P7I_P7I_A_313


 11 10  0  0  0  0  0  0  0  0999 V2000
   -3.3233  -22.0564   10.1523 O   0  0  0  0  0  0  0  0  0  0  0  0
   -1.8141  -23.2820   11.8803 O   0  0  0  0  0  0  0  0  0  0  0  0
   -4.2892  -24.0395   11.4897 O   0  0  0  0  0  0  0  0  0  0  0  0
   -3.2217  -22.8433   11.5180 P   0  0  0  0  0  0  0  0  0  0  0  0
   -3.0536  -22.6372    9.4237 H   0  0  0  0  0  0  0  0  0  0  0  0
   -1.4760  -23.8811   11.1964 H   0  0  0  0  0  0  0  0  0  0  0  0
   -3.7182  -21.7646   12.8327 C   0  0  0  0  0  0  0  0  0  0  0  0
   -6.1993  -21.9240   12.7737 N   0  0  0  0  0  0  0  0  0  0  0  0
   -5.0276  -22.2851   13.5215 C   0  0  0  0  0  0  0  0  0  0  0  0
   -7.0290  -22.2779   13.2498 H   0  0  0  0  0  0  0  0  0  0  0  0
   -6.1446  -22.3293   11.8393 H   0  0  0  0  0  0  0  0  0  0  0  0
  8  9  1  0  0  0
  4  1  1  0  0  0
  4  2  1  0  0  0
  3  4  2  0  0  0
  9  7  1  0  0  0
  7  4  1  0  0  0
  8 10  1  0  0  0
  8 11  1  0  0  0
  1  5  1  0  0  0
  2  6  1  0  0  0
M  END
> <minimizedAffinity>
-5.28344

$$$$
3P7I_P7I_A_313


 11 10  0  0  0  0  0  0  0  0999 V2000
   -4.4152  -24.0207   11.4659 O   0  0  0  0  0  0  0  0  0  0  0  0
   -3.2946  -22.0243   10.2313 O   0  0  0  0  0  0  0  0  0  0  0  0
   -1.9130  -23.5351   11.8627 O   0  0  0  0  0  0  0  0  0  0  0  0
   -3.3262  -22.8770   11.4872 P   0  0  0  0  0  0  0  0  0  0  0  0
   -4.2140  -24.6456   10.7518 H   0  0  0  0  0  0  0  0  0  0  0  0
   -3.0860  -22.5831    9.4663 H   0  0  0  0  0  0  0  0  0  0  0  0
   -3.7133  -21.7491   12.7972 C   0  0  0  0  0  0  0  0  0  0  0  0
   -6.1938  -21.9271   12.8150 N   0  0  0  0  0  0  0  0  0  0  0  0
   -5.0019  -22.2039   13.5669 C   0  0  0  0  0  0  0  0  0  0  0  0
   -7.0092  -22.2352   13.3447 H   0  0  0  0  0  0  0  0  0  0  0  0
   -6.1580  -22.4252   11.9256 H   0  0  0  0  0  0  0  0  0  0  0  0
  8  9  1  0  0  0
  4  1  1  0  0  0
  4  2  1  0  0  0
  3  4  2  0  0  0
  9  7  1  0  0  0
  7  4  1  0  0  0
  8 10  1  0  0  0
  8 11  1  0  0  0
  1  5  1  0  0  0
  2  6  1  0  0  0
M  END
> <minimizedAffinity>
-5.15294

$$$$
3P7I_P7I_A_313


 11 10  0  0  0  0  0  0  0  0999 V2000
   -4.9257  -21.4376   14.8535 O   0  0  0  0  0  0  0  0  0  0  0  0
   -4.2290  -20.4934   12.5321 O   0  0  0  0  0  0  0  0  0  0  0  0
   -6.3768  -21.9680   12.7877 O   0  0  0  0  0  0  0  0  0  0  0  0
   -4.8901  -21.6331   13.2866 P   0  0  0  0  0  0  0  0  0  0  0  0
   -5.4615  -20.6585   15.0700 H   0  0  0  0  0  0  0  0  0  0  0  0
   -4.7199  -19.6722   12.6918 H   0  0  0  0  0  0  0  0  0  0  0  0
   -3.9077  -23.0596   12.9149 C   0  0  0  0  0  0  0  0  0  0  0  0
   -3.2492  -22.3225   10.6328 N   0  0  0  0  0  0  0  0  0  0  0  0
   -3.9118  -23.3581   11.3751 C   0  0  0  0  0  0  0  0  0  0  0  0
   -3.2712  -22.5495    9.6387 H   0  0  0  0  0  0  0  0  0  0  0  0
   -2.2804  -22.2483   10.9433 H   0  0  0  0  0  0  0  0  0  0  0  0
  8  9  1  0  0  0
  4  1  1  0  0  0
  4  2  1  0  0  0
  3  4  2  0  0  0
  9  7  1  0  0  0
  7  4  1  0  0  0
  8 10  1  0  0  0
  8 11  1  0  0  0
  1  5  1  0  0  0
  2  6  1  0  0  0
M  END
> <minimizedAffinity>
-5.05687

$$$$
3P7I_P7I_A_313


 11 10  0  0  0  0  0  0  0  0999 V2000
   -4.2017  -20.6275   12.4785 O   0  0  0  0  0  0  0  0  0  0  0  0
   -6.3050  -22.0337   13.0822 O   0  0  0  0  0  0  0  0  0  0  0  0
   -3.9481  -22.6799   14.0206 O   0  0  0  0  0  0  0  0  0  0  0  0
   -4.8084  -22.0436   12.8262 P   0  0  0  0  0  0  0  0  0  0  0  0
   -4.3157  -20.0321   13.2357 H   0  0  0  0  0  0  0  0  0  0  0  0
   -6.4994  -21.4617   13.8411 H   0  0  0  0  0  0  0  0  0  0  0  0
   -4.5893  -23.1131   11.4310 C   0  0  0  0  0  0  0  0  0  0  0  0
   -2.1594  -22.6756   11.7294 N   0  0  0  0  0  0  0  0  0  0  0  0
   -3.1271  -23.6781   11.3812 C   0  0  0  0  0  0  0  0  0  0  0  0
   -1.2229  -23.0776   11.6864 H   0  0  0  0  0  0  0  0  0  0  0  0
   -2.3424  -22.3404   12.6751 H   0  0  0  0  0  0  0  0  0  0  0  0
  8  9  1  0  0  0
  4  1  1  0  0  0
  4  2  1  0  0  0
  3  4  2  0  0  0
  9  7  1  0  0  0
  7  4  1  0  0  0
  8 10  1  0  0  0
  8 11  1  0  0  0
  1  5  1  0  0  0
  2  6  1  0  0  0
M  END
> <minimizedAffinity>
-4.68733

$$$$
3P7I_P7I_A_313


 11 10  0  0  0  0  0  0  0  0999 V2000
   -1.8913  -23.0695   11.9875 O   0  0  0  0  0  0  0  0  0  0  0  0
   -3.3284  -24.7085   10.5684 O   0  0  0  0  0  0  0  0  0  0  0  0
   -3.4258  -22.1279   10.1401 O   0  0  0  0  0  0  0  0  0  0  0  0
   -3.2288  -23.3258   11.1877 P   0  0  0  0  0  0  0  0  0  0  0  0
   -1.1367  -23.1196   11.3801 H   0  0  0  0  0  0  0  0  0  0  0  0
   -2.6052  -24.8314    9.9337 H   0  0  0  0  0  0  0  0  0  0  0  0
   -4.5917  -23.2295   12.3153 C   0  0  0  0  0  0  0  0  0  0  0  0
   -4.1393  -20.7926   12.5184 N   0  0  0  0  0  0  0  0  0  0  0  0
   -4.4537  -21.9832   13.2574 C   0  0  0  0  0  0  0  0  0  0  0  0
   -4.0574  -20.0050   13.1614 H   0  0  0  0  0  0  0  0  0  0  0  0
   -4.8812  -20.6051   11.8440 H   0  0  0  0  0  0  0  0  0  0  0  0
  8  9  1  0  0  0
  4  1  1  0  0  0
  4  2  1  0  0  0
  3  4  2  0  0  0
  9  7  1  0  0  0
  7  4  1  0  0  0
  8 10  1  0  0  0
  8 11  1  0  0  0
  1  5  1  0  0  0
  2  6  1  0  0  0
M  END
> <minimizedAffinity>
-4.38346

$$$$
3P7I_P7I_A_313


 11 10  0  0  0  0  0  0  0  0999 V2000
   -3.9173  -21.4139   12.5454 O   0  0  0  0  0  0  0  0  0  0  0  0
   -3.3157  -22.0280   10.0905 O   0  0  0  0  0  0  0  0  0  0  0  0
   -5.0433  -23.4561   11.4427 O   0  0  0  0  0  0  0  0  0  0  0  0
   -3.7248  -22.5437   11.4587 P   0  0  0  0  0  0  0  0  0  0  0  0
   -4.6432  -20.8286   12.2782 H   0  0  0  0  0  0  0  0  0  0  0  0
   -4.0048  -21.4373    9.7483 H   0  0  0  0  0  0  0  0  0  0  0  0
   -2.3958  -23.5992   11.9668 C   0  0  0  0  0  0  0  0  0  0  0  0
   -3.0192  -25.1059   10.0891 N   0  0  0  0  0  0  0  0  0  0  0  0
   -1.9134  -24.5046   10.7805 C   0  0  0  0  0  0  0  0  0  0  0  0
   -2.6687  -25.6857    9.3266 H   0  0  0  0  0  0  0  0  0  0  0  0
   -3.6219  -24.3750    9.7110 H   0  0  0  0  0  0  0  0  0  0  0  0
  8  9  1  0  0  0
  4  1  1  0  0  0
  4  2  1  0  0  0
  3  4  2  0  0  0
  9  7  1  0  0  0
  7  4  1  0  0  0
  8 10  1  0  0  0
  8 11  1  0  0  0
  1  5  1  0  0  0
  2  6  1  0  0  0
M  END
> <minimizedAffinity>
-4.11939

$$$$
