2YFA_LMR_A_501
  RCSB PDB12061707363D
Coordinates from PDB:2YFA:A:501 Model:1 without hydrogens
  9  8  0  0  0  0            999 V2000
  -60.1610   27.0270   18.9840   C 0  0  0  0  0  0  0  0  0  0  0  0
  -59.4130   28.0130   18.7570   O 0  0  0  0  0  0  0  0  0  0  0  0
  -59.6910   25.8870   19.2480   O 0  0  0  0  0  0  0  0  0  0  0  0
  -61.6380   27.2250   18.9800   C 0  0  0  0  0  0  0  0  0  0  0  0
  -61.8780   28.5700   19.3340   O 0  0  0  0  0  0  0  0  0  0  0  0
  -62.2050   26.9160   17.5990   C 0  0  0  0  0  0  0  0  0  0  0  0
  -63.6900   27.1770   17.5900   C 0  0  0  0  0  0  0  0  0  0  0  0
  -64.2080   27.8760   16.6900   O 0  0  0  0  0  0  0  0  0  0  0  0
  -64.4240   26.6990   18.4840   O 0  0  0  0  0  0  0  0  0  0  0  0
  1  2  2  0  0  0  0
  1  3  1  0  0  0  0
  1  4  1  0  0  0  0
  4  5  1  0  0  0  0
  4  6  1  0  0  0  0
  6  7  1  0  0  0  0
  7  8  1  0  0  0  0
  7  9  2  0  0  0  0
A    1
C1
A    2
O1A
A    3
O1B
A    4
C2
A    5
O2
A    6
C3
A    7
C4
A    8
O4A
A    9
O4B
M  END
>  <InstanceId>
2YFA_LMR_A_501

>  <ChemCompId>
LMR

>  <PdbId>
2YFA

>  <ChainId>
A

>  <ResidueNumber>
501

>  <InsertionCode>


>  <Model>
1

>  <AltIds>


>  <MissingHeavyAtoms>
0

>  <ObservedFormula>
C4 O5

>  <Name>
(2S)-2-hydroxybutanedioic acid

>  <SystematicName>
(2S)-2-hydroxybutanedioic acid

>  <Synonyms>
L-Malate

>  <Type>
NON-POLYMER

>  <Formula>
C4 H6 O5

>  <MolecularWeight>
134.087

>  <ModifiedDate>
2011-06-04

>  <Parent>


>  <OneLetterCode>


>  <SubcomponentList>


>  <AmbiguousFlag>
N

>  <InChI>
InChI=1S/C4H6O5/c5-2(4(8)9)1-3(6)7/h2,5H,1H2,(H,6,7)(H,8,9)/t2-/m0/s1

>  <InChIKey>
BJEPYKJPYRNKOW-REOHCLBHSA-N

>  <SMILES>
C([C@@H](C(=O)O)O)C(=O)O

$$$$
