4DO5_DGJ_A_509


 16 16  0  0  0  0  0  0  0  0999 V2000
   58.8286   -5.5197   19.2583 C   0  0  0  0  0  0  0  0  0  0  0  0
   58.1131   -4.6397   18.2561 C   0  0  0  0  0  0  0  0  0  0  0  0
   57.0600   -3.8709   18.8364 O   0  0  0  0  0  0  0  0  0  0  0  0
   57.5879   -5.5617   17.1538 C   0  0  0  0  0  0  0  0  0  0  0  0
   56.8396   -4.8066   16.2116 O   0  0  0  0  0  0  0  0  0  0  0  0
   58.7878   -6.2068   16.4896 C   0  0  0  0  0  0  0  0  0  0  0  0
   59.5920   -5.1964   15.8773 O   0  0  0  0  0  0  0  0  0  0  0  0
   59.5992   -7.0053   17.5001 C   0  0  0  0  0  0  0  0  0  0  0  0
   59.9865   -6.2250   18.6906 N   0  0  0  0  0  0  0  0  0  0  0  0
   56.3955   -4.4671   19.2156 H   0  0  0  0  0  0  0  0  0  0  0  0
   57.4037   -4.1163   15.8295 H   0  0  0  0  0  0  0  0  0  0  0  0
   59.9036   -4.5763   16.5551 H   0  0  0  0  0  0  0  0  0  0  0  0
   60.3693   -6.8572   19.3936 H   0  0  0  0  0  0  0  0  0  0  0  0
   60.8649   -7.5482   16.8586 C   0  0  0  0  0  0  0  0  0  0  0  0
   61.9793   -6.6878   17.0708 O   0  0  0  0  0  0  0  0  0  0  0  0
   61.8010   -5.8228   16.6698 H   0  0  0  0  0  0  0  0  0  0  0  0
  9  1  1  0  0  0
  2  1  1  0  0  0
  4  2  1  0  0  0
  2  3  1  0  0  0
  6  4  1  0  0  0
  5  4  1  0  0  0
  7  6  1  0  0  0
  6  8  1  0  0  0
 14  8  1  0  0  0
  8  9  1  0  0  0
 14 15  1  0  0  0
  3 10  1  0  0  0
  5 11  1  0  0  0
  7 12  1  0  0  0
  9 13  1  0  0  0
 15 16  1  0  0  0
M  END
> <minimizedAffinity>
-7.15201

$$$$
4DO5_DGJ_A_509


 16 16  0  0  0  0  0  0  0  0999 V2000
   59.3567   -6.3192   19.2962 C   0  0  0  0  0  0  0  0  0  0  0  0
   58.9439   -6.7671   17.9106 C   0  0  0  0  0  0  0  0  0  0  0  0
   59.7255   -7.8544   17.4169 O   0  0  0  0  0  0  0  0  0  0  0  0
   59.0534   -5.5429   16.9994 C   0  0  0  0  0  0  0  0  0  0  0  0
   58.7482   -5.9108   15.6617 O   0  0  0  0  0  0  0  0  0  0  0  0
   58.0694   -4.5079   17.5068 C   0  0  0  0  0  0  0  0  0  0  0  0
   56.7406   -5.0233   17.4000 O   0  0  0  0  0  0  0  0  0  0  0  0
   58.3860   -4.1223   18.9450 C   0  0  0  0  0  0  0  0  0  0  0  0
   58.4822   -5.2787   19.8557 N   0  0  0  0  0  0  0  0  0  0  0  0
   60.6558   -7.5854   17.3626 H   0  0  0  0  0  0  0  0  0  0  0  0
   57.8506   -6.2766   15.6238 H   0  0  0  0  0  0  0  0  0  0  0  0
   56.6603   -5.8248   17.9405 H   0  0  0  0  0  0  0  0  0  0  0  0
   58.8628   -4.9684   20.7497 H   0  0  0  0  0  0  0  0  0  0  0  0
   57.3273   -3.1785   19.4897 C   0  0  0  0  0  0  0  0  0  0  0  0
   57.1928   -2.0105   18.6866 O   0  0  0  0  0  0  0  0  0  0  0  0
   58.0332   -1.5263   18.6768 H   0  0  0  0  0  0  0  0  0  0  0  0
  9  1  1  0  0  0
  2  1  1  0  0  0
  4  2  1  0  0  0
  2  3  1  0  0  0
  6  4  1  0  0  0
  5  4  1  0  0  0
  7  6  1  0  0  0
  6  8  1  0  0  0
 14  8  1  0  0  0
  8  9  1  0  0  0
 14 15  1  0  0  0
  3 10  1  0  0  0
  5 11  1  0  0  0
  7 12  1  0  0  0
  9 13  1  0  0  0
 15 16  1  0  0  0
M  END
> <minimizedAffinity>
-5.55514

$$$$
4DO5_DGJ_A_509


 16 16  0  0  0  0  0  0  0  0999 V2000
   60.5784   -6.8174   16.2969 C   0  0  0  0  0  0  0  0  0  0  0  0
   60.9406   -7.3697   17.6587 C   0  0  0  0  0  0  0  0  0  0  0  0
   61.7365   -8.5524   17.5904 O   0  0  0  0  0  0  0  0  0  0  0  0
   59.6246   -7.6254   18.3963 C   0  0  0  0  0  0  0  0  0  0  0  0
   59.8894   -8.2150   19.6612 O   0  0  0  0  0  0  0  0  0  0  0  0
   58.9298   -6.2889   18.5647 C   0  0  0  0  0  0  0  0  0  0  0  0
   59.7358   -5.4337   19.3781 O   0  0  0  0  0  0  0  0  0  0  0  0
   58.6574   -5.6484   17.2109 C   0  0  0  0  0  0  0  0  0  0  0  0
   59.8581   -5.5378   16.3611 N   0  0  0  0  0  0  0  0  0  0  0  0
   61.2448   -9.2466   17.1244 H   0  0  0  0  0  0  0  0  0  0  0  0
   60.4550   -7.6234   20.1817 H   0  0  0  0  0  0  0  0  0  0  0  0
   60.5926   -5.2903   18.9465 H   0  0  0  0  0  0  0  0  0  0  0  0
   59.5761   -5.2662   15.4192 H   0  0  0  0  0  0  0  0  0  0  0  0
   58.0731   -4.2571   17.3869 C   0  0  0  0  0  0  0  0  0  0  0  0
   57.2688   -4.1627   18.5579 O   0  0  0  0  0  0  0  0  0  0  0  0
   56.5248   -4.7814   18.4899 H   0  0  0  0  0  0  0  0  0  0  0  0
  9  1  1  0  0  0
  2  1  1  0  0  0
  4  2  1  0  0  0
  2  3  1  0  0  0
  6  4  1  0  0  0
  5  4  1  0  0  0
  7  6  1  0  0  0
  6  8  1  0  0  0
 14  8  1  0  0  0
  8  9  1  0  0  0
 14 15  1  0  0  0
  3 10  1  0  0  0
  5 11  1  0  0  0
  7 12  1  0  0  0
  9 13  1  0  0  0
 15 16  1  0  0  0
M  END
> <minimizedAffinity>
-5.48489

$$$$
4DO5_DGJ_A_509


 16 16  0  0  0  0  0  0  0  0999 V2000
   58.5617   -5.4069   18.7706 C   0  0  0  0  0  0  0  0  0  0  0  0
   58.5116   -4.9508   17.3283 C   0  0  0  0  0  0  0  0  0  0  0  0
   57.4346   -4.0532   17.0613 O   0  0  0  0  0  0  0  0  0  0  0  0
   58.4116   -6.2127   16.4688 C   0  0  0  0  0  0  0  0  0  0  0  0
   58.2874   -5.8532   15.1002 O   0  0  0  0  0  0  0  0  0  0  0  0
   59.6737   -7.0202   16.6968 C   0  0  0  0  0  0  0  0  0  0  0  0
   60.8052   -6.2687   16.2522 O   0  0  0  0  0  0  0  0  0  0  0  0
   59.8164   -7.3947   18.1654 C   0  0  0  0  0  0  0  0  0  0  0  0
   59.7345   -6.2381   19.0773 N   0  0  0  0  0  0  0  0  0  0  0  0
   56.5916   -4.4949   17.2486 H   0  0  0  0  0  0  0  0  0  0  0  0
   59.0571   -5.3268   14.8330 H   0  0  0  0  0  0  0  0  0  0  0  0
   60.8645   -5.4434   16.7584 H   0  0  0  0  0  0  0  0  0  0  0  0
   59.6627   -6.5749   20.0374 H   0  0  0  0  0  0  0  0  0  0  0  0
   61.1411   -8.0970   18.4106 C   0  0  0  0  0  0  0  0  0  0  0  0
   61.7770   -8.4723   17.1932 O   0  0  0  0  0  0  0  0  0  0  0  0
   61.2081   -9.0906   16.7085 H   0  0  0  0  0  0  0  0  0  0  0  0
  9  1  1  0  0  0
  2  1  1  0  0  0
  4  2  1  0  0  0
  2  3  1  0  0  0
  6  4  1  0  0  0
  5  4  1  0  0  0
  7  6  1  0  0  0
  6  8  1  0  0  0
 14  8  1  0  0  0
  8  9  1  0  0  0
 14 15  1  0  0  0
  3 10  1  0  0  0
  5 11  1  0  0  0
  7 12  1  0  0  0
  9 13  1  0  0  0
 15 16  1  0  0  0
M  END
> <minimizedAffinity>
-5.46923

$$$$
4DO5_DGJ_A_509


 16 16  0  0  0  0  0  0  0  0999 V2000
   58.6914   -4.3871   16.9607 C   0  0  0  0  0  0  0  0  0  0  0  0
   57.9020   -4.9296   18.1326 C   0  0  0  0  0  0  0  0  0  0  0  0
   57.0969   -3.9400   18.7724 O   0  0  0  0  0  0  0  0  0  0  0  0
   58.9154   -5.5374   19.1046 C   0  0  0  0  0  0  0  0  0  0  0  0
   58.2458   -6.0036   20.2675 O   0  0  0  0  0  0  0  0  0  0  0  0
   59.6029   -6.6827   18.3886 C   0  0  0  0  0  0  0  0  0  0  0  0
   58.6395   -7.6878   18.0657 O   0  0  0  0  0  0  0  0  0  0  0  0
   60.3096   -6.1880   17.1343 C   0  0  0  0  0  0  0  0  0  0  0  0
   59.4315   -5.4243   16.2279 N   0  0  0  0  0  0  0  0  0  0  0  0
   57.6654   -3.2334   19.1162 H   0  0  0  0  0  0  0  0  0  0  0  0
   57.5845   -6.6670   20.0157 H   0  0  0  0  0  0  0  0  0  0  0  0
   57.9637   -7.3116   17.4803 H   0  0  0  0  0  0  0  0  0  0  0  0
   60.0010   -4.9811   15.5070 H   0  0  0  0  0  0  0  0  0  0  0  0
   60.8929   -7.3547   16.3554 C   0  0  0  0  0  0  0  0  0  0  0  0
   61.6951   -8.1951   17.1784 O   0  0  0  0  0  0  0  0  0  0  0  0
   62.4394   -7.6846   17.5336 H   0  0  0  0  0  0  0  0  0  0  0  0
  9  1  1  0  0  0
  2  1  1  0  0  0
  4  2  1  0  0  0
  2  3  1  0  0  0
  6  4  1  0  0  0
  5  4  1  0  0  0
  7  6  1  0  0  0
  6  8  1  0  0  0
 14  8  1  0  0  0
  8  9  1  0  0  0
 14 15  1  0  0  0
  3 10  1  0  0  0
  5 11  1  0  0  0
  7 12  1  0  0  0
  9 13  1  0  0  0
 15 16  1  0  0  0
M  END
> <minimizedAffinity>
-5.28114

$$$$
4DO5_DGJ_A_509


 16 16  0  0  0  0  0  0  0  0999 V2000
   61.1294   -6.9695   16.6731 C   0  0  0  0  0  0  0  0  0  0  0  0
   59.7089   -6.4472   16.6832 C   0  0  0  0  0  0  0  0  0  0  0  0
   59.5490   -5.2428   15.9344 O   0  0  0  0  0  0  0  0  0  0  0  0
   59.3219   -6.2471   18.1499 C   0  0  0  0  0  0  0  0  0  0  0  0
   58.0189   -5.6873   18.2310 O   0  0  0  0  0  0  0  0  0  0  0  0
   59.3627   -7.6055   18.8211 C   0  0  0  0  0  0  0  0  0  0  0  0
   58.3905   -8.4624   18.2184 O   0  0  0  0  0  0  0  0  0  0  0  0
   60.7546   -8.2137   18.7233 C   0  0  0  0  0  0  0  0  0  0  0  0
   61.2762   -8.2687   17.3446 N   0  0  0  0  0  0  0  0  0  0  0  0
   60.1092   -4.5485   16.3153 H   0  0  0  0  0  0  0  0  0  0  0  0
   57.3852   -6.2788   17.7957 H   0  0  0  0  0  0  0  0  0  0  0  0
   58.5949   -8.5711   17.2764 H   0  0  0  0  0  0  0  0  0  0  0  0
   62.2643   -8.5203   17.3716 H   0  0  0  0  0  0  0  0  0  0  0  0
   60.7613   -9.6243   19.2877 C   0  0  0  0  0  0  0  0  0  0  0  0
   59.8711   -9.7595   20.3907 O   0  0  0  0  0  0  0  0  0  0  0  0
   60.1467   -9.1623   21.1036 H   0  0  0  0  0  0  0  0  0  0  0  0
  9  1  1  0  0  0
  2  1  1  0  0  0
  4  2  1  0  0  0
  2  3  1  0  0  0
  6  4  1  0  0  0
  5  4  1  0  0  0
  7  6  1  0  0  0
  6  8  1  0  0  0
 14  8  1  0  0  0
  8  9  1  0  0  0
 14 15  1  0  0  0
  3 10  1  0  0  0
  5 11  1  0  0  0
  7 12  1  0  0  0
  9 13  1  0  0  0
 15 16  1  0  0  0
M  END
> <minimizedAffinity>
-4.76679

$$$$
4DO5_DGJ_A_509


 16 16  0  0  0  0  0  0  0  0999 V2000
   59.1548   -6.5492   20.9377 C   0  0  0  0  0  0  0  0  0  0  0  0
   59.4167   -7.8368   20.1866 C   0  0  0  0  0  0  0  0  0  0  0  0
   60.1346   -8.7996   20.9577 O   0  0  0  0  0  0  0  0  0  0  0  0
   60.1802   -7.4596   18.9153 C   0  0  0  0  0  0  0  0  0  0  0  0
   60.5236   -8.6344   18.1945 O   0  0  0  0  0  0  0  0  0  0  0  0
   59.2745   -6.5701   18.0873 C   0  0  0  0  0  0  0  0  0  0  0  0
   58.1094   -7.3038   17.7041 O   0  0  0  0  0  0  0  0  0  0  0  0
   58.8936   -5.3168   18.8629 C   0  0  0  0  0  0  0  0  0  0  0  0
   58.3170   -5.6002   20.1907 N   0  0  0  0  0  0  0  0  0  0  0  0
   60.9986   -8.4355   21.2064 H   0  0  0  0  0  0  0  0  0  0  0  0
   59.7164   -9.1220   17.9675 H   0  0  0  0  0  0  0  0  0  0  0  0
   57.6303   -7.5877   18.4984 H   0  0  0  0  0  0  0  0  0  0  0  0
   58.2488   -4.7294   20.7174 H   0  0  0  0  0  0  0  0  0  0  0  0
   57.8900   -4.4886   18.0787 C   0  0  0  0  0  0  0  0  0  0  0  0
   57.0970   -3.6684   18.9306 O   0  0  0  0  0  0  0  0  0  0  0  0
   56.5936   -4.2286   19.5418 H   0  0  0  0  0  0  0  0  0  0  0  0
  9  1  1  0  0  0
  2  1  1  0  0  0
  4  2  1  0  0  0
  2  3  1  0  0  0
  6  4  1  0  0  0
  5  4  1  0  0  0
  7  6  1  0  0  0
  6  8  1  0  0  0
 14  8  1  0  0  0
  8  9  1  0  0  0
 14 15  1  0  0  0
  3 10  1  0  0  0
  5 11  1  0  0  0
  7 12  1  0  0  0
  9 13  1  0  0  0
 15 16  1  0  0  0
M  END
> <minimizedAffinity>
-4.73508

$$$$
4DO5_DGJ_A_509


 16 16  0  0  0  0  0  0  0  0999 V2000
   58.2914   -6.5859   17.0363 C   0  0  0  0  0  0  0  0  0  0  0  0
   57.7517   -5.3611   17.7431 C   0  0  0  0  0  0  0  0  0  0  0  0
   57.2762   -4.3594   16.8446 O   0  0  0  0  0  0  0  0  0  0  0  0
   58.8812   -4.8270   18.6264 C   0  0  0  0  0  0  0  0  0  0  0  0
   58.4646   -3.6296   19.2672 O   0  0  0  0  0  0  0  0  0  0  0  0
   59.2034   -5.8969   19.6503 C   0  0  0  0  0  0  0  0  0  0  0  0
   58.0604   -6.1213   20.4785 O   0  0  0  0  0  0  0  0  0  0  0  0
   59.6366   -7.1856   18.9657 C   0  0  0  0  0  0  0  0  0  0  0  0
   58.6747   -7.6665   17.9559 N   0  0  0  0  0  0  0  0  0  0  0  0
   58.0047   -4.0616   16.2775 H   0  0  0  0  0  0  0  0  0  0  0  0
   57.6763   -3.8074   19.8036 H   0  0  0  0  0  0  0  0  0  0  0  0
   57.3187   -6.4234   19.9311 H   0  0  0  0  0  0  0  0  0  0  0  0
   59.1023   -8.4230   17.4218 H   0  0  0  0  0  0  0  0  0  0  0  0
   59.8403   -8.2906   19.9883 C   0  0  0  0  0  0  0  0  0  0  0  0
   58.6459   -9.0319   20.2147 O   0  0  0  0  0  0  0  0  0  0  0  0
   57.9594   -8.4409   20.5616 H   0  0  0  0  0  0  0  0  0  0  0  0
  9  1  1  0  0  0
  2  1  1  0  0  0
  4  2  1  0  0  0
  2  3  1  0  0  0
  6  4  1  0  0  0
  5  4  1  0  0  0
  7  6  1  0  0  0
  6  8  1  0  0  0
 14  8  1  0  0  0
  8  9  1  0  0  0
 14 15  1  0  0  0
  3 10  1  0  0  0
  5 11  1  0  0  0
  7 12  1  0  0  0
  9 13  1  0  0  0
 15 16  1  0  0  0
M  END
> <minimizedAffinity>
-4.68274

$$$$
4DO5_DGJ_A_509


 16 16  0  0  0  0  0  0  0  0999 V2000
   58.8584   -6.4975   20.5236 C   0  0  0  0  0  0  0  0  0  0  0  0
   59.0808   -5.4547   19.4494 C   0  0  0  0  0  0  0  0  0  0  0  0
   58.3145   -4.2680   19.6529 O   0  0  0  0  0  0  0  0  0  0  0  0
   58.7387   -6.1168   18.1131 C   0  0  0  0  0  0  0  0  0  0  0  0
   58.8568   -5.1679   17.0626 O   0  0  0  0  0  0  0  0  0  0  0  0
   59.7104   -7.2621   17.9104 C   0  0  0  0  0  0  0  0  0  0  0  0
   61.0406   -6.7467   17.8228 O   0  0  0  0  0  0  0  0  0  0  0  0
   59.5957   -8.2735   19.0423 C   0  0  0  0  0  0  0  0  0  0  0  0
   59.7301   -7.6726   20.3828 N   0  0  0  0  0  0  0  0  0  0  0  0
   57.3697   -4.4877   19.6438 H   0  0  0  0  0  0  0  0  0  0  0  0
   59.7620   -4.8200   17.0413 H   0  0  0  0  0  0  0  0  0  0  0  0
   61.2642   -6.2871   18.6472 H   0  0  0  0  0  0  0  0  0  0  0  0
   59.4724   -8.3651   21.0859 H   0  0  0  0  0  0  0  0  0  0  0  0
   60.6535   -9.3547   18.9008 C   0  0  0  0  0  0  0  0  0  0  0  0
   61.0287   -9.8993   20.1618 O   0  0  0  0  0  0  0  0  0  0  0  0
   61.4049   -9.1988   20.7175 H   0  0  0  0  0  0  0  0  0  0  0  0
  9  1  1  0  0  0
  2  1  1  0  0  0
  4  2  1  0  0  0
  2  3  1  0  0  0
  6  4  1  0  0  0
  5  4  1  0  0  0
  7  6  1  0  0  0
  6  8  1  0  0  0
 14  8  1  0  0  0
  8  9  1  0  0  0
 14 15  1  0  0  0
  3 10  1  0  0  0
  5 11  1  0  0  0
  7 12  1  0  0  0
  9 13  1  0  0  0
 15 16  1  0  0  0
M  END
> <minimizedAffinity>
-4.24430

$$$$
4DO5_DGJ_A_509


 16 16  0  0  0  0  0  0  0  0999 V2000
   58.4208   -4.4783   18.9077 C   0  0  0  0  0  0  0  0  0  0  0  0
   58.7458   -5.8076   19.5544 C   0  0  0  0  0  0  0  0  0  0  0  0
   59.2848   -5.6745   20.8691 O   0  0  0  0  0  0  0  0  0  0  0  0
   59.7228   -6.5260   18.6214 C   0  0  0  0  0  0  0  0  0  0  0  0
   60.1280   -7.7561   19.2049 O   0  0  0  0  0  0  0  0  0  0  0  0
   59.0047   -6.7679   17.3088 C   0  0  0  0  0  0  0  0  0  0  0  0
   57.8871   -7.6307   17.5308 O   0  0  0  0  0  0  0  0  0  0  0  0
   58.5572   -5.4519   16.6883 C   0  0  0  0  0  0  0  0  0  0  0  0
   57.7590   -4.6130   17.6022 N   0  0  0  0  0  0  0  0  0  0  0  0
   60.1115   -5.1685   20.8299 H   0  0  0  0  0  0  0  0  0  0  0  0
   59.3483   -8.3108   19.3638 H   0  0  0  0  0  0  0  0  0  0  0  0
   57.2725   -7.2103   18.1524 H   0  0  0  0  0  0  0  0  0  0  0  0
   57.6436   -3.6872   17.1898 H   0  0  0  0  0  0  0  0  0  0  0  0
   57.7327   -5.7049   15.4376 C   0  0  0  0  0  0  0  0  0  0  0  0
   56.3359   -5.5923   15.6901 O   0  0  0  0  0  0  0  0  0  0  0  0
   56.0719   -6.2541   16.3483 H   0  0  0  0  0  0  0  0  0  0  0  0
  9  1  1  0  0  0
  2  1  1  0  0  0
  4  2  1  0  0  0
  2  3  1  0  0  0
  6  4  1  0  0  0
  5  4  1  0  0  0
  7  6  1  0  0  0
  6  8  1  0  0  0
 14  8  1  0  0  0
  8  9  1  0  0  0
 14 15  1  0  0  0
  3 10  1  0  0  0
  5 11  1  0  0  0
  7 12  1  0  0  0
  9 13  1  0  0  0
 15 16  1  0  0  0
M  END
> <minimizedAffinity>
-4.23782

$$$$
