3K4Q_IHS_A_500
  RCSB PDB12061709233D
Coordinates from PDB:3K4Q:A:500 Model:1 without hydrogens
 36 36  0  0  0  0            999 V2000
   -5.4270   11.5670   35.3950   C 0  0  0  0  0  0  0  0  0  0  0  0
   -6.2860   12.4390   35.9960   O 0  0  0  0  0  0  0  0  0  0  0  0
   -6.3460   13.8460   35.4360   S 0  0  0  0  0  0  0  0  0  0  0  0
   -6.2250   10.5000   34.6730   C 0  0  0  0  0  0  0  0  0  0  0  0
   -5.3510   14.6690   36.1360   O 0  0  0  0  0  0  0  0  0  0  0  0
   -8.6190   10.3110   35.6880   S 0  0  0  0  0  0  0  0  0  0  0  0
   -5.2410    9.5270   34.0600   C 0  0  0  0  0  0  0  0  0  0  0  0
   -7.7320   14.1040   35.8650   O 0  0  0  0  0  0  0  0  0  0  0  0
   -6.3230    8.3920   32.1870   S 0  0  0  0  0  0  0  0  0  0  0  0
   -3.9130    9.3270   34.7570   C 0  0  0  0  0  0  0  0  0  0  0  0
   -6.2920   14.0400   33.9770   O 0  0  0  0  0  0  0  0  0  0  0  0
   -2.3910    7.6710   33.6890   S 0  0  0  0  0  0  0  0  0  0  0  0
   -3.3430   10.6370   35.3290   C 0  0  0  0  0  0  0  0  0  0  0  0
   -0.8480   11.2490   35.2760   S 0  0  0  0  0  0  0  0  0  0  0  0
   -4.3470   11.1260   36.3570   C 0  0  0  0  0  0  0  0  0  0  0  0
   -3.5770   12.4480   38.5140   S 0  0  0  0  0  0  0  0  0  0  0  0
   -7.2150    9.7940   35.3990   O 0  0  0  0  0  0  0  0  0  0  0  0
   -5.8900    8.3120   33.6510   O 0  0  0  0  0  0  0  0  0  0  0  0
   -3.1400    8.9750   33.6450   O 0  0  0  0  0  0  0  0  0  0  0  0
   -2.0420   10.5110   35.8820   O 0  0  0  0  0  0  0  0  0  0  0  0
   -3.8010   12.2710   37.0000   O 0  0  0  0  0  0  0  0  0  0  0  0
   -8.5550   11.0220   36.9940   O 0  0  0  0  0  0  0  0  0  0  0  0
   -6.8450    7.0600   31.8270   O 0  0  0  0  0  0  0  0  0  0  0  0
   -2.1770    7.0670   32.3710   O 0  0  0  0  0  0  0  0  0  0  0  0
   -0.8470   11.0760   33.8220   O 0  0  0  0  0  0  0  0  0  0  0  0
   -2.6660   11.3620   38.9410   O 0  0  0  0  0  0  0  0  0  0  0  0
   -9.1090   11.2830   34.7160   O 0  0  0  0  0  0  0  0  0  0  0  0
   -5.1220    8.8340   31.4090   O 0  0  0  0  0  0  0  0  0  0  0  0
   -3.0370    6.7150   34.5830   O 0  0  0  0  0  0  0  0  0  0  0  0
   -0.9350   12.6770   35.6060   O 0  0  0  0  0  0  0  0  0  0  0  0
   -4.8520   12.4100   39.2470   O 0  0  0  0  0  0  0  0  0  0  0  0
   -9.4470    9.1240   35.8710   O 0  0  0  0  0  0  0  0  0  0  0  0
   -7.2760    9.4620   31.9380   O 0  0  0  0  0  0  0  0  0  0  0  0
   -1.0740    8.1920   34.1620   O 0  0  0  0  0  0  0  0  0  0  0  0
    0.3930   10.6750   35.8290   O 0  0  0  0  0  0  0  0  0  0  0  0
   -2.9610   13.7750   38.6620   O 0  0  0  0  0  0  0  0  0  0  0  0
  4  1  1  0  0  0  0
 15  1  1  0  0  0  0
  1  2  1  0  0  0  0
  2  3  1  0  0  0  0
  8  3  2  0  0  0  0
 11  3  2  0  0  0  0
  3  5  1  0  0  0  0
  7  4  1  0  0  0  0
  4 17  1  0  0  0  0
 22  6  2  0  0  0  0
 17  6  1  0  0  0  0
  6 32  2  0  0  0  0
  6 27  1  0  0  0  0
 10  7  1  0  0  0  0
  7 18  1  0  0  0  0
 33  9  2  0  0  0  0
 23  9  2  0  0  0  0
  9 28  1  0  0  0  0
  9 18  1  0  0  0  0
 19 10  1  0  0  0  0
 10 13  1  0  0  0  0
 29 12  2  0  0  0  0
 24 12  2  0  0  0  0
 12 34  1  0  0  0  0
 12 19  1  0  0  0  0
 20 13  1  0  0  0  0
 13 15  1  0  0  0  0
 35 14  2  0  0  0  0
 25 14  2  0  0  0  0
 14 30  1  0  0  0  0
 14 20  1  0  0  0  0
 21 15  1  0  0  0  0
 21 16  1  0  0  0  0
 31 16  2  0  0  0  0
 16 26  2  0  0  0  0
 16 36  1  0  0  0  0
A    1
C1
A    2
O1
A    3
S1
A    4
C2
A    5
O2
A    6
S2
A    7
C3
A    8
O3
A    9
S3
A   10
C4
A   11
O4
A   12
S4
A   13
C5
A   14
S5
A   15
C6
A   16
S6
A   17
O12
A   18
O13
A   19
O14
A   20
O15
A   21
O16
A   22
O22
A   23
O23
A   24
O24
A   25
O25
A   26
O26
A   27
O32
A   28
O33
A   29
O34
A   30
O35
A   31
O36
A   32
O42
A   33
O43
A   34
O44
A   35
O45
A   36
O46
M  END
>  <InstanceId>
3K4Q_IHS_A_500

>  <ChemCompId>
IHS

>  <PdbId>
3K4Q

>  <ChainId>
A

>  <ResidueNumber>
500

>  <InsertionCode>


>  <Model>
1

>  <AltIds>


>  <MissingHeavyAtoms>
0

>  <ObservedFormula>
C6 O24 S6

>  <Name>
D-MYO-INOSITOL-HEXASULPHATE

>  <SystematicName>
(2,3,4,5,6-pentasulfooxycyclohexyl) hydrogen sulfate

>  <Synonyms>


>  <Type>
NON-POLYMER

>  <Formula>
C6 H12 O24 S6

>  <MolecularWeight>
660.535

>  <ModifiedDate>
2011-06-04

>  <Parent>


>  <OneLetterCode>


>  <SubcomponentList>


>  <AmbiguousFlag>
N

>  <InChI>
InChI=1S/C6H12O24S6/c7-31(8,9)25-1-2(26-32(10,11)12)4(28-34(16,17)18)6(30-36(22,23)24)5(29-35(19,20)21)3(1)27-33(13,14)15/h1-6H,(H,7,8,9)(H,10,11,12)(H,13,14,15)(H,16,17,18)(H,19,20,21)(H,22,23,24)/t1-,2-,3-,4+,5-,6-

>  <InChIKey>
NBTMNFYXJYCQHQ-GPIVLXJGSA-N

>  <SMILES>
C1(C(C(C(C(C1OS(=O)(=O)O)OS(=O)(=O)O)OS(=O)(=O)O)OS(=O)(=O)O)OS(=O)(=O)O)OS(=O)(=O)O

$$$$
