3K4Q_IHS_A_500


 42 42  0  0  0  0  0  0  0  0999 V2000
   -6.0230   10.4752   35.3525 C   0  0  0  0  0  0  0  0  0  0  0  0
   -5.8770   11.8373   36.0007 C   0  0  0  0  0  0  0  0  0  0  0  0
   -4.3973   12.1321   36.1209 C   0  0  0  0  0  0  0  0  0  0  0  0
   -3.4682   11.5334   35.0877 C   0  0  0  0  0  0  0  0  0  0  0  0
   -3.8700   10.1018   34.6910 C   0  0  0  0  0  0  0  0  0  0  0  0
   -5.2553   10.2019   34.0788 C   0  0  0  0  0  0  0  0  0  0  0  0
   -7.3478   10.1960   35.1903 O   0  0  0  0  0  0  0  0  0  0  0  0
   -7.9435    9.1289   36.0865 S   0  0  0  0  0  0  0  0  0  0  0  0
   -7.6100    7.8119   35.5282 O   0  0  0  0  0  0  0  0  0  0  0  0
   -9.3440    9.5279   35.8605 O   0  0  0  0  0  0  0  0  0  0  0  0
   -7.6955    9.1902   37.5370 O   0  0  0  0  0  0  0  0  0  0  0  0
   -7.7863    7.8111   34.5743 H   0  0  0  0  0  0  0  0  0  0  0  0
   -6.5432   12.9383   35.4095 O   0  0  0  0  0  0  0  0  0  0  0  0
   -7.9575   13.3889   35.7540 S   0  0  0  0  0  0  0  0  0  0  0  0
   -8.7236   13.4140   34.4782 O   0  0  0  0  0  0  0  0  0  0  0  0
   -8.6734   12.4804   36.6439 O   0  0  0  0  0  0  0  0  0  0  0  0
   -7.8308   14.7652   36.2206 O   0  0  0  0  0  0  0  0  0  0  0  0
   -8.7035   11.5959   36.2468 H   0  0  0  0  0  0  0  0  0  0  0  0
   -4.1603   13.5207   36.4043 O   0  0  0  0  0  0  0  0  0  0  0  0
   -4.0101   13.7518   37.9080 S   0  0  0  0  0  0  0  0  0  0  0  0
   -5.2223   14.4677   38.3490 O   0  0  0  0  0  0  0  0  0  0  0  0
   -2.7268   14.4995   38.1001 O   0  0  0  0  0  0  0  0  0  0  0  0
   -3.7763   12.5215   38.6475 O   0  0  0  0  0  0  0  0  0  0  0  0
   -2.5897   14.6690   39.0453 H   0  0  0  0  0  0  0  0  0  0  0  0
   -2.3088   11.4507   35.8668 O   0  0  0  0  0  0  0  0  0  0  0  0
   -1.0333   12.0097   35.2975 S   0  0  0  0  0  0  0  0  0  0  0  0
   -0.9700   11.9669   33.8340 O   0  0  0  0  0  0  0  0  0  0  0  0
    0.1385   11.3564   35.8724 O   0  0  0  0  0  0  0  0  0  0  0  0
   -1.2237   13.4362   35.6960 O   0  0  0  0  0  0  0  0  0  0  0  0
   -0.4640   13.9597   35.3965 H   0  0  0  0  0  0  0  0  0  0  0  0
   -2.9527    9.4630   33.8165 O   0  0  0  0  0  0  0  0  0  0  0  0
   -2.3774    8.0840   34.1406 S   0  0  0  0  0  0  0  0  0  0  0  0
   -3.1159    7.4911   35.2573 O   0  0  0  0  0  0  0  0  0  0  0  0
   -2.4838    7.2182   32.9596 O   0  0  0  0  0  0  0  0  0  0  0  0
   -0.9633    8.2409   34.5291 O   0  0  0  0  0  0  0  0  0  0  0  0
   -2.1186    6.3436   33.1659 H   0  0  0  0  0  0  0  0  0  0  0  0
   -5.6155    8.9177   33.5851 O   0  0  0  0  0  0  0  0  0  0  0  0
   -5.9444    8.5609   32.1229 S   0  0  0  0  0  0  0  0  0  0  0  0
   -6.4664    7.1756   32.1281 O   0  0  0  0  0  0  0  0  0  0  0  0
   -4.7569    8.6929   31.2645 O   0  0  0  0  0  0  0  0  0  0  0  0
   -6.9656    9.5337   31.7070 O   0  0  0  0  0  0  0  0  0  0  0  0
   -6.5852   10.4260   31.7167 H   0  0  0  0  0  0  0  0  0  0  0  0
  2  1  1  0  0  0
  6  1  1  0  0  0
  1  7  1  0  0  0
  7  8  1  0  0  0
 10  8  2  0  0  0
 11  8  2  0  0  0
  8  9  1  0  0  0
  3  2  1  0  0  0
  2 13  1  0  0  0
 15 14  2  0  0  0
 13 14  1  0  0  0
 14 17  2  0  0  0
 14 16  1  0  0  0
  4  3  1  0  0  0
  3 19  1  0  0  0
 23 20  2  0  0  0
 21 20  2  0  0  0
 20 22  1  0  0  0
 20 19  1  0  0  0
 25  4  1  0  0  0
  4  5  1  0  0  0
 28 26  2  0  0  0
 27 26  2  0  0  0
 26 29  1  0  0  0
 26 25  1  0  0  0
 31  5  1  0  0  0
  5  6  1  0  0  0
 35 32  2  0  0  0
 33 32  2  0  0  0
 32 34  1  0  0  0
 32 31  1  0  0  0
 37  6  1  0  0  0
 37 38  1  0  0  0
 40 38  2  0  0  0
 38 39  2  0  0  0
 38 41  1  0  0  0
  9 12  1  0  0  0
 16 18  1  0  0  0
 22 24  1  0  0  0
 34 36  1  0  0  0
 29 30  1  0  0  0
 41 42  1  0  0  0
M  END
> <minimizedAffinity>
-7.75065

$$$$
3K4Q_IHS_A_500


 42 42  0  0  0  0  0  0  0  0999 V2000
   -4.9725    9.7337   34.5184 C   0  0  0  0  0  0  0  0  0  0  0  0
   -3.4780    9.8718   34.7277 C   0  0  0  0  0  0  0  0  0  0  0  0
   -3.2344   11.1802   35.4484 C   0  0  0  0  0  0  0  0  0  0  0  0
   -4.3146   11.6909   36.3767 C   0  0  0  0  0  0  0  0  0  0  0  0
   -5.7307   11.4435   35.8276 C   0  0  0  0  0  0  0  0  0  0  0  0
   -5.8845    9.9383   35.7070 C   0  0  0  0  0  0  0  0  0  0  0  0
   -5.2311    8.5424   33.9074 O   0  0  0  0  0  0  0  0  0  0  0  0
   -5.3982    8.5606   32.4012 S   0  0  0  0  0  0  0  0  0  0  0  0
   -6.3433    7.5013   32.0244 O   0  0  0  0  0  0  0  0  0  0  0  0
   -3.9930    8.2303   32.1046 O   0  0  0  0  0  0  0  0  0  0  0  0
   -5.7036    9.8349   31.7289 O   0  0  0  0  0  0  0  0  0  0  0  0
   -6.1100    6.6806   32.4859 H   0  0  0  0  0  0  0  0  0  0  0  0
   -2.7912    8.8222   35.3852 O   0  0  0  0  0  0  0  0  0  0  0  0
   -1.4817    8.2047   34.9098 S   0  0  0  0  0  0  0  0  0  0  0  0
   -1.1902    8.7910   33.5732 O   0  0  0  0  0  0  0  0  0  0  0  0
   -0.3331    8.5177   35.7538 O   0  0  0  0  0  0  0  0  0  0  0  0
   -1.7607    6.7857   34.7187 O   0  0  0  0  0  0  0  0  0  0  0  0
   -0.2320    9.4803   35.8184 H   0  0  0  0  0  0  0  0  0  0  0  0
   -1.9042   11.2423   35.9883 O   0  0  0  0  0  0  0  0  0  0  0  0
   -0.9738   12.0190   35.0565 S   0  0  0  0  0  0  0  0  0  0  0  0
    0.3596   11.3997   35.1778 O   0  0  0  0  0  0  0  0  0  0  0  0
   -1.0471   13.4544   35.4776 O   0  0  0  0  0  0  0  0  0  0  0  0
   -1.4569   12.0636   33.6855 O   0  0  0  0  0  0  0  0  0  0  0  0
   -0.4688   13.9877   34.9101 H   0  0  0  0  0  0  0  0  0  0  0  0
   -4.0513   13.0615   36.2759 O   0  0  0  0  0  0  0  0  0  0  0  0
   -3.8006   13.8284   37.5456 S   0  0  0  0  0  0  0  0  0  0  0  0
   -2.8241   14.9115   37.3996 O   0  0  0  0  0  0  0  0  0  0  0  0
   -3.4097   12.9407   38.6363 O   0  0  0  0  0  0  0  0  0  0  0  0
   -5.1475   14.4564   37.6905 O   0  0  0  0  0  0  0  0  0  0  0  0
   -5.1635   15.0069   38.4890 H   0  0  0  0  0  0  0  0  0  0  0  0
   -6.7654   12.0174   36.6115 O   0  0  0  0  0  0  0  0  0  0  0  0
   -7.8156   12.9368   35.9876 S   0  0  0  0  0  0  0  0  0  0  0  0
   -7.1953   14.2070   35.6056 O   0  0  0  0  0  0  0  0  0  0  0  0
   -8.3923   12.2898   34.8026 O   0  0  0  0  0  0  0  0  0  0  0  0
   -8.8689   13.1978   36.9865 O   0  0  0  0  0  0  0  0  0  0  0  0
   -9.0585   12.8736   34.4073 H   0  0  0  0  0  0  0  0  0  0  0  0
   -7.2239    9.6592   35.3191 O   0  0  0  0  0  0  0  0  0  0  0  0
   -8.3178    9.0291   36.2022 S   0  0  0  0  0  0  0  0  0  0  0  0
   -8.3239    7.5788   35.9053 O   0  0  0  0  0  0  0  0  0  0  0  0
   -9.6288    9.6443   35.9429 O   0  0  0  0  0  0  0  0  0  0  0  0
   -7.9063    9.3072   37.5863 O   0  0  0  0  0  0  0  0  0  0  0  0
   -7.9154   10.2649   37.7401 H   0  0  0  0  0  0  0  0  0  0  0  0
  2  1  1  0  0  0
  6  1  1  0  0  0
  1  7  1  0  0  0
  7  8  1  0  0  0
 10  8  2  0  0  0
 11  8  2  0  0  0
  8  9  1  0  0  0
  3  2  1  0  0  0
  2 13  1  0  0  0
 15 14  2  0  0  0
 13 14  1  0  0  0
 14 17  2  0  0  0
 14 16  1  0  0  0
  4  3  1  0  0  0
  3 19  1  0  0  0
 23 20  2  0  0  0
 21 20  2  0  0  0
 20 22  1  0  0  0
 20 19  1  0  0  0
 25  4  1  0  0  0
  4  5  1  0  0  0
 28 26  2  0  0  0
 27 26  2  0  0  0
 26 29  1  0  0  0
 26 25  1  0  0  0
 31  5  1  0  0  0
  5  6  1  0  0  0
 35 32  2  0  0  0
 33 32  2  0  0  0
 32 34  1  0  0  0
 32 31  1  0  0  0
 37  6  1  0  0  0
 37 38  1  0  0  0
 40 38  2  0  0  0
 38 39  2  0  0  0
 38 41  1  0  0  0
  9 12  1  0  0  0
 16 18  1  0  0  0
 22 24  1  0  0  0
 34 36  1  0  0  0
 29 30  1  0  0  0
 41 42  1  0  0  0
M  END
> <minimizedAffinity>
-7.49916

$$$$
3K4Q_IHS_A_500


 42 42  0  0  0  0  0  0  0  0999 V2000
   -3.6476   10.4339   35.0532 C   0  0  0  0  0  0  0  0  0  0  0  0
   -5.1076   10.4043   34.6481 C   0  0  0  0  0  0  0  0  0  0  0  0
   -5.7954   11.5703   35.3250 C   0  0  0  0  0  0  0  0  0  0  0  0
   -4.9754   12.8094   35.6107 C   0  0  0  0  0  0  0  0  0  0  0  0
   -3.5429   12.4779   36.0648 C   0  0  0  0  0  0  0  0  0  0  0  0
   -2.8912   11.7356   34.9124 C   0  0  0  0  0  0  0  0  0  0  0  0
   -2.9880    9.4187   34.4257 O   0  0  0  0  0  0  0  0  0  0  0  0
   -2.8025    8.1310   35.2029 S   0  0  0  0  0  0  0  0  0  0  0  0
   -4.0733    7.3945   35.1947 O   0  0  0  0  0  0  0  0  0  0  0  0
   -2.5105    8.7892   36.4887 O   0  0  0  0  0  0  0  0  0  0  0  0
   -1.6593    7.2590   34.8836 O   0  0  0  0  0  0  0  0  0  0  0  0
   -4.7997    8.0007   35.4087 H   0  0  0  0  0  0  0  0  0  0  0  0
   -5.4223   10.3923   33.2673 O   0  0  0  0  0  0  0  0  0  0  0  0
   -5.9227    9.1760   32.4977 S   0  0  0  0  0  0  0  0  0  0  0  0
   -6.1768    8.1068   33.5015 O   0  0  0  0  0  0  0  0  0  0  0  0
   -7.1857    9.3901   31.7987 O   0  0  0  0  0  0  0  0  0  0  0  0
   -4.8029    8.7459   31.6675 O   0  0  0  0  0  0  0  0  0  0  0  0
   -7.8628    9.6721   32.4334 H   0  0  0  0  0  0  0  0  0  0  0  0
   -7.0847   11.8277   34.7450 O   0  0  0  0  0  0  0  0  0  0  0  0
   -8.1743   11.0331   35.4651 S   0  0  0  0  0  0  0  0  0  0  0  0
   -7.7832   10.9710   36.8862 O   0  0  0  0  0  0  0  0  0  0  0  0
   -8.2649    9.7075   34.7738 O   0  0  0  0  0  0  0  0  0  0  0  0
   -9.5033   11.5887   35.2653 O   0  0  0  0  0  0  0  0  0  0  0  0
   -8.9481    9.1667   35.2000 H   0  0  0  0  0  0  0  0  0  0  0  0
   -5.6790   13.2776   36.7259 O   0  0  0  0  0  0  0  0  0  0  0  0
   -6.1956   14.6903   36.6937 S   0  0  0  0  0  0  0  0  0  0  0  0
   -7.6535   14.7844   36.5787 O   0  0  0  0  0  0  0  0  0  0  0  0
   -5.5551   15.4683   35.6378 O   0  0  0  0  0  0  0  0  0  0  0  0
   -5.8296   15.0879   38.0857 O   0  0  0  0  0  0  0  0  0  0  0  0
   -6.1008   16.0060   38.2416 H   0  0  0  0  0  0  0  0  0  0  0  0
   -2.7828   13.6097   36.4593 O   0  0  0  0  0  0  0  0  0  0  0  0
   -2.5391   13.9259   37.9352 S   0  0  0  0  0  0  0  0  0  0  0  0
   -2.7428   15.3561   38.1737 O   0  0  0  0  0  0  0  0  0  0  0  0
   -3.4681   13.1472   38.7636 O   0  0  0  0  0  0  0  0  0  0  0  0
   -1.1458   13.5766   38.2699 O   0  0  0  0  0  0  0  0  0  0  0  0
   -3.3129   13.3483   39.6997 H   0  0  0  0  0  0  0  0  0  0  0  0
   -1.5249   11.5175   35.2418 O   0  0  0  0  0  0  0  0  0  0  0  0
   -0.3333   11.5554   34.2660 S   0  0  0  0  0  0  0  0  0  0  0  0
    0.8889   11.3506   35.0760 O   0  0  0  0  0  0  0  0  0  0  0  0
   -0.2917   12.8275   33.5283 O   0  0  0  0  0  0  0  0  0  0  0  0
   -0.5654   10.4472   33.3278 O   0  0  0  0  0  0  0  0  0  0  0  0
   -1.3725   10.6189   32.8179 H   0  0  0  0  0  0  0  0  0  0  0  0
  2  1  1  0  0  0
  6  1  1  0  0  0
  1  7  1  0  0  0
  7  8  1  0  0  0
 10  8  2  0  0  0
 11  8  2  0  0  0
  8  9  1  0  0  0
  3  2  1  0  0  0
  2 13  1  0  0  0
 15 14  2  0  0  0
 13 14  1  0  0  0
 14 17  2  0  0  0
 14 16  1  0  0  0
  4  3  1  0  0  0
  3 19  1  0  0  0
 23 20  2  0  0  0
 21 20  2  0  0  0
 20 22  1  0  0  0
 20 19  1  0  0  0
 25  4  1  0  0  0
  4  5  1  0  0  0
 28 26  2  0  0  0
 27 26  2  0  0  0
 26 29  1  0  0  0
 26 25  1  0  0  0
 31  5  1  0  0  0
  5  6  1  0  0  0
 35 32  2  0  0  0
 33 32  2  0  0  0
 32 34  1  0  0  0
 32 31  1  0  0  0
 37  6  1  0  0  0
 37 38  1  0  0  0
 40 38  2  0  0  0
 38 39  2  0  0  0
 38 41  1  0  0  0
  9 12  1  0  0  0
 16 18  1  0  0  0
 22 24  1  0  0  0
 34 36  1  0  0  0
 29 30  1  0  0  0
 41 42  1  0  0  0
M  END
> <minimizedAffinity>
-7.26180

$$$$
3K4Q_IHS_A_500


 42 42  0  0  0  0  0  0  0  0999 V2000
   -5.2848   11.5986   35.9073 C   0  0  0  0  0  0  0  0  0  0  0  0
   -6.0413   10.5149   35.1659 C   0  0  0  0  0  0  0  0  0  0  0  0
   -5.0230    9.6430   34.4632 C   0  0  0  0  0  0  0  0  0  0  0  0
   -3.6544    9.5022   35.0928 C   0  0  0  0  0  0  0  0  0  0  0  0
   -3.1482   10.8195   35.7066 C   0  0  0  0  0  0  0  0  0  0  0  0
   -4.1351   11.1877   36.7994 C   0  0  0  0  0  0  0  0  0  0  0  0
   -6.1722   12.3791   36.5876 O   0  0  0  0  0  0  0  0  0  0  0  0
   -6.6843   13.6187   35.8819 S   0  0  0  0  0  0  0  0  0  0  0  0
   -5.5333   14.3652   35.3572 O   0  0  0  0  0  0  0  0  0  0  0  0
   -7.2807   14.2239   37.0859 O   0  0  0  0  0  0  0  0  0  0  0  0
   -7.7549   13.4826   34.8796 O   0  0  0  0  0  0  0  0  0  0  0  0
   -4.8518   14.4335   36.0441 H   0  0  0  0  0  0  0  0  0  0  0  0
   -6.9478    9.7079   35.8957 O   0  0  0  0  0  0  0  0  0  0  0  0
   -8.4555    9.9216   35.9512 S   0  0  0  0  0  0  0  0  0  0  0  0
   -8.7393   10.6571   37.2136 O   0  0  0  0  0  0  0  0  0  0  0  0
   -8.9816   10.7472   34.8689 O   0  0  0  0  0  0  0  0  0  0  0  0
   -9.0387    8.5902   36.0746 O   0  0  0  0  0  0  0  0  0  0  0  0
   -8.5328   11.6071   34.8708 H   0  0  0  0  0  0  0  0  0  0  0  0
   -5.6069    8.4071   34.0203 O   0  0  0  0  0  0  0  0  0  0  0  0
   -6.1133    8.5283   32.5829 S   0  0  0  0  0  0  0  0  0  0  0  0
   -4.9377    8.8302   31.7444 O   0  0  0  0  0  0  0  0  0  0  0  0
   -7.1749    9.5847   32.5908 O   0  0  0  0  0  0  0  0  0  0  0  0
   -6.8398    7.3491   32.1392 O   0  0  0  0  0  0  0  0  0  0  0  0
   -7.5269    9.6960   31.6938 H   0  0  0  0  0  0  0  0  0  0  0  0
   -2.9107    9.2585   33.9329 O   0  0  0  0  0  0  0  0  0  0  0  0
   -2.1101    7.9868   33.8606 S   0  0  0  0  0  0  0  0  0  0  0  0
   -0.7746    8.0940   34.4544 O   0  0  0  0  0  0  0  0  0  0  0  0
   -2.0146    7.4940   32.4900 O   0  0  0  0  0  0  0  0  0  0  0  0
   -2.9425    7.1529   34.7780 O   0  0  0  0  0  0  0  0  0  0  0  0
   -2.5556    6.2663   34.8494 H   0  0  0  0  0  0  0  0  0  0  0  0
   -1.8180   10.7575   36.1974 O   0  0  0  0  0  0  0  0  0  0  0  0
   -0.6931   11.5598   35.5428 S   0  0  0  0  0  0  0  0  0  0  0  0
   -0.5019   12.8201   36.2632 O   0  0  0  0  0  0  0  0  0  0  0  0
    0.5490   10.7775   35.5727 O   0  0  0  0  0  0  0  0  0  0  0  0
   -1.0729   11.8560   34.1487 O   0  0  0  0  0  0  0  0  0  0  0  0
    1.2621   11.2871   35.1572 H   0  0  0  0  0  0  0  0  0  0  0  0
   -3.6386   12.3356   37.4766 O   0  0  0  0  0  0  0  0  0  0  0  0
   -3.8759   12.6970   38.9554 S   0  0  0  0  0  0  0  0  0  0  0  0
   -2.5604   13.0757   39.5191 O   0  0  0  0  0  0  0  0  0  0  0  0
   -4.4789   11.5717   39.6865 O   0  0  0  0  0  0  0  0  0  0  0  0
   -4.8128   13.8301   38.9318 O   0  0  0  0  0  0  0  0  0  0  0  0
   -5.6597   13.5417   38.5569 H   0  0  0  0  0  0  0  0  0  0  0  0
  2  1  1  0  0  0
  6  1  1  0  0  0
  1  7  1  0  0  0
  7  8  1  0  0  0
 10  8  2  0  0  0
 11  8  2  0  0  0
  8  9  1  0  0  0
  3  2  1  0  0  0
  2 13  1  0  0  0
 15 14  2  0  0  0
 13 14  1  0  0  0
 14 17  2  0  0  0
 14 16  1  0  0  0
  4  3  1  0  0  0
  3 19  1  0  0  0
 23 20  2  0  0  0
 21 20  2  0  0  0
 20 22  1  0  0  0
 20 19  1  0  0  0
 25  4  1  0  0  0
  4  5  1  0  0  0
 28 26  2  0  0  0
 27 26  2  0  0  0
 26 29  1  0  0  0
 26 25  1  0  0  0
 31  5  1  0  0  0
  5  6  1  0  0  0
 35 32  2  0  0  0
 33 32  2  0  0  0
 32 34  1  0  0  0
 32 31  1  0  0  0
 37  6  1  0  0  0
 37 38  1  0  0  0
 40 38  2  0  0  0
 38 39  2  0  0  0
 38 41  1  0  0  0
  9 12  1  0  0  0
 16 18  1  0  0  0
 22 24  1  0  0  0
 34 36  1  0  0  0
 29 30  1  0  0  0
 41 42  1  0  0  0
M  END
> <minimizedAffinity>
-6.94976

$$$$
3K4Q_IHS_A_500


 42 42  0  0  0  0  0  0  0  0999 V2000
   -4.1821    9.7923   38.0935 C   0  0  0  0  0  0  0  0  0  0  0  0
   -5.5876   10.2251   37.7278 C   0  0  0  0  0  0  0  0  0  0  0  0
   -5.7259   10.1130   36.2248 C   0  0  0  0  0  0  0  0  0  0  0  0
   -4.9049    9.0600   35.5131 C   0  0  0  0  0  0  0  0  0  0  0  0
   -3.4903    8.9165   36.1018 C   0  0  0  0  0  0  0  0  0  0  0  0
   -3.6708    8.4796   37.5442 C   0  0  0  0  0  0  0  0  0  0  0  0
   -4.0365    9.8412   39.4484 O   0  0  0  0  0  0  0  0  0  0  0  0
   -3.1813   10.9586   40.0114 S   0  0  0  0  0  0  0  0  0  0  0  0
   -1.7711   10.6449   39.7464 O   0  0  0  0  0  0  0  0  0  0  0  0
   -3.5805   10.7422   41.4133 O   0  0  0  0  0  0  0  0  0  0  0  0
   -3.5081   12.3535   39.6695 O   0  0  0  0  0  0  0  0  0  0  0  0
   -1.5955    9.7208   39.9833 H   0  0  0  0  0  0  0  0  0  0  0  0
   -6.6766    9.5804   38.3633 O   0  0  0  0  0  0  0  0  0  0  0  0
   -7.5475   10.2044   39.4469 S   0  0  0  0  0  0  0  0  0  0  0  0
   -6.9170   11.5025   39.8107 O   0  0  0  0  0  0  0  0  0  0  0  0
   -8.9063   10.5157   39.0150 O   0  0  0  0  0  0  0  0  0  0  0  0
   -7.4358    9.3197   40.6014 O   0  0  0  0  0  0  0  0  0  0  0  0
   -8.8738   11.1064   38.2462 H   0  0  0  0  0  0  0  0  0  0  0  0
   -7.1030   10.1721   35.8186 O   0  0  0  0  0  0  0  0  0  0  0  0
   -7.5011   11.6013   35.4499 S   0  0  0  0  0  0  0  0  0  0  0  0
   -8.0826   12.2049   36.6639 O   0  0  0  0  0  0  0  0  0  0  0  0
   -8.4348   11.4981   34.2834 O   0  0  0  0  0  0  0  0  0  0  0  0
   -6.3949   12.3728   34.9057 O   0  0  0  0  0  0  0  0  0  0  0  0
   -8.7149   12.3868   34.0138 H   0  0  0  0  0  0  0  0  0  0  0  0
   -4.7872    9.6875   34.2680 O   0  0  0  0  0  0  0  0  0  0  0  0
   -5.3027    8.9581   33.0574 S   0  0  0  0  0  0  0  0  0  0  0  0
   -5.6023    9.8347   31.9218 O   0  0  0  0  0  0  0  0  0  0  0  0
   -6.4665    8.1397   33.3835 O   0  0  0  0  0  0  0  0  0  0  0  0
   -4.0648    8.1946   32.7194 O   0  0  0  0  0  0  0  0  0  0  0  0
   -4.2253    7.6501   31.9329 H   0  0  0  0  0  0  0  0  0  0  0  0
   -2.6503    8.0264   35.3832 O   0  0  0  0  0  0  0  0  0  0  0  0
   -1.2562    8.4510   34.9208 S   0  0  0  0  0  0  0  0  0  0  0  0
   -1.3551    9.1647   33.6460 O   0  0  0  0  0  0  0  0  0  0  0  0
   -0.6486    9.3242   35.9327 O   0  0  0  0  0  0  0  0  0  0  0  0
   -0.4320    7.2425   34.7322 O   0  0  0  0  0  0  0  0  0  0  0  0
    0.2358    9.5931   35.6387 H   0  0  0  0  0  0  0  0  0  0  0  0
   -2.3851    8.2155   38.0916 O   0  0  0  0  0  0  0  0  0  0  0  0
   -2.0138    7.0515   39.0301 S   0  0  0  0  0  0  0  0  0  0  0  0
   -1.5964    7.6556   40.3156 O   0  0  0  0  0  0  0  0  0  0  0  0
   -0.9497    6.2191   38.4478 O   0  0  0  0  0  0  0  0  0  0  0  0
   -3.2436    6.2571   39.1674 O   0  0  0  0  0  0  0  0  0  0  0  0
   -3.4826    5.8799   38.3063 H   0  0  0  0  0  0  0  0  0  0  0  0
  2  1  1  0  0  0
  6  1  1  0  0  0
  1  7  1  0  0  0
  7  8  1  0  0  0
 10  8  2  0  0  0
 11  8  2  0  0  0
  8  9  1  0  0  0
  3  2  1  0  0  0
  2 13  1  0  0  0
 15 14  2  0  0  0
 13 14  1  0  0  0
 14 17  2  0  0  0
 14 16  1  0  0  0
  4  3  1  0  0  0
  3 19  1  0  0  0
 23 20  2  0  0  0
 21 20  2  0  0  0
 20 22  1  0  0  0
 20 19  1  0  0  0
 25  4  1  0  0  0
  4  5  1  0  0  0
 28 26  2  0  0  0
 27 26  2  0  0  0
 26 29  1  0  0  0
 26 25  1  0  0  0
 31  5  1  0  0  0
  5  6  1  0  0  0
 35 32  2  0  0  0
 33 32  2  0  0  0
 32 34  1  0  0  0
 32 31  1  0  0  0
 37  6  1  0  0  0
 37 38  1  0  0  0
 40 38  2  0  0  0
 38 39  2  0  0  0
 38 41  1  0  0  0
  9 12  1  0  0  0
 16 18  1  0  0  0
 22 24  1  0  0  0
 34 36  1  0  0  0
 29 30  1  0  0  0
 41 42  1  0  0  0
M  END
> <minimizedAffinity>
-6.93664

$$$$
3K4Q_IHS_A_500


 42 42  0  0  0  0  0  0  0  0999 V2000
   -5.3209   10.0516   37.3665 C   0  0  0  0  0  0  0  0  0  0  0  0
   -4.0998    9.6338   38.1608 C   0  0  0  0  0  0  0  0  0  0  0  0
   -3.1644    8.9089   37.2172 C   0  0  0  0  0  0  0  0  0  0  0  0
   -3.1846    9.3027   35.7564 C   0  0  0  0  0  0  0  0  0  0  0  0
   -4.6047    9.6038   35.2455 C   0  0  0  0  0  0  0  0  0  0  0  0
   -5.1100   10.7813   36.0591 C   0  0  0  0  0  0  0  0  0  0  0  0
   -6.1677   10.7461   38.1790 O   0  0  0  0  0  0  0  0  0  0  0  0
   -7.4314   10.0387   38.6257 S   0  0  0  0  0  0  0  0  0  0  0  0
   -7.9746    9.2901   37.4847 O   0  0  0  0  0  0  0  0  0  0  0  0
   -8.1772   11.2726   38.9306 O   0  0  0  0  0  0  0  0  0  0  0  0
   -7.4023    9.2256   39.8534 O   0  0  0  0  0  0  0  0  0  0  0  0
   -7.9775    9.8573   36.6978 H   0  0  0  0  0  0  0  0  0  0  0  0
   -3.3900   10.6288   38.8762 O   0  0  0  0  0  0  0  0  0  0  0  0
   -3.5034   10.8723   40.3761 S   0  0  0  0  0  0  0  0  0  0  0  0
   -3.4027   12.3429   40.5818 O   0  0  0  0  0  0  0  0  0  0  0  0
   -4.7807   10.4645   40.9522 O   0  0  0  0  0  0  0  0  0  0  0  0
   -2.3174   10.2612   40.9661 O   0  0  0  0  0  0  0  0  0  0  0  0
   -5.5028   10.9231   40.4947 H   0  0  0  0  0  0  0  0  0  0  0  0
   -1.8498    8.7748   37.7817 O   0  0  0  0  0  0  0  0  0  0  0  0
   -1.7331    7.4817   38.5889 S   0  0  0  0  0  0  0  0  0  0  0  0
   -3.0826    6.8876   38.6332 O   0  0  0  0  0  0  0  0  0  0  0  0
   -1.1621    7.8590   39.9211 O   0  0  0  0  0  0  0  0  0  0  0  0
   -0.7295    6.5733   38.0573 O   0  0  0  0  0  0  0  0  0  0  0  0
   -1.0699    7.0645   40.4700 H   0  0  0  0  0  0  0  0  0  0  0  0
   -2.7812    8.0831   35.2017 O   0  0  0  0  0  0  0  0  0  0  0  0
   -1.5621    8.0762   34.3203 S   0  0  0  0  0  0  0  0  0  0  0  0
   -0.4278    7.3401   34.8852 O   0  0  0  0  0  0  0  0  0  0  0  0
   -1.1557    9.4316   33.9619 O   0  0  0  0  0  0  0  0  0  0  0  0
   -2.1104    7.2603   33.1963 O   0  0  0  0  0  0  0  0  0  0  0  0
   -1.4304    7.1531   32.5129 H   0  0  0  0  0  0  0  0  0  0  0  0
   -4.6779    9.8570   33.8510 O   0  0  0  0  0  0  0  0  0  0  0  0
   -5.4870    8.9514   32.9221 S   0  0  0  0  0  0  0  0  0  0  0  0
   -5.9358    9.7150   31.7561 O   0  0  0  0  0  0  0  0  0  0  0  0
   -4.6525    7.8247   32.4864 O   0  0  0  0  0  0  0  0  0  0  0  0
   -6.6669    8.4554   33.6549 O   0  0  0  0  0  0  0  0  0  0  0  0
   -5.1664    7.2506   31.8971 H   0  0  0  0  0  0  0  0  0  0  0  0
   -6.3732   11.1723   35.5356 O   0  0  0  0  0  0  0  0  0  0  0  0
   -6.9038   12.6134   35.4120 S   0  0  0  0  0  0  0  0  0  0  0  0
   -8.2477   12.5226   34.7976 O   0  0  0  0  0  0  0  0  0  0  0  0
   -5.9935   13.4472   34.6116 O   0  0  0  0  0  0  0  0  0  0  0  0
   -6.9603   13.1250   36.7894 O   0  0  0  0  0  0  0  0  0  0  0  0
   -6.0629   13.1692   37.1550 H   0  0  0  0  0  0  0  0  0  0  0  0
  2  1  1  0  0  0
  6  1  1  0  0  0
  1  7  1  0  0  0
  7  8  1  0  0  0
 10  8  2  0  0  0
 11  8  2  0  0  0
  8  9  1  0  0  0
  3  2  1  0  0  0
  2 13  1  0  0  0
 15 14  2  0  0  0
 13 14  1  0  0  0
 14 17  2  0  0  0
 14 16  1  0  0  0
  4  3  1  0  0  0
  3 19  1  0  0  0
 23 20  2  0  0  0
 21 20  2  0  0  0
 20 22  1  0  0  0
 20 19  1  0  0  0
 25  4  1  0  0  0
  4  5  1  0  0  0
 28 26  2  0  0  0
 27 26  2  0  0  0
 26 29  1  0  0  0
 26 25  1  0  0  0
 31  5  1  0  0  0
  5  6  1  0  0  0
 35 32  2  0  0  0
 33 32  2  0  0  0
 32 34  1  0  0  0
 32 31  1  0  0  0
 37  6  1  0  0  0
 37 38  1  0  0  0
 40 38  2  0  0  0
 38 39  2  0  0  0
 38 41  1  0  0  0
  9 12  1  0  0  0
 16 18  1  0  0  0
 22 24  1  0  0  0
 34 36  1  0  0  0
 29 30  1  0  0  0
 41 42  1  0  0  0
M  END
> <minimizedAffinity>
-6.88984

$$$$
3K4Q_IHS_A_500


 42 42  0  0  0  0  0  0  0  0999 V2000
   -1.2674    8.6059   37.5403 C   0  0  0  0  0  0  0  0  0  0  0  0
   -2.2897    9.4123   36.7649 C   0  0  0  0  0  0  0  0  0  0  0  0
   -3.5635    9.4451   37.5817 C   0  0  0  0  0  0  0  0  0  0  0  0
   -3.4426    9.3733   39.0882 C   0  0  0  0  0  0  0  0  0  0  0  0
   -2.3381    8.4047   39.5466 C   0  0  0  0  0  0  0  0  0  0  0  0
   -1.0347    8.9518   38.9937 C   0  0  0  0  0  0  0  0  0  0  0  0
   -0.0913    8.5917   36.8503 O   0  0  0  0  0  0  0  0  0  0  0  0
    0.1688    7.3984   35.9529 S   0  0  0  0  0  0  0  0  0  0  0  0
   -0.6801    7.5185   34.7603 O   0  0  0  0  0  0  0  0  0  0  0  0
   -0.3105    6.3946   36.9195 O   0  0  0  0  0  0  0  0  0  0  0  0
    1.5575    7.0505   35.6069 O   0  0  0  0  0  0  0  0  0  0  0  0
   -1.5837    7.7477   35.0283 H   0  0  0  0  0  0  0  0  0  0  0  0
   -1.9429   10.7232   36.3566 O   0  0  0  0  0  0  0  0  0  0  0  0
   -1.8824   11.1985   34.9100 S   0  0  0  0  0  0  0  0  0  0  0  0
   -1.0301   10.2259   34.1732 O   0  0  0  0  0  0  0  0  0  0  0  0
   -3.1738   11.2084   34.2305 O   0  0  0  0  0  0  0  0  0  0  0  0
   -1.1726   12.4725   34.9423 O   0  0  0  0  0  0  0  0  0  0  0  0
   -3.5632   10.3206   34.2631 H   0  0  0  0  0  0  0  0  0  0  0  0
   -4.4684   10.4531   37.1024 O   0  0  0  0  0  0  0  0  0  0  0  0
   -5.5844    9.8292   36.2643 S   0  0  0  0  0  0  0  0  0  0  0  0
   -5.8339   10.7503   35.1393 O   0  0  0  0  0  0  0  0  0  0  0  0
   -6.7473    9.6233   37.1853 O   0  0  0  0  0  0  0  0  0  0  0  0
   -5.2760    8.4752   35.8322 O   0  0  0  0  0  0  0  0  0  0  0  0
   -7.4833    9.2268   36.6932 H   0  0  0  0  0  0  0  0  0  0  0  0
   -4.6768    8.7783   39.3726 O   0  0  0  0  0  0  0  0  0  0  0  0
   -5.5041    9.3635   40.4845 S   0  0  0  0  0  0  0  0  0  0  0  0
   -6.7081   10.0599   40.0226 O   0  0  0  0  0  0  0  0  0  0  0  0
   -4.7081   10.2427   41.3354 O   0  0  0  0  0  0  0  0  0  0  0  0
   -5.9425    8.0877   41.1246 O   0  0  0  0  0  0  0  0  0  0  0  0
   -6.5062    8.2863   41.8887 H   0  0  0  0  0  0  0  0  0  0  0  0
   -2.2768    8.2179   40.9522 O   0  0  0  0  0  0  0  0  0  0  0  0
   -2.4088    6.8274   41.5738 S   0  0  0  0  0  0  0  0  0  0  0  0
   -3.6432    6.1931   41.1068 O   0  0  0  0  0  0  0  0  0  0  0  0
   -1.2532    6.0069   41.1903 O   0  0  0  0  0  0  0  0  0  0  0  0
   -2.4665    6.9687   43.0407 O   0  0  0  0  0  0  0  0  0  0  0  0
   -1.3377    5.1249   41.5850 H   0  0  0  0  0  0  0  0  0  0  0  0
    0.0297    8.1541   39.4970 O   0  0  0  0  0  0  0  0  0  0  0  0
    1.1728    8.6301   40.4139 S   0  0  0  0  0  0  0  0  0  0  0  0
    0.8096    9.9874   40.8800 O   0  0  0  0  0  0  0  0  0  0  0  0
    2.4607    8.6242   39.7028 O   0  0  0  0  0  0  0  0  0  0  0  0
    1.2132    7.6599   41.5182 O   0  0  0  0  0  0  0  0  0  0  0  0
    1.4540    6.7862   41.1723 H   0  0  0  0  0  0  0  0  0  0  0  0
  2  1  1  0  0  0
  6  1  1  0  0  0
  1  7  1  0  0  0
  7  8  1  0  0  0
 10  8  2  0  0  0
 11  8  2  0  0  0
  8  9  1  0  0  0
  3  2  1  0  0  0
  2 13  1  0  0  0
 15 14  2  0  0  0
 13 14  1  0  0  0
 14 17  2  0  0  0
 14 16  1  0  0  0
  4  3  1  0  0  0
  3 19  1  0  0  0
 23 20  2  0  0  0
 21 20  2  0  0  0
 20 22  1  0  0  0
 20 19  1  0  0  0
 25  4  1  0  0  0
  4  5  1  0  0  0
 28 26  2  0  0  0
 27 26  2  0  0  0
 26 29  1  0  0  0
 26 25  1  0  0  0
 31  5  1  0  0  0
  5  6  1  0  0  0
 35 32  2  0  0  0
 33 32  2  0  0  0
 32 34  1  0  0  0
 32 31  1  0  0  0
 37  6  1  0  0  0
 37 38  1  0  0  0
 40 38  2  0  0  0
 38 39  2  0  0  0
 38 41  1  0  0  0
  9 12  1  0  0  0
 16 18  1  0  0  0
 22 24  1  0  0  0
 34 36  1  0  0  0
 29 30  1  0  0  0
 41 42  1  0  0  0
M  END
> <minimizedAffinity>
-6.78848

$$$$
3K4Q_IHS_A_500


 42 42  0  0  0  0  0  0  0  0999 V2000
   -3.4218    9.2777   37.5110 C   0  0  0  0  0  0  0  0  0  0  0  0
   -3.2835    9.4428   36.0110 C   0  0  0  0  0  0  0  0  0  0  0  0
   -4.6557    9.7584   35.4556 C   0  0  0  0  0  0  0  0  0  0  0  0
   -5.6291   10.4981   36.3470 C   0  0  0  0  0  0  0  0  0  0  0  0
   -5.5527   10.0391   37.8138 C   0  0  0  0  0  0  0  0  0  0  0  0
   -4.1454   10.3551   38.2868 C   0  0  0  0  0  0  0  0  0  0  0  0
   -2.1932    9.0335   38.0499 O   0  0  0  0  0  0  0  0  0  0  0  0
   -1.8989    7.6111   38.4823 S   0  0  0  0  0  0  0  0  0  0  0  0
   -3.1714    6.8870   38.5997 O   0  0  0  0  0  0  0  0  0  0  0  0
   -1.3097    7.9829   39.7808 O   0  0  0  0  0  0  0  0  0  0  0  0
   -0.8888    6.8322   37.7459 O   0  0  0  0  0  0  0  0  0  0  0  0
   -3.8087    7.4304   39.0890 H   0  0  0  0  0  0  0  0  0  0  0  0
   -2.3372   10.3757   35.5215 O   0  0  0  0  0  0  0  0  0  0  0  0
   -0.9076   10.0369   35.1171 S   0  0  0  0  0  0  0  0  0  0  0  0
   -0.0119   10.8691   35.9659 O   0  0  0  0  0  0  0  0  0  0  0  0
   -0.5309    8.6486   35.3625 O   0  0  0  0  0  0  0  0  0  0  0  0
   -0.7666   10.4988   33.7405 O   0  0  0  0  0  0  0  0  0  0  0  0
   -0.6596    8.4397   36.3010 H   0  0  0  0  0  0  0  0  0  0  0  0
   -4.5750   10.2615   34.1120 O   0  0  0  0  0  0  0  0  0  0  0  0
   -4.9134    9.1673   33.0995 S   0  0  0  0  0  0  0  0  0  0  0  0
   -5.5311    9.8397   31.9408 O   0  0  0  0  0  0  0  0  0  0  0  0
   -5.7958    8.1864   33.8081 O   0  0  0  0  0  0  0  0  0  0  0  0
   -3.7611    8.3568   32.7382 O   0  0  0  0  0  0  0  0  0  0  0  0
   -6.0369    7.4702   33.2000 H   0  0  0  0  0  0  0  0  0  0  0  0
   -6.8245   10.0089   35.8086 O   0  0  0  0  0  0  0  0  0  0  0  0
   -7.7827   10.9970   35.2013 S   0  0  0  0  0  0  0  0  0  0  0  0
   -7.2500   12.3593   35.1118 O   0  0  0  0  0  0  0  0  0  0  0  0
   -9.0616   11.0008   35.9048 O   0  0  0  0  0  0  0  0  0  0  0  0
   -7.8220   10.4396   33.8166 O   0  0  0  0  0  0  0  0  0  0  0  0
   -8.4158   10.9765   33.2687 H   0  0  0  0  0  0  0  0  0  0  0  0
   -6.5348   10.6224   38.6562 O   0  0  0  0  0  0  0  0  0  0  0  0
   -7.6770    9.7888   39.2376 S   0  0  0  0  0  0  0  0  0  0  0  0
   -8.6629   10.6716   39.8643 O   0  0  0  0  0  0  0  0  0  0  0  0
   -8.3145    9.0146   38.1653 O   0  0  0  0  0  0  0  0  0  0  0  0
   -7.1262    8.8805   40.2609 O   0  0  0  0  0  0  0  0  0  0  0  0
   -9.0390    8.4861   38.5349 H   0  0  0  0  0  0  0  0  0  0  0  0
   -4.0679   10.0598   39.6758 O   0  0  0  0  0  0  0  0  0  0  0  0
   -3.4009   10.9297   40.7584 S   0  0  0  0  0  0  0  0  0  0  0  0
   -3.8700   10.4187   42.0662 O   0  0  0  0  0  0  0  0  0  0  0  0
   -3.7345   12.3510   40.5768 O   0  0  0  0  0  0  0  0  0  0  0  0
   -1.9549   10.7340   40.5761 O   0  0  0  0  0  0  0  0  0  0  0  0
   -1.6884   11.0808   39.7103 H   0  0  0  0  0  0  0  0  0  0  0  0
  2  1  1  0  0  0
  6  1  1  0  0  0
  1  7  1  0  0  0
  7  8  1  0  0  0
 10  8  2  0  0  0
 11  8  2  0  0  0
  8  9  1  0  0  0
  3  2  1  0  0  0
  2 13  1  0  0  0
 15 14  2  0  0  0
 13 14  1  0  0  0
 14 17  2  0  0  0
 14 16  1  0  0  0
  4  3  1  0  0  0
  3 19  1  0  0  0
 23 20  2  0  0  0
 21 20  2  0  0  0
 20 22  1  0  0  0
 20 19  1  0  0  0
 25  4  1  0  0  0
  4  5  1  0  0  0
 28 26  2  0  0  0
 27 26  2  0  0  0
 26 29  1  0  0  0
 26 25  1  0  0  0
 31  5  1  0  0  0
  5  6  1  0  0  0
 35 32  2  0  0  0
 33 32  2  0  0  0
 32 34  1  0  0  0
 32 31  1  0  0  0
 37  6  1  0  0  0
 37 38  1  0  0  0
 40 38  2  0  0  0
 38 39  2  0  0  0
 38 41  1  0  0  0
  9 12  1  0  0  0
 16 18  1  0  0  0
 22 24  1  0  0  0
 34 36  1  0  0  0
 29 30  1  0  0  0
 41 42  1  0  0  0
M  END
> <minimizedAffinity>
-6.69454

$$$$
3K4Q_IHS_A_500


 42 42  0  0  0  0  0  0  0  0999 V2000
   -2.8195    8.7214   39.5727 C   0  0  0  0  0  0  0  0  0  0  0  0
   -1.3652    9.1458   39.5382 C   0  0  0  0  0  0  0  0  0  0  0  0
   -1.0416    9.5603   38.1189 C   0  0  0  0  0  0  0  0  0  0  0  0
   -2.1579   10.1372   37.2761 C   0  0  0  0  0  0  0  0  0  0  0  0
   -3.5032    9.4282   37.5123 C   0  0  0  0  0  0  0  0  0  0  0  0
   -3.8514    9.6498   38.9730 C   0  0  0  0  0  0  0  0  0  0  0  0
   -3.1566    8.3808   40.8494 O   0  0  0  0  0  0  0  0  0  0  0  0
   -3.3827    6.9097   41.1350 S   0  0  0  0  0  0  0  0  0  0  0  0
   -3.7156    6.2358   39.8731 O   0  0  0  0  0  0  0  0  0  0  0  0
   -4.5451    7.1194   42.0162 O   0  0  0  0  0  0  0  0  0  0  0  0
   -2.3725    6.1654   41.9062 O   0  0  0  0  0  0  0  0  0  0  0  0
   -4.3816    6.7545   39.3954 H   0  0  0  0  0  0  0  0  0  0  0  0
   -0.9347   10.1455   40.4442 O   0  0  0  0  0  0  0  0  0  0  0  0
   -0.1552    9.8825   41.7269 S   0  0  0  0  0  0  0  0  0  0  0  0
   -0.5145   10.9689   42.6787 O   0  0  0  0  0  0  0  0  0  0  0  0
   -0.4998    8.6281   42.3882 O   0  0  0  0  0  0  0  0  0  0  0  0
    1.2508   10.0494   41.3759 O   0  0  0  0  0  0  0  0  0  0  0  0
   -1.4508    8.6137   42.5789 H   0  0  0  0  0  0  0  0  0  0  0  0
    0.1943   10.2904   38.0543 O   0  0  0  0  0  0  0  0  0  0  0  0
    1.3065    9.4269   37.4588 S   0  0  0  0  0  0  0  0  0  0  0  0
    2.4992    9.6327   38.3023 O   0  0  0  0  0  0  0  0  0  0  0  0
    1.4591    9.8508   36.0305 O   0  0  0  0  0  0  0  0  0  0  0  0
    0.9308    8.0272   37.3379 O   0  0  0  0  0  0  0  0  0  0  0  0
    2.1586    9.3261   35.6105 H   0  0  0  0  0  0  0  0  0  0  0  0
   -1.6904    9.7555   36.0137 O   0  0  0  0  0  0  0  0  0  0  0  0
   -1.5099   10.8269   34.9731 S   0  0  0  0  0  0  0  0  0  0  0  0
   -2.7696   11.3361   34.4237 O   0  0  0  0  0  0  0  0  0  0  0  0
   -0.6333   10.3807   33.8947 O   0  0  0  0  0  0  0  0  0  0  0  0
   -0.9422   11.8917   35.8527 O   0  0  0  0  0  0  0  0  0  0  0  0
   -0.7598   12.6844   35.3243 H   0  0  0  0  0  0  0  0  0  0  0  0
   -4.5455    9.8597   36.6511 O   0  0  0  0  0  0  0  0  0  0  0  0
   -5.1454    8.9238   35.6015 S   0  0  0  0  0  0  0  0  0  0  0  0
   -6.5658    8.7095   35.8855 O   0  0  0  0  0  0  0  0  0  0  0  0
   -4.9899    9.5181   34.2680 O   0  0  0  0  0  0  0  0  0  0  0  0
   -4.4421    7.6289   35.6653 O   0  0  0  0  0  0  0  0  0  0  0  0
   -5.3707    8.9238   33.6027 H   0  0  0  0  0  0  0  0  0  0  0  0
   -5.1487    9.1155   39.2053 O   0  0  0  0  0  0  0  0  0  0  0  0
   -6.2399    9.7263   40.1052 S   0  0  0  0  0  0  0  0  0  0  0  0
   -7.3078    8.7089   40.2325 O   0  0  0  0  0  0  0  0  0  0  0  0
   -6.7506   10.9850   39.5401 O   0  0  0  0  0  0  0  0  0  0  0  0
   -5.5772    9.9943   41.3903 O   0  0  0  0  0  0  0  0  0  0  0  0
   -4.8867   10.6638   41.2645 H   0  0  0  0  0  0  0  0  0  0  0  0
  2  1  1  0  0  0
  6  1  1  0  0  0
  1  7  1  0  0  0
  7  8  1  0  0  0
 10  8  2  0  0  0
 11  8  2  0  0  0
  8  9  1  0  0  0
  3  2  1  0  0  0
  2 13  1  0  0  0
 15 14  2  0  0  0
 13 14  1  0  0  0
 14 17  2  0  0  0
 14 16  1  0  0  0
  4  3  1  0  0  0
  3 19  1  0  0  0
 23 20  2  0  0  0
 21 20  2  0  0  0
 20 22  1  0  0  0
 20 19  1  0  0  0
 25  4  1  0  0  0
  4  5  1  0  0  0
 28 26  2  0  0  0
 27 26  2  0  0  0
 26 29  1  0  0  0
 26 25  1  0  0  0
 31  5  1  0  0  0
  5  6  1  0  0  0
 35 32  2  0  0  0
 33 32  2  0  0  0
 32 34  1  0  0  0
 32 31  1  0  0  0
 37  6  1  0  0  0
 37 38  1  0  0  0
 40 38  2  0  0  0
 38 39  2  0  0  0
 38 41  1  0  0  0
  9 12  1  0  0  0
 16 18  1  0  0  0
 22 24  1  0  0  0
 34 36  1  0  0  0
 29 30  1  0  0  0
 41 42  1  0  0  0
M  END
> <minimizedAffinity>
-6.57654

$$$$
3K4Q_IHS_A_500


 42 42  0  0  0  0  0  0  0  0999 V2000
   -3.2624    9.1105   36.5342 C   0  0  0  0  0  0  0  0  0  0  0  0
   -4.3726   10.0484   36.9637 C   0  0  0  0  0  0  0  0  0  0  0  0
   -4.7541    9.6882   38.3834 C   0  0  0  0  0  0  0  0  0  0  0  0
   -3.6833    9.1061   39.2800 C   0  0  0  0  0  0  0  0  0  0  0  0
   -2.7524    8.1340   38.5339 C   0  0  0  0  0  0  0  0  0  0  0  0
   -2.0694    8.9461   37.4485 C   0  0  0  0  0  0  0  0  0  0  0  0
   -2.8648    9.4358   35.2710 O   0  0  0  0  0  0  0  0  0  0  0  0
   -3.4092    8.5911   34.1365 S   0  0  0  0  0  0  0  0  0  0  0  0
   -4.4581    9.3550   33.4485 O   0  0  0  0  0  0  0  0  0  0  0  0
   -3.9318    7.5200   35.0032 O   0  0  0  0  0  0  0  0  0  0  0  0
   -2.4679    7.9718   33.1880 O   0  0  0  0  0  0  0  0  0  0  0  0
   -5.0562    9.7462   34.1044 H   0  0  0  0  0  0  0  0  0  0  0  0
   -4.1516   11.4435   36.8612 O   0  0  0  0  0  0  0  0  0  0  0  0
   -5.0279   12.4094   36.0731 S   0  0  0  0  0  0  0  0  0  0  0  0
   -4.9942   11.9607   34.6544 O   0  0  0  0  0  0  0  0  0  0  0  0
   -6.4317   12.4028   36.4716 O   0  0  0  0  0  0  0  0  0  0  0  0
   -4.3543   13.7014   36.1442 O   0  0  0  0  0  0  0  0  0  0  0  0
   -6.7868   11.5038   36.3898 H   0  0  0  0  0  0  0  0  0  0  0  0
   -5.5464   10.7210   38.9920 O   0  0  0  0  0  0  0  0  0  0  0  0
   -7.0317   10.3608   38.9555 S   0  0  0  0  0  0  0  0  0  0  0  0
   -7.7762   11.6116   39.1949 O   0  0  0  0  0  0  0  0  0  0  0  0
   -7.2384    9.2927   39.9849 O   0  0  0  0  0  0  0  0  0  0  0  0
   -7.4208    9.6951   37.7224 O   0  0  0  0  0  0  0  0  0  0  0  0
   -8.1726    9.0318   39.9969 H   0  0  0  0  0  0  0  0  0  0  0  0
   -4.5021    8.3487   40.1250 O   0  0  0  0  0  0  0  0  0  0  0  0
   -4.4493    8.6330   41.6014 S   0  0  0  0  0  0  0  0  0  0  0  0
   -4.9502    9.9610   41.9664 O   0  0  0  0  0  0  0  0  0  0  0  0
   -3.1046    8.4372   42.1343 O   0  0  0  0  0  0  0  0  0  0  0  0
   -5.4622    7.6329   42.0523 O   0  0  0  0  0  0  0  0  0  0  0  0
   -5.5576    7.6813   43.0164 H   0  0  0  0  0  0  0  0  0  0  0  0
   -1.8126    7.4749   39.3685 O   0  0  0  0  0  0  0  0  0  0  0  0
   -1.9453    5.9861   39.6904 S   0  0  0  0  0  0  0  0  0  0  0  0
   -1.5504    5.7444   41.0795 O   0  0  0  0  0  0  0  0  0  0  0  0
   -3.3367    5.5628   39.4890 O   0  0  0  0  0  0  0  0  0  0  0  0
   -1.0497    5.2275   38.7972 O   0  0  0  0  0  0  0  0  0  0  0  0
   -3.4201    4.6183   39.6934 H   0  0  0  0  0  0  0  0  0  0  0  0
   -1.1068    8.1146   36.8123 O   0  0  0  0  0  0  0  0  0  0  0  0
    0.4054    8.3880   36.7020 S   0  0  0  0  0  0  0  0  0  0  0  0
    0.5538    9.7698   36.1919 O   0  0  0  0  0  0  0  0  0  0  0  0
    1.0588    7.4081   35.8204 O   0  0  0  0  0  0  0  0  0  0  0  0
    0.9255    8.2462   38.0701 O   0  0  0  0  0  0  0  0  0  0  0  0
    0.8101    7.3298   38.3665 H   0  0  0  0  0  0  0  0  0  0  0  0
  2  1  1  0  0  0
  6  1  1  0  0  0
  1  7  1  0  0  0
  7  8  1  0  0  0
 10  8  2  0  0  0
 11  8  2  0  0  0
  8  9  1  0  0  0
  3  2  1  0  0  0
  2 13  1  0  0  0
 15 14  2  0  0  0
 13 14  1  0  0  0
 14 17  2  0  0  0
 14 16  1  0  0  0
  4  3  1  0  0  0
  3 19  1  0  0  0
 23 20  2  0  0  0
 21 20  2  0  0  0
 20 22  1  0  0  0
 20 19  1  0  0  0
 25  4  1  0  0  0
  4  5  1  0  0  0
 28 26  2  0  0  0
 27 26  2  0  0  0
 26 29  1  0  0  0
 26 25  1  0  0  0
 31  5  1  0  0  0
  5  6  1  0  0  0
 35 32  2  0  0  0
 33 32  2  0  0  0
 32 34  1  0  0  0
 32 31  1  0  0  0
 37  6  1  0  0  0
 37 38  1  0  0  0
 40 38  2  0  0  0
 38 39  2  0  0  0
 38 41  1  0  0  0
  9 12  1  0  0  0
 16 18  1  0  0  0
 22 24  1  0  0  0
 34 36  1  0  0  0
 29 30  1  0  0  0
 41 42  1  0  0  0
M  END
> <minimizedAffinity>
-6.44865

$$$$
