6BM5_SAM_A_1301


 33 35  0  0  0  0  0  0  0  0999 V2000
   -8.4618   14.9928  -16.4489 C   0  0  0  0  0  0  0  0  0  0  0  0
   -8.1783   13.7152  -15.8719 O   0  0  0  0  0  0  0  0  0  0  0  0
   -8.8908   14.6860  -17.8739 C   0  0  0  0  0  0  0  0  0  0  0  0
   -8.6129   15.7387  -18.7688 O   0  0  0  0  0  0  0  0  0  0  0  0
   -8.0838   13.4696  -18.2163 C   0  0  0  0  0  0  0  0  0  0  0  0
   -6.7549   13.8376  -18.5148 O   0  0  0  0  0  0  0  0  0  0  0  0
   -8.0408   12.7556  -16.8967 C   0  0  0  0  0  0  0  0  0  0  0  0
   -7.6622   15.9309  -18.7567 H   0  0  0  0  0  0  0  0  0  0  0  0
   -6.3831   14.3375  -17.7714 H   0  0  0  0  0  0  0  0  0  0  0  0
   -9.1176   11.7785  -16.6975 N   0  0  0  0  0  0  0  0  0  0  0  0
  -10.2109   11.8709  -15.8780 C   0  0  0  0  0  0  0  0  0  0  0  0
  -10.9136   10.7154  -15.9553 N   0  0  0  0  0  0  0  0  0  0  0  0
  -10.2804    9.8931  -16.8266 C   0  0  0  0  0  0  0  0  0  0  0  0
  -10.5392    8.6103  -17.2941 C   0  0  0  0  0  0  0  0  0  0  0  0
  -11.6095    7.9075  -16.8974 N   0  0  0  0  0  0  0  0  0  0  0  0
   -9.6395    8.0672  -18.1790 N   0  0  0  0  0  0  0  0  0  0  0  0
   -8.5275    8.7547  -18.6154 C   0  0  0  0  0  0  0  0  0  0  0  0
   -8.2806   10.0318  -18.1756 N   0  0  0  0  0  0  0  0  0  0  0  0
   -9.1449   10.5521  -17.2873 C   0  0  0  0  0  0  0  0  0  0  0  0
  -12.2503    8.3028  -16.2630 H   0  0  0  0  0  0  0  0  0  0  0  0
  -11.7547    6.9962  -17.2403 H   0  0  0  0  0  0  0  0  0  0  0  0
   -9.5966   15.7032  -15.7147 C   0  0  0  0  0  0  0  0  0  0  0  0
   -9.4729   17.5065  -15.5922 S   0  0  0  0  0  0  0  0  0  0  0  0
  -10.8826   17.9361  -14.5481 C   0  0  0  0  0  0  0  0  0  0  0  0
   -8.1055   17.6874  -14.4040 C   0  0  0  0  0  0  0  0  0  0  0  0
   -7.8044   19.1291  -13.9710 C   0  0  0  0  0  0  0  0  0  0  0  0
   -6.4213   19.7172  -15.9045 N   0  0  0  0  0  0  0  0  0  0  0  0
   -7.6060   20.0895  -15.1496 C   0  0  0  0  0  0  0  0  0  0  0  0
   -6.2991   20.3621  -16.6853 H   0  0  0  0  0  0  0  0  0  0  0  0
   -6.5299   18.7679  -16.2613 H   0  0  0  0  0  0  0  0  0  0  0  0
   -7.5327   21.5237  -14.6606 C   0  0  0  0  0  0  0  0  0  0  0  0
   -7.6900   22.4760  -15.4509 O   0  0  0  0  0  0  0  0  0  0  0  0
   -7.2841   21.7454  -13.4690 O   0  0  0  0  0  0  0  0  0  0  0  0
 27 28  1  0  0  0
 28 31  1  0  0  0
 28 26  1  0  0  0
 31 32  2  0  0  0
 31 33  1  0  0  0
 26 25  1  0  0  0
 25 23  1  0  0  0
 23 24  1  0  0  0
 23 22  1  0  0  0
 22  1  1  0  0  0
  1  2  1  0  0  0
  1  3  1  0  0  0
  2  7  1  0  0  0
  3  4  1  0  0  0
  3  5  1  0  0  0
  5  6  1  0  0  0
  5  7  1  0  0  0
  7 10  1  0  0  0
 10 11  1  0  0  0
 10 19  1  0  0  0
 11 12  2  0  0  0
 12 13  1  0  0  0
 13 14  1  0  0  0
 13 19  2  0  0  0
 14 15  1  0  0  0
 14 16  2  0  0  0
 16 17  1  0  0  0
 17 18  2  0  0  0
 18 19  1  0  0  0
 27 29  1  0  0  0
 27 30  1  0  0  0
  4  8  1  0  0  0
  6  9  1  0  0  0
 15 20  1  0  0  0
 15 21  1  0  0  0
M  CHG 1  23   1
M  CHG 1  33  -1
M  END
> <minimizedAffinity>
-8.47440

$$$$
6BM5_SAM_A_1301


 33 35  0  0  0  0  0  0  0  0999 V2000
   -8.6588   14.9426  -16.3504 C   0  0  0  0  0  0  0  0  0  0  0  0
   -8.3497   13.6644  -15.7878 O   0  0  0  0  0  0  0  0  0  0  0  0
   -9.0243   14.6498  -17.7958 C   0  0  0  0  0  0  0  0  0  0  0  0
   -8.7529   15.7299  -18.6596 O   0  0  0  0  0  0  0  0  0  0  0  0
   -8.1614   13.4704  -18.1314 C   0  0  0  0  0  0  0  0  0  0  0  0
   -6.8369   13.8919  -18.3735 O   0  0  0  0  0  0  0  0  0  0  0  0
   -8.1401   12.7316  -16.8250 C   0  0  0  0  0  0  0  0  0  0  0  0
   -7.8109   15.9558  -18.6086 H   0  0  0  0  0  0  0  0  0  0  0  0
   -6.5109   14.3896  -17.6074 H   0  0  0  0  0  0  0  0  0  0  0  0
   -9.1870   11.7125  -16.6845 N   0  0  0  0  0  0  0  0  0  0  0  0
  -10.3108   11.7480  -15.9028 C   0  0  0  0  0  0  0  0  0  0  0  0
  -10.9678   10.5701  -16.0288 N   0  0  0  0  0  0  0  0  0  0  0  0
  -10.2751    9.7901  -16.8939 C   0  0  0  0  0  0  0  0  0  0  0  0
  -10.4705    8.5095  -17.3966 C   0  0  0  0  0  0  0  0  0  0  0  0
  -11.5277    7.7605  -17.0528 N   0  0  0  0  0  0  0  0  0  0  0  0
   -9.5214    8.0183  -18.2598 N   0  0  0  0  0  0  0  0  0  0  0  0
   -8.4205    8.7545  -18.6421 C   0  0  0  0  0  0  0  0  0  0  0  0
   -8.2358   10.0296  -18.1675 N   0  0  0  0  0  0  0  0  0  0  0  0
   -9.1490   10.4992  -17.3000 C   0  0  0  0  0  0  0  0  0  0  0  0
  -12.2042    8.1186  -16.4337 H   0  0  0  0  0  0  0  0  0  0  0  0
  -11.6276    6.8523  -17.4195 H   0  0  0  0  0  0  0  0  0  0  0  0
   -9.8448   15.5966  -15.6451 C   0  0  0  0  0  0  0  0  0  0  0  0
   -9.4962   16.4002  -14.0593 S   0  0  0  0  0  0  0  0  0  0  0  0
   -7.7497   16.8367  -14.2053 C   0  0  0  0  0  0  0  0  0  0  0  0
  -10.2727   18.0277  -14.3091 C   0  0  0  0  0  0  0  0  0  0  0  0
   -9.9221   18.7211  -15.6331 C   0  0  0  0  0  0  0  0  0  0  0  0
  -12.3420   18.4918  -15.9304 N   0  0  0  0  0  0  0  0  0  0  0  0
  -11.1533   19.1574  -16.4360 C   0  0  0  0  0  0  0  0  0  0  0  0
  -13.1541   18.7891  -16.4712 H   0  0  0  0  0  0  0  0  0  0  0  0
  -12.4781   18.7373  -14.9498 H   0  0  0  0  0  0  0  0  0  0  0  0
  -10.9460   18.8902  -17.9148 C   0  0  0  0  0  0  0  0  0  0  0  0
  -10.4323   17.8223  -18.3043 O   0  0  0  0  0  0  0  0  0  0  0  0
  -11.2645   19.7577  -18.7375 O   0  0  0  0  0  0  0  0  0  0  0  0
 27 28  1  0  0  0
 28 31  1  0  0  0
 28 26  1  0  0  0
 31 32  2  0  0  0
 31 33  1  0  0  0
 26 25  1  0  0  0
 25 23  1  0  0  0
 23 24  1  0  0  0
 23 22  1  0  0  0
 22  1  1  0  0  0
  1  2  1  0  0  0
  1  3  1  0  0  0
  2  7  1  0  0  0
  3  4  1  0  0  0
  3  5  1  0  0  0
  5  6  1  0  0  0
  5  7  1  0  0  0
  7 10  1  0  0  0
 10 11  1  0  0  0
 10 19  1  0  0  0
 11 12  2  0  0  0
 12 13  1  0  0  0
 13 14  1  0  0  0
 13 19  2  0  0  0
 14 15  1  0  0  0
 14 16  2  0  0  0
 16 17  1  0  0  0
 17 18  2  0  0  0
 18 19  1  0  0  0
 27 29  1  0  0  0
 27 30  1  0  0  0
  4  8  1  0  0  0
  6  9  1  0  0  0
 15 20  1  0  0  0
 15 21  1  0  0  0
M  CHG 1  23   1
M  CHG 1  33  -1
M  END
> <minimizedAffinity>
-8.46064

$$$$
6BM5_SAM_A_1301


 33 35  0  0  0  0  0  0  0  0999 V2000
   -9.9170   18.5186  -15.1787 C   0  0  0  0  0  0  0  0  0  0  0  0
   -8.8306   17.9452  -15.9112 O   0  0  0  0  0  0  0  0  0  0  0  0
  -11.1633   18.0722  -15.9244 C   0  0  0  0  0  0  0  0  0  0  0  0
  -12.2361   18.9763  -15.7898 O   0  0  0  0  0  0  0  0  0  0  0  0
  -10.7001   18.0047  -17.3489 C   0  0  0  0  0  0  0  0  0  0  0  0
  -10.6297   19.3024  -17.8979 O   0  0  0  0  0  0  0  0  0  0  0  0
   -9.2837   17.5361  -17.1828 C   0  0  0  0  0  0  0  0  0  0  0  0
  -11.9659   19.8494  -16.1149 H   0  0  0  0  0  0  0  0  0  0  0  0
  -10.0591   19.8575  -17.3436 H   0  0  0  0  0  0  0  0  0  0  0  0
   -9.1141   16.0792  -17.2351 N   0  0  0  0  0  0  0  0  0  0  0  0
  -10.0546   15.1044  -17.0334 C   0  0  0  0  0  0  0  0  0  0  0  0
   -9.4526   13.8936  -17.1137 N   0  0  0  0  0  0  0  0  0  0  0  0
   -8.1379   14.0916  -17.3759 C   0  0  0  0  0  0  0  0  0  0  0  0
   -7.0590   13.2363  -17.5646 C   0  0  0  0  0  0  0  0  0  0  0  0
   -7.1869   11.9029  -17.5139 N   0  0  0  0  0  0  0  0  0  0  0  0
   -5.8314   13.8090  -17.7926 N   0  0  0  0  0  0  0  0  0  0  0  0
   -5.6548   15.1747  -17.8553 C   0  0  0  0  0  0  0  0  0  0  0  0
   -6.7220   16.0235  -17.6941 N   0  0  0  0  0  0  0  0  0  0  0  0
   -7.9178   15.4639  -17.4418 C   0  0  0  0  0  0  0  0  0  0  0  0
   -8.0697   11.4990  -17.3501 H   0  0  0  0  0  0  0  0  0  0  0  0
   -6.3981   11.3276  -17.6404 H   0  0  0  0  0  0  0  0  0  0  0  0
   -9.9656   17.9989  -13.7438 C   0  0  0  0  0  0  0  0  0  0  0  0
   -9.3397   19.1145  -12.4609 S   0  0  0  0  0  0  0  0  0  0  0  0
   -8.8440   17.9784  -11.1473 C   0  0  0  0  0  0  0  0  0  0  0  0
   -7.7151   19.5664  -13.1469 C   0  0  0  0  0  0  0  0  0  0  0  0
   -7.5257   21.0605  -13.4446 C   0  0  0  0  0  0  0  0  0  0  0  0
   -7.1016   20.6782  -15.8259 N   0  0  0  0  0  0  0  0  0  0  0  0
   -7.8955   21.4461  -14.8817 C   0  0  0  0  0  0  0  0  0  0  0  0
   -7.3556   20.9426  -16.7778 H   0  0  0  0  0  0  0  0  0  0  0  0
   -7.2803   19.6832  -15.6902 H   0  0  0  0  0  0  0  0  0  0  0  0
   -7.7287   22.9393  -15.0914 C   0  0  0  0  0  0  0  0  0  0  0  0
   -8.4993   23.5678  -15.8444 O   0  0  0  0  0  0  0  0  0  0  0  0
   -6.7975   23.5295  -14.5298 O   0  0  0  0  0  0  0  0  0  0  0  0
 27 28  1  0  0  0
 28 31  1  0  0  0
 28 26  1  0  0  0
 31 32  2  0  0  0
 31 33  1  0  0  0
 26 25  1  0  0  0
 25 23  1  0  0  0
 23 24  1  0  0  0
 23 22  1  0  0  0
 22  1  1  0  0  0
  1  2  1  0  0  0
  1  3  1  0  0  0
  2  7  1  0  0  0
  3  4  1  0  0  0
  3  5  1  0  0  0
  5  6  1  0  0  0
  5  7  1  0  0  0
  7 10  1  0  0  0
 10 11  1  0  0  0
 10 19  1  0  0  0
 11 12  2  0  0  0
 12 13  1  0  0  0
 13 14  1  0  0  0
 13 19  2  0  0  0
 14 15  1  0  0  0
 14 16  2  0  0  0
 16 17  1  0  0  0
 17 18  2  0  0  0
 18 19  1  0  0  0
 27 29  1  0  0  0
 27 30  1  0  0  0
  4  8  1  0  0  0
  6  9  1  0  0  0
 15 20  1  0  0  0
 15 21  1  0  0  0
M  CHG 1  23   1
M  CHG 1  33  -1
M  END
> <minimizedAffinity>
-7.99549

$$$$
6BM5_SAM_A_1301


 33 35  0  0  0  0  0  0  0  0999 V2000
   -8.4105   14.9482  -16.4303 C   0  0  0  0  0  0  0  0  0  0  0  0
   -8.1137   13.6552  -15.8958 O   0  0  0  0  0  0  0  0  0  0  0  0
   -8.8858   14.6799  -17.8483 C   0  0  0  0  0  0  0  0  0  0  0  0
   -8.6324   15.7546  -18.7241 O   0  0  0  0  0  0  0  0  0  0  0  0
   -8.0948   13.4702  -18.2476 C   0  0  0  0  0  0  0  0  0  0  0  0
   -6.7747   13.8418  -18.5787 O   0  0  0  0  0  0  0  0  0  0  0  0
   -8.0127   12.7221  -16.9489 C   0  0  0  0  0  0  0  0  0  0  0  0
   -7.6810   15.9434  -18.7374 H   0  0  0  0  0  0  0  0  0  0  0  0
   -6.3775   14.3211  -17.8349 H   0  0  0  0  0  0  0  0  0  0  0  0
   -9.0865   11.7435  -16.7408 N   0  0  0  0  0  0  0  0  0  0  0  0
  -10.1756   11.8365  -15.9159 C   0  0  0  0  0  0  0  0  0  0  0  0
  -10.8763   10.6793  -15.9856 N   0  0  0  0  0  0  0  0  0  0  0  0
  -10.2460    9.8553  -16.8575 C   0  0  0  0  0  0  0  0  0  0  0  0
  -10.5046    8.5704  -17.3193 C   0  0  0  0  0  0  0  0  0  0  0  0
  -11.5713    7.8668  -16.9146 N   0  0  0  0  0  0  0  0  0  0  0  0
   -9.6085    8.0261  -18.2070 N   0  0  0  0  0  0  0  0  0  0  0  0
   -8.5001    8.7145  -18.6516 C   0  0  0  0  0  0  0  0  0  0  0  0
   -8.2536    9.9935  -18.2174 N   0  0  0  0  0  0  0  0  0  0  0  0
   -9.1143   10.5151  -17.3263 C   0  0  0  0  0  0  0  0  0  0  0  0
  -12.2097    8.2629  -16.2782 H   0  0  0  0  0  0  0  0  0  0  0  0
  -11.7165    6.9540  -17.2537 H   0  0  0  0  0  0  0  0  0  0  0  0
   -9.5186   15.6429  -15.6421 C   0  0  0  0  0  0  0  0  0  0  0  0
   -9.8903   17.3530  -16.1105 S   0  0  0  0  0  0  0  0  0  0  0  0
  -11.4431   17.6776  -15.2472 C   0  0  0  0  0  0  0  0  0  0  0  0
   -8.7213   18.2700  -15.0585 C   0  0  0  0  0  0  0  0  0  0  0  0
   -9.3318   18.8938  -13.7956 C   0  0  0  0  0  0  0  0  0  0  0  0
   -9.7154   18.2128  -11.4749 N   0  0  0  0  0  0  0  0  0  0  0  0
   -8.6966   18.3835  -12.4969 C   0  0  0  0  0  0  0  0  0  0  0  0
   -9.2821   17.8734  -10.6161 H   0  0  0  0  0  0  0  0  0  0  0  0
  -10.4091   17.5373  -11.7957 H   0  0  0  0  0  0  0  0  0  0  0  0
   -7.5942   19.3202  -12.0401 C   0  0  0  0  0  0  0  0  0  0  0  0
   -6.8050   18.9831  -11.1347 O   0  0  0  0  0  0  0  0  0  0  0  0
   -7.5004   20.4416  -12.5544 O   0  0  0  0  0  0  0  0  0  0  0  0
 27 28  1  0  0  0
 28 31  1  0  0  0
 28 26  1  0  0  0
 31 32  2  0  0  0
 31 33  1  0  0  0
 26 25  1  0  0  0
 25 23  1  0  0  0
 23 24  1  0  0  0
 23 22  1  0  0  0
 22  1  1  0  0  0
  1  2  1  0  0  0
  1  3  1  0  0  0
  2  7  1  0  0  0
  3  4  1  0  0  0
  3  5  1  0  0  0
  5  6  1  0  0  0
  5  7  1  0  0  0
  7 10  1  0  0  0
 10 11  1  0  0  0
 10 19  1  0  0  0
 11 12  2  0  0  0
 12 13  1  0  0  0
 13 14  1  0  0  0
 13 19  2  0  0  0
 14 15  1  0  0  0
 14 16  2  0  0  0
 16 17  1  0  0  0
 17 18  2  0  0  0
 18 19  1  0  0  0
 27 29  1  0  0  0
 27 30  1  0  0  0
  4  8  1  0  0  0
  6  9  1  0  0  0
 15 20  1  0  0  0
 15 21  1  0  0  0
M  CHG 1  23   1
M  CHG 1  33  -1
M  END
> <minimizedAffinity>
-7.73108

$$$$
6BM5_SAM_A_1301


 33 35  0  0  0  0  0  0  0  0999 V2000
   -8.7411   16.8841  -14.7983 C   0  0  0  0  0  0  0  0  0  0  0  0
   -8.2548   15.5477  -14.6453 O   0  0  0  0  0  0  0  0  0  0  0  0
   -9.3548   16.9147  -16.1879 C   0  0  0  0  0  0  0  0  0  0  0  0
   -9.3171   18.1950  -16.7759 O   0  0  0  0  0  0  0  0  0  0  0  0
   -8.5012   15.9509  -16.9566 C   0  0  0  0  0  0  0  0  0  0  0  0
   -7.2743   16.5569  -17.2997 O   0  0  0  0  0  0  0  0  0  0  0  0
   -8.1890   14.9230  -15.9083 C   0  0  0  0  0  0  0  0  0  0  0  0
   -8.3978   18.5004  -16.8268 H   0  0  0  0  0  0  0  0  0  0  0  0
   -6.8400   16.8849  -16.4968 H   0  0  0  0  0  0  0  0  0  0  0  0
   -9.1271   13.7951  -15.8627 N   0  0  0  0  0  0  0  0  0  0  0  0
  -10.2741   13.6704  -15.1251 C   0  0  0  0  0  0  0  0  0  0  0  0
  -10.7990   12.4400  -15.3385 N   0  0  0  0  0  0  0  0  0  0  0  0
   -9.9993   11.7855  -16.2153 C   0  0  0  0  0  0  0  0  0  0  0  0
  -10.0419   10.5218  -16.7918 C   0  0  0  0  0  0  0  0  0  0  0  0
  -11.0255    9.6497  -16.5296 N   0  0  0  0  0  0  0  0  0  0  0  0
   -9.0178   10.1805  -17.6414 N   0  0  0  0  0  0  0  0  0  0  0  0
   -7.9882   11.0466  -17.9409 C   0  0  0  0  0  0  0  0  0  0  0  0
   -7.9548   12.3053  -17.3933 N   0  0  0  0  0  0  0  0  0  0  0  0
   -8.9409   12.6287  -16.5390 C   0  0  0  0  0  0  0  0  0  0  0  0
  -11.7564    9.9007  -15.9197 H   0  0  0  0  0  0  0  0  0  0  0  0
  -11.0170    8.7581  -16.9470 H   0  0  0  0  0  0  0  0  0  0  0  0
   -9.8097   17.2171  -13.7596 C   0  0  0  0  0  0  0  0  0  0  0  0
   -9.8774   18.9376  -13.1961 S   0  0  0  0  0  0  0  0  0  0  0  0
  -10.7247   18.8067  -11.6065 C   0  0  0  0  0  0  0  0  0  0  0  0
   -8.1622   19.1967  -12.6438 C   0  0  0  0  0  0  0  0  0  0  0  0
   -7.4424   20.3891  -13.2892 C   0  0  0  0  0  0  0  0  0  0  0  0
   -6.8289   19.9832  -15.6249 N   0  0  0  0  0  0  0  0  0  0  0  0
   -7.8185   20.6032  -14.7601 C   0  0  0  0  0  0  0  0  0  0  0  0
   -7.0888   20.1316  -16.6000 H   0  0  0  0  0  0  0  0  0  0  0  0
   -6.7884   18.9823  -15.4324 H   0  0  0  0  0  0  0  0  0  0  0  0
   -7.9776   22.0821  -15.0586 C   0  0  0  0  0  0  0  0  0  0  0  0
   -9.0696   22.5398  -15.4510 O   0  0  0  0  0  0  0  0  0  0  0  0
   -7.0014   22.8327  -14.9382 O   0  0  0  0  0  0  0  0  0  0  0  0
 27 28  1  0  0  0
 28 31  1  0  0  0
 28 26  1  0  0  0
 31 32  2  0  0  0
 31 33  1  0  0  0
 26 25  1  0  0  0
 25 23  1  0  0  0
 23 24  1  0  0  0
 23 22  1  0  0  0
 22  1  1  0  0  0
  1  2  1  0  0  0
  1  3  1  0  0  0
  2  7  1  0  0  0
  3  4  1  0  0  0
  3  5  1  0  0  0
  5  6  1  0  0  0
  5  7  1  0  0  0
  7 10  1  0  0  0
 10 11  1  0  0  0
 10 19  1  0  0  0
 11 12  2  0  0  0
 12 13  1  0  0  0
 13 14  1  0  0  0
 13 19  2  0  0  0
 14 15  1  0  0  0
 14 16  2  0  0  0
 16 17  1  0  0  0
 17 18  2  0  0  0
 18 19  1  0  0  0
 27 29  1  0  0  0
 27 30  1  0  0  0
  4  8  1  0  0  0
  6  9  1  0  0  0
 15 20  1  0  0  0
 15 21  1  0  0  0
M  CHG 1  23   1
M  CHG 1  33  -1
M  END
> <minimizedAffinity>
-7.58757

$$$$
6BM5_SAM_A_1301


 33 35  0  0  0  0  0  0  0  0999 V2000
  -10.0199   17.1521  -16.1528 C   0  0  0  0  0  0  0  0  0  0  0  0
   -9.4952   16.0063  -15.4762 O   0  0  0  0  0  0  0  0  0  0  0  0
  -10.2077   16.6986  -17.5908 C   0  0  0  0  0  0  0  0  0  0  0  0
  -10.1026   17.7555  -18.5172 O   0  0  0  0  0  0  0  0  0  0  0  0
   -9.0962   15.7106  -17.7825 C   0  0  0  0  0  0  0  0  0  0  0  0
   -7.8738   16.3877  -17.9765 O   0  0  0  0  0  0  0  0  0  0  0  0
   -9.0197   15.0763  -16.4242 C   0  0  0  0  0  0  0  0  0  0  0  0
   -9.2346   18.1789  -18.4275 H   0  0  0  0  0  0  0  0  0  0  0  0
   -7.7163   16.9901  -17.2328 H   0  0  0  0  0  0  0  0  0  0  0  0
   -9.8398   13.8691  -16.2687 N   0  0  0  0  0  0  0  0  0  0  0  0
  -11.0250   13.7249  -15.5980 C   0  0  0  0  0  0  0  0  0  0  0  0
  -11.4038   12.4257  -15.6549 N   0  0  0  0  0  0  0  0  0  0  0  0
  -10.4731   11.7447  -16.3667 C   0  0  0  0  0  0  0  0  0  0  0  0
  -10.3407   10.4141  -16.7448 C   0  0  0  0  0  0  0  0  0  0  0  0
  -11.2495    9.4846  -16.4178 N   0  0  0  0  0  0  0  0  0  0  0  0
   -9.2213   10.0701  -17.4630 N   0  0  0  0  0  0  0  0  0  0  0  0
   -8.2632   10.9934  -17.8228 C   0  0  0  0  0  0  0  0  0  0  0  0
   -8.4018   12.3139  -17.4730 N   0  0  0  0  0  0  0  0  0  0  0  0
   -9.4822   12.6452  -16.7451 C   0  0  0  0  0  0  0  0  0  0  0  0
  -12.0495    9.7379  -15.9030 H   0  0  0  0  0  0  0  0  0  0  0  0
  -11.1169    8.5485  -16.6925 H   0  0  0  0  0  0  0  0  0  0  0  0
  -11.3651   17.5822  -15.5722 C   0  0  0  0  0  0  0  0  0  0  0  0
  -11.4423   19.2490  -14.8665 S   0  0  0  0  0  0  0  0  0  0  0  0
  -11.2435   18.9459  -13.0972 C   0  0  0  0  0  0  0  0  0  0  0  0
   -9.7903   19.8880  -15.2870 C   0  0  0  0  0  0  0  0  0  0  0  0
   -9.0600   20.6089  -14.1453 C   0  0  0  0  0  0  0  0  0  0  0  0
   -7.1108   19.5852  -15.2175 N   0  0  0  0  0  0  0  0  0  0  0  0
   -7.6024   20.1634  -13.9783 C   0  0  0  0  0  0  0  0  0  0  0  0
   -6.1414   19.2926  -15.0951 H   0  0  0  0  0  0  0  0  0  0  0  0
   -7.1648   20.2803  -15.9620 H   0  0  0  0  0  0  0  0  0  0  0  0
   -7.4715   19.1966  -12.8166 C   0  0  0  0  0  0  0  0  0  0  0  0
   -7.0556   19.5855  -11.7067 O   0  0  0  0  0  0  0  0  0  0  0  0
   -7.7537   18.0040  -12.9864 O   0  0  0  0  0  0  0  0  0  0  0  0
 27 28  1  0  0  0
 28 31  1  0  0  0
 28 26  1  0  0  0
 31 32  2  0  0  0
 31 33  1  0  0  0
 26 25  1  0  0  0
 25 23  1  0  0  0
 23 24  1  0  0  0
 23 22  1  0  0  0
 22  1  1  0  0  0
  1  2  1  0  0  0
  1  3  1  0  0  0
  2  7  1  0  0  0
  3  4  1  0  0  0
  3  5  1  0  0  0
  5  6  1  0  0  0
  5  7  1  0  0  0
  7 10  1  0  0  0
 10 11  1  0  0  0
 10 19  1  0  0  0
 11 12  2  0  0  0
 12 13  1  0  0  0
 13 14  1  0  0  0
 13 19  2  0  0  0
 14 15  1  0  0  0
 14 16  2  0  0  0
 16 17  1  0  0  0
 17 18  2  0  0  0
 18 19  1  0  0  0
 27 29  1  0  0  0
 27 30  1  0  0  0
  4  8  1  0  0  0
  6  9  1  0  0  0
 15 20  1  0  0  0
 15 21  1  0  0  0
M  CHG 1  23   1
M  CHG 1  33  -1
M  END
> <minimizedAffinity>
-7.03325

$$$$
6BM5_SAM_A_1301


 33 35  0  0  0  0  0  0  0  0999 V2000
  -10.2687   14.1907  -14.4597 C   0  0  0  0  0  0  0  0  0  0  0  0
  -10.5517   13.8035  -15.8072 O   0  0  0  0  0  0  0  0  0  0  0  0
  -10.3335   12.8974  -13.6649 C   0  0  0  0  0  0  0  0  0  0  0  0
  -10.7077   13.0979  -12.3210 O   0  0  0  0  0  0  0  0  0  0  0  0
  -11.3752   12.1031  -14.3944 C   0  0  0  0  0  0  0  0  0  0  0  0
  -12.6636   12.5716  -14.0613 O   0  0  0  0  0  0  0  0  0  0  0  0
  -11.1274   12.5158  -15.8162 C   0  0  0  0  0  0  0  0  0  0  0  0
  -11.5727   13.5357  -12.2881 H   0  0  0  0  0  0  0  0  0  0  0  0
  -12.7195   13.5223  -14.2453 H   0  0  0  0  0  0  0  0  0  0  0  0
  -10.1957   11.6498  -16.5483 N   0  0  0  0  0  0  0  0  0  0  0  0
   -9.0051   11.9842  -17.1365 C   0  0  0  0  0  0  0  0  0  0  0  0
   -8.5028   10.8906  -17.7582 N   0  0  0  0  0  0  0  0  0  0  0  0
   -9.3605    9.8603  -17.5602 C   0  0  0  0  0  0  0  0  0  0  0  0
   -9.3626    8.5267  -17.9508 C   0  0  0  0  0  0  0  0  0  0  0  0
   -8.3701    7.9933  -18.6768 N   0  0  0  0  0  0  0  0  0  0  0  0
  -10.4406    7.7612  -17.5778 N   0  0  0  0  0  0  0  0  0  0  0  0
  -11.4814    8.2678  -16.8295 C   0  0  0  0  0  0  0  0  0  0  0  0
  -11.4720    9.5783  -16.4200 N   0  0  0  0  0  0  0  0  0  0  0  0
  -10.4318   10.3351  -16.8098 C   0  0  0  0  0  0  0  0  0  0  0  0
   -7.6005    8.5476  -18.9408 H   0  0  0  0  0  0  0  0  0  0  0  0
   -8.4108    7.0472  -18.9462 H   0  0  0  0  0  0  0  0  0  0  0  0
   -8.8753   14.8017  -14.3300 C   0  0  0  0  0  0  0  0  0  0  0  0
   -8.7995   16.5258  -13.7786 S   0  0  0  0  0  0  0  0  0  0  0  0
   -7.3085   16.5566  -12.7597 C   0  0  0  0  0  0  0  0  0  0  0  0
   -8.1963   17.3525  -15.2842 C   0  0  0  0  0  0  0  0  0  0  0  0
   -7.9504   16.4257  -16.4830 C   0  0  0  0  0  0  0  0  0  0  0  0
   -5.7555   17.4356  -16.8823 N   0  0  0  0  0  0  0  0  0  0  0  0
   -6.4641   16.1726  -16.7615 C   0  0  0  0  0  0  0  0  0  0  0  0
   -4.7687   17.2554  -17.0673 H   0  0  0  0  0  0  0  0  0  0  0  0
   -5.8480   17.9618  -16.0134 H   0  0  0  0  0  0  0  0  0  0  0  0
   -6.2939   15.3125  -17.9995 C   0  0  0  0  0  0  0  0  0  0  0  0
   -5.1938   15.2461  -18.5839 O   0  0  0  0  0  0  0  0  0  0  0  0
   -7.2686   14.6957  -18.4472 O   0  0  0  0  0  0  0  0  0  0  0  0
 27 28  1  0  0  0
 28 31  1  0  0  0
 28 26  1  0  0  0
 31 32  2  0  0  0
 31 33  1  0  0  0
 26 25  1  0  0  0
 25 23  1  0  0  0
 23 24  1  0  0  0
 23 22  1  0  0  0
 22  1  1  0  0  0
  1  2  1  0  0  0
  1  3  1  0  0  0
  2  7  1  0  0  0
  3  4  1  0  0  0
  3  5  1  0  0  0
  5  6  1  0  0  0
  5  7  1  0  0  0
  7 10  1  0  0  0
 10 11  1  0  0  0
 10 19  1  0  0  0
 11 12  2  0  0  0
 12 13  1  0  0  0
 13 14  1  0  0  0
 13 19  2  0  0  0
 14 15  1  0  0  0
 14 16  2  0  0  0
 16 17  1  0  0  0
 17 18  2  0  0  0
 18 19  1  0  0  0
 27 29  1  0  0  0
 27 30  1  0  0  0
  4  8  1  0  0  0
  6  9  1  0  0  0
 15 20  1  0  0  0
 15 21  1  0  0  0
M  CHG 1  23   1
M  CHG 1  33  -1
M  END
> <minimizedAffinity>
-6.91928

$$$$
6BM5_SAM_A_1301


 33 35  0  0  0  0  0  0  0  0999 V2000
  -10.4582   17.7735  -15.1196 C   0  0  0  0  0  0  0  0  0  0  0  0
  -10.4110   17.5000  -13.7165 O   0  0  0  0  0  0  0  0  0  0  0  0
   -9.9509   19.1997  -15.2520 C   0  0  0  0  0  0  0  0  0  0  0  0
  -10.4802   19.8679  -16.3744 O   0  0  0  0  0  0  0  0  0  0  0  0
  -10.4163   19.8443  -13.9807 C   0  0  0  0  0  0  0  0  0  0  0  0
  -11.7921   20.1452  -14.0651 O   0  0  0  0  0  0  0  0  0  0  0  0
  -10.2881   18.7115  -13.0043 C   0  0  0  0  0  0  0  0  0  0  0  0
  -11.4485   19.8781  -16.3177 H   0  0  0  0  0  0  0  0  0  0  0  0
  -12.2868   19.3390  -14.2799 H   0  0  0  0  0  0  0  0  0  0  0  0
   -8.9991   18.6530  -12.3051 N   0  0  0  0  0  0  0  0  0  0  0  0
   -8.0783   19.6516  -12.1311 C   0  0  0  0  0  0  0  0  0  0  0  0
   -7.0029   19.1457  -11.4810 N   0  0  0  0  0  0  0  0  0  0  0  0
   -7.2384   17.8348  -11.2307 C   0  0  0  0  0  0  0  0  0  0  0  0
   -6.5085   16.8331  -10.6023 C   0  0  0  0  0  0  0  0  0  0  0  0
   -5.2976   17.0566  -10.0726 N   0  0  0  0  0  0  0  0  0  0  0  0
   -7.0682   15.5795  -10.5539 N   0  0  0  0  0  0  0  0  0  0  0  0
   -8.3111   15.3058  -11.0833 C   0  0  0  0  0  0  0  0  0  0  0  0
   -9.0470   16.2977  -11.6832 N   0  0  0  0  0  0  0  0  0  0  0  0
   -8.4869   17.5174  -11.7567 C   0  0  0  0  0  0  0  0  0  0  0  0
   -4.9022   17.9574  -10.1108 H   0  0  0  0  0  0  0  0  0  0  0  0
   -4.8036   16.3199   -9.6455 H   0  0  0  0  0  0  0  0  0  0  0  0
   -9.5503   16.8323  -15.9079 C   0  0  0  0  0  0  0  0  0  0  0  0
   -9.6687   15.0707  -15.5018 S   0  0  0  0  0  0  0  0  0  0  0  0
   -9.6560   14.2821  -17.1266 C   0  0  0  0  0  0  0  0  0  0  0  0
   -7.9713   14.7214  -14.9440 C   0  0  0  0  0  0  0  0  0  0  0  0
   -7.0772   14.0198  -15.9760 C   0  0  0  0  0  0  0  0  0  0  0  0
   -5.2939   15.2957  -14.8857 N   0  0  0  0  0  0  0  0  0  0  0  0
   -5.7014   14.6773  -16.1360 C   0  0  0  0  0  0  0  0  0  0  0  0
   -4.3783   15.7295  -15.0035 H   0  0  0  0  0  0  0  0  0  0  0  0
   -5.2421   14.5850  -14.1559 H   0  0  0  0  0  0  0  0  0  0  0  0
   -5.7189   15.6765  -17.2773 C   0  0  0  0  0  0  0  0  0  0  0  0
   -5.3555   15.3428  -18.4230 O   0  0  0  0  0  0  0  0  0  0  0  0
   -6.0702   16.8421  -17.0565 O   0  0  0  0  0  0  0  0  0  0  0  0
 27 28  1  0  0  0
 28 31  1  0  0  0
 28 26  1  0  0  0
 31 32  2  0  0  0
 31 33  1  0  0  0
 26 25  1  0  0  0
 25 23  1  0  0  0
 23 24  1  0  0  0
 23 22  1  0  0  0
 22  1  1  0  0  0
  1  2  1  0  0  0
  1  3  1  0  0  0
  2  7  1  0  0  0
  3  4  1  0  0  0
  3  5  1  0  0  0
  5  6  1  0  0  0
  5  7  1  0  0  0
  7 10  1  0  0  0
 10 11  1  0  0  0
 10 19  1  0  0  0
 11 12  2  0  0  0
 12 13  1  0  0  0
 13 14  1  0  0  0
 13 19  2  0  0  0
 14 15  1  0  0  0
 14 16  2  0  0  0
 16 17  1  0  0  0
 17 18  2  0  0  0
 18 19  1  0  0  0
 27 29  1  0  0  0
 27 30  1  0  0  0
  4  8  1  0  0  0
  6  9  1  0  0  0
 15 20  1  0  0  0
 15 21  1  0  0  0
M  CHG 1  23   1
M  CHG 1  33  -1
M  END
> <minimizedAffinity>
-6.89280

$$$$
6BM5_SAM_A_1301


 33 35  0  0  0  0  0  0  0  0999 V2000
   -9.7054   18.6249  -15.8770 C   0  0  0  0  0  0  0  0  0  0  0  0
  -11.0001   18.4888  -15.2845 O   0  0  0  0  0  0  0  0  0  0  0  0
   -9.0330   19.7332  -15.0844 C   0  0  0  0  0  0  0  0  0  0  0  0
   -8.0751   20.4420  -15.8370 O   0  0  0  0  0  0  0  0  0  0  0  0
  -10.1790   20.6240  -14.7080 C   0  0  0  0  0  0  0  0  0  0  0  0
  -10.5622   21.4138  -15.8124 O   0  0  0  0  0  0  0  0  0  0  0  0
  -11.2797   19.6254  -14.4973 C   0  0  0  0  0  0  0  0  0  0  0  0
   -8.4983   20.8234  -16.6220 H   0  0  0  0  0  0  0  0  0  0  0  0
  -10.7660   20.8384  -16.5662 H   0  0  0  0  0  0  0  0  0  0  0  0
  -11.4146   19.1501  -13.1153 N   0  0  0  0  0  0  0  0  0  0  0  0
  -10.4372   18.6904  -12.2734 C   0  0  0  0  0  0  0  0  0  0  0  0
  -11.0116   18.2952  -11.1120 N   0  0  0  0  0  0  0  0  0  0  0  0
  -12.3462   18.5107  -11.2057 C   0  0  0  0  0  0  0  0  0  0  0  0
  -13.4130   18.3057  -10.3391 C   0  0  0  0  0  0  0  0  0  0  0  0
  -13.2472   17.8000   -9.1088 N   0  0  0  0  0  0  0  0  0  0  0  0
  -14.6682   18.6273  -10.7954 N   0  0  0  0  0  0  0  0  0  0  0  0
  -14.8842   19.1518  -12.0517 C   0  0  0  0  0  0  0  0  0  0  0  0
  -13.8308   19.3794  -12.9025 N   0  0  0  0  0  0  0  0  0  0  0  0
  -12.6060   19.0373  -12.4671 C   0  0  0  0  0  0  0  0  0  0  0  0
  -12.3449   17.5717   -8.7879 H   0  0  0  0  0  0  0  0  0  0  0  0
  -14.0277   17.6569   -8.5261 H   0  0  0  0  0  0  0  0  0  0  0  0
   -8.8906   17.3396  -15.7517 C   0  0  0  0  0  0  0  0  0  0  0  0
   -9.6399   15.8402  -16.4391 S   0  0  0  0  0  0  0  0  0  0  0  0
   -9.3698   16.0336  -18.2144 C   0  0  0  0  0  0  0  0  0  0  0  0
   -8.3728   14.5959  -16.0386 C   0  0  0  0  0  0  0  0  0  0  0  0
   -7.1674   15.1239  -15.2480 C   0  0  0  0  0  0  0  0  0  0  0  0
   -4.7267   15.1998  -15.0639 N   0  0  0  0  0  0  0  0  0  0  0  0
   -5.8293   14.9133  -15.9661 C   0  0  0  0  0  0  0  0  0  0  0  0
   -3.8423   15.0566  -15.5516 H   0  0  0  0  0  0  0  0  0  0  0  0
   -4.7756   14.5760  -14.2584 H   0  0  0  0  0  0  0  0  0  0  0  0
   -5.7611   15.7601  -17.2230 C   0  0  0  0  0  0  0  0  0  0  0  0
   -5.6767   15.2270  -18.3476 O   0  0  0  0  0  0  0  0  0  0  0  0
   -5.7595   16.9933  -17.1231 O   0  0  0  0  0  0  0  0  0  0  0  0
 27 28  1  0  0  0
 28 31  1  0  0  0
 28 26  1  0  0  0
 31 32  2  0  0  0
 31 33  1  0  0  0
 26 25  1  0  0  0
 25 23  1  0  0  0
 23 24  1  0  0  0
 23 22  1  0  0  0
 22  1  1  0  0  0
  1  2  1  0  0  0
  1  3  1  0  0  0
  2  7  1  0  0  0
  3  4  1  0  0  0
  3  5  1  0  0  0
  5  6  1  0  0  0
  5  7  1  0  0  0
  7 10  1  0  0  0
 10 11  1  0  0  0
 10 19  1  0  0  0
 11 12  2  0  0  0
 12 13  1  0  0  0
 13 14  1  0  0  0
 13 19  2  0  0  0
 14 15  1  0  0  0
 14 16  2  0  0  0
 16 17  1  0  0  0
 17 18  2  0  0  0
 18 19  1  0  0  0
 27 29  1  0  0  0
 27 30  1  0  0  0
  4  8  1  0  0  0
  6  9  1  0  0  0
 15 20  1  0  0  0
 15 21  1  0  0  0
M  CHG 1  23   1
M  CHG 1  33  -1
M  END
> <minimizedAffinity>
-6.75943

$$$$
6BM5_SAM_A_1301


 33 35  0  0  0  0  0  0  0  0999 V2000
   -8.8203   16.7539  -11.4958 C   0  0  0  0  0  0  0  0  0  0  0  0
   -9.1226   15.7073  -12.4225 O   0  0  0  0  0  0  0  0  0  0  0  0
   -7.3575   17.0801  -11.7458 C   0  0  0  0  0  0  0  0  0  0  0  0
   -6.7043   17.5819  -10.6022 O   0  0  0  0  0  0  0  0  0  0  0  0
   -6.7797   15.7570  -12.1509 C   0  0  0  0  0  0  0  0  0  0  0  0
   -6.5806   14.9463  -11.0136 O   0  0  0  0  0  0  0  0  0  0  0  0
   -7.9226   15.1495  -12.9111 C   0  0  0  0  0  0  0  0  0  0  0  0
   -6.7679   16.9339   -9.8831 H   0  0  0  0  0  0  0  0  0  0  0  0
   -7.4163   14.8583  -10.5290 H   0  0  0  0  0  0  0  0  0  0  0  0
   -7.9011   15.4111  -14.3551 N   0  0  0  0  0  0  0  0  0  0  0  0
   -6.9615   16.0904  -15.0838 C   0  0  0  0  0  0  0  0  0  0  0  0
   -7.3685   16.1492  -16.3745 N   0  0  0  0  0  0  0  0  0  0  0  0
   -8.5552   15.5023  -16.4734 C   0  0  0  0  0  0  0  0  0  0  0  0
   -9.4209   15.2447  -17.5295 C   0  0  0  0  0  0  0  0  0  0  0  0
   -9.1633   15.6522  -18.7802 N   0  0  0  0  0  0  0  0  0  0  0  0
  -10.5783   14.5616  -17.2450 N   0  0  0  0  0  0  0  0  0  0  0  0
  -10.8820   14.1221  -15.9744 C   0  0  0  0  0  0  0  0  0  0  0  0
  -10.0182   14.3524  -14.9322 N   0  0  0  0  0  0  0  0  0  0  0  0
   -8.8998   15.0464  -15.2048 C   0  0  0  0  0  0  0  0  0  0  0  0
   -8.3319   16.1413  -18.9772 H   0  0  0  0  0  0  0  0  0  0  0  0
   -9.8055   15.4623  -19.5019 H   0  0  0  0  0  0  0  0  0  0  0  0
   -9.6721   17.9954  -11.7504 C   0  0  0  0  0  0  0  0  0  0  0  0
   -9.4148   18.8383  -13.3333 S   0  0  0  0  0  0  0  0  0  0  0  0
  -11.0605   19.4725  -13.7229 C   0  0  0  0  0  0  0  0  0  0  0  0
   -8.5848   20.3649  -12.7903 C   0  0  0  0  0  0  0  0  0  0  0  0
   -7.4023   20.8097  -13.6623 C   0  0  0  0  0  0  0  0  0  0  0  0
   -6.9929   20.7086  -16.0746 N   0  0  0  0  0  0  0  0  0  0  0  0
   -7.8237   21.3140  -15.0475 C   0  0  0  0  0  0  0  0  0  0  0  0
   -7.2817   21.0508  -16.9910 H   0  0  0  0  0  0  0  0  0  0  0  0
   -7.0970   19.6944  -16.0420 H   0  0  0  0  0  0  0  0  0  0  0  0
   -7.7687   22.8291  -15.1014 C   0  0  0  0  0  0  0  0  0  0  0  0
   -8.5710   23.4719  -15.8079 O   0  0  0  0  0  0  0  0  0  0  0  0
   -6.8966   23.4267  -14.4586 O   0  0  0  0  0  0  0  0  0  0  0  0
 27 28  1  0  0  0
 28 31  1  0  0  0
 28 26  1  0  0  0
 31 32  2  0  0  0
 31 33  1  0  0  0
 26 25  1  0  0  0
 25 23  1  0  0  0
 23 24  1  0  0  0
 23 22  1  0  0  0
 22  1  1  0  0  0
  1  2  1  0  0  0
  1  3  1  0  0  0
  2  7  1  0  0  0
  3  4  1  0  0  0
  3  5  1  0  0  0
  5  6  1  0  0  0
  5  7  1  0  0  0
  7 10  1  0  0  0
 10 11  1  0  0  0
 10 19  1  0  0  0
 11 12  2  0  0  0
 12 13  1  0  0  0
 13 14  1  0  0  0
 13 19  2  0  0  0
 14 15  1  0  0  0
 14 16  2  0  0  0
 16 17  1  0  0  0
 17 18  2  0  0  0
 18 19  1  0  0  0
 27 29  1  0  0  0
 27 30  1  0  0  0
  4  8  1  0  0  0
  6  9  1  0  0  0
 15 20  1  0  0  0
 15 21  1  0  0  0
M  CHG 1  23   1
M  CHG 1  33  -1
M  END
> <minimizedAffinity>
-6.75764

$$$$
