1FTM_AMQ_A_428


 17 17  0  0  0  0  0  0  0  0999 V2000
   77.4362   27.0280   42.3740 C   0  0  0  0  0  0  0  0  0  0  0  0
   77.3152   27.1879   40.8751 C   0  0  0  0  0  0  0  0  0  0  0  0
   77.5367   26.2033   39.8605 C   0  0  0  0  0  0  0  0  0  0  0  0
   76.9149   28.2454   40.1202 C   0  0  0  0  0  0  0  0  0  0  0  0
   76.4585   29.6367   40.4317 C   0  0  0  0  0  0  0  0  0  0  0  0
   77.9168   24.9916   40.2606 O   0  0  0  0  0  0  0  0  0  0  0  0
   77.3191   26.5348   38.6115 N   0  0  0  0  0  0  0  0  0  0  0  0
   76.9031   27.9112   38.7755 O   0  0  0  0  0  0  0  0  0  0  0  0
   78.0556   24.8210   41.1714 H   0  0  0  0  0  0  0  0  0  0  0  0
   75.0704   27.4708   43.0282 N   0  0  0  0  0  0  0  0  0  0  0  0
   76.1762   26.4526   43.0590 C   0  0  0  0  0  0  0  0  0  0  0  0
   74.2415   27.0862   43.4813 H   0  0  0  0  0  0  0  0  0  0  0  0
   74.8509   27.7051   42.0601 H   0  0  0  0  0  0  0  0  0  0  0  0
   76.4761   26.0393   44.5390 C   0  0  0  0  0  0  0  0  0  0  0  0
   77.3230   25.1549   44.7271 O   0  0  0  0  0  0  0  0  0  0  0  0
   75.8244   26.6048   45.4468 O   0  0  0  0  0  0  0  0  0  0  0  0
   75.1981   27.2673   45.2308 H   0  0  0  0  0  0  0  0  0  0  0  0
 10 11  1  0  0  0
 11 14  1  0  0  0
 11  1  1  0  0  0
 14 15  2  0  0  0
 14 16  1  0  0  0
  1  2  1  0  0  0
  2  3  1  0  0  0
  2  4  2  0  0  0
  3  6  1  0  0  0
  3  7  2  0  0  0
  4  5  1  0  0  0
  4  8  1  0  0  0
  7  8  1  0  0  0
 10 12  1  0  0  0
 10 13  1  0  0  0
 16 17  1  0  0  0
  6  9  1  0  0  0
M  END
> <minimizedAffinity>
-8.28337

$$$$
1FTM_AMQ_A_428


 17 17  0  0  0  0  0  0  0  0999 V2000
   76.9608   25.9142   40.8386 C   0  0  0  0  0  0  0  0  0  0  0  0
   77.4281   27.2277   40.2527 C   0  0  0  0  0  0  0  0  0  0  0  0
   77.0816   28.5531   40.6665 C   0  0  0  0  0  0  0  0  0  0  0  0
   78.3183   27.4956   39.2607 C   0  0  0  0  0  0  0  0  0  0  0  0
   79.1639   26.6493   38.3608 C   0  0  0  0  0  0  0  0  0  0  0  0
   76.2266   28.6704   41.6804 O   0  0  0  0  0  0  0  0  0  0  0  0
   77.6477   29.5652   40.0563 N   0  0  0  0  0  0  0  0  0  0  0  0
   78.4807   28.8627   39.1037 O   0  0  0  0  0  0  0  0  0  0  0  0
   75.8571   27.9039   42.0728 H   0  0  0  0  0  0  0  0  0  0  0  0
   78.0700   24.0894   42.1273 N   0  0  0  0  0  0  0  0  0  0  0  0
   77.6427   25.5302   42.1710 C   0  0  0  0  0  0  0  0  0  0  0  0
   78.5193   23.8411   43.0087 H   0  0  0  0  0  0  0  0  0  0  0  0
   78.7280   23.9530   41.3599 H   0  0  0  0  0  0  0  0  0  0  0  0
   76.6821   25.7624   43.3853 C   0  0  0  0  0  0  0  0  0  0  0  0
   77.0526   25.3562   44.4955 O   0  0  0  0  0  0  0  0  0  0  0  0
   75.5828   26.3196   43.1622 O   0  0  0  0  0  0  0  0  0  0  0  0
   75.3683   26.6021   42.2949 H   0  0  0  0  0  0  0  0  0  0  0  0
 10 11  1  0  0  0
 11 14  1  0  0  0
 11  1  1  0  0  0
 14 15  2  0  0  0
 14 16  1  0  0  0
  1  2  1  0  0  0
  2  3  1  0  0  0
  2  4  2  0  0  0
  3  6  1  0  0  0
  3  7  2  0  0  0
  4  5  1  0  0  0
  4  8  1  0  0  0
  7  8  1  0  0  0
 10 12  1  0  0  0
 10 13  1  0  0  0
 16 17  1  0  0  0
  6  9  1  0  0  0
M  END
> <minimizedAffinity>
-8.19796

$$$$
1FTM_AMQ_A_428


 17 17  0  0  0  0  0  0  0  0999 V2000
   77.5252   27.4231   41.5777 C   0  0  0  0  0  0  0  0  0  0  0  0
   77.1387   26.6922   42.8438 C   0  0  0  0  0  0  0  0  0  0  0  0
   75.8799   26.7083   43.5245 C   0  0  0  0  0  0  0  0  0  0  0  0
   77.8301   25.8063   43.6091 C   0  0  0  0  0  0  0  0  0  0  0  0
   79.2037   25.2153   43.5378 C   0  0  0  0  0  0  0  0  0  0  0  0
   74.9182   27.4708   43.0080 O   0  0  0  0  0  0  0  0  0  0  0  0
   75.7339   25.9513   44.5842 N   0  0  0  0  0  0  0  0  0  0  0  0
   77.0448   25.3418   44.6520 O   0  0  0  0  0  0  0  0  0  0  0  0
   75.0896   27.9894   42.2467 H   0  0  0  0  0  0  0  0  0  0  0  0
   77.9558   25.4021   40.1809 N   0  0  0  0  0  0  0  0  0  0  0  0
   77.1643   26.6770   40.2736 C   0  0  0  0  0  0  0  0  0  0  0  0
   77.7140   24.9137   39.3188 H   0  0  0  0  0  0  0  0  0  0  0  0
   77.7381   24.8079   40.9809 H   0  0  0  0  0  0  0  0  0  0  0  0
   77.4437   27.5677   39.0166 C   0  0  0  0  0  0  0  0  0  0  0  0
   78.3906   28.3643   39.0773 O   0  0  0  0  0  0  0  0  0  0  0  0
   76.6789   27.4455   38.0325 O   0  0  0  0  0  0  0  0  0  0  0  0
   75.9812   26.8204   38.0561 H   0  0  0  0  0  0  0  0  0  0  0  0
 10 11  1  0  0  0
 11 14  1  0  0  0
 11  1  1  0  0  0
 14 15  2  0  0  0
 14 16  1  0  0  0
  1  2  1  0  0  0
  2  3  1  0  0  0
  2  4  2  0  0  0
  3  6  1  0  0  0
  3  7  2  0  0  0
  4  5  1  0  0  0
  4  8  1  0  0  0
  7  8  1  0  0  0
 10 12  1  0  0  0
 10 13  1  0  0  0
 16 17  1  0  0  0
  6  9  1  0  0  0
M  END
> <minimizedAffinity>
-7.95381

$$$$
1FTM_AMQ_A_428


 17 17  0  0  0  0  0  0  0  0999 V2000
   77.1728   27.5249   41.9813 C   0  0  0  0  0  0  0  0  0  0  0  0
   77.1358   27.2718   40.4909 C   0  0  0  0  0  0  0  0  0  0  0  0
   76.5585   28.0910   39.4693 C   0  0  0  0  0  0  0  0  0  0  0  0
   77.6765   26.2744   39.7417 C   0  0  0  0  0  0  0  0  0  0  0  0
   78.4869   25.0555   40.0555 C   0  0  0  0  0  0  0  0  0  0  0  0
   75.9552   29.2129   39.8569 O   0  0  0  0  0  0  0  0  0  0  0  0
   76.6872   27.7145   38.2207 N   0  0  0  0  0  0  0  0  0  0  0  0
   77.4364   26.4884   38.3938 O   0  0  0  0  0  0  0  0  0  0  0  0
   75.8975   29.4230   40.7683 H   0  0  0  0  0  0  0  0  0  0  0  0
   75.2436   27.2605   43.5398 N   0  0  0  0  0  0  0  0  0  0  0  0
   76.3414   26.5281   42.8196 C   0  0  0  0  0  0  0  0  0  0  0  0
   74.6981   26.5983   44.0914 H   0  0  0  0  0  0  0  0  0  0  0  0
   74.6365   27.7176   42.8594 H   0  0  0  0  0  0  0  0  0  0  0  0
   77.2410   25.7706   43.8532 C   0  0  0  0  0  0  0  0  0  0  0  0
   78.4440   25.6469   43.5842 O   0  0  0  0  0  0  0  0  0  0  0  0
   76.6901   25.3084   44.8786 O   0  0  0  0  0  0  0  0  0  0  0  0
   75.7730   25.4406   45.0177 H   0  0  0  0  0  0  0  0  0  0  0  0
 10 11  1  0  0  0
 11 14  1  0  0  0
 11  1  1  0  0  0
 14 15  2  0  0  0
 14 16  1  0  0  0
  1  2  1  0  0  0
  2  3  1  0  0  0
  2  4  2  0  0  0
  3  6  1  0  0  0
  3  7  2  0  0  0
  4  5  1  0  0  0
  4  8  1  0  0  0
  7  8  1  0  0  0
 10 12  1  0  0  0
 10 13  1  0  0  0
 16 17  1  0  0  0
  6  9  1  0  0  0
M  END
> <minimizedAffinity>
-7.81667

$$$$
1FTM_AMQ_A_428


 17 17  0  0  0  0  0  0  0  0999 V2000
   76.8890   25.8998   40.8544 C   0  0  0  0  0  0  0  0  0  0  0  0
   77.8329   26.4810   39.8257 C   0  0  0  0  0  0  0  0  0  0  0  0
   78.6575   25.7819   38.8880 C   0  0  0  0  0  0  0  0  0  0  0  0
   78.0927   27.7703   39.4810 C   0  0  0  0  0  0  0  0  0  0  0  0
   77.5918   29.0986   39.9559 C   0  0  0  0  0  0  0  0  0  0  0  0
   78.6211   24.4513   38.9189 O   0  0  0  0  0  0  0  0  0  0  0  0
   79.3654   26.4824   38.0362 N   0  0  0  0  0  0  0  0  0  0  0  0
   78.9945   27.8246   38.4304 O   0  0  0  0  0  0  0  0  0  0  0  0
   78.0927   24.0117   39.5556 H   0  0  0  0  0  0  0  0  0  0  0  0
   77.8812   24.0044   42.1366 N   0  0  0  0  0  0  0  0  0  0  0  0
   77.5675   25.4742   42.1759 C   0  0  0  0  0  0  0  0  0  0  0  0
   78.3287   23.7288   43.0107 H   0  0  0  0  0  0  0  0  0  0  0  0
   78.5102   23.8117   41.3571 H   0  0  0  0  0  0  0  0  0  0  0  0
   76.6538   25.7893   43.4076 C   0  0  0  0  0  0  0  0  0  0  0  0
   77.0494   25.4242   44.5234 O   0  0  0  0  0  0  0  0  0  0  0  0
   75.5633   26.3667   43.1933 O   0  0  0  0  0  0  0  0  0  0  0  0
   75.3281   26.6150   42.3210 H   0  0  0  0  0  0  0  0  0  0  0  0
 10 11  1  0  0  0
 11 14  1  0  0  0
 11  1  1  0  0  0
 14 15  2  0  0  0
 14 16  1  0  0  0
  1  2  1  0  0  0
  2  3  1  0  0  0
  2  4  2  0  0  0
  3  6  1  0  0  0
  3  7  2  0  0  0
  4  5  1  0  0  0
  4  8  1  0  0  0
  7  8  1  0  0  0
 10 12  1  0  0  0
 10 13  1  0  0  0
 16 17  1  0  0  0
  6  9  1  0  0  0
M  END
> <minimizedAffinity>
-7.81196

$$$$
1FTM_AMQ_A_428


 17 17  0  0  0  0  0  0  0  0999 V2000
   77.0474   27.2879   40.2338 C   0  0  0  0  0  0  0  0  0  0  0  0
   77.2549   26.1665   41.2269 C   0  0  0  0  0  0  0  0  0  0  0  0
   77.9885   24.9510   41.0468 C   0  0  0  0  0  0  0  0  0  0  0  0
   76.8747   26.0439   42.5264 C   0  0  0  0  0  0  0  0  0  0  0  0
   76.1158   26.9151   43.4783 C   0  0  0  0  0  0  0  0  0  0  0  0
   78.5521   24.7504   39.8573 O   0  0  0  0  0  0  0  0  0  0  0  0
   78.0950   24.1303   42.0629 N   0  0  0  0  0  0  0  0  0  0  0  0
   77.3440   24.8563   43.0646 O   0  0  0  0  0  0  0  0  0  0  0  0
   78.4359   25.3787   39.1719 H   0  0  0  0  0  0  0  0  0  0  0  0
   78.0734   29.5492   39.9991 N   0  0  0  0  0  0  0  0  0  0  0  0
   78.3304   28.0727   39.8790 C   0  0  0  0  0  0  0  0  0  0  0  0
   78.9229   30.0624   39.7640 H   0  0  0  0  0  0  0  0  0  0  0  0
   77.7969   29.7694   40.9559 H   0  0  0  0  0  0  0  0  0  0  0  0
   78.8173   27.7349   38.4298 C   0  0  0  0  0  0  0  0  0  0  0  0
   79.8025   26.9927   38.3143 O   0  0  0  0  0  0  0  0  0  0  0  0
   78.2022   28.2551   37.4709 O   0  0  0  0  0  0  0  0  0  0  0  0
   77.4631   28.8078   37.6329 H   0  0  0  0  0  0  0  0  0  0  0  0
 10 11  1  0  0  0
 11 14  1  0  0  0
 11  1  1  0  0  0
 14 15  2  0  0  0
 14 16  1  0  0  0
  1  2  1  0  0  0
  2  3  1  0  0  0
  2  4  2  0  0  0
  3  6  1  0  0  0
  3  7  2  0  0  0
  4  5  1  0  0  0
  4  8  1  0  0  0
  7  8  1  0  0  0
 10 12  1  0  0  0
 10 13  1  0  0  0
 16 17  1  0  0  0
  6  9  1  0  0  0
M  END
> <minimizedAffinity>
-7.60840

$$$$
1FTM_AMQ_A_428


 17 17  0  0  0  0  0  0  0  0999 V2000
   77.9334   27.2548   40.6902 C   0  0  0  0  0  0  0  0  0  0  0  0
   77.4607   26.4833   41.9019 C   0  0  0  0  0  0  0  0  0  0  0  0
   76.4453   26.8491   42.8417 C   0  0  0  0  0  0  0  0  0  0  0  0
   77.8090   25.2549   42.3691 C   0  0  0  0  0  0  0  0  0  0  0  0
   78.7692   24.1998   41.9157 C   0  0  0  0  0  0  0  0  0  0  0  0
   75.8397   28.0206   42.6585 O   0  0  0  0  0  0  0  0  0  0  0  0
   76.1456   26.0035   43.7969 N   0  0  0  0  0  0  0  0  0  0  0  0
   77.0625   24.9268   43.4894 O   0  0  0  0  0  0  0  0  0  0  0  0
   76.1034   28.5792   41.9540 H   0  0  0  0  0  0  0  0  0  0  0  0
   77.0059   27.5654   38.3958 N   0  0  0  0  0  0  0  0  0  0  0  0
   76.7989   27.8837   39.8505 C   0  0  0  0  0  0  0  0  0  0  0  0
   76.2547   27.9826   37.8463 H   0  0  0  0  0  0  0  0  0  0  0  0
   77.0013   26.5538   38.2651 H   0  0  0  0  0  0  0  0  0  0  0  0
   76.7404   29.4354   40.0512 C   0  0  0  0  0  0  0  0  0  0  0  0
   77.7921   30.0730   39.9020 O   0  0  0  0  0  0  0  0  0  0  0  0
   75.6423   29.9410   40.3782 O   0  0  0  0  0  0  0  0  0  0  0  0
   74.8856   29.3966   40.4731 H   0  0  0  0  0  0  0  0  0  0  0  0
 10 11  1  0  0  0
 11 14  1  0  0  0
 11  1  1  0  0  0
 14 15  2  0  0  0
 14 16  1  0  0  0
  1  2  1  0  0  0
  2  3  1  0  0  0
  2  4  2  0  0  0
  3  6  1  0  0  0
  3  7  2  0  0  0
  4  5  1  0  0  0
  4  8  1  0  0  0
  7  8  1  0  0  0
 10 12  1  0  0  0
 10 13  1  0  0  0
 16 17  1  0  0  0
  6  9  1  0  0  0
M  END
> <minimizedAffinity>
-7.52189

$$$$
1FTM_AMQ_A_428


 17 17  0  0  0  0  0  0  0  0999 V2000
   77.3247   25.7405   39.8226 C   0  0  0  0  0  0  0  0  0  0  0  0
   77.2452   25.9395   41.3196 C   0  0  0  0  0  0  0  0  0  0  0  0
   77.5961   25.0149   42.3540 C   0  0  0  0  0  0  0  0  0  0  0  0
   76.8983   27.0272   42.0578 C   0  0  0  0  0  0  0  0  0  0  0  0
   76.4565   28.4179   41.7231 C   0  0  0  0  0  0  0  0  0  0  0  0
   78.0315   23.8148   41.9759 O   0  0  0  0  0  0  0  0  0  0  0  0
   77.5062   25.4095   43.6004 N   0  0  0  0  0  0  0  0  0  0  0  0
   77.0327   26.7641   43.4116 O   0  0  0  0  0  0  0  0  0  0  0  0
   78.0709   23.5961   41.0656 H   0  0  0  0  0  0  0  0  0  0  0  0
   76.8919   27.5198   38.1292 N   0  0  0  0  0  0  0  0  0  0  0  0
   77.9267   26.9358   39.0502 C   0  0  0  0  0  0  0  0  0  0  0  0
   77.2942   28.3080   37.6219 H   0  0  0  0  0  0  0  0  0  0  0  0
   76.0921   27.8396   38.6756 H   0  0  0  0  0  0  0  0  0  0  0  0
   79.1852   26.5006   38.2267 C   0  0  0  0  0  0  0  0  0  0  0  0
   79.9445   27.3933   37.8250 O   0  0  0  0  0  0  0  0  0  0  0  0
   79.3389   25.2791   37.9966 O   0  0  0  0  0  0  0  0  0  0  0  0
   78.7234   24.6579   38.3331 H   0  0  0  0  0  0  0  0  0  0  0  0
 10 11  1  0  0  0
 11 14  1  0  0  0
 11  1  1  0  0  0
 14 15  2  0  0  0
 14 16  1  0  0  0
  1  2  1  0  0  0
  2  3  1  0  0  0
  2  4  2  0  0  0
  3  6  1  0  0  0
  3  7  2  0  0  0
  4  5  1  0  0  0
  4  8  1  0  0  0
  7  8  1  0  0  0
 10 12  1  0  0  0
 10 13  1  0  0  0
 16 17  1  0  0  0
  6  9  1  0  0  0
M  END
> <minimizedAffinity>
-7.45860

$$$$
1FTM_AMQ_A_428


 17 17  0  0  0  0  0  0  0  0999 V2000
   78.0128   27.2136   40.1823 C   0  0  0  0  0  0  0  0  0  0  0  0
   77.6866   26.1374   41.1934 C   0  0  0  0  0  0  0  0  0  0  0  0
   78.1150   24.7720   41.2003 C   0  0  0  0  0  0  0  0  0  0  0  0
   76.9840   26.1893   42.3562 C   0  0  0  0  0  0  0  0  0  0  0  0
   76.2585   27.2742   43.0896 C   0  0  0  0  0  0  0  0  0  0  0  0
   78.8823   24.3695   40.1893 O   0  0  0  0  0  0  0  0  0  0  0  0
   77.7635   24.0130   42.2091 N   0  0  0  0  0  0  0  0  0  0  0  0
   76.9971   24.9584   42.9923 O   0  0  0  0  0  0  0  0  0  0  0  0
   79.0964   24.9646   39.4979 H   0  0  0  0  0  0  0  0  0  0  0  0
   76.8130   27.8150   38.0800 N   0  0  0  0  0  0  0  0  0  0  0  0
   76.7776   27.9195   39.5794 C   0  0  0  0  0  0  0  0  0  0  0  0
   75.9959   28.2824   37.6872 H   0  0  0  0  0  0  0  0  0  0  0  0
   76.8063   26.8321   37.8075 H   0  0  0  0  0  0  0  0  0  0  0  0
   76.7229   29.4252   40.0054 C   0  0  0  0  0  0  0  0  0  0  0  0
   77.7741   30.0777   39.9420 O   0  0  0  0  0  0  0  0  0  0  0  0
   75.6282   29.8776   40.4122 O   0  0  0  0  0  0  0  0  0  0  0  0
   74.8716   29.3252   40.4330 H   0  0  0  0  0  0  0  0  0  0  0  0
 10 11  1  0  0  0
 11 14  1  0  0  0
 11  1  1  0  0  0
 14 15  2  0  0  0
 14 16  1  0  0  0
  1  2  1  0  0  0
  2  3  1  0  0  0
  2  4  2  0  0  0
  3  6  1  0  0  0
  3  7  2  0  0  0
  4  5  1  0  0  0
  4  8  1  0  0  0
  7  8  1  0  0  0
 10 12  1  0  0  0
 10 13  1  0  0  0
 16 17  1  0  0  0
  6  9  1  0  0  0
M  END
> <minimizedAffinity>
-7.45316

$$$$
1FTM_AMQ_A_428


 17 17  0  0  0  0  0  0  0  0999 V2000
   77.2244   27.5864   41.7668 C   0  0  0  0  0  0  0  0  0  0  0  0
   77.7107   26.1799   41.4979 C   0  0  0  0  0  0  0  0  0  0  0  0
   77.7879   25.0815   42.4120 C   0  0  0  0  0  0  0  0  0  0  0  0
   78.1249   25.5837   40.3484 C   0  0  0  0  0  0  0  0  0  0  0  0
   78.2816   26.0432   38.9323 C   0  0  0  0  0  0  0  0  0  0  0  0
   77.4076   25.3067   43.6680 O   0  0  0  0  0  0  0  0  0  0  0  0
   78.1881   23.9191   41.9581 N   0  0  0  0  0  0  0  0  0  0  0  0
   78.4216   24.2481   40.5682 O   0  0  0  0  0  0  0  0  0  0  0  0
   77.1320   26.1639   43.9275 H   0  0  0  0  0  0  0  0  0  0  0  0
   78.6474   29.0170   40.3008 N   0  0  0  0  0  0  0  0  0  0  0  0
   77.2486   28.5175   40.5339 C   0  0  0  0  0  0  0  0  0  0  0  0
   78.6578   29.6309   39.4863 H   0  0  0  0  0  0  0  0  0  0  0  0
   79.2685   28.2247   40.1374 H   0  0  0  0  0  0  0  0  0  0  0  0
   76.2764   29.7302   40.7221 C   0  0  0  0  0  0  0  0  0  0  0  0
   76.6452   30.8327   40.2940 O   0  0  0  0  0  0  0  0  0  0  0  0
   75.1945   29.5243   41.3185 O   0  0  0  0  0  0  0  0  0  0  0  0
   74.9801   28.6620   41.6157 H   0  0  0  0  0  0  0  0  0  0  0  0
 10 11  1  0  0  0
 11 14  1  0  0  0
 11  1  1  0  0  0
 14 15  2  0  0  0
 14 16  1  0  0  0
  1  2  1  0  0  0
  2  3  1  0  0  0
  2  4  2  0  0  0
  3  6  1  0  0  0
  3  7  2  0  0  0
  4  5  1  0  0  0
  4  8  1  0  0  0
  7  8  1  0  0  0
 10 12  1  0  0  0
 10 13  1  0  0  0
 16 17  1  0  0  0
  6  9  1  0  0  0
M  END
> <minimizedAffinity>
-7.44849

$$$$
