2XM2_LOG_A_1000


 21 21  0  0  0  0  0  0  0  0999 V2000
    7.8169  -11.7638    3.5999 C   0  0  0  0  0  0  0  0  0  0  0  0
    7.3944  -10.6079    2.6881 C   0  0  0  0  0  0  0  0  0  0  0  0
    6.5159  -11.1468    1.5566 C   0  0  0  0  0  0  0  0  0  0  0  0
    5.2277  -11.7129    2.1495 C   0  0  0  0  0  0  0  0  0  0  0  0
    6.2069  -14.8644    4.4234 O   0  0  0  0  0  0  0  0  0  0  0  0
    8.6087  -10.0253    2.1603 O   0  0  0  0  0  0  0  0  0  0  0  0
    6.1801  -10.0571    0.6912 O   0  0  0  0  0  0  0  0  0  0  0  0
    5.5589  -12.9060    2.8740 O   0  0  0  0  0  0  0  0  0  0  0  0
    6.7922  -12.8596    3.6212 C   0  0  0  0  0  0  0  0  0  0  0  0
    7.0982  -13.8322    4.3595 N   0  0  0  0  0  0  0  0  0  0  0  0
    6.3914  -15.6102    4.9598 H   0  0  0  0  0  0  0  0  0  0  0  0
    9.1108  -10.7030    1.6813 H   0  0  0  0  0  0  0  0  0  0  0  0
    5.7108   -9.3753    1.1970 H   0  0  0  0  0  0  0  0  0  0  0  0
    7.3006  -10.4860    5.6654 C   0  0  0  0  0  0  0  0  0  0  0  0
    7.6763  -10.0487    7.0718 C   0  0  0  0  0  0  0  0  0  0  0  0
    8.1376  -11.3901    5.0131 N   0  0  0  0  0  0  0  0  0  0  0  0
    6.2800  -10.0357    5.1205 O   0  0  0  0  0  0  0  0  0  0  0  0
    8.9205  -11.7733    5.4708 H   0  0  0  0  0  0  0  0  0  0  0  0
    4.1909  -12.0924    1.0787 C   0  0  0  0  0  0  0  0  0  0  0  0
    4.5116  -13.4439    0.6327 O   0  0  0  0  0  0  0  0  0  0  0  0
    5.4139  -13.4615    0.2771 H   0  0  0  0  0  0  0  0  0  0  0  0
  1  2  1  0  0  0
  1 16  1  0  0  0
  1  9  1  0  0  0
  2  3  1  0  0  0
  2  6  1  0  0  0
  3  4  1  0  0  0
  3  7  1  0  0  0
  4 19  1  0  0  0
  4  8  1  0  0  0
 19 20  1  0  0  0
 14 15  1  0  0  0
 14 16  1  0  0  0
 14 17  2  0  0  0
  5 10  1  0  0  0
  8  9  1  0  0  0
  9 10  2  0  0  0
 16 18  1  0  0  0
  5 11  1  0  0  0
  6 12  1  0  0  0
  7 13  1  0  0  0
 20 21  1  0  0  0
M  END
> <minimizedAffinity>
-9.29580

$$$$
2XM2_LOG_A_1000


 21 21  0  0  0  0  0  0  0  0999 V2000
    6.0714  -13.3550    1.8600 C   0  0  0  0  0  0  0  0  0  0  0  0
    6.1733  -11.8319    1.7330 C   0  0  0  0  0  0  0  0  0  0  0  0
    6.1277  -11.2007    3.1266 C   0  0  0  0  0  0  0  0  0  0  0  0
    7.3562  -11.6443    3.9174 C   0  0  0  0  0  0  0  0  0  0  0  0
    7.0995  -15.6068    4.4593 O   0  0  0  0  0  0  0  0  0  0  0  0
    5.0438  -11.4012    0.9387 O   0  0  0  0  0  0  0  0  0  0  0  0
    6.1706   -9.7777    2.9763 O   0  0  0  0  0  0  0  0  0  0  0  0
    7.2154  -13.0415    4.2101 O   0  0  0  0  0  0  0  0  0  0  0  0
    6.6508  -13.8461    3.1539 C   0  0  0  0  0  0  0  0  0  0  0  0
    6.5887  -15.0947    3.3013 N   0  0  0  0  0  0  0  0  0  0  0  0
    7.0756  -16.5307    4.6135 H   0  0  0  0  0  0  0  0  0  0  0  0
    4.2205  -11.6769    1.3711 H   0  0  0  0  0  0  0  0  0  0  0  0
    6.9833   -9.5261    2.5105 H   0  0  0  0  0  0  0  0  0  0  0  0
    5.8571  -14.9842   -0.0015 C   0  0  0  0  0  0  0  0  0  0  0  0
    6.4967  -15.8394   -1.0832 C   0  0  0  0  0  0  0  0  0  0  0  0
    6.6812  -14.1404    0.7416 N   0  0  0  0  0  0  0  0  0  0  0  0
    4.6358  -15.0519    0.2107 O   0  0  0  0  0  0  0  0  0  0  0  0
    7.6409  -14.0631    0.5357 H   0  0  0  0  0  0  0  0  0  0  0  0
    7.5077  -10.9022    5.2561 C   0  0  0  0  0  0  0  0  0  0  0  0
    6.1714  -10.4869    5.6685 O   0  0  0  0  0  0  0  0  0  0  0  0
    5.7853   -9.9158    4.9862 H   0  0  0  0  0  0  0  0  0  0  0  0
  1  2  1  0  0  0
  1 16  1  0  0  0
  1  9  1  0  0  0
  2  3  1  0  0  0
  2  6  1  0  0  0
  3  4  1  0  0  0
  3  7  1  0  0  0
  4 19  1  0  0  0
  4  8  1  0  0  0
 19 20  1  0  0  0
 14 15  1  0  0  0
 14 16  1  0  0  0
 14 17  2  0  0  0
  5 10  1  0  0  0
  8  9  1  0  0  0
  9 10  2  0  0  0
 16 18  1  0  0  0
  5 11  1  0  0  0
  6 12  1  0  0  0
  7 13  1  0  0  0
 20 21  1  0  0  0
M  END
> <minimizedAffinity>
-8.96292

$$$$
2XM2_LOG_A_1000


 21 21  0  0  0  0  0  0  0  0999 V2000
    6.3307  -12.9107    3.3631 C   0  0  0  0  0  0  0  0  0  0  0  0
    6.8699  -14.3390    3.2387 C   0  0  0  0  0  0  0  0  0  0  0  0
    6.2265  -15.0226    2.0299 C   0  0  0  0  0  0  0  0  0  0  0  0
    6.6534  -14.2949    0.7573 C   0  0  0  0  0  0  0  0  0  0  0  0
    5.1405  -10.5866    0.9002 O   0  0  0  0  0  0  0  0  0  0  0  0
    6.5203  -15.0269    4.4621 O   0  0  0  0  0  0  0  0  0  0  0  0
    6.7061  -16.3700    1.9684 O   0  0  0  0  0  0  0  0  0  0  0  0
    6.0239  -13.0059    0.7502 O   0  0  0  0  0  0  0  0  0  0  0  0
    5.9525  -12.3398    2.0281 C   0  0  0  0  0  0  0  0  0  0  0  0
    5.5036  -11.1651    2.0824 N   0  0  0  0  0  0  0  0  0  0  0  0
    4.8009   -9.7133    0.8908 H   0  0  0  0  0  0  0  0  0  0  0  0
    5.5576  -15.0093    4.5791 H   0  0  0  0  0  0  0  0  0  0  0  0
    7.6727  -16.3657    1.8878 H   0  0  0  0  0  0  0  0  0  0  0  0
    6.7478  -11.2713    5.1808 C   0  0  0  0  0  0  0  0  0  0  0  0
    7.6373  -10.2243    5.8312 C   0  0  0  0  0  0  0  0  0  0  0  0
    7.2314  -11.9363    4.0550 N   0  0  0  0  0  0  0  0  0  0  0  0
    5.6207  -11.5110    5.6429 O   0  0  0  0  0  0  0  0  0  0  0  0
    8.1432  -11.7690    3.7233 H   0  0  0  0  0  0  0  0  0  0  0  0
    6.2250  -15.0282   -0.5251 C   0  0  0  0  0  0  0  0  0  0  0  0
    5.0743  -15.8560   -0.1804 O   0  0  0  0  0  0  0  0  0  0  0  0
    5.3226  -16.4791    0.5203 H   0  0  0  0  0  0  0  0  0  0  0  0
  1  2  1  0  0  0
  1 16  1  0  0  0
  1  9  1  0  0  0
  2  3  1  0  0  0
  2  6  1  0  0  0
  3  4  1  0  0  0
  3  7  1  0  0  0
  4 19  1  0  0  0
  4  8  1  0  0  0
 19 20  1  0  0  0
 14 15  1  0  0  0
 14 16  1  0  0  0
 14 17  2  0  0  0
  5 10  1  0  0  0
  8  9  1  0  0  0
  9 10  2  0  0  0
 16 18  1  0  0  0
  5 11  1  0  0  0
  6 12  1  0  0  0
  7 13  1  0  0  0
 20 21  1  0  0  0
M  END
> <minimizedAffinity>
-7.64495

$$$$
2XM2_LOG_A_1000


 21 21  0  0  0  0  0  0  0  0999 V2000
    5.9848  -15.2168    1.4891 C   0  0  0  0  0  0  0  0  0  0  0  0
    5.8016  -13.8951    0.7369 C   0  0  0  0  0  0  0  0  0  0  0  0
    5.7212  -12.7440    1.7423 C   0  0  0  0  0  0  0  0  0  0  0  0
    7.0525  -12.6312    2.4815 C   0  0  0  0  0  0  0  0  0  0  0  0
    7.5494  -15.9785    4.6285 O   0  0  0  0  0  0  0  0  0  0  0  0
    4.5697  -14.0071   -0.0129 O   0  0  0  0  0  0  0  0  0  0  0  0
    5.4968  -11.5300    1.0177 O   0  0  0  0  0  0  0  0  0  0  0  0
    7.1840  -13.7753    3.3368 O   0  0  0  0  0  0  0  0  0  0  0  0
    6.7159  -15.0235    2.7849 C   0  0  0  0  0  0  0  0  0  0  0  0
    6.8896  -16.0855    3.4380 N   0  0  0  0  0  0  0  0  0  0  0  0
    7.7021  -16.7420    5.1497 H   0  0  0  0  0  0  0  0  0  0  0  0
    3.8357  -14.1851    0.5959 H   0  0  0  0  0  0  0  0  0  0  0  0
    6.2228  -11.3893    0.3900 H   0  0  0  0  0  0  0  0  0  0  0  0
    5.8699  -17.2203    0.0267 C   0  0  0  0  0  0  0  0  0  0  0  0
    6.5598  -18.3742   -0.6826 C   0  0  0  0  0  0  0  0  0  0  0  0
    6.6627  -16.3093    0.7233 N   0  0  0  0  0  0  0  0  0  0  0  0
    4.6340  -17.1091   -0.0127 O   0  0  0  0  0  0  0  0  0  0  0  0
    7.6444  -16.3829    0.7117 H   0  0  0  0  0  0  0  0  0  0  0  0
    7.1424  -11.3766    3.3667 C   0  0  0  0  0  0  0  0  0  0  0  0
    5.7752  -10.9740    3.6781 O   0  0  0  0  0  0  0  0  0  0  0  0
    5.2952  -10.7952    2.8544 H   0  0  0  0  0  0  0  0  0  0  0  0
  1  2  1  0  0  0
  1 16  1  0  0  0
  1  9  1  0  0  0
  2  3  1  0  0  0
  2  6  1  0  0  0
  3  4  1  0  0  0
  3  7  1  0  0  0
  4 19  1  0  0  0
  4  8  1  0  0  0
 19 20  1  0  0  0
 14 15  1  0  0  0
 14 16  1  0  0  0
 14 17  2  0  0  0
  5 10  1  0  0  0
  8  9  1  0  0  0
  9 10  2  0  0  0
 16 18  1  0  0  0
  5 11  1  0  0  0
  6 12  1  0  0  0
  7 13  1  0  0  0
 20 21  1  0  0  0
M  END
> <minimizedAffinity>
-7.01492

$$$$
2XM2_LOG_A_1000


 21 21  0  0  0  0  0  0  0  0999 V2000
    6.5275  -14.6372    2.2994 C   0  0  0  0  0  0  0  0  0  0  0  0
    6.1258  -13.6108    3.3630 C   0  0  0  0  0  0  0  0  0  0  0  0
    6.2609  -12.1998    2.7856 C   0  0  0  0  0  0  0  0  0  0  0  0
    5.2688  -12.0320    1.6371 C   0  0  0  0  0  0  0  0  0  0  0  0
    6.3373  -14.5591   -1.2841 O   0  0  0  0  0  0  0  0  0  0  0  0
    7.0236  -13.7940    4.4823 O   0  0  0  0  0  0  0  0  0  0  0  0
    5.9318  -11.2604    3.8144 O   0  0  0  0  0  0  0  0  0  0  0  0
    5.7096  -12.8522    0.5459 O   0  0  0  0  0  0  0  0  0  0  0  0
    6.2498  -14.1391    0.9117 C   0  0  0  0  0  0  0  0  0  0  0  0
    6.5647  -14.9519    0.0036 N   0  0  0  0  0  0  0  0  0  0  0  0
    6.5556  -15.1307   -1.9938 H   0  0  0  0  0  0  0  0  0  0  0  0
    7.9392  -13.6728    4.1856 H   0  0  0  0  0  0  0  0  0  0  0  0
    5.0261  -11.4217    4.1218 H   0  0  0  0  0  0  0  0  0  0  0  0
    6.6331  -16.9765    3.1253 C   0  0  0  0  0  0  0  0  0  0  0  0
    6.0412  -18.3746    3.2003 C   0  0  0  0  0  0  0  0  0  0  0  0
    5.9143  -15.9946    2.4451 N   0  0  0  0  0  0  0  0  0  0  0  0
    7.7310  -16.7316    3.6507 O   0  0  0  0  0  0  0  0  0  0  0  0
    5.0253  -16.1893    2.0698 H   0  0  0  0  0  0  0  0  0  0  0  0
    5.1837  -10.5841    1.1251 C   0  0  0  0  0  0  0  0  0  0  0  0
    6.5504  -10.0825    1.0313 O   0  0  0  0  0  0  0  0  0  0  0  0
    6.9720  -10.1277    1.9037 H   0  0  0  0  0  0  0  0  0  0  0  0
  1  2  1  0  0  0
  1 16  1  0  0  0
  1  9  1  0  0  0
  2  3  1  0  0  0
  2  6  1  0  0  0
  3  4  1  0  0  0
  3  7  1  0  0  0
  4 19  1  0  0  0
  4  8  1  0  0  0
 19 20  1  0  0  0
 14 15  1  0  0  0
 14 16  1  0  0  0
 14 17  2  0  0  0
  5 10  1  0  0  0
  8  9  1  0  0  0
  9 10  2  0  0  0
 16 18  1  0  0  0
  5 11  1  0  0  0
  6 12  1  0  0  0
  7 13  1  0  0  0
 20 21  1  0  0  0
M  END
> <minimizedAffinity>
-6.97205

$$$$
2XM2_LOG_A_1000


 21 21  0  0  0  0  0  0  0  0999 V2000
    6.2953  -13.9414    3.0751 C   0  0  0  0  0  0  0  0  0  0  0  0
    5.6284  -13.5832    1.7435 C   0  0  0  0  0  0  0  0  0  0  0  0
    5.2806  -12.0928    1.7329 C   0  0  0  0  0  0  0  0  0  0  0  0
    6.5701  -11.2775    1.7951 C   0  0  0  0  0  0  0  0  0  0  0  0
    8.3132  -12.0094    5.3288 O   0  0  0  0  0  0  0  0  0  0  0  0
    4.4313  -14.3891    1.6444 O   0  0  0  0  0  0  0  0  0  0  0  0
    4.6119  -11.7967    0.5023 O   0  0  0  0  0  0  0  0  0  0  0  0
    7.1414  -11.4487    3.0998 O   0  0  0  0  0  0  0  0  0  0  0  0
    7.0463  -12.7780    3.6526 C   0  0  0  0  0  0  0  0  0  0  0  0
    7.6118  -13.0273    4.7492 N   0  0  0  0  0  0  0  0  0  0  0  0
    8.7510  -12.1477    6.1457 H   0  0  0  0  0  0  0  0  0  0  0  0
    3.8544  -14.2056    2.4022 H   0  0  0  0  0  0  0  0  0  0  0  0
    5.1915  -12.0206   -0.2426 H   0  0  0  0  0  0  0  0  0  0  0  0
    6.6768  -16.3826    3.3212 C   0  0  0  0  0  0  0  0  0  0  0  0
    7.6258  -17.5691    3.3667 C   0  0  0  0  0  0  0  0  0  0  0  0
    7.2105  -15.1250    3.0434 N   0  0  0  0  0  0  0  0  0  0  0  0
    5.4645  -16.5409    3.5369 O   0  0  0  0  0  0  0  0  0  0  0  0
    8.1660  -15.0182    2.8316 H   0  0  0  0  0  0  0  0  0  0  0  0
    6.3383   -9.7718    1.5834 C   0  0  0  0  0  0  0  0  0  0  0  0
    7.2988   -9.0684    2.4265 O   0  0  0  0  0  0  0  0  0  0  0  0
    7.1634   -9.3229    3.3527 H   0  0  0  0  0  0  0  0  0  0  0  0
  1  2  1  0  0  0
  1 16  1  0  0  0
  1  9  1  0  0  0
  2  3  1  0  0  0
  2  6  1  0  0  0
  3  4  1  0  0  0
  3  7  1  0  0  0
  4 19  1  0  0  0
  4  8  1  0  0  0
 19 20  1  0  0  0
 14 15  1  0  0  0
 14 16  1  0  0  0
 14 17  2  0  0  0
  5 10  1  0  0  0
  8  9  1  0  0  0
  9 10  2  0  0  0
 16 18  1  0  0  0
  5 11  1  0  0  0
  6 12  1  0  0  0
  7 13  1  0  0  0
 20 21  1  0  0  0
M  END
> <minimizedAffinity>
-6.83861

$$$$
2XM2_LOG_A_1000


 21 21  0  0  0  0  0  0  0  0999 V2000
    6.6618  -10.7990    2.7022 C   0  0  0  0  0  0  0  0  0  0  0  0
    5.3531  -11.4510    2.2457 C   0  0  0  0  0  0  0  0  0  0  0  0
    5.6678  -12.6542    1.3537 C   0  0  0  0  0  0  0  0  0  0  0  0
    6.4033  -13.7090    2.1771 C   0  0  0  0  0  0  0  0  0  0  0  0
    9.9320  -12.1616    3.2792 O   0  0  0  0  0  0  0  0  0  0  0  0
    4.6189  -10.4457    1.5091 O   0  0  0  0  0  0  0  0  0  0  0  0
    4.4302  -13.2113    0.8985 O   0  0  0  0  0  0  0  0  0  0  0  0
    7.7110  -13.2033    2.4805 O   0  0  0  0  0  0  0  0  0  0  0  0
    7.7776  -11.7975    2.7984 C   0  0  0  0  0  0  0  0  0  0  0  0
    8.8744  -11.3050    3.1711 N   0  0  0  0  0  0  0  0  0  0  0  0
   10.7687  -11.8408    3.5532 H   0  0  0  0  0  0  0  0  0  0  0  0
    5.1538  -10.1382    0.7606 H   0  0  0  0  0  0  0  0  0  0  0  0
    3.8958  -13.4791    1.6624 H   0  0  0  0  0  0  0  0  0  0  0  0
    6.4944  -10.7655    5.1794 C   0  0  0  0  0  0  0  0  0  0  0  0
    6.3439   -9.9911    6.4787 C   0  0  0  0  0  0  0  0  0  0  0  0
    6.5932  -10.0424    3.9915 N   0  0  0  0  0  0  0  0  0  0  0  0
    6.5173  -12.0067    5.1885 O   0  0  0  0  0  0  0  0  0  0  0  0
    6.6172   -9.0583    4.0007 H   0  0  0  0  0  0  0  0  0  0  0  0
    6.5824  -15.0388    1.4254 C   0  0  0  0  0  0  0  0  0  0  0  0
    5.4225  -15.8666    1.7382 O   0  0  0  0  0  0  0  0  0  0  0  0
    5.3720  -16.0033    2.6972 H   0  0  0  0  0  0  0  0  0  0  0  0
  1  2  1  0  0  0
  1 16  1  0  0  0
  1  9  1  0  0  0
  2  3  1  0  0  0
  2  6  1  0  0  0
  3  4  1  0  0  0
  3  7  1  0  0  0
  4 19  1  0  0  0
  4  8  1  0  0  0
 19 20  1  0  0  0
 14 15  1  0  0  0
 14 16  1  0  0  0
 14 17  2  0  0  0
  5 10  1  0  0  0
  8  9  1  0  0  0
  9 10  2  0  0  0
 16 18  1  0  0  0
  5 11  1  0  0  0
  6 12  1  0  0  0
  7 13  1  0  0  0
 20 21  1  0  0  0
M  END
> <minimizedAffinity>
-6.68311

$$$$
2XM2_LOG_A_1000


 21 21  0  0  0  0  0  0  0  0999 V2000
    6.0312  -15.0082    0.7059 C   0  0  0  0  0  0  0  0  0  0  0  0
    6.7194  -15.5150    1.9771 C   0  0  0  0  0  0  0  0  0  0  0  0
    7.5133  -16.7833    1.6551 C   0  0  0  0  0  0  0  0  0  0  0  0
    8.6321  -16.4382    0.6750 C   0  0  0  0  0  0  0  0  0  0  0  0
    6.9332  -15.2623   -2.7590 O   0  0  0  0  0  0  0  0  0  0  0  0
    5.6736  -15.7953    2.9363 O   0  0  0  0  0  0  0  0  0  0  0  0
    8.1012  -17.2649    2.8682 O   0  0  0  0  0  0  0  0  0  0  0  0
    8.0331  -16.1233   -0.5899 O   0  0  0  0  0  0  0  0  0  0  0  0
    6.8065  -15.3662   -0.5277 C   0  0  0  0  0  0  0  0  0  0  0  0
    6.2770  -14.9686   -1.5983 N   0  0  0  0  0  0  0  0  0  0  0  0
    6.5774  -14.9869   -3.5809 H   0  0  0  0  0  0  0  0  0  0  0  0
    5.0625  -16.4513    2.5660 H   0  0  0  0  0  0  0  0  0  0  0  0
    8.6799  -16.5813    3.2406 H   0  0  0  0  0  0  0  0  0  0  0  0
    4.5085  -13.0997    1.1581 C   0  0  0  0  0  0  0  0  0  0  0  0
    4.1830  -11.6193    1.0446 C   0  0  0  0  0  0  0  0  0  0  0  0
    5.7372  -13.5413    0.6695 N   0  0  0  0  0  0  0  0  0  0  0  0
    3.6906  -13.8843    1.6646 O   0  0  0  0  0  0  0  0  0  0  0  0
    6.3954  -12.9039    0.3093 H   0  0  0  0  0  0  0  0  0  0  0  0
    9.6111  -17.6026    0.4484 C   0  0  0  0  0  0  0  0  0  0  0  0
   10.6897  -17.4495    1.4186 O   0  0  0  0  0  0  0  0  0  0  0  0
   11.1216  -16.5906    1.2891 H   0  0  0  0  0  0  0  0  0  0  0  0
  1  2  1  0  0  0
  1 16  1  0  0  0
  1  9  1  0  0  0
  2  3  1  0  0  0
  2  6  1  0  0  0
  3  4  1  0  0  0
  3  7  1  0  0  0
  4 19  1  0  0  0
  4  8  1  0  0  0
 19 20  1  0  0  0
 14 15  1  0  0  0
 14 16  1  0  0  0
 14 17  2  0  0  0
  5 10  1  0  0  0
  8  9  1  0  0  0
  9 10  2  0  0  0
 16 18  1  0  0  0
  5 11  1  0  0  0
  6 12  1  0  0  0
  7 13  1  0  0  0
 20 21  1  0  0  0
M  END
> <minimizedAffinity>
-6.65454

$$$$
2XM2_LOG_A_1000


 21 21  0  0  0  0  0  0  0  0999 V2000
    6.5021  -11.4674    1.4268 C   0  0  0  0  0  0  0  0  0  0  0  0
    7.8342  -11.1165    2.0964 C   0  0  0  0  0  0  0  0  0  0  0  0
    7.5690  -10.2797    3.3502 C   0  0  0  0  0  0  0  0  0  0  0  0
    6.7949  -11.1233    4.3604 C   0  0  0  0  0  0  0  0  0  0  0  0
    3.2101  -11.9531    2.7724 O   0  0  0  0  0  0  0  0  0  0  0  0
    8.6027  -10.3622    1.1306 O   0  0  0  0  0  0  0  0  0  0  0  0
    8.8298   -9.9211    3.9254 O   0  0  0  0  0  0  0  0  0  0  0  0
    5.4720  -11.3300    3.8455 O   0  0  0  0  0  0  0  0  0  0  0  0
    5.3855  -11.5632    2.4243 C   0  0  0  0  0  0  0  0  0  0  0  0
    4.2696  -11.8505    1.9175 N   0  0  0  0  0  0  0  0  0  0  0  0
    2.3596  -12.1651    2.4412 H   0  0  0  0  0  0  0  0  0  0  0  0
    8.1062   -9.5709    0.8692 H   0  0  0  0  0  0  0  0  0  0  0  0
    9.3249  -10.7255    4.1463 H   0  0  0  0  0  0  0  0  0  0  0  0
    6.7794  -13.9267    1.2254 C   0  0  0  0  0  0  0  0  0  0  0  0
    6.8576  -15.1769    0.3645 C   0  0  0  0  0  0  0  0  0  0  0  0
    6.5023  -12.7132    0.5976 N   0  0  0  0  0  0  0  0  0  0  0  0
    6.9687  -13.9962    2.4504 O   0  0  0  0  0  0  0  0  0  0  0  0
    6.3114  -12.6767   -0.3675 H   0  0  0  0  0  0  0  0  0  0  0  0
    6.6582  -10.4408    5.7319 C   0  0  0  0  0  0  0  0  0  0  0  0
    7.9264  -10.6240    6.4292 O   0  0  0  0  0  0  0  0  0  0  0  0
    8.1116  -11.5719    6.5198 H   0  0  0  0  0  0  0  0  0  0  0  0
  1  2  1  0  0  0
  1 16  1  0  0  0
  1  9  1  0  0  0
  2  3  1  0  0  0
  2  6  1  0  0  0
  3  4  1  0  0  0
  3  7  1  0  0  0
  4 19  1  0  0  0
  4  8  1  0  0  0
 19 20  1  0  0  0
 14 15  1  0  0  0
 14 16  1  0  0  0
 14 17  2  0  0  0
  5 10  1  0  0  0
  8  9  1  0  0  0
  9 10  2  0  0  0
 16 18  1  0  0  0
  5 11  1  0  0  0
  6 12  1  0  0  0
  7 13  1  0  0  0
 20 21  1  0  0  0
M  END
> <minimizedAffinity>
-6.55767

$$$$
2XM2_LOG_A_1000


 21 21  0  0  0  0  0  0  0  0999 V2000
    6.2811  -14.1036    0.9193 C   0  0  0  0  0  0  0  0  0  0  0  0
    6.3568  -15.2476   -0.0964 C   0  0  0  0  0  0  0  0  0  0  0  0
    7.4582  -16.2256    0.3194 C   0  0  0  0  0  0  0  0  0  0  0  0
    7.0816  -16.8659    1.6534 C   0  0  0  0  0  0  0  0  0  0  0  0
    7.0265  -13.9748    4.4282 O   0  0  0  0  0  0  0  0  0  0  0  0
    6.6597  -14.6502   -1.3785 O   0  0  0  0  0  0  0  0  0  0  0  0
    7.5435  -17.2538   -0.6729 O   0  0  0  0  0  0  0  0  0  0  0  0
    7.1683  -15.8578    2.6703 O   0  0  0  0  0  0  0  0  0  0  0  0
    6.7022  -14.5465    2.2896 C   0  0  0  0  0  0  0  0  0  0  0  0
    6.6554  -13.6369    3.1584 N   0  0  0  0  0  0  0  0  0  0  0  0
    7.0079  -13.3310    5.1087 H   0  0  0  0  0  0  0  0  0  0  0  0
    7.4948  -14.1605   -1.3178 H   0  0  0  0  0  0  0  0  0  0  0  0
    6.6888  -17.7070   -0.7432 H   0  0  0  0  0  0  0  0  0  0  0  0
    4.9227  -12.0296    1.0557 C   0  0  0  0  0  0  0  0  0  0  0  0
    3.5790  -11.3459    1.2499 C   0  0  0  0  0  0  0  0  0  0  0  0
    4.9529  -13.4231    1.0307 N   0  0  0  0  0  0  0  0  0  0  0  0
    5.9576  -11.3548    0.9339 O   0  0  0  0  0  0  0  0  0  0  0  0
    4.1210  -13.9467    1.0850 H   0  0  0  0  0  0  0  0  0  0  0  0
    8.0240  -18.0132    2.0550 C   0  0  0  0  0  0  0  0  0  0  0  0
    9.3859  -17.5581    1.7974 O   0  0  0  0  0  0  0  0  0  0  0  0
    9.4793  -17.3324    0.8587 H   0  0  0  0  0  0  0  0  0  0  0  0
  1  2  1  0  0  0
  1 16  1  0  0  0
  1  9  1  0  0  0
  2  3  1  0  0  0
  2  6  1  0  0  0
  3  4  1  0  0  0
  3  7  1  0  0  0
  4 19  1  0  0  0
  4  8  1  0  0  0
 19 20  1  0  0  0
 14 15  1  0  0  0
 14 16  1  0  0  0
 14 17  2  0  0  0
  5 10  1  0  0  0
  8  9  1  0  0  0
  9 10  2  0  0  0
 16 18  1  0  0  0
  5 11  1  0  0  0
  6 12  1  0  0  0
  7 13  1  0  0  0
 20 21  1  0  0  0
M  END
> <minimizedAffinity>
-6.53445

$$$$
