2PYM_1UN_A_1001


 44 47  0  0  0  0  0  0  0  0999 V2000
   -9.5323   16.5847   27.1530 C   0  0  0  0  0  0  0  0  0  0  0  0
  -10.6525   17.4334   27.4738 O   0  0  0  0  0  0  0  0  0  0  0  0
  -11.3802   17.2551   26.8577 H   0  0  0  0  0  0  0  0  0  0  0  0
   -9.0020   16.8908   25.7532 C   0  0  0  0  0  0  0  0  0  0  0  0
   -5.3017   17.4958   26.3779 C   0  0  0  0  0  0  0  0  0  0  0  0
   -4.7900   17.2976   24.9442 C   0  0  0  0  0  0  0  0  0  0  0  0
   -3.3045   16.9201   24.8878 C   0  0  0  0  0  0  0  0  0  0  0  0
   -2.9633   15.7568   25.8208 C   0  0  0  0  0  0  0  0  0  0  0  0
   -3.4004   16.0778   27.2492 C   0  0  0  0  0  0  0  0  0  0  0  0
   -4.9028   16.3498   27.3186 C   0  0  0  0  0  0  0  0  0  0  0  0
   -7.5478   16.6423   25.6898 N   0  0  0  0  0  0  0  0  0  0  0  0
   -7.1105   16.5350   24.2810 C   0  0  0  0  0  0  0  0  0  0  0  0
   -5.6094   16.2582   24.1796 C   0  0  0  0  0  0  0  0  0  0  0  0
   -6.8205   17.7191   26.4036 C   0  0  0  0  0  0  0  0  0  0  0  0
   -7.7942   15.3929   23.5929 C   0  0  0  0  0  0  0  0  0  0  0  0
   -8.2983   15.7146   22.4067 N   0  0  0  0  0  0  0  0  0  0  0  0
   -7.8362   14.2870   24.1197 O   0  0  0  0  0  0  0  0  0  0  0  0
   -8.2618   16.6690   22.1678 H   0  0  0  0  0  0  0  0  0  0  0  0
   -8.8982   14.8323   21.4155 C   0  0  0  0  0  0  0  0  0  0  0  0
  -10.2712   14.4100   21.9088 C   0  0  0  0  0  0  0  0  0  0  0  0
   -8.0063   13.6302   21.1424 C   0  0  0  0  0  0  0  0  0  0  0  0
   -9.0359   15.6144   20.1129 C   0  0  0  0  0  0  0  0  0  0  0  0
   -9.8643   15.1062   27.3394 C   0  0  0  0  0  0  0  0  0  0  0  0
  -10.3279   14.9389   28.7001 N   0  0  0  0  0  0  0  0  0  0  0  0
   -9.6549   14.2855   29.6477 C   0  0  0  0  0  0  0  0  0  0  0  0
   -8.5491   13.7903   29.4938 O   0  0  0  0  0  0  0  0  0  0  0  0
  -11.1970   15.3332   28.9418 H   0  0  0  0  0  0  0  0  0  0  0  0
  -10.3381   14.1558   30.9675 C   0  0  0  0  0  0  0  0  0  0  0  0
  -11.4968   13.3794   31.0581 C   0  0  0  0  0  0  0  0  0  0  0  0
  -12.1717   13.2307   32.2667 C   0  0  0  0  0  0  0  0  0  0  0  0
  -11.7181   13.8545   33.4298 C   0  0  0  0  0  0  0  0  0  0  0  0
  -10.5747   14.6469   33.4325 C   0  0  0  0  0  0  0  0  0  0  0  0
   -9.8198   14.8476   32.1743 C   0  0  0  0  0  0  0  0  0  0  0  0
  -10.1682   15.2416   34.5815 O   0  0  0  0  0  0  0  0  0  0  0  0
   -8.5659   15.6979   32.1385 C   0  0  0  0  0  0  0  0  0  0  0  0
  -10.6512   15.1097   35.3736 H   0  0  0  0  0  0  0  0  0  0  0  0
  -10.9101   14.5750   26.3597 C   0  0  0  0  0  0  0  0  0  0  0  0
  -10.9073   12.8096   26.3727 S   0  0  0  0  0  0  0  0  0  0  0  0
  -12.1236   12.3208   27.4629 C   0  0  0  0  0  0  0  0  0  0  0  0
  -12.0268   11.0961   28.1265 C   0  0  0  0  0  0  0  0  0  0  0  0
  -13.0236   10.6988   29.0215 C   0  0  0  0  0  0  0  0  0  0  0  0
  -14.1248   11.5210   29.2603 C   0  0  0  0  0  0  0  0  0  0  0  0
  -14.2266   12.7491   28.6056 C   0  0  0  0  0  0  0  0  0  0  0  0
  -13.2325   13.1410   27.7065 C   0  0  0  0  0  0  0  0  0  0  0  0
  5  6  1  0  0  0
  5 10  1  0  0  0
  5 14  1  0  0  0
  6  7  1  0  0  0
  6 13  1  0  0  0
  7  8  1  0  0  0
  8  9  1  0  0  0
  9 10  1  0  0  0
 11 12  1  0  0  0
 11 14  1  0  0  0
 11  4  1  0  0  0
 12 13  1  0  0  0
 12 15  1  0  0  0
 15 16  1  0  0  0
 15 17  2  0  0  0
 16 19  1  0  0  0
 19 20  1  0  0  0
 19 21  1  0  0  0
 19 22  1  0  0  0
  4  1  1  0  0  0
  1 23  1  0  0  0
  1  2  1  0  0  0
 23 24  1  0  0  0
 23 37  1  0  0  0
 24 25  1  0  0  0
 37 38  1  0  0  0
 25 26  2  0  0  0
 25 28  1  0  0  0
 28 29  2  0  0  0
 28 33  1  0  0  0
 29 30  1  0  0  0
 30 31  2  0  0  0
 31 32  1  0  0  0
 32 33  2  0  0  0
 32 34  1  0  0  0
 33 35  1  0  0  0
 38 39  1  0  0  0
 39 40  2  0  0  0
 39 44  1  0  0  0
 40 41  1  0  0  0
 41 42  2  0  0  0
 42 43  1  0  0  0
 43 44  2  0  0  0
 16 18  1  0  0  0
  2  3  1  0  0  0
 24 27  1  0  0  0
 34 36  1  0  0  0
M  END
> <minimizedAffinity>
-11.19421

$$$$
2PYM_1UN_A_1001


 44 47  0  0  0  0  0  0  0  0999 V2000
   -9.6285   16.5180   26.8426 C   0  0  0  0  0  0  0  0  0  0  0  0
   -9.9084   17.9110   26.5989 O   0  0  0  0  0  0  0  0  0  0  0  0
   -9.3684   18.4577   27.1909 H   0  0  0  0  0  0  0  0  0  0  0  0
  -10.0145   16.1275   28.2683 C   0  0  0  0  0  0  0  0  0  0  0  0
  -12.4194   13.2840   27.5077 C   0  0  0  0  0  0  0  0  0  0  0  0
  -12.5811   12.7312   28.9307 C   0  0  0  0  0  0  0  0  0  0  0  0
  -13.0309   11.2651   28.9538 C   0  0  0  0  0  0  0  0  0  0  0  0
  -12.1712   10.3779   28.0515 C   0  0  0  0  0  0  0  0  0  0  0  0
  -12.1533   10.9305   26.6272 C   0  0  0  0  0  0  0  0  0  0  0  0
  -11.6042   12.3565   26.5954 C   0  0  0  0  0  0  0  0  0  0  0  0
  -10.5585   14.7550   28.2949 N   0  0  0  0  0  0  0  0  0  0  0  0
  -10.7580   14.3133   29.6922 C   0  0  0  0  0  0  0  0  0  0  0  0
  -11.3039   12.8857   29.7562 C   0  0  0  0  0  0  0  0  0  0  0  0
  -11.8222   14.6983   27.5217 C   0  0  0  0  0  0  0  0  0  0  0  0
   -9.4599   14.2990   30.4406 C   0  0  0  0  0  0  0  0  0  0  0  0
   -9.4892   15.0058   31.5650 N   0  0  0  0  0  0  0  0  0  0  0  0
   -8.5039   13.6631   30.0119 O   0  0  0  0  0  0  0  0  0  0  0  0
  -10.3052   15.5341   31.7204 H   0  0  0  0  0  0  0  0  0  0  0  0
   -8.4652   15.0971   32.5965 C   0  0  0  0  0  0  0  0  0  0  0  0
   -7.3759   16.0408   32.1173 C   0  0  0  0  0  0  0  0  0  0  0  0
   -7.9072   13.7229   32.9360 C   0  0  0  0  0  0  0  0  0  0  0  0
   -9.1168   15.6585   33.8565 C   0  0  0  0  0  0  0  0  0  0  0  0
   -8.1814   16.1603   26.5124 C   0  0  0  0  0  0  0  0  0  0  0  0
   -7.9984   16.3792   25.0936 N   0  0  0  0  0  0  0  0  0  0  0  0
   -7.6982   15.4193   24.2182 C   0  0  0  0  0  0  0  0  0  0  0  0
   -7.5867   14.2362   24.5006 O   0  0  0  0  0  0  0  0  0  0  0  0
   -8.1023   17.2969   24.7525 H   0  0  0  0  0  0  0  0  0  0  0  0
   -7.4736   15.8606   22.8111 C   0  0  0  0  0  0  0  0  0  0  0  0
   -6.2990   16.5489   22.4953 C   0  0  0  0  0  0  0  0  0  0  0  0
   -6.0455   16.9840   21.1973 C   0  0  0  0  0  0  0  0  0  0  0  0
   -6.9568   16.7521   20.1660 C   0  0  0  0  0  0  0  0  0  0  0  0
   -8.1523   16.0765   20.3890 C   0  0  0  0  0  0  0  0  0  0  0  0
   -8.4793   15.5969   21.7515 C   0  0  0  0  0  0  0  0  0  0  0  0
   -9.0155   15.8752   19.3626 O   0  0  0  0  0  0  0  0  0  0  0  0
   -9.7683   14.8511   22.0326 C   0  0  0  0  0  0  0  0  0  0  0  0
   -8.8014   16.1817   18.5034 H   0  0  0  0  0  0  0  0  0  0  0  0
   -7.1467   16.9590   27.3044 C   0  0  0  0  0  0  0  0  0  0  0  0
   -5.5887   16.1294   27.2698 S   0  0  0  0  0  0  0  0  0  0  0  0
   -4.6759   16.8427   26.0187 C   0  0  0  0  0  0  0  0  0  0  0  0
   -3.7599   16.0812   25.2904 C   0  0  0  0  0  0  0  0  0  0  0  0
   -3.0148   16.6674   24.2638 C   0  0  0  0  0  0  0  0  0  0  0  0
   -3.1783   18.0182   23.9571 C   0  0  0  0  0  0  0  0  0  0  0  0
   -4.0959   18.7852   24.6763 C   0  0  0  0  0  0  0  0  0  0  0  0
   -4.8345   18.1988   25.7063 C   0  0  0  0  0  0  0  0  0  0  0  0
  5  6  1  0  0  0
  5 10  1  0  0  0
  5 14  1  0  0  0
  6  7  1  0  0  0
  6 13  1  0  0  0
  7  8  1  0  0  0
  8  9  1  0  0  0
  9 10  1  0  0  0
 11 12  1  0  0  0
 11 14  1  0  0  0
 11  4  1  0  0  0
 12 13  1  0  0  0
 12 15  1  0  0  0
 15 16  1  0  0  0
 15 17  2  0  0  0
 16 19  1  0  0  0
 19 20  1  0  0  0
 19 21  1  0  0  0
 19 22  1  0  0  0
  4  1  1  0  0  0
  1 23  1  0  0  0
  1  2  1  0  0  0
 23 24  1  0  0  0
 23 37  1  0  0  0
 24 25  1  0  0  0
 37 38  1  0  0  0
 25 26  2  0  0  0
 25 28  1  0  0  0
 28 29  2  0  0  0
 28 33  1  0  0  0
 29 30  1  0  0  0
 30 31  2  0  0  0
 31 32  1  0  0  0
 32 33  2  0  0  0
 32 34  1  0  0  0
 33 35  1  0  0  0
 38 39  1  0  0  0
 39 40  2  0  0  0
 39 44  1  0  0  0
 40 41  1  0  0  0
 41 42  2  0  0  0
 42 43  1  0  0  0
 43 44  2  0  0  0
 16 18  1  0  0  0
  2  3  1  0  0  0
 24 27  1  0  0  0
 34 36  1  0  0  0
M  END
> <minimizedAffinity>
-11.08050

$$$$
2PYM_1UN_A_1001


 44 47  0  0  0  0  0  0  0  0999 V2000
   -8.0459   14.3027   28.1110 C   0  0  0  0  0  0  0  0  0  0  0  0
   -7.5169   13.2976   27.2231 O   0  0  0  0  0  0  0  0  0  0  0  0
   -7.1246   13.7264   26.4465 H   0  0  0  0  0  0  0  0  0  0  0  0
   -9.1680   15.0888   27.4348 C   0  0  0  0  0  0  0  0  0  0  0  0
   -8.7737   15.6172   23.6914 C   0  0  0  0  0  0  0  0  0  0  0  0
  -10.1615   15.1380   23.2430 C   0  0  0  0  0  0  0  0  0  0  0  0
  -10.1918   14.6851   21.7779 C   0  0  0  0  0  0  0  0  0  0  0  0
   -9.0723   13.6950   21.4511 C   0  0  0  0  0  0  0  0  0  0  0  0
   -7.7144   14.2903   21.8200 C   0  0  0  0  0  0  0  0  0  0  0  0
   -7.6517   14.6428   23.3058 C   0  0  0  0  0  0  0  0  0  0  0  0
   -9.2277   14.7629   25.9959 N   0  0  0  0  0  0  0  0  0  0  0  0
  -10.6055   14.3810   25.6171 C   0  0  0  0  0  0  0  0  0  0  0  0
  -10.6988   14.0182   24.1339 C   0  0  0  0  0  0  0  0  0  0  0  0
   -8.7445   15.9148   25.1973 C   0  0  0  0  0  0  0  0  0  0  0  0
  -11.0528   13.1675   26.3738 C   0  0  0  0  0  0  0  0  0  0  0  0
  -12.2232   13.3246   26.9823 N   0  0  0  0  0  0  0  0  0  0  0  0
  -10.3668   12.1519   26.3787 O   0  0  0  0  0  0  0  0  0  0  0  0
  -12.6028   14.2327   26.9579 H   0  0  0  0  0  0  0  0  0  0  0  0
  -13.0150   12.3218   27.6810 C   0  0  0  0  0  0  0  0  0  0  0  0
  -13.3408   11.1986   26.7120 C   0  0  0  0  0  0  0  0  0  0  0  0
  -14.2754   12.9352   28.2727 C   0  0  0  0  0  0  0  0  0  0  0  0
  -12.1756   11.7809   28.8345 C   0  0  0  0  0  0  0  0  0  0  0  0
   -6.9498   15.2106   28.6632 C   0  0  0  0  0  0  0  0  0  0  0  0
   -6.1843   15.6946   27.5344 N   0  0  0  0  0  0  0  0  0  0  0  0
   -4.9983   16.2958   27.6336 C   0  0  0  0  0  0  0  0  0  0  0  0
   -4.3966   16.4691   28.6823 O   0  0  0  0  0  0  0  0  0  0  0  0
   -6.5641   15.5719   26.6344 H   0  0  0  0  0  0  0  0  0  0  0  0
   -4.4051   16.7925   26.3582 C   0  0  0  0  0  0  0  0  0  0  0  0
   -3.2865   16.1409   25.8314 C   0  0  0  0  0  0  0  0  0  0  0  0
   -2.6952   16.5689   24.6458 C   0  0  0  0  0  0  0  0  0  0  0  0
   -3.1957   17.6660   23.9431 C   0  0  0  0  0  0  0  0  0  0  0  0
   -4.3043   18.3752   24.3939 C   0  0  0  0  0  0  0  0  0  0  0  0
   -4.9701   17.9704   25.6534 C   0  0  0  0  0  0  0  0  0  0  0  0
   -4.7580   19.4396   23.6866 O   0  0  0  0  0  0  0  0  0  0  0  0
   -6.1842   18.7136   26.1733 C   0  0  0  0  0  0  0  0  0  0  0  0
   -4.3314   19.6895   22.8907 H   0  0  0  0  0  0  0  0  0  0  0  0
   -7.4726   16.3877   29.4860 C   0  0  0  0  0  0  0  0  0  0  0  0
   -6.9993   16.1997   31.1765 S   0  0  0  0  0  0  0  0  0  0  0  0
   -8.1872   15.2268   31.9177 C   0  0  0  0  0  0  0  0  0  0  0  0
   -7.8823   14.4898   33.0637 C   0  0  0  0  0  0  0  0  0  0  0  0
   -8.8582   13.6952   33.6709 C   0  0  0  0  0  0  0  0  0  0  0  0
  -10.1457   13.6300   33.1381 C   0  0  0  0  0  0  0  0  0  0  0  0
  -10.4605   14.3678   31.9963 C   0  0  0  0  0  0  0  0  0  0  0  0
   -9.4816   15.1560   31.3873 C   0  0  0  0  0  0  0  0  0  0  0  0
  5  6  1  0  0  0
  5 10  1  0  0  0
  5 14  1  0  0  0
  6  7  1  0  0  0
  6 13  1  0  0  0
  7  8  1  0  0  0
  8  9  1  0  0  0
  9 10  1  0  0  0
 11 12  1  0  0  0
 11 14  1  0  0  0
 11  4  1  0  0  0
 12 13  1  0  0  0
 12 15  1  0  0  0
 15 16  1  0  0  0
 15 17  2  0  0  0
 16 19  1  0  0  0
 19 20  1  0  0  0
 19 21  1  0  0  0
 19 22  1  0  0  0
  4  1  1  0  0  0
  1 23  1  0  0  0
  1  2  1  0  0  0
 23 24  1  0  0  0
 23 37  1  0  0  0
 24 25  1  0  0  0
 37 38  1  0  0  0
 25 26  2  0  0  0
 25 28  1  0  0  0
 28 29  2  0  0  0
 28 33  1  0  0  0
 29 30  1  0  0  0
 30 31  2  0  0  0
 31 32  1  0  0  0
 32 33  2  0  0  0
 32 34  1  0  0  0
 33 35  1  0  0  0
 38 39  1  0  0  0
 39 40  2  0  0  0
 39 44  1  0  0  0
 40 41  1  0  0  0
 41 42  2  0  0  0
 42 43  1  0  0  0
 43 44  2  0  0  0
 16 18  1  0  0  0
  2  3  1  0  0  0
 24 27  1  0  0  0
 34 36  1  0  0  0
M  END
> <minimizedAffinity>
-10.85558

$$$$
2PYM_1UN_A_1001


 44 47  0  0  0  0  0  0  0  0999 V2000
   -8.4354   14.1561   25.7269 C   0  0  0  0  0  0  0  0  0  0  0  0
   -7.8258   13.2004   26.6176 O   0  0  0  0  0  0  0  0  0  0  0  0
   -8.4040   13.0572   27.3831 H   0  0  0  0  0  0  0  0  0  0  0  0
   -8.5944   15.5125   26.4118 C   0  0  0  0  0  0  0  0  0  0  0  0
   -9.1523   15.4643   30.1713 C   0  0  0  0  0  0  0  0  0  0  0  0
   -8.0260   16.4221   30.5844 C   0  0  0  0  0  0  0  0  0  0  0  0
   -7.5821   16.2288   32.0397 C   0  0  0  0  0  0  0  0  0  0  0  0
   -7.2854   14.7645   32.3685 C   0  0  0  0  0  0  0  0  0  0  0  0
   -8.4947   13.8916   32.0366 C   0  0  0  0  0  0  0  0  0  0  0  0
   -8.8689   14.0060   30.5592 C   0  0  0  0  0  0  0  0  0  0  0  0
   -8.2458   15.4088   27.8428 N   0  0  0  0  0  0  0  0  0  0  0  0
   -7.2103   16.4067   28.1883 C   0  0  0  0  0  0  0  0  0  0  0  0
   -6.8117   16.3134   29.6623 C   0  0  0  0  0  0  0  0  0  0  0  0
   -9.4628   15.5796   28.6721 C   0  0  0  0  0  0  0  0  0  0  0  0
   -5.9572   16.1740   27.4003 C   0  0  0  0  0  0  0  0  0  0  0  0
   -5.5417   17.2475   26.7373 N   0  0  0  0  0  0  0  0  0  0  0  0
   -5.4066   15.0791   27.4199 O   0  0  0  0  0  0  0  0  0  0  0  0
   -6.1474   18.0234   26.7512 H   0  0  0  0  0  0  0  0  0  0  0  0
   -4.3022   17.4201   25.9924 C   0  0  0  0  0  0  0  0  0  0  0  0
   -4.3305   16.5018   24.7830 C   0  0  0  0  0  0  0  0  0  0  0  0
   -3.0922   17.1493   26.8741 C   0  0  0  0  0  0  0  0  0  0  0  0
   -4.2281   18.8737   25.5350 C   0  0  0  0  0  0  0  0  0  0  0  0
   -9.7497   13.6388   25.1474 C   0  0  0  0  0  0  0  0  0  0  0  0
  -10.5762   13.2248   26.2610 N   0  0  0  0  0  0  0  0  0  0  0  0
  -11.6758   12.4798   26.1439 C   0  0  0  0  0  0  0  0  0  0  0  0
  -12.0910   12.0207   25.0910 O   0  0  0  0  0  0  0  0  0  0  0  0
  -10.3090   13.5121   27.1640 H   0  0  0  0  0  0  0  0  0  0  0  0
  -12.4335   12.2250   27.4033 C   0  0  0  0  0  0  0  0  0  0  0  0
  -12.4826   10.9250   27.9142 C   0  0  0  0  0  0  0  0  0  0  0  0
  -13.1795   10.6365   29.0844 C   0  0  0  0  0  0  0  0  0  0  0  0
  -13.8572   11.6340   29.7871 C   0  0  0  0  0  0  0  0  0  0  0  0
  -13.8635   12.9552   29.3515 C   0  0  0  0  0  0  0  0  0  0  0  0
  -13.1456   13.3200   28.1087 C   0  0  0  0  0  0  0  0  0  0  0  0
  -14.5383   13.8956   30.0581 O   0  0  0  0  0  0  0  0  0  0  0  0
  -13.1237   14.7495   27.6058 C   0  0  0  0  0  0  0  0  0  0  0  0
  -14.9901   13.6569   30.8436 H   0  0  0  0  0  0  0  0  0  0  0  0
  -10.4969   14.6603   24.2907 C   0  0  0  0  0  0  0  0  0  0  0  0
  -10.5406   14.1215   22.6100 S   0  0  0  0  0  0  0  0  0  0  0  0
   -9.1085   14.6814   21.8734 C   0  0  0  0  0  0  0  0  0  0  0  0
   -8.4025   15.7522   22.4251 C   0  0  0  0  0  0  0  0  0  0  0  0
   -7.2276   16.2076   21.8211 C   0  0  0  0  0  0  0  0  0  0  0  0
   -6.7493   15.5978   20.6614 C   0  0  0  0  0  0  0  0  0  0  0  0
   -7.4456   14.5233   20.1066 C   0  0  0  0  0  0  0  0  0  0  0  0
   -8.6232   14.0742   20.7083 C   0  0  0  0  0  0  0  0  0  0  0  0
  5  6  1  0  0  0
  5 10  1  0  0  0
  5 14  1  0  0  0
  6  7  1  0  0  0
  6 13  1  0  0  0
  7  8  1  0  0  0
  8  9  1  0  0  0
  9 10  1  0  0  0
 11 12  1  0  0  0
 11 14  1  0  0  0
 11  4  1  0  0  0
 12 13  1  0  0  0
 12 15  1  0  0  0
 15 16  1  0  0  0
 15 17  2  0  0  0
 16 19  1  0  0  0
 19 20  1  0  0  0
 19 21  1  0  0  0
 19 22  1  0  0  0
  4  1  1  0  0  0
  1 23  1  0  0  0
  1  2  1  0  0  0
 23 24  1  0  0  0
 23 37  1  0  0  0
 24 25  1  0  0  0
 37 38  1  0  0  0
 25 26  2  0  0  0
 25 28  1  0  0  0
 28 29  2  0  0  0
 28 33  1  0  0  0
 29 30  1  0  0  0
 30 31  2  0  0  0
 31 32  1  0  0  0
 32 33  2  0  0  0
 32 34  1  0  0  0
 33 35  1  0  0  0
 38 39  1  0  0  0
 39 40  2  0  0  0
 39 44  1  0  0  0
 40 41  1  0  0  0
 41 42  2  0  0  0
 42 43  1  0  0  0
 43 44  2  0  0  0
 16 18  1  0  0  0
  2  3  1  0  0  0
 24 27  1  0  0  0
 34 36  1  0  0  0
M  END
> <minimizedAffinity>
-10.72039

$$$$
2PYM_1UN_A_1001


 44 47  0  0  0  0  0  0  0  0999 V2000
   -7.8411   16.3005   27.0137 C   0  0  0  0  0  0  0  0  0  0  0  0
   -8.7319   17.4092   27.2497 O   0  0  0  0  0  0  0  0  0  0  0  0
   -9.1970   17.2770   28.0906 H   0  0  0  0  0  0  0  0  0  0  0  0
   -8.6227   14.9948   26.8780 C   0  0  0  0  0  0  0  0  0  0  0  0
   -8.5362   15.4889   23.1102 C   0  0  0  0  0  0  0  0  0  0  0  0
  -10.0012   15.1516   22.7993 C   0  0  0  0  0  0  0  0  0  0  0  0
  -10.2158   14.7070   21.3472 C   0  0  0  0  0  0  0  0  0  0  0  0
   -9.2368   13.6108   20.9229 C   0  0  0  0  0  0  0  0  0  0  0  0
   -7.7974   14.0667   21.1567 C   0  0  0  0  0  0  0  0  0  0  0  0
   -7.5587   14.4081   22.6272 C   0  0  0  0  0  0  0  0  0  0  0  0
   -8.8514   14.6794   25.4538 N   0  0  0  0  0  0  0  0  0  0  0  0
  -10.2902   14.4378   25.2104 C   0  0  0  0  0  0  0  0  0  0  0  0
  -10.5600   14.0891   23.7456 C   0  0  0  0  0  0  0  0  0  0  0  0
   -8.3342   15.7789   24.6044 C   0  0  0  0  0  0  0  0  0  0  0  0
  -10.7820   13.2735   26.0153 C   0  0  0  0  0  0  0  0  0  0  0  0
  -12.0206   13.4292   26.4694 N   0  0  0  0  0  0  0  0  0  0  0  0
  -10.0670   12.2931   26.1886 O   0  0  0  0  0  0  0  0  0  0  0  0
  -12.4255   14.3143   26.3214 H   0  0  0  0  0  0  0  0  0  0  0  0
  -12.8547   12.4544   27.1587 C   0  0  0  0  0  0  0  0  0  0  0  0
  -13.2908   11.3961   26.1605 C   0  0  0  0  0  0  0  0  0  0  0  0
  -14.0483   13.1269   27.8205 C   0  0  0  0  0  0  0  0  0  0  0  0
  -12.0146   11.8118   28.2581 C   0  0  0  0  0  0  0  0  0  0  0  0
   -6.7436   16.2150   28.0715 C   0  0  0  0  0  0  0  0  0  0  0  0
   -7.3039   15.5303   29.2168 N   0  0  0  0  0  0  0  0  0  0  0  0
   -7.9080   16.1422   30.2359 C   0  0  0  0  0  0  0  0  0  0  0  0
   -8.1006   17.3464   30.3033 O   0  0  0  0  0  0  0  0  0  0  0  0
   -7.2346   14.5487   29.2453 H   0  0  0  0  0  0  0  0  0  0  0  0
   -8.3497   15.2659   31.3594 C   0  0  0  0  0  0  0  0  0  0  0  0
   -7.5383   15.1542   32.4919 C   0  0  0  0  0  0  0  0  0  0  0  0
   -7.9058   14.3465   33.5647 C   0  0  0  0  0  0  0  0  0  0  0  0
   -9.0952   13.6165   33.5462 C   0  0  0  0  0  0  0  0  0  0  0  0
   -9.9630   13.6660   32.4601 C   0  0  0  0  0  0  0  0  0  0  0  0
   -9.6207   14.5024   31.2868 C   0  0  0  0  0  0  0  0  0  0  0  0
  -11.1069   12.9378   32.4762 O   0  0  0  0  0  0  0  0  0  0  0  0
  -10.5436   14.5876   30.0877 C   0  0  0  0  0  0  0  0  0  0  0  0
  -11.3165   12.4111   33.2223 H   0  0  0  0  0  0  0  0  0  0  0  0
   -5.4787   15.4988   27.5992 C   0  0  0  0  0  0  0  0  0  0  0  0
   -4.1848   16.6705   27.3349 S   0  0  0  0  0  0  0  0  0  0  0  0
   -4.3944   17.2926   25.7614 C   0  0  0  0  0  0  0  0  0  0  0  0
   -4.6568   16.4344   24.6918 C   0  0  0  0  0  0  0  0  0  0  0  0
   -4.8307   16.9467   23.4035 C   0  0  0  0  0  0  0  0  0  0  0  0
   -4.7433   18.3197   23.1733 C   0  0  0  0  0  0  0  0  0  0  0  0
   -4.4870   19.1850   24.2376 C   0  0  0  0  0  0  0  0  0  0  0  0
   -4.3069   18.6700   25.5232 C   0  0  0  0  0  0  0  0  0  0  0  0
  5  6  1  0  0  0
  5 10  1  0  0  0
  5 14  1  0  0  0
  6  7  1  0  0  0
  6 13  1  0  0  0
  7  8  1  0  0  0
  8  9  1  0  0  0
  9 10  1  0  0  0
 11 12  1  0  0  0
 11 14  1  0  0  0
 11  4  1  0  0  0
 12 13  1  0  0  0
 12 15  1  0  0  0
 15 16  1  0  0  0
 15 17  2  0  0  0
 16 19  1  0  0  0
 19 20  1  0  0  0
 19 21  1  0  0  0
 19 22  1  0  0  0
  4  1  1  0  0  0
  1 23  1  0  0  0
  1  2  1  0  0  0
 23 24  1  0  0  0
 23 37  1  0  0  0
 24 25  1  0  0  0
 37 38  1  0  0  0
 25 26  2  0  0  0
 25 28  1  0  0  0
 28 29  2  0  0  0
 28 33  1  0  0  0
 29 30  1  0  0  0
 30 31  2  0  0  0
 31 32  1  0  0  0
 32 33  2  0  0  0
 32 34  1  0  0  0
 33 35  1  0  0  0
 38 39  1  0  0  0
 39 40  2  0  0  0
 39 44  1  0  0  0
 40 41  1  0  0  0
 41 42  2  0  0  0
 42 43  1  0  0  0
 43 44  2  0  0  0
 16 18  1  0  0  0
  2  3  1  0  0  0
 24 27  1  0  0  0
 34 36  1  0  0  0
M  END
> <minimizedAffinity>
-10.31566

$$$$
2PYM_1UN_A_1001


 44 47  0  0  0  0  0  0  0  0999 V2000
  -10.4659   15.0141   27.0925 C   0  0  0  0  0  0  0  0  0  0  0  0
  -10.7664   16.2588   27.7548 O   0  0  0  0  0  0  0  0  0  0  0  0
   -9.9403   16.7259   27.9556 H   0  0  0  0  0  0  0  0  0  0  0  0
   -9.6569   14.0942   28.0056 C   0  0  0  0  0  0  0  0  0  0  0  0
  -12.4917   11.6317   28.5955 C   0  0  0  0  0  0  0  0  0  0  0  0
  -13.1663   12.3356   29.7813 C   0  0  0  0  0  0  0  0  0  0  0  0
  -14.0058   11.3831   30.6416 C   0  0  0  0  0  0  0  0  0  0  0  0
  -13.2325   10.1252   31.0418 C   0  0  0  0  0  0  0  0  0  0  0  0
  -12.6904    9.4193   29.8000 C   0  0  0  0  0  0  0  0  0  0  0  0
  -11.7683   10.3395   29.0005 C   0  0  0  0  0  0  0  0  0  0  0  0
  -10.5576   13.2055   28.7667 N   0  0  0  0  0  0  0  0  0  0  0  0
  -11.2288   13.9631   29.8451 C   0  0  0  0  0  0  0  0  0  0  0  0
  -12.1566   13.0661   30.6665 C   0  0  0  0  0  0  0  0  0  0  0  0
  -11.5404   12.5789   27.8504 C   0  0  0  0  0  0  0  0  0  0  0  0
  -10.2281   14.5245   30.8089 C   0  0  0  0  0  0  0  0  0  0  0  0
  -10.1012   13.8058   31.9189 N   0  0  0  0  0  0  0  0  0  0  0  0
   -9.6063   15.5442   30.5336 O   0  0  0  0  0  0  0  0  0  0  0  0
  -10.7406   13.0652   32.0278 H   0  0  0  0  0  0  0  0  0  0  0  0
   -9.1347   13.9764   32.9948 C   0  0  0  0  0  0  0  0  0  0  0  0
   -9.2369   15.3984   33.5185 C   0  0  0  0  0  0  0  0  0  0  0  0
   -7.7256   13.6535   32.5203 C   0  0  0  0  0  0  0  0  0  0  0  0
   -9.4888   12.9912   34.1045 C   0  0  0  0  0  0  0  0  0  0  0  0
   -9.7898   15.2349   25.7416 C   0  0  0  0  0  0  0  0  0  0  0  0
   -8.4073   15.5731   26.0040 N   0  0  0  0  0  0  0  0  0  0  0  0
   -7.9725   16.8061   26.2656 C   0  0  0  0  0  0  0  0  0  0  0  0
   -8.6929   17.7879   26.3597 O   0  0  0  0  0  0  0  0  0  0  0  0
   -7.7446   14.8452   25.9883 H   0  0  0  0  0  0  0  0  0  0  0  0
   -6.4981   16.9611   26.4316 C   0  0  0  0  0  0  0  0  0  0  0  0
   -5.7265   17.3326   25.3270 C   0  0  0  0  0  0  0  0  0  0  0  0
   -4.3467   17.4868   25.4310 C   0  0  0  0  0  0  0  0  0  0  0  0
   -3.6842   17.2721   26.6405 C   0  0  0  0  0  0  0  0  0  0  0  0
   -4.3716   16.8986   27.7908 C   0  0  0  0  0  0  0  0  0  0  0  0
   -5.8398   16.7120   27.7385 C   0  0  0  0  0  0  0  0  0  0  0  0
   -3.6923   16.6933   28.9465 O   0  0  0  0  0  0  0  0  0  0  0  0
   -6.6246   16.3124   28.9719 C   0  0  0  0  0  0  0  0  0  0  0  0
   -2.7633   16.8133   28.9715 H   0  0  0  0  0  0  0  0  0  0  0  0
   -9.8664   14.0310   24.8032 C   0  0  0  0  0  0  0  0  0  0  0  0
  -10.7305   14.4703   23.3277 S   0  0  0  0  0  0  0  0  0  0  0  0
   -9.5915   14.4396   22.0594 C   0  0  0  0  0  0  0  0  0  0  0  0
   -8.4261   13.6794   22.1750 C   0  0  0  0  0  0  0  0  0  0  0  0
   -7.4952   13.6537   21.1331 C   0  0  0  0  0  0  0  0  0  0  0  0
   -7.7207   14.3873   19.9684 C   0  0  0  0  0  0  0  0  0  0  0  0
   -8.8856   15.1452   19.8423 C   0  0  0  0  0  0  0  0  0  0  0  0
   -9.8112   15.1746   20.8876 C   0  0  0  0  0  0  0  0  0  0  0  0
  5  6  1  0  0  0
  5 10  1  0  0  0
  5 14  1  0  0  0
  6  7  1  0  0  0
  6 13  1  0  0  0
  7  8  1  0  0  0
  8  9  1  0  0  0
  9 10  1  0  0  0
 11 12  1  0  0  0
 11 14  1  0  0  0
 11  4  1  0  0  0
 12 13  1  0  0  0
 12 15  1  0  0  0
 15 16  1  0  0  0
 15 17  2  0  0  0
 16 19  1  0  0  0
 19 20  1  0  0  0
 19 21  1  0  0  0
 19 22  1  0  0  0
  4  1  1  0  0  0
  1 23  1  0  0  0
  1  2  1  0  0  0
 23 24  1  0  0  0
 23 37  1  0  0  0
 24 25  1  0  0  0
 37 38  1  0  0  0
 25 26  2  0  0  0
 25 28  1  0  0  0
 28 29  2  0  0  0
 28 33  1  0  0  0
 29 30  1  0  0  0
 30 31  2  0  0  0
 31 32  1  0  0  0
 32 33  2  0  0  0
 32 34  1  0  0  0
 33 35  1  0  0  0
 38 39  1  0  0  0
 39 40  2  0  0  0
 39 44  1  0  0  0
 40 41  1  0  0  0
 41 42  2  0  0  0
 42 43  1  0  0  0
 43 44  2  0  0  0
 16 18  1  0  0  0
  2  3  1  0  0  0
 24 27  1  0  0  0
 34 36  1  0  0  0
M  END
> <minimizedAffinity>
-10.19565

$$$$
2PYM_1UN_A_1001


 44 47  0  0  0  0  0  0  0  0999 V2000
  -10.8234   14.7779   27.9942 C   0  0  0  0  0  0  0  0  0  0  0  0
  -11.7176   15.7496   27.4158 O   0  0  0  0  0  0  0  0  0  0  0  0
  -11.4518   16.6398   27.6947 H   0  0  0  0  0  0  0  0  0  0  0  0
  -10.9100   14.8000   29.5195 C   0  0  0  0  0  0  0  0  0  0  0  0
  -12.8675   11.5419   29.5520 C   0  0  0  0  0  0  0  0  0  0  0  0
  -13.4207   11.6190   30.9819 C   0  0  0  0  0  0  0  0  0  0  0  0
  -13.7986   10.2455   31.5503 C   0  0  0  0  0  0  0  0  0  0  0  0
  -12.6760    9.2190   31.3878 C   0  0  0  0  0  0  0  0  0  0  0  0
  -12.2596    9.1172   29.9212 C   0  0  0  0  0  0  0  0  0  0  0  0
  -11.7828   10.4679   29.3880 C   0  0  0  0  0  0  0  0  0  0  0  0
  -11.3825   13.4958   30.0254 N   0  0  0  0  0  0  0  0  0  0  0  0
  -11.9687   13.6548   31.3740 C   0  0  0  0  0  0  0  0  0  0  0  0
  -12.4520   12.3168   31.9364 C   0  0  0  0  0  0  0  0  0  0  0  0
  -12.3578   12.9094   29.0751 C   0  0  0  0  0  0  0  0  0  0  0  0
  -10.9505   14.1731   32.3435 C   0  0  0  0  0  0  0  0  0  0  0  0
   -9.7298   13.6915   32.1373 N   0  0  0  0  0  0  0  0  0  0  0  0
  -11.2731   14.9760   33.2116 O   0  0  0  0  0  0  0  0  0  0  0  0
   -9.6553   12.9838   31.4570 H   0  0  0  0  0  0  0  0  0  0  0  0
   -8.4879   14.0793   32.7916 C   0  0  0  0  0  0  0  0  0  0  0  0
   -8.1526   15.5054   32.3910 C   0  0  0  0  0  0  0  0  0  0  0  0
   -7.3616   13.1185   32.4402 C   0  0  0  0  0  0  0  0  0  0  0  0
   -8.7086   14.0052   34.2994 C   0  0  0  0  0  0  0  0  0  0  0  0
   -9.3924   14.9474   27.4898 C   0  0  0  0  0  0  0  0  0  0  0  0
   -9.4587   15.0892   26.0511 N   0  0  0  0  0  0  0  0  0  0  0  0
   -8.9825   14.1938   25.1854 C   0  0  0  0  0  0  0  0  0  0  0  0
   -8.4754   13.1285   25.5013 O   0  0  0  0  0  0  0  0  0  0  0  0
   -9.8832   15.8999   25.6877 H   0  0  0  0  0  0  0  0  0  0  0  0
   -9.0774   14.5604   23.7426 C   0  0  0  0  0  0  0  0  0  0  0  0
  -10.2450   14.2509   23.0394 C   0  0  0  0  0  0  0  0  0  0  0  0
  -10.3799   14.5697   21.6909 C   0  0  0  0  0  0  0  0  0  0  0  0
   -9.3530   15.2058   20.9919 C   0  0  0  0  0  0  0  0  0  0  0  0
   -8.1555   15.5499   21.6108 C   0  0  0  0  0  0  0  0  0  0  0  0
   -7.9522   15.2288   23.0421 C   0  0  0  0  0  0  0  0  0  0  0  0
   -7.1784   16.1622   20.8970 O   0  0  0  0  0  0  0  0  0  0  0  0
   -6.6645   15.5938   23.7531 C   0  0  0  0  0  0  0  0  0  0  0  0
   -7.3147   16.3621   19.9917 H   0  0  0  0  0  0  0  0  0  0  0  0
   -8.6540   16.1378   28.1009 C   0  0  0  0  0  0  0  0  0  0  0  0
   -7.0289   15.6526   28.5913 S   0  0  0  0  0  0  0  0  0  0  0  0
   -5.9361   16.6016   27.6903 C   0  0  0  0  0  0  0  0  0  0  0  0
   -4.5594   16.4088   27.8205 C   0  0  0  0  0  0  0  0  0  0  0  0
   -3.6657   17.1861   27.0790 C   0  0  0  0  0  0  0  0  0  0  0  0
   -4.1398   18.1621   26.2026 C   0  0  0  0  0  0  0  0  0  0  0  0
   -5.5143   18.3575   26.0621 C   0  0  0  0  0  0  0  0  0  0  0  0
   -6.4054   17.5841   26.8092 C   0  0  0  0  0  0  0  0  0  0  0  0
  5  6  1  0  0  0
  5 10  1  0  0  0
  5 14  1  0  0  0
  6  7  1  0  0  0
  6 13  1  0  0  0
  7  8  1  0  0  0
  8  9  1  0  0  0
  9 10  1  0  0  0
 11 12  1  0  0  0
 11 14  1  0  0  0
 11  4  1  0  0  0
 12 13  1  0  0  0
 12 15  1  0  0  0
 15 16  1  0  0  0
 15 17  2  0  0  0
 16 19  1  0  0  0
 19 20  1  0  0  0
 19 21  1  0  0  0
 19 22  1  0  0  0
  4  1  1  0  0  0
  1 23  1  0  0  0
  1  2  1  0  0  0
 23 24  1  0  0  0
 23 37  1  0  0  0
 24 25  1  0  0  0
 37 38  1  0  0  0
 25 26  2  0  0  0
 25 28  1  0  0  0
 28 29  2  0  0  0
 28 33  1  0  0  0
 29 30  1  0  0  0
 30 31  2  0  0  0
 31 32  1  0  0  0
 32 33  2  0  0  0
 32 34  1  0  0  0
 33 35  1  0  0  0
 38 39  1  0  0  0
 39 40  2  0  0  0
 39 44  1  0  0  0
 40 41  1  0  0  0
 41 42  2  0  0  0
 42 43  1  0  0  0
 43 44  2  0  0  0
 16 18  1  0  0  0
  2  3  1  0  0  0
 24 27  1  0  0  0
 34 36  1  0  0  0
M  END
> <minimizedAffinity>
-10.18003

$$$$
2PYM_1UN_A_1001


 44 47  0  0  0  0  0  0  0  0999 V2000
   -8.2751   15.0108   27.0821 C   0  0  0  0  0  0  0  0  0  0  0  0
   -8.0028   13.6525   27.4811 O   0  0  0  0  0  0  0  0  0  0  0  0
   -8.7540   13.0881   27.2405 H   0  0  0  0  0  0  0  0  0  0  0  0
   -9.4899   15.5627   27.8264 C   0  0  0  0  0  0  0  0  0  0  0  0
  -12.6683   13.5047   27.4943 C   0  0  0  0  0  0  0  0  0  0  0  0
  -13.0392   13.4108   28.9810 C   0  0  0  0  0  0  0  0  0  0  0  0
  -13.9422   12.2119   29.2961 C   0  0  0  0  0  0  0  0  0  0  0  0
  -13.3944   10.9036   28.7229 C   0  0  0  0  0  0  0  0  0  0  0  0
  -13.1595   11.0413   27.2195 C   0  0  0  0  0  0  0  0  0  0  0  0
  -12.1753   12.1706   26.9160 C   0  0  0  0  0  0  0  0  0  0  0  0
  -10.4516   14.4795   28.1129 N   0  0  0  0  0  0  0  0  0  0  0  0
  -10.8214   14.4925   29.5449 C   0  0  0  0  0  0  0  0  0  0  0  0
  -11.8039   13.3689   29.8803 C   0  0  0  0  0  0  0  0  0  0  0  0
  -11.6437   14.6202   27.2429 C   0  0  0  0  0  0  0  0  0  0  0  0
   -9.6192   14.2698   30.4112 C   0  0  0  0  0  0  0  0  0  0  0  0
   -9.5488   15.1029   31.4435 N   0  0  0  0  0  0  0  0  0  0  0  0
   -8.8221   13.3766   30.1482 O   0  0  0  0  0  0  0  0  0  0  0  0
  -10.2187   15.8241   31.4613 H   0  0  0  0  0  0  0  0  0  0  0  0
   -8.6045   15.0830   32.5521 C   0  0  0  0  0  0  0  0  0  0  0  0
   -7.3809   15.8938   32.1624 C   0  0  0  0  0  0  0  0  0  0  0  0
   -8.2349   13.6562   32.9299 C   0  0  0  0  0  0  0  0  0  0  0  0
   -9.2842   15.7223   33.7591 C   0  0  0  0  0  0  0  0  0  0  0  0
   -8.4101   15.1447   25.5673 C   0  0  0  0  0  0  0  0  0  0  0  0
   -7.1019   15.4817   25.0481 N   0  0  0  0  0  0  0  0  0  0  0  0
   -6.5132   16.6673   25.2078 C   0  0  0  0  0  0  0  0  0  0  0  0
   -6.9863   17.5936   25.8481 O   0  0  0  0  0  0  0  0  0  0  0  0
   -6.6148   14.7903   24.5441 H   0  0  0  0  0  0  0  0  0  0  0  0
   -5.1963   16.8433   24.5296 C   0  0  0  0  0  0  0  0  0  0  0  0
   -4.0275   16.7944   25.2944 C   0  0  0  0  0  0  0  0  0  0  0  0
   -2.7752   16.9563   24.7078 C   0  0  0  0  0  0  0  0  0  0  0  0
   -2.6423   17.1771   23.3362 C   0  0  0  0  0  0  0  0  0  0  0  0
   -3.7510   17.2423   22.4984 C   0  0  0  0  0  0  0  0  0  0  0  0
   -5.1091   17.0849   23.0675 C   0  0  0  0  0  0  0  0  0  0  0  0
   -3.5821   17.4643   21.1713 O   0  0  0  0  0  0  0  0  0  0  0  0
   -6.3408   17.1429   22.1864 C   0  0  0  0  0  0  0  0  0  0  0  0
   -2.7195   17.5628   20.8188 H   0  0  0  0  0  0  0  0  0  0  0  0
   -8.9412   13.8891   24.8765 C   0  0  0  0  0  0  0  0  0  0  0  0
  -10.1245   14.3334   23.6439 S   0  0  0  0  0  0  0  0  0  0  0  0
   -9.2890   14.4070   22.1595 C   0  0  0  0  0  0  0  0  0  0  0  0
   -9.7808   15.1854   21.1100 C   0  0  0  0  0  0  0  0  0  0  0  0
   -9.0929   15.2462   19.8952 C   0  0  0  0  0  0  0  0  0  0  0  0
   -7.9092   14.5298   19.7190 C   0  0  0  0  0  0  0  0  0  0  0  0
   -7.4075   13.7538   20.7647 C   0  0  0  0  0  0  0  0  0  0  0  0
   -8.1003   13.6893   21.9756 C   0  0  0  0  0  0  0  0  0  0  0  0
  5  6  1  0  0  0
  5 10  1  0  0  0
  5 14  1  0  0  0
  6  7  1  0  0  0
  6 13  1  0  0  0
  7  8  1  0  0  0
  8  9  1  0  0  0
  9 10  1  0  0  0
 11 12  1  0  0  0
 11 14  1  0  0  0
 11  4  1  0  0  0
 12 13  1  0  0  0
 12 15  1  0  0  0
 15 16  1  0  0  0
 15 17  2  0  0  0
 16 19  1  0  0  0
 19 20  1  0  0  0
 19 21  1  0  0  0
 19 22  1  0  0  0
  4  1  1  0  0  0
  1 23  1  0  0  0
  1  2  1  0  0  0
 23 24  1  0  0  0
 23 37  1  0  0  0
 24 25  1  0  0  0
 37 38  1  0  0  0
 25 26  2  0  0  0
 25 28  1  0  0  0
 28 29  2  0  0  0
 28 33  1  0  0  0
 29 30  1  0  0  0
 30 31  2  0  0  0
 31 32  1  0  0  0
 32 33  2  0  0  0
 32 34  1  0  0  0
 33 35  1  0  0  0
 38 39  1  0  0  0
 39 40  2  0  0  0
 39 44  1  0  0  0
 40 41  1  0  0  0
 41 42  2  0  0  0
 42 43  1  0  0  0
 43 44  2  0  0  0
 16 18  1  0  0  0
  2  3  1  0  0  0
 24 27  1  0  0  0
 34 36  1  0  0  0
M  END
> <minimizedAffinity>
-10.13745

$$$$
2PYM_1UN_A_1001


 44 47  0  0  0  0  0  0  0  0999 V2000
   -8.1742   15.6588   27.5105 C   0  0  0  0  0  0  0  0  0  0  0  0
   -8.3193   16.7607   28.4287 O   0  0  0  0  0  0  0  0  0  0  0  0
   -7.5760   16.7623   29.0518 H   0  0  0  0  0  0  0  0  0  0  0  0
   -8.2250   14.3237   28.2515 C   0  0  0  0  0  0  0  0  0  0  0  0
  -11.5115   13.2952   26.6425 C   0  0  0  0  0  0  0  0  0  0  0  0
  -12.4716   13.8419   27.7083 C   0  0  0  0  0  0  0  0  0  0  0  0
  -13.8387   13.1469   27.6927 C   0  0  0  0  0  0  0  0  0  0  0  0
  -13.7171   11.6220   27.7095 C   0  0  0  0  0  0  0  0  0  0  0  0
  -12.8402   11.1479   26.5516 C   0  0  0  0  0  0  0  0  0  0  0  0
  -11.4427   11.7615   26.6306 C   0  0  0  0  0  0  0  0  0  0  0  0
   -9.5778   13.7387   28.1627 N   0  0  0  0  0  0  0  0  0  0  0  0
  -10.4686   14.3610   29.1661 C   0  0  0  0  0  0  0  0  0  0  0  0
  -11.8757   13.7632   29.1137 C   0  0  0  0  0  0  0  0  0  0  0  0
  -10.1092   13.9031   26.7884 C   0  0  0  0  0  0  0  0  0  0  0  0
   -9.9625   14.1194   30.5556 C   0  0  0  0  0  0  0  0  0  0  0  0
   -9.0308   14.9856   30.9379 N   0  0  0  0  0  0  0  0  0  0  0  0
  -10.4171   13.2028   31.2306 O   0  0  0  0  0  0  0  0  0  0  0  0
   -8.7086   15.6055   30.2443 H   0  0  0  0  0  0  0  0  0  0  0  0
   -8.4263   15.1331   32.2546 C   0  0  0  0  0  0  0  0  0  0  0  0
   -7.6562   13.8652   32.5802 C   0  0  0  0  0  0  0  0  0  0  0  0
   -9.4805   15.4354   33.3094 C   0  0  0  0  0  0  0  0  0  0  0  0
   -7.4685   16.3193   32.2013 C   0  0  0  0  0  0  0  0  0  0  0  0
   -6.9240   15.7974   26.6453 C   0  0  0  0  0  0  0  0  0  0  0  0
   -7.3247   15.5717   25.2731 N   0  0  0  0  0  0  0  0  0  0  0  0
   -8.3528   16.1803   24.6812 C   0  0  0  0  0  0  0  0  0  0  0  0
   -9.0498   17.0324   25.2104 O   0  0  0  0  0  0  0  0  0  0  0  0
   -6.8041   14.9266   24.7420 H   0  0  0  0  0  0  0  0  0  0  0  0
   -8.6526   15.7534   23.2837 C   0  0  0  0  0  0  0  0  0  0  0  0
   -9.7364   14.9018   23.0523 C   0  0  0  0  0  0  0  0  0  0  0  0
  -10.0542   14.4731   21.7663 C   0  0  0  0  0  0  0  0  0  0  0  0
   -9.2999   14.8749   20.6630 C   0  0  0  0  0  0  0  0  0  0  0  0
   -8.2033   15.7200   20.7996 C   0  0  0  0  0  0  0  0  0  0  0  0
   -7.8132   16.2020   22.1445 C   0  0  0  0  0  0  0  0  0  0  0  0
   -7.4911   16.0840   19.7044 O   0  0  0  0  0  0  0  0  0  0  0  0
   -6.6292   17.1291   22.3330 C   0  0  0  0  0  0  0  0  0  0  0  0
   -7.7443   15.7749   18.8569 H   0  0  0  0  0  0  0  0  0  0  0  0
   -6.2264   17.1513   26.7723 C   0  0  0  0  0  0  0  0  0  0  0  0
   -4.5109   16.9161   27.1171 S   0  0  0  0  0  0  0  0  0  0  0  0
   -3.7063   16.8676   25.6147 C   0  0  0  0  0  0  0  0  0  0  0  0
   -2.9661   15.7427   25.2459 C   0  0  0  0  0  0  0  0  0  0  0  0
   -2.3096   15.7042   24.0130 C   0  0  0  0  0  0  0  0  0  0  0  0
   -2.3867   16.7888   23.1394 C   0  0  0  0  0  0  0  0  0  0  0  0
   -3.1291   17.9148   23.4976 C   0  0  0  0  0  0  0  0  0  0  0  0
   -3.7788   17.9536   24.7332 C   0  0  0  0  0  0  0  0  0  0  0  0
  5  6  1  0  0  0
  5 10  1  0  0  0
  5 14  1  0  0  0
  6  7  1  0  0  0
  6 13  1  0  0  0
  7  8  1  0  0  0
  8  9  1  0  0  0
  9 10  1  0  0  0
 11 12  1  0  0  0
 11 14  1  0  0  0
 11  4  1  0  0  0
 12 13  1  0  0  0
 12 15  1  0  0  0
 15 16  1  0  0  0
 15 17  2  0  0  0
 16 19  1  0  0  0
 19 20  1  0  0  0
 19 21  1  0  0  0
 19 22  1  0  0  0
  4  1  1  0  0  0
  1 23  1  0  0  0
  1  2  1  0  0  0
 23 24  1  0  0  0
 23 37  1  0  0  0
 24 25  1  0  0  0
 37 38  1  0  0  0
 25 26  2  0  0  0
 25 28  1  0  0  0
 28 29  2  0  0  0
 28 33  1  0  0  0
 29 30  1  0  0  0
 30 31  2  0  0  0
 31 32  1  0  0  0
 32 33  2  0  0  0
 32 34  1  0  0  0
 33 35  1  0  0  0
 38 39  1  0  0  0
 39 40  2  0  0  0
 39 44  1  0  0  0
 40 41  1  0  0  0
 41 42  2  0  0  0
 42 43  1  0  0  0
 43 44  2  0  0  0
 16 18  1  0  0  0
  2  3  1  0  0  0
 24 27  1  0  0  0
 34 36  1  0  0  0
M  END
> <minimizedAffinity>
-9.95543

$$$$
2PYM_1UN_A_1001


 44 47  0  0  0  0  0  0  0  0999 V2000
   -9.7560   15.1581   26.6169 C   0  0  0  0  0  0  0  0  0  0  0  0
   -8.7251   14.1619   26.7692 O   0  0  0  0  0  0  0  0  0  0  0  0
   -8.0376   14.4967   27.3660 H   0  0  0  0  0  0  0  0  0  0  0  0
   -9.1969   16.4241   25.9697 C   0  0  0  0  0  0  0  0  0  0  0  0
   -5.5666   17.3317   26.6364 C   0  0  0  0  0  0  0  0  0  0  0  0
   -5.0675   17.3693   25.1852 C   0  0  0  0  0  0  0  0  0  0  0  0
   -3.5525   17.1601   25.0696 C   0  0  0  0  0  0  0  0  0  0  0  0
   -3.0733   15.9316   25.8452 C   0  0  0  0  0  0  0  0  0  0  0  0
   -3.5110   16.0237   27.3061 C   0  0  0  0  0  0  0  0  0  0  0  0
   -5.0316   16.1255   27.4213 C   0  0  0  0  0  0  0  0  0  0  0  0
   -7.7266   16.3397   25.8638 N   0  0  0  0  0  0  0  0  0  0  0  0
   -7.3104   16.4559   24.4492 C   0  0  0  0  0  0  0  0  0  0  0  0
   -5.7913   16.3533   24.3017 C   0  0  0  0  0  0  0  0  0  0  0  0
   -7.0994   17.3892   26.7023 C   0  0  0  0  0  0  0  0  0  0  0  0
   -7.8869   15.3433   23.6276 C   0  0  0  0  0  0  0  0  0  0  0  0
   -8.4400   15.7552   22.4922 N   0  0  0  0  0  0  0  0  0  0  0  0
   -7.8090   14.1826   24.0136 O   0  0  0  0  0  0  0  0  0  0  0  0
   -8.5035   16.7304   22.3731 H   0  0  0  0  0  0  0  0  0  0  0  0
   -8.9641   14.9448   21.4016 C   0  0  0  0  0  0  0  0  0  0  0  0
   -8.9780   15.7843   20.1360 C   0  0  0  0  0  0  0  0  0  0  0  0
  -10.3490   14.4096   21.7348 C   0  0  0  0  0  0  0  0  0  0  0  0
   -8.0354   13.7486   21.2173 C   0  0  0  0  0  0  0  0  0  0  0  0
  -10.4717   15.4451   27.9346 C   0  0  0  0  0  0  0  0  0  0  0  0
  -10.8949   14.1727   28.4790 N   0  0  0  0  0  0  0  0  0  0  0  0
  -12.1116   13.6528   28.3142 C   0  0  0  0  0  0  0  0  0  0  0  0
  -12.9980   14.1650   27.6481 O   0  0  0  0  0  0  0  0  0  0  0  0
  -10.2418   13.6573   29.0053 H   0  0  0  0  0  0  0  0  0  0  0  0
  -12.3769   12.3658   29.0203 C   0  0  0  0  0  0  0  0  0  0  0  0
  -11.9174   11.1738   28.4535 C   0  0  0  0  0  0  0  0  0  0  0  0
  -12.1431    9.9474   29.0729 C   0  0  0  0  0  0  0  0  0  0  0  0
  -12.8395    9.8640   30.2794 C   0  0  0  0  0  0  0  0  0  0  0  0
  -13.3344   10.9985   30.9144 C   0  0  0  0  0  0  0  0  0  0  0  0
  -13.1312   12.3299   30.2984 C   0  0  0  0  0  0  0  0  0  0  0  0
  -14.0114   10.8768   32.0831 O   0  0  0  0  0  0  0  0  0  0  0  0
  -13.6493   13.5895   30.9631 C   0  0  0  0  0  0  0  0  0  0  0  0
  -14.1358   10.0310   32.4666 H   0  0  0  0  0  0  0  0  0  0  0  0
   -9.6174   16.1948   28.9563 C   0  0  0  0  0  0  0  0  0  0  0  0
   -8.5564   15.0646   29.8011 S   0  0  0  0  0  0  0  0  0  0  0  0
   -9.0311   15.0699   31.4386 C   0  0  0  0  0  0  0  0  0  0  0  0
   -8.2076   15.6409   32.4108 C   0  0  0  0  0  0  0  0  0  0  0  0
   -8.5999   15.6464   33.7520 C   0  0  0  0  0  0  0  0  0  0  0  0
   -9.8171   15.0812   34.1325 C   0  0  0  0  0  0  0  0  0  0  0  0
  -10.6488   14.5135   33.1664 C   0  0  0  0  0  0  0  0  0  0  0  0
  -10.2515   14.5032   31.8277 C   0  0  0  0  0  0  0  0  0  0  0  0
  5  6  1  0  0  0
  5 10  1  0  0  0
  5 14  1  0  0  0
  6  7  1  0  0  0
  6 13  1  0  0  0
  7  8  1  0  0  0
  8  9  1  0  0  0
  9 10  1  0  0  0
 11 12  1  0  0  0
 11 14  1  0  0  0
 11  4  1  0  0  0
 12 13  1  0  0  0
 12 15  1  0  0  0
 15 16  1  0  0  0
 15 17  2  0  0  0
 16 19  1  0  0  0
 19 20  1  0  0  0
 19 21  1  0  0  0
 19 22  1  0  0  0
  4  1  1  0  0  0
  1 23  1  0  0  0
  1  2  1  0  0  0
 23 24  1  0  0  0
 23 37  1  0  0  0
 24 25  1  0  0  0
 37 38  1  0  0  0
 25 26  2  0  0  0
 25 28  1  0  0  0
 28 29  2  0  0  0
 28 33  1  0  0  0
 29 30  1  0  0  0
 30 31  2  0  0  0
 31 32  1  0  0  0
 32 33  2  0  0  0
 32 34  1  0  0  0
 33 35  1  0  0  0
 38 39  1  0  0  0
 39 40  2  0  0  0
 39 44  1  0  0  0
 40 41  1  0  0  0
 41 42  2  0  0  0
 42 43  1  0  0  0
 43 44  2  0  0  0
 16 18  1  0  0  0
  2  3  1  0  0  0
 24 27  1  0  0  0
 34 36  1  0  0  0
M  END
> <minimizedAffinity>
-9.95411

$$$$
