2PYM_1UN_A_1001
  RCSB PDB12061706423D
Coordinates from PDB:2PYM:A:1001 Model:1 without hydrogens
 40 43  0  0  0  0            999 V2000
  -12.5400   13.3380   27.2400   C 0  0  0  0  0  0  0  0  0  0  0  0
  -12.4480   12.6130   28.5900   C 0  0  0  0  0  0  0  0  0  0  0  0
  -12.7700   11.1170   28.4870   C 0  0  0  0  0  0  0  0  0  0  0  0
  -11.9820   10.4270   27.3720   C 0  0  0  0  0  0  0  0  0  0  0  0
  -12.2160   11.1380   26.0400   C 0  0  0  0  0  0  0  0  0  0  0  0
  -11.7940   12.6050   26.1160   C 0  0  0  0  0  0  0  0  0  0  0  0
  -10.7090   14.8840   27.9500   N 0  0  0  0  0  0  0  0  0  0  0  0
  -10.6670   14.2680   29.2940   C 0  0  0  0  0  0  0  0  0  0  0  0
  -11.0810   12.7960   29.2490   C 0  0  0  0  0  0  0  0  0  0  0  0
  -12.0630   14.7930   27.3530   C 0  0  0  0  0  0  0  0  0  0  0  0
   -9.2770   14.2950   29.8530   C 0  0  0  0  0  0  0  0  0  0  0  0
   -9.2130   14.7750   31.0900   N 0  0  0  0  0  0  0  0  0  0  0  0
   -8.0610   14.8160   31.9800   C 0  0  0  0  0  0  0  0  0  0  0  0
   -7.0700   15.8350   31.4450   C 0  0  0  0  0  0  0  0  0  0  0  0
   -7.4290   13.4390   32.1200   C 0  0  0  0  0  0  0  0  0  0  0  0
   -8.5490   15.2460   33.3600   C 0  0  0  0  0  0  0  0  0  0  0  0
   -8.3330   13.8840   29.1880   O 0  0  0  0  0  0  0  0  0  0  0  0
  -10.2870   16.2970   28.0250   C 0  0  0  0  0  0  0  0  0  0  0  0
   -9.7560   16.7650   26.6710   C 0  0  0  0  0  0  0  0  0  0  0  0
   -8.2800   16.4270   26.4760   C 0  0  0  0  0  0  0  0  0  0  0  0
  -10.0180   18.1690   26.4750   O 0  0  0  0  0  0  0  0  0  0  0  0
   -7.9760   16.6250   25.0750   N 0  0  0  0  0  0  0  0  0  0  0  0
   -7.3320   17.2570   27.3410   C 0  0  0  0  0  0  0  0  0  0  0  0
   -7.8750   15.6400   24.1820   C 0  0  0  0  0  0  0  0  0  0  0  0
   -8.0710   14.4600   24.4290   O 0  0  0  0  0  0  0  0  0  0  0  0
   -7.4770   16.0430   22.8020   C 0  0  0  0  0  0  0  0  0  0  0  0
   -6.2730   16.7280   22.6160   C 0  0  0  0  0  0  0  0  0  0  0  0
   -5.8600   17.1280   21.3480   C 0  0  0  0  0  0  0  0  0  0  0  0
   -6.6350   16.8630   20.2180   C 0  0  0  0  0  0  0  0  0  0  0  0
   -7.8480   16.1880   20.3090   C 0  0  0  0  0  0  0  0  0  0  0  0
   -8.3420   15.7450   21.6330   C 0  0  0  0  0  0  0  0  0  0  0  0
   -8.5760   15.9540   19.1890   O 0  0  0  0  0  0  0  0  0  0  0  0
   -9.6550   15.0010   21.7720   C 0  0  0  0  0  0  0  0  0  0  0  0
   -5.7610   16.4590   27.4510   S 0  0  0  0  0  0  0  0  0  0  0  0
   -4.7910   17.1020   26.2050   C 0  0  0  0  0  0  0  0  0  0  0  0
   -3.7200   16.3670   25.6930   C 0  0  0  0  0  0  0  0  0  0  0  0
   -2.9280   16.8950   24.6700   C 0  0  0  0  0  0  0  0  0  0  0  0
   -3.1990   18.1610   24.1510   C 0  0  0  0  0  0  0  0  0  0  0  0
   -4.2710   18.9000   24.6530   C 0  0  0  0  0  0  0  0  0  0  0  0
   -5.0570   18.3730   25.6800   C 0  0  0  0  0  0  0  0  0  0  0  0
  1  2  1  0  0  0  0
  1  6  1  0  0  0  0
  1 10  1  0  0  0  0
  2  3  1  0  0  0  0
  2  9  1  0  0  0  0
  3  4  1  0  0  0  0
  4  5  1  0  0  0  0
  5  6  1  0  0  0  0
  7  8  1  0  0  0  0
  7 10  1  0  0  0  0
  7 18  1  0  0  0  0
  8  9  1  0  0  0  0
  8 11  1  0  0  0  0
 11 12  1  0  0  0  0
 11 17  2  0  0  0  0
 12 13  1  0  0  0  0
 13 14  1  0  0  0  0
 13 15  1  0  0  0  0
 13 16  1  0  0  0  0
 18 19  1  0  0  0  0
 19 20  1  0  0  0  0
 19 21  1  0  0  0  0
 20 22  1  0  0  0  0
 20 23  1  0  0  0  0
 22 24  1  0  0  0  0
 23 34  1  0  0  0  0
 24 25  2  0  0  0  0
 24 26  1  0  0  0  0
 26 27  2  0  0  0  0
 26 31  1  0  0  0  0
 27 28  1  0  0  0  0
 28 29  2  0  0  0  0
 29 30  1  0  0  0  0
 30 31  2  0  0  0  0
 30 32  1  0  0  0  0
 31 33  1  0  0  0  0
 34 35  1  0  0  0  0
 35 36  2  0  0  0  0
 35 40  1  0  0  0  0
 36 37  1  0  0  0  0
 37 38  2  0  0  0  0
 38 39  1  0  0  0  0
 39 40  2  0  0  0  0
A    1
C1
A    2
C2
A    3
C3
A    4
C4
A    5
C5
A    6
C6
A    7
N7
A    8
C8
A    9
C9
A   10
C10
A   11
C11
A   12
N12
A   13
C13
A   14
C14
A   15
C15
A   16
C16
A   17
O17
A   18
C18
A   19
C19
A   20
C20
A   21
O21
A   22
N22
A   23
C23
A   24
C24
A   25
O25
A   26
C29
A   27
C30
A   28
C31
A   29
C32
A   30
C33
A   31
C34
A   32
O38
A   33
C39
A   34
S74
A   35
C77
A   36
C78
A   37
C79
A   38
C80
A   39
C81
A   40
C82
M  END
>  <InstanceId>
2PYM_1UN_A_1001

>  <ChemCompId>
1UN

>  <PdbId>
2PYM

>  <ChainId>
A

>  <ResidueNumber>
1001

>  <InsertionCode>


>  <Model>
1

>  <AltIds>


>  <MissingHeavyAtoms>
0

>  <ObservedFormula>
C32 N3 O4 S

>  <Name>
2-[2-HYDROXY-3-(3-HYDROXY-2-METHYL-BENZOYLAMINO)-4-PHENYL SULFANYL-BUTYL]-DECAHYDRO-ISOQUINOLINE-3-CARBOXYLIC ACID TERT-BUTYLAMIDE

>  <SystematicName>
(2S,3S,4aS,8aS)-N-tert-butyl-2-[(2R,3R)-2-hydroxy-3-[(3-hydroxy-2-methyl-phenyl)carbonylamino]-4-phenylsulfanyl-butyl]-3,4,4a,5,6,7,8,8a-octahydro-1H-isoquinoline-3-carboxamide

>  <Synonyms>
NELFINAVIR MESYLATE AG1343

>  <Type>
NON-POLYMER

>  <Formula>
C32 H45 N3 O4 S

>  <MolecularWeight>
567.782

>  <ModifiedDate>
2011-06-04

>  <Parent>


>  <OneLetterCode>


>  <SubcomponentList>


>  <AmbiguousFlag>
N

>  <InChI>
InChI=1S/C32H45N3O4S/c1-21-25(15-10-16-28(21)36)30(38)33-26(20-40-24-13-6-5-7-14-24)29(37)19-35-18-23-12-9-8-11-22(23)17-27(35)31(39)34-32(2,3)4/h5-7,10,13-16,22-23,26-27,29,36-37H,8-9,11-12,17-20H2,1-4H3,(H,33,38)(H,34,39)/t22-,23+,26-,27-,29+/m0/s1

>  <InChIKey>
QAGYKUNXZHXKMR-HKWSIXNMSA-N

>  <SMILES>
Cc1c(cccc1O)C(=O)N[C@@H](CSc2ccccc2)[C@@H](C[N@@]3C[C@H]4CCCC[C@H]4C[C@H]3C(=O)NC(C)(C)C)O

$$$$
