5EDD_DUP_A_202
  RCSB PDB12061717273D
Coordinates from PDB:5EDD:A:202 Model:1 without hydrogens
 28 29  0  0  0  0            999 V2000
   21.5640   -7.0770    1.0060   O 0  0  0  0  0  0  0  0  0  0  0  0
   20.3760   -6.6920    0.5090   C 0  0  0  0  0  0  0  0  0  0  0  0
   19.5110   -7.6380   -0.0090   C 0  0  0  0  0  0  0  0  0  0  0  0
   18.3100   -7.2420   -0.5560   C 0  0  0  0  0  0  0  0  0  0  0  0
   20.0410   -5.3920    0.4560   N 0  0  0  0  0  0  0  0  0  0  0  0
   18.8870   -5.0240   -0.1330   C 0  0  0  0  0  0  0  0  0  0  0  0
   18.5840   -3.7020   -0.1940   O 0  0  0  0  0  0  0  0  0  0  0  0
   18.0200   -5.9430   -0.6130   N 0  0  0  0  0  0  0  0  0  0  0  0
   16.7520   -5.4940   -1.2190   C 0  0  0  0  0  0  0  0  0  0  0  0
   16.8830   -5.5930   -2.7450   C 0  0  0  0  0  0  0  0  0  0  0  0
   16.1440   -6.8680   -3.1100   C 0  0  0  0  0  0  0  0  0  0  0  0
   15.6840   -6.8930   -4.4670   O 0  0  0  0  0  0  0  0  0  0  0  0
   15.6610   -6.3380   -0.8750   O 0  0  0  0  0  0  0  0  0  0  0  0
   15.0510   -6.8740   -2.0450   C 0  0  0  0  0  0  0  0  0  0  0  0
   14.4950   -8.2390   -1.6830   C 0  0  0  0  0  0  0  0  0  0  0  0
   15.5920   -9.0560   -1.1880   O 0  0  0  0  0  0  0  0  0  0  0  0
   15.2300  -10.5390   -0.6600   P 0  0  0  0  0  0  0  0  0  0  0  0
   14.3820  -11.1440   -1.7280   O 0  0  0  0  0  0  0  0  0  0  0  0
   16.5690  -11.1970   -0.3030   O 0  0  0  0  0  0  0  0  0  0  0  0
   14.3170  -10.2430    0.6950   N 0  0  0  0  0  0  0  0  0  0  0  0
   12.8130  -10.8340    1.1100   P 0  0  0  0  0  0  0  0  0  0  0  0
   12.6390  -12.1700    0.3720   O 0  0  0  0  0  0  0  0  0  0  0  0
   12.7860  -10.8390    2.6480   O 0  0  0  0  0  0  0  0  0  0  0  0
   11.6830   -9.7770    0.6040   O 0  0  0  0  0  0  0  0  0  0  0  0
   10.7740   -9.8000   -0.7670   P 0  0  0  0  0  0  0  0  0  0  0  0
   11.5120  -10.5800   -1.8440   O 0  0  0  0  0  0  0  0  0  0  0  0
    9.5270  -10.4800   -0.2540   O 0  0  0  0  0  0  0  0  0  0  0  0
   10.7580   -8.2900   -1.0620   O 0  0  0  0  0  0  0  0  0  0  0  0
  1  2  2  0  0  0  0
  2  3  1  0  0  0  0
  2  5  1  0  0  0  0
  3  4  2  0  0  0  0
  4  8  1  0  0  0  0
  5  6  1  0  0  0  0
  6  7  2  0  0  0  0
  6  8  1  0  0  0  0
  8  9  1  0  0  0  0
  9 10  1  0  0  0  0
  9 13  1  0  0  0  0
 10 11  1  0  0  0  0
 11 12  1  0  0  0  0
 11 14  1  0  0  0  0
 13 14  1  0  0  0  0
 14 15  1  0  0  0  0
 15 16  1  0  0  0  0
 16 17  1  0  0  0  0
 17 18  2  0  0  0  0
 17 19  1  0  0  0  0
 17 20  1  0  0  0  0
 20 21  1  0  0  0  0
 21 22  2  0  0  0  0
 21 23  1  0  0  0  0
 21 24  1  0  0  0  0
 24 25  1  0  0  0  0
 25 26  2  0  0  0  0
 25 27  1  0  0  0  0
 25 28  1  0  0  0  0
A    1
O4
A    2
C4
A    3
C5
A    4
C6
A    5
N3
A    6
C2
A    7
O2
A    8
N1
A    9
C1'
A   10
C2'
A   11
C3'
A   12
O3'
A   13
O4'
A   14
C4'
A   15
C5'
A   16
O5'
A   17
PA
A   18
O1A
A   19
O2A
A   20
N3A
A   21
PB
A   22
O1B
A   23
O2B
A   24
O3B
A   25
PG
A   26
O2G
A   27
O1G
A   28
O3G
M  END
>  <InstanceId>
5EDD_DUP_A_202

>  <ChemCompId>
DUP

>  <PdbId>
5EDD

>  <ChainId>
A

>  <ResidueNumber>
202

>  <InsertionCode>


>  <Model>
1

>  <AltIds>


>  <MissingHeavyAtoms>
0

>  <ObservedFormula>
C9 N3 O13 P3

>  <Name>
2'-DEOXYURIDINE 5'-ALPHA,BETA-IMIDO-TRIPHOSPHATE

>  <SystematicName>
[(2R,3S,5R)-5-(2,4-dioxopyrimidin-1-yl)-3-hydroxy-oxolan-2-yl]methoxy-N-(hydroxy-phosphonooxy-phosphoryl)phosphonamidic acid

>  <Synonyms>


>  <Type>
NON-POLYMER

>  <Formula>
C9 H16 N3 O13 P3

>  <MolecularWeight>
467.157

>  <ModifiedDate>
2011-06-04

>  <Parent>


>  <OneLetterCode>


>  <SubcomponentList>


>  <AmbiguousFlag>
N

>  <InChI>
InChI=1S/C9H16N3O13P3/c13-5-3-8(12-2-1-7(14)10-9(12)15)24-6(5)4-23-26(16,17)11-27(18,19)25-28(20,21)22/h1-2,5-6,8,13H,3-4H2,(H,10,14,15)(H2,20,21,22)(H3,11,16,17,18,19)/t5-,6+,8+/m0/s1

>  <InChIKey>
XZLLMTSKYYYJLH-SHYZEUOFSA-N

>  <SMILES>
C1[C@@H]([C@H](O[C@H]1N2C=CC(=O)NC2=O)CO[P@](=O)(N[P@@](=O)(O)OP(=O)(O)O)O)O

$$$$
