5OTZ_AUT_A_404


 20 21  0  0  0  0  0  0  0  0999 V2000
 -114.9327 -173.9529  308.7588 C   0  0  0  0  0  0  0  0  0  0  0  0
 -114.1103 -176.4491  309.5566 C   0  0  0  0  0  0  0  0  0  0  0  0
 -113.1607 -175.4314  309.5203 C   0  0  0  0  0  0  0  0  0  0  0  0
 -115.8659 -174.9805  308.8287 C   0  0  0  0  0  0  0  0  0  0  0  0
 -113.6150 -174.1807  309.1014 C   0  0  0  0  0  0  0  0  0  0  0  0
 -112.5016 -172.8545  309.0087 Cl  0  0  0  0  0  0  0  0  0  0  0  0
 -115.4332 -176.2388  309.2218 C   0  0  0  0  0  0  0  0  0  0  0  0
 -113.6179 -178.0421  310.0261 Cl  0  0  0  0  0  0  0  0  0  0  0  0
 -109.4956 -176.4419  309.5204 C   0  0  0  0  0  0  0  0  0  0  0  0
 -111.7425 -175.6683  309.9368 C   0  0  0  0  0  0  0  0  0  0  0  0
 -111.3956 -175.4623  311.2725 C   0  0  0  0  0  0  0  0  0  0  0  0
 -109.1754 -176.2425  310.8500 C   0  0  0  0  0  0  0  0  0  0  0  0
 -110.1196 -175.7544  311.7219 C   0  0  0  0  0  0  0  0  0  0  0  0
 -110.7753 -176.1609  309.0482 C   0  0  0  0  0  0  0  0  0  0  0  0
 -111.1316 -176.4041  307.5994 C   0  0  0  0  0  0  0  0  0  0  0  0
 -110.7462 -175.2934  306.6641 C   0  0  0  0  0  0  0  0  0  0  0  0
 -117.3187 -174.7127  308.5360 C   0  0  0  0  0  0  0  0  0  0  0  0
 -118.1390 -174.9659  309.7139 N   0  0  0  0  0  0  0  0  0  0  0  0
 -117.8459 -174.3490  310.4714 H   0  0  0  0  0  0  0  0  0  0  0  0
 -118.0269 -175.9374  310.0039 H   0  0  0  0  0  0  0  0  0  0  0  0
 16 15  1  0  0  0
 15 14  1  0  0  0
 18 17  1  0  0  0
 17  4  1  0  0  0
 14  9  2  0  0  0
 14 10  1  0  0  0
  1  4  2  0  0  0
  1  5  1  0  0  0
  4  7  1  0  0  0
  6  5  1  0  0  0
  5  3  2  0  0  0
  9 12  1  0  0  0
  7  2  2  0  0  0
  3  2  1  0  0  0
  3 10  1  0  0  0
  2  8  1  0  0  0
 10 11  2  0  0  0
 12 13  2  0  0  0
 11 13  1  0  0  0
 18 19  1  0  0  0
 18 20  1  0  0  0
M  END
> <minimizedAffinity>
-9.05057

$$$$
5OTZ_AUT_A_404


 20 21  0  0  0  0  0  0  0  0999 V2000
 -115.4221 -176.2441  309.1839 C   0  0  0  0  0  0  0  0  0  0  0  0
 -113.6139 -174.1778  309.1147 C   0  0  0  0  0  0  0  0  0  0  0  0
 -113.1675 -175.4190  309.5608 C   0  0  0  0  0  0  0  0  0  0  0  0
 -115.8350 -175.0013  308.7185 C   0  0  0  0  0  0  0  0  0  0  0  0
 -114.1173 -176.4403  309.5899 C   0  0  0  0  0  0  0  0  0  0  0  0
 -113.6588 -178.0176  310.1457 Cl  0  0  0  0  0  0  0  0  0  0  0  0
 -114.9137 -173.9641  308.7007 C   0  0  0  0  0  0  0  0  0  0  0  0
 -112.5065 -172.8461  309.0876 Cl  0  0  0  0  0  0  0  0  0  0  0  0
 -109.4966 -176.4070  309.5115 C   0  0  0  0  0  0  0  0  0  0  0  0
 -111.7412 -175.6425  309.9563 C   0  0  0  0  0  0  0  0  0  0  0  0
 -111.3736 -175.4192  311.2837 C   0  0  0  0  0  0  0  0  0  0  0  0
 -109.1557 -176.1906  310.8332 C   0  0  0  0  0  0  0  0  0  0  0  0
 -110.0885 -175.6983  311.7151 C   0  0  0  0  0  0  0  0  0  0  0  0
 -110.7856 -176.1392  309.0575 C   0  0  0  0  0  0  0  0  0  0  0  0
 -111.1644 -176.4010  307.6176 C   0  0  0  0  0  0  0  0  0  0  0  0
 -110.8310 -175.2849  306.6688 C   0  0  0  0  0  0  0  0  0  0  0  0
 -117.2348 -174.8087  308.1972 C   0  0  0  0  0  0  0  0  0  0  0  0
 -118.2043 -174.8674  309.2839 N   0  0  0  0  0  0  0  0  0  0  0  0
 -118.0077 -174.1253  309.9554 H   0  0  0  0  0  0  0  0  0  0  0  0
 -118.1393 -175.7728  309.7490 H   0  0  0  0  0  0  0  0  0  0  0  0
 16 15  1  0  0  0
 15 14  1  0  0  0
 18 17  1  0  0  0
 17  4  1  0  0  0
 14  9  2  0  0  0
 14 10  1  0  0  0
  1  4  2  0  0  0
  1  5  1  0  0  0
  4  7  1  0  0  0
  6  5  1  0  0  0
  5  3  2  0  0  0
  9 12  1  0  0  0
  7  2  2  0  0  0
  3  2  1  0  0  0
  3 10  1  0  0  0
  2  8  1  0  0  0
 10 11  2  0  0  0
 12 13  2  0  0  0
 11 13  1  0  0  0
 18 19  1  0  0  0
 18 20  1  0  0  0
M  END
> <minimizedAffinity>
-8.91640

$$$$
5OTZ_AUT_A_404


 20 21  0  0  0  0  0  0  0  0999 V2000
 -116.0514 -175.9944  308.9434 C   0  0  0  0  0  0  0  0  0  0  0  0
 -114.0740 -174.1361  308.5182 C   0  0  0  0  0  0  0  0  0  0  0  0
 -113.6947 -175.4670  308.6712 C   0  0  0  0  0  0  0  0  0  0  0  0
 -116.4047 -174.6625  308.7618 C   0  0  0  0  0  0  0  0  0  0  0  0
 -114.7265 -176.3790  308.8943 C   0  0  0  0  0  0  0  0  0  0  0  0
 -114.3504 -178.0577  309.1127 Cl  0  0  0  0  0  0  0  0  0  0  0  0
 -115.3941 -173.7335  308.5600 C   0  0  0  0  0  0  0  0  0  0  0  0
 -112.8491 -172.9349  308.2790 Cl  0  0  0  0  0  0  0  0  0  0  0  0
 -110.0916 -176.3226  309.5311 C   0  0  0  0  0  0  0  0  0  0  0  0
 -112.2621 -175.8896  308.5711 C   0  0  0  0  0  0  0  0  0  0  0  0
 -111.7137 -176.0956  307.3048 C   0  0  0  0  0  0  0  0  0  0  0  0
 -109.5648 -176.5108  308.2673 C   0  0  0  0  0  0  0  0  0  0  0  0
 -110.3712 -176.3991  307.1595 C   0  0  0  0  0  0  0  0  0  0  0  0
 -111.4381 -176.0101  309.7000 C   0  0  0  0  0  0  0  0  0  0  0  0
 -112.0072 -175.7788  311.0813 C   0  0  0  0  0  0  0  0  0  0  0  0
 -112.1323 -177.0167  311.9231 C   0  0  0  0  0  0  0  0  0  0  0  0
 -117.8544 -174.2553  308.7316 C   0  0  0  0  0  0  0  0  0  0  0  0
 -118.5927 -174.8899  309.8163 N   0  0  0  0  0  0  0  0  0  0  0  0
 -118.1974 -174.6012  310.7112 H   0  0  0  0  0  0  0  0  0  0  0  0
 -118.5252 -175.9036  309.7260 H   0  0  0  0  0  0  0  0  0  0  0  0
 16 15  1  0  0  0
 15 14  1  0  0  0
 18 17  1  0  0  0
 17  4  1  0  0  0
 14  9  2  0  0  0
 14 10  1  0  0  0
  1  4  2  0  0  0
  1  5  1  0  0  0
  4  7  1  0  0  0
  6  5  1  0  0  0
  5  3  2  0  0  0
  9 12  1  0  0  0
  7  2  2  0  0  0
  3  2  1  0  0  0
  3 10  1  0  0  0
  2  8  1  0  0  0
 10 11  2  0  0  0
 12 13  2  0  0  0
 11 13  1  0  0  0
 18 19  1  0  0  0
 18 20  1  0  0  0
M  END
> <minimizedAffinity>
-7.92578

$$$$
5OTZ_AUT_A_404


 20 21  0  0  0  0  0  0  0  0999 V2000
 -115.5986 -176.1244  309.2123 C   0  0  0  0  0  0  0  0  0  0  0  0
 -113.5860 -174.3284  308.6945 C   0  0  0  0  0  0  0  0  0  0  0  0
 -113.2256 -175.6234  309.0575 C   0  0  0  0  0  0  0  0  0  0  0  0
 -115.9309 -174.8322  308.8229 C   0  0  0  0  0  0  0  0  0  0  0  0
 -114.2756 -176.5032  309.3210 C   0  0  0  0  0  0  0  0  0  0  0  0
 -113.9250 -178.1338  309.7959 Cl  0  0  0  0  0  0  0  0  0  0  0  0
 -114.9036 -173.9328  308.5764 C   0  0  0  0  0  0  0  0  0  0  0  0
 -112.3410 -173.1630  308.3907 Cl  0  0  0  0  0  0  0  0  0  0  0  0
 -109.6877 -176.2724  310.2887 C   0  0  0  0  0  0  0  0  0  0  0  0
 -111.7914 -176.0461  309.1295 C   0  0  0  0  0  0  0  0  0  0  0  0
 -111.1649 -176.4840  307.9622 C   0  0  0  0  0  0  0  0  0  0  0  0
 -109.0829 -176.6925  309.1191 C   0  0  0  0  0  0  0  0  0  0  0  0
 -109.8173 -176.7990  307.9617 C   0  0  0  0  0  0  0  0  0  0  0  0
 -111.0409 -175.9441  310.3102 C   0  0  0  0  0  0  0  0  0  0  0  0
 -111.6951 -175.4597  311.5841 C   0  0  0  0  0  0  0  0  0  0  0  0
 -110.7371 -175.1111  312.6875 C   0  0  0  0  0  0  0  0  0  0  0  0
 -117.3719 -174.4426  308.6230 C   0  0  0  0  0  0  0  0  0  0  0  0
 -118.0500 -175.3964  307.7542 N   0  0  0  0  0  0  0  0  0  0  0  0
 -118.0247 -176.3226  308.1808 H   0  0  0  0  0  0  0  0  0  0  0  0
 -117.5800 -175.4260  306.8494 H   0  0  0  0  0  0  0  0  0  0  0  0
 16 15  1  0  0  0
 15 14  1  0  0  0
 18 17  1  0  0  0
 17  4  1  0  0  0
 14  9  2  0  0  0
 14 10  1  0  0  0
  1  4  2  0  0  0
  1  5  1  0  0  0
  4  7  1  0  0  0
  6  5  1  0  0  0
  5  3  2  0  0  0
  9 12  1  0  0  0
  7  2  2  0  0  0
  3  2  1  0  0  0
  3 10  1  0  0  0
  2  8  1  0  0  0
 10 11  2  0  0  0
 12 13  2  0  0  0
 11 13  1  0  0  0
 18 19  1  0  0  0
 18 20  1  0  0  0
M  END
> <minimizedAffinity>
-7.84721

$$$$
5OTZ_AUT_A_404


 20 21  0  0  0  0  0  0  0  0999 V2000
 -115.3221 -173.7305  308.5129 C   0  0  0  0  0  0  0  0  0  0  0  0
 -114.6776 -176.3727  308.8973 C   0  0  0  0  0  0  0  0  0  0  0  0
 -113.6380 -175.4760  308.6649 C   0  0  0  0  0  0  0  0  0  0  0  0
 -116.3386 -174.6423  308.7723 C   0  0  0  0  0  0  0  0  0  0  0  0
 -114.0063 -174.1454  308.4656 C   0  0  0  0  0  0  0  0  0  0  0  0
 -112.7819 -172.9577  308.1534 Cl  0  0  0  0  0  0  0  0  0  0  0  0
 -115.9988 -175.9754  308.9524 C   0  0  0  0  0  0  0  0  0  0  0  0
 -114.3078 -178.0511  309.1135 Cl  0  0  0  0  0  0  0  0  0  0  0  0
 -110.0655 -176.2291  309.7249 C   0  0  0  0  0  0  0  0  0  0  0  0
 -112.2081 -175.9189  308.6604 C   0  0  0  0  0  0  0  0  0  0  0  0
 -111.6323 -176.3041  307.4492 C   0  0  0  0  0  0  0  0  0  0  0  0
 -109.5112 -176.5962  308.5133 C   0  0  0  0  0  0  0  0  0  0  0  0
 -110.2901 -176.6347  307.3811 C   0  0  0  0  0  0  0  0  0  0  0  0
 -111.4122 -175.8862  309.8150 C   0  0  0  0  0  0  0  0  0  0  0  0
 -112.0111 -175.4597  311.1359 C   0  0  0  0  0  0  0  0  0  0  0  0
 -111.0294 -175.3700  312.2696 C   0  0  0  0  0  0  0  0  0  0  0  0
 -117.7646 -174.1769  308.9071 C   0  0  0  0  0  0  0  0  0  0  0  0
 -118.4764 -174.9714  309.9003 N   0  0  0  0  0  0  0  0  0  0  0  0
 -118.0197 -174.8712  310.8068 H   0  0  0  0  0  0  0  0  0  0  0  0
 -118.4668 -175.9525  309.6213 H   0  0  0  0  0  0  0  0  0  0  0  0
 16 15  1  0  0  0
 15 14  1  0  0  0
 18 17  1  0  0  0
 17  4  1  0  0  0
 14  9  2  0  0  0
 14 10  1  0  0  0
  1  4  2  0  0  0
  1  5  1  0  0  0
  4  7  1  0  0  0
  6  5  1  0  0  0
  5  3  2  0  0  0
  9 12  1  0  0  0
  7  2  2  0  0  0
  3  2  1  0  0  0
  3 10  1  0  0  0
  2  8  1  0  0  0
 10 11  2  0  0  0
 12 13  2  0  0  0
 11 13  1  0  0  0
 18 19  1  0  0  0
 18 20  1  0  0  0
M  END
> <minimizedAffinity>
-7.72439

$$$$
5OTZ_AUT_A_404


 20 21  0  0  0  0  0  0  0  0999 V2000
 -111.7835 -174.3397  306.4241 C   0  0  0  0  0  0  0  0  0  0  0  0
 -110.3926 -176.3622  307.6566 C   0  0  0  0  0  0  0  0  0  0  0  0
 -111.1106 -175.4814  308.4612 C   0  0  0  0  0  0  0  0  0  0  0  0
 -111.0794 -175.2482  305.6426 C   0  0  0  0  0  0  0  0  0  0  0  0
 -111.7962 -174.4629  307.7990 C   0  0  0  0  0  0  0  0  0  0  0  0
 -112.7059 -173.3076  308.7183 Cl  0  0  0  0  0  0  0  0  0  0  0  0
 -110.3718 -176.2572  306.2800 C   0  0  0  0  0  0  0  0  0  0  0  0
 -109.4801 -177.6306  308.4043 Cl  0  0  0  0  0  0  0  0  0  0  0  0
 -112.1853 -176.4656  311.9726 C   0  0  0  0  0  0  0  0  0  0  0  0
 -111.1619 -175.6437  309.9484 C   0  0  0  0  0  0  0  0  0  0  0  0
 -110.2516 -174.9310  310.7296 C   0  0  0  0  0  0  0  0  0  0  0  0
 -111.2821 -175.7426  312.7286 C   0  0  0  0  0  0  0  0  0  0  0  0
 -110.3193 -174.9798  312.1111 C   0  0  0  0  0  0  0  0  0  0  0  0
 -112.1394 -176.4257  310.5814 C   0  0  0  0  0  0  0  0  0  0  0  0
 -113.1443 -177.1964  309.7558 C   0  0  0  0  0  0  0  0  0  0  0  0
 -114.4339 -176.4698  309.4992 C   0  0  0  0  0  0  0  0  0  0  0  0
 -111.1334 -175.1643  304.1399 C   0  0  0  0  0  0  0  0  0  0  0  0
 -110.3404 -176.2263  303.5336 N   0  0  0  0  0  0  0  0  0  0  0  0
 -110.7122 -177.1327  303.8174 H   0  0  0  0  0  0  0  0  0  0  0  0
 -109.3713 -176.1449  303.8412 H   0  0  0  0  0  0  0  0  0  0  0  0
 16 15  1  0  0  0
 15 14  1  0  0  0
 18 17  1  0  0  0
 17  4  1  0  0  0
 14  9  2  0  0  0
 14 10  1  0  0  0
  1  4  2  0  0  0
  1  5  1  0  0  0
  4  7  1  0  0  0
  6  5  1  0  0  0
  5  3  2  0  0  0
  9 12  1  0  0  0
  7  2  2  0  0  0
  3  2  1  0  0  0
  3 10  1  0  0  0
  2  8  1  0  0  0
 10 11  2  0  0  0
 12 13  2  0  0  0
 11 13  1  0  0  0
 18 19  1  0  0  0
 18 20  1  0  0  0
M  END
> <minimizedAffinity>
-7.62772

$$$$
5OTZ_AUT_A_404


 20 21  0  0  0  0  0  0  0  0999 V2000
 -110.4088 -176.3298  306.3166 C   0  0  0  0  0  0  0  0  0  0  0  0
 -111.8170 -174.5493  307.8628 C   0  0  0  0  0  0  0  0  0  0  0  0
 -111.1127 -175.5601  308.5116 C   0  0  0  0  0  0  0  0  0  0  0  0
 -111.0995 -175.2959  305.6956 C   0  0  0  0  0  0  0  0  0  0  0  0
 -110.4177 -176.4494  307.6918 C   0  0  0  0  0  0  0  0  0  0  0  0
 -109.5238 -177.7512  308.4084 Cl  0  0  0  0  0  0  0  0  0  0  0  0
 -111.8161 -174.4114  306.4889 C   0  0  0  0  0  0  0  0  0  0  0  0
 -112.7401 -173.4281  308.8070 Cl  0  0  0  0  0  0  0  0  0  0  0  0
 -111.9637 -176.4504  312.1084 C   0  0  0  0  0  0  0  0  0  0  0  0
 -111.0849 -175.6610  310.0049 C   0  0  0  0  0  0  0  0  0  0  0  0
 -110.1813 -174.8662  310.7110 C   0  0  0  0  0  0  0  0  0  0  0  0
 -111.0689 -175.6468  312.7893 C   0  0  0  0  0  0  0  0  0  0  0  0
 -110.1813 -174.8593  312.0950 C   0  0  0  0  0  0  0  0  0  0  0  0
 -111.9853 -176.4679  310.7160 C   0  0  0  0  0  0  0  0  0  0  0  0
 -112.9821 -177.3276  309.9725 C   0  0  0  0  0  0  0  0  0  0  0  0
 -114.2765 -176.6415  309.6399 C   0  0  0  0  0  0  0  0  0  0  0  0
 -111.0218 -175.1154  304.2024 C   0  0  0  0  0  0  0  0  0  0  0  0
 -110.3267 -176.2359  303.5813 N   0  0  0  0  0  0  0  0  0  0  0  0
 -110.8342 -177.0996  303.7736 H   0  0  0  0  0  0  0  0  0  0  0  0
 -109.3831 -176.3041  303.9624 H   0  0  0  0  0  0  0  0  0  0  0  0
 16 15  1  0  0  0
 15 14  1  0  0  0
 18 17  1  0  0  0
 17  4  1  0  0  0
 14  9  2  0  0  0
 14 10  1  0  0  0
  1  4  2  0  0  0
  1  5  1  0  0  0
  4  7  1  0  0  0
  6  5  1  0  0  0
  5  3  2  0  0  0
  9 12  1  0  0  0
  7  2  2  0  0  0
  3  2  1  0  0  0
  3 10  1  0  0  0
  2  8  1  0  0  0
 10 11  2  0  0  0
 12 13  2  0  0  0
 11 13  1  0  0  0
 18 19  1  0  0  0
 18 20  1  0  0  0
M  END
> <minimizedAffinity>
-7.61255

$$$$
5OTZ_AUT_A_404


 20 21  0  0  0  0  0  0  0  0999 V2000
 -112.1722 -174.7794  306.2933 C   0  0  0  0  0  0  0  0  0  0  0  0
 -110.6651 -176.5780  307.7210 C   0  0  0  0  0  0  0  0  0  0  0  0
 -111.7959 -176.0447  308.3338 C   0  0  0  0  0  0  0  0  0  0  0  0
 -111.0528 -175.3463  305.6957 C   0  0  0  0  0  0  0  0  0  0  0  0
 -112.5298 -175.1285  307.5802 C   0  0  0  0  0  0  0  0  0  0  0  0
 -113.9459 -174.3987  308.2653 Cl  0  0  0  0  0  0  0  0  0  0  0  0
 -110.2945 -176.2440  306.4335 C   0  0  0  0  0  0  0  0  0  0  0  0
 -109.6759 -177.6918  308.6049 Cl  0  0  0  0  0  0  0  0  0  0  0  0
 -111.9889 -176.4055  312.1136 C   0  0  0  0  0  0  0  0  0  0  0  0
 -112.2089 -176.4592  309.7117 C   0  0  0  0  0  0  0  0  0  0  0  0
 -113.1555 -177.4752  309.8477 C   0  0  0  0  0  0  0  0  0  0  0  0
 -112.9196 -177.4210  312.2264 C   0  0  0  0  0  0  0  0  0  0  0  0
 -113.5011 -177.9529  311.0998 C   0  0  0  0  0  0  0  0  0  0  0  0
 -111.6217 -175.9144  310.8632 C   0  0  0  0  0  0  0  0  0  0  0  0
 -110.5843 -174.8217  310.7399 C   0  0  0  0  0  0  0  0  0  0  0  0
 -109.2214 -175.1904  311.2530 C   0  0  0  0  0  0  0  0  0  0  0  0
 -110.7101 -175.0299  304.2637 C   0  0  0  0  0  0  0  0  0  0  0  0
 -110.3570 -176.2425  303.5361 N   0  0  0  0  0  0  0  0  0  0  0  0
 -111.1491 -176.8851  303.5415 H   0  0  0  0  0  0  0  0  0  0  0  0
 -109.5557 -176.6869  303.9844 H   0  0  0  0  0  0  0  0  0  0  0  0
 16 15  1  0  0  0
 15 14  1  0  0  0
 18 17  1  0  0  0
 17  4  1  0  0  0
 14  9  2  0  0  0
 14 10  1  0  0  0
  1  4  2  0  0  0
  1  5  1  0  0  0
  4  7  1  0  0  0
  6  5  1  0  0  0
  5  3  2  0  0  0
  9 12  1  0  0  0
  7  2  2  0  0  0
  3  2  1  0  0  0
  3 10  1  0  0  0
  2  8  1  0  0  0
 10 11  2  0  0  0
 12 13  2  0  0  0
 11 13  1  0  0  0
 18 19  1  0  0  0
 18 20  1  0  0  0
M  END
> <minimizedAffinity>
-6.98839

$$$$
5OTZ_AUT_A_404


 20 21  0  0  0  0  0  0  0  0999 V2000
 -110.8565 -177.6123  310.2207 C   0  0  0  0  0  0  0  0  0  0  0  0
 -111.5238 -176.1105  308.0199 C   0  0  0  0  0  0  0  0  0  0  0  0
 -112.5018 -176.3147  308.9897 C   0  0  0  0  0  0  0  0  0  0  0  0
 -109.8913 -177.3717  309.2501 C   0  0  0  0  0  0  0  0  0  0  0  0
 -112.1273 -177.0898  310.0875 C   0  0  0  0  0  0  0  0  0  0  0  0
 -113.2829 -177.4120  311.3397 Cl  0  0  0  0  0  0  0  0  0  0  0  0
 -110.2465 -176.6215  308.1383 C   0  0  0  0  0  0  0  0  0  0  0  0
 -111.9211 -175.1935  306.6051 Cl  0  0  0  0  0  0  0  0  0  0  0  0
 -115.4768 -173.9697  309.3124 C   0  0  0  0  0  0  0  0  0  0  0  0
 -113.8651 -175.7087  308.8669 C   0  0  0  0  0  0  0  0  0  0  0  0
 -114.8830 -176.4667  308.2870 C   0  0  0  0  0  0  0  0  0  0  0  0
 -116.4733 -174.7411  308.7450 C   0  0  0  0  0  0  0  0  0  0  0  0
 -116.1785 -175.9828  308.2338 C   0  0  0  0  0  0  0  0  0  0  0  0
 -114.1677 -174.4397  309.3824 C   0  0  0  0  0  0  0  0  0  0  0  0
 -113.0839 -173.6057  310.0267 C   0  0  0  0  0  0  0  0  0  0  0  0
 -112.3336 -172.7128  309.0799 C   0  0  0  0  0  0  0  0  0  0  0  0
 -108.4824 -177.8704  309.4354 C   0  0  0  0  0  0  0  0  0  0  0  0
 -107.6730 -176.8845  310.1406 N   0  0  0  0  0  0  0  0  0  0  0  0
 -108.0751 -176.7107  311.0618 H   0  0  0  0  0  0  0  0  0  0  0  0
 -107.6556 -176.0150  309.6077 H   0  0  0  0  0  0  0  0  0  0  0  0
 16 15  1  0  0  0
 15 14  1  0  0  0
 18 17  1  0  0  0
 17  4  1  0  0  0
 14  9  2  0  0  0
 14 10  1  0  0  0
  1  4  2  0  0  0
  1  5  1  0  0  0
  4  7  1  0  0  0
  6  5  1  0  0  0
  5  3  2  0  0  0
  9 12  1  0  0  0
  7  2  2  0  0  0
  3  2  1  0  0  0
  3 10  1  0  0  0
  2  8  1  0  0  0
 10 11  2  0  0  0
 12 13  2  0  0  0
 11 13  1  0  0  0
 18 19  1  0  0  0
 18 20  1  0  0  0
M  END
> <minimizedAffinity>
-6.76654

$$$$
5OTZ_AUT_A_404


 20 21  0  0  0  0  0  0  0  0999 V2000
 -110.2880 -176.3153  306.4792 C   0  0  0  0  0  0  0  0  0  0  0  0
 -112.5810 -175.2874  307.5882 C   0  0  0  0  0  0  0  0  0  0  0  0
 -111.8224 -176.1653  308.3579 C   0  0  0  0  0  0  0  0  0  0  0  0
 -111.0501 -175.4167  305.7420 C   0  0  0  0  0  0  0  0  0  0  0  0
 -110.6704 -176.6727  307.7566 C   0  0  0  0  0  0  0  0  0  0  0  0
 -109.6695 -177.7860  308.6318 Cl  0  0  0  0  0  0  0  0  0  0  0  0
 -112.2121 -174.9152  306.3107 C   0  0  0  0  0  0  0  0  0  0  0  0
 -114.0488 -174.6450  308.2466 Cl  0  0  0  0  0  0  0  0  0  0  0  0
 -111.9527 -176.3533  312.1528 C   0  0  0  0  0  0  0  0  0  0  0  0
 -112.2129 -176.5158  309.7599 C   0  0  0  0  0  0  0  0  0  0  0  0
 -113.1585 -177.5225  309.9577 C   0  0  0  0  0  0  0  0  0  0  0  0
 -112.8829 -177.3605  312.3272 C   0  0  0  0  0  0  0  0  0  0  0  0
 -113.4838 -177.9419  311.2359 C   0  0  0  0  0  0  0  0  0  0  0  0
 -111.6057 -175.9204  310.8755 C   0  0  0  0  0  0  0  0  0  0  0  0
 -110.5690 -174.8367  310.6853 C   0  0  0  0  0  0  0  0  0  0  0  0
 -109.2014 -175.1795  311.2037 C   0  0  0  0  0  0  0  0  0  0  0  0
 -110.5896 -174.9622  304.3820 C   0  0  0  0  0  0  0  0  0  0  0  0
 -110.3836 -176.1024  303.4978 N   0  0  0  0  0  0  0  0  0  0  0  0
 -111.2618 -176.6089  303.3859 H   0  0  0  0  0  0  0  0  0  0  0  0
 -109.6820 -176.7232  303.9013 H   0  0  0  0  0  0  0  0  0  0  0  0
 16 15  1  0  0  0
 15 14  1  0  0  0
 18 17  1  0  0  0
 17  4  1  0  0  0
 14  9  2  0  0  0
 14 10  1  0  0  0
  1  4  2  0  0  0
  1  5  1  0  0  0
  4  7  1  0  0  0
  6  5  1  0  0  0
  5  3  2  0  0  0
  9 12  1  0  0  0
  7  2  2  0  0  0
  3  2  1  0  0  0
  3 10  1  0  0  0
  2  8  1  0  0  0
 10 11  2  0  0  0
 12 13  2  0  0  0
 11 13  1  0  0  0
 18 19  1  0  0  0
 18 20  1  0  0  0
M  END
> <minimizedAffinity>
-6.64161

$$$$
