6EJ3_B7T_A_501
  RCSB PDB04141810333D
Coordinates from PDB:6EJ3:A:501 Model:1 without hydrogens
 28 32  0  0  0  0            999 V2000
  -21.7250  -39.4000   -8.2570   C 0  0  0  0  0  0  0  0  0  0  0  0
  -21.1710  -38.6880   -9.3040   C 0  0  0  0  0  0  0  0  0  0  0  0
  -19.5730  -40.1130   -7.5390   C 0  0  0  0  0  0  0  0  0  0  0  0
  -20.9450  -40.1180   -7.3610   C 0  0  0  0  0  0  0  0  0  0  0  0
  -21.5310  -40.9230   -6.3040   C 0  0  0  0  0  0  0  0  0  0  0  0
  -19.8040  -38.7090   -9.4650   C 0  0  0  0  0  0  0  0  0  0  0  0
  -19.0160  -39.4110   -8.5940   C 0  0  0  0  0  0  0  0  0  0  0  0
  -21.4160  -42.0160   -4.1680   C 0  0  0  0  0  0  0  0  0  0  0  0
  -16.0280  -40.0750   -7.5560   C 0  0  0  0  0  0  0  0  0  0  0  0
  -19.0050  -38.0340  -10.5170   C 0  0  0  0  0  0  0  0  0  0  0  0
  -16.2220  -37.0150  -11.9260   C 0  0  0  0  0  0  0  0  0  0  0  0
  -17.0690  -35.5520  -10.0410   C 0  0  0  0  0  0  0  0  0  0  0  0
  -16.5380  -38.2630  -11.0950   C 0  0  0  0  0  0  0  0  0  0  0  0
  -15.9650  -35.7720  -11.0710   C 0  0  0  0  0  0  0  0  0  0  0  0
  -17.5650  -39.2880   -8.9510   C 0  0  0  0  0  0  0  0  0  0  0  0
  -17.5700  -38.1000   -9.9560   C 0  0  0  0  0  0  0  0  0  0  0  0
  -20.7320  -42.2770   -2.8740   C 0  0  0  0  0  0  0  0  0  0  0  0
  -16.7450  -39.0200   -7.7670   N 0  0  0  0  0  0  0  0  0  0  0  0
  -15.1190  -40.2570   -6.5310   N 0  0  0  0  0  0  0  0  0  0  0  0
  -15.9830  -34.6550  -11.9520   O 0  0  0  0  0  0  0  0  0  0  0  0
  -20.8970  -41.1300   -5.0910   C 0  0  0  0  0  0  0  0  0  0  0  0
  -22.7060  -41.6280   -6.5000   C 0  0  0  0  0  0  0  0  0  0  0  0
  -22.6050  -42.6450   -4.4710   C 0  0  0  0  0  0  0  0  0  0  0  0
  -17.2840  -36.7940   -9.1850   C 0  0  0  0  0  0  0  0  0  0  0  0
  -17.0530  -40.6420   -9.4570   C 0  0  0  0  0  0  0  0  0  0  0  0
  -14.9010  -33.7630  -11.7110   C 0  0  0  0  0  0  0  0  0  0  0  0
  -23.2750  -42.4590   -5.6140   N 0  0  0  0  0  0  0  0  0  0  0  0
  -16.1730  -41.1160   -8.4310   O 0  0  0  0  0  0  0  0  0  0  0  0
 20 26  1  0  0  0  0
 20 14  1  0  0  0  0
 11 13  1  0  0  0  0
 11 14  1  0  0  0  0
 13 16  1  0  0  0  0
 14 12  1  0  0  0  0
 10 16  1  0  0  0  0
 10  6  1  0  0  0  0
 12 24  1  0  0  0  0
 16 24  1  0  0  0  0
 16 15  1  0  0  0  0
  6  2  2  0  0  0  0
  6  7  1  0  0  0  0
 25 15  1  0  0  0  0
 25 28  1  0  0  0  0
  2  1  1  0  0  0  0
 15  7  1  0  0  0  0
 15 18  1  0  0  0  0
  7  3  2  0  0  0  0
 28  9  1  0  0  0  0
  1  4  2  0  0  0  0
 18  9  2  0  0  0  0
  9 19  1  0  0  0  0
  3  4  1  0  0  0  0
  4  5  1  0  0  0  0
 22  5  2  0  0  0  0
 22 27  1  0  0  0  0
  5 21  1  0  0  0  0
 27 23  2  0  0  0  0
 21  8  2  0  0  0  0
 23  8  1  0  0  0  0
  8 17  1  0  0  0  0
A    1
C1
A    2
C2
A    3
C3
A    4
C7
A    5
C8
A    6
C9
A    7
C10
A    8
C11
A    9
C12
A   10
C13
A   11
C14
A   12
C15
A   13
C16
A   14
C19
A   15
C20
A   16
C21
A   17
C22
A   18
N25
A   19
N26
A   20
O28
A   21
C4
A   22
C5
A   23
C6
A   24
C17
A   25
C18
A   26
C23
A   27
N24
A   28
O27
M  END
>  <InstanceId>
6EJ3_B7T_A_501

>  <ChemCompId>
B7T

>  <PdbId>
6EJ3

>  <ChainId>
A

>  <ResidueNumber>
501

>  <InsertionCode>


>  <Model>
1

>  <AltIds>


>  <MissingHeavyAtoms>
0

>  <ObservedFormula>
C23 N3 O2

>  <Name>
(1r,4r)-4-methoxy-6'-(5-methyl-3-pyridinyl)-3'H-dispiro[cyclohexane-1,2'-indene-1',4''-[1,3]oxazol]-2''-amine

>  <SystematicName>


>  <Synonyms>


>  <Type>
NON-POLYMER

>  <Formula>
C23 H27 N3 O2

>  <MolecularWeight>
377.479

>  <ModifiedDate>
2018-04-13

>  <Parent>


>  <OneLetterCode>


>  <SubcomponentList>


>  <AmbiguousFlag>
N

>  <InChI>
InChI=1S/C23H27N3O2/c1-15-9-18(13-25-12-15)16-3-4-17-11-22(7-5-19(27-2)6-8-22)23(20(17)10-16)14-28-21(24)26-23/h3-4,9-10,12-13,19H,5-8,11,14H2,1-2H3,(H2,24,26)/t19-,22-,23-/m0/s1

>  <InChIKey>
XMEKMASQQBIQCX-VJBMBRPKSA-N

>  <SMILES>
Cc1cc(cnc1)c2ccc3c(c2)[C@@]4(COC(=N4)N)C5(C3)CCC(CC5)OC

$$$$
