3UEW_PLM_A_1000
  RCSB PDB12061711023D
Coordinates from PDB:3UEW:A:1000 Model:1 without hydrogens
 18 17  0  0  0  0            999 V2000
   -0.8000    1.7730   20.8220   C 0  0  0  0  0  0  0  0  0  0  0  0
    0.2410    1.6240   21.4990   O 0  0  0  0  0  0  0  0  0  0  0  0
   -1.7190    0.9200   20.7870   O 0  0  0  0  0  0  0  0  0  0  0  0
   -0.9670    3.0420   20.0130   C 0  0  0  0  0  0  0  0  0  0  0  0
   -1.3310    4.1730   20.9660   C 0  0  0  0  0  0  0  0  0  0  0  0
   -2.0470    5.3020   20.2350   C 0  0  0  0  0  0  0  0  0  0  0  0
   -3.3550    5.6970   20.9160   C 0  0  0  0  0  0  0  0  0  0  0  0
   -4.1010    6.7160   20.0630   C 0  0  0  0  0  0  0  0  0  0  0  0
   -3.1910    7.8780   19.6570   C 0  0  0  0  0  0  0  0  0  0  0  0
   -4.0060    9.1170   19.3150   C 0  0  0  0  0  0  0  0  0  0  0  0
   -3.1540   10.3760   19.4300   C 0  0  0  0  0  0  0  0  0  0  0  0
   -3.7930   11.5070   18.6460   C 0  0  0  0  0  0  0  0  0  0  0  0
   -3.1500   12.8240   18.9990   C 0  0  0  0  0  0  0  0  0  0  0  0
   -3.9340   13.9420   18.3530   C 0  0  0  0  0  0  0  0  0  0  0  0
   -3.1490   15.2270   18.4660   C 0  0  0  0  0  0  0  0  0  0  0  0
   -4.0110   16.4400   18.1550   C 0  0  0  0  0  0  0  0  0  0  0  0
   -3.6980   17.0690   16.8160   C 0  0  0  0  0  0  0  0  0  0  0  0
   -4.5000   18.3250   16.5610   C 0  0  0  0  0  0  0  0  0  0  0  0
  1  2  1  0  0  0  0
  1  3  2  0  0  0  0
  1  4  1  0  0  0  0
  4  5  1  0  0  0  0
  5  6  1  0  0  0  0
  6  7  1  0  0  0  0
  7  8  1  0  0  0  0
  8  9  1  0  0  0  0
  9 10  1  0  0  0  0
 10 11  1  0  0  0  0
 11 12  1  0  0  0  0
 12 13  1  0  0  0  0
 13 14  1  0  0  0  0
 14 15  1  0  0  0  0
 15 16  1  0  0  0  0
 16 17  1  0  0  0  0
 17 18  1  0  0  0  0
A    1
C1
A    2
O1
A    3
O2
A    4
C2
A    5
C3
A    6
C4
A    7
C5
A    8
C6
A    9
C7
A   10
C8
A   11
C9
A   12
CA
A   13
CB
A   14
CC
A   15
CD
A   16
CE
A   17
CF
A   18
CG
M  END
>  <InstanceId>
3UEW_PLM_A_1000

>  <ChemCompId>
PLM

>  <PdbId>
3UEW

>  <ChainId>
A

>  <ResidueNumber>
1000

>  <InsertionCode>


>  <Model>
1

>  <AltIds>


>  <MissingHeavyAtoms>
0

>  <ObservedFormula>
C16 O2

>  <Name>
PALMITIC ACID

>  <SystematicName>
hexadecanoic acid

>  <Synonyms>


>  <Type>
NON-POLYMER

>  <Formula>
C16 H32 O2

>  <MolecularWeight>
256.424

>  <ModifiedDate>
2011-06-04

>  <Parent>


>  <OneLetterCode>


>  <SubcomponentList>


>  <AmbiguousFlag>
N

>  <InChI>
InChI=1S/C16H32O2/c1-2-3-4-5-6-7-8-9-10-11-12-13-14-15-16(17)18/h2-15H2,1H3,(H,17,18)

>  <InChIKey>
IPCSVZSSVZVIGE-UHFFFAOYSA-N

>  <SMILES>
CCCCCCCCCCCCCCCC(=O)O

$$$$
