5KA9_OTA_A_307


 22 23  0  0  0  0  0  0  0  0999 V2000
   34.2487  -29.5597   -3.0999 N   0  0  0  0  0  0  0  0  0  0  0  0
   34.9854  -28.6554   -2.2423 C   0  0  0  0  0  0  0  0  0  0  0  0
   35.9863  -27.7103   -2.8967 C   0  0  0  0  0  0  0  0  0  0  0  0
   35.8485  -27.5472   -4.3128 C   0  0  0  0  0  0  0  0  0  0  0  0
   34.7872  -28.2298   -5.1088 C   0  0  0  0  0  0  0  0  0  0  0  0
   33.7689  -29.0121   -4.3755 C   0  0  0  0  0  0  0  0  0  0  0  0
   37.1971  -26.8562   -2.3500 S   0  0  0  0  0  0  0  0  0  0  0  0
   37.7333  -26.1476   -3.6381 C   0  0  0  0  0  0  0  0  0  0  0  0
   36.9769  -26.5468   -4.7726 C   0  0  0  0  0  0  0  0  0  0  0  0
   33.4356  -29.8873   -2.5784 H   0  0  0  0  0  0  0  0  0  0  0  0
   37.2331  -26.0675   -6.2367 C   0  0  0  0  0  0  0  0  0  0  0  0
   37.1984  -26.9191   -7.2227 O   0  0  0  0  0  0  0  0  0  0  0  0
   37.5001  -24.8447   -6.4478 O   0  0  0  0  0  0  0  0  0  0  0  0
   37.0004  -27.8198   -7.0571 H   0  0  0  0  0  0  0  0  0  0  0  0
   38.8259  -25.2638   -3.8206 N   0  0  0  0  0  0  0  0  0  0  0  0
   40.1733  -25.5601   -3.5716 C   0  0  0  0  0  0  0  0  0  0  0  0
   40.5509  -26.6618   -3.1001 O   0  0  0  0  0  0  0  0  0  0  0  0
   38.6202  -24.3600   -4.1521 H   0  0  0  0  0  0  0  0  0  0  0  0
   41.1446  -24.4443   -3.8956 C   0  0  0  0  0  0  0  0  0  0  0  0
   40.7323  -23.2562   -3.8225 O   0  0  0  0  0  0  0  0  0  0  0  0
   42.3456  -24.7383   -4.2723 O   0  0  0  0  0  0  0  0  0  0  0  0
   39.8546  -23.0811   -3.5451 H   0  0  0  0  0  0  0  0  0  0  0  0
  1  2  1  0  0  0
  1  6  1  0  0  0
  2  3  1  0  0  0
  3  4  2  0  0  0
  3  7  1  0  0  0
  4  5  1  0  0  0
  4  9  1  0  0  0
  5  6  1  0  0  0
  7  8  1  0  0  0
  8  9  2  0  0  0
  8 15  1  0  0  0
  9 11  1  0  0  0
 11 12  1  0  0  0
 11 13  2  0  0  0
 15 16  1  0  0  0
 16 19  1  0  0  0
 16 17  2  0  0  0
 19 20  1  0  0  0
 19 21  2  0  0  0
  1 10  1  0  0  0
 12 14  1  0  0  0
 15 18  1  0  0  0
 20 22  1  0  0  0
M  END
> <minimizedAffinity>
-7.45374

$$$$
5KA9_OTA_A_307


 22 23  0  0  0  0  0  0  0  0999 V2000
   32.0030  -30.8363   -0.9204 N   0  0  0  0  0  0  0  0  0  0  0  0
   31.9130  -30.4797   -2.3207 C   0  0  0  0  0  0  0  0  0  0  0  0
   33.1581  -29.9122   -2.9923 C   0  0  0  0  0  0  0  0  0  0  0  0
   34.3887  -30.1187   -2.2895 C   0  0  0  0  0  0  0  0  0  0  0  0
   34.4704  -30.8584   -0.9964 C   0  0  0  0  0  0  0  0  0  0  0  0
   33.2393  -31.5018   -0.4893 C   0  0  0  0  0  0  0  0  0  0  0  0
   33.4038  -29.1010   -4.3250 S   0  0  0  0  0  0  0  0  0  0  0  0
   34.9535  -28.8843   -4.3202 C   0  0  0  0  0  0  0  0  0  0  0  0
   35.5279  -29.4512   -3.1509 C   0  0  0  0  0  0  0  0  0  0  0  0
   31.2253  -31.4618   -0.7098 H   0  0  0  0  0  0  0  0  0  0  0  0
   37.0458  -29.4108   -2.7858 C   0  0  0  0  0  0  0  0  0  0  0  0
   37.7138  -30.5188   -2.6284 O   0  0  0  0  0  0  0  0  0  0  0  0
   37.6108  -28.2864   -2.6200 O   0  0  0  0  0  0  0  0  0  0  0  0
   37.2881  -31.3442   -2.7530 H   0  0  0  0  0  0  0  0  0  0  0  0
   35.7948  -28.2028   -5.2346 N   0  0  0  0  0  0  0  0  0  0  0  0
   35.8839  -26.8126   -5.3906 C   0  0  0  0  0  0  0  0  0  0  0  0
   35.1656  -26.0089   -4.7450 O   0  0  0  0  0  0  0  0  0  0  0  0
   36.3686  -28.7559   -5.8126 H   0  0  0  0  0  0  0  0  0  0  0  0
   36.9001  -26.3468   -6.4123 C   0  0  0  0  0  0  0  0  0  0  0  0
   37.2410  -27.1494   -7.3215 O   0  0  0  0  0  0  0  0  0  0  0  0
   37.4142  -25.1659   -6.3028 O   0  0  0  0  0  0  0  0  0  0  0  0
   36.8463  -27.9978   -7.3696 H   0  0  0  0  0  0  0  0  0  0  0  0
  1  2  1  0  0  0
  1  6  1  0  0  0
  2  3  1  0  0  0
  3  4  2  0  0  0
  3  7  1  0  0  0
  4  5  1  0  0  0
  4  9  1  0  0  0
  5  6  1  0  0  0
  7  8  1  0  0  0
  8  9  2  0  0  0
  8 15  1  0  0  0
  9 11  1  0  0  0
 11 12  1  0  0  0
 11 13  2  0  0  0
 15 16  1  0  0  0
 16 19  1  0  0  0
 16 17  2  0  0  0
 19 20  1  0  0  0
 19 21  2  0  0  0
  1 10  1  0  0  0
 12 14  1  0  0  0
 15 18  1  0  0  0
 20 22  1  0  0  0
M  END
> <minimizedAffinity>
-6.83132

$$$$
5KA9_OTA_A_307


 22 23  0  0  0  0  0  0  0  0999 V2000
   40.1533  -23.3088   -3.2847 N   0  0  0  0  0  0  0  0  0  0  0  0
   39.9305  -24.5514   -2.5759 C   0  0  0  0  0  0  0  0  0  0  0  0
   38.8518  -25.4894   -3.1050 C   0  0  0  0  0  0  0  0  0  0  0  0
   38.4122  -25.2339   -4.4438 C   0  0  0  0  0  0  0  0  0  0  0  0
   38.9771  -24.1419   -5.2890 C   0  0  0  0  0  0  0  0  0  0  0  0
   40.1205  -23.3734   -4.7516 C   0  0  0  0  0  0  0  0  0  0  0  0
   38.0668  -26.7096   -2.4812 S   0  0  0  0  0  0  0  0  0  0  0  0
   37.1249  -27.1519   -3.6499 C   0  0  0  0  0  0  0  0  0  0  0  0
   37.3036  -26.3044   -4.7761 C   0  0  0  0  0  0  0  0  0  0  0  0
   41.0705  -22.9565   -3.0109 H   0  0  0  0  0  0  0  0  0  0  0  0
   36.5196  -26.4217   -6.1217 C   0  0  0  0  0  0  0  0  0  0  0  0
   37.1469  -26.7224   -7.2238 O   0  0  0  0  0  0  0  0  0  0  0  0
   35.2708  -26.1951   -6.1298 O   0  0  0  0  0  0  0  0  0  0  0  0
   38.0690  -26.8880   -7.2079 H   0  0  0  0  0  0  0  0  0  0  0  0
   36.1505  -28.1790   -3.7140 N   0  0  0  0  0  0  0  0  0  0  0  0
   34.8403  -28.1010   -3.2219 C   0  0  0  0  0  0  0  0  0  0  0  0
   34.4025  -27.0938   -2.6115 O   0  0  0  0  0  0  0  0  0  0  0  0
   36.4181  -29.0237   -4.1431 H   0  0  0  0  0  0  0  0  0  0  0  0
   33.9914  -29.3318   -3.4631 C   0  0  0  0  0  0  0  0  0  0  0  0
   32.9382  -29.2047   -4.1425 O   0  0  0  0  0  0  0  0  0  0  0  0
   34.3450  -30.4589   -2.9385 O   0  0  0  0  0  0  0  0  0  0  0  0
   32.7139  -28.3715   -4.5076 H   0  0  0  0  0  0  0  0  0  0  0  0
  1  2  1  0  0  0
  1  6  1  0  0  0
  2  3  1  0  0  0
  3  4  2  0  0  0
  3  7  1  0  0  0
  4  5  1  0  0  0
  4  9  1  0  0  0
  5  6  1  0  0  0
  7  8  1  0  0  0
  8  9  2  0  0  0
  8 15  1  0  0  0
  9 11  1  0  0  0
 11 12  1  0  0  0
 11 13  2  0  0  0
 15 16  1  0  0  0
 16 19  1  0  0  0
 16 17  2  0  0  0
 19 20  1  0  0  0
 19 21  2  0  0  0
  1 10  1  0  0  0
 12 14  1  0  0  0
 15 18  1  0  0  0
 20 22  1  0  0  0
M  END
> <minimizedAffinity>
-6.19703

$$$$
5KA9_OTA_A_307


 22 23  0  0  0  0  0  0  0  0999 V2000
   39.7676  -23.8248   -5.3893 N   0  0  0  0  0  0  0  0  0  0  0  0
   38.3495  -24.0345   -5.5923 C   0  0  0  0  0  0  0  0  0  0  0  0
   37.7196  -25.2811   -4.9819 C   0  0  0  0  0  0  0  0  0  0  0  0
   38.4956  -25.9347   -3.9712 C   0  0  0  0  0  0  0  0  0  0  0  0
   39.8240  -25.4309   -3.5155 C   0  0  0  0  0  0  0  0  0  0  0  0
   40.2940  -24.1365   -4.0541 C   0  0  0  0  0  0  0  0  0  0  0  0
   36.3659  -26.0540   -5.2357 S   0  0  0  0  0  0  0  0  0  0  0  0
   36.4431  -27.2366   -4.2137 C   0  0  0  0  0  0  0  0  0  0  0  0
   37.6662  -27.1870   -3.4925 C   0  0  0  0  0  0  0  0  0  0  0  0
   39.9652  -22.8421   -5.5782 H   0  0  0  0  0  0  0  0  0  0  0  0
   38.1093  -28.2157   -2.4041 C   0  0  0  0  0  0  0  0  0  0  0  0
   38.7758  -27.8186   -1.3569 O   0  0  0  0  0  0  0  0  0  0  0  0
   37.8336  -29.4438   -2.5674 O   0  0  0  0  0  0  0  0  0  0  0  0
   38.9746  -26.9098   -1.2450 H   0  0  0  0  0  0  0  0  0  0  0  0
   35.5443  -28.3034   -3.9643 N   0  0  0  0  0  0  0  0  0  0  0  0
   34.2194  -28.1763   -3.5243 C   0  0  0  0  0  0  0  0  0  0  0  0
   33.6971  -27.0663   -3.2527 O   0  0  0  0  0  0  0  0  0  0  0  0
   35.8808  -29.2165   -4.1136 H   0  0  0  0  0  0  0  0  0  0  0  0
   33.4645  -29.4813   -3.3807 C   0  0  0  0  0  0  0  0  0  0  0  0
   32.2492  -29.5055   -3.7116 O   0  0  0  0  0  0  0  0  0  0  0  0
   34.0692  -30.5133   -2.8910 O   0  0  0  0  0  0  0  0  0  0  0  0
   31.8441  -28.7374   -4.0635 H   0  0  0  0  0  0  0  0  0  0  0  0
  1  2  1  0  0  0
  1  6  1  0  0  0
  2  3  1  0  0  0
  3  4  2  0  0  0
  3  7  1  0  0  0
  4  5  1  0  0  0
  4  9  1  0  0  0
  5  6  1  0  0  0
  7  8  1  0  0  0
  8  9  2  0  0  0
  8 15  1  0  0  0
  9 11  1  0  0  0
 11 12  1  0  0  0
 11 13  2  0  0  0
 15 16  1  0  0  0
 16 19  1  0  0  0
 16 17  2  0  0  0
 19 20  1  0  0  0
 19 21  2  0  0  0
  1 10  1  0  0  0
 12 14  1  0  0  0
 15 18  1  0  0  0
 20 22  1  0  0  0
M  END
> <minimizedAffinity>
-6.08116

$$$$
5KA9_OTA_A_307


 22 23  0  0  0  0  0  0  0  0999 V2000
   37.3990  -23.0435   -4.8882 N   0  0  0  0  0  0  0  0  0  0  0  0
   36.5337  -23.5451   -3.8414 C   0  0  0  0  0  0  0  0  0  0  0  0
   35.9357  -24.9360   -4.0175 C   0  0  0  0  0  0  0  0  0  0  0  0
   36.5611  -25.7571   -5.0103 C   0  0  0  0  0  0  0  0  0  0  0  0
   37.7360  -25.3076   -5.8125 C   0  0  0  0  0  0  0  0  0  0  0  0
   38.3436  -24.0021   -5.4763 C   0  0  0  0  0  0  0  0  0  0  0  0
   34.7263  -25.6958   -3.3434 S   0  0  0  0  0  0  0  0  0  0  0  0
   34.7465  -27.0871   -4.0593 C   0  0  0  0  0  0  0  0  0  0  0  0
   35.7854  -27.1295   -5.0274 C   0  0  0  0  0  0  0  0  0  0  0  0
   37.9422  -22.2734   -4.4981 H   0  0  0  0  0  0  0  0  0  0  0  0
   36.0980  -28.3452   -5.9567 C   0  0  0  0  0  0  0  0  0  0  0  0
   35.1572  -28.8721   -6.6885 O   0  0  0  0  0  0  0  0  0  0  0  0
   37.2724  -28.8266   -5.9687 O   0  0  0  0  0  0  0  0  0  0  0  0
   34.2932  -28.5097   -6.6731 H   0  0  0  0  0  0  0  0  0  0  0  0
   33.8964  -28.2122   -3.9180 N   0  0  0  0  0  0  0  0  0  0  0  0
   33.8498  -29.0738   -2.8133 C   0  0  0  0  0  0  0  0  0  0  0  0
   34.6187  -28.9558   -1.8265 O   0  0  0  0  0  0  0  0  0  0  0  0
   33.2830  -28.4062   -4.6633 H   0  0  0  0  0  0  0  0  0  0  0  0
   32.8137  -30.1747   -2.9031 C   0  0  0  0  0  0  0  0  0  0  0  0
   33.1592  -31.3444   -2.5879 O   0  0  0  0  0  0  0  0  0  0  0  0
   31.6273  -29.8955   -3.3334 O   0  0  0  0  0  0  0  0  0  0  0  0
   34.0285  -31.5091   -2.2796 H   0  0  0  0  0  0  0  0  0  0  0  0
  1  2  1  0  0  0
  1  6  1  0  0  0
  2  3  1  0  0  0
  3  4  2  0  0  0
  3  7  1  0  0  0
  4  5  1  0  0  0
  4  9  1  0  0  0
  5  6  1  0  0  0
  7  8  1  0  0  0
  8  9  2  0  0  0
  8 15  1  0  0  0
  9 11  1  0  0  0
 11 12  1  0  0  0
 11 13  2  0  0  0
 15 16  1  0  0  0
 16 19  1  0  0  0
 16 17  2  0  0  0
 19 20  1  0  0  0
 19 21  2  0  0  0
  1 10  1  0  0  0
 12 14  1  0  0  0
 15 18  1  0  0  0
 20 22  1  0  0  0
M  END
> <minimizedAffinity>
-5.83352

$$$$
5KA9_OTA_A_307


 22 23  0  0  0  0  0  0  0  0999 V2000
   37.6097  -27.3726   -6.4633 N   0  0  0  0  0  0  0  0  0  0  0  0
   37.3943  -28.7222   -5.9856 C   0  0  0  0  0  0  0  0  0  0  0  0
   36.5751  -28.9048   -4.7132 C   0  0  0  0  0  0  0  0  0  0  0  0
   35.7963  -27.7723   -4.3110 C   0  0  0  0  0  0  0  0  0  0  0  0
   35.7575  -26.4977   -5.0856 C   0  0  0  0  0  0  0  0  0  0  0  0
   36.4649  -26.4560   -6.3835 C   0  0  0  0  0  0  0  0  0  0  0  0
   36.4011  -30.0956   -3.6905 S   0  0  0  0  0  0  0  0  0  0  0  0
   35.3903  -29.5139   -2.6472 C   0  0  0  0  0  0  0  0  0  0  0  0
   35.0468  -28.1772   -2.9845 C   0  0  0  0  0  0  0  0  0  0  0  0
   37.8908  -27.4320   -7.4420 H   0  0  0  0  0  0  0  0  0  0  0  0
   34.0826  -27.2632   -2.1634 C   0  0  0  0  0  0  0  0  0  0  0  0
   33.1233  -26.6147   -2.7616 O   0  0  0  0  0  0  0  0  0  0  0  0
   34.2630  -27.1421   -0.9129 O   0  0  0  0  0  0  0  0  0  0  0  0
   32.9980  -26.7105   -3.6852 H   0  0  0  0  0  0  0  0  0  0  0  0
   34.8493  -30.0825   -1.4672 N   0  0  0  0  0  0  0  0  0  0  0  0
   33.7772  -30.9836   -1.4057 C   0  0  0  0  0  0  0  0  0  0  0  0
   33.1384  -31.3502   -2.4237 O   0  0  0  0  0  0  0  0  0  0  0  0
   35.2639  -29.8211   -0.6134 H   0  0  0  0  0  0  0  0  0  0  0  0
   33.4299  -31.4715   -0.0147 C   0  0  0  0  0  0  0  0  0  0  0  0
   32.3042  -32.0080    0.1641 O   0  0  0  0  0  0  0  0  0  0  0  0
   34.2718  -31.2911    0.9493 O   0  0  0  0  0  0  0  0  0  0  0  0
   31.7196  -32.1225   -0.5591 H   0  0  0  0  0  0  0  0  0  0  0  0
  1  2  1  0  0  0
  1  6  1  0  0  0
  2  3  1  0  0  0
  3  4  2  0  0  0
  3  7  1  0  0  0
  4  5  1  0  0  0
  4  9  1  0  0  0
  5  6  1  0  0  0
  7  8  1  0  0  0
  8  9  2  0  0  0
  8 15  1  0  0  0
  9 11  1  0  0  0
 11 12  1  0  0  0
 11 13  2  0  0  0
 15 16  1  0  0  0
 16 19  1  0  0  0
 16 17  2  0  0  0
 19 20  1  0  0  0
 19 21  2  0  0  0
  1 10  1  0  0  0
 12 14  1  0  0  0
 15 18  1  0  0  0
 20 22  1  0  0  0
M  END
> <minimizedAffinity>
-5.76754

$$$$
5KA9_OTA_A_307


 22 23  0  0  0  0  0  0  0  0999 V2000
   37.7661  -25.6582   -5.8973 N   0  0  0  0  0  0  0  0  0  0  0  0
   36.8472  -26.6805   -6.3518 C   0  0  0  0  0  0  0  0  0  0  0  0
   35.8052  -27.1916   -5.3636 C   0  0  0  0  0  0  0  0  0  0  0  0
   35.5936  -26.3718   -4.2086 C   0  0  0  0  0  0  0  0  0  0  0  0
   36.3178  -25.0873   -3.9814 C   0  0  0  0  0  0  0  0  0  0  0  0
   37.2021  -24.5927   -5.0584 C   0  0  0  0  0  0  0  0  0  0  0  0
   34.8888  -28.4769   -5.3135 S   0  0  0  0  0  0  0  0  0  0  0  0
   34.0900  -28.2833   -3.9819 C   0  0  0  0  0  0  0  0  0  0  0  0
   34.4954  -27.0867   -3.3321 C   0  0  0  0  0  0  0  0  0  0  0  0
   38.1735  -25.2191   -6.7229 H   0  0  0  0  0  0  0  0  0  0  0  0
   33.9379  -26.5731   -1.9666 C   0  0  0  0  0  0  0  0  0  0  0  0
   32.6521  -26.4848   -1.7729 O   0  0  0  0  0  0  0  0  0  0  0  0
   34.7538  -26.2198   -1.0608 O   0  0  0  0  0  0  0  0  0  0  0  0
   32.0576  -26.7481   -2.4476 H   0  0  0  0  0  0  0  0  0  0  0  0
   33.1222  -29.1079   -3.3559 N   0  0  0  0  0  0  0  0  0  0  0  0
   33.3902  -30.2067   -2.5278 C   0  0  0  0  0  0  0  0  0  0  0  0
   34.5561  -30.6105   -2.2907 O   0  0  0  0  0  0  0  0  0  0  0  0
   32.1759  -28.8892   -3.5173 H   0  0  0  0  0  0  0  0  0  0  0  0
   32.1664  -30.8877   -1.9515 C   0  0  0  0  0  0  0  0  0  0  0  0
   32.3392  -31.8608   -1.1703 O   0  0  0  0  0  0  0  0  0  0  0  0
   30.9905  -30.4827   -2.3033 O   0  0  0  0  0  0  0  0  0  0  0  0
   33.2071  -32.1263   -0.9375 H   0  0  0  0  0  0  0  0  0  0  0  0
  1  2  1  0  0  0
  1  6  1  0  0  0
  2  3  1  0  0  0
  3  4  2  0  0  0
  3  7  1  0  0  0
  4  5  1  0  0  0
  4  9  1  0  0  0
  5  6  1  0  0  0
  7  8  1  0  0  0
  8  9  2  0  0  0
  8 15  1  0  0  0
  9 11  1  0  0  0
 11 12  1  0  0  0
 11 13  2  0  0  0
 15 16  1  0  0  0
 16 19  1  0  0  0
 16 17  2  0  0  0
 19 20  1  0  0  0
 19 21  2  0  0  0
  1 10  1  0  0  0
 12 14  1  0  0  0
 15 18  1  0  0  0
 20 22  1  0  0  0
M  END
> <minimizedAffinity>
-5.65564

$$$$
5KA9_OTA_A_307


 22 23  0  0  0  0  0  0  0  0999 V2000
   36.8688  -25.9242   -6.7343 N   0  0  0  0  0  0  0  0  0  0  0  0
   37.5368  -25.4032   -5.5603 C   0  0  0  0  0  0  0  0  0  0  0  0
   37.4161  -26.1939   -4.2628 C   0  0  0  0  0  0  0  0  0  0  0  0
   36.9667  -27.5465   -4.4021 C   0  0  0  0  0  0  0  0  0  0  0  0
   36.6552  -28.1661   -5.7231 C   0  0  0  0  0  0  0  0  0  0  0  0
   36.9391  -27.3767   -6.9408 C   0  0  0  0  0  0  0  0  0  0  0  0
   37.6634  -25.8397   -2.7436 S   0  0  0  0  0  0  0  0  0  0  0  0
   37.3230  -27.1813   -2.0134 C   0  0  0  0  0  0  0  0  0  0  0  0
   36.9087  -28.1635   -2.9525 C   0  0  0  0  0  0  0  0  0  0  0  0
   37.2833  -25.4752   -7.5510 H   0  0  0  0  0  0  0  0  0  0  0  0
   36.4657  -29.6178   -2.5947 C   0  0  0  0  0  0  0  0  0  0  0  0
   37.1265  -30.3067   -1.7074 O   0  0  0  0  0  0  0  0  0  0  0  0
   35.4712  -30.1258   -3.1978 O   0  0  0  0  0  0  0  0  0  0  0  0
   37.8594  -29.9231   -1.2673 H   0  0  0  0  0  0  0  0  0  0  0  0
   37.3235  -27.5097   -0.6348 N   0  0  0  0  0  0  0  0  0  0  0  0
   38.4590  -27.7236    0.1589 C   0  0  0  0  0  0  0  0  0  0  0  0
   39.6270  -27.6909   -0.3030 O   0  0  0  0  0  0  0  0  0  0  0  0
   36.4470  -27.5953   -0.1947 H   0  0  0  0  0  0  0  0  0  0  0  0
   38.1747  -28.0174    1.6171 C   0  0  0  0  0  0  0  0  0  0  0  0
   38.4304  -27.1220    2.4656 O   0  0  0  0  0  0  0  0  0  0  0  0
   37.7198  -29.1797    1.9530 O   0  0  0  0  0  0  0  0  0  0  0  0
   38.7592  -26.2907    2.1849 H   0  0  0  0  0  0  0  0  0  0  0  0
  1  2  1  0  0  0
  1  6  1  0  0  0
  2  3  1  0  0  0
  3  4  2  0  0  0
  3  7  1  0  0  0
  4  5  1  0  0  0
  4  9  1  0  0  0
  5  6  1  0  0  0
  7  8  1  0  0  0
  8  9  2  0  0  0
  8 15  1  0  0  0
  9 11  1  0  0  0
 11 12  1  0  0  0
 11 13  2  0  0  0
 15 16  1  0  0  0
 16 19  1  0  0  0
 16 17  2  0  0  0
 19 20  1  0  0  0
 19 21  2  0  0  0
  1 10  1  0  0  0
 12 14  1  0  0  0
 15 18  1  0  0  0
 20 22  1  0  0  0
M  END
> <minimizedAffinity>
-5.49735

$$$$
5KA9_OTA_A_307


 22 23  0  0  0  0  0  0  0  0999 V2000
   31.1971  -29.4277   -0.4307 N   0  0  0  0  0  0  0  0  0  0  0  0
   32.2645  -30.1910   -1.0423 C   0  0  0  0  0  0  0  0  0  0  0  0
   33.2842  -29.4376   -1.8885 C   0  0  0  0  0  0  0  0  0  0  0  0
   33.3082  -28.0170   -1.7090 C   0  0  0  0  0  0  0  0  0  0  0  0
   32.4187  -27.3057   -0.7453 C   0  0  0  0  0  0  0  0  0  0  0  0
   31.5636  -28.1251    0.1403 C   0  0  0  0  0  0  0  0  0  0  0  0
   34.3433  -29.8830   -2.9720 S   0  0  0  0  0  0  0  0  0  0  0  0
   35.0114  -28.5290   -3.3833 C   0  0  0  0  0  0  0  0  0  0  0  0
   34.4166  -27.4499   -2.6760 C   0  0  0  0  0  0  0  0  0  0  0  0
   30.8022  -29.9944    0.3198 H   0  0  0  0  0  0  0  0  0  0  0  0
   34.8043  -25.9460   -2.8406 C   0  0  0  0  0  0  0  0  0  0  0  0
   34.7842  -25.3870   -4.0177 O   0  0  0  0  0  0  0  0  0  0  0  0
   35.1627  -25.2858   -1.8175 O   0  0  0  0  0  0  0  0  0  0  0  0
   34.5181  -25.8825   -4.7672 H   0  0  0  0  0  0  0  0  0  0  0  0
   36.0226  -28.2485   -4.3356 N   0  0  0  0  0  0  0  0  0  0  0  0
   35.8536  -28.2084   -5.7266 C   0  0  0  0  0  0  0  0  0  0  0  0
   34.7605  -28.4741   -6.2862 O   0  0  0  0  0  0  0  0  0  0  0  0
   36.9256  -28.0652   -3.9889 H   0  0  0  0  0  0  0  0  0  0  0  0
   37.0945  -27.8384   -6.5120 C   0  0  0  0  0  0  0  0  0  0  0  0
   37.0868  -26.7608   -7.1644 O   0  0  0  0  0  0  0  0  0  0  0  0
   38.1022  -28.6477   -6.5239 O   0  0  0  0  0  0  0  0  0  0  0  0
   36.3379  -26.1987   -7.1317 H   0  0  0  0  0  0  0  0  0  0  0  0
  1  2  1  0  0  0
  1  6  1  0  0  0
  2  3  1  0  0  0
  3  4  2  0  0  0
  3  7  1  0  0  0
  4  5  1  0  0  0
  4  9  1  0  0  0
  5  6  1  0  0  0
  7  8  1  0  0  0
  8  9  2  0  0  0
  8 15  1  0  0  0
  9 11  1  0  0  0
 11 12  1  0  0  0
 11 13  2  0  0  0
 15 16  1  0  0  0
 16 19  1  0  0  0
 16 17  2  0  0  0
 19 20  1  0  0  0
 19 21  2  0  0  0
  1 10  1  0  0  0
 12 14  1  0  0  0
 15 18  1  0  0  0
 20 22  1  0  0  0
M  END
> <minimizedAffinity>
-5.48807

$$$$
5KA9_OTA_A_307


 22 23  0  0  0  0  0  0  0  0999 V2000
   33.0583  -30.2429   -2.9097 N   0  0  0  0  0  0  0  0  0  0  0  0
   33.4840  -29.4183   -4.0209 C   0  0  0  0  0  0  0  0  0  0  0  0
   34.6291  -28.4405   -3.7842 C   0  0  0  0  0  0  0  0  0  0  0  0
   35.4118  -28.6774   -2.6086 C   0  0  0  0  0  0  0  0  0  0  0  0
   35.1542  -29.8144   -1.6776 C   0  0  0  0  0  0  0  0  0  0  0  0
   34.1187  -30.7988   -2.0590 C   0  0  0  0  0  0  0  0  0  0  0  0
   35.1531  -27.1677   -4.5587 S   0  0  0  0  0  0  0  0  0  0  0  0
   36.3695  -26.7070   -3.6887 C   0  0  0  0  0  0  0  0  0  0  0  0
   36.5194  -27.5565   -2.5599 C   0  0  0  0  0  0  0  0  0  0  0  0
   32.5256  -31.0248   -3.2908 H   0  0  0  0  0  0  0  0  0  0  0  0
   37.6087  -27.3947   -1.4524 C   0  0  0  0  0  0  0  0  0  0  0  0
   38.1993  -28.4437   -0.9531 O   0  0  0  0  0  0  0  0  0  0  0  0
   37.8904  -26.2317   -1.0294 O   0  0  0  0  0  0  0  0  0  0  0  0
   37.9847  -29.2983   -1.2718 H   0  0  0  0  0  0  0  0  0  0  0  0
   37.2478  -25.6048   -3.8371 N   0  0  0  0  0  0  0  0  0  0  0  0
   37.8416  -25.1822   -5.0346 C   0  0  0  0  0  0  0  0  0  0  0  0
   37.6848  -25.7907   -6.1226 O   0  0  0  0  0  0  0  0  0  0  0  0
   37.4602  -25.0892   -3.0258 H   0  0  0  0  0  0  0  0  0  0  0  0
   38.7057  -23.9439   -4.9187 C   0  0  0  0  0  0  0  0  0  0  0  0
   39.3618  -23.5790   -5.9303 O   0  0  0  0  0  0  0  0  0  0  0  0
   38.7773  -23.3241   -3.7867 O   0  0  0  0  0  0  0  0  0  0  0  0
   39.2845  -24.0531   -6.7348 H   0  0  0  0  0  0  0  0  0  0  0  0
  1  2  1  0  0  0
  1  6  1  0  0  0
  2  3  1  0  0  0
  3  4  2  0  0  0
  3  7  1  0  0  0
  4  5  1  0  0  0
  4  9  1  0  0  0
  5  6  1  0  0  0
  7  8  1  0  0  0
  8  9  2  0  0  0
  8 15  1  0  0  0
  9 11  1  0  0  0
 11 12  1  0  0  0
 11 13  2  0  0  0
 15 16  1  0  0  0
 16 19  1  0  0  0
 16 17  2  0  0  0
 19 20  1  0  0  0
 19 21  2  0  0  0
  1 10  1  0  0  0
 12 14  1  0  0  0
 15 18  1  0  0  0
 20 22  1  0  0  0
M  END
> <minimizedAffinity>
-5.48776

$$$$
