4LOO_SB4_A_401
  RCSB PDB12061713363D
Coordinates from PDB:4LOO:A:401 Model:1 without hydrogens
 25 28  0  0  0  0            999 V2000
   23.0370  -20.8010   27.2090   C 0  0  0  0  0  0  0  0  0  0  0  0
   23.6910  -20.8480   25.8680   C 0  0  0  0  0  0  0  0  0  0  0  0
   22.8030  -20.1890   24.9040   N 0  0  0  0  0  0  0  0  0  0  0  0
   21.4880  -20.7580   24.7150   C 0  0  0  0  0  0  0  0  0  0  0  0
   20.8280  -20.6120   26.0840   C 0  0  0  0  0  0  0  0  0  0  0  0
   21.6040  -21.3770   27.1080   C 0  0  0  0  0  0  0  0  0  0  0  0
   20.8000  -22.7180   32.5220   C 0  0  0  0  0  0  0  0  0  0  0  0
   20.4530  -23.1400   33.7810   C 0  0  0  0  0  0  0  0  0  0  0  0
   19.1580  -22.8390   34.1860   C 0  0  0  0  0  0  0  0  0  0  0  0
   18.3490  -22.0970   33.3870   C 0  0  0  0  0  0  0  0  0  0  0  0
   18.7230  -21.6040   32.1600   C 0  0  0  0  0  0  0  0  0  0  0  0
   20.0220  -21.8990   31.7140   C 0  0  0  0  0  0  0  0  0  0  0  0
   18.7260  -23.3470   35.3320   F 0  0  0  0  0  0  0  0  0  0  0  0
   20.3980  -24.3440   29.6810   C 0  0  0  0  0  0  0  0  0  0  0  0
   21.2720  -23.3910   29.2160   C 0  0  0  0  0  0  0  0  0  0  0  0
   22.4510  -23.8180   28.5540   N 0  0  0  0  0  0  0  0  0  0  0  0
   22.7050  -25.1130   28.3330   C 0  0  0  0  0  0  0  0  0  0  0  0
   21.8810  -26.0280   28.8270   N 0  0  0  0  0  0  0  0  0  0  0  0
   20.6580  -25.6770   29.4900   C 0  0  0  0  0  0  0  0  0  0  0  0
   23.8150  -25.4990   27.6870   N 0  0  0  0  0  0  0  0  0  0  0  0
   21.0640  -21.1690   28.4290   N 0  0  0  0  0  0  0  0  0  0  0  0
   20.6100  -19.9850   28.8970   C 0  0  0  0  0  0  0  0  0  0  0  0
   20.1570  -20.1610   30.1480   N 0  0  0  0  0  0  0  0  0  0  0  0
   20.4200  -21.4280   30.5040   C 0  0  0  0  0  0  0  0  0  0  0  0
   20.9370  -22.0740   29.4060   C 0  0  0  0  0  0  0  0  0  0  0  0
  1  2  1  0  0  0  0
  1  6  1  0  0  0  0
  2  3  1  0  0  0  0
  3  4  1  0  0  0  0
  4  5  1  0  0  0  0
  5  6  1  0  0  0  0
  6 21  1  0  0  0  0
  7  8  2  0  0  0  0
  7 12  1  0  0  0  0
  8  9  1  0  0  0  0
  9 10  2  0  0  0  0
  9 13  1  0  0  0  0
 10 11  1  0  0  0  0
 11 12  2  0  0  0  0
 12 24  1  0  0  0  0
 14 15  1  0  0  0  0
 14 19  2  0  0  0  0
 15 16  2  0  0  0  0
 15 25  1  0  0  0  0
 16 17  1  0  0  0  0
 17 18  2  0  0  0  0
 17 20  1  0  0  0  0
 18 19  1  0  0  0  0
 21 22  1  0  0  0  0
 21 25  1  0  0  0  0
 22 23  2  0  0  0  0
 23 24  1  0  0  0  0
 24 25  2  0  0  0  0
A    1
CA1
A    2
CA2
A    3
NA3
A    4
CA4
A    5
CA5
A    6
CA6
A    7
CB1
A    8
CB2
A    9
CB3
A   10
CB4
A   11
CB5
A   12
CB6
A   13
FB7
A   14
CC1
A   15
CC2
A   16
NC3
A   17
CC4
A   18
NC5
A   19
CC6
A   20
NC7
A   21
ND1
A   22
CD2
A   23
ND3
A   24
CD4
A   25
CD5
M  END
>  <InstanceId>
4LOO_SB4_A_401

>  <ChemCompId>
SB4

>  <PdbId>
4LOO

>  <ChainId>
A

>  <ResidueNumber>
401

>  <InsertionCode>


>  <Model>
1

>  <AltIds>


>  <MissingHeavyAtoms>
0

>  <ObservedFormula>
C18 N6 F

>  <Name>
4-(4-FLUOROPHENYL)-1-(4-PIPERIDINYL)-5-(2-AMINO-4-PYRIMIDINYL)-IMIDAZOLE

>  <SystematicName>
4-[5-(4-fluorophenyl)-3-piperidin-4-yl-imidazol-4-yl]pyrimidin-2-amine

>  <Synonyms>
SB220025

>  <Type>
NON-POLYMER

>  <Formula>
C18 H19 F N6

>  <MolecularWeight>
338.382

>  <ModifiedDate>
2011-06-04

>  <Parent>


>  <OneLetterCode>


>  <SubcomponentList>


>  <AmbiguousFlag>
N

>  <InChI>
InChI=1S/C18H19FN6/c19-13-3-1-12(2-4-13)16-17(15-7-10-22-18(20)24-15)25(11-23-16)14-5-8-21-9-6-14/h1-4,7,10-11,14,21H,5-6,8-9H2,(H2,20,22,24)

>  <InChIKey>
VSPFURGQAYMVAN-UHFFFAOYSA-N

>  <SMILES>
c1cc(ccc1c2c(n(cn2)C3CCNCC3)c4ccnc(n4)N)F

$$$$
