4LOO_SB4_A_401


 28 31  0  0  0  0  0  0  0  0999 V2000
   21.0413  -21.0863   28.3001 N   0  0  0  0  0  0  0  0  0  0  0  0
   20.6217  -19.9094   28.8155 C   0  0  0  0  0  0  0  0  0  0  0  0
   20.2339  -20.1084   30.0848 N   0  0  0  0  0  0  0  0  0  0  0  0
   20.5055  -21.3842   30.4005 C   0  0  0  0  0  0  0  0  0  0  0  0
   20.9590  -22.0106   29.2638 C   0  0  0  0  0  0  0  0  0  0  0  0
   20.2634  -24.2510   29.1380 C   0  0  0  0  0  0  0  0  0  0  0  0
   21.2734  -23.3256   29.0295 C   0  0  0  0  0  0  0  0  0  0  0  0
   22.5680  -23.7748   28.6651 N   0  0  0  0  0  0  0  0  0  0  0  0
   22.8140  -25.0592   28.3818 C   0  0  0  0  0  0  0  0  0  0  0  0
   21.8459  -25.9532   28.5356 N   0  0  0  0  0  0  0  0  0  0  0  0
   20.5053  -25.5763   28.8810 C   0  0  0  0  0  0  0  0  0  0  0  0
   24.0398  -25.4641   28.0187 N   0  0  0  0  0  0  0  0  0  0  0  0
   24.7619  -24.8049   27.9031 H   0  0  0  0  0  0  0  0  0  0  0  0
   24.2177  -26.4206   27.8677 H   0  0  0  0  0  0  0  0  0  0  0  0
   21.7633  -19.8257   26.4545 C   0  0  0  0  0  0  0  0  0  0  0  0
   22.1534  -19.8506   25.0139 C   0  0  0  0  0  0  0  0  0  0  0  0
   21.1352  -20.6085   24.2785 N   0  0  0  0  0  0  0  0  0  0  0  0
   20.9374  -21.9908   24.6513 C   0  0  0  0  0  0  0  0  0  0  0  0
   20.4594  -21.9125   26.0992 C   0  0  0  0  0  0  0  0  0  0  0  0
   21.5094  -21.2704   26.9485 C   0  0  0  0  0  0  0  0  0  0  0  0
   21.3941  -20.5916   23.2921 H   0  0  0  0  0  0  0  0  0  0  0  0
   21.0515  -22.5454   32.4583 C   0  0  0  0  0  0  0  0  0  0  0  0
   20.7564  -22.9813   33.7257 C   0  0  0  0  0  0  0  0  0  0  0  0
   19.4253  -22.8716   34.1102 C   0  0  0  0  0  0  0  0  0  0  0  0
   18.5230  -22.2844   33.2828 C   0  0  0  0  0  0  0  0  0  0  0  0
   18.8335  -21.7733   32.0455 C   0  0  0  0  0  0  0  0  0  0  0  0
   20.1682  -21.8776   31.6200 C   0  0  0  0  0  0  0  0  0  0  0  0
   19.0609  -23.4085   35.2664 F   0  0  0  0  0  0  0  0  0  0  0  0
 15 16  1  0  0  0
 15 20  1  0  0  0
 16 17  1  0  0  0
 17 18  1  0  0  0
 18 19  1  0  0  0
 19 20  1  0  0  0
 20  1  1  0  0  0
 22 23  2  0  0  0
 22 27  1  0  0  0
 23 24  1  0  0  0
 24 25  2  0  0  0
 24 28  1  0  0  0
 25 26  1  0  0  0
 26 27  2  0  0  0
 27  4  1  0  0  0
  6  7  1  0  0  0
  6 11  2  0  0  0
  7  8  2  0  0  0
  7  5  1  0  0  0
  8  9  1  0  0  0
  9 10  2  0  0  0
  9 12  1  0  0  0
 10 11  1  0  0  0
  1  2  1  0  0  0
  1  5  1  0  0  0
  2  3  2  0  0  0
  3  4  1  0  0  0
  4  5  2  0  0  0
 17 21  1  0  0  0
 12 13  1  0  0  0
 12 14  1  0  0  0
M  END
> <minimizedAffinity>
-10.58774

$$$$
4LOO_SB4_A_401


 28 31  0  0  0  0  0  0  0  0999 V2000
   20.2330  -21.6797   30.7637 N   0  0  0  0  0  0  0  0  0  0  0  0
   20.0952  -20.3351   30.7696 C   0  0  0  0  0  0  0  0  0  0  0  0
   20.5827  -19.8466   29.6186 N   0  0  0  0  0  0  0  0  0  0  0  0
   20.9311  -20.8881   28.8471 C   0  0  0  0  0  0  0  0  0  0  0  0
   20.7641  -22.0340   29.5881 C   0  0  0  0  0  0  0  0  0  0  0  0
   20.0605  -24.2676   29.4012 C   0  0  0  0  0  0  0  0  0  0  0  0
   21.0696  -23.3404   29.3001 C   0  0  0  0  0  0  0  0  0  0  0  0
   22.3538  -23.7783   28.8882 N   0  0  0  0  0  0  0  0  0  0  0  0
   22.5898  -25.0523   28.5540 C   0  0  0  0  0  0  0  0  0  0  0  0
   21.6237  -25.9498   28.7003 N   0  0  0  0  0  0  0  0  0  0  0  0
   20.2930  -25.5834   29.0919 C   0  0  0  0  0  0  0  0  0  0  0  0
   23.8053  -25.4460   28.1466 N   0  0  0  0  0  0  0  0  0  0  0  0
   24.5258  -24.7842   28.0364 H   0  0  0  0  0  0  0  0  0  0  0  0
   23.9772  -26.3968   27.9578 H   0  0  0  0  0  0  0  0  0  0  0  0
   18.4967  -21.9543   32.3213 C   0  0  0  0  0  0  0  0  0  0  0  0
   18.0190  -22.6955   33.5258 C   0  0  0  0  0  0  0  0  0  0  0  0
   19.1008  -22.7013   34.5166 N   0  0  0  0  0  0  0  0  0  0  0  0
   20.3443  -23.3338   34.1392 C   0  0  0  0  0  0  0  0  0  0  0  0
   20.8371  -22.4947   32.9627 C   0  0  0  0  0  0  0  0  0  0  0  0
   19.8440  -22.5496   31.8462 C   0  0  0  0  0  0  0  0  0  0  0  0
   18.7529  -23.1813   35.3467 H   0  0  0  0  0  0  0  0  0  0  0  0
   20.8143  -20.7370   26.4296 C   0  0  0  0  0  0  0  0  0  0  0  0
   21.3537  -20.4548   25.1995 C   0  0  0  0  0  0  0  0  0  0  0  0
   22.7291  -20.2570   25.1715 C   0  0  0  0  0  0  0  0  0  0  0  0
   23.4429  -20.2667   26.3265 C   0  0  0  0  0  0  0  0  0  0  0  0
   22.8916  -20.4683   27.5691 C   0  0  0  0  0  0  0  0  0  0  0  0
   21.5049  -20.6831   27.6333 C   0  0  0  0  0  0  0  0  0  0  0  0
   23.3190  -20.1243   23.9915 F   0  0  0  0  0  0  0  0  0  0  0  0
 15 16  1  0  0  0
 15 20  1  0  0  0
 16 17  1  0  0  0
 17 18  1  0  0  0
 18 19  1  0  0  0
 19 20  1  0  0  0
 20  1  1  0  0  0
 22 23  2  0  0  0
 22 27  1  0  0  0
 23 24  1  0  0  0
 24 25  2  0  0  0
 24 28  1  0  0  0
 25 26  1  0  0  0
 26 27  2  0  0  0
 27  4  1  0  0  0
  6  7  1  0  0  0
  6 11  2  0  0  0
  7  8  2  0  0  0
  7  5  1  0  0  0
  8  9  1  0  0  0
  9 10  2  0  0  0
  9 12  1  0  0  0
 10 11  1  0  0  0
  1  2  1  0  0  0
  1  5  1  0  0  0
  2  3  2  0  0  0
  3  4  1  0  0  0
  4  5  2  0  0  0
 17 21  1  0  0  0
 12 13  1  0  0  0
 12 14  1  0  0  0
M  END
> <minimizedAffinity>
-9.23055

$$$$
4LOO_SB4_A_401


 28 31  0  0  0  0  0  0  0  0999 V2000
   23.0037  -23.5706   27.2912 N   0  0  0  0  0  0  0  0  0  0  0  0
   23.5307  -24.3446   28.2660 C   0  0  0  0  0  0  0  0  0  0  0  0
   22.7965  -24.1950   29.3795 N   0  0  0  0  0  0  0  0  0  0  0  0
   21.7504  -23.4103   29.0775 C   0  0  0  0  0  0  0  0  0  0  0  0
   21.9124  -22.9740   27.7838 C   0  0  0  0  0  0  0  0  0  0  0  0
   21.2719  -20.7514   27.3729 C   0  0  0  0  0  0  0  0  0  0  0  0
   21.1816  -22.0817   27.0405 C   0  0  0  0  0  0  0  0  0  0  0  0
   20.3612  -22.4524   25.9450 N   0  0  0  0  0  0  0  0  0  0  0  0
   19.7176  -21.5407   25.2068 C   0  0  0  0  0  0  0  0  0  0  0  0
   19.7712  -20.2639   25.5633 N   0  0  0  0  0  0  0  0  0  0  0  0
   20.5944  -19.8064   26.6457 C   0  0  0  0  0  0  0  0  0  0  0  0
   18.9620  -21.9067   24.1611 N   0  0  0  0  0  0  0  0  0  0  0  0
   18.9186  -22.8528   23.8923 H   0  0  0  0  0  0  0  0  0  0  0  0
   18.4506  -21.2293   23.6622 H   0  0  0  0  0  0  0  0  0  0  0  0
   24.5920  -24.5843   25.8889 C   0  0  0  0  0  0  0  0  0  0  0  0
   25.3178  -24.5150   24.5864 C   0  0  0  0  0  0  0  0  0  0  0  0
   25.8347  -23.1517   24.4241 N   0  0  0  0  0  0  0  0  0  0  0  0
   24.8709  -22.0753   24.3894 C   0  0  0  0  0  0  0  0  0  0  0  0
   24.2145  -22.1300   25.7668 C   0  0  0  0  0  0  0  0  0  0  0  0
   23.5402  -23.4510   25.9579 C   0  0  0  0  0  0  0  0  0  0  0  0
   26.3557  -23.1243   23.5476 H   0  0  0  0  0  0  0  0  0  0  0  0
   21.1456  -22.1553   31.0624 C   0  0  0  0  0  0  0  0  0  0  0  0
   20.2412  -21.7146   31.9960 C   0  0  0  0  0  0  0  0  0  0  0  0
   19.0029  -22.3454   31.9857 C   0  0  0  0  0  0  0  0  0  0  0  0
   18.7193  -23.2750   31.0376 C   0  0  0  0  0  0  0  0  0  0  0  0
   19.5956  -23.6590   30.0512 C   0  0  0  0  0  0  0  0  0  0  0  0
   20.8613  -23.0497   30.0386 C   0  0  0  0  0  0  0  0  0  0  0  0
   18.1458  -22.0590   32.9560 F   0  0  0  0  0  0  0  0  0  0  0  0
 15 16  1  0  0  0
 15 20  1  0  0  0
 16 17  1  0  0  0
 17 18  1  0  0  0
 18 19  1  0  0  0
 19 20  1  0  0  0
 20  1  1  0  0  0
 22 23  2  0  0  0
 22 27  1  0  0  0
 23 24  1  0  0  0
 24 25  2  0  0  0
 24 28  1  0  0  0
 25 26  1  0  0  0
 26 27  2  0  0  0
 27  4  1  0  0  0
  6  7  1  0  0  0
  6 11  2  0  0  0
  7  8  2  0  0  0
  7  5  1  0  0  0
  8  9  1  0  0  0
  9 10  2  0  0  0
  9 12  1  0  0  0
 10 11  1  0  0  0
  1  2  1  0  0  0
  1  5  1  0  0  0
  2  3  2  0  0  0
  3  4  1  0  0  0
  4  5  2  0  0  0
 17 21  1  0  0  0
 12 13  1  0  0  0
 12 14  1  0  0  0
M  END
> <minimizedAffinity>
-8.60897

$$$$
4LOO_SB4_A_401


 28 31  0  0  0  0  0  0  0  0999 V2000
   23.0399  -23.6240   27.2003 N   0  0  0  0  0  0  0  0  0  0  0  0
   23.5091  -24.4203   28.1866 C   0  0  0  0  0  0  0  0  0  0  0  0
   22.7561  -24.2384   29.2826 N   0  0  0  0  0  0  0  0  0  0  0  0
   21.7530  -23.4084   28.9567 C   0  0  0  0  0  0  0  0  0  0  0  0
   21.9645  -22.9799   27.6676 C   0  0  0  0  0  0  0  0  0  0  0  0
   20.4389  -22.5283   25.9391 C   0  0  0  0  0  0  0  0  0  0  0  0
   21.2915  -22.0564   26.9080 C   0  0  0  0  0  0  0  0  0  0  0  0
   21.4117  -20.6541   27.0804 N   0  0  0  0  0  0  0  0  0  0  0  0
   20.6858  -19.7911   26.3602 C   0  0  0  0  0  0  0  0  0  0  0  0
   19.9016  -20.2525   25.3947 N   0  0  0  0  0  0  0  0  0  0  0  0
   19.7100  -21.6567   25.1710 C   0  0  0  0  0  0  0  0  0  0  0  0
   20.7965  -18.4682   26.5501 N   0  0  0  0  0  0  0  0  0  0  0  0
   21.3771  -18.1204   27.2652 H   0  0  0  0  0  0  0  0  0  0  0  0
   20.2972  -17.8448   25.9745 H   0  0  0  0  0  0  0  0  0  0  0  0
   24.7195  -24.6099   25.8875 C   0  0  0  0  0  0  0  0  0  0  0  0
   25.4825  -24.5540   24.6058 C   0  0  0  0  0  0  0  0  0  0  0  0
   25.9378  -23.1738   24.4057 N   0  0  0  0  0  0  0  0  0  0  0  0
   24.9247  -22.1486   24.2998 C   0  0  0  0  0  0  0  0  0  0  0  0
   24.2278  -22.1837   25.6578 C   0  0  0  0  0  0  0  0  0  0  0  0
   23.6125  -23.5283   25.8801 C   0  0  0  0  0  0  0  0  0  0  0  0
   26.4847  -23.1537   23.5450 H   0  0  0  0  0  0  0  0  0  0  0  0
   21.0820  -21.9676   30.7883 C   0  0  0  0  0  0  0  0  0  0  0  0
   20.1638  -21.4939   31.6916 C   0  0  0  0  0  0  0  0  0  0  0  0
   18.9909  -22.2306   31.8070 C   0  0  0  0  0  0  0  0  0  0  0  0
   18.7730  -23.2968   30.9951 C   0  0  0  0  0  0  0  0  0  0  0  0
   19.6567  -23.7238   30.0333 C   0  0  0  0  0  0  0  0  0  0  0  0
   20.8582  -23.0089   29.8969 C   0  0  0  0  0  0  0  0  0  0  0  0
   18.1353  -21.9002   32.7645 F   0  0  0  0  0  0  0  0  0  0  0  0
 15 16  1  0  0  0
 15 20  1  0  0  0
 16 17  1  0  0  0
 17 18  1  0  0  0
 18 19  1  0  0  0
 19 20  1  0  0  0
 20  1  1  0  0  0
 22 23  2  0  0  0
 22 27  1  0  0  0
 23 24  1  0  0  0
 24 25  2  0  0  0
 24 28  1  0  0  0
 25 26  1  0  0  0
 26 27  2  0  0  0
 27  4  1  0  0  0
  6  7  1  0  0  0
  6 11  2  0  0  0
  7  8  2  0  0  0
  7  5  1  0  0  0
  8  9  1  0  0  0
  9 10  2  0  0  0
  9 12  1  0  0  0
 10 11  1  0  0  0
  1  2  1  0  0  0
  1  5  1  0  0  0
  2  3  2  0  0  0
  3  4  1  0  0  0
  4  5  2  0  0  0
 17 21  1  0  0  0
 12 13  1  0  0  0
 12 14  1  0  0  0
M  END
> <minimizedAffinity>
-8.44103

$$$$
4LOO_SB4_A_401


 28 31  0  0  0  0  0  0  0  0999 V2000
   22.9227  -23.5608   27.4104 N   0  0  0  0  0  0  0  0  0  0  0  0
   23.3274  -24.3249   28.4492 C   0  0  0  0  0  0  0  0  0  0  0  0
   22.5377  -24.0713   29.5043 N   0  0  0  0  0  0  0  0  0  0  0  0
   21.5748  -23.2277   29.1014 C   0  0  0  0  0  0  0  0  0  0  0  0
   21.8504  -22.8646   27.8043 C   0  0  0  0  0  0  0  0  0  0  0  0
   20.3964  -22.4462   26.0072 C   0  0  0  0  0  0  0  0  0  0  0  0
   21.2372  -21.9571   26.9778 C   0  0  0  0  0  0  0  0  0  0  0  0
   21.4070  -20.5532   27.0828 N   0  0  0  0  0  0  0  0  0  0  0  0
   20.7374  -19.7021   26.2969 C   0  0  0  0  0  0  0  0  0  0  0  0
   19.9651  -20.1831   25.3313 N   0  0  0  0  0  0  0  0  0  0  0  0
   19.7256  -21.5888   25.1730 C   0  0  0  0  0  0  0  0  0  0  0  0
   20.8941  -18.3762   26.4231 N   0  0  0  0  0  0  0  0  0  0  0  0
   21.4660  -18.0139   27.1378 H   0  0  0  0  0  0  0  0  0  0  0  0
   20.4371  -17.7651   25.8009 H   0  0  0  0  0  0  0  0  0  0  0  0
   24.6085  -24.6671   26.2058 C   0  0  0  0  0  0  0  0  0  0  0  0
   25.4224  -24.6943   24.9549 C   0  0  0  0  0  0  0  0  0  0  0  0
   25.9437  -23.3433   24.7203 N   0  0  0  0  0  0  0  0  0  0  0  0
   24.9802  -22.2823   24.5337 C   0  0  0  0  0  0  0  0  0  0  0  0
   24.2301  -22.2340   25.8627 C   0  0  0  0  0  0  0  0  0  0  0  0
   23.5498  -23.5420   26.1118 C   0  0  0  0  0  0  0  0  0  0  0  0
   26.5241  -23.3804   23.8823 H   0  0  0  0  0  0  0  0  0  0  0  0
   19.4945  -23.4383   30.3298 C   0  0  0  0  0  0  0  0  0  0  0  0
   18.5933  -23.0245   31.2786 C   0  0  0  0  0  0  0  0  0  0  0  0
   18.8048  -21.7549   31.8030 C   0  0  0  0  0  0  0  0  0  0  0  0
   19.8970  -21.0380   31.4334 C   0  0  0  0  0  0  0  0  0  0  0  0
   20.8448  -21.4846   30.5442 C   0  0  0  0  0  0  0  0  0  0  0  0
   20.6564  -22.7597   29.9856 C   0  0  0  0  0  0  0  0  0  0  0  0
   17.8851  -21.2510   32.6143 F   0  0  0  0  0  0  0  0  0  0  0  0
 15 16  1  0  0  0
 15 20  1  0  0  0
 16 17  1  0  0  0
 17 18  1  0  0  0
 18 19  1  0  0  0
 19 20  1  0  0  0
 20  1  1  0  0  0
 22 23  2  0  0  0
 22 27  1  0  0  0
 23 24  1  0  0  0
 24 25  2  0  0  0
 24 28  1  0  0  0
 25 26  1  0  0  0
 26 27  2  0  0  0
 27  4  1  0  0  0
  6  7  1  0  0  0
  6 11  2  0  0  0
  7  8  2  0  0  0
  7  5  1  0  0  0
  8  9  1  0  0  0
  9 10  2  0  0  0
  9 12  1  0  0  0
 10 11  1  0  0  0
  1  2  1  0  0  0
  1  5  1  0  0  0
  2  3  2  0  0  0
  3  4  1  0  0  0
  4  5  2  0  0  0
 17 21  1  0  0  0
 12 13  1  0  0  0
 12 14  1  0  0  0
M  END
> <minimizedAffinity>
-8.40890

$$$$
4LOO_SB4_A_401


 28 31  0  0  0  0  0  0  0  0999 V2000
   20.3754  -21.5407   30.3755 N   0  0  0  0  0  0  0  0  0  0  0  0
   20.2950  -20.1947   30.2826 C   0  0  0  0  0  0  0  0  0  0  0  0
   20.8887  -19.8048   29.1438 N   0  0  0  0  0  0  0  0  0  0  0  0
   21.2498  -20.9090   28.4718 C   0  0  0  0  0  0  0  0  0  0  0  0
   20.9784  -21.9944   29.2709 C   0  0  0  0  0  0  0  0  0  0  0  0
   22.5263  -23.6754   28.7253 C   0  0  0  0  0  0  0  0  0  0  0  0
   21.2489  -23.3280   29.0938 C   0  0  0  0  0  0  0  0  0  0  0  0
   20.2954  -24.3594   29.2881 N   0  0  0  0  0  0  0  0  0  0  0  0
   20.6212  -25.6516   29.1679 C   0  0  0  0  0  0  0  0  0  0  0  0
   21.8428  -25.9766   28.7652 N   0  0  0  0  0  0  0  0  0  0  0  0
   22.8694  -24.9939   28.5678 C   0  0  0  0  0  0  0  0  0  0  0  0
   19.7122  -26.6155   29.3753 N   0  0  0  0  0  0  0  0  0  0  0  0
   18.8043  -26.3799   29.6742 H   0  0  0  0  0  0  0  0  0  0  0  0
   19.9529  -27.5588   29.2288 H   0  0  0  0  0  0  0  0  0  0  0  0
   18.6120  -21.5349   31.9269 C   0  0  0  0  0  0  0  0  0  0  0  0
   18.0344  -22.1705   33.1478 C   0  0  0  0  0  0  0  0  0  0  0  0
   19.1019  -22.2935   34.1466 N   0  0  0  0  0  0  0  0  0  0  0  0
   20.2503  -23.0979   33.7963 C   0  0  0  0  0  0  0  0  0  0  0  0
   20.8560  -22.3665   32.6008 C   0  0  0  0  0  0  0  0  0  0  0  0
   19.8688  -22.3192   31.4787 C   0  0  0  0  0  0  0  0  0  0  0  0
   18.6895  -22.6984   34.9871 H   0  0  0  0  0  0  0  0  0  0  0  0
   23.1601  -20.1950   27.1598 C   0  0  0  0  0  0  0  0  0  0  0  0
   23.8943  -20.1526   26.0010 C   0  0  0  0  0  0  0  0  0  0  0  0
   23.2573  -20.6302   24.8617 C   0  0  0  0  0  0  0  0  0  0  0  0
   22.0170  -21.1749   24.9520 C   0  0  0  0  0  0  0  0  0  0  0  0
   21.3127  -21.2926   26.1262 C   0  0  0  0  0  0  0  0  0  0  0  0
   21.9221  -20.8094   27.2960 C   0  0  0  0  0  0  0  0  0  0  0  0
   23.8666  -20.4797   23.6938 F   0  0  0  0  0  0  0  0  0  0  0  0
 15 16  1  0  0  0
 15 20  1  0  0  0
 16 17  1  0  0  0
 17 18  1  0  0  0
 18 19  1  0  0  0
 19 20  1  0  0  0
 20  1  1  0  0  0
 22 23  2  0  0  0
 22 27  1  0  0  0
 23 24  1  0  0  0
 24 25  2  0  0  0
 24 28  1  0  0  0
 25 26  1  0  0  0
 26 27  2  0  0  0
 27  4  1  0  0  0
  6  7  1  0  0  0
  6 11  2  0  0  0
  7  8  2  0  0  0
  7  5  1  0  0  0
  8  9  1  0  0  0
  9 10  2  0  0  0
  9 12  1  0  0  0
 10 11  1  0  0  0
  1  2  1  0  0  0
  1  5  1  0  0  0
  2  3  2  0  0  0
  3  4  1  0  0  0
  4  5  2  0  0  0
 17 21  1  0  0  0
 12 13  1  0  0  0
 12 14  1  0  0  0
M  END
> <minimizedAffinity>
-8.26508

$$$$
4LOO_SB4_A_401


 28 31  0  0  0  0  0  0  0  0999 V2000
   24.2539  -24.3305   26.6770 N   0  0  0  0  0  0  0  0  0  0  0  0
   24.2661  -25.4620   27.4162 C   0  0  0  0  0  0  0  0  0  0  0  0
   23.3055  -25.3777   28.3496 N   0  0  0  0  0  0  0  0  0  0  0  0
   22.6230  -24.2425   28.1331 C   0  0  0  0  0  0  0  0  0  0  0  0
   23.2540  -23.5599   27.1201 C   0  0  0  0  0  0  0  0  0  0  0  0
   23.8029  -21.2773   27.0345 C   0  0  0  0  0  0  0  0  0  0  0  0
   23.0167  -22.3149   26.5944 C   0  0  0  0  0  0  0  0  0  0  0  0
   22.0263  -22.0469   25.6157 N   0  0  0  0  0  0  0  0  0  0  0  0
   21.8740  -20.8290   25.0829 C   0  0  0  0  0  0  0  0  0  0  0  0
   22.6037  -19.8230   25.5474 N   0  0  0  0  0  0  0  0  0  0  0  0
   23.6396  -20.0160   26.5212 C   0  0  0  0  0  0  0  0  0  0  0  0
   20.9459  -20.5971   24.1430 N   0  0  0  0  0  0  0  0  0  0  0  0
   20.4016  -21.3399   23.7948 H   0  0  0  0  0  0  0  0  0  0  0  0
   20.8088  -19.6840   23.8013 H   0  0  0  0  0  0  0  0  0  0  0  0
   24.2766  -24.1913   24.3325 C   0  0  0  0  0  0  0  0  0  0  0  0
   25.1172  -24.0319   23.1093 C   0  0  0  0  0  0  0  0  0  0  0  0
   26.2465  -24.9633   23.2072 N   0  0  0  0  0  0  0  0  0  0  0  0
   27.1495  -24.7978   24.3234 C   0  0  0  0  0  0  0  0  0  0  0  0
   26.2692  -25.0523   25.5446 C   0  0  0  0  0  0  0  0  0  0  0  0
   25.1626  -24.0478   25.5934 C   0  0  0  0  0  0  0  0  0  0  0  0
   26.7956  -24.8694   22.3528 H   0  0  0  0  0  0  0  0  0  0  0  0
   20.3146  -24.3502   28.8683 C   0  0  0  0  0  0  0  0  0  0  0  0
   19.3013  -24.0573   29.7462 C   0  0  0  0  0  0  0  0  0  0  0  0
   19.5881  -23.0903   30.7025 C   0  0  0  0  0  0  0  0  0  0  0  0
   20.8343  -22.5571   30.7803 C   0  0  0  0  0  0  0  0  0  0  0  0
   21.8740  -22.9091   29.9535 C   0  0  0  0  0  0  0  0  0  0  0  0
   21.6162  -23.8757   28.9673 C   0  0  0  0  0  0  0  0  0  0  0  0
   18.6018  -22.6677   31.4814 F   0  0  0  0  0  0  0  0  0  0  0  0
 15 16  1  0  0  0
 15 20  1  0  0  0
 16 17  1  0  0  0
 17 18  1  0  0  0
 18 19  1  0  0  0
 19 20  1  0  0  0
 20  1  1  0  0  0
 22 23  2  0  0  0
 22 27  1  0  0  0
 23 24  1  0  0  0
 24 25  2  0  0  0
 24 28  1  0  0  0
 25 26  1  0  0  0
 26 27  2  0  0  0
 27  4  1  0  0  0
  6  7  1  0  0  0
  6 11  2  0  0  0
  7  8  2  0  0  0
  7  5  1  0  0  0
  8  9  1  0  0  0
  9 10  2  0  0  0
  9 12  1  0  0  0
 10 11  1  0  0  0
  1  2  1  0  0  0
  1  5  1  0  0  0
  2  3  2  0  0  0
  3  4  1  0  0  0
  4  5  2  0  0  0
 17 21  1  0  0  0
 12 13  1  0  0  0
 12 14  1  0  0  0
M  END
> <minimizedAffinity>
-7.96353

$$$$
4LOO_SB4_A_401


 28 31  0  0  0  0  0  0  0  0999 V2000
   22.8162  -23.9417   27.9860 N   0  0  0  0  0  0  0  0  0  0  0  0
   22.8887  -24.9374   28.8972 C   0  0  0  0  0  0  0  0  0  0  0  0
   22.0467  -24.6614   29.9052 N   0  0  0  0  0  0  0  0  0  0  0  0
   21.3703  -23.5486   29.5805 C   0  0  0  0  0  0  0  0  0  0  0  0
   21.8938  -23.0675   28.4037 C   0  0  0  0  0  0  0  0  0  0  0  0
   22.4369  -20.8302   27.9363 C   0  0  0  0  0  0  0  0  0  0  0  0
   21.6257  -21.9156   27.7080 C   0  0  0  0  0  0  0  0  0  0  0  0
   20.5786  -21.7916   26.7598 N   0  0  0  0  0  0  0  0  0  0  0  0
   20.3949  -20.6685   26.0562 C   0  0  0  0  0  0  0  0  0  0  0  0
   21.1512  -19.6100   26.3168 N   0  0  0  0  0  0  0  0  0  0  0  0
   22.2433  -19.6611   27.2458 C   0  0  0  0  0  0  0  0  0  0  0  0
   19.4124  -20.5748   25.1483 N   0  0  0  0  0  0  0  0  0  0  0  0
   18.8482  -21.3571   24.9510 H   0  0  0  0  0  0  0  0  0  0  0  0
   19.2553  -19.7237   24.6790 H   0  0  0  0  0  0  0  0  0  0  0  0
   22.6333  -24.4219   25.6942 C   0  0  0  0  0  0  0  0  0  0  0  0
   23.3494  -24.5191   24.3880 C   0  0  0  0  0  0  0  0  0  0  0  0
   24.5776  -25.2935   24.5977 N   0  0  0  0  0  0  0  0  0  0  0  0
   25.5448  -24.7653   25.5326 C   0  0  0  0  0  0  0  0  0  0  0  0
   24.7996  -24.7633   26.8652 C   0  0  0  0  0  0  0  0  0  0  0  0
   23.5978  -23.8781   26.7756 C   0  0  0  0  0  0  0  0  0  0  0  0
   25.0420  -25.3815   23.6938 H   0  0  0  0  0  0  0  0  0  0  0  0
   19.1315  -23.3487   30.4906 C   0  0  0  0  0  0  0  0  0  0  0  0
   18.2284  -22.8774   31.4103 C   0  0  0  0  0  0  0  0  0  0  0  0
   18.6878  -21.8696   32.2499 C   0  0  0  0  0  0  0  0  0  0  0  0
   19.9829  -21.4669   32.1862 C   0  0  0  0  0  0  0  0  0  0  0  0
   20.9105  -21.9953   31.3208 C   0  0  0  0  0  0  0  0  0  0  0  0
   20.4773  -23.0084   30.4494 C   0  0  0  0  0  0  0  0  0  0  0  0
   17.8162  -21.2808   33.0571 F   0  0  0  0  0  0  0  0  0  0  0  0
 15 16  1  0  0  0
 15 20  1  0  0  0
 16 17  1  0  0  0
 17 18  1  0  0  0
 18 19  1  0  0  0
 19 20  1  0  0  0
 20  1  1  0  0  0
 22 23  2  0  0  0
 22 27  1  0  0  0
 23 24  1  0  0  0
 24 25  2  0  0  0
 24 28  1  0  0  0
 25 26  1  0  0  0
 26 27  2  0  0  0
 27  4  1  0  0  0
  6  7  1  0  0  0
  6 11  2  0  0  0
  7  8  2  0  0  0
  7  5  1  0  0  0
  8  9  1  0  0  0
  9 10  2  0  0  0
  9 12  1  0  0  0
 10 11  1  0  0  0
  1  2  1  0  0  0
  1  5  1  0  0  0
  2  3  2  0  0  0
  3  4  1  0  0  0
  4  5  2  0  0  0
 17 21  1  0  0  0
 12 13  1  0  0  0
 12 14  1  0  0  0
M  END
> <minimizedAffinity>
-7.66984

$$$$
