5C5T_AKG_A_301


 12 11  0  0  0  0  0  0  0  0999 V2000
  -10.8224   17.9421   -9.1121 C   0  0  0  0  0  0  0  0  0  0  0  0
   -9.6216   17.9430   -9.1280 O   0  0  0  0  0  0  0  0  0  0  0  0
  -11.5023   17.6460   -7.8042 C   0  0  0  0  0  0  0  0  0  0  0  0
  -12.6568   18.1176   -7.5684 O   0  0  0  0  0  0  0  0  0  0  0  0
  -10.9073   17.0203   -6.8874 O   0  0  0  0  0  0  0  0  0  0  0  0
  -10.0543   16.6641   -7.0405 H   0  0  0  0  0  0  0  0  0  0  0  0
  -11.6615   18.2445  -10.3646 C   0  0  0  0  0  0  0  0  0  0  0  0
  -11.8171   19.7243  -10.6028 C   0  0  0  0  0  0  0  0  0  0  0  0
  -13.2615   20.1391  -10.7139 C   0  0  0  0  0  0  0  0  0  0  0  0
  -13.5739   21.3622  -10.7045 O   0  0  0  0  0  0  0  0  0  0  0  0
  -14.1535   19.2402  -10.7942 O   0  0  0  0  0  0  0  0  0  0  0  0
  -13.9081   18.3360  -10.8002 H   0  0  0  0  0  0  0  0  0  0  0  0
  3  4  2  0  0  0
  3  5  1  0  0  0
  3  1  1  0  0  0
  1  2  2  0  0  0
  1  7  1  0  0  0
  7  8  1  0  0  0
  8  9  1  0  0  0
  9 10  2  0  0  0
  9 11  1  0  0  0
  5  6  1  0  0  0
 11 12  1  0  0  0
M  END
> <minimizedAffinity>
-5.71687

$$$$
5C5T_AKG_A_301


 12 11  0  0  0  0  0  0  0  0999 V2000
  -12.1295   19.0668  -11.0914 C   0  0  0  0  0  0  0  0  0  0  0  0
  -12.7200   18.2880  -11.7892 O   0  0  0  0  0  0  0  0  0  0  0  0
  -12.6330   20.4828  -11.0454 C   0  0  0  0  0  0  0  0  0  0  0  0
  -11.8741   21.4375  -11.3967 O   0  0  0  0  0  0  0  0  0  0  0  0
  -13.7650   20.7567  -10.5664 O   0  0  0  0  0  0  0  0  0  0  0  0
  -14.3408   20.0668  -10.3008 H   0  0  0  0  0  0  0  0  0  0  0  0
  -10.9087   18.6563  -10.2514 C   0  0  0  0  0  0  0  0  0  0  0  0
  -11.2547   18.4684   -8.7969 C   0  0  0  0  0  0  0  0  0  0  0  0
  -10.6648   17.2053   -8.2251 C   0  0  0  0  0  0  0  0  0  0  0  0
  -10.0974   16.3695   -8.9823 O   0  0  0  0  0  0  0  0  0  0  0  0
  -10.7684   16.9890   -6.9791 O   0  0  0  0  0  0  0  0  0  0  0  0
  -11.1919   17.6175   -6.4281 H   0  0  0  0  0  0  0  0  0  0  0  0
  3  4  2  0  0  0
  3  5  1  0  0  0
  3  1  1  0  0  0
  1  2  2  0  0  0
  1  7  1  0  0  0
  7  8  1  0  0  0
  8  9  1  0  0  0
  9 10  2  0  0  0
  9 11  1  0  0  0
  5  6  1  0  0  0
 11 12  1  0  0  0
M  END
> <minimizedAffinity>
-5.70773

$$$$
5C5T_AKG_A_301


 12 11  0  0  0  0  0  0  0  0999 V2000
  -10.6804   18.3496   -9.8490 C   0  0  0  0  0  0  0  0  0  0  0  0
   -9.9914   18.8801  -10.6772 O   0  0  0  0  0  0  0  0  0  0  0  0
  -10.0624   17.2540   -9.0255 C   0  0  0  0  0  0  0  0  0  0  0  0
   -8.8464   16.9366   -9.2023 O   0  0  0  0  0  0  0  0  0  0  0  0
  -10.7553   16.5682   -8.2282 O   0  0  0  0  0  0  0  0  0  0  0  0
  -11.6551   16.7854   -8.0832 H   0  0  0  0  0  0  0  0  0  0  0  0
  -12.1409   18.7648   -9.6060 C   0  0  0  0  0  0  0  0  0  0  0  0
  -12.8217   19.2211  -10.8705 C   0  0  0  0  0  0  0  0  0  0  0  0
  -12.8305   20.7216  -11.0084 C   0  0  0  0  0  0  0  0  0  0  0  0
  -13.9069   21.3662  -10.8686 O   0  0  0  0  0  0  0  0  0  0  0  0
  -11.7462   21.3183  -11.2877 O   0  0  0  0  0  0  0  0  0  0  0  0
  -10.9541   20.8280  -11.3888 H   0  0  0  0  0  0  0  0  0  0  0  0
  3  4  2  0  0  0
  3  5  1  0  0  0
  3  1  1  0  0  0
  1  2  2  0  0  0
  1  7  1  0  0  0
  7  8  1  0  0  0
  8  9  1  0  0  0
  9 10  2  0  0  0
  9 11  1  0  0  0
  5  6  1  0  0  0
 11 12  1  0  0  0
M  END
> <minimizedAffinity>
-5.58149

$$$$
5C5T_AKG_A_301


 12 11  0  0  0  0  0  0  0  0999 V2000
  -11.6053   18.1478   -8.9247 C   0  0  0  0  0  0  0  0  0  0  0  0
  -12.6658   18.4603   -8.4558 O   0  0  0  0  0  0  0  0  0  0  0  0
  -10.7730   17.1526   -8.1650 C   0  0  0  0  0  0  0  0  0  0  0  0
  -10.0594   16.3117   -8.7931 O   0  0  0  0  0  0  0  0  0  0  0  0
  -10.8450   17.0652   -6.9107 O   0  0  0  0  0  0  0  0  0  0  0  0
  -11.3663   17.6760   -6.4278 H   0  0  0  0  0  0  0  0  0  0  0  0
  -11.0972   18.7164  -10.2600 C   0  0  0  0  0  0  0  0  0  0  0  0
  -12.2254   19.1062  -11.1798 C   0  0  0  0  0  0  0  0  0  0  0  0
  -12.6299   20.5481  -11.0129 C   0  0  0  0  0  0  0  0  0  0  0  0
  -11.9036   21.4697  -11.4786 O   0  0  0  0  0  0  0  0  0  0  0  0
  -13.6963   20.8169  -10.3801 O   0  0  0  0  0  0  0  0  0  0  0  0
  -14.2264   20.1234  -10.0396 H   0  0  0  0  0  0  0  0  0  0  0  0
  3  4  2  0  0  0
  3  5  1  0  0  0
  3  1  1  0  0  0
  1  2  2  0  0  0
  1  7  1  0  0  0
  7  8  1  0  0  0
  8  9  1  0  0  0
  9 10  2  0  0  0
  9 11  1  0  0  0
  5  6  1  0  0  0
 11 12  1  0  0  0
M  END
> <minimizedAffinity>
-5.53450

$$$$
5C5T_AKG_A_301


 12 11  0  0  0  0  0  0  0  0999 V2000
  -12.9552   19.3547  -10.4961 C   0  0  0  0  0  0  0  0  0  0  0  0
  -13.8252   18.6990  -11.0013 O   0  0  0  0  0  0  0  0  0  0  0  0
  -12.8515   20.8009  -10.8940 C   0  0  0  0  0  0  0  0  0  0  0  0
  -13.8885   21.5326  -10.9016 O   0  0  0  0  0  0  0  0  0  0  0  0
  -11.7695   21.2832  -11.3215 O   0  0  0  0  0  0  0  0  0  0  0  0
  -10.9922   20.7601  -11.3246 H   0  0  0  0  0  0  0  0  0  0  0  0
  -11.9773   18.7682   -9.4646 C   0  0  0  0  0  0  0  0  0  0  0  0
  -10.7746   18.1348  -10.1152 C   0  0  0  0  0  0  0  0  0  0  0  0
   -9.9790   17.2914   -9.1528 C   0  0  0  0  0  0  0  0  0  0  0  0
  -10.5541   16.7132   -8.1891 O   0  0  0  0  0  0  0  0  0  0  0  0
   -8.7246   17.1924   -9.3161 O   0  0  0  0  0  0  0  0  0  0  0  0
   -8.3101   17.6266  -10.0355 H   0  0  0  0  0  0  0  0  0  0  0  0
  3  4  2  0  0  0
  3  5  1  0  0  0
  3  1  1  0  0  0
  1  2  2  0  0  0
  1  7  1  0  0  0
  7  8  1  0  0  0
  8  9  1  0  0  0
  9 10  2  0  0  0
  9 11  1  0  0  0
  5  6  1  0  0  0
 11 12  1  0  0  0
M  END
> <minimizedAffinity>
-5.35410

$$$$
5C5T_AKG_A_301


 12 11  0  0  0  0  0  0  0  0999 V2000
  -11.2581   17.8954   -9.0080 C   0  0  0  0  0  0  0  0  0  0  0  0
  -12.1292   18.2098   -9.7725 O   0  0  0  0  0  0  0  0  0  0  0  0
  -11.6349   17.6931   -7.5665 C   0  0  0  0  0  0  0  0  0  0  0  0
  -12.6345   18.3055   -7.0802 O   0  0  0  0  0  0  0  0  0  0  0  0
  -10.9164   17.0035   -6.7957 O   0  0  0  0  0  0  0  0  0  0  0  0
  -10.1736   16.5434   -7.1343 H   0  0  0  0  0  0  0  0  0  0  0  0
   -9.8037   17.6846   -9.4603 C   0  0  0  0  0  0  0  0  0  0  0  0
   -9.3295   18.7778  -10.3826 C   0  0  0  0  0  0  0  0  0  0  0  0
   -7.9039   18.5759  -10.8269 C   0  0  0  0  0  0  0  0  0  0  0  0
   -7.4753   19.1488  -11.8670 O   0  0  0  0  0  0  0  0  0  0  0  0
   -7.1541   17.8064  -10.1519 O   0  0  0  0  0  0  0  0  0  0  0  0
   -7.4847   17.3873   -9.3818 H   0  0  0  0  0  0  0  0  0  0  0  0
  3  4  2  0  0  0
  3  5  1  0  0  0
  3  1  1  0  0  0
  1  2  2  0  0  0
  1  7  1  0  0  0
  7  8  1  0  0  0
  8  9  1  0  0  0
  9 10  2  0  0  0
  9 11  1  0  0  0
  5  6  1  0  0  0
 11 12  1  0  0  0
M  END
> <minimizedAffinity>
-5.02553

$$$$
5C5T_AKG_A_301


 12 11  0  0  0  0  0  0  0  0999 V2000
   -8.6467   17.9851  -10.0253 C   0  0  0  0  0  0  0  0  0  0  0  0
   -8.3888   17.0150   -9.3661 O   0  0  0  0  0  0  0  0  0  0  0  0
   -7.5664   18.5286  -10.9187 C   0  0  0  0  0  0  0  0  0  0  0  0
   -7.8012   19.5316  -11.6600 O   0  0  0  0  0  0  0  0  0  0  0  0
   -6.4551   17.9458  -11.0262 O   0  0  0  0  0  0  0  0  0  0  0  0
   -6.2615   17.2033  -10.4884 H   0  0  0  0  0  0  0  0  0  0  0  0
  -10.0280   18.6598   -9.9898 C   0  0  0  0  0  0  0  0  0  0  0  0
  -11.1318   17.6825   -9.6779 C   0  0  0  0  0  0  0  0  0  0  0  0
  -11.4864   17.6654   -8.2135 C   0  0  0  0  0  0  0  0  0  0  0  0
  -12.5317   18.2441   -7.8061 O   0  0  0  0  0  0  0  0  0  0  0  0
  -10.7073   17.0806   -7.4004 O   0  0  0  0  0  0  0  0  0  0  0  0
   -9.9346   16.6548   -7.7159 H   0  0  0  0  0  0  0  0  0  0  0  0
  3  4  2  0  0  0
  3  5  1  0  0  0
  3  1  1  0  0  0
  1  2  2  0  0  0
  1  7  1  0  0  0
  7  8  1  0  0  0
  8  9  1  0  0  0
  9 10  2  0  0  0
  9 11  1  0  0  0
  5  6  1  0  0  0
 11 12  1  0  0  0
M  END
> <minimizedAffinity>
-4.97826

$$$$
5C5T_AKG_A_301


 12 11  0  0  0  0  0  0  0  0999 V2000
   -9.7966   18.1043   -9.7825 C   0  0  0  0  0  0  0  0  0  0  0  0
   -8.6219   18.3141   -9.9171 O   0  0  0  0  0  0  0  0  0  0  0  0
  -10.2053   17.0007   -8.8468 C   0  0  0  0  0  0  0  0  0  0  0  0
  -10.7472   17.2808   -7.7338 O   0  0  0  0  0  0  0  0  0  0  0  0
   -9.9284   15.7979   -9.0974 O   0  0  0  0  0  0  0  0  0  0  0  0
   -9.5281   15.5694   -9.9132 H   0  0  0  0  0  0  0  0  0  0  0  0
  -10.8682   18.9283  -10.5154 C   0  0  0  0  0  0  0  0  0  0  0  0
  -12.1845   18.2003  -10.6052 C   0  0  0  0  0  0  0  0  0  0  0  0
  -13.3350   19.0293  -10.0955 C   0  0  0  0  0  0  0  0  0  0  0  0
  -13.6194   19.0332   -8.8655 O   0  0  0  0  0  0  0  0  0  0  0  0
  -14.0214   19.7015  -10.9243 O   0  0  0  0  0  0  0  0  0  0  0  0
  -13.7996   19.6899  -11.8346 H   0  0  0  0  0  0  0  0  0  0  0  0
  3  4  2  0  0  0
  3  5  1  0  0  0
  3  1  1  0  0  0
  1  2  2  0  0  0
  1  7  1  0  0  0
  7  8  1  0  0  0
  8  9  1  0  0  0
  9 10  2  0  0  0
  9 11  1  0  0  0
  5  6  1  0  0  0
 11 12  1  0  0  0
M  END
> <minimizedAffinity>
-4.87400

$$$$
5C5T_AKG_A_301


 12 11  0  0  0  0  0  0  0  0999 V2000
  -12.2409   18.7601   -9.4737 C   0  0  0  0  0  0  0  0  0  0  0  0
  -13.2820   18.8377   -8.8801 O   0  0  0  0  0  0  0  0  0  0  0  0
  -12.2671   18.9861  -10.9599 C   0  0  0  0  0  0  0  0  0  0  0  0
  -12.6822   18.0697  -11.7337 O   0  0  0  0  0  0  0  0  0  0  0  0
  -11.7877   20.0339  -11.4682 O   0  0  0  0  0  0  0  0  0  0  0  0
  -11.4756   20.7227  -10.9149 H   0  0  0  0  0  0  0  0  0  0  0  0
  -10.9107   18.4573   -8.7644 C   0  0  0  0  0  0  0  0  0  0  0  0
  -10.0912   17.4313   -9.5037 C   0  0  0  0  0  0  0  0  0  0  0  0
   -8.8141   18.0077  -10.0580 C   0  0  0  0  0  0  0  0  0  0  0  0
   -8.8535   18.9597  -10.8861 O   0  0  0  0  0  0  0  0  0  0  0  0
   -7.7064   17.5060   -9.6954 O   0  0  0  0  0  0  0  0  0  0  0  0
   -7.6911   16.7996   -9.0800 H   0  0  0  0  0  0  0  0  0  0  0  0
  3  4  2  0  0  0
  3  5  1  0  0  0
  3  1  1  0  0  0
  1  2  2  0  0  0
  1  7  1  0  0  0
  7  8  1  0  0  0
  8  9  1  0  0  0
  9 10  2  0  0  0
  9 11  1  0  0  0
  5  6  1  0  0  0
 11 12  1  0  0  0
M  END
> <minimizedAffinity>
-4.78543

$$$$
5C5T_AKG_A_301


 12 11  0  0  0  0  0  0  0  0999 V2000
   -7.5268   18.5538  -11.0508 C   0  0  0  0  0  0  0  0  0  0  0  0
   -7.8329   19.5933  -11.5686 O   0  0  0  0  0  0  0  0  0  0  0  0
   -6.2248   17.9257  -11.4642 C   0  0  0  0  0  0  0  0  0  0  0  0
   -5.5582   18.4208  -12.4240 O   0  0  0  0  0  0  0  0  0  0  0  0
   -5.8257   16.8506  -10.9436 O   0  0  0  0  0  0  0  0  0  0  0  0
   -6.3032   16.4681  -10.2339 H   0  0  0  0  0  0  0  0  0  0  0  0
   -8.4066   17.8738   -9.9889 C   0  0  0  0  0  0  0  0  0  0  0  0
   -9.7743   18.4996   -9.8959 C   0  0  0  0  0  0  0  0  0  0  0  0
  -10.8170   17.5298   -9.4031 C   0  0  0  0  0  0  0  0  0  0  0  0
  -10.6636   16.9395   -8.2978 O   0  0  0  0  0  0  0  0  0  0  0  0
  -11.8345   17.3030  -10.1263 O   0  0  0  0  0  0  0  0  0  0  0  0
  -11.9363   17.7480  -10.9446 H   0  0  0  0  0  0  0  0  0  0  0  0
  3  4  2  0  0  0
  3  5  1  0  0  0
  3  1  1  0  0  0
  1  2  2  0  0  0
  1  7  1  0  0  0
  7  8  1  0  0  0
  8  9  1  0  0  0
  9 10  2  0  0  0
  9 11  1  0  0  0
  5  6  1  0  0  0
 11 12  1  0  0  0
M  END
> <minimizedAffinity>
-4.69451

$$$$
