5C5T_AKG_A_301
  RCSB PDB12061717033D
Coordinates from PDB:5C5T:A:301 Model:1 without hydrogens
 10  9  0  0  0  0            999 V2000
  -10.0550   17.0510   -9.4890   C 0  0  0  0  0  0  0  0  0  0  0  0
   -8.9490   17.6630   -9.6030   O 0  0  0  0  0  0  0  0  0  0  0  0
  -10.0440   15.8510   -9.1070   O 0  0  0  0  0  0  0  0  0  0  0  0
  -11.3310   17.7180   -9.9220   C 0  0  0  0  0  0  0  0  0  0  0  0
  -12.2980   17.0230  -10.0770   O 0  0  0  0  0  0  0  0  0  0  0  0
  -11.3620   19.2360  -10.1650   C 0  0  0  0  0  0  0  0  0  0  0  0
  -12.7480   19.7340  -10.4840   C 0  0  0  0  0  0  0  0  0  0  0  0
  -12.7370   21.1140  -11.0890   C 0  0  0  0  0  0  0  0  0  0  0  0
  -11.7160   21.5300  -11.7040   O 0  0  0  0  0  0  0  0  0  0  0  0
  -13.7590   21.8530  -10.9500   O 0  0  0  0  0  0  0  0  0  0  0  0
  1  2  2  0  0  0  0
  1  3  1  0  0  0  0
  1  4  1  0  0  0  0
  4  5  2  0  0  0  0
  4  6  1  0  0  0  0
  6  7  1  0  0  0  0
  7  8  1  0  0  0  0
  8  9  2  0  0  0  0
  8 10  1  0  0  0  0
A    1
C1
A    2
O1
A    3
O2
A    4
C2
A    5
O5
A    6
C3
A    7
C4
A    8
C5
A    9
O3
A   10
O4
M  END
>  <InstanceId>
5C5T_AKG_A_301

>  <ChemCompId>
AKG

>  <PdbId>
5C5T

>  <ChainId>
A

>  <ResidueNumber>
301

>  <InsertionCode>


>  <Model>
1

>  <AltIds>


>  <MissingHeavyAtoms>
0

>  <ObservedFormula>
C5 O5

>  <Name>
2-OXOGLUTARIC ACID

>  <SystematicName>
2-oxidanylidenepentanedioic acid

>  <Synonyms>


>  <Type>
NON-POLYMER

>  <Formula>
C5 H6 O5

>  <MolecularWeight>
146.098

>  <ModifiedDate>
2017-01-17

>  <Parent>


>  <OneLetterCode>


>  <SubcomponentList>


>  <AmbiguousFlag>
N

>  <InChI>
InChI=1S/C5H6O5/c6-3(5(9)10)1-2-4(7)8/h1-2H2,(H,7,8)(H,9,10)

>  <InChIKey>
KPGXRSRHYNQIFN-UHFFFAOYSA-N

>  <SMILES>
C(CC(=O)O)C(=O)C(=O)O

$$$$
