1G36_R11_A_990


 36 40  0  0  0  0  0  0  0  0999 V2000
   -1.2155    4.0092   23.7583 N   0  0  0  0  0  0  0  0  0  0  0  0
   -0.8961    3.1216   22.7223 C   0  0  0  0  0  0  0  0  0  0  0  0
   -0.2742    1.8797   23.0008 N   0  0  0  0  0  0  0  0  0  0  0  0
   -0.1852    2.0178   24.3943 C   0  0  0  0  0  0  0  0  0  0  0  0
   -0.7439    3.2869   24.8274 C   0  0  0  0  0  0  0  0  0  0  0  0
    0.3570    1.1143   25.3673 C   0  0  0  0  0  0  0  0  0  0  0  0
    0.3480    1.4837   26.7303 C   0  0  0  0  0  0  0  0  0  0  0  0
   -0.2005    2.7302   27.1516 C   0  0  0  0  0  0  0  0  0  0  0  0
   -0.7500    3.6401   26.2101 C   0  0  0  0  0  0  0  0  0  0  0  0
    0.1630    0.7785   22.0884 C   0  0  0  0  0  0  0  0  0  0  0  0
   -1.2355    3.5444   21.2794 C   0  0  0  0  0  0  0  0  0  0  0  0
   -0.6895    4.8616   20.8582 N   0  0  0  0  0  0  0  0  0  0  0  0
    0.2914    4.9402   20.8272 H   0  0  0  0  0  0  0  0  0  0  0  0
   -2.9761    8.3638   19.7840 C   0  0  0  0  0  0  0  0  0  0  0  0
   -1.6014    8.2287   19.4063 C   0  0  0  0  0  0  0  0  0  0  0  0
   -0.8512    7.0923   19.7515 C   0  0  0  0  0  0  0  0  0  0  0  0
   -1.4416    6.0387   20.4895 C   0  0  0  0  0  0  0  0  0  0  0  0
   -2.7927    6.1322   20.8783 C   0  0  0  0  0  0  0  0  0  0  0  0
   -3.5539    7.2733   20.5348 C   0  0  0  0  0  0  0  0  0  0  0  0
   -5.0318    9.5754   19.4386 N   0  0  0  0  0  0  0  0  0  0  0  0
   -3.1901   10.6665   19.0784 N   0  0  0  0  0  0  0  0  0  0  0  0
   -3.7124    9.5094   19.4357 C   0  0  0  0  0  0  0  0  0  0  0  0
   -5.4833   10.4120   19.1827 H   0  0  0  0  0  0  0  0  0  0  0  0
   -3.7781   11.4222   18.8491 H   0  0  0  0  0  0  0  0  0  0  0  0
   -2.2123   10.7747   19.0411 H   0  0  0  0  0  0  0  0  0  0  0  0
   -0.1884    3.0993   28.6289 C   0  0  0  0  0  0  0  0  0  0  0  0
   -1.3792    3.8733   29.0970 N   0  0  0  0  0  0  0  0  0  0  0  0
   -2.7187    3.4883   29.3296 C   0  0  0  0  0  0  0  0  0  0  0  0
   -3.6850    4.4011   29.7755 N   0  0  0  0  0  0  0  0  0  0  0  0
   -2.8652    5.5288   29.8367 C   0  0  0  0  0  0  0  0  0  0  0  0
   -1.5065    5.2260   29.4333 C   0  0  0  0  0  0  0  0  0  0  0  0
   -3.2271    6.8628   30.2153 C   0  0  0  0  0  0  0  0  0  0  0  0
   -2.2281    7.8667   30.2024 C   0  0  0  0  0  0  0  0  0  0  0  0
   -0.8963    7.5757   29.8177 C   0  0  0  0  0  0  0  0  0  0  0  0
   -0.5185    6.2650   29.4288 C   0  0  0  0  0  0  0  0  0  0  0  0
   -3.1762    2.0427   29.1207 C   0  0  0  0  0  0  0  0  0  0  0  0
 20 22  2  0  0  0
 21 22  1  0  0  0
 22 14  1  0  0  0
 14 15  2  0  0  0
 14 19  1  0  0  0
 15 16  1  0  0  0
 16 17  2  0  0  0
 17 18  1  0  0  0
 17 12  1  0  0  0
 18 19  2  0  0  0
 12 11  1  0  0  0
 11  2  1  0  0  0
  1  2  2  0  0  0
  1  5  1  0  0  0
  2  3  1  0  0  0
  3  4  1  0  0  0
  3 10  1  0  0  0
  4  5  2  0  0  0
  4  6  1  0  0  0
  5  9  1  0  0  0
  6  7  2  0  0  0
  7  8  1  0  0  0
  8  9  2  0  0  0
  8 26  1  0  0  0
 26 27  1  0  0  0
 27 28  1  0  0  0
 27 31  1  0  0  0
 28 29  2  0  0  0
 28 36  1  0  0  0
 29 30  1  0  0  0
 30 31  2  0  0  0
 30 32  1  0  0  0
 31 35  1  0  0  0
 32 33  2  0  0  0
 33 34  1  0  0  0
 34 35  2  0  0  0
 20 23  1  0  0  0
 21 24  1  0  0  0
 21 25  1  0  0  0
 12 13  1  0  0  0
M  END
> <minimizedAffinity>
-9.77674

$$$$
1G36_R11_A_990


 36 40  0  0  0  0  0  0  0  0999 V2000
   -0.3744    3.5247   23.6124 N   0  0  0  0  0  0  0  0  0  0  0  0
   -1.4828    3.4211   22.7616 C   0  0  0  0  0  0  0  0  0  0  0  0
   -2.7795    3.2016   23.2879 N   0  0  0  0  0  0  0  0  0  0  0  0
   -2.4297    3.1513   24.6458 C   0  0  0  0  0  0  0  0  0  0  0  0
   -1.0001    3.3407   24.8214 C   0  0  0  0  0  0  0  0  0  0  0  0
   -3.2630    2.9471   25.7952 C   0  0  0  0  0  0  0  0  0  0  0  0
   -2.6728    2.9217   27.0779 C   0  0  0  0  0  0  0  0  0  0  0  0
   -1.2694    3.1073   27.2463 C   0  0  0  0  0  0  0  0  0  0  0  0
   -0.4225    3.3182   26.1263 C   0  0  0  0  0  0  0  0  0  0  0  0
   -4.1008    3.0540   22.6033 C   0  0  0  0  0  0  0  0  0  0  0  0
   -1.2422    3.5455   21.2443 C   0  0  0  0  0  0  0  0  0  0  0  0
   -0.6989    4.8536   20.7924 N   0  0  0  0  0  0  0  0  0  0  0  0
    0.2809    4.9222   20.7257 H   0  0  0  0  0  0  0  0  0  0  0  0
   -2.9899    8.3677   19.7672 C   0  0  0  0  0  0  0  0  0  0  0  0
   -1.6064    8.2533   19.4155 C   0  0  0  0  0  0  0  0  0  0  0  0
   -0.8547    7.1133   19.7450 C   0  0  0  0  0  0  0  0  0  0  0  0
   -1.4523    6.0351   20.4405 C   0  0  0  0  0  0  0  0  0  0  0  0
   -2.8121    6.1077   20.8026 C   0  0  0  0  0  0  0  0  0  0  0  0
   -3.5749    7.2523   20.4747 C   0  0  0  0  0  0  0  0  0  0  0  0
   -3.1902   10.6614   19.0519 N   0  0  0  0  0  0  0  0  0  0  0  0
   -5.0437    9.6024   19.4455 N   0  0  0  0  0  0  0  0  0  0  0  0
   -3.7276    9.5171   19.4352 C   0  0  0  0  0  0  0  0  0  0  0  0
   -3.7680   11.4281   18.8340 H   0  0  0  0  0  0  0  0  0  0  0  0
   -5.4842   10.4475   19.1986 H   0  0  0  0  0  0  0  0  0  0  0  0
   -5.5857    8.8209   19.7002 H   0  0  0  0  0  0  0  0  0  0  0  0
   -0.6653    3.0680   28.6435 C   0  0  0  0  0  0  0  0  0  0  0  0
   -1.3980    3.8690   29.6719 N   0  0  0  0  0  0  0  0  0  0  0  0
   -2.2677    3.4861   30.7177 C   0  0  0  0  0  0  0  0  0  0  0  0
   -2.8524    4.4271   31.5770 N   0  0  0  0  0  0  0  0  0  0  0  0
   -2.2912    5.5730   31.0116 C   0  0  0  0  0  0  0  0  0  0  0  0
   -1.4373    5.2518   29.8855 C   0  0  0  0  0  0  0  0  0  0  0  0
   -2.4870    6.9371   31.4051 C   0  0  0  0  0  0  0  0  0  0  0  0
   -1.8170    7.9547   30.6828 C   0  0  0  0  0  0  0  0  0  0  0  0
   -0.9741    7.6470   29.5868 C   0  0  0  0  0  0  0  0  0  0  0  0
   -0.7746    6.3049   29.1733 C   0  0  0  0  0  0  0  0  0  0  0  0
   -2.6003    2.0142   30.9738 C   0  0  0  0  0  0  0  0  0  0  0  0
 20 22  2  0  0  0
 21 22  1  0  0  0
 22 14  1  0  0  0
 14 15  2  0  0  0
 14 19  1  0  0  0
 15 16  1  0  0  0
 16 17  2  0  0  0
 17 18  1  0  0  0
 17 12  1  0  0  0
 18 19  2  0  0  0
 12 11  1  0  0  0
 11  2  1  0  0  0
  1  2  2  0  0  0
  1  5  1  0  0  0
  2  3  1  0  0  0
  3  4  1  0  0  0
  3 10  1  0  0  0
  4  5  2  0  0  0
  4  6  1  0  0  0
  5  9  1  0  0  0
  6  7  2  0  0  0
  7  8  1  0  0  0
  8  9  2  0  0  0
  8 26  1  0  0  0
 26 27  1  0  0  0
 27 28  1  0  0  0
 27 31  1  0  0  0
 28 29  2  0  0  0
 28 36  1  0  0  0
 29 30  1  0  0  0
 30 31  2  0  0  0
 30 32  1  0  0  0
 31 35  1  0  0  0
 32 33  2  0  0  0
 33 34  1  0  0  0
 34 35  2  0  0  0
 20 23  1  0  0  0
 21 24  1  0  0  0
 21 25  1  0  0  0
 12 13  1  0  0  0
M  END
> <minimizedAffinity>
-9.58519

$$$$
1G36_R11_A_990


 36 40  0  0  0  0  0  0  0  0999 V2000
   -2.8786    4.7272   23.7968 N   0  0  0  0  0  0  0  0  0  0  0  0
   -1.6772    4.0785   23.4821 C   0  0  0  0  0  0  0  0  0  0  0  0
   -0.7300    3.7821   24.4928 N   0  0  0  0  0  0  0  0  0  0  0  0
   -1.4304    4.3286   25.5788 C   0  0  0  0  0  0  0  0  0  0  0  0
   -2.7003    4.8883   25.1493 C   0  0  0  0  0  0  0  0  0  0  0  0
   -1.0603    4.3937   26.9629 C   0  0  0  0  0  0  0  0  0  0  0  0
   -1.9355    5.0140   27.8814 C   0  0  0  0  0  0  0  0  0  0  0  0
   -3.1806    5.5628   27.4562 C   0  0  0  0  0  0  0  0  0  0  0  0
   -3.5748    5.5057   26.0932 C   0  0  0  0  0  0  0  0  0  0  0  0
    0.6044    3.1114   24.4162 C   0  0  0  0  0  0  0  0  0  0  0  0
   -1.4212    3.7088   22.0079 C   0  0  0  0  0  0  0  0  0  0  0  0
   -0.9116    4.8147   21.1548 N   0  0  0  0  0  0  0  0  0  0  0  0
    0.0222    4.7405   20.8520 H   0  0  0  0  0  0  0  0  0  0  0  0
   -3.0403    8.3329   19.8358 C   0  0  0  0  0  0  0  0  0  0  0  0
   -3.7085    7.2795   20.5391 C   0  0  0  0  0  0  0  0  0  0  0  0
   -3.0229    6.1324   20.9718 C   0  0  0  0  0  0  0  0  0  0  0  0
   -1.6375    5.9864   20.7218 C   0  0  0  0  0  0  0  0  0  0  0  0
   -0.9428    7.0018   20.0348 C   0  0  0  0  0  0  0  0  0  0  0  0
   -1.6264    8.1590   19.5959 C   0  0  0  0  0  0  0  0  0  0  0  0
   -5.0582    9.5647   19.3633 N   0  0  0  0  0  0  0  0  0  0  0  0
   -3.1837   10.5981   19.0025 N   0  0  0  0  0  0  0  0  0  0  0  0
   -3.7411    9.4724   19.4046 C   0  0  0  0  0  0  0  0  0  0  0  0
   -5.4839   10.3951   19.0495 H   0  0  0  0  0  0  0  0  0  0  0  0
   -3.7482   11.3518   18.7154 H   0  0  0  0  0  0  0  0  0  0  0  0
   -2.2031   10.6847   18.9896 H   0  0  0  0  0  0  0  0  0  0  0  0
   -4.0976    6.2300   28.4723 C   0  0  0  0  0  0  0  0  0  0  0  0
   -3.6505    6.1207   29.8951 N   0  0  0  0  0  0  0  0  0  0  0  0
   -3.9866    5.2064   30.9187 C   0  0  0  0  0  0  0  0  0  0  0  0
   -3.4341    5.2975   32.2041 N   0  0  0  0  0  0  0  0  0  0  0  0
   -2.6367    6.4221   31.9874 C   0  0  0  0  0  0  0  0  0  0  0  0
   -2.7634    6.9153   30.6304 C   0  0  0  0  0  0  0  0  0  0  0  0
   -1.7842    7.0926   32.9241 C   0  0  0  0  0  0  0  0  0  0  0  0
   -1.0606    8.2301   32.4899 C   0  0  0  0  0  0  0  0  0  0  0  0
   -1.1730    8.7121   31.1627 C   0  0  0  0  0  0  0  0  0  0  0  0
   -2.0190    8.0707   30.2221 C   0  0  0  0  0  0  0  0  0  0  0  0
   -4.9633    4.0556   30.6650 C   0  0  0  0  0  0  0  0  0  0  0  0
 20 22  2  0  0  0
 21 22  1  0  0  0
 22 14  1  0  0  0
 14 15  2  0  0  0
 14 19  1  0  0  0
 15 16  1  0  0  0
 16 17  2  0  0  0
 17 18  1  0  0  0
 17 12  1  0  0  0
 18 19  2  0  0  0
 12 11  1  0  0  0
 11  2  1  0  0  0
  1  2  2  0  0  0
  1  5  1  0  0  0
  2  3  1  0  0  0
  3  4  1  0  0  0
  3 10  1  0  0  0
  4  5  2  0  0  0
  4  6  1  0  0  0
  5  9  1  0  0  0
  6  7  2  0  0  0
  7  8  1  0  0  0
  8  9  2  0  0  0
  8 26  1  0  0  0
 26 27  1  0  0  0
 27 28  1  0  0  0
 27 31  1  0  0  0
 28 29  2  0  0  0
 28 36  1  0  0  0
 29 30  1  0  0  0
 30 31  2  0  0  0
 30 32  1  0  0  0
 31 35  1  0  0  0
 32 33  2  0  0  0
 33 34  1  0  0  0
 34 35  2  0  0  0
 20 23  1  0  0  0
 21 24  1  0  0  0
 21 25  1  0  0  0
 12 13  1  0  0  0
M  END
> <minimizedAffinity>
-9.42750

$$$$
1G36_R11_A_990


 36 40  0  0  0  0  0  0  0  0999 V2000
   -1.6495    4.4544   24.1364 N   0  0  0  0  0  0  0  0  0  0  0  0
   -1.1929    3.4366   23.2886 C   0  0  0  0  0  0  0  0  0  0  0  0
   -0.5274    2.3022   23.8149 N   0  0  0  0  0  0  0  0  0  0  0  0
   -0.5657    2.6681   25.1689 C   0  0  0  0  0  0  0  0  0  0  0  0
   -1.2306    3.9480   25.3426 C   0  0  0  0  0  0  0  0  0  0  0  0
   -0.0580    1.9729   26.3161 C   0  0  0  0  0  0  0  0  0  0  0  0
   -0.2044    2.5548   27.5944 C   0  0  0  0  0  0  0  0  0  0  0  0
   -0.8568    3.8112   27.7610 C   0  0  0  0  0  0  0  0  0  0  0  0
   -1.3748    4.5174   26.6433 C   0  0  0  0  0  0  0  0  0  0  0  0
    0.0480    1.1021   23.1330 C   0  0  0  0  0  0  0  0  0  0  0  0
   -1.4313    3.5973   21.7743 C   0  0  0  0  0  0  0  0  0  0  0  0
   -0.8706    4.8350   21.1707 N   0  0  0  0  0  0  0  0  0  0  0  0
    0.1063    4.8609   21.0510 H   0  0  0  0  0  0  0  0  0  0  0  0
   -3.0204    8.3423   19.8572 C   0  0  0  0  0  0  0  0  0  0  0  0
   -3.6588    7.3300   20.6436 C   0  0  0  0  0  0  0  0  0  0  0  0
   -2.9661    6.1866   21.0750 C   0  0  0  0  0  0  0  0  0  0  0  0
   -1.6030    6.0036   20.7406 C   0  0  0  0  0  0  0  0  0  0  0  0
   -0.9378    6.9781   19.9703 C   0  0  0  0  0  0  0  0  0  0  0  0
   -1.6288    8.1312   19.5320 C   0  0  0  0  0  0  0  0  0  0  0  0
   -5.0458    9.5579   19.3746 N   0  0  0  0  0  0  0  0  0  0  0  0
   -3.1782   10.6130   19.0417 N   0  0  0  0  0  0  0  0  0  0  0  0
   -3.7282    9.4784   19.4285 C   0  0  0  0  0  0  0  0  0  0  0  0
   -5.4766   10.3866   19.0635 H   0  0  0  0  0  0  0  0  0  0  0  0
   -3.7473   11.3635   18.7551 H   0  0  0  0  0  0  0  0  0  0  0  0
   -2.1984   10.7095   19.0395 H   0  0  0  0  0  0  0  0  0  0  0  0
   -0.9919    4.4127   29.1534 C   0  0  0  0  0  0  0  0  0  0  0  0
   -2.1573    5.3319   29.3348 N   0  0  0  0  0  0  0  0  0  0  0  0
   -2.2293    6.7199   29.5900 C   0  0  0  0  0  0  0  0  0  0  0  0
   -3.4557    7.3855   29.7261 N   0  0  0  0  0  0  0  0  0  0  0  0
   -4.2905    6.2829   29.5385 C   0  0  0  0  0  0  0  0  0  0  0  0
   -3.5319    5.0688   29.3125 C   0  0  0  0  0  0  0  0  0  0  0  0
   -5.7228    6.2460   29.5678 C   0  0  0  0  0  0  0  0  0  0  0  0
   -6.3744    5.0066   29.3549 C   0  0  0  0  0  0  0  0  0  0  0  0
   -5.6393    3.8180   29.1247 C   0  0  0  0  0  0  0  0  0  0  0  0
   -4.2211    3.8293   29.1024 C   0  0  0  0  0  0  0  0  0  0  0  0
   -0.9627    7.5704   29.7131 C   0  0  0  0  0  0  0  0  0  0  0  0
 20 22  2  0  0  0
 21 22  1  0  0  0
 22 14  1  0  0  0
 14 15  2  0  0  0
 14 19  1  0  0  0
 15 16  1  0  0  0
 16 17  2  0  0  0
 17 18  1  0  0  0
 17 12  1  0  0  0
 18 19  2  0  0  0
 12 11  1  0  0  0
 11  2  1  0  0  0
  1  2  2  0  0  0
  1  5  1  0  0  0
  2  3  1  0  0  0
  3  4  1  0  0  0
  3 10  1  0  0  0
  4  5  2  0  0  0
  4  6  1  0  0  0
  5  9  1  0  0  0
  6  7  2  0  0  0
  7  8  1  0  0  0
  8  9  2  0  0  0
  8 26  1  0  0  0
 26 27  1  0  0  0
 27 28  1  0  0  0
 27 31  1  0  0  0
 28 29  2  0  0  0
 28 36  1  0  0  0
 29 30  1  0  0  0
 30 31  2  0  0  0
 30 32  1  0  0  0
 31 35  1  0  0  0
 32 33  2  0  0  0
 33 34  1  0  0  0
 34 35  2  0  0  0
 20 23  1  0  0  0
 21 24  1  0  0  0
 21 25  1  0  0  0
 12 13  1  0  0  0
M  END
> <minimizedAffinity>
-9.23891

$$$$
1G36_R11_A_990


 36 40  0  0  0  0  0  0  0  0999 V2000
   -1.4107    4.2939   25.5006 N   0  0  0  0  0  0  0  0  0  0  0  0
   -0.9162    3.3278   26.3868 C   0  0  0  0  0  0  0  0  0  0  0  0
   -0.3373    2.1300   25.9002 N   0  0  0  0  0  0  0  0  0  0  0  0
   -0.5035    2.3794   24.5294 C   0  0  0  0  0  0  0  0  0  0  0  0
   -1.1446    3.6643   24.3092 C   0  0  0  0  0  0  0  0  0  0  0  0
   -0.1401    1.5676   23.4043 C   0  0  0  0  0  0  0  0  0  0  0  0
   -0.4254    2.0300   22.1008 C   0  0  0  0  0  0  0  0  0  0  0  0
   -1.0552    3.2911   21.8884 C   0  0  0  0  0  0  0  0  0  0  0  0
   -1.4192    4.1177   22.9841 C   0  0  0  0  0  0  0  0  0  0  0  0
    0.2499    0.9621   26.6265 C   0  0  0  0  0  0  0  0  0  0  0  0
   -1.0306    3.6086   27.8980 C   0  0  0  0  0  0  0  0  0  0  0  0
   -1.9169    4.7435   28.2680 N   0  0  0  0  0  0  0  0  0  0  0  0
   -2.7613    4.8218   27.7678 H   0  0  0  0  0  0  0  0  0  0  0  0
   -1.2116    7.7030   31.3327 C   0  0  0  0  0  0  0  0  0  0  0  0
   -0.7137    7.8779   30.0014 C   0  0  0  0  0  0  0  0  0  0  0  0
   -0.9395    6.9200   28.9990 C   0  0  0  0  0  0  0  0  0  0  0  0
   -1.6742    5.7438   29.2817 C   0  0  0  0  0  0  0  0  0  0  0  0
   -2.1832    5.5353   30.5790 C   0  0  0  0  0  0  0  0  0  0  0  0
   -1.9595    6.4949   31.5931 C   0  0  0  0  0  0  0  0  0  0  0  0
   -1.6093    8.7182   33.4830 N   0  0  0  0  0  0  0  0  0  0  0  0
   -0.0790    9.6342   32.2457 N   0  0  0  0  0  0  0  0  0  0  0  0
   -0.9731    8.6680   32.3264 C   0  0  0  0  0  0  0  0  0  0  0  0
   -1.3913    9.4233   34.1346 H   0  0  0  0  0  0  0  0  0  0  0  0
    0.0256   10.2714   32.9889 H   0  0  0  0  0  0  0  0  0  0  0  0
    0.4839    9.7182   31.4424 H   0  0  0  0  0  0  0  0  0  0  0  0
   -1.3537    3.7562   20.4695 C   0  0  0  0  0  0  0  0  0  0  0  0
   -2.4212    4.7972   20.3566 N   0  0  0  0  0  0  0  0  0  0  0  0
   -3.8255    4.7226   20.4937 C   0  0  0  0  0  0  0  0  0  0  0  0
   -4.6456    5.8496   20.3417 N   0  0  0  0  0  0  0  0  0  0  0  0
   -3.6410    6.7780   20.0655 C   0  0  0  0  0  0  0  0  0  0  0  0
   -2.3283    6.1636   20.0676 C   0  0  0  0  0  0  0  0  0  0  0  0
   -3.7852    8.1753   19.7815 C   0  0  0  0  0  0  0  0  0  0  0  0
   -2.6208    8.9389   19.5221 C   0  0  0  0  0  0  0  0  0  0  0  0
   -1.3343    8.3466   19.5314 C   0  0  0  0  0  0  0  0  0  0  0  0
   -1.1691    6.9635   19.7992 C   0  0  0  0  0  0  0  0  0  0  0  0
   -4.5202    3.4019   20.8340 C   0  0  0  0  0  0  0  0  0  0  0  0
 20 22  2  0  0  0
 21 22  1  0  0  0
 22 14  1  0  0  0
 14 15  2  0  0  0
 14 19  1  0  0  0
 15 16  1  0  0  0
 16 17  2  0  0  0
 17 18  1  0  0  0
 17 12  1  0  0  0
 18 19  2  0  0  0
 12 11  1  0  0  0
 11  2  1  0  0  0
  1  2  2  0  0  0
  1  5  1  0  0  0
  2  3  1  0  0  0
  3  4  1  0  0  0
  3 10  1  0  0  0
  4  5  2  0  0  0
  4  6  1  0  0  0
  5  9  1  0  0  0
  6  7  2  0  0  0
  7  8  1  0  0  0
  8  9  2  0  0  0
  8 26  1  0  0  0
 26 27  1  0  0  0
 27 28  1  0  0  0
 27 31  1  0  0  0
 28 29  2  0  0  0
 28 36  1  0  0  0
 29 30  1  0  0  0
 30 31  2  0  0  0
 30 32  1  0  0  0
 31 35  1  0  0  0
 32 33  2  0  0  0
 33 34  1  0  0  0
 34 35  2  0  0  0
 20 23  1  0  0  0
 21 24  1  0  0  0
 21 25  1  0  0  0
 12 13  1  0  0  0
M  END
> <minimizedAffinity>
-8.82089

$$$$
1G36_R11_A_990


 36 40  0  0  0  0  0  0  0  0999 V2000
   -3.9000    4.5133   25.5899 N   0  0  0  0  0  0  0  0  0  0  0  0
   -4.9683    4.5813   26.4939 C   0  0  0  0  0  0  0  0  0  0  0  0
   -6.3076    4.5434   26.0339 N   0  0  0  0  0  0  0  0  0  0  0  0
   -6.0363    4.4502   24.6604 C   0  0  0  0  0  0  0  0  0  0  0  0
   -4.6048    4.4373   24.4133 C   0  0  0  0  0  0  0  0  0  0  0  0
   -6.9461    4.3737   23.5543 C   0  0  0  0  0  0  0  0  0  0  0  0
   -6.4300    4.2998   22.2419 C   0  0  0  0  0  0  0  0  0  0  0  0
   -5.0246    4.2881   22.0031 C   0  0  0  0  0  0  0  0  0  0  0  0
   -4.1018    4.3557   23.0802 C   0  0  0  0  0  0  0  0  0  0  0  0
   -7.6009    4.6018   26.7824 C   0  0  0  0  0  0  0  0  0  0  0  0
   -4.6375    4.7058   27.9942 C   0  0  0  0  0  0  0  0  0  0  0  0
   -3.1958    4.8768   28.3148 N   0  0  0  0  0  0  0  0  0  0  0  0
   -2.5740    4.2421   27.8910 H   0  0  0  0  0  0  0  0  0  0  0  0
   -1.4043    7.8640   30.8673 C   0  0  0  0  0  0  0  0  0  0  0  0
   -2.6333    7.2213   31.2241 C   0  0  0  0  0  0  0  0  0  0  0  0
   -3.2219    6.2484   30.3994 C   0  0  0  0  0  0  0  0  0  0  0  0
   -2.6081    5.8729   29.1806 C   0  0  0  0  0  0  0  0  0  0  0  0
   -1.3966    6.4802   28.7946 C   0  0  0  0  0  0  0  0  0  0  0  0
   -0.7986    7.4607   29.6194 C   0  0  0  0  0  0  0  0  0  0  0  0
   -0.0917    9.8462   31.2685 N   0  0  0  0  0  0  0  0  0  0  0  0
   -0.9638    8.8907   33.0116 N   0  0  0  0  0  0  0  0  0  0  0  0
   -0.8302    8.8396   31.7005 C   0  0  0  0  0  0  0  0  0  0  0  0
    0.2800   10.4946   31.9093 H   0  0  0  0  0  0  0  0  0  0  0  0
   -0.5275    9.6098   33.5233 H   0  0  0  0  0  0  0  0  0  0  0  0
   -1.4999    8.2098   33.4787 H   0  0  0  0  0  0  0  0  0  0  0  0
   -4.5024    4.2136   20.5747 C   0  0  0  0  0  0  0  0  0  0  0  0
   -3.2585    5.0017   20.3143 N   0  0  0  0  0  0  0  0  0  0  0  0
   -1.8991    4.6206   20.2555 C   0  0  0  0  0  0  0  0  0  0  0  0
   -0.8807    5.5474   19.9918 N   0  0  0  0  0  0  0  0  0  0  0  0
   -1.6851    6.6810   19.8667 C   0  0  0  0  0  0  0  0  0  0  0  0
   -3.0867    6.3674   20.0607 C   0  0  0  0  0  0  0  0  0  0  0  0
   -1.2750    8.0287   19.6034 C   0  0  0  0  0  0  0  0  0  0  0  0
   -2.2671    9.0362   19.5208 C   0  0  0  0  0  0  0  0  0  0  0  0
   -3.6395    8.7351   19.7006 C   0  0  0  0  0  0  0  0  0  0  0  0
   -4.0668    7.4102   19.9729 C   0  0  0  0  0  0  0  0  0  0  0  0
   -1.4739    3.1647   20.4613 C   0  0  0  0  0  0  0  0  0  0  0  0
 20 22  2  0  0  0
 21 22  1  0  0  0
 22 14  1  0  0  0
 14 15  2  0  0  0
 14 19  1  0  0  0
 15 16  1  0  0  0
 16 17  2  0  0  0
 17 18  1  0  0  0
 17 12  1  0  0  0
 18 19  2  0  0  0
 12 11  1  0  0  0
 11  2  1  0  0  0
  1  2  2  0  0  0
  1  5  1  0  0  0
  2  3  1  0  0  0
  3  4  1  0  0  0
  3 10  1  0  0  0
  4  5  2  0  0  0
  4  6  1  0  0  0
  5  9  1  0  0  0
  6  7  2  0  0  0
  7  8  1  0  0  0
  8  9  2  0  0  0
  8 26  1  0  0  0
 26 27  1  0  0  0
 27 28  1  0  0  0
 27 31  1  0  0  0
 28 29  2  0  0  0
 28 36  1  0  0  0
 29 30  1  0  0  0
 30 31  2  0  0  0
 30 32  1  0  0  0
 31 35  1  0  0  0
 32 33  2  0  0  0
 33 34  1  0  0  0
 34 35  2  0  0  0
 20 23  1  0  0  0
 21 24  1  0  0  0
 21 25  1  0  0  0
 12 13  1  0  0  0
M  END
> <minimizedAffinity>
-8.59747

$$$$
1G36_R11_A_990


 36 40  0  0  0  0  0  0  0  0999 V2000
   -2.1849    3.8340   23.0109 N   0  0  0  0  0  0  0  0  0  0  0  0
   -2.1286    2.8407   22.0244 C   0  0  0  0  0  0  0  0  0  0  0  0
   -2.4695    1.4999   22.3288 N   0  0  0  0  0  0  0  0  0  0  0  0
   -2.7670    1.6812   23.6879 C   0  0  0  0  0  0  0  0  0  0  0  0
   -2.5898    3.0693   24.0779 C   0  0  0  0  0  0  0  0  0  0  0  0
   -3.1932    0.7207   24.6641 C   0  0  0  0  0  0  0  0  0  0  0  0
   -3.4206    1.1433   25.9923 C   0  0  0  0  0  0  0  0  0  0  0  0
   -3.2451    2.5062   26.3715 C   0  0  0  0  0  0  0  0  0  0  0  0
   -2.8307    3.4788   25.4236 C   0  0  0  0  0  0  0  0  0  0  0  0
   -2.4879    0.2762   21.4694 C   0  0  0  0  0  0  0  0  0  0  0  0
   -1.6787    3.2537   20.6092 C   0  0  0  0  0  0  0  0  0  0  0  0
   -1.0559    4.6000   20.5081 N   0  0  0  0  0  0  0  0  0  0  0  0
   -0.0817    4.6438   20.6428 H   0  0  0  0  0  0  0  0  0  0  0  0
   -3.0990    8.3180   19.7013 C   0  0  0  0  0  0  0  0  0  0  0  0
   -1.6705    8.2287   19.6529 C   0  0  0  0  0  0  0  0  0  0  0  0
   -0.9988    7.0229   19.9135 C   0  0  0  0  0  0  0  0  0  0  0  0
   -1.7247    5.8508   20.2337 C   0  0  0  0  0  0  0  0  0  0  0  0
   -3.1320    5.8963   20.2892 C   0  0  0  0  0  0  0  0  0  0  0  0
   -3.8149    7.1067   20.0285 C   0  0  0  0  0  0  0  0  0  0  0  0
   -3.1528   10.6329   19.0298 N   0  0  0  0  0  0  0  0  0  0  0  0
   -5.0550    9.7324   19.5617 N   0  0  0  0  0  0  0  0  0  0  0  0
   -3.7566    9.5331   19.4432 C   0  0  0  0  0  0  0  0  0  0  0  0
   -3.6763   11.4509   18.8682 H   0  0  0  0  0  0  0  0  0  0  0  0
   -5.4375   10.6170   19.3608 H   0  0  0  0  0  0  0  0  0  0  0  0
   -5.6416    8.9967   19.8512 H   0  0  0  0  0  0  0  0  0  0  0  0
   -3.4933    2.9262   27.8140 C   0  0  0  0  0  0  0  0  0  0  0  0
   -2.3438    3.6131   28.4793 N   0  0  0  0  0  0  0  0  0  0  0  0
   -1.0574    3.1552   28.8427 C   0  0  0  0  0  0  0  0  0  0  0  0
   -0.1233    3.9914   29.4704 N   0  0  0  0  0  0  0  0  0  0  0  0
   -0.9087    5.1437   29.5253 C   0  0  0  0  0  0  0  0  0  0  0  0
   -2.2201    4.9263   28.9477 C   0  0  0  0  0  0  0  0  0  0  0  0
   -0.5648    6.4199   30.0793 C   0  0  0  0  0  0  0  0  0  0  0  0
   -1.5243    7.4607   30.0331 C   0  0  0  0  0  0  0  0  0  0  0  0
   -2.8045    7.2576   29.4621 C   0  0  0  0  0  0  0  0  0  0  0  0
   -3.1701    5.9997   28.9180 C   0  0  0  0  0  0  0  0  0  0  0  0
   -0.6146    1.7195   28.5502 C   0  0  0  0  0  0  0  0  0  0  0  0
 20 22  2  0  0  0
 21 22  1  0  0  0
 22 14  1  0  0  0
 14 15  2  0  0  0
 14 19  1  0  0  0
 15 16  1  0  0  0
 16 17  2  0  0  0
 17 18  1  0  0  0
 17 12  1  0  0  0
 18 19  2  0  0  0
 12 11  1  0  0  0
 11  2  1  0  0  0
  1  2  2  0  0  0
  1  5  1  0  0  0
  2  3  1  0  0  0
  3  4  1  0  0  0
  3 10  1  0  0  0
  4  5  2  0  0  0
  4  6  1  0  0  0
  5  9  1  0  0  0
  6  7  2  0  0  0
  7  8  1  0  0  0
  8  9  2  0  0  0
  8 26  1  0  0  0
 26 27  1  0  0  0
 27 28  1  0  0  0
 27 31  1  0  0  0
 28 29  2  0  0  0
 28 36  1  0  0  0
 29 30  1  0  0  0
 30 31  2  0  0  0
 30 32  1  0  0  0
 31 35  1  0  0  0
 32 33  2  0  0  0
 33 34  1  0  0  0
 34 35  2  0  0  0
 20 23  1  0  0  0
 21 24  1  0  0  0
 21 25  1  0  0  0
 12 13  1  0  0  0
M  END
> <minimizedAffinity>
-8.56057

$$$$
1G36_R11_A_990


 36 40  0  0  0  0  0  0  0  0999 V2000
   -4.2146    4.0175   26.9839 N   0  0  0  0  0  0  0  0  0  0  0  0
   -3.2858    4.0626   28.0319 C   0  0  0  0  0  0  0  0  0  0  0  0
   -1.8948    4.0773   27.7643 N   0  0  0  0  0  0  0  0  0  0  0  0
   -1.9680    4.0233   26.3642 C   0  0  0  0  0  0  0  0  0  0  0  0
   -3.3497    3.9845   25.9173 C   0  0  0  0  0  0  0  0  0  0  0  0
   -0.9101    4.0018   25.3959 C   0  0  0  0  0  0  0  0  0  0  0  0
   -1.2343    3.9305   24.0233 C   0  0  0  0  0  0  0  0  0  0  0  0
   -2.5913    3.8918   23.5884 C   0  0  0  0  0  0  0  0  0  0  0  0
   -3.6579    3.9189   24.5253 C   0  0  0  0  0  0  0  0  0  0  0  0
   -0.7211    4.1200   28.6901 C   0  0  0  0  0  0  0  0  0  0  0  0
   -3.8265    4.0876   29.4750 C   0  0  0  0  0  0  0  0  0  0  0  0
   -4.1539    5.4365   30.0076 N   0  0  0  0  0  0  0  0  0  0  0  0
   -5.0827    5.7410   29.8898 H   0  0  0  0  0  0  0  0  0  0  0  0
   -1.4855    8.1422   32.0588 C   0  0  0  0  0  0  0  0  0  0  0  0
   -1.5734    8.1256   30.6295 C   0  0  0  0  0  0  0  0  0  0  0  0
   -2.4393    7.2489   29.9551 C   0  0  0  0  0  0  0  0  0  0  0  0
   -3.2576    6.3492   30.6791 C   0  0  0  0  0  0  0  0  0  0  0  0
   -3.2024    6.3359   32.0870 C   0  0  0  0  0  0  0  0  0  0  0  0
   -2.3328    7.2152   32.7726 C   0  0  0  0  0  0  0  0  0  0  0  0
   -0.5072    9.1224   34.0324 N   0  0  0  0  0  0  0  0  0  0  0  0
    0.2296    9.8452   32.1228 N   0  0  0  0  0  0  0  0  0  0  0  0
   -0.6103    9.0217   32.7192 C   0  0  0  0  0  0  0  0  0  0  0  0
    0.1283    9.7613   34.4287 H   0  0  0  0  0  0  0  0  0  0  0  0
    0.8104   10.4307   32.6605 H   0  0  0  0  0  0  0  0  0  0  0  0
    0.2757    9.8746   31.1398 H   0  0  0  0  0  0  0  0  0  0  0  0
   -2.9049    3.8090   22.1006 C   0  0  0  0  0  0  0  0  0  0  0  0
   -3.3764    5.0860   21.4817 N   0  0  0  0  0  0  0  0  0  0  0  0
   -4.6529    5.6893   21.4272 C   0  0  0  0  0  0  0  0  0  0  0  0
   -4.8664    6.9140   20.7790 N   0  0  0  0  0  0  0  0  0  0  0  0
   -3.5557    7.1328   20.3528 C   0  0  0  0  0  0  0  0  0  0  0  0
   -2.6735    6.0570   20.7590 C   0  0  0  0  0  0  0  0  0  0  0  0
   -3.0488    8.2346   19.5892 C   0  0  0  0  0  0  0  0  0  0  0  0
   -1.6717    8.2549   19.2586 C   0  0  0  0  0  0  0  0  0  0  0  0
   -0.8024    7.2112   19.6601 C   0  0  0  0  0  0  0  0  0  0  0  0
   -1.2846    6.1058   20.4068 C   0  0  0  0  0  0  0  0  0  0  0  0
   -5.8673    5.0376   22.0931 C   0  0  0  0  0  0  0  0  0  0  0  0
 20 22  2  0  0  0
 21 22  1  0  0  0
 22 14  1  0  0  0
 14 15  2  0  0  0
 14 19  1  0  0  0
 15 16  1  0  0  0
 16 17  2  0  0  0
 17 18  1  0  0  0
 17 12  1  0  0  0
 18 19  2  0  0  0
 12 11  1  0  0  0
 11  2  1  0  0  0
  1  2  2  0  0  0
  1  5  1  0  0  0
  2  3  1  0  0  0
  3  4  1  0  0  0
  3 10  1  0  0  0
  4  5  2  0  0  0
  4  6  1  0  0  0
  5  9  1  0  0  0
  6  7  2  0  0  0
  7  8  1  0  0  0
  8  9  2  0  0  0
  8 26  1  0  0  0
 26 27  1  0  0  0
 27 28  1  0  0  0
 27 31  1  0  0  0
 28 29  2  0  0  0
 28 36  1  0  0  0
 29 30  1  0  0  0
 30 31  2  0  0  0
 30 32  1  0  0  0
 31 35  1  0  0  0
 32 33  2  0  0  0
 33 34  1  0  0  0
 34 35  2  0  0  0
 20 23  1  0  0  0
 21 24  1  0  0  0
 21 25  1  0  0  0
 12 13  1  0  0  0
M  END
> <minimizedAffinity>
-8.14206

$$$$
1G36_R11_A_990


 36 40  0  0  0  0  0  0  0  0999 V2000
   -1.3490    4.4328   25.5352 N   0  0  0  0  0  0  0  0  0  0  0  0
   -0.8702    3.5006   26.4653 C   0  0  0  0  0  0  0  0  0  0  0  0
   -0.3126    2.2716   26.0350 N   0  0  0  0  0  0  0  0  0  0  0  0
   -0.4760    2.4596   24.6542 C   0  0  0  0  0  0  0  0  0  0  0  0
   -1.0951    3.7436   24.3743 C   0  0  0  0  0  0  0  0  0  0  0  0
   -0.1279    1.5900   23.5680 C   0  0  0  0  0  0  0  0  0  0  0  0
   -0.4066    1.9959   22.2445 C   0  0  0  0  0  0  0  0  0  0  0  0
   -1.0149    3.2563   21.9736 C   0  0  0  0  0  0  0  0  0  0  0  0
   -1.3633    4.1394   23.0296 C   0  0  0  0  0  0  0  0  0  0  0  0
    0.2552    1.1289   26.8149 C   0  0  0  0  0  0  0  0  0  0  0  0
   -0.9780    3.8536   27.9618 C   0  0  0  0  0  0  0  0  0  0  0  0
   -1.2242    5.2893   28.2598 N   0  0  0  0  0  0  0  0  0  0  0  0
   -0.4299    5.8684   28.3144 H   0  0  0  0  0  0  0  0  0  0  0  0
   -5.0613    7.1741   28.8701 C   0  0  0  0  0  0  0  0  0  0  0  0
   -4.0248    7.2619   29.8543 C   0  0  0  0  0  0  0  0  0  0  0  0
   -2.7739    6.6520   29.6629 C   0  0  0  0  0  0  0  0  0  0  0  0
   -2.5020    5.9271   28.4780 C   0  0  0  0  0  0  0  0  0  0  0  0
   -3.4948    5.8193   27.4839 C   0  0  0  0  0  0  0  0  0  0  0  0
   -4.7563    6.4301   27.6700 C   0  0  0  0  0  0  0  0  0  0  0  0
   -6.4948    9.0909   29.1599 N   0  0  0  0  0  0  0  0  0  0  0  0
   -7.4560    7.1450   29.2028 N   0  0  0  0  0  0  0  0  0  0  0  0
   -6.3097    7.7854   29.0784 C   0  0  0  0  0  0  0  0  0  0  0  0
   -7.3989    9.4516   29.3073 H   0  0  0  0  0  0  0  0  0  0  0  0
   -8.2887    7.6499   29.3471 H   0  0  0  0  0  0  0  0  0  0  0  0
   -7.4789    6.1621   29.1514 H   0  0  0  0  0  0  0  0  0  0  0  0
   -1.3069    3.6597   20.5346 C   0  0  0  0  0  0  0  0  0  0  0  0
   -2.3834    4.6847   20.3713 N   0  0  0  0  0  0  0  0  0  0  0  0
   -3.7907    4.5921   20.4580 C   0  0  0  0  0  0  0  0  0  0  0  0
   -4.6197    5.7060   20.2635 N   0  0  0  0  0  0  0  0  0  0  0  0
   -3.6182    6.6451   20.0134 C   0  0  0  0  0  0  0  0  0  0  0  0
   -2.2983    6.0490   20.0703 C   0  0  0  0  0  0  0  0  0  0  0  0
   -3.7706    8.0372   19.7086 C   0  0  0  0  0  0  0  0  0  0  0  0
   -2.6080    8.8139   19.4830 C   0  0  0  0  0  0  0  0  0  0  0  0
   -1.3147    8.2395   19.5458 C   0  0  0  0  0  0  0  0  0  0  0  0
   -1.1409    6.8618   19.8351 C   0  0  0  0  0  0  0  0  0  0  0  0
   -4.4795    3.2657   20.7878 C   0  0  0  0  0  0  0  0  0  0  0  0
 20 22  2  0  0  0
 21 22  1  0  0  0
 22 14  1  0  0  0
 14 15  2  0  0  0
 14 19  1  0  0  0
 15 16  1  0  0  0
 16 17  2  0  0  0
 17 18  1  0  0  0
 17 12  1  0  0  0
 18 19  2  0  0  0
 12 11  1  0  0  0
 11  2  1  0  0  0
  1  2  2  0  0  0
  1  5  1  0  0  0
  2  3  1  0  0  0
  3  4  1  0  0  0
  3 10  1  0  0  0
  4  5  2  0  0  0
  4  6  1  0  0  0
  5  9  1  0  0  0
  6  7  2  0  0  0
  7  8  1  0  0  0
  8  9  2  0  0  0
  8 26  1  0  0  0
 26 27  1  0  0  0
 27 28  1  0  0  0
 27 31  1  0  0  0
 28 29  2  0  0  0
 28 36  1  0  0  0
 29 30  1  0  0  0
 30 31  2  0  0  0
 30 32  1  0  0  0
 31 35  1  0  0  0
 32 33  2  0  0  0
 33 34  1  0  0  0
 34 35  2  0  0  0
 20 23  1  0  0  0
 21 24  1  0  0  0
 21 25  1  0  0  0
 12 13  1  0  0  0
M  END
> <minimizedAffinity>
-7.86992

$$$$
1G36_R11_A_990


 36 40  0  0  0  0  0  0  0  0999 V2000
   -3.7601    4.5130   26.2513 N   0  0  0  0  0  0  0  0  0  0  0  0
   -3.0385    3.3758   25.8651 C   0  0  0  0  0  0  0  0  0  0  0  0
   -1.8405    3.0194   26.5317 N   0  0  0  0  0  0  0  0  0  0  0  0
   -1.8067    4.0821   27.4473 C   0  0  0  0  0  0  0  0  0  0  0  0
   -2.9493    4.9607   27.2657 C   0  0  0  0  0  0  0  0  0  0  0  0
   -0.8413    4.3778   28.4659 C   0  0  0  0  0  0  0  0  0  0  0  0
   -1.0151    5.5282   29.2663 C   0  0  0  0  0  0  0  0  0  0  0  0
   -2.1372    6.3886   29.0849 C   0  0  0  0  0  0  0  0  0  0  0  0
   -3.1115    6.1155   28.0886 C   0  0  0  0  0  0  0  0  0  0  0  0
   -0.9018    1.8762   26.3119 C   0  0  0  0  0  0  0  0  0  0  0  0
   -3.5857    2.5373   24.6933 C   0  0  0  0  0  0  0  0  0  0  0  0
   -4.1952    3.3174   23.5840 N   0  0  0  0  0  0  0  0  0  0  0  0
   -5.1643    3.2065   23.4506 H   0  0  0  0  0  0  0  0  0  0  0  0
   -2.2210    6.0413   20.8764 C   0  0  0  0  0  0  0  0  0  0  0  0
   -1.4825    5.0621   21.6157 C   0  0  0  0  0  0  0  0  0  0  0  0
   -2.1175    4.1723   22.4979 C   0  0  0  0  0  0  0  0  0  0  0  0
   -3.5202    4.2203   22.6805 C   0  0  0  0  0  0  0  0  0  0  0  0
   -4.2833    5.1679   21.9696 C   0  0  0  0  0  0  0  0  0  0  0  0
   -3.6509    6.0671   21.0803 C   0  0  0  0  0  0  0  0  0  0  0  0
   -0.2836    6.8752   19.7084 N   0  0  0  0  0  0  0  0  0  0  0  0
   -2.1554    7.9138   19.3481 N   0  0  0  0  0  0  0  0  0  0  0  0
   -1.5707    6.9284   20.0013 C   0  0  0  0  0  0  0  0  0  0  0  0
    0.1070    7.5300   19.0857 H   0  0  0  0  0  0  0  0  0  0  0  0
   -1.6261    8.4917   18.7522 H   0  0  0  0  0  0  0  0  0  0  0  0
   -3.1212    8.0714   19.4564 H   0  0  0  0  0  0  0  0  0  0  0  0
   -2.2905    7.6240   29.9617 C   0  0  0  0  0  0  0  0  0  0  0  0
   -2.3025    7.3577   31.4330 N   0  0  0  0  0  0  0  0  0  0  0  0
   -3.0248    6.4279   32.2144 C   0  0  0  0  0  0  0  0  0  0  0  0
   -2.8744    6.3550   33.6064 N   0  0  0  0  0  0  0  0  0  0  0  0
   -1.9327    7.3752   33.7480 C   0  0  0  0  0  0  0  0  0  0  0  0
   -1.5951    7.9737   32.4719 C   0  0  0  0  0  0  0  0  0  0  0  0
   -1.3315    7.8591   34.9556 C   0  0  0  0  0  0  0  0  0  0  0  0
   -0.3936    8.9169   34.8703 C   0  0  0  0  0  0  0  0  0  0  0  0
   -0.0525    9.5003   33.6254 C   0  0  0  0  0  0  0  0  0  0  0  0
   -0.6433    9.0446   32.4191 C   0  0  0  0  0  0  0  0  0  0  0  0
   -3.9991    5.4384   31.5706 C   0  0  0  0  0  0  0  0  0  0  0  0
 20 22  2  0  0  0
 21 22  1  0  0  0
 22 14  1  0  0  0
 14 15  2  0  0  0
 14 19  1  0  0  0
 15 16  1  0  0  0
 16 17  2  0  0  0
 17 18  1  0  0  0
 17 12  1  0  0  0
 18 19  2  0  0  0
 12 11  1  0  0  0
 11  2  1  0  0  0
  1  2  2  0  0  0
  1  5  1  0  0  0
  2  3  1  0  0  0
  3  4  1  0  0  0
  3 10  1  0  0  0
  4  5  2  0  0  0
  4  6  1  0  0  0
  5  9  1  0  0  0
  6  7  2  0  0  0
  7  8  1  0  0  0
  8  9  2  0  0  0
  8 26  1  0  0  0
 26 27  1  0  0  0
 27 28  1  0  0  0
 27 31  1  0  0  0
 28 29  2  0  0  0
 28 36  1  0  0  0
 29 30  1  0  0  0
 30 31  2  0  0  0
 30 32  1  0  0  0
 31 35  1  0  0  0
 32 33  2  0  0  0
 33 34  1  0  0  0
 34 35  2  0  0  0
 20 23  1  0  0  0
 21 24  1  0  0  0
 21 25  1  0  0  0
 12 13  1  0  0  0
M  END
> <minimizedAffinity>
-7.62102

$$$$
