2XJG_XJG_A_1224


 24 26  0  0  0  0  0  0  0  0999 V2000
   14.0545   -3.0208   10.3960 C   0  0  0  0  0  0  0  0  0  0  0  0
   15.1184   -3.5834    9.6837 C   0  0  0  0  0  0  0  0  0  0  0  0
   15.2683   -4.9648    9.5878 C   0  0  0  0  0  0  0  0  0  0  0  0
   14.3447   -5.8069   10.2292 C   0  0  0  0  0  0  0  0  0  0  0  0
   14.4530   -7.1615   10.1571 O   0  0  0  0  0  0  0  0  0  0  0  0
   13.2854   -5.2711   10.9349 C   0  0  0  0  0  0  0  0  0  0  0  0
   13.1219   -3.9065   11.0230 C   0  0  0  0  0  0  0  0  0  0  0  0
   15.1625   -7.5503    9.6844 H   0  0  0  0  0  0  0  0  0  0  0  0
   16.4345   -5.5099    8.8567 C   0  0  0  0  0  0  0  0  0  0  0  0
   17.4626   -5.7013    9.4768 O   0  0  0  0  0  0  0  0  0  0  0  0
   16.3461   -5.7521    7.5059 N   0  0  0  0  0  0  0  0  0  0  0  0
   17.4516   -6.3176    6.7156 C   0  0  0  0  0  0  0  0  0  0  0  0
   16.7629   -6.6878    5.4282 C   0  0  0  0  0  0  0  0  0  0  0  0
   17.2138   -7.4569    4.3646 C   0  0  0  0  0  0  0  0  0  0  0  0
   16.3919   -7.6748    3.2679 C   0  0  0  0  0  0  0  0  0  0  0  0
   15.1209   -7.1226    3.2337 C   0  0  0  0  0  0  0  0  0  0  0  0
   14.6691   -6.3374    4.2859 C   0  0  0  0  0  0  0  0  0  0  0  0
   15.4893   -6.0996    5.3819 C   0  0  0  0  0  0  0  0  0  0  0  0
   15.2242   -5.3241    6.6489 C   0  0  0  0  0  0  0  0  0  0  0  0
   13.8988   -0.8741    9.0671 C   0  0  0  0  0  0  0  0  0  0  0  0
   13.9322   -1.5024   10.4634 C   0  0  0  0  0  0  0  0  0  0  0  0
   15.0600   -0.8869   11.2736 C   0  0  0  0  0  0  0  0  0  0  0  0
   12.0884   -3.3499   11.6972 O   0  0  0  0  0  0  0  0  0  0  0  0
   11.2200   -4.2427   12.4245 C   0  0  0  0  0  0  0  0  0  0  0  0
 20 21  1  0  0  0
 21 22  1  0  0  0
 21  1  1  0  0  0
  1  2  1  0  0  0
  1  7  2  0  0  0
  2  3  2  0  0  0
  3  9  1  0  0  0
  3  4  1  0  0  0
  9 10  2  0  0  0
  9 11  1  0  0  0
 11 12  1  0  0  0
 11 19  1  0  0  0
 12 13  1  0  0  0
 13 14  1  0  0  0
 13 18  2  0  0  0
 14 15  2  0  0  0
 15 16  1  0  0  0
 16 17  2  0  0  0
 17 18  1  0  0  0
 18 19  1  0  0  0
  4  5  1  0  0  0
  4  6  2  0  0  0
  6  7  1  0  0  0
  7 23  1  0  0  0
 23 24  1  0  0  0
  5  8  1  0  0  0
M  END
> <minimizedAffinity>
-9.90860

$$$$
2XJG_XJG_A_1224


 24 26  0  0  0  0  0  0  0  0999 V2000
   13.3586   -4.4709   11.1307 C   0  0  0  0  0  0  0  0  0  0  0  0
   14.4218   -5.1120   10.4868 C   0  0  0  0  0  0  0  0  0  0  0  0
   15.2611   -4.4168    9.6195 C   0  0  0  0  0  0  0  0  0  0  0  0
   15.0273   -3.0532    9.3756 C   0  0  0  0  0  0  0  0  0  0  0  0
   15.8258   -2.3368    8.5383 O   0  0  0  0  0  0  0  0  0  0  0  0
   13.9847   -2.4011   10.0038 C   0  0  0  0  0  0  0  0  0  0  0  0
   13.1586   -3.0776   10.8737 C   0  0  0  0  0  0  0  0  0  0  0  0
   16.5401   -2.7556    8.0997 H   0  0  0  0  0  0  0  0  0  0  0  0
   16.3470   -5.1509    8.9314 C   0  0  0  0  0  0  0  0  0  0  0  0
   17.3405   -5.4383    9.5706 O   0  0  0  0  0  0  0  0  0  0  0  0
   16.2296   -5.4576    7.5959 N   0  0  0  0  0  0  0  0  0  0  0  0
   17.2527   -6.2074    6.8493 C   0  0  0  0  0  0  0  0  0  0  0  0
   16.5233   -6.5588    5.5793 C   0  0  0  0  0  0  0  0  0  0  0  0
   16.8713   -7.4406    4.5657 C   0  0  0  0  0  0  0  0  0  0  0  0
   16.0294   -7.6129    3.4760 C   0  0  0  0  0  0  0  0  0  0  0  0
   14.8416   -6.9027    3.3988 C   0  0  0  0  0  0  0  0  0  0  0  0
   14.4948   -6.0055    4.4000 C   0  0  0  0  0  0  0  0  0  0  0  0
   15.3376   -5.8133    5.4879 C   0  0  0  0  0  0  0  0  0  0  0  0
   15.1744   -4.9376    6.7058 C   0  0  0  0  0  0  0  0  0  0  0  0
   11.1947   -4.5178   12.4398 C   0  0  0  0  0  0  0  0  0  0  0  0
   12.4745   -5.2765   12.0765 C   0  0  0  0  0  0  0  0  0  0  0  0
   13.2179   -5.6605   13.3442 C   0  0  0  0  0  0  0  0  0  0  0  0
   12.1351   -2.4651   11.5140 O   0  0  0  0  0  0  0  0  0  0  0  0
   11.3114   -1.5732   10.7355 C   0  0  0  0  0  0  0  0  0  0  0  0
 20 21  1  0  0  0
 21 22  1  0  0  0
 21  1  1  0  0  0
  1  2  1  0  0  0
  1  7  2  0  0  0
  2  3  2  0  0  0
  3  9  1  0  0  0
  3  4  1  0  0  0
  9 10  2  0  0  0
  9 11  1  0  0  0
 11 12  1  0  0  0
 11 19  1  0  0  0
 12 13  1  0  0  0
 13 14  1  0  0  0
 13 18  2  0  0  0
 14 15  2  0  0  0
 15 16  1  0  0  0
 16 17  2  0  0  0
 17 18  1  0  0  0
 18 19  1  0  0  0
  4  5  1  0  0  0
  4  6  2  0  0  0
  6  7  1  0  0  0
  7 23  1  0  0  0
 23 24  1  0  0  0
  5  8  1  0  0  0
M  END
> <minimizedAffinity>
-7.43914

$$$$
2XJG_XJG_A_1224


 24 26  0  0  0  0  0  0  0  0999 V2000
   14.9604   -3.0337    8.9591 C   0  0  0  0  0  0  0  0  0  0  0  0
   15.5961   -2.9278    7.7178 C   0  0  0  0  0  0  0  0  0  0  0  0
   16.4239   -3.9434    7.2454 C   0  0  0  0  0  0  0  0  0  0  0  0
   16.6360   -5.0861    8.0346 C   0  0  0  0  0  0  0  0  0  0  0  0
   17.4342   -6.1025    7.6083 O   0  0  0  0  0  0  0  0  0  0  0  0
   16.0152   -5.2113    9.2618 C   0  0  0  0  0  0  0  0  0  0  0  0
   15.1840   -4.2180    9.7302 C   0  0  0  0  0  0  0  0  0  0  0  0
   17.8669   -6.0424    6.7794 H   0  0  0  0  0  0  0  0  0  0  0  0
   17.1057   -3.7646    5.9435 C   0  0  0  0  0  0  0  0  0  0  0  0
   17.9540   -2.8983    5.8539 O   0  0  0  0  0  0  0  0  0  0  0  0
   16.7483   -4.5442    4.8685 N   0  0  0  0  0  0  0  0  0  0  0  0
   17.3971   -4.4447    3.5511 C   0  0  0  0  0  0  0  0  0  0  0  0
   16.9009   -5.6873    2.8595 C   0  0  0  0  0  0  0  0  0  0  0  0
   17.3198   -6.2763    1.6747 C   0  0  0  0  0  0  0  0  0  0  0  0
   16.7135   -7.4413    1.2264 C   0  0  0  0  0  0  0  0  0  0  0  0
   15.6879   -8.0158    1.9608 C   0  0  0  0  0  0  0  0  0  0  0  0
   15.2512   -7.4229    3.1379 C   0  0  0  0  0  0  0  0  0  0  0  0
   15.8403   -6.2479    3.5882 C   0  0  0  0  0  0  0  0  0  0  0  0
   15.5763   -5.4394    4.8346 C   0  0  0  0  0  0  0  0  0  0  0  0
   13.7072   -0.9444    8.2788 C   0  0  0  0  0  0  0  0  0  0  0  0
   14.0583   -1.8965    9.4259 C   0  0  0  0  0  0  0  0  0  0  0  0
   14.6902   -1.1139   10.5640 C   0  0  0  0  0  0  0  0  0  0  0  0
   14.5518   -4.3151   10.9233 O   0  0  0  0  0  0  0  0  0  0  0  0
   13.5137   -5.3096   11.0390 C   0  0  0  0  0  0  0  0  0  0  0  0
 20 21  1  0  0  0
 21 22  1  0  0  0
 21  1  1  0  0  0
  1  2  1  0  0  0
  1  7  2  0  0  0
  2  3  2  0  0  0
  3  9  1  0  0  0
  3  4  1  0  0  0
  9 10  2  0  0  0
  9 11  1  0  0  0
 11 12  1  0  0  0
 11 19  1  0  0  0
 12 13  1  0  0  0
 13 14  1  0  0  0
 13 18  2  0  0  0
 14 15  2  0  0  0
 15 16  1  0  0  0
 16 17  2  0  0  0
 17 18  1  0  0  0
 18 19  1  0  0  0
  4  5  1  0  0  0
  4  6  2  0  0  0
  6  7  1  0  0  0
  7 23  1  0  0  0
 23 24  1  0  0  0
  5  8  1  0  0  0
M  END
> <minimizedAffinity>
-7.40026

$$$$
2XJG_XJG_A_1224


 24 26  0  0  0  0  0  0  0  0999 V2000
   15.0032   -2.4248    7.6533 C   0  0  0  0  0  0  0  0  0  0  0  0
   15.1100   -3.4671    6.7269 C   0  0  0  0  0  0  0  0  0  0  0  0
   15.0491   -4.7981    7.1326 C   0  0  0  0  0  0  0  0  0  0  0  0
   14.8928   -5.0991    8.4959 C   0  0  0  0  0  0  0  0  0  0  0  0
   14.8249   -6.3859    8.9334 O   0  0  0  0  0  0  0  0  0  0  0  0
   14.7824   -4.0844    9.4261 C   0  0  0  0  0  0  0  0  0  0  0  0
   14.8275   -2.7656    9.0318 C   0  0  0  0  0  0  0  0  0  0  0  0
   14.8971   -7.0929    8.3227 H   0  0  0  0  0  0  0  0  0  0  0  0
   15.2084   -5.8644    6.1181 C   0  0  0  0  0  0  0  0  0  0  0  0
   14.2110   -6.4410    5.7297 O   0  0  0  0  0  0  0  0  0  0  0  0
   16.4633   -6.2016    5.6677 N   0  0  0  0  0  0  0  0  0  0  0  0
   16.7007   -7.2306    4.6424 C   0  0  0  0  0  0  0  0  0  0  0  0
   18.1409   -6.9853    4.2758 C   0  0  0  0  0  0  0  0  0  0  0  0
   18.8892   -7.4827    3.2181 C   0  0  0  0  0  0  0  0  0  0  0  0
   20.2175   -7.1088    3.0712 C   0  0  0  0  0  0  0  0  0  0  0  0
   20.7978   -6.2399    3.9820 C   0  0  0  0  0  0  0  0  0  0  0  0
   20.0609   -5.7519    5.0528 C   0  0  0  0  0  0  0  0  0  0  0  0
   18.7347   -6.1318    5.2187 C   0  0  0  0  0  0  0  0  0  0  0  0
   17.7248   -5.7198    6.2614 C   0  0  0  0  0  0  0  0  0  0  0  0
   13.6988   -0.3024    7.2143 C   0  0  0  0  0  0  0  0  0  0  0  0
   15.0685   -0.9850    7.1553 C   0  0  0  0  0  0  0  0  0  0  0  0
   15.6171   -0.9078    5.7411 C   0  0  0  0  0  0  0  0  0  0  0  0
   14.7109   -1.7478    9.9168 O   0  0  0  0  0  0  0  0  0  0  0  0
   15.0773   -2.0202   11.2849 C   0  0  0  0  0  0  0  0  0  0  0  0
 20 21  1  0  0  0
 21 22  1  0  0  0
 21  1  1  0  0  0
  1  2  1  0  0  0
  1  7  2  0  0  0
  2  3  2  0  0  0
  3  9  1  0  0  0
  3  4  1  0  0  0
  9 10  2  0  0  0
  9 11  1  0  0  0
 11 12  1  0  0  0
 11 19  1  0  0  0
 12 13  1  0  0  0
 13 14  1  0  0  0
 13 18  2  0  0  0
 14 15  2  0  0  0
 15 16  1  0  0  0
 16 17  2  0  0  0
 17 18  1  0  0  0
 18 19  1  0  0  0
  4  5  1  0  0  0
  4  6  2  0  0  0
  6  7  1  0  0  0
  7 23  1  0  0  0
 23 24  1  0  0  0
  5  8  1  0  0  0
M  END
> <minimizedAffinity>
-7.35404

$$$$
2XJG_XJG_A_1224


 24 26  0  0  0  0  0  0  0  0999 V2000
   14.7680   -4.3695    9.4197 C   0  0  0  0  0  0  0  0  0  0  0  0
   14.7249   -5.0274    8.1863 C   0  0  0  0  0  0  0  0  0  0  0  0
   15.0391   -4.3605    7.0046 C   0  0  0  0  0  0  0  0  0  0  0  0
   15.3905   -3.0011    7.0502 C   0  0  0  0  0  0  0  0  0  0  0  0
   15.7081   -2.3138    5.9194 O   0  0  0  0  0  0  0  0  0  0  0  0
   15.4420   -2.3340    8.2583 C   0  0  0  0  0  0  0  0  0  0  0  0
   15.1465   -2.9896    9.4329 C   0  0  0  0  0  0  0  0  0  0  0  0
   15.6810   -2.7432    5.0870 H   0  0  0  0  0  0  0  0  0  0  0  0
   14.9385   -5.0911    5.7210 C   0  0  0  0  0  0  0  0  0  0  0  0
   13.8538   -5.1445    5.1743 O   0  0  0  0  0  0  0  0  0  0  0  0
   16.0465   -5.7154    5.1976 N   0  0  0  0  0  0  0  0  0  0  0  0
   16.0327   -6.4376    3.9152 C   0  0  0  0  0  0  0  0  0  0  0  0
   17.5018   -6.6304    3.6450 C   0  0  0  0  0  0  0  0  0  0  0  0
   18.1489   -7.0507    2.4914 C   0  0  0  0  0  0  0  0  0  0  0  0
   19.5330   -7.1491    2.4685 C   0  0  0  0  0  0  0  0  0  0  0  0
   20.2693   -6.8296    3.5986 C   0  0  0  0  0  0  0  0  0  0  0  0
   19.6283   -6.4253    4.7619 C   0  0  0  0  0  0  0  0  0  0  0  0
   18.2421   -6.3382    4.8012 C   0  0  0  0  0  0  0  0  0  0  0  0
   17.3233   -5.8970    5.9137 C   0  0  0  0  0  0  0  0  0  0  0  0
   14.5467   -6.6595   10.4709 C   0  0  0  0  0  0  0  0  0  0  0  0
   14.4223   -5.1481   10.6843 C   0  0  0  0  0  0  0  0  0  0  0  0
   13.0256   -4.8156   11.1802 C   0  0  0  0  0  0  0  0  0  0  0  0
   15.1985   -2.3677   10.6342 O   0  0  0  0  0  0  0  0  0  0  0  0
   14.6481   -1.0368   10.7106 C   0  0  0  0  0  0  0  0  0  0  0  0
 20 21  1  0  0  0
 21 22  1  0  0  0
 21  1  1  0  0  0
  1  2  1  0  0  0
  1  7  2  0  0  0
  2  3  2  0  0  0
  3  9  1  0  0  0
  3  4  1  0  0  0
  9 10  2  0  0  0
  9 11  1  0  0  0
 11 12  1  0  0  0
 11 19  1  0  0  0
 12 13  1  0  0  0
 13 14  1  0  0  0
 13 18  2  0  0  0
 14 15  2  0  0  0
 15 16  1  0  0  0
 16 17  2  0  0  0
 17 18  1  0  0  0
 18 19  1  0  0  0
  4  5  1  0  0  0
  4  6  2  0  0  0
  6  7  1  0  0  0
  7 23  1  0  0  0
 23 24  1  0  0  0
  5  8  1  0  0  0
M  END
> <minimizedAffinity>
-7.34492

$$$$
2XJG_XJG_A_1224


 24 26  0  0  0  0  0  0  0  0999 V2000
   17.3617   -6.6436    4.0072 C   0  0  0  0  0  0  0  0  0  0  0  0
   17.2289   -5.5679    4.8911 C   0  0  0  0  0  0  0  0  0  0  0  0
   15.9730   -5.0961    5.2653 C   0  0  0  0  0  0  0  0  0  0  0  0
   14.8210   -5.7003    4.7349 C   0  0  0  0  0  0  0  0  0  0  0  0
   13.5755   -5.2721    5.0775 O   0  0  0  0  0  0  0  0  0  0  0  0
   14.9306   -6.7656    3.8630 C   0  0  0  0  0  0  0  0  0  0  0  0
   16.1683   -7.2475    3.4988 C   0  0  0  0  0  0  0  0  0  0  0  0
   13.4737   -4.5512    5.6673 H   0  0  0  0  0  0  0  0  0  0  0  0
   15.8870   -3.9287    6.1716 C   0  0  0  0  0  0  0  0  0  0  0  0
   16.1816   -2.8353    5.7290 O   0  0  0  0  0  0  0  0  0  0  0  0
   15.5164   -4.1043    7.4842 N   0  0  0  0  0  0  0  0  0  0  0  0
   15.3822   -2.9917    8.4384 C   0  0  0  0  0  0  0  0  0  0  0  0
   14.6573   -3.6448    9.5859 C   0  0  0  0  0  0  0  0  0  0  0  0
   14.0496   -3.0761   10.6964 C   0  0  0  0  0  0  0  0  0  0  0  0
   13.4255   -3.8843   11.6362 C   0  0  0  0  0  0  0  0  0  0  0  0
   13.4107   -5.2599   11.4669 C   0  0  0  0  0  0  0  0  0  0  0  0
   14.0317   -5.8377   10.3677 C   0  0  0  0  0  0  0  0  0  0  0  0
   14.6732   -5.0395    9.4286 C   0  0  0  0  0  0  0  0  0  0  0  0
   15.3791   -5.4142    8.1487 C   0  0  0  0  0  0  0  0  0  0  0  0
   19.8217   -6.5743    4.5920 C   0  0  0  0  0  0  0  0  0  0  0  0
   18.7598   -7.1260    3.6362 C   0  0  0  0  0  0  0  0  0  0  0  0
   19.1172   -6.7557    2.2071 C   0  0  0  0  0  0  0  0  0  0  0  0
   16.3099   -8.2969    2.6554 O   0  0  0  0  0  0  0  0  0  0  0  0
   15.3490   -8.4164    1.5865 C   0  0  0  0  0  0  0  0  0  0  0  0
 20 21  1  0  0  0
 21 22  1  0  0  0
 21  1  1  0  0  0
  1  2  1  0  0  0
  1  7  2  0  0  0
  2  3  2  0  0  0
  3  9  1  0  0  0
  3  4  1  0  0  0
  9 10  2  0  0  0
  9 11  1  0  0  0
 11 12  1  0  0  0
 11 19  1  0  0  0
 12 13  1  0  0  0
 13 14  1  0  0  0
 13 18  2  0  0  0
 14 15  2  0  0  0
 15 16  1  0  0  0
 16 17  2  0  0  0
 17 18  1  0  0  0
 18 19  1  0  0  0
  4  5  1  0  0  0
  4  6  2  0  0  0
  6  7  1  0  0  0
  7 23  1  0  0  0
 23 24  1  0  0  0
  5  8  1  0  0  0
M  END
> <minimizedAffinity>
-7.23295

$$$$
2XJG_XJG_A_1224


 24 26  0  0  0  0  0  0  0  0999 V2000
   18.3625   -6.0986    4.3125 C   0  0  0  0  0  0  0  0  0  0  0  0
   18.1930   -5.9555    5.6934 C   0  0  0  0  0  0  0  0  0  0  0  0
   16.9414   -6.1130    6.2840 C   0  0  0  0  0  0  0  0  0  0  0  0
   15.8284   -6.4055    5.4782 C   0  0  0  0  0  0  0  0  0  0  0  0
   14.5893   -6.5707    6.0159 O   0  0  0  0  0  0  0  0  0  0  0  0
   15.9752   -6.5538    4.1131 C   0  0  0  0  0  0  0  0  0  0  0  0
   17.2116   -6.4136    3.5228 C   0  0  0  0  0  0  0  0  0  0  0  0
   14.4627   -6.4756    6.9394 H   0  0  0  0  0  0  0  0  0  0  0  0
   16.8078   -5.9108    7.7444 C   0  0  0  0  0  0  0  0  0  0  0  0
   17.3566   -6.7024    8.4862 O   0  0  0  0  0  0  0  0  0  0  0  0
   16.0491   -4.8702    8.2269 N   0  0  0  0  0  0  0  0  0  0  0  0
   15.8902   -4.5881    9.6627 C   0  0  0  0  0  0  0  0  0  0  0  0
   15.2786   -3.2118    9.6488 C   0  0  0  0  0  0  0  0  0  0  0  0
   15.0892   -2.3094   10.6861 C   0  0  0  0  0  0  0  0  0  0  0  0
   14.5021   -1.0771   10.4357 C   0  0  0  0  0  0  0  0  0  0  0  0
   14.1028   -0.7481    9.1498 C   0  0  0  0  0  0  0  0  0  0  0  0
   14.2727   -1.6524    8.1100 C   0  0  0  0  0  0  0  0  0  0  0  0
   14.8450   -2.8952    8.3520 C   0  0  0  0  0  0  0  0  0  0  0  0
   15.1673   -4.0225    7.4022 C   0  0  0  0  0  0  0  0  0  0  0  0
   20.7977   -6.7674    4.4574 C   0  0  0  0  0  0  0  0  0  0  0  0
   19.7555   -5.9235    3.7177 C   0  0  0  0  0  0  0  0  0  0  0  0
   20.1839   -4.4662    3.7190 C   0  0  0  0  0  0  0  0  0  0  0  0
   17.3912   -6.5638    2.1895 O   0  0  0  0  0  0  0  0  0  0  0  0
   16.5825   -7.5555    1.5241 C   0  0  0  0  0  0  0  0  0  0  0  0
 20 21  1  0  0  0
 21 22  1  0  0  0
 21  1  1  0  0  0
  1  2  1  0  0  0
  1  7  2  0  0  0
  2  3  2  0  0  0
  3  9  1  0  0  0
  3  4  1  0  0  0
  9 10  2  0  0  0
  9 11  1  0  0  0
 11 12  1  0  0  0
 11 19  1  0  0  0
 12 13  1  0  0  0
 13 14  1  0  0  0
 13 18  2  0  0  0
 14 15  2  0  0  0
 15 16  1  0  0  0
 16 17  2  0  0  0
 17 18  1  0  0  0
 18 19  1  0  0  0
  4  5  1  0  0  0
  4  6  2  0  0  0
  6  7  1  0  0  0
  7 23  1  0  0  0
 23 24  1  0  0  0
  5  8  1  0  0  0
M  END
> <minimizedAffinity>
-7.11845

$$$$
2XJG_XJG_A_1224


 24 26  0  0  0  0  0  0  0  0999 V2000
   14.3380   -3.2094   10.6045 C   0  0  0  0  0  0  0  0  0  0  0  0
   14.8931   -2.8744    9.3653 C   0  0  0  0  0  0  0  0  0  0  0  0
   15.1625   -3.8520    8.4106 C   0  0  0  0  0  0  0  0  0  0  0  0
   14.8862   -5.1982    8.7022 C   0  0  0  0  0  0  0  0  0  0  0  0
   15.1309   -6.1834    7.7959 O   0  0  0  0  0  0  0  0  0  0  0  0
   14.3351   -5.5494    9.9187 C   0  0  0  0  0  0  0  0  0  0  0  0
   14.0526   -4.5875   10.8630 C   0  0  0  0  0  0  0  0  0  0  0  0
   15.5044   -5.9717    6.9631 H   0  0  0  0  0  0  0  0  0  0  0  0
   15.7883   -3.4502    7.1305 C   0  0  0  0  0  0  0  0  0  0  0  0
   16.7166   -4.1144    6.7118 O   0  0  0  0  0  0  0  0  0  0  0  0
   15.3392   -2.3319    6.4680 N   0  0  0  0  0  0  0  0  0  0  0  0
   15.8914   -1.8841    5.1792 C   0  0  0  0  0  0  0  0  0  0  0  0
   14.8745   -0.8651    4.7364 C   0  0  0  0  0  0  0  0  0  0  0  0
   14.7118   -0.2436    3.5062 C   0  0  0  0  0  0  0  0  0  0  0  0
   13.6849    0.6713    3.3210 C   0  0  0  0  0  0  0  0  0  0  0  0
   12.8225    0.9661    4.3654 C   0  0  0  0  0  0  0  0  0  0  0  0
   12.9895    0.3618    5.6042 C   0  0  0  0  0  0  0  0  0  0  0  0
   14.0238   -0.5439    5.8056 C   0  0  0  0  0  0  0  0  0  0  0  0
   14.3905   -1.3504    7.0271 C   0  0  0  0  0  0  0  0  0  0  0  0
   12.6204   -1.5781   11.4918 C   0  0  0  0  0  0  0  0  0  0  0  0
   14.0554   -2.0996   11.6112 C   0  0  0  0  0  0  0  0  0  0  0  0
   15.0322   -0.9463   11.4595 C   0  0  0  0  0  0  0  0  0  0  0  0
   13.5021   -4.8973   12.0603 O   0  0  0  0  0  0  0  0  0  0  0  0
   12.0746   -5.1003   12.0955 C   0  0  0  0  0  0  0  0  0  0  0  0
 20 21  1  0  0  0
 21 22  1  0  0  0
 21  1  1  0  0  0
  1  2  1  0  0  0
  1  7  2  0  0  0
  2  3  2  0  0  0
  3  9  1  0  0  0
  3  4  1  0  0  0
  9 10  2  0  0  0
  9 11  1  0  0  0
 11 12  1  0  0  0
 11 19  1  0  0  0
 12 13  1  0  0  0
 13 14  1  0  0  0
 13 18  2  0  0  0
 14 15  2  0  0  0
 15 16  1  0  0  0
 16 17  2  0  0  0
 17 18  1  0  0  0
 18 19  1  0  0  0
  4  5  1  0  0  0
  4  6  2  0  0  0
  6  7  1  0  0  0
  7 23  1  0  0  0
 23 24  1  0  0  0
  5  8  1  0  0  0
M  END
> <minimizedAffinity>
-7.03723

$$$$
