2XJG_XJG_A_1224
  RCSB PDB12061707273D
Coordinates from PDB:2XJG:A:1224 Model:1 without hydrogens
 23 25  0  0  0  0            999 V2000
   14.0990   -1.2060    8.9180   C 0  0  0  0  0  0  0  0  0  0  0  0
   13.8360   -1.7880   10.3100   C 0  0  0  0  0  0  0  0  0  0  0  0
   14.7110   -1.0830   11.3320   C 0  0  0  0  0  0  0  0  0  0  0  0
   14.0460   -3.2980   10.3390   C 0  0  0  0  0  0  0  0  0  0  0  0
   15.1080   -3.8480    9.6140   C 0  0  0  0  0  0  0  0  0  0  0  0
   15.3360   -5.2220    9.6040   C 0  0  0  0  0  0  0  0  0  0  0  0
   16.4980   -5.7500    8.8540   C 0  0  0  0  0  0  0  0  0  0  0  0
   17.5030   -6.0330    9.4770   O 0  0  0  0  0  0  0  0  0  0  0  0
   16.4330   -5.8750    7.4860   N 0  0  0  0  0  0  0  0  0  0  0  0
   17.5350   -6.4160    6.6740   C 0  0  0  0  0  0  0  0  0  0  0  0
   16.8640   -6.6500    5.3460   C 0  0  0  0  0  0  0  0  0  0  0  0
   17.3110   -7.3450    4.2310   C 0  0  0  0  0  0  0  0  0  0  0  0
   16.5080   -7.4380    3.1030   C 0  0  0  0  0  0  0  0  0  0  0  0
   15.2600   -6.8350    3.0890   C 0  0  0  0  0  0  0  0  0  0  0  0
   14.8130   -6.1230    4.1940   C 0  0  0  0  0  0  0  0  0  0  0  0
   15.6150   -6.0100    5.3230   C 0  0  0  0  0  0  0  0  0  0  0  0
   15.3490   -5.3330    6.6450   C 0  0  0  0  0  0  0  0  0  0  0  0
   14.4950   -6.0680   10.3460   C 0  0  0  0  0  0  0  0  0  0  0  0
   14.6810   -7.4160   10.3600   O 0  0  0  0  0  0  0  0  0  0  0  0
   13.4390   -5.5450   11.0660   C 0  0  0  0  0  0  0  0  0  0  0  0
   13.1980   -4.1890   11.0700   C 0  0  0  0  0  0  0  0  0  0  0  0
   12.1650   -3.6460   11.7560   O 0  0  0  0  0  0  0  0  0  0  0  0
   11.3330   -4.5470   12.5150   C 0  0  0  0  0  0  0  0  0  0  0  0
  1  2  1  0  0  0  0
  2  3  1  0  0  0  0
  2  4  1  0  0  0  0
  4  5  1  0  0  0  0
  4 21  2  0  0  0  0
  5  6  2  0  0  0  0
  6  7  1  0  0  0  0
  6 18  1  0  0  0  0
  7  8  2  0  0  0  0
  7  9  1  0  0  0  0
  9 10  1  0  0  0  0
  9 17  1  0  0  0  0
 10 11  1  0  0  0  0
 11 12  1  0  0  0  0
 11 16  2  0  0  0  0
 12 13  2  0  0  0  0
 13 14  1  0  0  0  0
 14 15  2  0  0  0  0
 15 16  1  0  0  0  0
 16 17  1  0  0  0  0
 18 19  1  0  0  0  0
 18 20  2  0  0  0  0
 20 21  1  0  0  0  0
 21 22  1  0  0  0  0
 22 23  1  0  0  0  0
A    1
C1
A    2
C2
A    3
C3
A    4
C4
A    5
C5
A    6
C6
A    7
C7
A    8
O8
A    9
N9
A   10
C10
A   11
C11
A   12
C12
A   13
C13
A   14
C14
A   15
C15
A   16
C16
A   17
C17
A   18
C18
A   19
O19
A   20
C20
A   21
C21
A   22
O22
A   23
C19
M  END
>  <InstanceId>
2XJG_XJG_A_1224

>  <ChemCompId>
XJG

>  <PdbId>
2XJG

>  <ChainId>
A

>  <ResidueNumber>
1224

>  <InsertionCode>


>  <Model>
1

>  <AltIds>


>  <MissingHeavyAtoms>
0

>  <ObservedFormula>
C19 N O3

>  <Name>
1,3-DIHYDROISOINDOL-2-YL-(2-HYDROXY-4-METHOXY-5-PROPAN-2-YL-PHENYL)METHANONE

>  <SystematicName>
1,3-dihydroisoindol-2-yl-(2-hydroxy-4-methoxy-5-propan-2-yl-phenyl)methanone

>  <Synonyms>


>  <Type>
non-polymer

>  <Formula>
C19 H21 N O3

>  <MolecularWeight>
311.375

>  <ModifiedDate>
2011-06-04

>  <Parent>


>  <OneLetterCode>


>  <SubcomponentList>


>  <AmbiguousFlag>
N

>  <InChI>
InChI=1S/C19H21NO3/c1-12(2)15-8-16(17(21)9-18(15)23-3)19(22)20-10-13-6-4-5-7-14(13)11-20/h4-9,12,21H,10-11H2,1-3H3

>  <InChIKey>
RFBYLLKEEZKILL-UHFFFAOYSA-N

>  <SMILES>
CC(C)c1cc(c(cc1OC)O)C(=O)N2Cc3ccccc3C2

$$$$
