2VJX_IFL_A_1865


 15 15  0  0  0  0  0  0  0  0999 V2000
   26.8419   49.6068   -0.3315 O   0  0  0  0  0  0  0  0  0  0  0  0
   27.5208   48.5298   -0.9947 C   0  0  0  0  0  0  0  0  0  0  0  0
   27.8012   47.4424    0.0728 C   0  0  0  0  0  0  0  0  0  0  0  0
   29.0467   47.7627    0.6801 O   0  0  0  0  0  0  0  0  0  0  0  0
   27.9197   45.9872   -0.4671 C   0  0  0  0  0  0  0  0  0  0  0  0
   27.7451   45.7900   -1.7892 N   0  0  0  0  0  0  0  0  0  0  0  0
   27.3660   46.7973   -2.7917 C   0  0  0  0  0  0  0  0  0  0  0  0
   26.6342   47.9801   -2.1171 C   0  0  0  0  0  0  0  0  0  0  0  0
   28.1879   45.0354    0.2776 O   0  0  0  0  0  0  0  0  0  0  0  0
   27.4035   49.9544    0.3789 H   0  0  0  0  0  0  0  0  0  0  0  0
   29.7495   47.7319    0.0123 H   0  0  0  0  0  0  0  0  0  0  0  0
   27.8865   44.8733   -2.1191 H   0  0  0  0  0  0  0  0  0  0  0  0
   26.1967   49.0934   -3.1050 C   0  0  0  0  0  0  0  0  0  0  0  0
   27.1833   50.1162   -3.1801 O   0  0  0  0  0  0  0  0  0  0  0  0
   27.3031   50.5148   -2.3039 H   0  0  0  0  0  0  0  0  0  0  0  0
  1  2  1  0  0  0
  2  3  1  0  0  0
  2  8  1  0  0  0
  3  4  1  0  0  0
  3  5  1  0  0  0
  5  6  1  0  0  0
  5  9  2  0  0  0
  6  7  1  0  0  0
  7  8  1  0  0  0
  8 13  1  0  0  0
 13 14  1  0  0  0
  1 10  1  0  0  0
  4 11  1  0  0  0
  6 12  1  0  0  0
 14 15  1  0  0  0
M  END
> <minimizedAffinity>
-8.15202

$$$$
2VJX_IFL_A_1865


 15 15  0  0  0  0  0  0  0  0999 V2000
   30.5553   49.1160   -1.1726 O   0  0  0  0  0  0  0  0  0  0  0  0
   30.0293   47.8268   -1.5221 C   0  0  0  0  0  0  0  0  0  0  0  0
   28.9771   47.4576   -0.4465 C   0  0  0  0  0  0  0  0  0  0  0  0
   29.6705   46.8114    0.6137 O   0  0  0  0  0  0  0  0  0  0  0  0
   27.8533   46.4867   -0.9130 C   0  0  0  0  0  0  0  0  0  0  0  0
   27.8696   46.0751   -2.1966 N   0  0  0  0  0  0  0  0  0  0  0  0
   28.7960   46.5090   -3.2534 C   0  0  0  0  0  0  0  0  0  0  0  0
   29.3904   47.8949   -2.9132 C   0  0  0  0  0  0  0  0  0  0  0  0
   26.9799   46.0791   -0.1361 O   0  0  0  0  0  0  0  0  0  0  0  0
   30.9597   49.0724   -0.2920 H   0  0  0  0  0  0  0  0  0  0  0  0
   30.0778   45.9953    0.2835 H   0  0  0  0  0  0  0  0  0  0  0  0
   27.1882   45.4129   -2.4543 H   0  0  0  0  0  0  0  0  0  0  0  0
   30.3823   48.4314   -3.9786 C   0  0  0  0  0  0  0  0  0  0  0  0
   30.1456   49.8105   -4.2377 O   0  0  0  0  0  0  0  0  0  0  0  0
   29.2434   49.9260   -4.5745 H   0  0  0  0  0  0  0  0  0  0  0  0
  1  2  1  0  0  0
  2  3  1  0  0  0
  2  8  1  0  0  0
  3  4  1  0  0  0
  3  5  1  0  0  0
  5  6  1  0  0  0
  5  9  2  0  0  0
  6  7  1  0  0  0
  7  8  1  0  0  0
  8 13  1  0  0  0
 13 14  1  0  0  0
  1 10  1  0  0  0
  4 11  1  0  0  0
  6 12  1  0  0  0
 14 15  1  0  0  0
M  END
> <minimizedAffinity>
-6.50233

$$$$
2VJX_IFL_A_1865


 15 15  0  0  0  0  0  0  0  0999 V2000
   28.0846   46.7944   -4.0522 O   0  0  0  0  0  0  0  0  0  0  0  0
   28.2912   47.2977   -2.7238 C   0  0  0  0  0  0  0  0  0  0  0  0
   27.6828   46.2622   -1.7449 C   0  0  0  0  0  0  0  0  0  0  0  0
   26.3095   46.5946   -1.5836 O   0  0  0  0  0  0  0  0  0  0  0  0
   28.3135   46.2330   -0.3220 C   0  0  0  0  0  0  0  0  0  0  0  0
   29.3359   47.0746   -0.0692 N   0  0  0  0  0  0  0  0  0  0  0  0
   29.9947   47.9788   -1.0240 C   0  0  0  0  0  0  0  0  0  0  0  0
   29.7922   47.4744   -2.4712 C   0  0  0  0  0  0  0  0  0  0  0  0
   27.8858   45.4834    0.5654 O   0  0  0  0  0  0  0  0  0  0  0  0
   27.1343   46.6827   -4.2115 H   0  0  0  0  0  0  0  0  0  0  0  0
   26.2347   47.4775   -1.1889 H   0  0  0  0  0  0  0  0  0  0  0  0
   29.6783   47.0851    0.8538 H   0  0  0  0  0  0  0  0  0  0  0  0
   30.4570   48.3722   -3.5478 C   0  0  0  0  0  0  0  0  0  0  0  0
   29.5480   49.3668   -4.0054 O   0  0  0  0  0  0  0  0  0  0  0  0
   28.7725   48.9388   -4.4007 H   0  0  0  0  0  0  0  0  0  0  0  0
  1  2  1  0  0  0
  2  3  1  0  0  0
  2  8  1  0  0  0
  3  4  1  0  0  0
  3  5  1  0  0  0
  5  6  1  0  0  0
  5  9  2  0  0  0
  6  7  1  0  0  0
  7  8  1  0  0  0
  8 13  1  0  0  0
 13 14  1  0  0  0
  1 10  1  0  0  0
  4 11  1  0  0  0
  6 12  1  0  0  0
 14 15  1  0  0  0
M  END
> <minimizedAffinity>
-6.40596

$$$$
2VJX_IFL_A_1865


 15 15  0  0  0  0  0  0  0  0999 V2000
   30.2080   49.0195   -0.9681 O   0  0  0  0  0  0  0  0  0  0  0  0
   29.1698   48.3547   -1.7035 C   0  0  0  0  0  0  0  0  0  0  0  0
   29.7514   48.0036   -3.0959 C   0  0  0  0  0  0  0  0  0  0  0  0
   29.5326   49.1290   -3.9374 O   0  0  0  0  0  0  0  0  0  0  0  0
   29.1061   46.7756   -3.8023 C   0  0  0  0  0  0  0  0  0  0  0  0
   28.1318   46.1129   -3.1474 N   0  0  0  0  0  0  0  0  0  0  0  0
   27.6525   46.3680   -1.7805 C   0  0  0  0  0  0  0  0  0  0  0  0
   28.7416   47.0889   -0.9535 C   0  0  0  0  0  0  0  0  0  0  0  0
   29.4500   46.4214   -4.9375 O   0  0  0  0  0  0  0  0  0  0  0  0
   30.4787   49.8206   -1.4433 H   0  0  0  0  0  0  0  0  0  0  0  0
   28.5794   49.2842   -4.0283 H   0  0  0  0  0  0  0  0  0  0  0  0
   27.6939   45.3794   -3.6368 H   0  0  0  0  0  0  0  0  0  0  0  0
   28.3191   47.3982    0.5069 C   0  0  0  0  0  0  0  0  0  0  0  0
   27.8709   48.7435    0.6272 O   0  0  0  0  0  0  0  0  0  0  0  0
   28.5899   49.3469    0.3827 H   0  0  0  0  0  0  0  0  0  0  0  0
  1  2  1  0  0  0
  2  3  1  0  0  0
  2  8  1  0  0  0
  3  4  1  0  0  0
  3  5  1  0  0  0
  5  6  1  0  0  0
  5  9  2  0  0  0
  6  7  1  0  0  0
  7  8  1  0  0  0
  8 13  1  0  0  0
 13 14  1  0  0  0
  1 10  1  0  0  0
  4 11  1  0  0  0
  6 12  1  0  0  0
 14 15  1  0  0  0
M  END
> <minimizedAffinity>
-6.32205

$$$$
2VJX_IFL_A_1865


 15 15  0  0  0  0  0  0  0  0999 V2000
   29.2284   46.3687   -2.3345 O   0  0  0  0  0  0  0  0  0  0  0  0
   28.7894   47.6635   -1.8968 C   0  0  0  0  0  0  0  0  0  0  0  0
   28.0083   48.3011   -3.0732 C   0  0  0  0  0  0  0  0  0  0  0  0
   28.9576   48.9748   -3.8902 O   0  0  0  0  0  0  0  0  0  0  0  0
   26.9290   49.3488   -2.6722 C   0  0  0  0  0  0  0  0  0  0  0  0
   26.7451   49.5921   -1.3591 N   0  0  0  0  0  0  0  0  0  0  0  0
   27.3999   48.9101   -0.2324 C   0  0  0  0  0  0  0  0  0  0  0  0
   27.8933   47.5099   -0.6633 C   0  0  0  0  0  0  0  0  0  0  0  0
   26.2697   49.9630   -3.5209 O   0  0  0  0  0  0  0  0  0  0  0  0
   29.7956   46.4665   -3.1153 H   0  0  0  0  0  0  0  0  0  0  0  0
   29.3811   49.6815   -3.3783 H   0  0  0  0  0  0  0  0  0  0  0  0
   26.1035   50.3027   -1.1296 H   0  0  0  0  0  0  0  0  0  0  0  0
   28.5992   46.7172    0.4681 C   0  0  0  0  0  0  0  0  0  0  0  0
   28.2014   45.3510    0.4495 O   0  0  0  0  0  0  0  0  0  0  0  0
   27.2430   45.2914    0.5866 H   0  0  0  0  0  0  0  0  0  0  0  0
  1  2  1  0  0  0
  2  3  1  0  0  0
  2  8  1  0  0  0
  3  4  1  0  0  0
  3  5  1  0  0  0
  5  6  1  0  0  0
  5  9  2  0  0  0
  6  7  1  0  0  0
  7  8  1  0  0  0
  8 13  1  0  0  0
 13 14  1  0  0  0
  1 10  1  0  0  0
  4 11  1  0  0  0
  6 12  1  0  0  0
 14 15  1  0  0  0
M  END
> <minimizedAffinity>
-6.31961

$$$$
2VJX_IFL_A_1865


 15 15  0  0  0  0  0  0  0  0999 V2000
   27.2259   45.8116   -2.4735 O   0  0  0  0  0  0  0  0  0  0  0  0
   28.4939   46.4647   -2.3115 C   0  0  0  0  0  0  0  0  0  0  0  0
   28.8245   47.1576   -3.6572 C   0  0  0  0  0  0  0  0  0  0  0  0
   29.4976   46.2015   -4.4667 O   0  0  0  0  0  0  0  0  0  0  0  0
   29.7518   48.4042   -3.5599 C   0  0  0  0  0  0  0  0  0  0  0  0
   30.1623   48.7893   -2.3350 N   0  0  0  0  0  0  0  0  0  0  0  0
   29.7624   48.2083   -1.0443 C   0  0  0  0  0  0  0  0  0  0  0  0
   28.4002   47.4894   -1.1760 C   0  0  0  0  0  0  0  0  0  0  0  0
   30.1270   49.0178   -4.5674 O   0  0  0  0  0  0  0  0  0  0  0  0
   27.2857   45.1631   -3.1924 H   0  0  0  0  0  0  0  0  0  0  0  0
   30.3281   45.9422   -4.0378 H   0  0  0  0  0  0  0  0  0  0  0  0
   30.7980   49.5403   -2.3006 H   0  0  0  0  0  0  0  0  0  0  0  0
   27.9003   46.8448    0.1437 C   0  0  0  0  0  0  0  0  0  0  0  0
   28.2148   45.4573    0.1770 O   0  0  0  0  0  0  0  0  0  0  0  0
   27.7804   45.0094   -0.5657 H   0  0  0  0  0  0  0  0  0  0  0  0
  1  2  1  0  0  0
  2  3  1  0  0  0
  2  8  1  0  0  0
  3  4  1  0  0  0
  3  5  1  0  0  0
  5  6  1  0  0  0
  5  9  2  0  0  0
  6  7  1  0  0  0
  7  8  1  0  0  0
  8 13  1  0  0  0
 13 14  1  0  0  0
  1 10  1  0  0  0
  4 11  1  0  0  0
  6 12  1  0  0  0
 14 15  1  0  0  0
M  END
> <minimizedAffinity>
-6.30786

$$$$
2VJX_IFL_A_1865


 15 15  0  0  0  0  0  0  0  0999 V2000
   29.6845   47.3173    0.5395 O   0  0  0  0  0  0  0  0  0  0  0  0
   29.2331   47.8740   -0.7043 C   0  0  0  0  0  0  0  0  0  0  0  0
   30.4956   48.2239   -1.5314 C   0  0  0  0  0  0  0  0  0  0  0  0
   30.8867   49.5405   -1.1626 O   0  0  0  0  0  0  0  0  0  0  0  0
   30.3071   48.2217   -3.0766 C   0  0  0  0  0  0  0  0  0  0  0  0
   29.0926   47.8954   -3.5622 N   0  0  0  0  0  0  0  0  0  0  0  0
   27.9213   47.4514   -2.7913 C   0  0  0  0  0  0  0  0  0  0  0  0
   28.3639   46.8478   -1.4386 C   0  0  0  0  0  0  0  0  0  0  0  0
   31.2267   48.5297   -3.8460 O   0  0  0  0  0  0  0  0  0  0  0  0
   30.2347   47.9673    1.0040 H   0  0  0  0  0  0  0  0  0  0  0  0
   30.1805   50.1642   -1.3936 H   0  0  0  0  0  0  0  0  0  0  0  0
   28.9772   47.9615   -4.5377 H   0  0  0  0  0  0  0  0  0  0  0  0
   27.1873   46.3517   -0.5575 C   0  0  0  0  0  0  0  0  0  0  0  0
   27.6325   45.3686    0.3701 O   0  0  0  0  0  0  0  0  0  0  0  0
   27.9943   44.6090   -0.1126 H   0  0  0  0  0  0  0  0  0  0  0  0
  1  2  1  0  0  0
  2  3  1  0  0  0
  2  8  1  0  0  0
  3  4  1  0  0  0
  3  5  1  0  0  0
  5  6  1  0  0  0
  5  9  2  0  0  0
  6  7  1  0  0  0
  7  8  1  0  0  0
  8 13  1  0  0  0
 13 14  1  0  0  0
  1 10  1  0  0  0
  4 11  1  0  0  0
  6 12  1  0  0  0
 14 15  1  0  0  0
M  END
> <minimizedAffinity>
-6.26199

$$$$
2VJX_IFL_A_1865


 15 15  0  0  0  0  0  0  0  0999 V2000
   30.7716   47.1526   -2.4341 O   0  0  0  0  0  0  0  0  0  0  0  0
   29.3803   47.1563   -2.0803 C   0  0  0  0  0  0  0  0  0  0  0  0
   29.2282   48.0728   -0.8404 C   0  0  0  0  0  0  0  0  0  0  0  0
   29.4479   47.2637    0.3083 O   0  0  0  0  0  0  0  0  0  0  0  0
   27.8325   48.7398   -0.6665 C   0  0  0  0  0  0  0  0  0  0  0  0
   26.8958   48.4935   -1.6041 N   0  0  0  0  0  0  0  0  0  0  0  0
   27.0656   47.7186   -2.8426 C   0  0  0  0  0  0  0  0  0  0  0  0
   28.5544   47.6855   -3.2576 C   0  0  0  0  0  0  0  0  0  0  0  0
   27.5695   49.4567    0.3078 O   0  0  0  0  0  0  0  0  0  0  0  0
   31.2939   46.8176   -1.6886 H   0  0  0  0  0  0  0  0  0  0  0  0
   28.7713   46.5698    0.3492 H   0  0  0  0  0  0  0  0  0  0  0  0
   26.0019   48.8732   -1.4425 H   0  0  0  0  0  0  0  0  0  0  0  0
   28.8259   46.8858   -4.5590 C   0  0  0  0  0  0  0  0  0  0  0  0
   28.9421   45.4951   -4.2805 O   0  0  0  0  0  0  0  0  0  0  0  0
   29.6825   45.3481   -3.6713 H   0  0  0  0  0  0  0  0  0  0  0  0
  1  2  1  0  0  0
  2  3  1  0  0  0
  2  8  1  0  0  0
  3  4  1  0  0  0
  3  5  1  0  0  0
  5  6  1  0  0  0
  5  9  2  0  0  0
  6  7  1  0  0  0
  7  8  1  0  0  0
  8 13  1  0  0  0
 13 14  1  0  0  0
  1 10  1  0  0  0
  4 11  1  0  0  0
  6 12  1  0  0  0
 14 15  1  0  0  0
M  END
> <minimizedAffinity>
-6.20989

$$$$
2VJX_IFL_A_1865


 15 15  0  0  0  0  0  0  0  0999 V2000
   30.6430   49.1772   -0.9145 O   0  0  0  0  0  0  0  0  0  0  0  0
   30.6415   48.0729   -1.8317 C   0  0  0  0  0  0  0  0  0  0  0  0
   29.2238   47.4491   -1.7909 C   0  0  0  0  0  0  0  0  0  0  0  0
   29.2185   46.4890   -0.7417 O   0  0  0  0  0  0  0  0  0  0  0  0
   28.7790   46.7092   -3.0862 C   0  0  0  0  0  0  0  0  0  0  0  0
   29.6343   46.6945   -4.1281 N   0  0  0  0  0  0  0  0  0  0  0  0
   30.9326   47.3800   -4.2171 C   0  0  0  0  0  0  0  0  0  0  0  0
   30.9783   48.5764   -3.2392 C   0  0  0  0  0  0  0  0  0  0  0  0
   27.6882   46.1291   -3.1637 O   0  0  0  0  0  0  0  0  0  0  0  0
   30.4297   48.8580   -0.0237 H   0  0  0  0  0  0  0  0  0  0  0  0
   29.8608   45.7897   -0.9400 H   0  0  0  0  0  0  0  0  0  0  0  0
   29.3606   46.1683   -4.9139 H   0  0  0  0  0  0  0  0  0  0  0  0
   32.3173   49.3595   -3.2673 C   0  0  0  0  0  0  0  0  0  0  0  0
   32.1345   50.6867   -2.7875 O   0  0  0  0  0  0  0  0  0  0  0  0
   31.4974   51.1502   -3.3534 H   0  0  0  0  0  0  0  0  0  0  0  0
  1  2  1  0  0  0
  2  3  1  0  0  0
  2  8  1  0  0  0
  3  4  1  0  0  0
  3  5  1  0  0  0
  5  6  1  0  0  0
  5  9  2  0  0  0
  6  7  1  0  0  0
  7  8  1  0  0  0
  8 13  1  0  0  0
 13 14  1  0  0  0
  1 10  1  0  0  0
  4 11  1  0  0  0
  6 12  1  0  0  0
 14 15  1  0  0  0
M  END
> <minimizedAffinity>
-6.08986

$$$$
2VJX_IFL_A_1865


 15 15  0  0  0  0  0  0  0  0999 V2000
   27.8543   45.6979   -2.7169 O   0  0  0  0  0  0  0  0  0  0  0  0
   28.4792   46.9653   -2.9697 C   0  0  0  0  0  0  0  0  0  0  0  0
   29.0102   47.4900   -1.6120 C   0  0  0  0  0  0  0  0  0  0  0  0
   27.9500   48.2124   -0.9983 O   0  0  0  0  0  0  0  0  0  0  0  0
   30.2288   48.4550   -1.6960 C   0  0  0  0  0  0  0  0  0  0  0  0
   30.7315   48.7295   -2.9163 N   0  0  0  0  0  0  0  0  0  0  0  0
   30.3080   48.1481   -4.1992 C   0  0  0  0  0  0  0  0  0  0  0  0
   29.6240   46.7806   -3.9713 C   0  0  0  0  0  0  0  0  0  0  0  0
   30.7163   48.9788   -0.6859 O   0  0  0  0  0  0  0  0  0  0  0  0
   27.1297   45.8154   -2.0828 H   0  0  0  0  0  0  0  0  0  0  0  0
   27.7118   48.9712   -1.5537 H   0  0  0  0  0  0  0  0  0  0  0  0
   31.4604   49.3902   -2.9527 H   0  0  0  0  0  0  0  0  0  0  0  0
   29.1438   46.0934   -5.2768 C   0  0  0  0  0  0  0  0  0  0  0  0
   29.4094   44.6960   -5.2373 O   0  0  0  0  0  0  0  0  0  0  0  0
   30.3644   44.5507   -5.1489 H   0  0  0  0  0  0  0  0  0  0  0  0
  1  2  1  0  0  0
  2  3  1  0  0  0
  2  8  1  0  0  0
  3  4  1  0  0  0
  3  5  1  0  0  0
  5  6  1  0  0  0
  5  9  2  0  0  0
  6  7  1  0  0  0
  7  8  1  0  0  0
  8 13  1  0  0  0
 13 14  1  0  0  0
  1 10  1  0  0  0
  4 11  1  0  0  0
  6 12  1  0  0  0
 14 15  1  0  0  0
M  END
> <minimizedAffinity>
-6.05331

$$$$
