1NC3_FMC_A_233
  RCSB PDB12061703233D
Coordinates from PDB:1NC3:A:233 Model:1 without hydrogens
 19 21  0  0  0  0            999 V2000
   52.3740   40.6340   19.8220   N 0  0  0  0  0  0  0  0  0  0  0  0
   53.0720   40.6730   20.9860   C 0  0  0  0  0  0  0  0  0  0  0  0
   54.3790   40.3340   21.1230   N 0  0  0  0  0  0  0  0  0  0  0  0
   55.0130   39.9130   19.8950   C 0  0  0  0  0  0  0  0  0  0  0  0
   54.3400   39.8570   18.6580   C 0  0  0  0  0  0  0  0  0  0  0  0
   52.9360   40.2410   18.6320   C 0  0  0  0  0  0  0  0  0  0  0  0
   52.2010   40.2190   17.5170   N 0  0  0  0  0  0  0  0  0  0  0  0
   55.2300   39.4200   17.7150   N 0  0  0  0  0  0  0  0  0  0  0  0
   56.4730   39.1840   18.3130   N 0  0  0  0  0  0  0  0  0  0  0  0
   56.3660   39.4700   19.6300   C 0  0  0  0  0  0  0  0  0  0  0  0
   57.5470   39.3160   20.6570   C 0  0  0  0  0  0  0  0  0  0  0  0
   57.4800   39.8800   22.1080   C 0  0  0  0  0  0  0  0  0  0  0  0
   58.3590   40.9120   22.4350   O 0  0  0  0  0  0  0  0  0  0  0  0
   57.6840   38.6880   23.0240   C 0  0  0  0  0  0  0  0  0  0  0  0
   59.0470   38.8150   23.5100   O 0  0  0  0  0  0  0  0  0  0  0  0
   57.4340   37.3850   22.2040   C 0  0  0  0  0  0  0  0  0  0  0  0
   57.7800   37.8870   20.8390   O 0  0  0  0  0  0  0  0  0  0  0  0
   55.9500   36.8440   22.2000   C 0  0  0  0  0  0  0  0  0  0  0  0
   55.4460   36.3460   23.4370   O 0  0  0  0  0  0  0  0  0  0  0  0
  1  2  2  0  0  0  0
  1  6  1  0  0  0  0
  2  3  1  0  0  0  0
  3  4  2  0  0  0  0
  4  5  1  0  0  0  0
  4 10  1  0  0  0  0
  5  6  2  0  0  0  0
  5  8  1  0  0  0  0
  6  7  1  0  0  0  0
  8  9  1  0  0  0  0
  9 10  2  0  0  0  0
 10 11  1  0  0  0  0
 11 12  1  0  0  0  0
 11 17  1  0  0  0  0
 12 13  1  0  0  0  0
 12 14  1  0  0  0  0
 14 15  1  0  0  0  0
 14 16  1  0  0  0  0
 16 17  1  0  0  0  0
 16 18  1  0  0  0  0
 18 19  1  0  0  0  0
A    1
N1
A    2
C2
A    3
N3
A    4
C4
A    5
C5
A    6
C6
A    7
N6
A    8
N7
A    9
N8
A   10
C9
A   11
C1'
A   12
C2'
A   13
O2'
A   14
C3'
A   15
O3'
A   16
C4'
A   17
O4'
A   18
C5'
A   19
O5'
M  END
>  <InstanceId>
1NC3_FMC_A_233

>  <ChemCompId>
FMC

>  <PdbId>
1NC3

>  <ChainId>
A

>  <ResidueNumber>
233

>  <InsertionCode>


>  <Model>
1

>  <AltIds>


>  <MissingHeavyAtoms>
0

>  <ObservedFormula>
C10 N5 O4

>  <Name>
(1S)-1-(7-amino-1H-pyrazolo[4,3-d]pyrimidin-3-yl)-1,4-anhydro-D-ribitol

>  <SystematicName>
(2S,3R,4S,5R)-2-(7-azanyl-1H-pyrazolo[4,3-d]pyrimidin-3-yl)-5-(hydroxymethyl)oxolane-3,4-diol

>  <Synonyms>


>  <Type>
NON-POLYMER

>  <Formula>
C10 H13 N5 O4

>  <MolecularWeight>
267.241

>  <ModifiedDate>
2011-06-04

>  <Parent>


>  <OneLetterCode>


>  <SubcomponentList>


>  <AmbiguousFlag>
N

>  <InChI>
InChI=1S/C10H13N5O4/c11-10-6-4(12-2-13-10)5(14-15-6)9-8(18)7(17)3(1-16)19-9/h2-3,7-9,16-18H,1H2,(H,14,15)(H2,11,12,13)/t3-,7-,8-,9+/m1/s1

>  <InChIKey>
KBHMEHLJSZMEMI-KSYZLYKTSA-N

>  <SMILES>
c1nc2c(c(n1)N)[nH]nc2[C@H]3[C@@H]([C@@H]([C@H](O3)CO)O)O

$$$$
