4RD6_GDP_A_501


 36 38  0  0  0  0  0  0  0  0999 V2000
   -4.7186   33.5048   -1.1260 C   0  0  0  0  0  0  0  0  0  0  0  0
   -5.4360   34.7419   -1.2517 O   0  0  0  0  0  0  0  0  0  0  0  0
   -4.8429   33.0593    0.3263 C   0  0  0  0  0  0  0  0  0  0  0  0
   -3.6437   33.4118    1.0314 O   0  0  0  0  0  0  0  0  0  0  0  0
   -6.0222   33.8791    0.8334 C   0  0  0  0  0  0  0  0  0  0  0  0
   -6.0015   34.1429    2.2403 O   0  0  0  0  0  0  0  0  0  0  0  0
   -5.8968   35.1551    0.0207 C   0  0  0  0  0  0  0  0  0  0  0  0
   -3.4829   34.3640    0.9399 H   0  0  0  0  0  0  0  0  0  0  0  0
   -5.1877   34.6190    2.4681 H   0  0  0  0  0  0  0  0  0  0  0  0
   -7.2079   35.8201   -0.0856 N   0  0  0  0  0  0  0  0  0  0  0  0
   -8.3469   35.2929   -0.5700 C   0  0  0  0  0  0  0  0  0  0  0  0
   -9.3556   36.1908   -0.5224 N   0  0  0  0  0  0  0  0  0  0  0  0
   -8.8563   37.3253   -0.0074 C   0  0  0  0  0  0  0  0  0  0  0  0
   -9.3719   38.6639    0.3320 C   0  0  0  0  0  0  0  0  0  0  0  0
  -10.5717   38.9628    0.1293 O   0  0  0  0  0  0  0  0  0  0  0  0
   -8.5050   39.5438    0.8652 N   0  0  0  0  0  0  0  0  0  0  0  0
   -7.2105   39.2453    1.0906 C   0  0  0  0  0  0  0  0  0  0  0  0
   -6.4006   40.1823    1.6264 N   0  0  0  0  0  0  0  0  0  0  0  0
   -6.6748   38.0406    0.8076 N   0  0  0  0  0  0  0  0  0  0  0  0
   -7.4354   37.0684    0.2789 C   0  0  0  0  0  0  0  0  0  0  0  0
   -8.8298   40.4429    1.1004 H   0  0  0  0  0  0  0  0  0  0  0  0
   -6.7568   41.0734    1.8460 H   0  0  0  0  0  0  0  0  0  0  0  0
   -5.4536   39.9747    1.7976 H   0  0  0  0  0  0  0  0  0  0  0  0
   -5.3224   32.4696   -2.0660 C   0  0  0  0  0  0  0  0  0  0  0  0
   -5.8969   31.3988   -1.3016 O   0  0  0  0  0  0  0  0  0  0  0  0
   -6.7633   30.2628   -2.0369 P   0  0  0  0  0  0  0  0  0  0  0  0
   -8.2290   30.6282   -1.9224 O   0  0  0  0  0  0  0  0  0  0  0  0
   -6.4146   28.8906   -1.5259 O   0  0  0  0  0  0  0  0  0  0  0  0
   -6.9520   28.2276   -1.9869 H   0  0  0  0  0  0  0  0  0  0  0  0
   -6.2251   30.4617   -3.5364 O   0  0  0  0  0  0  0  0  0  0  0  0
   -6.9107   29.9907   -4.9230 P   0  0  0  0  0  0  0  0  0  0  0  0
   -7.3136   31.1913   -5.7170 O   0  0  0  0  0  0  0  0  0  0  0  0
   -8.1089   29.1657   -4.5300 O   0  0  0  0  0  0  0  0  0  0  0  0
   -5.9052   29.1931   -5.7253 O   0  0  0  0  0  0  0  0  0  0  0  0
   -8.5628   28.8538   -5.3285 H   0  0  0  0  0  0  0  0  0  0  0  0
   -6.3103   28.9072   -6.5590 H   0  0  0  0  0  0  0  0  0  0  0  0
 31 32  2  0  0  0
 31 33  1  0  0  0
 31 34  1  0  0  0
 31 30  1  0  0  0
 30 26  1  0  0  0
 26 27  2  0  0  0
 26 28  1  0  0  0
 26 25  1  0  0  0
 25 24  1  0  0  0
 24  1  1  0  0  0
  1  2  1  0  0  0
  1  3  1  0  0  0
  2  7  1  0  0  0
  3  4  1  0  0  0
  3  5  1  0  0  0
  5  6  1  0  0  0
  5  7  1  0  0  0
  7 10  1  0  0  0
 10 11  1  0  0  0
 10 20  1  0  0  0
 11 12  2  0  0  0
 12 13  1  0  0  0
 13 14  1  0  0  0
 13 20  2  0  0  0
 14 15  2  0  0  0
 14 16  1  0  0  0
 16 17  1  0  0  0
 17 18  1  0  0  0
 17 19  2  0  0  0
 19 20  1  0  0  0
 33 35  1  0  0  0
 34 36  1  0  0  0
 28 29  1  0  0  0
  4  8  1  0  0  0
  6  9  1  0  0  0
 16 21  1  0  0  0
 18 22  1  0  0  0
 18 23  1  0  0  0
M  END
> <minimizedAffinity>
-10.68386

$$$$
4RD6_GDP_A_501


 36 38  0  0  0  0  0  0  0  0999 V2000
   -4.9698   33.0936   -0.8628 C   0  0  0  0  0  0  0  0  0  0  0  0
   -5.7272   34.2515   -1.2455 O   0  0  0  0  0  0  0  0  0  0  0  0
   -4.7401   33.1845    0.6413 C   0  0  0  0  0  0  0  0  0  0  0  0
   -3.4184   33.6871    0.8864 O   0  0  0  0  0  0  0  0  0  0  0  0
   -5.7882   34.1969    1.0845 C   0  0  0  0  0  0  0  0  0  0  0  0
   -5.4457   34.9280    2.2668 O   0  0  0  0  0  0  0  0  0  0  0  0
   -5.8879   35.1046   -0.1282 C   0  0  0  0  0  0  0  0  0  0  0  0
   -3.3071   34.5381    0.4343 H   0  0  0  0  0  0  0  0  0  0  0  0
   -4.6132   35.4045    2.1224 H   0  0  0  0  0  0  0  0  0  0  0  0
   -7.2036   35.7683   -0.1585 N   0  0  0  0  0  0  0  0  0  0  0  0
   -8.3684   35.2395   -0.5755 C   0  0  0  0  0  0  0  0  0  0  0  0
   -9.3735   36.1365   -0.4700 N   0  0  0  0  0  0  0  0  0  0  0  0
   -8.8461   37.2720    0.0142 C   0  0  0  0  0  0  0  0  0  0  0  0
   -9.3425   38.6103    0.3820 C   0  0  0  0  0  0  0  0  0  0  0  0
  -10.5524   38.9080    0.2492 O   0  0  0  0  0  0  0  0  0  0  0  0
   -8.4469   39.4915    0.8632 N   0  0  0  0  0  0  0  0  0  0  0  0
   -7.1413   39.1945    1.0132 C   0  0  0  0  0  0  0  0  0  0  0  0
   -6.3025   40.1326    1.5001 N   0  0  0  0  0  0  0  0  0  0  0  0
   -6.6217   37.9900    0.7004 N   0  0  0  0  0  0  0  0  0  0  0  0
   -7.4108   37.0166    0.2176 C   0  0  0  0  0  0  0  0  0  0  0  0
   -8.7584   40.3905    1.1162 H   0  0  0  0  0  0  0  0  0  0  0  0
   -6.6462   41.0236    1.7395 H   0  0  0  0  0  0  0  0  0  0  0  0
   -5.3469   39.9261    1.6161 H   0  0  0  0  0  0  0  0  0  0  0  0
   -5.7507   31.8353   -1.2186 C   0  0  0  0  0  0  0  0  0  0  0  0
   -5.8822   31.7346   -2.6446 O   0  0  0  0  0  0  0  0  0  0  0  0
   -6.8278   30.6043   -3.2854 P   0  0  0  0  0  0  0  0  0  0  0  0
   -7.0112   30.9107   -4.7576 O   0  0  0  0  0  0  0  0  0  0  0  0
   -8.1085   30.4560   -2.5087 O   0  0  0  0  0  0  0  0  0  0  0  0
   -8.6571   29.7687   -2.9180 H   0  0  0  0  0  0  0  0  0  0  0  0
   -5.8819   29.3257   -3.0661 O   0  0  0  0  0  0  0  0  0  0  0  0
   -4.9853   28.5377   -4.1570 P   0  0  0  0  0  0  0  0  0  0  0  0
   -3.8395   29.3986   -4.5813 O   0  0  0  0  0  0  0  0  0  0  0  0
   -5.9074   28.2433   -5.3119 O   0  0  0  0  0  0  0  0  0  0  0  0
   -4.4369   27.2755   -3.5266 O   0  0  0  0  0  0  0  0  0  0  0  0
   -5.4194   27.7676   -6.0021 H   0  0  0  0  0  0  0  0  0  0  0  0
   -3.8978   26.7977   -4.1761 H   0  0  0  0  0  0  0  0  0  0  0  0
 31 32  2  0  0  0
 31 33  1  0  0  0
 31 34  1  0  0  0
 31 30  1  0  0  0
 30 26  1  0  0  0
 26 27  2  0  0  0
 26 28  1  0  0  0
 26 25  1  0  0  0
 25 24  1  0  0  0
 24  1  1  0  0  0
  1  2  1  0  0  0
  1  3  1  0  0  0
  2  7  1  0  0  0
  3  4  1  0  0  0
  3  5  1  0  0  0
  5  6  1  0  0  0
  5  7  1  0  0  0
  7 10  1  0  0  0
 10 11  1  0  0  0
 10 20  1  0  0  0
 11 12  2  0  0  0
 12 13  1  0  0  0
 13 14  1  0  0  0
 13 20  2  0  0  0
 14 15  2  0  0  0
 14 16  1  0  0  0
 16 17  1  0  0  0
 17 18  1  0  0  0
 17 19  2  0  0  0
 19 20  1  0  0  0
 33 35  1  0  0  0
 34 36  1  0  0  0
 28 29  1  0  0  0
  4  8  1  0  0  0
  6  9  1  0  0  0
 16 21  1  0  0  0
 18 22  1  0  0  0
 18 23  1  0  0  0
M  END
> <minimizedAffinity>
-9.03330

$$$$
4RD6_GDP_A_501


 36 38  0  0  0  0  0  0  0  0999 V2000
   -4.9021   33.1376   -0.4858 C   0  0  0  0  0  0  0  0  0  0  0  0
   -5.6337   34.2836   -0.9467 O   0  0  0  0  0  0  0  0  0  0  0  0
   -4.7886   33.2571    1.0294 C   0  0  0  0  0  0  0  0  0  0  0  0
   -3.4920   33.7724    1.3654 O   0  0  0  0  0  0  0  0  0  0  0  0
   -5.8725   34.2708    1.3724 C   0  0  0  0  0  0  0  0  0  0  0  0
   -5.6250   35.0253    2.5637 O   0  0  0  0  0  0  0  0  0  0  0  0
   -5.8836   35.1557    0.1391 C   0  0  0  0  0  0  0  0  0  0  0  0
   -3.3507   34.6157    0.9075 H   0  0  0  0  0  0  0  0  0  0  0  0
   -4.7863   35.5044    2.4746 H   0  0  0  0  0  0  0  0  0  0  0  0
   -7.1964   35.8104   -0.0040 N   0  0  0  0  0  0  0  0  0  0  0  0
   -8.3248   35.2650   -0.4934 C   0  0  0  0  0  0  0  0  0  0  0  0
   -9.3389   36.1580   -0.4835 N   0  0  0  0  0  0  0  0  0  0  0  0
   -8.8539   37.3075    0.0115 C   0  0  0  0  0  0  0  0  0  0  0  0
   -9.3820   38.6510    0.3101 C   0  0  0  0  0  0  0  0  0  0  0  0
  -10.5800   38.9380    0.0813 O   0  0  0  0  0  0  0  0  0  0  0  0
   -8.5284   39.5485    0.8354 N   0  0  0  0  0  0  0  0  0  0  0  0
   -7.2361   39.2630    1.0883 C   0  0  0  0  0  0  0  0  0  0  0  0
   -6.4399   40.2173    1.6138 N   0  0  0  0  0  0  0  0  0  0  0  0
   -6.6895   38.0548    0.8432 N   0  0  0  0  0  0  0  0  0  0  0  0
   -7.4364   37.0658    0.3264 C   0  0  0  0  0  0  0  0  0  0  0  0
   -8.8617   40.4511    1.0435 H   0  0  0  0  0  0  0  0  0  0  0  0
   -6.8042   41.1115    1.8061 H   0  0  0  0  0  0  0  0  0  0  0  0
   -5.4946   40.0194    1.8049 H   0  0  0  0  0  0  0  0  0  0  0  0
   -5.6473   31.8681   -0.8769 C   0  0  0  0  0  0  0  0  0  0  0  0
   -5.2915   30.8032    0.0178 O   0  0  0  0  0  0  0  0  0  0  0  0
   -4.1913   29.7183   -0.4234 P   0  0  0  0  0  0  0  0  0  0  0  0
   -3.2448   29.4955    0.7382 O   0  0  0  0  0  0  0  0  0  0  0  0
   -3.5231   30.1090   -1.7143 O   0  0  0  0  0  0  0  0  0  0  0  0
   -2.8660   29.4371   -1.9545 H   0  0  0  0  0  0  0  0  0  0  0  0
   -5.1549   28.4534   -0.6454 O   0  0  0  0  0  0  0  0  0  0  0  0
   -5.5764   27.7403   -2.0341 P   0  0  0  0  0  0  0  0  0  0  0  0
   -4.3542   27.2332   -2.7293 O   0  0  0  0  0  0  0  0  0  0  0  0
   -6.2696   28.8023   -2.8480 O   0  0  0  0  0  0  0  0  0  0  0  0
   -6.4845   26.5678   -1.7314 O   0  0  0  0  0  0  0  0  0  0  0  0
   -6.5467   28.4281   -3.6989 H   0  0  0  0  0  0  0  0  0  0  0  0
   -6.7413   26.1352   -2.5608 H   0  0  0  0  0  0  0  0  0  0  0  0
 31 32  2  0  0  0
 31 33  1  0  0  0
 31 34  1  0  0  0
 31 30  1  0  0  0
 30 26  1  0  0  0
 26 27  2  0  0  0
 26 28  1  0  0  0
 26 25  1  0  0  0
 25 24  1  0  0  0
 24  1  1  0  0  0
  1  2  1  0  0  0
  1  3  1  0  0  0
  2  7  1  0  0  0
  3  4  1  0  0  0
  3  5  1  0  0  0
  5  6  1  0  0  0
  5  7  1  0  0  0
  7 10  1  0  0  0
 10 11  1  0  0  0
 10 20  1  0  0  0
 11 12  2  0  0  0
 12 13  1  0  0  0
 13 14  1  0  0  0
 13 20  2  0  0  0
 14 15  2  0  0  0
 14 16  1  0  0  0
 16 17  1  0  0  0
 17 18  1  0  0  0
 17 19  2  0  0  0
 19 20  1  0  0  0
 33 35  1  0  0  0
 34 36  1  0  0  0
 28 29  1  0  0  0
  4  8  1  0  0  0
  6  9  1  0  0  0
 16 21  1  0  0  0
 18 22  1  0  0  0
 18 23  1  0  0  0
M  END
> <minimizedAffinity>
-7.86742

$$$$
4RD6_GDP_A_501


 36 38  0  0  0  0  0  0  0  0999 V2000
   -4.5057   33.5766   -0.8291 C   0  0  0  0  0  0  0  0  0  0  0  0
   -4.2854   34.9795   -1.0391 O   0  0  0  0  0  0  0  0  0  0  0  0
   -4.1929   33.2873    0.6343 C   0  0  0  0  0  0  0  0  0  0  0  0
   -2.8743   32.7295    0.7328 O   0  0  0  0  0  0  0  0  0  0  0  0
   -4.2377   34.6701    1.2712 C   0  0  0  0  0  0  0  0  0  0  0  0
   -3.4228   34.8131    2.4395 O   0  0  0  0  0  0  0  0  0  0  0  0
   -3.7566   35.5588    0.1384 C   0  0  0  0  0  0  0  0  0  0  0  0
   -2.2363   33.3333    0.3215 H   0  0  0  0  0  0  0  0  0  0  0  0
   -2.4994   34.6179    2.2155 H   0  0  0  0  0  0  0  0  0  0  0  0
   -4.2610   36.9317    0.3211 N   0  0  0  0  0  0  0  0  0  0  0  0
   -3.5297   38.0451    0.5102 C   0  0  0  0  0  0  0  0  0  0  0  0
   -4.3241   39.1295    0.6474 N   0  0  0  0  0  0  0  0  0  0  0  0
   -5.5951   38.7075    0.5567 C   0  0  0  0  0  0  0  0  0  0  0  0
   -6.9330   39.3248    0.5998 C   0  0  0  0  0  0  0  0  0  0  0  0
   -7.0682   40.5587    0.7713 O   0  0  0  0  0  0  0  0  0  0  0  0
   -7.9943   38.5121    0.4478 N   0  0  0  0  0  0  0  0  0  0  0  0
   -7.8733   37.1829    0.2639 C   0  0  0  0  0  0  0  0  0  0  0  0
   -8.9855   36.4321    0.1218 N   0  0  0  0  0  0  0  0  0  0  0  0
   -6.6813   36.5546    0.2105 N   0  0  0  0  0  0  0  0  0  0  0  0
   -5.5414   37.2525    0.3397 C   0  0  0  0  0  0  0  0  0  0  0  0
   -8.8967   38.9049    0.4720 H   0  0  0  0  0  0  0  0  0  0  0  0
   -9.8733   36.8563    0.1553 H   0  0  0  0  0  0  0  0  0  0  0  0
   -8.9092   35.4602   -0.0154 H   0  0  0  0  0  0  0  0  0  0  0  0
   -5.9543   33.2355   -1.1534 C   0  0  0  0  0  0  0  0  0  0  0  0
   -6.0122   32.4809   -2.3732 O   0  0  0  0  0  0  0  0  0  0  0  0
   -5.9452   30.8760   -2.3279 P   0  0  0  0  0  0  0  0  0  0  0  0
   -6.2643   30.4223   -0.9182 O   0  0  0  0  0  0  0  0  0  0  0  0
   -4.6380   30.3663   -2.8729 O   0  0  0  0  0  0  0  0  0  0  0  0
   -4.6268   29.3972   -2.8328 H   0  0  0  0  0  0  0  0  0  0  0  0
   -7.1479   30.5417   -3.3377 O   0  0  0  0  0  0  0  0  0  0  0  0
   -7.0638   30.0206   -4.8661 P   0  0  0  0  0  0  0  0  0  0  0  0
   -7.2905   31.1654   -5.8000 O   0  0  0  0  0  0  0  0  0  0  0  0
   -8.1424   28.9775   -5.0050 O   0  0  0  0  0  0  0  0  0  0  0  0
   -5.6834   29.4535   -5.1194 O   0  0  0  0  0  0  0  0  0  0  0  0
   -8.1387   28.6270   -5.9095 H   0  0  0  0  0  0  0  0  0  0  0  0
   -5.6262   29.1389   -6.0351 H   0  0  0  0  0  0  0  0  0  0  0  0
 31 32  2  0  0  0
 31 33  1  0  0  0
 31 34  1  0  0  0
 31 30  1  0  0  0
 30 26  1  0  0  0
 26 27  2  0  0  0
 26 28  1  0  0  0
 26 25  1  0  0  0
 25 24  1  0  0  0
 24  1  1  0  0  0
  1  2  1  0  0  0
  1  3  1  0  0  0
  2  7  1  0  0  0
  3  4  1  0  0  0
  3  5  1  0  0  0
  5  6  1  0  0  0
  5  7  1  0  0  0
  7 10  1  0  0  0
 10 11  1  0  0  0
 10 20  1  0  0  0
 11 12  2  0  0  0
 12 13  1  0  0  0
 13 14  1  0  0  0
 13 20  2  0  0  0
 14 15  2  0  0  0
 14 16  1  0  0  0
 16 17  1  0  0  0
 17 18  1  0  0  0
 17 19  2  0  0  0
 19 20  1  0  0  0
 33 35  1  0  0  0
 34 36  1  0  0  0
 28 29  1  0  0  0
  4  8  1  0  0  0
  6  9  1  0  0  0
 16 21  1  0  0  0
 18 22  1  0  0  0
 18 23  1  0  0  0
M  END
> <minimizedAffinity>
-7.80308

$$$$
4RD6_GDP_A_501


 36 38  0  0  0  0  0  0  0  0999 V2000
   -6.3787   31.1065   -1.6566 C   0  0  0  0  0  0  0  0  0  0  0  0
   -6.1542   30.4831   -0.3830 O   0  0  0  0  0  0  0  0  0  0  0  0
   -5.0208   31.5594   -2.1801 C   0  0  0  0  0  0  0  0  0  0  0  0
   -4.8614   32.9625   -1.9242 O   0  0  0  0  0  0  0  0  0  0  0  0
   -4.0443   30.7479   -1.3388 C   0  0  0  0  0  0  0  0  0  0  0  0
   -2.7630   31.3606   -1.1590 O   0  0  0  0  0  0  0  0  0  0  0  0
   -4.7916   30.6123   -0.0245 C   0  0  0  0  0  0  0  0  0  0  0  0
   -4.9781   33.1336   -0.9765 H   0  0  0  0  0  0  0  0  0  0  0  0
   -2.8749   32.2255   -0.7344 H   0  0  0  0  0  0  0  0  0  0  0  0
   -4.3244   29.4193    0.7043 N   0  0  0  0  0  0  0  0  0  0  0  0
   -3.5868   29.3943    1.8291 C   0  0  0  0  0  0  0  0  0  0  0  0
   -3.3360   28.1242    2.2164 N   0  0  0  0  0  0  0  0  0  0  0  0
   -3.9133   27.3114    1.3177 C   0  0  0  0  0  0  0  0  0  0  0  0
   -4.0521   25.8566    1.1249 C   0  0  0  0  0  0  0  0  0  0  0  0
   -3.5359   25.0475    1.9305 O   0  0  0  0  0  0  0  0  0  0  0  0
   -4.7521   25.4385    0.0547 N   0  0  0  0  0  0  0  0  0  0  0  0
   -5.3145   26.2896   -0.8255 C   0  0  0  0  0  0  0  0  0  0  0  0
   -5.9999   25.7943   -1.8770 N   0  0  0  0  0  0  0  0  0  0  0  0
   -5.2296   27.6302   -0.7071 N   0  0  0  0  0  0  0  0  0  0  0  0
   -4.5652   28.1786    0.3228 C   0  0  0  0  0  0  0  0  0  0  0  0
   -4.8578   24.4706   -0.0913 H   0  0  0  0  0  0  0  0  0  0  0  0
   -6.0829   24.8206   -1.9959 H   0  0  0  0  0  0  0  0  0  0  0  0
   -6.4169   26.4067   -2.5253 H   0  0  0  0  0  0  0  0  0  0  0  0
   -7.0211   30.1042   -2.6066 C   0  0  0  0  0  0  0  0  0  0  0  0
   -6.2663   30.0413   -3.8262 O   0  0  0  0  0  0  0  0  0  0  0  0
   -7.0220   29.8214   -5.2272 P   0  0  0  0  0  0  0  0  0  0  0  0
   -7.2815   31.1777   -5.8501 O   0  0  0  0  0  0  0  0  0  0  0  0
   -8.2453   28.9603   -5.0609 O   0  0  0  0  0  0  0  0  0  0  0  0
   -8.6792   28.8455   -5.9208 H   0  0  0  0  0  0  0  0  0  0  0  0
   -5.8722   29.0248   -6.0152 O   0  0  0  0  0  0  0  0  0  0  0  0
   -5.5114   27.4500   -5.9478 P   0  0  0  0  0  0  0  0  0  0  0  0
   -4.3427   27.1644   -6.8348 O   0  0  0  0  0  0  0  0  0  0  0  0
   -6.7461   26.7246   -6.4169 O   0  0  0  0  0  0  0  0  0  0  0  0
   -5.1412   27.0885   -4.5254 O   0  0  0  0  0  0  0  0  0  0  0  0
   -6.5863   25.7681   -6.3972 H   0  0  0  0  0  0  0  0  0  0  0  0
   -4.9234   26.1444   -4.4779 H   0  0  0  0  0  0  0  0  0  0  0  0
 31 32  2  0  0  0
 31 33  1  0  0  0
 31 34  1  0  0  0
 31 30  1  0  0  0
 30 26  1  0  0  0
 26 27  2  0  0  0
 26 28  1  0  0  0
 26 25  1  0  0  0
 25 24  1  0  0  0
 24  1  1  0  0  0
  1  2  1  0  0  0
  1  3  1  0  0  0
  2  7  1  0  0  0
  3  4  1  0  0  0
  3  5  1  0  0  0
  5  6  1  0  0  0
  5  7  1  0  0  0
  7 10  1  0  0  0
 10 11  1  0  0  0
 10 20  1  0  0  0
 11 12  2  0  0  0
 12 13  1  0  0  0
 13 14  1  0  0  0
 13 20  2  0  0  0
 14 15  2  0  0  0
 14 16  1  0  0  0
 16 17  1  0  0  0
 17 18  1  0  0  0
 17 19  2  0  0  0
 19 20  1  0  0  0
 33 35  1  0  0  0
 34 36  1  0  0  0
 28 29  1  0  0  0
  4  8  1  0  0  0
  6  9  1  0  0  0
 16 21  1  0  0  0
 18 22  1  0  0  0
 18 23  1  0  0  0
M  END
> <minimizedAffinity>
-7.78190

$$$$
