4EU0_C2E_A_501
  RCSB PDB12061712263D
Coordinates from PDB:4EU0:A:501 Model:1 without hydrogens
 46 52  0  0  0  0            999 V2000
   17.2080    3.3670   13.6760   P 0  0  0  0  0  0  0  0  0  0  0  0
   18.5850    2.7980   13.9410   O 0  0  0  0  0  0  0  0  0  0  0  0
   16.7930    4.6390   14.3690   O 0  0  0  0  0  0  0  0  0  0  0  0
   16.1080    2.2500   13.9770   O 0  0  0  0  0  0  0  0  0  0  0  0
   16.2350    0.9100   13.5050   C 0  0  0  0  0  0  0  0  0  0  0  0
   14.9400    0.1330   13.7180   C 0  0  0  0  0  0  0  0  0  0  0  0
   14.7250   -0.0990   15.1200   O 0  0  0  0  0  0  0  0  0  0  0  0
   13.6760    0.8240   13.2180   C 0  0  0  0  0  0  0  0  0  0  0  0
   13.3520    0.5600   11.8480   O 0  0  0  0  0  0  0  0  0  0  0  0
   12.6190    0.2410   14.1200   C 0  0  0  0  0  0  0  0  0  0  0  0
   12.2920   -1.0720   13.6540   O 0  0  0  0  0  0  0  0  0  0  0  0
   13.3490    0.0990   15.4380   C 0  0  0  0  0  0  0  0  0  0  0  0
   13.1940    1.3330   16.2600   N 0  0  0  0  0  0  0  0  0  0  0  0
   14.1610    2.2180   16.5600   C 0  0  0  0  0  0  0  0  0  0  0  0
   13.6800    3.2230   17.3380   N 0  0  0  0  0  0  0  0  0  0  0  0
   12.3780    2.9550   17.5440   C 0  0  0  0  0  0  0  0  0  0  0  0
   11.2690    3.6010   18.2620   C 0  0  0  0  0  0  0  0  0  0  0  0
   11.4860    4.7490   18.9390   O 0  0  0  0  0  0  0  0  0  0  0  0
   10.0500    3.0160   18.2310   N 0  0  0  0  0  0  0  0  0  0  0  0
    9.8000    1.8680   17.5440   C 0  0  0  0  0  0  0  0  0  0  0  0
    8.5440    1.3710   17.5670   N 0  0  0  0  0  0  0  0  0  0  0  0
   10.7810    1.2200   16.8550   N 0  0  0  0  0  0  0  0  0  0  0  0
   12.0530    1.7120   16.8240   C 0  0  0  0  0  0  0  0  0  0  0  0
   12.4960    1.6370   11.0100   P 0  0  0  0  0  0  0  0  0  0  0  0
   12.1790    1.0560    9.6410   O 0  0  0  0  0  0  0  0  0  0  0  0
   11.3610    2.2150   11.8300   O 0  0  0  0  0  0  0  0  0  0  0  0
   13.5790    2.7950   10.7690   O 0  0  0  0  0  0  0  0  0  0  0  0
   14.8060    2.5130   10.0980   C 0  0  0  0  0  0  0  0  0  0  0  0
   15.6720    3.7560   10.1340   C 0  0  0  0  0  0  0  0  0  0  0  0
   14.9740    4.8680    9.5720   O 0  0  0  0  0  0  0  0  0  0  0  0
   15.9760    4.1940   11.5520   C 0  0  0  0  0  0  0  0  0  0  0  0
   17.1110    3.5440   12.0840   O 0  0  0  0  0  0  0  0  0  0  0  0
   16.1970    5.6790   11.4310   C 0  0  0  0  0  0  0  0  0  0  0  0
   17.5200    5.9490   10.9460   O 0  0  0  0  0  0  0  0  0  0  0  0
   15.1830    6.0390   10.3670   C 0  0  0  0  0  0  0  0  0  0  0  0
   13.9130    6.4780   11.0080   N 0  0  0  0  0  0  0  0  0  0  0  0
   12.7590    5.7890   11.0850   C 0  0  0  0  0  0  0  0  0  0  0  0
   11.7990    6.5020   11.7290   N 0  0  0  0  0  0  0  0  0  0  0  0
   12.3480    7.6810   12.0800   C 0  0  0  0  0  0  0  0  0  0  0  0
   11.9040    8.9110   12.7810   C 0  0  0  0  0  0  0  0  0  0  0  0
   10.6390    9.0340   13.2590   O 0  0  0  0  0  0  0  0  0  0  0  0
   12.7970    9.9140   12.9380   N 0  0  0  0  0  0  0  0  0  0  0  0
   14.0700    9.8260   12.4750   C 0  0  0  0  0  0  0  0  0  0  0  0
   14.9110   10.8730   12.6670   N 0  0  0  0  0  0  0  0  0  0  0  0
   14.5370    8.7310   11.8200   N 0  0  0  0  0  0  0  0  0  0  0  0
   13.7380    7.6560   11.6010   C 0  0  0  0  0  0  0  0  0  0  0  0
  1  2  1  0  0  0  0
  3  1  2  0  0  0  0
  4  1  1  0  0  0  0
  5  4  1  0  0  0  0
  6  7  1  0  0  0  0
  6  5  1  0  0  0  0
  8  6  1  0  0  0  0
  9 24  1  0  0  0  0
  9  8  1  0  0  0  0
 10  8  1  0  0  0  0
 10 12  1  0  0  0  0
 11 10  1  0  0  0  0
 12  7  1  0  0  0  0
 12 13  1  0  0  0  0
 13 23  1  0  0  0  0
 13 14  1  0  0  0  0
 14 15  2  0  0  0  0
 16 15  1  0  0  0  0
 16 17  1  0  0  0  0
 17 18  2  0  0  0  0
 19 17  1  0  0  0  0
 20 19  1  0  0  0  0
 21 20  1  0  0  0  0
 22 20  2  0  0  0  0
 22 23  1  0  0  0  0
 23 16  2  0  0  0  0
 24 25  1  0  0  0  0
 24 27  1  0  0  0  0
 26 24  2  0  0  0  0
 28 27  1  0  0  0  0
 28 29  1  0  0  0  0
 29 30  1  0  0  0  0
 29 31  1  0  0  0  0
 30 35  1  0  0  0  0
 31 33  1  0  0  0  0
 32 31  1  0  0  0  0
 32  1  1  0  0  0  0
 33 34  1  0  0  0  0
 35 33  1  0  0  0  0
 35 36  1  0  0  0  0
 36 46  1  0  0  0  0
 37 38  2  0  0  0  0
 37 36  1  0  0  0  0
 38 39  1  0  0  0  0
 39 46  2  0  0  0  0
 39 40  1  0  0  0  0
 40 41  2  0  0  0  0
 40 42  1  0  0  0  0
 43 42  1  0  0  0  0
 43 44  1  0  0  0  0
 45 43  2  0  0  0  0
 46 45  1  0  0  0  0
A    1
P1
A    2
O2P
A    3
O1P
A    4
O5'
A    5
C5'
A    6
C4'
A    7
O4'
A    8
C3'
A    9
O3'
A   10
C2'
A   11
O2'
A   12
C1'
A   13
N9
A   14
C8
A   15
N7
A   16
C5
A   17
C6
A   18
O6
A   19
N1
A   20
C2
A   21
N2
A   22
N3
A   23
C4
A   24
P11
A   25
O21
A   26
O11
A   27
O5A
A   28
C5A
A   29
C4A
A   30
O4A
A   31
C3A
A   32
O3A
A   33
C2A
A   34
O2A
A   35
C1A
A   36
N91
A   37
C81
A   38
N71
A   39
C51
A   40
C61
A   41
O61
A   42
N11
A   43
C21
A   44
N21
A   45
N31
A   46
C41
M  END
>  <InstanceId>
4EU0_C2E_A_501

>  <ChemCompId>
C2E

>  <PdbId>
4EU0

>  <ChainId>
A

>  <ResidueNumber>
501

>  <InsertionCode>


>  <Model>
1

>  <AltIds>


>  <MissingHeavyAtoms>
0

>  <ObservedFormula>
C20 N10 O14 P2

>  <Name>
9,9'-[(2R,3R,3aS,5S,7aR,9R,10R,10aS,12S,14aR)-3,5,10,12-tetrahydroxy-5,12-dioxidooctahydro-2H,7H-difuro[3,2-d:3',2'-j][1,3,7,9,2,8]tetraoxadiphosphacyclododecine-2,9-diyl]bis(2-amino-1,9-dihydro-6H-purin-6-one)

>  <SystematicName>


>  <Synonyms>
c-di-GMP, Cyclic diguanosine monophosphate

>  <Type>
NON-POLYMER

>  <Formula>
C20 H24 N10 O14 P2

>  <MolecularWeight>
690.411

>  <ModifiedDate>
2011-06-04

>  <Parent>


>  <OneLetterCode>


>  <SubcomponentList>


>  <AmbiguousFlag>
N

>  <InChI>
InChI=1S/C20H24N10O14P2/c21-19-25-13-7(15(33)27-19)23-3-29(13)17-9(31)11-5(41-17)1-39-45(35,36)44-12-6(2-40-46(37,38)43-11)42-18(10(12)32)30-4-24-8-14(30)26-20(22)28-16(8)34/h3-6,9-12,17-18,31-32H,1-2H2,(H,35,36)(H,37,38)(H3,21,25,27,33)(H3,22,26,28,34)/t5-,6-,9-,10-,11-,12-,17-,18-/m1/s1

>  <InChIKey>
PKFDLKSEZWEFGL-MHARETSRSA-N

>  <SMILES>
c1nc2c(n1[C@H]3[C@@H]([C@H]4[C@H](O3)CO[P@@](=O)(O[C@@H]5[C@@H](CO[P@@](=O)(O4)O)O[C@H]([C@@H]5O)n6cnc7c6N=C(NC7=O)N)O)O)N=C(NC2=O)N

$$$$
