4EU0_C2E_A_501


 56 62  0  0  0  0  0  0  0  0999 V2000
    8.1328    4.0156   14.1850 P   0  0  0  0  0  0  0  0  0  0  0  0
    6.6515    4.2242   13.9563 O   0  0  0  0  0  0  0  0  0  0  0  0
    8.8521    4.8873   15.1815 O   0  0  0  0  0  0  0  0  0  0  0  0
    8.9013    4.1103   12.7890 O   0  0  0  0  0  0  0  0  0  0  0  0
    8.4391    3.4387   11.6186 C   0  0  0  0  0  0  0  0  0  0  0  0
    9.4853    3.4945   10.5103 C   0  0  0  0  0  0  0  0  0  0  0  0
    9.6111    4.8372   10.0133 O   0  0  0  0  0  0  0  0  0  0  0  0
   10.8927    3.0757   10.9214 C   0  0  0  0  0  0  0  0  0  0  0  0
   11.1586    1.6734   10.8015 O   0  0  0  0  0  0  0  0  0  0  0  0
   11.7486    3.8482    9.9512 C   0  0  0  0  0  0  0  0  0  0  0  0
   11.7318    3.1751    8.6884 O   0  0  0  0  0  0  0  0  0  0  0  0
   10.9864    5.1465    9.7970 C   0  0  0  0  0  0  0  0  0  0  0  0
   12.2771    0.9916   11.7390 P   0  0  0  0  0  0  0  0  0  0  0  0
   12.4542   -0.4589   11.3185 O   0  0  0  0  0  0  0  0  0  0  0  0
   13.5102    1.8620   11.8682 O   0  0  0  0  0  0  0  0  0  0  0  0
   11.5347    0.9621   13.1602 O   0  0  0  0  0  0  0  0  0  0  0  0
   10.2871    0.2873   13.3134 C   0  0  0  0  0  0  0  0  0  0  0  0
    9.7719    0.5389   14.7162 C   0  0  0  0  0  0  0  0  0  0  0  0
   10.7427    0.1391   15.6844 O   0  0  0  0  0  0  0  0  0  0  0  0
    9.5697    2.0152   14.9893 C   0  0  0  0  0  0  0  0  0  0  0  0
    8.2970    2.4686   14.5789 O   0  0  0  0  0  0  0  0  0  0  0  0
    9.7426    2.1328   16.4809 C   0  0  0  0  0  0  0  0  0  0  0  0
    8.5422    1.7302   17.1559 O   0  0  0  0  0  0  0  0  0  0  0  0
   10.8316    1.1120   16.7297 C   0  0  0  0  0  0  0  0  0  0  0  0
    6.4890    5.1491   13.7130 H   0  0  0  0  0  0  0  0  0  0  0  0
   10.8145    3.0651    8.3928 H   0  0  0  0  0  0  0  0  0  0  0  0
   11.5871   -0.8918   11.2775 H   0  0  0  0  0  0  0  0  0  0  0  0
    8.3000    0.8332   16.8774 H   0  0  0  0  0  0  0  0  0  0  0  0
   11.4427    6.1464   10.8042 N   0  0  0  0  0  0  0  0  0  0  0  0
   12.6269    6.1530   11.4414 C   0  0  0  0  0  0  0  0  0  0  0  0
   12.7131    7.2008   12.3024 N   0  0  0  0  0  0  0  0  0  0  0  0
   11.5456    7.8631   12.2140 C   0  0  0  0  0  0  0  0  0  0  0  0
   10.9646    9.0636   12.8336 C   0  0  0  0  0  0  0  0  0  0  0  0
   11.6737    9.7556   13.7510 O   0  0  0  0  0  0  0  0  0  0  0  0
    9.7180    9.4410   12.4693 N   0  0  0  0  0  0  0  0  0  0  0  0
    8.9876    8.7713   11.5363 C   0  0  0  0  0  0  0  0  0  0  0  0
    7.7560    9.2375   11.2347 N   0  0  0  0  0  0  0  0  0  0  0  0
    9.4671    7.6538   10.9213 N   0  0  0  0  0  0  0  0  0  0  0  0
   10.7092    7.1736   11.2170 C   0  0  0  0  0  0  0  0  0  0  0  0
    9.3219   10.2342   12.8974 H   0  0  0  0  0  0  0  0  0  0  0  0
    7.4124   10.0450   11.6809 H   0  0  0  0  0  0  0  0  0  0  0  0
    7.2020    8.7695   10.5689 H   0  0  0  0  0  0  0  0  0  0  0  0
   12.1618    1.7805   16.7197 N   0  0  0  0  0  0  0  0  0  0  0  0
   12.4900    2.9498   17.3005 C   0  0  0  0  0  0  0  0  0  0  0  0
   13.7918    3.2657   17.0760 N   0  0  0  0  0  0  0  0  0  0  0  0
   14.3191    2.2730   16.3336 C   0  0  0  0  0  0  0  0  0  0  0  0
   15.6393    1.9605   15.7329 C   0  0  0  0  0  0  0  0  0  0  0  0
   16.6999    2.7947   15.8849 O   0  0  0  0  0  0  0  0  0  0  0  0
   15.7644    0.8137   15.0277 N   0  0  0  0  0  0  0  0  0  0  0  0
   14.7271   -0.0449   14.8561 C   0  0  0  0  0  0  0  0  0  0  0  0
   14.9254   -1.1764   14.1344 N   0  0  0  0  0  0  0  0  0  0  0  0
   13.4924    0.1854   15.3744 N   0  0  0  0  0  0  0  0  0  0  0  0
   13.2395    1.3015   16.1039 C   0  0  0  0  0  0  0  0  0  0  0  0
   16.6359    0.5943   14.6257 H   0  0  0  0  0  0  0  0  0  0  0  0
   15.8113   -1.3653   13.7488 H   0  0  0  0  0  0  0  0  0  0  0  0
   14.1835   -1.8086   13.9964 H   0  0  0  0  0  0  0  0  0  0  0  0
  1  2  1  0  0  0
  3  1  2  0  0  0
  4  1  1  0  0  0
  5  4  1  0  0  0
  6  7  1  0  0  0
  6  5  1  0  0  0
  8  6  1  0  0  0
  9 13  1  0  0  0
  9  8  1  0  0  0
 10  8  1  0  0  0
 10 12  1  0  0  0
 11 10  1  0  0  0
 12  7  1  0  0  0
 12 29  1  0  0  0
 29 39  1  0  0  0
 29 30  1  0  0  0
 30 31  2  0  0  0
 32 31  1  0  0  0
 32 33  1  0  0  0
 33 34  2  0  0  0
 35 33  1  0  0  0
 36 35  1  0  0  0
 37 36  1  0  0  0
 38 36  2  0  0  0
 38 39  1  0  0  0
 39 32  2  0  0  0
 13 14  1  0  0  0
 13 16  1  0  0  0
 15 13  2  0  0  0
 17 16  1  0  0  0
 17 18  1  0  0  0
 18 19  1  0  0  0
 18 20  1  0  0  0
 19 24  1  0  0  0
 20 22  1  0  0  0
 21 20  1  0  0  0
 21  1  1  0  0  0
 22 23  1  0  0  0
 24 22  1  0  0  0
 24 43  1  0  0  0
 43 53  1  0  0  0
 44 45  2  0  0  0
 44 43  1  0  0  0
 45 46  1  0  0  0
 46 53  2  0  0  0
 46 47  1  0  0  0
 47 48  2  0  0  0
 47 49  1  0  0  0
 50 49  1  0  0  0
 50 51  1  0  0  0
 52 50  2  0  0  0
 53 52  1  0  0  0
  2 25  1  0  0  0
 11 26  1  0  0  0
 35 40  1  0  0  0
 37 41  1  0  0  0
 37 42  1  0  0  0
 14 27  1  0  0  0
 23 28  1  0  0  0
 49 54  1  0  0  0
 51 55  1  0  0  0
 51 56  1  0  0  0
M  END
> <minimizedAffinity>
-9.74610

$$$$
4EU0_C2E_A_501


 56 62  0  0  0  0  0  0  0  0999 V2000
   16.4878    3.3604   12.3496 P   0  0  0  0  0  0  0  0  0  0  0  0
   17.8763    2.7617   12.2900 O   0  0  0  0  0  0  0  0  0  0  0  0
   16.2516    4.5851   13.1952 O   0  0  0  0  0  0  0  0  0  0  0  0
   15.4461    2.2355   12.7942 O   0  0  0  0  0  0  0  0  0  0  0  0
   15.4436    0.9304   12.2188 C   0  0  0  0  0  0  0  0  0  0  0  0
   14.2010    0.1525   12.6397 C   0  0  0  0  0  0  0  0  0  0  0  0
   14.2696   -0.1743   14.0376 O   0  0  0  0  0  0  0  0  0  0  0  0
   12.8783    0.8882   12.4548 C   0  0  0  0  0  0  0  0  0  0  0  0
   12.2770    0.7229   11.1653 O   0  0  0  0  0  0  0  0  0  0  0  0
   12.0130    0.2538   13.5129 C   0  0  0  0  0  0  0  0  0  0  0  0
   11.5678   -1.0206   13.0377 O   0  0  0  0  0  0  0  0  0  0  0  0
   12.9917    0.0139   14.6419 C   0  0  0  0  0  0  0  0  0  0  0  0
   11.2941    1.8634   10.5925 P   0  0  0  0  0  0  0  0  0  0  0  0
   10.6925    1.3818    9.2816 O   0  0  0  0  0  0  0  0  0  0  0  0
   10.3627    2.3936   11.6631 O   0  0  0  0  0  0  0  0  0  0  0  0
   12.3322    3.0252   10.2127 O   0  0  0  0  0  0  0  0  0  0  0  0
   13.3907    2.7791    9.2884 C   0  0  0  0  0  0  0  0  0  0  0  0
   14.2746    4.0085    9.2290 C   0  0  0  0  0  0  0  0  0  0  0  0
   13.5031    5.1633    8.8959 O   0  0  0  0  0  0  0  0  0  0  0  0
   14.8701    4.3442   10.5810 C   0  0  0  0  0  0  0  0  0  0  0  0
   16.0740    3.6484   10.8261 O   0  0  0  0  0  0  0  0  0  0  0  0
   15.0963    5.8319   10.5158 C   0  0  0  0  0  0  0  0  0  0  0  0
   16.2993    6.1227    9.7901 O   0  0  0  0  0  0  0  0  0  0  0  0
   13.8962    6.2743    9.7072 C   0  0  0  0  0  0  0  0  0  0  0  0
   18.1824    2.5648   13.1892 H   0  0  0  0  0  0  0  0  0  0  0  0
   12.3355   -1.5598   12.7909 H   0  0  0  0  0  0  0  0  0  0  0  0
   11.4006    1.0724    8.6953 H   0  0  0  0  0  0  0  0  0  0  0  0
   16.2543    5.7128    8.9121 H   0  0  0  0  0  0  0  0  0  0  0  0
   13.0353    1.1893   15.5580 N   0  0  0  0  0  0  0  0  0  0  0  0
   14.0958    1.9844   15.7851 C   0  0  0  0  0  0  0  0  0  0  0  0
   13.7945    2.9563   16.6857 N   0  0  0  0  0  0  0  0  0  0  0  0
   12.5133    2.7584   17.0448 C   0  0  0  0  0  0  0  0  0  0  0  0
   11.5565    3.4185   17.9457 C   0  0  0  0  0  0  0  0  0  0  0  0
   11.9431    4.4952   18.6630 O   0  0  0  0  0  0  0  0  0  0  0  0
   10.3036    2.9179   18.0382 N   0  0  0  0  0  0  0  0  0  0  0  0
    9.8830    1.8441   17.3153 C   0  0  0  0  0  0  0  0  0  0  0  0
    8.6069    1.4292   17.4721 N   0  0  0  0  0  0  0  0  0  0  0  0
   10.7168    1.1881   16.4600 N   0  0  0  0  0  0  0  0  0  0  0  0
   12.0073    1.5975   16.2929 C   0  0  0  0  0  0  0  0  0  0  0  0
    9.6684    3.3486   18.6549 H   0  0  0  0  0  0  0  0  0  0  0  0
    8.0071    1.9053   18.0907 H   0  0  0  0  0  0  0  0  0  0  0  0
    8.2769    0.6509   16.9676 H   0  0  0  0  0  0  0  0  0  0  0  0
   12.7932    6.6795   10.6213 N   0  0  0  0  0  0  0  0  0  0  0  0
   12.8990    7.3869   11.7618 C   0  0  0  0  0  0  0  0  0  0  0  0
   11.6874    7.5614   12.3502 N   0  0  0  0  0  0  0  0  0  0  0  0
   10.7746    6.9537   11.5678 C   0  0  0  0  0  0  0  0  0  0  0  0
    9.3061    6.7426   11.5885 C   0  0  0  0  0  0  0  0  0  0  0  0
    8.5361    7.2335   12.5934 O   0  0  0  0  0  0  0  0  0  0  0  0
    8.7466    6.0474   10.5727 N   0  0  0  0  0  0  0  0  0  0  0  0
    9.4843    5.5432    9.5508 C   0  0  0  0  0  0  0  0  0  0  0  0
    8.8551    4.8541    8.5661 N   0  0  0  0  0  0  0  0  0  0  0  0
   10.8323    5.6960    9.4757 N   0  0  0  0  0  0  0  0  0  0  0  0
   11.5115    6.3762   10.4339 C   0  0  0  0  0  0  0  0  0  0  0  0
    7.7729    5.9022   10.5743 H   0  0  0  0  0  0  0  0  0  0  0  0
    7.8790    4.7302    8.5985 H   0  0  0  0  0  0  0  0  0  0  0  0
    9.3746    4.4780    7.8193 H   0  0  0  0  0  0  0  0  0  0  0  0
  1  2  1  0  0  0
  3  1  2  0  0  0
  4  1  1  0  0  0
  5  4  1  0  0  0
  6  7  1  0  0  0
  6  5  1  0  0  0
  8  6  1  0  0  0
  9 13  1  0  0  0
  9  8  1  0  0  0
 10  8  1  0  0  0
 10 12  1  0  0  0
 11 10  1  0  0  0
 12  7  1  0  0  0
 12 29  1  0  0  0
 29 39  1  0  0  0
 29 30  1  0  0  0
 30 31  2  0  0  0
 32 31  1  0  0  0
 32 33  1  0  0  0
 33 34  2  0  0  0
 35 33  1  0  0  0
 36 35  1  0  0  0
 37 36  1  0  0  0
 38 36  2  0  0  0
 38 39  1  0  0  0
 39 32  2  0  0  0
 13 14  1  0  0  0
 13 16  1  0  0  0
 15 13  2  0  0  0
 17 16  1  0  0  0
 17 18  1  0  0  0
 18 19  1  0  0  0
 18 20  1  0  0  0
 19 24  1  0  0  0
 20 22  1  0  0  0
 21 20  1  0  0  0
 21  1  1  0  0  0
 22 23  1  0  0  0
 24 22  1  0  0  0
 24 43  1  0  0  0
 43 53  1  0  0  0
 44 45  2  0  0  0
 44 43  1  0  0  0
 45 46  1  0  0  0
 46 53  2  0  0  0
 46 47  1  0  0  0
 47 48  2  0  0  0
 47 49  1  0  0  0
 50 49  1  0  0  0
 50 51  1  0  0  0
 52 50  2  0  0  0
 53 52  1  0  0  0
  2 25  1  0  0  0
 11 26  1  0  0  0
 35 40  1  0  0  0
 37 41  1  0  0  0
 37 42  1  0  0  0
 14 27  1  0  0  0
 23 28  1  0  0  0
 49 54  1  0  0  0
 51 55  1  0  0  0
 51 56  1  0  0  0
M  END
> <minimizedAffinity>
-9.39198

$$$$
4EU0_C2E_A_501


 56 62  0  0  0  0  0  0  0  0999 V2000
   12.1494    1.0711   11.6389 P   0  0  0  0  0  0  0  0  0  0  0  0
   12.2680   -0.3586   11.1572 O   0  0  0  0  0  0  0  0  0  0  0  0
   13.3873    1.9274   11.7097 O   0  0  0  0  0  0  0  0  0  0  0  0
   11.4445    1.0893   13.0710 O   0  0  0  0  0  0  0  0  0  0  0  0
   10.2703    0.3294   13.3510 C   0  0  0  0  0  0  0  0  0  0  0  0
    9.6748    0.7247   14.6983 C   0  0  0  0  0  0  0  0  0  0  0  0
   10.5325    0.2907   15.7668 O   0  0  0  0  0  0  0  0  0  0  0  0
    9.4806    2.2221   14.9106 C   0  0  0  0  0  0  0  0  0  0  0  0
    8.2236    2.7332   14.4521 O   0  0  0  0  0  0  0  0  0  0  0  0
    9.5713    2.3434   16.4099 C   0  0  0  0  0  0  0  0  0  0  0  0
    8.3263    1.9270   16.9796 O   0  0  0  0  0  0  0  0  0  0  0  0
   10.6154    1.3068   16.7641 C   0  0  0  0  0  0  0  0  0  0  0  0
    8.1038    4.2790   14.0149 P   0  0  0  0  0  0  0  0  0  0  0  0
    6.6485    4.5910   13.7034 O   0  0  0  0  0  0  0  0  0  0  0  0
    8.8512    5.1923   14.9646 O   0  0  0  0  0  0  0  0  0  0  0  0
    8.8761    4.2790   12.6093 O   0  0  0  0  0  0  0  0  0  0  0  0
    8.4458    3.4323   11.5448 C   0  0  0  0  0  0  0  0  0  0  0  0
    9.4348    3.5530   10.4030 C   0  0  0  0  0  0  0  0  0  0  0  0
    9.5756    4.9175   10.0057 O   0  0  0  0  0  0  0  0  0  0  0  0
   10.8337    3.1473   10.8197 C   0  0  0  0  0  0  0  0  0  0  0  0
   11.0514    1.7581   10.6915 O   0  0  0  0  0  0  0  0  0  0  0  0
   11.7270    3.9332    9.8960 C   0  0  0  0  0  0  0  0  0  0  0  0
   11.8044    3.2948    8.6135 O   0  0  0  0  0  0  0  0  0  0  0  0
   10.9528    5.2275    9.7729 C   0  0  0  0  0  0  0  0  0  0  0  0
   12.9232   -0.8283   11.6968 H   0  0  0  0  0  0  0  0  0  0  0  0
    8.1156    1.0302   16.6758 H   0  0  0  0  0  0  0  0  0  0  0  0
    6.3006    3.9282   13.0865 H   0  0  0  0  0  0  0  0  0  0  0  0
   10.9101    3.1761    8.2569 H   0  0  0  0  0  0  0  0  0  0  0  0
   11.9785    1.9104   16.7568 N   0  0  0  0  0  0  0  0  0  0  0  0
   12.3383    3.0743   17.3261 C   0  0  0  0  0  0  0  0  0  0  0  0
   13.6566    3.3322   17.1209 N   0  0  0  0  0  0  0  0  0  0  0  0
   14.1355    2.3089   16.3908 C   0  0  0  0  0  0  0  0  0  0  0  0
   15.4424    1.9340   15.8303 C   0  0  0  0  0  0  0  0  0  0  0  0
   16.5070    2.7452   16.0089 O   0  0  0  0  0  0  0  0  0  0  0  0
   15.5411    0.7775   15.1361 N   0  0  0  0  0  0  0  0  0  0  0  0
   14.4885   -0.0660   14.9545 C   0  0  0  0  0  0  0  0  0  0  0  0
   14.6950   -1.2031   14.2549 N   0  0  0  0  0  0  0  0  0  0  0  0
   13.2514    0.2189   15.4499 N   0  0  0  0  0  0  0  0  0  0  0  0
   13.0303    1.3637   16.1581 C   0  0  0  0  0  0  0  0  0  0  0  0
   16.4117    0.5353   14.7454 H   0  0  0  0  0  0  0  0  0  0  0  0
   15.5900   -1.4060   13.8984 H   0  0  0  0  0  0  0  0  0  0  0  0
   13.9506   -1.8288   14.1016 H   0  0  0  0  0  0  0  0  0  0  0  0
   11.4511    6.2109   10.7735 N   0  0  0  0  0  0  0  0  0  0  0  0
   12.6560    6.2223   11.3739 C   0  0  0  0  0  0  0  0  0  0  0  0
   12.7650    7.2588   12.2449 N   0  0  0  0  0  0  0  0  0  0  0  0
   11.6015    7.9364   12.2038 C   0  0  0  0  0  0  0  0  0  0  0  0
   11.0260    9.1320   12.8677 C   0  0  0  0  0  0  0  0  0  0  0  0
   11.7362    9.8436   13.7804 O   0  0  0  0  0  0  0  0  0  0  0  0
    9.7684    9.5025   12.5371 N   0  0  0  0  0  0  0  0  0  0  0  0
    9.0293    8.8166   11.6283 C   0  0  0  0  0  0  0  0  0  0  0  0
    7.7733    9.2455   11.3472 N   0  0  0  0  0  0  0  0  0  0  0  0
    9.4949    7.7112   10.9900 N   0  0  0  0  0  0  0  0  0  0  0  0
   10.7438    7.2393   11.2340 C   0  0  0  0  0  0  0  0  0  0  0  0
    9.3761   10.2952   12.9695 H   0  0  0  0  0  0  0  0  0  0  0  0
    7.4137   10.0440   11.7969 H   0  0  0  0  0  0  0  0  0  0  0  0
    7.2214    8.7581   10.6937 H   0  0  0  0  0  0  0  0  0  0  0  0
  1  2  1  0  0  0
  3  1  2  0  0  0
  4  1  1  0  0  0
  5  4  1  0  0  0
  6  7  1  0  0  0
  6  5  1  0  0  0
  8  6  1  0  0  0
  9 13  1  0  0  0
  9  8  1  0  0  0
 10  8  1  0  0  0
 10 12  1  0  0  0
 11 10  1  0  0  0
 12  7  1  0  0  0
 12 29  1  0  0  0
 29 39  1  0  0  0
 29 30  1  0  0  0
 30 31  2  0  0  0
 32 31  1  0  0  0
 32 33  1  0  0  0
 33 34  2  0  0  0
 35 33  1  0  0  0
 36 35  1  0  0  0
 37 36  1  0  0  0
 38 36  2  0  0  0
 38 39  1  0  0  0
 39 32  2  0  0  0
 13 14  1  0  0  0
 13 16  1  0  0  0
 15 13  2  0  0  0
 17 16  1  0  0  0
 17 18  1  0  0  0
 18 19  1  0  0  0
 18 20  1  0  0  0
 19 24  1  0  0  0
 20 22  1  0  0  0
 21 20  1  0  0  0
 21  1  1  0  0  0
 22 23  1  0  0  0
 24 22  1  0  0  0
 24 43  1  0  0  0
 43 53  1  0  0  0
 44 45  2  0  0  0
 44 43  1  0  0  0
 45 46  1  0  0  0
 46 53  2  0  0  0
 46 47  1  0  0  0
 47 48  2  0  0  0
 47 49  1  0  0  0
 50 49  1  0  0  0
 50 51  1  0  0  0
 52 50  2  0  0  0
 53 52  1  0  0  0
  2 25  1  0  0  0
 11 26  1  0  0  0
 35 40  1  0  0  0
 37 41  1  0  0  0
 37 42  1  0  0  0
 14 27  1  0  0  0
 23 28  1  0  0  0
 49 54  1  0  0  0
 51 55  1  0  0  0
 51 56  1  0  0  0
M  END
> <minimizedAffinity>
-9.31871

$$$$
4EU0_C2E_A_501


 56 62  0  0  0  0  0  0  0  0999 V2000
   11.0747    2.1749   10.4149 P   0  0  0  0  0  0  0  0  0  0  0  0
   10.4444    1.7141    9.1185 O   0  0  0  0  0  0  0  0  0  0  0  0
   10.1863    2.6492   11.5357 O   0  0  0  0  0  0  0  0  0  0  0  0
   12.1447    3.3182   10.1049 O   0  0  0  0  0  0  0  0  0  0  0  0
   13.1026    3.1997    9.0547 C   0  0  0  0  0  0  0  0  0  0  0  0
   14.1478    4.3068    9.1440 C   0  0  0  0  0  0  0  0  0  0  0  0
   13.5557    5.5759    8.8208 O   0  0  0  0  0  0  0  0  0  0  0  0
   14.7871    4.4900   10.5162 C   0  0  0  0  0  0  0  0  0  0  0  0
   15.9444    3.6792   10.7500 O   0  0  0  0  0  0  0  0  0  0  0  0
   15.1732    5.9464   10.4934 C   0  0  0  0  0  0  0  0  0  0  0  0
   16.3721    6.0908    9.7254 O   0  0  0  0  0  0  0  0  0  0  0  0
   14.0410    6.5776    9.7123 C   0  0  0  0  0  0  0  0  0  0  0  0
   16.3389    3.2694   12.2571 P   0  0  0  0  0  0  0  0  0  0  0  0
   17.6682    2.5314   12.2346 O   0  0  0  0  0  0  0  0  0  0  0  0
   16.1724    4.4288   13.2177 O   0  0  0  0  0  0  0  0  0  0  0  0
   15.2196    2.1727   12.5983 O   0  0  0  0  0  0  0  0  0  0  0  0
   15.0789    1.0041   11.7920 C   0  0  0  0  0  0  0  0  0  0  0  0
   13.8696    0.2285   12.2740 C   0  0  0  0  0  0  0  0  0  0  0  0
   13.9880   -0.0676   13.6661 O   0  0  0  0  0  0  0  0  0  0  0  0
   12.5979    1.0464   12.1811 C   0  0  0  0  0  0  0  0  0  0  0  0
   11.9903    0.9535   10.9099 O   0  0  0  0  0  0  0  0  0  0  0  0
   11.7173    0.4670   13.2570 C   0  0  0  0  0  0  0  0  0  0  0  0
   11.1022   -0.7458   12.7994 O   0  0  0  0  0  0  0  0  0  0  0  0
   12.7375    0.1462   14.3276 C   0  0  0  0  0  0  0  0  0  0  0  0
    9.8747    2.4168    8.7684 H   0  0  0  0  0  0  0  0  0  0  0  0
   16.2382    5.7120    8.8425 H   0  0  0  0  0  0  0  0  0  0  0  0
   17.6314    1.8189   11.5774 H   0  0  0  0  0  0  0  0  0  0  0  0
   11.7882   -1.3648   12.5044 H   0  0  0  0  0  0  0  0  0  0  0  0
   12.9474    7.0095   10.6288 N   0  0  0  0  0  0  0  0  0  0  0  0
   13.0953    7.6652   11.7935 C   0  0  0  0  0  0  0  0  0  0  0  0
   11.8920    7.8950   12.3817 N   0  0  0  0  0  0  0  0  0  0  0  0
   10.9632    7.3569   11.5710 C   0  0  0  0  0  0  0  0  0  0  0  0
    9.4968    7.2461   11.5747 C   0  0  0  0  0  0  0  0  0  0  0  0
    8.7876    7.7582   12.6034 O   0  0  0  0  0  0  0  0  0  0  0  0
    8.8925    6.6196   10.5396 N   0  0  0  0  0  0  0  0  0  0  0  0
    9.5815    6.1085    9.4829 C   0  0  0  0  0  0  0  0  0  0  0  0
    8.8819    5.5115    8.4933 N   0  0  0  0  0  0  0  0  0  0  0  0
   10.9406    6.1799    9.4147 N   0  0  0  0  0  0  0  0  0  0  0  0
   11.6581    6.7804   10.4075 C   0  0  0  0  0  0  0  0  0  0  0  0
    7.9122    6.5294   10.5509 H   0  0  0  0  0  0  0  0  0  0  0  0
    7.9001    5.4615    8.5456 H   0  0  0  0  0  0  0  0  0  0  0  0
    9.3539    5.1265    7.7199 H   0  0  0  0  0  0  0  0  0  0  0  0
   12.8334    1.2788   15.2890 N   0  0  0  0  0  0  0  0  0  0  0  0
   13.9080    2.0527   15.5312 C   0  0  0  0  0  0  0  0  0  0  0  0
   13.6429    2.9836   16.4841 N   0  0  0  0  0  0  0  0  0  0  0  0
   12.3627    2.8085   16.8651 C   0  0  0  0  0  0  0  0  0  0  0  0
   11.4300    3.4376   17.8325 C   0  0  0  0  0  0  0  0  0  0  0  0
   11.8176    4.4799   18.6117 O   0  0  0  0  0  0  0  0  0  0  0  0
   10.1728    2.9476   17.9183 N   0  0  0  0  0  0  0  0  0  0  0  0
    9.7496    1.9083   17.1545 C   0  0  0  0  0  0  0  0  0  0  0  0
    8.4743    1.4679   17.2957 N   0  0  0  0  0  0  0  0  0  0  0  0
   10.5549    1.2848   16.2551 N   0  0  0  0  0  0  0  0  0  0  0  0
   11.8391    1.6849   16.0742 C   0  0  0  0  0  0  0  0  0  0  0  0
    9.5440    3.3578   18.5552 H   0  0  0  0  0  0  0  0  0  0  0  0
    7.8717    1.9035   17.9409 H   0  0  0  0  0  0  0  0  0  0  0  0
    8.1513    0.7127   16.7529 H   0  0  0  0  0  0  0  0  0  0  0  0
  1  2  1  0  0  0
  3  1  2  0  0  0
  4  1  1  0  0  0
  5  4  1  0  0  0
  6  7  1  0  0  0
  6  5  1  0  0  0
  8  6  1  0  0  0
  9 13  1  0  0  0
  9  8  1  0  0  0
 10  8  1  0  0  0
 10 12  1  0  0  0
 11 10  1  0  0  0
 12  7  1  0  0  0
 12 29  1  0  0  0
 29 39  1  0  0  0
 29 30  1  0  0  0
 30 31  2  0  0  0
 32 31  1  0  0  0
 32 33  1  0  0  0
 33 34  2  0  0  0
 35 33  1  0  0  0
 36 35  1  0  0  0
 37 36  1  0  0  0
 38 36  2  0  0  0
 38 39  1  0  0  0
 39 32  2  0  0  0
 13 14  1  0  0  0
 13 16  1  0  0  0
 15 13  2  0  0  0
 17 16  1  0  0  0
 17 18  1  0  0  0
 18 19  1  0  0  0
 18 20  1  0  0  0
 19 24  1  0  0  0
 20 22  1  0  0  0
 21 20  1  0  0  0
 21  1  1  0  0  0
 22 23  1  0  0  0
 24 22  1  0  0  0
 24 43  1  0  0  0
 43 53  1  0  0  0
 44 45  2  0  0  0
 44 43  1  0  0  0
 45 46  1  0  0  0
 46 53  2  0  0  0
 46 47  1  0  0  0
 47 48  2  0  0  0
 47 49  1  0  0  0
 50 49  1  0  0  0
 50 51  1  0  0  0
 52 50  2  0  0  0
 53 52  1  0  0  0
  2 25  1  0  0  0
 11 26  1  0  0  0
 35 40  1  0  0  0
 37 41  1  0  0  0
 37 42  1  0  0  0
 14 27  1  0  0  0
 23 28  1  0  0  0
 49 54  1  0  0  0
 51 55  1  0  0  0
 51 56  1  0  0  0
M  END
> <minimizedAffinity>
-9.26095

$$$$
4EU0_C2E_A_501


 56 62  0  0  0  0  0  0  0  0999 V2000
   15.4722    3.9799   10.9947 P   0  0  0  0  0  0  0  0  0  0  0  0
   16.8634    4.2615   10.4700 O   0  0  0  0  0  0  0  0  0  0  0  0
   14.7724    5.0283   11.8202 O   0  0  0  0  0  0  0  0  0  0  0  0
   15.4863    2.6158   11.8237 O   0  0  0  0  0  0  0  0  0  0  0  0
   16.1257    1.4367   11.3383 C   0  0  0  0  0  0  0  0  0  0  0  0
   15.7723    0.2309   12.2027 C   0  0  0  0  0  0  0  0  0  0  0  0
   16.3853    0.3512   13.4971 O   0  0  0  0  0  0  0  0  0  0  0  0
   14.2840    0.0350   12.4702 C   0  0  0  0  0  0  0  0  0  0  0  0
   13.5969   -0.7458   11.4854 O   0  0  0  0  0  0  0  0  0  0  0  0
   14.2930   -0.6914   13.7905 C   0  0  0  0  0  0  0  0  0  0  0  0
   14.6071   -2.0675   13.5546 O   0  0  0  0  0  0  0  0  0  0  0  0
   15.4676   -0.0619   14.5075 C   0  0  0  0  0  0  0  0  0  0  0  0
   12.0179   -0.5261   11.2542 P   0  0  0  0  0  0  0  0  0  0  0  0
   11.5168   -1.5636   10.2619 O   0  0  0  0  0  0  0  0  0  0  0  0
   11.2748   -0.3608   12.5638 O   0  0  0  0  0  0  0  0  0  0  0  0
   11.9956    0.8812   10.4855 O   0  0  0  0  0  0  0  0  0  0  0  0
   12.7003    1.0481    9.2563 C   0  0  0  0  0  0  0  0  0  0  0  0
   12.6043    2.5017    8.8390 C   0  0  0  0  0  0  0  0  0  0  0  0
   11.2380    2.9089    8.7561 O   0  0  0  0  0  0  0  0  0  0  0  0
   13.2000    3.4299    9.8776 C   0  0  0  0  0  0  0  0  0  0  0  0
   14.5905    3.6062    9.7069 O   0  0  0  0  0  0  0  0  0  0  0  0
   12.4516    4.7217    9.6780 C   0  0  0  0  0  0  0  0  0  0  0  0
   12.9912    5.4440    8.5619 O   0  0  0  0  0  0  0  0  0  0  0  0
   11.0711    4.2084    9.3309 C   0  0  0  0  0  0  0  0  0  0  0  0
   17.4466    4.4951   11.2091 H   0  0  0  0  0  0  0  0  0  0  0  0
   15.4468   -2.1295   13.0730 H   0  0  0  0  0  0  0  0  0  0  0  0
   12.0842   -1.5592    9.4752 H   0  0  0  0  0  0  0  0  0  0  0  0
   12.9776    4.8787    7.7738 H   0  0  0  0  0  0  0  0  0  0  0  0
   15.0264    1.1202   15.3016 N   0  0  0  0  0  0  0  0  0  0  0  0
   15.7468    2.2282   15.5497 C   0  0  0  0  0  0  0  0  0  0  0  0
   15.0465    3.1056   16.3154 N   0  0  0  0  0  0  0  0  0  0  0  0
   13.8583    2.5273   16.5669 C   0  0  0  0  0  0  0  0  0  0  0  0
   12.6390    2.8984   17.3006 C   0  0  0  0  0  0  0  0  0  0  0  0
   12.5761    4.0855   17.9409 O   0  0  0  0  0  0  0  0  0  0  0  0
   11.6054    2.0264   17.3210 N   0  0  0  0  0  0  0  0  0  0  0  0
   11.6362    0.8306   16.6716 C   0  0  0  0  0  0  0  0  0  0  0  0
   10.5459    0.0363   16.7448 N   0  0  0  0  0  0  0  0  0  0  0  0
   12.7328    0.4266   15.9708 N   0  0  0  0  0  0  0  0  0  0  0  0
   13.8396    1.2198   15.8893 C   0  0  0  0  0  0  0  0  0  0  0  0
   10.7960    2.2669   17.8272 H   0  0  0  0  0  0  0  0  0  0  0  0
    9.7552    0.3311   17.2519 H   0  0  0  0  0  0  0  0  0  0  0  0
   10.5420   -0.8374   16.2910 H   0  0  0  0  0  0  0  0  0  0  0  0
   10.2340    4.1407   10.5602 N   0  0  0  0  0  0  0  0  0  0  0  0
    9.8540    3.0345   11.2269 C   0  0  0  0  0  0  0  0  0  0  0  0
    9.0799    3.3443   12.2989 N   0  0  0  0  0  0  0  0  0  0  0  0
    8.9591    4.6857   12.3275 C   0  0  0  0  0  0  0  0  0  0  0  0
    8.2791    5.6891   13.1832 C   0  0  0  0  0  0  0  0  0  0  0  0
    7.5487    5.3158   14.2653 O   0  0  0  0  0  0  0  0  0  0  0  0
    8.4079    6.9957   12.8603 N   0  0  0  0  0  0  0  0  0  0  0  0
    9.1310    7.4062   11.7873 C   0  0  0  0  0  0  0  0  0  0  0  0
    9.2149    8.7341   11.5228 N   0  0  0  0  0  0  0  0  0  0  0  0
    9.7722    6.5387   10.9611 N   0  0  0  0  0  0  0  0  0  0  0  0
    9.7209    5.2003   11.1798 C   0  0  0  0  0  0  0  0  0  0  0  0
    7.9629    7.6712   13.4215 H   0  0  0  0  0  0  0  0  0  0  0  0
    8.7589    9.3822   12.1070 H   0  0  0  0  0  0  0  0  0  0  0  0
    9.7317    9.0497   10.7465 H   0  0  0  0  0  0  0  0  0  0  0  0
  1  2  1  0  0  0
  3  1  2  0  0  0
  4  1  1  0  0  0
  5  4  1  0  0  0
  6  7  1  0  0  0
  6  5  1  0  0  0
  8  6  1  0  0  0
  9 13  1  0  0  0
  9  8  1  0  0  0
 10  8  1  0  0  0
 10 12  1  0  0  0
 11 10  1  0  0  0
 12  7  1  0  0  0
 12 29  1  0  0  0
 29 39  1  0  0  0
 29 30  1  0  0  0
 30 31  2  0  0  0
 32 31  1  0  0  0
 32 33  1  0  0  0
 33 34  2  0  0  0
 35 33  1  0  0  0
 36 35  1  0  0  0
 37 36  1  0  0  0
 38 36  2  0  0  0
 38 39  1  0  0  0
 39 32  2  0  0  0
 13 14  1  0  0  0
 13 16  1  0  0  0
 15 13  2  0  0  0
 17 16  1  0  0  0
 17 18  1  0  0  0
 18 19  1  0  0  0
 18 20  1  0  0  0
 19 24  1  0  0  0
 20 22  1  0  0  0
 21 20  1  0  0  0
 21  1  1  0  0  0
 22 23  1  0  0  0
 24 22  1  0  0  0
 24 43  1  0  0  0
 43 53  1  0  0  0
 44 45  2  0  0  0
 44 43  1  0  0  0
 45 46  1  0  0  0
 46 53  2  0  0  0
 46 47  1  0  0  0
 47 48  2  0  0  0
 47 49  1  0  0  0
 50 49  1  0  0  0
 50 51  1  0  0  0
 52 50  2  0  0  0
 53 52  1  0  0  0
  2 25  1  0  0  0
 11 26  1  0  0  0
 35 40  1  0  0  0
 37 41  1  0  0  0
 37 42  1  0  0  0
 14 27  1  0  0  0
 23 28  1  0  0  0
 49 54  1  0  0  0
 51 55  1  0  0  0
 51 56  1  0  0  0
M  END
> <minimizedAffinity>
-9.03955

$$$$
4EU0_C2E_A_501


 56 62  0  0  0  0  0  0  0  0999 V2000
   11.8552   -0.7212   11.4621 P   0  0  0  0  0  0  0  0  0  0  0  0
   11.3491   -1.8228   10.5563 O   0  0  0  0  0  0  0  0  0  0  0  0
   11.2244   -0.5373   12.8181 O   0  0  0  0  0  0  0  0  0  0  0  0
   11.7908    0.6722   10.6858 O   0  0  0  0  0  0  0  0  0  0  0  0
   12.2601    0.8200    9.3470 C   0  0  0  0  0  0  0  0  0  0  0  0
   12.3112    2.2911    8.9476 C   0  0  0  0  0  0  0  0  0  0  0  0
   10.9800    2.8179    8.8216 O   0  0  0  0  0  0  0  0  0  0  0  0
   13.0242    3.2095    9.9342 C   0  0  0  0  0  0  0  0  0  0  0  0
   14.4361    3.3303    9.7260 O   0  0  0  0  0  0  0  0  0  0  0  0
   12.3497    4.5326    9.6786 C   0  0  0  0  0  0  0  0  0  0  0  0
   12.8978    5.1038    8.4864 O   0  0  0  0  0  0  0  0  0  0  0  0
   10.9216    4.1261    9.3864 C   0  0  0  0  0  0  0  0  0  0  0  0
   15.3958    3.6971   10.9667 P   0  0  0  0  0  0  0  0  0  0  0  0
   16.8125    3.8957   10.4512 O   0  0  0  0  0  0  0  0  0  0  0  0
   14.7908    4.7701   11.8484 O   0  0  0  0  0  0  0  0  0  0  0  0
   15.4036    2.3201   11.7887 O   0  0  0  0  0  0  0  0  0  0  0  0
   15.8385    1.1093   11.1722 C   0  0  0  0  0  0  0  0  0  0  0  0
   15.6130   -0.0334   12.1417 C   0  0  0  0  0  0  0  0  0  0  0  0
   16.2713    0.2263   13.3822 O   0  0  0  0  0  0  0  0  0  0  0  0
   14.1538   -0.1725   12.5243 C   0  0  0  0  0  0  0  0  0  0  0  0
   13.4328   -0.9738   11.6123 O   0  0  0  0  0  0  0  0  0  0  0  0
   14.1983   -0.7987   13.8934 C   0  0  0  0  0  0  0  0  0  0  0  0
   14.4203   -2.2123   13.7889 O   0  0  0  0  0  0  0  0  0  0  0  0
   15.4255   -0.1341   14.4784 C   0  0  0  0  0  0  0  0  0  0  0  0
   10.3930   -1.7219   10.4275 H   0  0  0  0  0  0  0  0  0  0  0  0
   12.8052    4.4743    7.7542 H   0  0  0  0  0  0  0  0  0  0  0  0
   17.0670    3.1361    9.9042 H   0  0  0  0  0  0  0  0  0  0  0  0
   15.2277   -2.3758   13.2768 H   0  0  0  0  0  0  0  0  0  0  0  0
   10.1162    4.0983   10.6406 N   0  0  0  0  0  0  0  0  0  0  0  0
    9.7506    3.0027   11.3294 C   0  0  0  0  0  0  0  0  0  0  0  0
    9.0117    3.3349   12.4204 N   0  0  0  0  0  0  0  0  0  0  0  0
    8.8980    4.6752   12.4094 C   0  0  0  0  0  0  0  0  0  0  0  0
    8.2625    5.6869   13.2670 C   0  0  0  0  0  0  0  0  0  0  0  0
    7.5751    5.3013   14.3633 O   0  0  0  0  0  0  0  0  0  0  0  0
    8.3785    6.9903   12.9251 N   0  0  0  0  0  0  0  0  0  0  0  0
    9.0783    7.4075   11.8349 C   0  0  0  0  0  0  0  0  0  0  0  0
    9.1433    8.7339   11.5873 N   0  0  0  0  0  0  0  0  0  0  0  0
    9.6940    6.5235   11.0003 N   0  0  0  0  0  0  0  0  0  0  0  0
    9.6358    5.1818   11.2397 C   0  0  0  0  0  0  0  0  0  0  0  0
    7.9378    7.6663   13.4891 H   0  0  0  0  0  0  0  0  0  0  0  0
    8.6975    9.3700   12.1922 H   0  0  0  0  0  0  0  0  0  0  0  0
    9.6365    9.0646   10.8020 H   0  0  0  0  0  0  0  0  0  0  0  0
   15.0247    1.0701   15.2567 N   0  0  0  0  0  0  0  0  0  0  0  0
   15.7568    2.1781   15.4773 C   0  0  0  0  0  0  0  0  0  0  0  0
   15.0814    3.0730   16.2440 N   0  0  0  0  0  0  0  0  0  0  0  0
   13.8805    2.5304   16.5233 C   0  0  0  0  0  0  0  0  0  0  0  0
   12.6710    2.9238   17.2874 C   0  0  0  0  0  0  0  0  0  0  0  0
   12.5982    4.1186   17.9285 O   0  0  0  0  0  0  0  0  0  0  0  0
   11.6321    2.0594   17.3276 N   0  0  0  0  0  0  0  0  0  0  0  0
   11.6685    0.8574   16.6979 C   0  0  0  0  0  0  0  0  0  0  0  0
   10.5892    0.0400   16.7831 N   0  0  0  0  0  0  0  0  0  0  0  0
   12.7471    0.4351   15.9876 N   0  0  0  0  0  0  0  0  0  0  0  0
   13.8529    1.2132   15.8704 C   0  0  0  0  0  0  0  0  0  0  0  0
   10.8233    2.3098   17.8299 H   0  0  0  0  0  0  0  0  0  0  0  0
    9.7957    0.3239   17.2921 H   0  0  0  0  0  0  0  0  0  0  0  0
   10.5994   -0.8370   16.3360 H   0  0  0  0  0  0  0  0  0  0  0  0
  1  2  1  0  0  0
  3  1  2  0  0  0
  4  1  1  0  0  0
  5  4  1  0  0  0
  6  7  1  0  0  0
  6  5  1  0  0  0
  8  6  1  0  0  0
  9 13  1  0  0  0
  9  8  1  0  0  0
 10  8  1  0  0  0
 10 12  1  0  0  0
 11 10  1  0  0  0
 12  7  1  0  0  0
 12 29  1  0  0  0
 29 39  1  0  0  0
 29 30  1  0  0  0
 30 31  2  0  0  0
 32 31  1  0  0  0
 32 33  1  0  0  0
 33 34  2  0  0  0
 35 33  1  0  0  0
 36 35  1  0  0  0
 37 36  1  0  0  0
 38 36  2  0  0  0
 38 39  1  0  0  0
 39 32  2  0  0  0
 13 14  1  0  0  0
 13 16  1  0  0  0
 15 13  2  0  0  0
 17 16  1  0  0  0
 17 18  1  0  0  0
 18 19  1  0  0  0
 18 20  1  0  0  0
 19 24  1  0  0  0
 20 22  1  0  0  0
 21 20  1  0  0  0
 21  1  1  0  0  0
 22 23  1  0  0  0
 24 22  1  0  0  0
 24 43  1  0  0  0
 43 53  1  0  0  0
 44 45  2  0  0  0
 44 43  1  0  0  0
 45 46  1  0  0  0
 46 53  2  0  0  0
 46 47  1  0  0  0
 47 48  2  0  0  0
 47 49  1  0  0  0
 50 49  1  0  0  0
 50 51  1  0  0  0
 52 50  2  0  0  0
 53 52  1  0  0  0
  2 25  1  0  0  0
 11 26  1  0  0  0
 35 40  1  0  0  0
 37 41  1  0  0  0
 37 42  1  0  0  0
 14 27  1  0  0  0
 23 28  1  0  0  0
 49 54  1  0  0  0
 51 55  1  0  0  0
 51 56  1  0  0  0
M  END
> <minimizedAffinity>
-9.01962

$$$$
4EU0_C2E_A_501


 56 62  0  0  0  0  0  0  0  0999 V2000
   12.8129    1.5475   10.7397 P   0  0  0  0  0  0  0  0  0  0  0  0
   12.5358    0.8988    9.4008 O   0  0  0  0  0  0  0  0  0  0  0  0
   11.6587    2.0684   11.5564 O   0  0  0  0  0  0  0  0  0  0  0  0
   13.8646    2.7326   10.5449 O   0  0  0  0  0  0  0  0  0  0  0  0
   15.0507    2.5775    9.7678 C   0  0  0  0  0  0  0  0  0  0  0  0
   15.9847    3.7682    9.9571 C   0  0  0  0  0  0  0  0  0  0  0  0
   15.4214    4.9427    9.3496 O   0  0  0  0  0  0  0  0  0  0  0  0
   16.2669    4.1510   11.4059 C   0  0  0  0  0  0  0  0  0  0  0  0
   17.3756    3.4663   12.0004 O   0  0  0  0  0  0  0  0  0  0  0  0
   16.5704    5.6225   11.2909 C   0  0  0  0  0  0  0  0  0  0  0  0
   17.9089    5.7782   10.8090 O   0  0  0  0  0  0  0  0  0  0  0  0
   15.6263    6.0715   10.1967 C   0  0  0  0  0  0  0  0  0  0  0  0
   17.4193    3.2566   13.5970 P   0  0  0  0  0  0  0  0  0  0  0  0
   18.7522    2.6299   13.9748 O   0  0  0  0  0  0  0  0  0  0  0  0
   16.9674    4.4968   14.3403 O   0  0  0  0  0  0  0  0  0  0  0  0
   16.3099    2.1172   13.8046 O   0  0  0  0  0  0  0  0  0  0  0  0
   16.4274    0.8601   13.1404 C   0  0  0  0  0  0  0  0  0  0  0  0
   15.1803    0.0470   13.4229 C   0  0  0  0  0  0  0  0  0  0  0  0
   14.9778   -0.0849   14.8305 O   0  0  0  0  0  0  0  0  0  0  0  0
   13.9266    0.7449   12.9371 C   0  0  0  0  0  0  0  0  0  0  0  0
   13.6463    0.4651   11.5817 O   0  0  0  0  0  0  0  0  0  0  0  0
   12.8459    0.2175   13.8440 C   0  0  0  0  0  0  0  0  0  0  0  0
   12.4225   -1.0835   13.4121 O   0  0  0  0  0  0  0  0  0  0  0  0
   13.5960    0.0986   15.1529 C   0  0  0  0  0  0  0  0  0  0  0  0
   12.0303    1.5109    8.8434 H   0  0  0  0  0  0  0  0  0  0  0  0
   18.0100    5.2957    9.9736 H   0  0  0  0  0  0  0  0  0  0  0  0
   18.9109    1.8493   13.4213 H   0  0  0  0  0  0  0  0  0  0  0  0
   13.1906   -1.6739   13.3634 H   0  0  0  0  0  0  0  0  0  0  0  0
   14.3242    6.5115   10.7741 N   0  0  0  0  0  0  0  0  0  0  0  0
   13.1558    5.8498   10.7024 C   0  0  0  0  0  0  0  0  0  0  0  0
   12.1645    6.5385   11.3266 N   0  0  0  0  0  0  0  0  0  0  0  0
   12.7224    7.6708   11.7917 C   0  0  0  0  0  0  0  0  0  0  0  0
   12.2573    8.8405   12.5521 C   0  0  0  0  0  0  0  0  0  0  0  0
   10.9618    8.9286   12.9224 O   0  0  0  0  0  0  0  0  0  0  0  0
   13.1489    9.8112   12.8557 N   0  0  0  0  0  0  0  0  0  0  0  0
   14.4630    9.7405   12.5087 C   0  0  0  0  0  0  0  0  0  0  0  0
   15.2743   10.7584   12.8703 N   0  0  0  0  0  0  0  0  0  0  0  0
   14.9605    8.6836   11.8070 N   0  0  0  0  0  0  0  0  0  0  0  0
   14.1515    7.6496   11.4363 C   0  0  0  0  0  0  0  0  0  0  0  0
   12.8337   10.6028   13.3489 H   0  0  0  0  0  0  0  0  0  0  0  0
   14.9118   11.5205   13.3772 H   0  0  0  0  0  0  0  0  0  0  0  0
   16.2281   10.7380   12.6269 H   0  0  0  0  0  0  0  0  0  0  0  0
   13.3998    1.3334   15.9611 N   0  0  0  0  0  0  0  0  0  0  0  0
   14.3205    2.2719   16.2509 C   0  0  0  0  0  0  0  0  0  0  0  0
   13.7963    3.2568   17.0254 N   0  0  0  0  0  0  0  0  0  0  0  0
   12.5025    2.9483   17.2389 C   0  0  0  0  0  0  0  0  0  0  0  0
   11.3586    3.5447   17.9717 C   0  0  0  0  0  0  0  0  0  0  0  0
   11.4881    4.7111   18.6547 O   0  0  0  0  0  0  0  0  0  0  0  0
   10.1724    2.8965   17.9402 N   0  0  0  0  0  0  0  0  0  0  0  0
   10.0052    1.7298   17.2669 C   0  0  0  0  0  0  0  0  0  0  0  0
    8.7864    1.1341   17.2806 N   0  0  0  0  0  0  0  0  0  0  0  0
   11.0129    1.1287   16.5817 N   0  0  0  0  0  0  0  0  0  0  0  0
   12.2515    1.6816   16.5356 C   0  0  0  0  0  0  0  0  0  0  0  0
    9.4053    3.2832   18.4211 H   0  0  0  0  0  0  0  0  0  0  0  0
    8.0405    1.5504   17.7701 H   0  0  0  0  0  0  0  0  0  0  0  0
    8.6478    0.2855   16.8011 H   0  0  0  0  0  0  0  0  0  0  0  0
  1  2  1  0  0  0
  3  1  2  0  0  0
  4  1  1  0  0  0
  5  4  1  0  0  0
  6  7  1  0  0  0
  6  5  1  0  0  0
  8  6  1  0  0  0
  9 13  1  0  0  0
  9  8  1  0  0  0
 10  8  1  0  0  0
 10 12  1  0  0  0
 11 10  1  0  0  0
 12  7  1  0  0  0
 12 29  1  0  0  0
 29 39  1  0  0  0
 29 30  1  0  0  0
 30 31  2  0  0  0
 32 31  1  0  0  0
 32 33  1  0  0  0
 33 34  2  0  0  0
 35 33  1  0  0  0
 36 35  1  0  0  0
 37 36  1  0  0  0
 38 36  2  0  0  0
 38 39  1  0  0  0
 39 32  2  0  0  0
 13 14  1  0  0  0
 13 16  1  0  0  0
 15 13  2  0  0  0
 17 16  1  0  0  0
 17 18  1  0  0  0
 18 19  1  0  0  0
 18 20  1  0  0  0
 19 24  1  0  0  0
 20 22  1  0  0  0
 21 20  1  0  0  0
 21  1  1  0  0  0
 22 23  1  0  0  0
 24 22  1  0  0  0
 24 43  1  0  0  0
 43 53  1  0  0  0
 44 45  2  0  0  0
 44 43  1  0  0  0
 45 46  1  0  0  0
 46 53  2  0  0  0
 46 47  1  0  0  0
 47 48  2  0  0  0
 47 49  1  0  0  0
 50 49  1  0  0  0
 50 51  1  0  0  0
 52 50  2  0  0  0
 53 52  1  0  0  0
  2 25  1  0  0  0
 11 26  1  0  0  0
 35 40  1  0  0  0
 37 41  1  0  0  0
 37 42  1  0  0  0
 14 27  1  0  0  0
 23 28  1  0  0  0
 49 54  1  0  0  0
 51 55  1  0  0  0
 51 56  1  0  0  0
M  END
> <minimizedAffinity>
-8.98283

$$$$
4EU0_C2E_A_501


 56 62  0  0  0  0  0  0  0  0999 V2000
   11.9300    1.2858   11.5768 P   0  0  0  0  0  0  0  0  0  0  0  0
   12.0760   -0.1247   11.0481 O   0  0  0  0  0  0  0  0  0  0  0  0
   13.1413    2.1805   11.6267 O   0  0  0  0  0  0  0  0  0  0  0  0
   11.2806    1.2390   13.0343 O   0  0  0  0  0  0  0  0  0  0  0  0
   10.1432    0.4325   13.3353 C   0  0  0  0  0  0  0  0  0  0  0  0
    9.5877    0.7685   14.7154 C   0  0  0  0  0  0  0  0  0  0  0  0
   10.4996    0.3328   15.7373 O   0  0  0  0  0  0  0  0  0  0  0  0
    9.3537    2.2519   14.9799 C   0  0  0  0  0  0  0  0  0  0  0  0
    8.0640    2.7338   14.5847 O   0  0  0  0  0  0  0  0  0  0  0  0
    9.4982    2.3328   16.4776 C   0  0  0  0  0  0  0  0  0  0  0  0
    8.2902    1.8587   17.0810 O   0  0  0  0  0  0  0  0  0  0  0  0
   10.5881    1.3218   16.7609 C   0  0  0  0  0  0  0  0  0  0  0  0
    7.8776    4.2867   14.1991 P   0  0  0  0  0  0  0  0  0  0  0  0
    6.4021    4.5588   13.9522 O   0  0  0  0  0  0  0  0  0  0  0  0
    8.6313    5.1966   15.1471 O   0  0  0  0  0  0  0  0  0  0  0  0
    8.5947    4.3531   12.7661 O   0  0  0  0  0  0  0  0  0  0  0  0
    8.1512    3.5237   11.6934 C   0  0  0  0  0  0  0  0  0  0  0  0
    9.0910    3.7103   10.5194 C   0  0  0  0  0  0  0  0  0  0  0  0
    9.1722    5.0896   10.1584 O   0  0  0  0  0  0  0  0  0  0  0  0
   10.5172    3.3397   10.8707 C   0  0  0  0  0  0  0  0  0  0  0  0
   10.7746    1.9628   10.6926 O   0  0  0  0  0  0  0  0  0  0  0  0
   11.3484    4.1813    9.9382 C   0  0  0  0  0  0  0  0  0  0  0  0
   11.3967    3.5832    8.6350 O   0  0  0  0  0  0  0  0  0  0  0  0
   10.5287    5.4521    9.8834 C   0  0  0  0  0  0  0  0  0  0  0  0
   12.7663   -0.5876   11.5482 H   0  0  0  0  0  0  0  0  0  0  0  0
    8.0970    0.9645   16.7585 H   0  0  0  0  0  0  0  0  0  0  0  0
    6.0522    3.9029   13.3291 H   0  0  0  0  0  0  0  0  0  0  0  0
   10.4937    3.4451    8.3089 H   0  0  0  0  0  0  0  0  0  0  0  0
   11.9297    1.9705   16.7205 N   0  0  0  0  0  0  0  0  0  0  0  0
   12.2528    3.1674   17.2416 C   0  0  0  0  0  0  0  0  0  0  0  0
   13.5604    3.4616   17.0172 N   0  0  0  0  0  0  0  0  0  0  0  0
   14.0697    2.4274   16.3241 C   0  0  0  0  0  0  0  0  0  0  0  0
   15.3854    2.0754   15.7693 C   0  0  0  0  0  0  0  0  0  0  0  0
   16.4226    2.9287   15.9087 O   0  0  0  0  0  0  0  0  0  0  0  0
   15.5196    0.8967   15.1199 N   0  0  0  0  0  0  0  0  0  0  0  0
   14.4954    0.0116   14.9787 C   0  0  0  0  0  0  0  0  0  0  0  0
   14.7366   -1.1443   14.3223 N   0  0  0  0  0  0  0  0  0  0  0  0
   13.2521    0.2734   15.4713 N   0  0  0  0  0  0  0  0  0  0  0  0
   12.9962    1.4368   16.1361 C   0  0  0  0  0  0  0  0  0  0  0  0
   16.3957    0.6692   14.7327 H   0  0  0  0  0  0  0  0  0  0  0  0
   15.6359   -1.3305   13.9676 H   0  0  0  0  0  0  0  0  0  0  0  0
   14.0131   -1.8005   14.1987 H   0  0  0  0  0  0  0  0  0  0  0  0
   11.0332    6.4222   10.8938 N   0  0  0  0  0  0  0  0  0  0  0  0
   10.3788    6.8866   11.9748 C   0  0  0  0  0  0  0  0  0  0  0  0
   11.1382    7.7723   12.6702 N   0  0  0  0  0  0  0  0  0  0  0  0
   12.3149    7.8805   12.0235 C   0  0  0  0  0  0  0  0  0  0  0  0
   13.5767    8.6408   12.2007 C   0  0  0  0  0  0  0  0  0  0  0  0
   13.7479    9.4917   13.2449 O   0  0  0  0  0  0  0  0  0  0  0  0
   14.5625    8.4622   11.2928 N   0  0  0  0  0  0  0  0  0  0  0  0
   14.4277    7.6190   10.2375 C   0  0  0  0  0  0  0  0  0  0  0  0
   15.4586    7.4913    9.3649 N   0  0  0  0  0  0  0  0  0  0  0  0
   13.2971    6.8992   10.0150 N   0  0  0  0  0  0  0  0  0  0  0  0
   12.2360    6.9895   10.8564 C   0  0  0  0  0  0  0  0  0  0  0  0
   15.4052    8.9596   11.4005 H   0  0  0  0  0  0  0  0  0  0  0  0
   16.2882    8.0025    9.5049 H   0  0  0  0  0  0  0  0  0  0  0  0
   15.3771    6.8874    8.5917 H   0  0  0  0  0  0  0  0  0  0  0  0
  1  2  1  0  0  0
  3  1  2  0  0  0
  4  1  1  0  0  0
  5  4  1  0  0  0
  6  7  1  0  0  0
  6  5  1  0  0  0
  8  6  1  0  0  0
  9 13  1  0  0  0
  9  8  1  0  0  0
 10  8  1  0  0  0
 10 12  1  0  0  0
 11 10  1  0  0  0
 12  7  1  0  0  0
 12 29  1  0  0  0
 29 39  1  0  0  0
 29 30  1  0  0  0
 30 31  2  0  0  0
 32 31  1  0  0  0
 32 33  1  0  0  0
 33 34  2  0  0  0
 35 33  1  0  0  0
 36 35  1  0  0  0
 37 36  1  0  0  0
 38 36  2  0  0  0
 38 39  1  0  0  0
 39 32  2  0  0  0
 13 14  1  0  0  0
 13 16  1  0  0  0
 15 13  2  0  0  0
 17 16  1  0  0  0
 17 18  1  0  0  0
 18 19  1  0  0  0
 18 20  1  0  0  0
 19 24  1  0  0  0
 20 22  1  0  0  0
 21 20  1  0  0  0
 21  1  1  0  0  0
 22 23  1  0  0  0
 24 22  1  0  0  0
 24 43  1  0  0  0
 43 53  1  0  0  0
 44 45  2  0  0  0
 44 43  1  0  0  0
 45 46  1  0  0  0
 46 53  2  0  0  0
 46 47  1  0  0  0
 47 48  2  0  0  0
 47 49  1  0  0  0
 50 49  1  0  0  0
 50 51  1  0  0  0
 52 50  2  0  0  0
 53 52  1  0  0  0
  2 25  1  0  0  0
 11 26  1  0  0  0
 35 40  1  0  0  0
 37 41  1  0  0  0
 37 42  1  0  0  0
 14 27  1  0  0  0
 23 28  1  0  0  0
 49 54  1  0  0  0
 51 55  1  0  0  0
 51 56  1  0  0  0
M  END
> <minimizedAffinity>
-8.92309

$$$$
4EU0_C2E_A_501


 56 62  0  0  0  0  0  0  0  0999 V2000
   14.7990    1.4678   10.6157 P   0  0  0  0  0  0  0  0  0  0  0  0
   14.8670    0.9672    9.1893 O   0  0  0  0  0  0  0  0  0  0  0  0
   13.7145    2.4400   11.0021 O   0  0  0  0  0  0  0  0  0  0  0  0
   16.2074    2.1005   11.0213 O   0  0  0  0  0  0  0  0  0  0  0  0
   17.4442    1.4480   10.7398 C   0  0  0  0  0  0  0  0  0  0  0  0
   18.6003    2.1428   11.4516 C   0  0  0  0  0  0  0  0  0  0  0  0
   18.8414    3.4326   10.8651 O   0  0  0  0  0  0  0  0  0  0  0  0
   18.3879    2.4020   12.9392 C   0  0  0  0  0  0  0  0  0  0  0  0
   18.7926    1.3287   13.7971 O   0  0  0  0  0  0  0  0  0  0  0  0
   19.2578    3.6092   13.1773 C   0  0  0  0  0  0  0  0  0  0  0  0
   20.6202    3.1812   13.2709 O   0  0  0  0  0  0  0  0  0  0  0  0
   19.1022    4.3893   11.8899 C   0  0  0  0  0  0  0  0  0  0  0  0
   18.0924    1.1526   15.2371 P   0  0  0  0  0  0  0  0  0  0  0  0
   18.7934    0.0339   15.9917 O   0  0  0  0  0  0  0  0  0  0  0  0
   17.8973    2.4830   15.9348 O   0  0  0  0  0  0  0  0  0  0  0  0
   16.6489    0.5858   14.8285 O   0  0  0  0  0  0  0  0  0  0  0  0
   16.5293   -0.6186   14.0732 C   0  0  0  0  0  0  0  0  0  0  0  0
   15.0683   -0.8300   13.7308 C   0  0  0  0  0  0  0  0  0  0  0  0
   14.2729   -0.8364   14.9169 O   0  0  0  0  0  0  0  0  0  0  0  0
   14.5047    0.3181   12.9189 C   0  0  0  0  0  0  0  0  0  0  0  0
   14.7203    0.1536   11.5332 O   0  0  0  0  0  0  0  0  0  0  0  0
   13.0361    0.3093   13.2535 C   0  0  0  0  0  0  0  0  0  0  0  0
   12.3579   -0.7041   12.4974 O   0  0  0  0  0  0  0  0  0  0  0  0
   13.0720   -0.0856   14.7138 C   0  0  0  0  0  0  0  0  0  0  0  0
   14.9165    1.7231    8.5833 H   0  0  0  0  0  0  0  0  0  0  0  0
   20.8584    2.6837   12.4730 H   0  0  0  0  0  0  0  0  0  0  0  0
   18.8477   -0.7527   15.4267 H   0  0  0  0  0  0  0  0  0  0  0  0
   12.7819   -1.5624   12.6539 H   0  0  0  0  0  0  0  0  0  0  0  0
   17.9624    5.3451   11.9893 N   0  0  0  0  0  0  0  0  0  0  0  0
   17.6287    6.0791   13.0655 C   0  0  0  0  0  0  0  0  0  0  0  0
   16.5287    6.8377   12.8182 N   0  0  0  0  0  0  0  0  0  0  0  0
   16.1525    6.5626   11.5563 C   0  0  0  0  0  0  0  0  0  0  0  0
   15.0836    7.0133   10.6524 C   0  0  0  0  0  0  0  0  0  0  0  0
   14.1765    7.9160   11.0832 O   0  0  0  0  0  0  0  0  0  0  0  0
   15.0331    6.4987    9.4027 N   0  0  0  0  0  0  0  0  0  0  0  0
   15.9431    5.5997    8.9378 C   0  0  0  0  0  0  0  0  0  0  0  0
   15.8105    5.1554    7.6689 N   0  0  0  0  0  0  0  0  0  0  0  0
   16.9602    5.1429    9.7212 N   0  0  0  0  0  0  0  0  0  0  0  0
   17.1048    5.5842   11.0039 C   0  0  0  0  0  0  0  0  0  0  0  0
   14.3068    6.7866    8.8036 H   0  0  0  0  0  0  0  0  0  0  0  0
   15.0747    5.4874    7.1054 H   0  0  0  0  0  0  0  0  0  0  0  0
   16.4498    4.4996    7.3077 H   0  0  0  0  0  0  0  0  0  0  0  0
   13.0591    1.1344   15.5670 N   0  0  0  0  0  0  0  0  0  0  0  0
   14.0690    2.0031   15.7612 C   0  0  0  0  0  0  0  0  0  0  0  0
   13.7105    2.9957   16.6161 N   0  0  0  0  0  0  0  0  0  0  0  0
   12.4347    2.7640   16.9813 C   0  0  0  0  0  0  0  0  0  0  0  0
   11.4313    3.4098   17.8631 C   0  0  0  0  0  0  0  0  0  0  0  0
   11.7211    4.5445   18.5503 O   0  0  0  0  0  0  0  0  0  0  0  0
   10.2095    2.8398   17.9645 N   0  0  0  0  0  0  0  0  0  0  0  0
    9.8835    1.7068   17.2915 C   0  0  0  0  0  0  0  0  0  0  0  0
    8.6384    1.1899   17.4429 N   0  0  0  0  0  0  0  0  0  0  0  0
   10.7575    1.0636   16.4738 N   0  0  0  0  0  0  0  0  0  0  0  0
   12.0154    1.5376   16.2868 C   0  0  0  0  0  0  0  0  0  0  0  0
    9.5344    3.2599   18.5450 H   0  0  0  0  0  0  0  0  0  0  0  0
    7.9875    1.6380   18.0300 H   0  0  0  0  0  0  0  0  0  0  0  0
    8.3858    0.3667   16.9656 H   0  0  0  0  0  0  0  0  0  0  0  0
  1  2  1  0  0  0
  3  1  2  0  0  0
  4  1  1  0  0  0
  5  4  1  0  0  0
  6  7  1  0  0  0
  6  5  1  0  0  0
  8  6  1  0  0  0
  9 13  1  0  0  0
  9  8  1  0  0  0
 10  8  1  0  0  0
 10 12  1  0  0  0
 11 10  1  0  0  0
 12  7  1  0  0  0
 12 29  1  0  0  0
 29 39  1  0  0  0
 29 30  1  0  0  0
 30 31  2  0  0  0
 32 31  1  0  0  0
 32 33  1  0  0  0
 33 34  2  0  0  0
 35 33  1  0  0  0
 36 35  1  0  0  0
 37 36  1  0  0  0
 38 36  2  0  0  0
 38 39  1  0  0  0
 39 32  2  0  0  0
 13 14  1  0  0  0
 13 16  1  0  0  0
 15 13  2  0  0  0
 17 16  1  0  0  0
 17 18  1  0  0  0
 18 19  1  0  0  0
 18 20  1  0  0  0
 19 24  1  0  0  0
 20 22  1  0  0  0
 21 20  1  0  0  0
 21  1  1  0  0  0
 22 23  1  0  0  0
 24 22  1  0  0  0
 24 43  1  0  0  0
 43 53  1  0  0  0
 44 45  2  0  0  0
 44 43  1  0  0  0
 45 46  1  0  0  0
 46 53  2  0  0  0
 46 47  1  0  0  0
 47 48  2  0  0  0
 47 49  1  0  0  0
 50 49  1  0  0  0
 50 51  1  0  0  0
 52 50  2  0  0  0
 53 52  1  0  0  0
  2 25  1  0  0  0
 11 26  1  0  0  0
 35 40  1  0  0  0
 37 41  1  0  0  0
 37 42  1  0  0  0
 14 27  1  0  0  0
 23 28  1  0  0  0
 49 54  1  0  0  0
 51 55  1  0  0  0
 51 56  1  0  0  0
M  END
> <minimizedAffinity>
-8.89558

$$$$
4EU0_C2E_A_501


 56 62  0  0  0  0  0  0  0  0999 V2000
   14.2258    4.6805   10.3460 P   0  0  0  0  0  0  0  0  0  0  0  0
   14.7268    5.5241    9.1939 O   0  0  0  0  0  0  0  0  0  0  0  0
   14.4404    5.1628   11.7573 O   0  0  0  0  0  0  0  0  0  0  0  0
   14.8274    3.2071   10.2226 O   0  0  0  0  0  0  0  0  0  0  0  0
   14.8304    2.4868    8.9914 C   0  0  0  0  0  0  0  0  0  0  0  0
   15.2279    1.0312    9.2135 C   0  0  0  0  0  0  0  0  0  0  0  0
   16.6165    0.9452    9.5743 O   0  0  0  0  0  0  0  0  0  0  0  0
   14.4703    0.3112   10.3238 C   0  0  0  0  0  0  0  0  0  0  0  0
   13.2507   -0.3141    9.9075 O   0  0  0  0  0  0  0  0  0  0  0  0
   15.4644   -0.7346   10.7583 C   0  0  0  0  0  0  0  0  0  0  0  0
   15.4432   -1.8084    9.8124 O   0  0  0  0  0  0  0  0  0  0  0  0
   16.7876   -0.0142   10.6154 C   0  0  0  0  0  0  0  0  0  0  0  0
   12.0658   -0.5388   10.9754 P   0  0  0  0  0  0  0  0  0  0  0  0
   10.9521   -1.3357   10.3145 O   0  0  0  0  0  0  0  0  0  0  0  0
   12.5960   -1.0111   12.3136 O   0  0  0  0  0  0  0  0  0  0  0  0
   11.5064    0.9531   11.1575 O   0  0  0  0  0  0  0  0  0  0  0  0
   11.0233    1.6891   10.0350 C   0  0  0  0  0  0  0  0  0  0  0  0
   10.6870    3.0953   10.4889 C   0  0  0  0  0  0  0  0  0  0  0  0
    9.7580    3.0618   11.5731 O   0  0  0  0  0  0  0  0  0  0  0  0
   11.8935    3.8091   11.0631 C   0  0  0  0  0  0  0  0  0  0  0  0
   12.6618    4.4521   10.0682 O   0  0  0  0  0  0  0  0  0  0  0  0
   11.2996    4.8013   12.0284 C   0  0  0  0  0  0  0  0  0  0  0  0
   10.8142    5.9534   11.3246 O   0  0  0  0  0  0  0  0  0  0  0  0
   10.1309    4.0114   12.5762 C   0  0  0  0  0  0  0  0  0  0  0  0
   15.6746    5.6965    9.3075 H   0  0  0  0  0  0  0  0  0  0  0  0
   15.6122   -1.4594    8.9233 H   0  0  0  0  0  0  0  0  0  0  0  0
   10.7146   -0.9207    9.4705 H   0  0  0  0  0  0  0  0  0  0  0  0
   10.1846    5.6737   10.6418 H   0  0  0  0  0  0  0  0  0  0  0  0
   17.1483    0.6786   11.8852 N   0  0  0  0  0  0  0  0  0  0  0  0
   17.0037    1.9896   12.1473 C   0  0  0  0  0  0  0  0  0  0  0  0
   17.4426    2.2897   13.3978 N   0  0  0  0  0  0  0  0  0  0  0  0
   17.8881    1.1381   13.9314 C   0  0  0  0  0  0  0  0  0  0  0  0
   18.4724    0.7279   15.2172 C   0  0  0  0  0  0  0  0  0  0  0  0
   18.6815    1.6479   16.1833 O   0  0  0  0  0  0  0  0  0  0  0  0
   18.7958   -0.5731   15.3954 N   0  0  0  0  0  0  0  0  0  0  0  0
   18.5814   -1.5234   14.4449 C   0  0  0  0  0  0  0  0  0  0  0  0
   18.9295   -2.7980   14.7266 N   0  0  0  0  0  0  0  0  0  0  0  0
   18.0407   -1.2124   13.2333 N   0  0  0  0  0  0  0  0  0  0  0  0
   17.6849    0.0708   12.9370 C   0  0  0  0  0  0  0  0  0  0  0  0
   19.2037   -0.8445   16.2493 H   0  0  0  0  0  0  0  0  0  0  0  0
   19.3199   -3.0194   15.6028 H   0  0  0  0  0  0  0  0  0  0  0  0
   18.7927   -3.5054   14.0557 H   0  0  0  0  0  0  0  0  0  0  0  0
   10.5319    3.3235   13.8342 N   0  0  0  0  0  0  0  0  0  0  0  0
   11.7835    3.1012   14.2775 C   0  0  0  0  0  0  0  0  0  0  0  0
   11.7784    2.4309   15.4587 N   0  0  0  0  0  0  0  0  0  0  0  0
   10.4899    2.2175   15.7888 C   0  0  0  0  0  0  0  0  0  0  0  0
    9.7555    1.5664   16.9016 C   0  0  0  0  0  0  0  0  0  0  0  0
   10.4134    0.9900   17.9403 O   0  0  0  0  0  0  0  0  0  0  0  0
    8.4041    1.5636   16.8594 N   0  0  0  0  0  0  0  0  0  0  0  0
    7.7128    2.1311   15.8383 C   0  0  0  0  0  0  0  0  0  0  0  0
    6.3570    2.0888   15.8616 N   0  0  0  0  0  0  0  0  0  0  0  0
    8.3245    2.7372   14.7873 N   0  0  0  0  0  0  0  0  0  0  0  0
    9.6779    2.8075   14.7142 C   0  0  0  0  0  0  0  0  0  0  0  0
    7.9055    1.1363   17.5928 H   0  0  0  0  0  0  0  0  0  0  0  0
    5.8909    1.6552   16.6125 H   0  0  0  0  0  0  0  0  0  0  0  0
    5.8393    2.4918   15.1275 H   0  0  0  0  0  0  0  0  0  0  0  0
  1  2  1  0  0  0
  3  1  2  0  0  0
  4  1  1  0  0  0
  5  4  1  0  0  0
  6  7  1  0  0  0
  6  5  1  0  0  0
  8  6  1  0  0  0
  9 13  1  0  0  0
  9  8  1  0  0  0
 10  8  1  0  0  0
 10 12  1  0  0  0
 11 10  1  0  0  0
 12  7  1  0  0  0
 12 29  1  0  0  0
 29 39  1  0  0  0
 29 30  1  0  0  0
 30 31  2  0  0  0
 32 31  1  0  0  0
 32 33  1  0  0  0
 33 34  2  0  0  0
 35 33  1  0  0  0
 36 35  1  0  0  0
 37 36  1  0  0  0
 38 36  2  0  0  0
 38 39  1  0  0  0
 39 32  2  0  0  0
 13 14  1  0  0  0
 13 16  1  0  0  0
 15 13  2  0  0  0
 17 16  1  0  0  0
 17 18  1  0  0  0
 18 19  1  0  0  0
 18 20  1  0  0  0
 19 24  1  0  0  0
 20 22  1  0  0  0
 21 20  1  0  0  0
 21  1  1  0  0  0
 22 23  1  0  0  0
 24 22  1  0  0  0
 24 43  1  0  0  0
 43 53  1  0  0  0
 44 45  2  0  0  0
 44 43  1  0  0  0
 45 46  1  0  0  0
 46 53  2  0  0  0
 46 47  1  0  0  0
 47 48  2  0  0  0
 47 49  1  0  0  0
 50 49  1  0  0  0
 50 51  1  0  0  0
 52 50  2  0  0  0
 53 52  1  0  0  0
  2 25  1  0  0  0
 11 26  1  0  0  0
 35 40  1  0  0  0
 37 41  1  0  0  0
 37 42  1  0  0  0
 14 27  1  0  0  0
 23 28  1  0  0  0
 49 54  1  0  0  0
 51 55  1  0  0  0
 51 56  1  0  0  0
M  END
> <minimizedAffinity>
-8.79137

$$$$
