3K99_PFT_A_901
  RCSB PDB12061709243D
Coordinates from PDB:3K99:A:901 Model:1 without hydrogens
 19 21  0  0  0  0            999 V2000
   47.3610   72.4170   63.9750   N 0  0  0  0  0  0  0  0  0  0  0  0
   46.8840   72.3460   65.3310   C 0  0  0  0  0  0  0  0  0  0  0  0
   47.9460   73.7040   63.3900   C 0  0  0  0  0  0  0  0  0  0  0  0
   47.4000   71.2900   62.9030   C 0  0  0  0  0  0  0  0  0  0  0  0
   46.3460   70.9760   65.7460   C 0  0  0  0  0  0  0  0  0  0  0  0
   47.0030   73.3770   65.9400   O 0  0  0  0  0  0  0  0  0  0  0  0
   48.3410   73.2780   61.9270   C 0  0  0  0  0  0  0  0  0  0  0  0
   48.0030   71.8750   61.7010   C 0  0  0  0  0  0  0  0  0  0  0  0
   47.3290   70.2410   66.5330   C 0  0  0  0  0  0  0  0  0  0  0  0
   45.0550   70.4720   65.4110   C 0  0  0  0  0  0  0  0  0  0  0  0
   48.9480   73.9550   60.8150   C 0  0  0  0  0  0  0  0  0  0  0  0
   48.2190   71.1280   60.4850   C 0  0  0  0  0  0  0  0  0  0  0  0
   47.1570   68.9440   67.0730   C 0  0  0  0  0  0  0  0  0  0  0  0
   48.5810   70.7310   66.8530   O 0  0  0  0  0  0  0  0  0  0  0  0
   44.8000   69.1840   65.9070   C 0  0  0  0  0  0  0  0  0  0  0  0
   49.1890   73.2210   59.5520   C 0  0  0  0  0  0  0  0  0  0  0  0
   48.8130   71.8050   59.4170   C 0  0  0  0  0  0  0  0  0  0  0  0
   45.8350   68.4890   66.6970   C 0  0  0  0  0  0  0  0  0  0  0  0
   45.5210   67.2820   67.1210   O 0  0  0  0  0  0  0  0  0  0  0  0
  1  2  1  0  0  0  0
  1  3  1  0  0  0  0
  1  4  1  0  0  0  0
  2  5  1  0  0  0  0
  2  6  2  0  0  0  0
  3  7  1  0  0  0  0
  4  8  1  0  0  0  0
  5  9  2  0  0  0  0
  5 10  1  0  0  0  0
  7  8  2  0  0  0  0
  7 11  1  0  0  0  0
  8 12  1  0  0  0  0
  9 13  1  0  0  0  0
  9 14  1  0  0  0  0
 10 15  2  0  0  0  0
 11 16  2  0  0  0  0
 12 17  2  0  0  0  0
 13 18  2  0  0  0  0
 15 18  1  0  0  0  0
 16 17  1  0  0  0  0
 18 19  1  0  0  0  0
A    1
N1
A    2
C2
A    3
C3
A    4
C4
A    5
C5
A    6
O6
A    7
C7
A    8
C8
A    9
C9
A   10
C10
A   11
C11
A   12
C12
A   13
C13
A   14
O14
A   15
C15
A   16
C16
A   17
C17
A   18
C18
A   19
O19
M  END
>  <InstanceId>
3K99_PFT_A_901

>  <ChemCompId>
PFT

>  <PdbId>
3K99

>  <ChainId>
A

>  <ResidueNumber>
901

>  <InsertionCode>


>  <Model>
1

>  <AltIds>


>  <MissingHeavyAtoms>
0

>  <ObservedFormula>
C15 N O3

>  <Name>
4-(1,3-dihydro-2H-isoindol-2-ylcarbonyl)benzene-1,3-diol

>  <SystematicName>
1,3-dihydroisoindol-2-yl-(2,4-dihydroxyphenyl)methanone

>  <Synonyms>


>  <Type>
NON-POLYMER

>  <Formula>
C15 H13 N O3

>  <MolecularWeight>
255.269

>  <ModifiedDate>
2011-06-04

>  <Parent>


>  <OneLetterCode>


>  <SubcomponentList>


>  <AmbiguousFlag>
N

>  <InChI>
InChI=1S/C15H13NO3/c17-12-5-6-13(14(18)7-12)15(19)16-8-10-3-1-2-4-11(10)9-16/h1-7,17-18H,8-9H2

>  <InChIKey>
FYANAIGOGAIFAF-UHFFFAOYSA-N

>  <SMILES>
c1ccc2c(c1)CN(C2)C(=O)c3ccc(cc3O)O

$$$$
