5O2D_9HH_A_1201


 26 29  0  0  0  0  0  0  0  0999 V2000
   20.7894  -20.4599  -22.5841 C   0  0  0  0  0  0  0  0  0  0  0  0
   20.1367  -19.2857  -22.9674 C   0  0  0  0  0  0  0  0  0  0  0  0
   19.9983  -18.9718  -24.3118 C   0  0  0  0  0  0  0  0  0  0  0  0
   20.5007  -19.8145  -25.2972 C   0  0  0  0  0  0  0  0  0  0  0  0
   21.1681  -20.9872  -24.9450 C   0  0  0  0  0  0  0  0  0  0  0  0
   21.3098  -21.2977  -23.5843 C   0  0  0  0  0  0  0  0  0  0  0  0
   21.8061  -22.0630  -25.6743 C   0  0  0  0  0  0  0  0  0  0  0  0
   22.3130  -22.9529  -24.7086 C   0  0  0  0  0  0  0  0  0  0  0  0
   21.9918  -22.4895  -23.4530 N   0  0  0  0  0  0  0  0  0  0  0  0
   22.0469  -22.3239  -27.0228 C   0  0  0  0  0  0  0  0  0  0  0  0
   22.8000  -23.4302  -27.3774 C   0  0  0  0  0  0  0  0  0  0  0  0
   23.3115  -24.2913  -26.4101 C   0  0  0  0  0  0  0  0  0  0  0  0
   23.0606  -24.0737  -25.0686 C   0  0  0  0  0  0  0  0  0  0  0  0
   22.2122  -22.9344  -22.6029 H   0  0  0  0  0  0  0  0  0  0  0  0
   21.6214  -20.0855  -20.2138 C   0  0  0  0  0  0  0  0  0  0  0  0
   20.8806  -20.8318  -21.1432 C   0  0  0  0  0  0  0  0  0  0  0  0
   20.2522  -22.0086  -20.7118 C   0  0  0  0  0  0  0  0  0  0  0  0
   20.3608  -22.4116  -19.3916 C   0  0  0  0  0  0  0  0  0  0  0  0
   21.0784  -21.6577  -18.4870 C   0  0  0  0  0  0  0  0  0  0  0  0
   21.7187  -20.5056  -18.8878 C   0  0  0  0  0  0  0  0  0  0  0  0
   22.3778  -18.9620  -20.6408 N   0  0  0  0  0  0  0  0  0  0  0  0
   21.9668  -18.0675  -20.6221 H   0  0  0  0  0  0  0  0  0  0  0  0
   23.9842  -20.3131  -21.9459 O   0  0  0  0  0  0  0  0  0  0  0  0
   23.9023  -19.1247  -21.1574 S   0  0  0  0  0  0  0  0  0  0  0  0
   24.7572  -18.9943  -20.0235 O   0  0  0  0  0  0  0  0  0  0  0  0
   24.1862  -17.7696  -22.2151 C   0  0  0  0  0  0  0  0  0  0  0  0
 11 10  2  0  0  0
 11 12  1  0  0  0
 10  7  1  0  0  0
 12 13  2  0  0  0
  7  5  1  0  0  0
  7  8  2  0  0  0
  4  5  2  0  0  0
  4  3  1  0  0  0
  5  6  1  0  0  0
 13  8  1  0  0  0
  8  9  1  0  0  0
  3  2  2  0  0  0
  6  9  1  0  0  0
  6  1  2  0  0  0
  2  1  1  0  0  0
  1 16  1  0  0  0
 26 24  1  0  0  0
 23 24  2  0  0  0
 24 21  1  0  0  0
 24 25  2  0  0  0
 16 17  2  0  0  0
 16 15  1  0  0  0
 21 15  1  0  0  0
 17 18  1  0  0  0
 15 20  2  0  0  0
 18 19  2  0  0  0
 20 19  1  0  0  0
 21 22  1  0  0  0
  9 14  1  0  0  0
M  END
> <minimizedAffinity>
-12.64910

$$$$
5O2D_9HH_A_1201


 26 29  0  0  0  0  0  0  0  0999 V2000
   21.6038  -19.3197  -23.8014 C   0  0  0  0  0  0  0  0  0  0  0  0
   20.6881  -18.3886  -24.2976 C   0  0  0  0  0  0  0  0  0  0  0  0
   19.9946  -18.6494  -25.4706 C   0  0  0  0  0  0  0  0  0  0  0  0
   20.1940  -19.8348  -26.1695 C   0  0  0  0  0  0  0  0  0  0  0  0
   21.1107  -20.7777  -25.7057 C   0  0  0  0  0  0  0  0  0  0  0  0
   21.8130  -20.5072  -24.5218 C   0  0  0  0  0  0  0  0  0  0  0  0
   21.5672  -22.0745  -26.1599 C   0  0  0  0  0  0  0  0  0  0  0  0
   22.5340  -22.5040  -25.2314 C   0  0  0  0  0  0  0  0  0  0  0  0
   22.6604  -21.5584  -24.2392 N   0  0  0  0  0  0  0  0  0  0  0  0
   21.3019  -22.8713  -27.2731 C   0  0  0  0  0  0  0  0  0  0  0  0
   22.0128  -24.0455  -27.4538 C   0  0  0  0  0  0  0  0  0  0  0  0
   22.9803  -24.4481  -26.5370 C   0  0  0  0  0  0  0  0  0  0  0  0
   23.2401  -23.6934  -25.4087 C   0  0  0  0  0  0  0  0  0  0  0  0
   23.2562  -21.6218  -23.4580 H   0  0  0  0  0  0  0  0  0  0  0  0
   21.7787  -19.4905  -21.2734 C   0  0  0  0  0  0  0  0  0  0  0  0
   22.3004  -19.0710  -22.5069 C   0  0  0  0  0  0  0  0  0  0  0  0
   23.4932  -18.3343  -22.5162 C   0  0  0  0  0  0  0  0  0  0  0  0
   24.1385  -18.0397  -21.3272 C   0  0  0  0  0  0  0  0  0  0  0  0
   23.6216  -18.4741  -20.1247 C   0  0  0  0  0  0  0  0  0  0  0  0
   22.4429  -19.1861  -20.0857 C   0  0  0  0  0  0  0  0  0  0  0  0
   20.5090  -20.1235  -21.2133 N   0  0  0  0  0  0  0  0  0  0  0  0
   19.6962  -19.5928  -21.3775 H   0  0  0  0  0  0  0  0  0  0  0  0
   21.1990  -22.4249  -21.7937 O   0  0  0  0  0  0  0  0  0  0  0  0
   20.3733  -21.7009  -20.8800 S   0  0  0  0  0  0  0  0  0  0  0  0
   18.9825  -22.0102  -20.8202 O   0  0  0  0  0  0  0  0  0  0  0  0
   21.0477  -21.9031  -19.2862 C   0  0  0  0  0  0  0  0  0  0  0  0
 11 10  2  0  0  0
 11 12  1  0  0  0
 10  7  1  0  0  0
 12 13  2  0  0  0
  7  5  1  0  0  0
  7  8  2  0  0  0
  4  5  2  0  0  0
  4  3  1  0  0  0
  5  6  1  0  0  0
 13  8  1  0  0  0
  8  9  1  0  0  0
  3  2  2  0  0  0
  6  9  1  0  0  0
  6  1  2  0  0  0
  2  1  1  0  0  0
  1 16  1  0  0  0
 26 24  1  0  0  0
 23 24  2  0  0  0
 24 21  1  0  0  0
 24 25  2  0  0  0
 16 17  2  0  0  0
 16 15  1  0  0  0
 21 15  1  0  0  0
 17 18  1  0  0  0
 15 20  2  0  0  0
 18 19  2  0  0  0
 20 19  1  0  0  0
 21 22  1  0  0  0
  9 14  1  0  0  0
M  END
> <minimizedAffinity>
-10.78060

$$$$
5O2D_9HH_A_1201


 26 29  0  0  0  0  0  0  0  0999 V2000
   21.6215  -21.8773  -23.0005 C   0  0  0  0  0  0  0  0  0  0  0  0
   20.7178  -22.5816  -22.2011 C   0  0  0  0  0  0  0  0  0  0  0  0
   20.3414  -22.0780  -20.9643 C   0  0  0  0  0  0  0  0  0  0  0  0
   20.8504  -20.8701  -20.5002 C   0  0  0  0  0  0  0  0  0  0  0  0
   21.7638  -20.1508  -21.2701 C   0  0  0  0  0  0  0  0  0  0  0  0
   22.1451  -20.6666  -22.5178 C   0  0  0  0  0  0  0  0  0  0  0  0
   22.4828  -18.9043  -21.1106 C   0  0  0  0  0  0  0  0  0  0  0  0
   23.2720  -18.7491  -22.2658 C   0  0  0  0  0  0  0  0  0  0  0  0
   23.0461  -19.8091  -23.1142 N   0  0  0  0  0  0  0  0  0  0  0  0
   22.5806  -17.9533  -20.0955 C   0  0  0  0  0  0  0  0  0  0  0  0
   23.4685  -16.8999  -20.2337 C   0  0  0  0  0  0  0  0  0  0  0  0
   24.2571  -16.7698  -21.3738 C   0  0  0  0  0  0  0  0  0  0  0  0
   24.1565  -17.6805  -22.4086 C   0  0  0  0  0  0  0  0  0  0  0  0
   23.4588  -19.9344  -23.9992 H   0  0  0  0  0  0  0  0  0  0  0  0
   21.3748  -21.8961  -25.5283 C   0  0  0  0  0  0  0  0  0  0  0  0
   21.9758  -22.3834  -24.3574 C   0  0  0  0  0  0  0  0  0  0  0  0
   22.9012  -23.4313  -24.4633 C   0  0  0  0  0  0  0  0  0  0  0  0
   23.2137  -23.9610  -25.7038 C   0  0  0  0  0  0  0  0  0  0  0  0
   22.6269  -23.4592  -26.8465 C   0  0  0  0  0  0  0  0  0  0  0  0
   21.7027  -22.4404  -26.7695 C   0  0  0  0  0  0  0  0  0  0  0  0
   20.3391  -20.9277  -25.4495 N   0  0  0  0  0  0  0  0  0  0  0  0
   19.4224  -21.2169  -25.2368 H   0  0  0  0  0  0  0  0  0  0  0  0
   19.9796  -18.9648  -26.9080 O   0  0  0  0  0  0  0  0  0  0  0  0
   20.6379  -19.3579  -25.7026 S   0  0  0  0  0  0  0  0  0  0  0  0
   22.0469  -19.1654  -25.5971 O   0  0  0  0  0  0  0  0  0  0  0  0
   19.8705  -18.5160  -24.3842 C   0  0  0  0  0  0  0  0  0  0  0  0
 11 10  2  0  0  0
 11 12  1  0  0  0
 10  7  1  0  0  0
 12 13  2  0  0  0
  7  5  1  0  0  0
  7  8  2  0  0  0
  4  5  2  0  0  0
  4  3  1  0  0  0
  5  6  1  0  0  0
 13  8  1  0  0  0
  8  9  1  0  0  0
  3  2  2  0  0  0
  6  9  1  0  0  0
  6  1  2  0  0  0
  2  1  1  0  0  0
  1 16  1  0  0  0
 26 24  1  0  0  0
 23 24  2  0  0  0
 24 21  1  0  0  0
 24 25  2  0  0  0
 16 17  2  0  0  0
 16 15  1  0  0  0
 21 15  1  0  0  0
 17 18  1  0  0  0
 15 20  2  0  0  0
 18 19  2  0  0  0
 20 19  1  0  0  0
 21 22  1  0  0  0
  9 14  1  0  0  0
M  END
> <minimizedAffinity>
-10.03425

$$$$
