3SUV_NOK_A_2000


 19 19  0  0  0  0  0  0  0  0999 V2000
   35.0742   18.1416  -17.2275 C   0  0  0  0  0  0  0  0  0  0  0  0
   35.8442   19.1216  -16.3256 C   0  0  0  0  0  0  0  0  0  0  0  0
   37.0173   18.4295  -15.7437 N   0  0  0  0  0  0  0  0  0  0  0  0
   36.5592   17.4025  -14.7801 C   0  0  0  0  0  0  0  0  0  0  0  0
   35.7222   16.3295  -15.5023 C   0  0  0  0  0  0  0  0  0  0  0  0
   35.1062   15.4638  -14.5377 O   0  0  0  0  0  0  0  0  0  0  0  0
   34.6186   16.8989  -16.4346 C   0  0  0  0  0  0  0  0  0  0  0  0
   34.2724   15.8595  -17.3535 O   0  0  0  0  0  0  0  0  0  0  0  0
   37.6075   19.1078  -15.2622 H   0  0  0  0  0  0  0  0  0  0  0  0
   34.4901   15.9757  -13.9906 H   0  0  0  0  0  0  0  0  0  0  0  0
   35.0538   15.6139  -17.8731 H   0  0  0  0  0  0  0  0  0  0  0  0
   32.0970   20.3789  -18.1795 C   0  0  0  0  0  0  0  0  0  0  0  0
   33.1135   19.6873  -17.2846 C   0  0  0  0  0  0  0  0  0  0  0  0
   33.0977   19.8852  -16.0724 O   0  0  0  0  0  0  0  0  0  0  0  0
   33.9829   18.8788  -17.9176 N   0  0  0  0  0  0  0  0  0  0  0  0
   33.8915   18.7693  -18.8917 H   0  0  0  0  0  0  0  0  0  0  0  0
   37.7739   16.7664  -14.1023 C   0  0  0  0  0  0  0  0  0  0  0  0
   38.2187   15.6476  -14.8776 O   0  0  0  0  0  0  0  0  0  0  0  0
   37.5042   14.9948  -14.9427 H   0  0  0  0  0  0  0  0  0  0  0  0
 12 13  1  0  0  0
 13 14  2  0  0  0
 13 15  1  0  0  0
 15  1  1  0  0  0
  1  2  1  0  0  0
  1  7  1  0  0  0
  2  3  1  0  0  0
  3  4  1  0  0  0
  4 17  1  0  0  0
  4  5  1  0  0  0
 17 18  1  0  0  0
  5  6  1  0  0  0
  5  7  1  0  0  0
  7  8  1  0  0  0
 15 16  1  0  0  0
  3  9  1  0  0  0
 18 19  1  0  0  0
  6 10  1  0  0  0
  8 11  1  0  0  0
M  END
> <minimizedAffinity>
-7.96453

$$$$
3SUV_NOK_A_2000


 19 19  0  0  0  0  0  0  0  0999 V2000
   36.4785   17.6760  -15.7377 C   0  0  0  0  0  0  0  0  0  0  0  0
   36.5048   19.1580  -16.1496 C   0  0  0  0  0  0  0  0  0  0  0  0
   35.1254   19.6966  -16.1200 N   0  0  0  0  0  0  0  0  0  0  0  0
   34.3286   19.0785  -17.2045 C   0  0  0  0  0  0  0  0  0  0  0  0
   34.2176   17.5578  -16.9843 C   0  0  0  0  0  0  0  0  0  0  0  0
   33.6344   16.9410  -18.1414 O   0  0  0  0  0  0  0  0  0  0  0  0
   35.5676   16.8558  -16.6747 C   0  0  0  0  0  0  0  0  0  0  0  0
   35.2547   15.6090  -16.0483 O   0  0  0  0  0  0  0  0  0  0  0  0
   35.1527   20.7076  -16.2524 H   0  0  0  0  0  0  0  0  0  0  0  0
   34.2183   17.0697  -18.9053 H   0  0  0  0  0  0  0  0  0  0  0  0
   34.7682   15.7737  -15.2255 H   0  0  0  0  0  0  0  0  0  0  0  0
   39.8511   16.2186  -14.6074 C   0  0  0  0  0  0  0  0  0  0  0  0
   38.4180   16.7140  -14.4927 C   0  0  0  0  0  0  0  0  0  0  0  0
   37.8397   16.6712  -13.4098 O   0  0  0  0  0  0  0  0  0  0  0  0
   37.8766   17.1810  -15.6324 N   0  0  0  0  0  0  0  0  0  0  0  0
   38.4372   17.1957  -16.4416 H   0  0  0  0  0  0  0  0  0  0  0  0
   32.9389   19.7167  -17.2386 C   0  0  0  0  0  0  0  0  0  0  0  0
   32.2376   19.2657  -18.4028 O   0  0  0  0  0  0  0  0  0  0  0  0
   32.7320   19.5213  -19.1973 H   0  0  0  0  0  0  0  0  0  0  0  0
 12 13  1  0  0  0
 13 14  2  0  0  0
 13 15  1  0  0  0
 15  1  1  0  0  0
  1  2  1  0  0  0
  1  7  1  0  0  0
  2  3  1  0  0  0
  3  4  1  0  0  0
  4 17  1  0  0  0
  4  5  1  0  0  0
 17 18  1  0  0  0
  5  6  1  0  0  0
  5  7  1  0  0  0
  7  8  1  0  0  0
 15 16  1  0  0  0
  3  9  1  0  0  0
 18 19  1  0  0  0
  6 10  1  0  0  0
  8 11  1  0  0  0
M  END
> <minimizedAffinity>
-6.68224

$$$$
3SUV_NOK_A_2000


 19 19  0  0  0  0  0  0  0  0999 V2000
   35.9020   18.3410  -16.1681 C   0  0  0  0  0  0  0  0  0  0  0  0
   37.1808   19.1496  -15.8898 C   0  0  0  0  0  0  0  0  0  0  0  0
   38.3024   18.2159  -15.6369 N   0  0  0  0  0  0  0  0  0  0  0  0
   38.0830   17.5142  -14.3514 C   0  0  0  0  0  0  0  0  0  0  0  0
   36.8015   16.6621  -14.4211 C   0  0  0  0  0  0  0  0  0  0  0  0
   36.4802   16.1608  -13.1153 O   0  0  0  0  0  0  0  0  0  0  0  0
   35.5637   17.4126  -14.9831 C   0  0  0  0  0  0  0  0  0  0  0  0
   34.6357   16.4165  -15.4202 O   0  0  0  0  0  0  0  0  0  0  0  0
   39.1768   18.7393  -15.5933 H   0  0  0  0  0  0  0  0  0  0  0  0
   36.2885   16.9038  -12.5219 H   0  0  0  0  0  0  0  0  0  0  0  0
   35.0435   15.8780  -16.1164 H   0  0  0  0  0  0  0  0  0  0  0  0
   32.7598   20.0298  -17.6001 C   0  0  0  0  0  0  0  0  0  0  0  0
   33.7853   18.9344  -17.3531 C   0  0  0  0  0  0  0  0  0  0  0  0
   33.6375   17.8292  -17.8685 O   0  0  0  0  0  0  0  0  0  0  0  0
   34.8159   19.2780  -16.5594 N   0  0  0  0  0  0  0  0  0  0  0  0
   34.8529   20.2009  -16.2188 H   0  0  0  0  0  0  0  0  0  0  0  0
   39.2947   16.6334  -14.0421 C   0  0  0  0  0  0  0  0  0  0  0  0
   38.9874   15.2726  -14.3653 O   0  0  0  0  0  0  0  0  0  0  0  0
   38.2287   14.9783  -13.8375 H   0  0  0  0  0  0  0  0  0  0  0  0
 12 13  1  0  0  0
 13 14  2  0  0  0
 13 15  1  0  0  0
 15  1  1  0  0  0
  1  2  1  0  0  0
  1  7  1  0  0  0
  2  3  1  0  0  0
  3  4  1  0  0  0
  4 17  1  0  0  0
  4  5  1  0  0  0
 17 18  1  0  0  0
  5  6  1  0  0  0
  5  7  1  0  0  0
  7  8  1  0  0  0
 15 16  1  0  0  0
  3  9  1  0  0  0
 18 19  1  0  0  0
  6 10  1  0  0  0
  8 11  1  0  0  0
M  END
> <minimizedAffinity>
-6.59109

$$$$
3SUV_NOK_A_2000


 19 19  0  0  0  0  0  0  0  0999 V2000
   34.8898   18.9648  -15.3122 C   0  0  0  0  0  0  0  0  0  0  0  0
   34.5774   17.5862  -14.7049 C   0  0  0  0  0  0  0  0  0  0  0  0
   35.7174   17.1545  -13.8637 N   0  0  0  0  0  0  0  0  0  0  0  0
   36.8873   16.8657  -14.7246 C   0  0  0  0  0  0  0  0  0  0  0  0
   37.3356   18.1426  -15.4608 C   0  0  0  0  0  0  0  0  0  0  0  0
   38.3232   17.8122  -16.4483 O   0  0  0  0  0  0  0  0  0  0  0  0
   36.1833   18.9207  -16.1522 C   0  0  0  0  0  0  0  0  0  0  0  0
   36.6496   20.2560  -16.3620 O   0  0  0  0  0  0  0  0  0  0  0  0
   35.4595   16.3133  -13.3478 H   0  0  0  0  0  0  0  0  0  0  0  0
   37.9299   17.2293  -17.1164 H   0  0  0  0  0  0  0  0  0  0  0  0
   36.8608   20.6629  -15.5072 H   0  0  0  0  0  0  0  0  0  0  0  0
   32.2889   20.0556  -17.9238 C   0  0  0  0  0  0  0  0  0  0  0  0
   33.6233   19.5736  -17.3766 C   0  0  0  0  0  0  0  0  0  0  0  0
   34.5478   19.3260  -18.1465 O   0  0  0  0  0  0  0  0  0  0  0  0
   33.6881   19.4543  -16.0380 N   0  0  0  0  0  0  0  0  0  0  0  0
   32.8960   19.7050  -15.5100 H   0  0  0  0  0  0  0  0  0  0  0  0
   38.0264   16.3170  -13.8638 C   0  0  0  0  0  0  0  0  0  0  0  0
   38.8986   15.5258  -14.6785 O   0  0  0  0  0  0  0  0  0  0  0  0
   38.4000   14.7892  -15.0653 H   0  0  0  0  0  0  0  0  0  0  0  0
 12 13  1  0  0  0
 13 14  2  0  0  0
 13 15  1  0  0  0
 15  1  1  0  0  0
  1  2  1  0  0  0
  1  7  1  0  0  0
  2  3  1  0  0  0
  3  4  1  0  0  0
  4 17  1  0  0  0
  4  5  1  0  0  0
 17 18  1  0  0  0
  5  6  1  0  0  0
  5  7  1  0  0  0
  7  8  1  0  0  0
 15 16  1  0  0  0
  3  9  1  0  0  0
 18 19  1  0  0  0
  6 10  1  0  0  0
  8 11  1  0  0  0
M  END
> <minimizedAffinity>
-6.57449

$$$$
3SUV_NOK_A_2000


 19 19  0  0  0  0  0  0  0  0999 V2000
   36.8861   18.2168  -15.4903 C   0  0  0  0  0  0  0  0  0  0  0  0
   36.7122   16.6890  -15.4425 C   0  0  0  0  0  0  0  0  0  0  0  0
   37.5692   16.1342  -14.3694 N   0  0  0  0  0  0  0  0  0  0  0  0
   38.9936   16.2811  -14.7469 C   0  0  0  0  0  0  0  0  0  0  0  0
   39.3583   17.7718  -14.8820 C   0  0  0  0  0  0  0  0  0  0  0  0
   40.6685   17.9011  -15.4533 O   0  0  0  0  0  0  0  0  0  0  0  0
   38.3604   18.5999  -15.7361 C   0  0  0  0  0  0  0  0  0  0  0  0
   38.5510   19.9729  -15.3849 O   0  0  0  0  0  0  0  0  0  0  0  0
   37.3526   15.1461  -14.2385 H   0  0  0  0  0  0  0  0  0  0  0  0
   40.6678   17.5324  -16.3505 H   0  0  0  0  0  0  0  0  0  0  0  0
   38.3628   20.0943  -14.4411 H   0  0  0  0  0  0  0  0  0  0  0  0
   33.8058   19.5915  -17.3335 C   0  0  0  0  0  0  0  0  0  0  0  0
   34.6142   18.9648  -16.2082 C   0  0  0  0  0  0  0  0  0  0  0  0
   34.0635   18.6635  -15.1524 O   0  0  0  0  0  0  0  0  0  0  0  0
   35.9208   18.7805  -16.4706 N   0  0  0  0  0  0  0  0  0  0  0  0
   36.2564   19.0329  -17.3611 H   0  0  0  0  0  0  0  0  0  0  0  0
   39.8699   15.6102  -13.6878 C   0  0  0  0  0  0  0  0  0  0  0  0
   39.7557   14.1879  -13.8085 O   0  0  0  0  0  0  0  0  0  0  0  0
   38.8309   13.9256  -13.6786 H   0  0  0  0  0  0  0  0  0  0  0  0
 12 13  1  0  0  0
 13 14  2  0  0  0
 13 15  1  0  0  0
 15  1  1  0  0  0
  1  2  1  0  0  0
  1  7  1  0  0  0
  2  3  1  0  0  0
  3  4  1  0  0  0
  4 17  1  0  0  0
  4  5  1  0  0  0
 17 18  1  0  0  0
  5  6  1  0  0  0
  5  7  1  0  0  0
  7  8  1  0  0  0
 15 16  1  0  0  0
  3  9  1  0  0  0
 18 19  1  0  0  0
  6 10  1  0  0  0
  8 11  1  0  0  0
M  END
> <minimizedAffinity>
-6.22299

$$$$
3SUV_NOK_A_2000


 19 19  0  0  0  0  0  0  0  0999 V2000
   37.5247   17.6572  -15.9588 C   0  0  0  0  0  0  0  0  0  0  0  0
   36.9295   16.2398  -16.0173 C   0  0  0  0  0  0  0  0  0  0  0  0
   35.9619   16.1633  -17.1360 N   0  0  0  0  0  0  0  0  0  0  0  0
   34.7764   16.9941  -16.8236 C   0  0  0  0  0  0  0  0  0  0  0  0
   35.1832   18.4737  -16.6872 C   0  0  0  0  0  0  0  0  0  0  0  0
   34.0796   19.2354  -16.1761 O   0  0  0  0  0  0  0  0  0  0  0  0
   36.4178   18.7167  -15.7773 C   0  0  0  0  0  0  0  0  0  0  0  0
   36.9412   20.0024  -16.1200 O   0  0  0  0  0  0  0  0  0  0  0  0
   35.6722   15.1944  -17.2689 H   0  0  0  0  0  0  0  0  0  0  0  0
   33.8574   18.9246  -15.2846 H   0  0  0  0  0  0  0  0  0  0  0  0
   37.2087   20.0046  -17.0524 H   0  0  0  0  0  0  0  0  0  0  0  0
   40.6620   18.3518  -13.8492 C   0  0  0  0  0  0  0  0  0  0  0  0
   39.7101   18.4332  -15.0323 C   0  0  0  0  0  0  0  0  0  0  0  0
   39.9879   19.1446  -15.9944 O   0  0  0  0  0  0  0  0  0  0  0  0
   38.5954   17.6872  -14.9276 N   0  0  0  0  0  0  0  0  0  0  0  0
   38.4823   17.1304  -14.1236 H   0  0  0  0  0  0  0  0  0  0  0  0
   33.7343   16.8259  -17.9307 C   0  0  0  0  0  0  0  0  0  0  0  0
   33.9924   15.6122  -18.6454 O   0  0  0  0  0  0  0  0  0  0  0  0
   34.8791   15.6499  -19.0370 H   0  0  0  0  0  0  0  0  0  0  0  0
 12 13  1  0  0  0
 13 14  2  0  0  0
 13 15  1  0  0  0
 15  1  1  0  0  0
  1  2  1  0  0  0
  1  7  1  0  0  0
  2  3  1  0  0  0
  3  4  1  0  0  0
  4 17  1  0  0  0
  4  5  1  0  0  0
 17 18  1  0  0  0
  5  6  1  0  0  0
  5  7  1  0  0  0
  7  8  1  0  0  0
 15 16  1  0  0  0
  3  9  1  0  0  0
 18 19  1  0  0  0
  6 10  1  0  0  0
  8 11  1  0  0  0
M  END
> <minimizedAffinity>
-6.19237

$$$$
3SUV_NOK_A_2000


 19 19  0  0  0  0  0  0  0  0999 V2000
   37.5556   18.0394  -15.7060 C   0  0  0  0  0  0  0  0  0  0  0  0
   38.6523   18.9814  -15.1801 C   0  0  0  0  0  0  0  0  0  0  0  0
   39.9776   18.3593  -15.4039 N   0  0  0  0  0  0  0  0  0  0  0  0
   40.1249   17.1767  -14.5248 C   0  0  0  0  0  0  0  0  0  0  0  0
   39.0682   16.1134  -14.8801 C   0  0  0  0  0  0  0  0  0  0  0  0
   39.0765   15.0719  -13.8929 O   0  0  0  0  0  0  0  0  0  0  0  0
   37.6224   16.6654  -15.0073 C   0  0  0  0  0  0  0  0  0  0  0  0
   36.8795   15.7146  -15.7746 O   0  0  0  0  0  0  0  0  0  0  0  0
   40.7107   19.0353  -15.1894 H   0  0  0  0  0  0  0  0  0  0  0  0
   38.8222   15.4401  -13.0323 H   0  0  0  0  0  0  0  0  0  0  0  0
   37.2804   15.6242  -16.6532 H   0  0  0  0  0  0  0  0  0  0  0  0
   33.9247   19.2358  -16.1077 C   0  0  0  0  0  0  0  0  0  0  0  0
   35.1899   18.4433  -16.3970 C   0  0  0  0  0  0  0  0  0  0  0  0
   35.1993   17.6128  -17.3020 O   0  0  0  0  0  0  0  0  0  0  0  0
   36.2417   18.7285  -15.6080 N   0  0  0  0  0  0  0  0  0  0  0  0
   36.1355   19.4325  -14.9280 H   0  0  0  0  0  0  0  0  0  0  0  0
   41.5342   16.6027  -14.6800 C   0  0  0  0  0  0  0  0  0  0  0  0
   41.5039   15.5141  -15.6097 O   0  0  0  0  0  0  0  0  0  0  0  0
   40.9067   14.8242  -15.2805 H   0  0  0  0  0  0  0  0  0  0  0  0
 12 13  1  0  0  0
 13 14  2  0  0  0
 13 15  1  0  0  0
 15  1  1  0  0  0
  1  2  1  0  0  0
  1  7  1  0  0  0
  2  3  1  0  0  0
  3  4  1  0  0  0
  4 17  1  0  0  0
  4  5  1  0  0  0
 17 18  1  0  0  0
  5  6  1  0  0  0
  5  7  1  0  0  0
  7  8  1  0  0  0
 15 16  1  0  0  0
  3  9  1  0  0  0
 18 19  1  0  0  0
  6 10  1  0  0  0
  8 11  1  0  0  0
M  END
> <minimizedAffinity>
-6.03457

$$$$
3SUV_NOK_A_2000


 19 19  0  0  0  0  0  0  0  0999 V2000
   37.8997   17.3814  -14.3035 C   0  0  0  0  0  0  0  0  0  0  0  0
   38.1776   17.7930  -15.7595 C   0  0  0  0  0  0  0  0  0  0  0  0
   36.9303   18.3137  -16.3653 N   0  0  0  0  0  0  0  0  0  0  0  0
   35.9585   17.2080  -16.5267 C   0  0  0  0  0  0  0  0  0  0  0  0
   35.5772   16.6283  -15.1512 C   0  0  0  0  0  0  0  0  0  0  0  0
   34.8099   15.4282  -15.3259 O   0  0  0  0  0  0  0  0  0  0  0  0
   36.7880   16.3139  -14.2312 C   0  0  0  0  0  0  0  0  0  0  0  0
   36.2886   16.2495  -12.8929 O   0  0  0  0  0  0  0  0  0  0  0  0
   37.1392   18.7182  -17.2780 H   0  0  0  0  0  0  0  0  0  0  0  0
   35.3538   14.7584  -15.7691 H   0  0  0  0  0  0  0  0  0  0  0  0
   35.8996   17.1047  -12.6515 H   0  0  0  0  0  0  0  0  0  0  0  0
   41.1501   15.6583  -13.1892 C   0  0  0  0  0  0  0  0  0  0  0  0
   39.8329   15.8462  -13.9255 C   0  0  0  0  0  0  0  0  0  0  0  0
   39.4332   14.9784  -14.6975 O   0  0  0  0  0  0  0  0  0  0  0  0
   39.1827   16.9938  -13.6599 N   0  0  0  0  0  0  0  0  0  0  0  0
   39.5784   17.6111  -13.0029 H   0  0  0  0  0  0  0  0  0  0  0  0
   34.7156   17.7279  -17.2510 C   0  0  0  0  0  0  0  0  0  0  0  0
   34.1094   16.6566  -17.9827 O   0  0  0  0  0  0  0  0  0  0  0  0
   34.7418   16.3095  -18.6312 H   0  0  0  0  0  0  0  0  0  0  0  0
 12 13  1  0  0  0
 13 14  2  0  0  0
 13 15  1  0  0  0
 15  1  1  0  0  0
  1  2  1  0  0  0
  1  7  1  0  0  0
  2  3  1  0  0  0
  3  4  1  0  0  0
  4 17  1  0  0  0
  4  5  1  0  0  0
 17 18  1  0  0  0
  5  6  1  0  0  0
  5  7  1  0  0  0
  7  8  1  0  0  0
 15 16  1  0  0  0
  3  9  1  0  0  0
 18 19  1  0  0  0
  6 10  1  0  0  0
  8 11  1  0  0  0
M  END
> <minimizedAffinity>
-5.59437

$$$$
3SUV_NOK_A_2000


 19 19  0  0  0  0  0  0  0  0999 V2000
   38.3338   17.7643  -15.2052 C   0  0  0  0  0  0  0  0  0  0  0  0
   38.9371   19.1780  -15.1409 C   0  0  0  0  0  0  0  0  0  0  0  0
   40.4137   19.0811  -15.2052 N   0  0  0  0  0  0  0  0  0  0  0  0
   40.9242   18.4599  -13.9615 C   0  0  0  0  0  0  0  0  0  0  0  0
   40.3892   17.0216  -13.8255 C   0  0  0  0  0  0  0  0  0  0  0  0
   40.7085   16.5059  -12.5249 O   0  0  0  0  0  0  0  0  0  0  0  0
   38.8592   16.8838  -14.0522 C   0  0  0  0  0  0  0  0  0  0  0  0
   38.6058   15.5107  -14.3602 O   0  0  0  0  0  0  0  0  0  0  0  0
   40.8112   20.0150  -15.3064 H   0  0  0  0  0  0  0  0  0  0  0  0
   40.2589   17.0353  -11.8478 H   0  0  0  0  0  0  0  0  0  0  0  0
   39.0858   15.2664  -15.1670 H   0  0  0  0  0  0  0  0  0  0  0  0
   34.5773   17.2607  -15.8461 C   0  0  0  0  0  0  0  0  0  0  0  0
   36.0709   16.9841  -15.9175 C   0  0  0  0  0  0  0  0  0  0  0  0
   36.4835   16.0010  -16.5275 O   0  0  0  0  0  0  0  0  0  0  0  0
   36.8532   17.8761  -15.2831 N   0  0  0  0  0  0  0  0  0  0  0  0
   36.4214   18.6454  -14.8462 H   0  0  0  0  0  0  0  0  0  0  0  0
   42.4536   18.4614  -13.9857 C   0  0  0  0  0  0  0  0  0  0  0  0
   42.9247   17.1497  -14.3144 O   0  0  0  0  0  0  0  0  0  0  0  0
   42.6110   16.5174  -13.6491 H   0  0  0  0  0  0  0  0  0  0  0  0
 12 13  1  0  0  0
 13 14  2  0  0  0
 13 15  1  0  0  0
 15  1  1  0  0  0
  1  2  1  0  0  0
  1  7  1  0  0  0
  2  3  1  0  0  0
  3  4  1  0  0  0
  4 17  1  0  0  0
  4  5  1  0  0  0
 17 18  1  0  0  0
  5  6  1  0  0  0
  5  7  1  0  0  0
  7  8  1  0  0  0
 15 16  1  0  0  0
  3  9  1  0  0  0
 18 19  1  0  0  0
  6 10  1  0  0  0
  8 11  1  0  0  0
M  END
> <minimizedAffinity>
-5.54943

$$$$
3SUV_NOK_A_2000


 19 19  0  0  0  0  0  0  0  0999 V2000
   37.5299   18.1272  -15.1778 C   0  0  0  0  0  0  0  0  0  0  0  0
   37.8025   16.6647  -14.7861 C   0  0  0  0  0  0  0  0  0  0  0  0
   38.7027   16.6347  -13.6103 N   0  0  0  0  0  0  0  0  0  0  0  0
   40.0473   17.1153  -14.0031 C   0  0  0  0  0  0  0  0  0  0  0  0
   39.9739   18.5815  -14.4704 C   0  0  0  0  0  0  0  0  0  0  0  0
   41.2286   18.9700  -15.0486 O   0  0  0  0  0  0  0  0  0  0  0  0
   38.8441   18.8707  -15.4956 C   0  0  0  0  0  0  0  0  0  0  0  0
   38.6031   20.2797  -15.4635 O   0  0  0  0  0  0  0  0  0  0  0  0
   38.7724   15.6792  -13.2602 H   0  0  0  0  0  0  0  0  0  0  0  0
   41.4001   18.4344  -15.8389 H   0  0  0  0  0  0  0  0  0  0  0  0
   38.3196   20.5390  -14.5728 H   0  0  0  0  0  0  0  0  0  0  0  0
   34.3236   18.1911  -17.2969 C   0  0  0  0  0  0  0  0  0  0  0  0
   35.1896   18.1145  -16.0493 C   0  0  0  0  0  0  0  0  0  0  0  0
   34.6638   18.0220  -14.9431 O   0  0  0  0  0  0  0  0  0  0  0  0
   36.5170   18.1531  -16.2658 N   0  0  0  0  0  0  0  0  0  0  0  0
   36.8351   18.2013  -17.1963 H   0  0  0  0  0  0  0  0  0  0  0  0
   41.0006   16.9800  -12.8146 C   0  0  0  0  0  0  0  0  0  0  0  0
   42.3459   16.8773  -13.2941 O   0  0  0  0  0  0  0  0  0  0  0  0
   42.4269   16.0978  -13.8658 H   0  0  0  0  0  0  0  0  0  0  0  0
 12 13  1  0  0  0
 13 14  2  0  0  0
 13 15  1  0  0  0
 15  1  1  0  0  0
  1  2  1  0  0  0
  1  7  1  0  0  0
  2  3  1  0  0  0
  3  4  1  0  0  0
  4 17  1  0  0  0
  4  5  1  0  0  0
 17 18  1  0  0  0
  5  6  1  0  0  0
  5  7  1  0  0  0
  7  8  1  0  0  0
 15 16  1  0  0  0
  3  9  1  0  0  0
 18 19  1  0  0  0
  6 10  1  0  0  0
  8 11  1  0  0  0
M  END
> <minimizedAffinity>
-5.51925

$$$$
