4AG8_AXI_A_2000


 30 33  0  0  0  0  0  0  0  0999 V2000
   21.7584   24.3298   38.4437 C   0  0  0  0  0  0  0  0  0  0  0  0
   20.4802   23.9594   38.9452 C   0  0  0  0  0  0  0  0  0  0  0  0
   19.6352   24.9126   39.6106 C   0  0  0  0  0  0  0  0  0  0  0  0
   22.2227   25.6718   38.6146 C   0  0  0  0  0  0  0  0  0  0  0  0
   21.4028   26.5892   39.2677 C   0  0  0  0  0  0  0  0  0  0  0  0
   21.6011   27.9319   39.5470 N   0  0  0  0  0  0  0  0  0  0  0  0
   20.5518   28.4010   40.1335 N   0  0  0  0  0  0  0  0  0  0  0  0
   19.6665   27.4883   40.3077 C   0  0  0  0  0  0  0  0  0  0  0  0
   20.1532   26.2384   39.7540 C   0  0  0  0  0  0  0  0  0  0  0  0
   20.4441   29.3392   40.4117 H   0  0  0  0  0  0  0  0  0  0  0  0
   18.3697   27.7956   40.9328 C   0  0  0  0  0  0  0  0  0  0  0  0
   17.1148   27.2753   40.6137 C   0  0  0  0  0  0  0  0  0  0  0  0
   15.8511   27.6653   41.3259 C   0  0  0  0  0  0  0  0  0  0  0  0
   14.9642   26.6648   41.5097 N   0  0  0  0  0  0  0  0  0  0  0  0
   13.7802   26.8960   42.1437 C   0  0  0  0  0  0  0  0  0  0  0  0
   13.4517   28.1788   42.6157 C   0  0  0  0  0  0  0  0  0  0  0  0
   14.3663   29.2311   42.4310 C   0  0  0  0  0  0  0  0  0  0  0  0
   15.5986   28.9861   41.7706 C   0  0  0  0  0  0  0  0  0  0  0  0
   22.7532   23.1580   37.6272 S   0  0  0  0  0  0  0  0  0  0  0  0
   25.5526   22.9048   37.7516 C   0  0  0  0  0  0  0  0  0  0  0  0
   26.7573   22.8615   38.5133 C   0  0  0  0  0  0  0  0  0  0  0  0
   26.7764   22.9953   39.9243 C   0  0  0  0  0  0  0  0  0  0  0  0
   25.5490   23.1947   40.5917 C   0  0  0  0  0  0  0  0  0  0  0  0
   24.3049   23.1069   38.4341 C   0  0  0  0  0  0  0  0  0  0  0  0
   24.3361   23.2312   39.8620 C   0  0  0  0  0  0  0  0  0  0  0  0
   25.2791   23.6674   35.5357 O   0  0  0  0  0  0  0  0  0  0  0  0
   25.6911   22.7549   36.2777 C   0  0  0  0  0  0  0  0  0  0  0  0
   26.2781   21.6603   35.7583 N   0  0  0  0  0  0  0  0  0  0  0  0
   26.5795   21.4892   34.3394 C   0  0  0  0  0  0  0  0  0  0  0  0
   26.5193   20.9300   36.3729 H   0  0  0  0  0  0  0  0  0  0  0  0
 26 27  2  0  0  0
 27 28  1  0  0  0
 27 20  1  0  0  0
 28 29  1  0  0  0
 20 21  1  0  0  0
 20 24  2  0  0  0
 21 22  2  0  0  0
 22 23  1  0  0  0
 23 25  2  0  0  0
 24 25  1  0  0  0
 24 19  1  0  0  0
 19  1  1  0  0  0
  1  2  1  0  0  0
  1  4  2  0  0  0
  2  3  2  0  0  0
  3  9  1  0  0  0
  4  5  1  0  0  0
  5  6  2  0  0  0
  5  9  1  0  0  0
  6  7  1  0  0  0
  7  8  1  0  0  0
  8  9  2  0  0  0
  8 11  1  0  0  0
 11 12  2  0  0  0
 12 13  1  0  0  0
 13 14  2  0  0  0
 13 18  1  0  0  0
 14 15  1  0  0  0
 15 16  2  0  0  0
 16 17  1  0  0  0
 17 18  2  0  0  0
 28 30  1  0  0  0
  7 10  1  0  0  0
M  END
> <minimizedAffinity>
-11.88144

$$$$
4AG8_AXI_A_2000


 30 33  0  0  0  0  0  0  0  0999 V2000
   15.6876   27.2743   41.2297 C   0  0  0  0  0  0  0  0  0  0  0  0
   16.0363   25.9499   40.8467 C   0  0  0  0  0  0  0  0  0  0  0  0
   17.3717   25.6215   40.4290 C   0  0  0  0  0  0  0  0  0  0  0  0
   16.6771   28.3060   41.1869 C   0  0  0  0  0  0  0  0  0  0  0  0
   17.9676   27.9835   40.7734 C   0  0  0  0  0  0  0  0  0  0  0  0
   19.0984   28.7761   40.6574 N   0  0  0  0  0  0  0  0  0  0  0  0
   20.0904   28.0438   40.2768 N   0  0  0  0  0  0  0  0  0  0  0  0
   19.7288   26.8264   40.0920 C   0  0  0  0  0  0  0  0  0  0  0  0
   18.3178   26.6942   40.4043 C   0  0  0  0  0  0  0  0  0  0  0  0
   21.0076   28.3766   40.1451 H   0  0  0  0  0  0  0  0  0  0  0  0
   20.6992   25.7982   39.6824 C   0  0  0  0  0  0  0  0  0  0  0  0
   22.0252   25.9747   39.2850 C   0  0  0  0  0  0  0  0  0  0  0  0
   22.9281   24.8423   38.8865 C   0  0  0  0  0  0  0  0  0  0  0  0
   23.2080   24.7686   37.5684 N   0  0  0  0  0  0  0  0  0  0  0  0
   24.0166   23.7835   37.0855 C   0  0  0  0  0  0  0  0  0  0  0  0
   24.5732   22.8198   37.9444 C   0  0  0  0  0  0  0  0  0  0  0  0
   24.2900   22.8841   39.3206 C   0  0  0  0  0  0  0  0  0  0  0  0
   23.4477   23.9119   39.8195 C   0  0  0  0  0  0  0  0  0  0  0  0
   14.0663   27.6391   41.7472 S   0  0  0  0  0  0  0  0  0  0  0  0
   12.4215   25.5365   40.8586 C   0  0  0  0  0  0  0  0  0  0  0  0
   11.7369   24.3113   41.1108 C   0  0  0  0  0  0  0  0  0  0  0  0
   11.7761   23.6567   42.3674 C   0  0  0  0  0  0  0  0  0  0  0  0
   12.5393   24.2418   43.4002 C   0  0  0  0  0  0  0  0  0  0  0  0
   13.1967   26.1298   41.9124 C   0  0  0  0  0  0  0  0  0  0  0  0
   13.2208   25.4635   43.1816 C   0  0  0  0  0  0  0  0  0  0  0  0
   13.0295   25.6687   38.5828 O   0  0  0  0  0  0  0  0  0  0  0  0
   12.2914   26.1021   39.4885 C   0  0  0  0  0  0  0  0  0  0  0  0
   11.3699   27.0487   39.2289 N   0  0  0  0  0  0  0  0  0  0  0  0
   11.0783   27.5617   37.8928 C   0  0  0  0  0  0  0  0  0  0  0  0
   10.8611   27.4179   39.9865 H   0  0  0  0  0  0  0  0  0  0  0  0
 26 27  2  0  0  0
 27 28  1  0  0  0
 27 20  1  0  0  0
 28 29  1  0  0  0
 20 21  1  0  0  0
 20 24  2  0  0  0
 21 22  2  0  0  0
 22 23  1  0  0  0
 23 25  2  0  0  0
 24 25  1  0  0  0
 24 19  1  0  0  0
 19  1  1  0  0  0
  1  2  1  0  0  0
  1  4  2  0  0  0
  2  3  2  0  0  0
  3  9  1  0  0  0
  4  5  1  0  0  0
  5  6  2  0  0  0
  5  9  1  0  0  0
  6  7  1  0  0  0
  7  8  1  0  0  0
  8  9  2  0  0  0
  8 11  1  0  0  0
 11 12  2  0  0  0
 12 13  1  0  0  0
 13 14  2  0  0  0
 13 18  1  0  0  0
 14 15  1  0  0  0
 15 16  2  0  0  0
 16 17  1  0  0  0
 17 18  2  0  0  0
 28 30  1  0  0  0
  7 10  1  0  0  0
M  END
> <minimizedAffinity>
-10.07356

$$$$
4AG8_AXI_A_2000


 30 33  0  0  0  0  0  0  0  0999 V2000
   16.6331   26.7245   40.8947 C   0  0  0  0  0  0  0  0  0  0  0  0
   17.1934   25.4985   40.4416 C   0  0  0  0  0  0  0  0  0  0  0  0
   18.5587   25.4208   39.9994 C   0  0  0  0  0  0  0  0  0  0  0  0
   17.4348   27.9089   40.8992 C   0  0  0  0  0  0  0  0  0  0  0  0
   18.7549   27.8292   40.4617 C   0  0  0  0  0  0  0  0  0  0  0  0
   19.7348   28.8056   40.3799 N   0  0  0  0  0  0  0  0  0  0  0  0
   20.8299   28.2707   39.9560 N   0  0  0  0  0  0  0  0  0  0  0  0
   20.6749   27.0206   39.7107 C   0  0  0  0  0  0  0  0  0  0  0  0
   19.3109   26.6374   40.0243 C   0  0  0  0  0  0  0  0  0  0  0  0
   21.6762   28.7593   39.8360 H   0  0  0  0  0  0  0  0  0  0  0  0
   21.7981   26.1921   39.2425 C   0  0  0  0  0  0  0  0  0  0  0  0
   22.1313   24.8939   39.6308 C   0  0  0  0  0  0  0  0  0  0  0  0
   23.3093   24.1415   39.0807 C   0  0  0  0  0  0  0  0  0  0  0  0
   23.4211   24.1549   37.7359 N   0  0  0  0  0  0  0  0  0  0  0  0
   24.4494   23.5070   37.1194 C   0  0  0  0  0  0  0  0  0  0  0  0
   25.4131   22.8065   37.8658 C   0  0  0  0  0  0  0  0  0  0  0  0
   25.3092   22.7839   39.2682 C   0  0  0  0  0  0  0  0  0  0  0  0
   24.2369   23.4603   39.9064 C   0  0  0  0  0  0  0  0  0  0  0  0
   14.9814   26.7849   41.4403 S   0  0  0  0  0  0  0  0  0  0  0  0
   12.9670   24.8419   41.1518 C   0  0  0  0  0  0  0  0  0  0  0  0
   12.3193   23.8392   40.3717 C   0  0  0  0  0  0  0  0  0  0  0  0
   12.7394   23.4979   39.0617 C   0  0  0  0  0  0  0  0  0  0  0  0
   13.8349   24.1956   38.5100 C   0  0  0  0  0  0  0  0  0  0  0  0
   14.0825   25.5495   40.5875 C   0  0  0  0  0  0  0  0  0  0  0  0
   14.5040   25.1887   39.2655 C   0  0  0  0  0  0  0  0  0  0  0  0
   11.6324   26.0536   42.6739 O   0  0  0  0  0  0  0  0  0  0  0  0
   12.4096   25.0937   42.5081 C   0  0  0  0  0  0  0  0  0  0  0  0
   12.7210   24.2779   43.5329 N   0  0  0  0  0  0  0  0  0  0  0  0
   12.1179   24.3652   44.8603 C   0  0  0  0  0  0  0  0  0  0  0  0
   13.3972   23.5793   43.3780 H   0  0  0  0  0  0  0  0  0  0  0  0
 26 27  2  0  0  0
 27 28  1  0  0  0
 27 20  1  0  0  0
 28 29  1  0  0  0
 20 21  1  0  0  0
 20 24  2  0  0  0
 21 22  2  0  0  0
 22 23  1  0  0  0
 23 25  2  0  0  0
 24 25  1  0  0  0
 24 19  1  0  0  0
 19  1  1  0  0  0
  1  2  1  0  0  0
  1  4  2  0  0  0
  2  3  2  0  0  0
  3  9  1  0  0  0
  4  5  1  0  0  0
  5  6  2  0  0  0
  5  9  1  0  0  0
  6  7  1  0  0  0
  7  8  1  0  0  0
  8  9  2  0  0  0
  8 11  1  0  0  0
 11 12  2  0  0  0
 12 13  1  0  0  0
 13 14  2  0  0  0
 13 18  1  0  0  0
 14 15  1  0  0  0
 15 16  2  0  0  0
 16 17  1  0  0  0
 17 18  2  0  0  0
 28 30  1  0  0  0
  7 10  1  0  0  0
M  END
> <minimizedAffinity>
-9.63429

$$$$
4AG8_AXI_A_2000


 30 33  0  0  0  0  0  0  0  0999 V2000
   15.5005   26.9256   40.9904 C   0  0  0  0  0  0  0  0  0  0  0  0
   15.9917   25.6327   40.6595 C   0  0  0  0  0  0  0  0  0  0  0  0
   17.3864   25.4104   40.3930 C   0  0  0  0  0  0  0  0  0  0  0  0
   16.4049   28.0321   41.0467 C   0  0  0  0  0  0  0  0  0  0  0  0
   17.7542   27.8121   40.7794 C   0  0  0  0  0  0  0  0  0  0  0  0
   18.8253   28.6913   40.7806 N   0  0  0  0  0  0  0  0  0  0  0  0
   19.9073   28.0394   40.5170 N   0  0  0  0  0  0  0  0  0  0  0  0
   19.6645   26.7973   40.3045 C   0  0  0  0  0  0  0  0  0  0  0  0
   18.2426   26.5544   40.4621 C   0  0  0  0  0  0  0  0  0  0  0  0
   20.8045   28.4434   40.4833 H   0  0  0  0  0  0  0  0  0  0  0  0
   20.7515   25.8486   40.0124 C   0  0  0  0  0  0  0  0  0  0  0  0
   21.7641   25.9656   39.0594 C   0  0  0  0  0  0  0  0  0  0  0  0
   22.8281   24.9262   38.8497 C   0  0  0  0  0  0  0  0  0  0  0  0
   23.1487   24.2047   39.9441 N   0  0  0  0  0  0  0  0  0  0  0  0
   24.1007   23.2317   39.8784 C   0  0  0  0  0  0  0  0  0  0  0  0
   24.7741   22.9598   38.6747 C   0  0  0  0  0  0  0  0  0  0  0  0
   24.4504   23.7040   37.5260 C   0  0  0  0  0  0  0  0  0  0  0  0
   23.4579   24.7162   37.5985 C   0  0  0  0  0  0  0  0  0  0  0  0
   13.8087   27.1617   41.3247 S   0  0  0  0  0  0  0  0  0  0  0  0
   12.9492   27.1327   44.0035 C   0  0  0  0  0  0  0  0  0  0  0  0
   12.8754   27.7541   45.2849 C   0  0  0  0  0  0  0  0  0  0  0  0
   13.4635   29.0141   45.5600 C   0  0  0  0  0  0  0  0  0  0  0  0
   14.1616   29.6651   44.5207 C   0  0  0  0  0  0  0  0  0  0  0  0
   13.6598   27.7985   42.9475 C   0  0  0  0  0  0  0  0  0  0  0  0
   14.2419   29.0767   43.2353 C   0  0  0  0  0  0  0  0  0  0  0  0
   11.2109   25.7294   43.2451 O   0  0  0  0  0  0  0  0  0  0  0  0
   12.2877   25.8069   43.8674 C   0  0  0  0  0  0  0  0  0  0  0  0
   12.8611   24.7050   44.3868 N   0  0  0  0  0  0  0  0  0  0  0  0
   12.3574   23.3488   44.1859 C   0  0  0  0  0  0  0  0  0  0  0  0
   13.6700   24.8205   44.9359 H   0  0  0  0  0  0  0  0  0  0  0  0
 26 27  2  0  0  0
 27 28  1  0  0  0
 27 20  1  0  0  0
 28 29  1  0  0  0
 20 21  1  0  0  0
 20 24  2  0  0  0
 21 22  2  0  0  0
 22 23  1  0  0  0
 23 25  2  0  0  0
 24 25  1  0  0  0
 24 19  1  0  0  0
 19  1  1  0  0  0
  1  2  1  0  0  0
  1  4  2  0  0  0
  2  3  2  0  0  0
  3  9  1  0  0  0
  4  5  1  0  0  0
  5  6  2  0  0  0
  5  9  1  0  0  0
  6  7  1  0  0  0
  7  8  1  0  0  0
  8  9  2  0  0  0
  8 11  1  0  0  0
 11 12  2  0  0  0
 12 13  1  0  0  0
 13 14  2  0  0  0
 13 18  1  0  0  0
 14 15  1  0  0  0
 15 16  2  0  0  0
 16 17  1  0  0  0
 17 18  2  0  0  0
 28 30  1  0  0  0
  7 10  1  0  0  0
M  END
> <minimizedAffinity>
-9.37799

$$$$
4AG8_AXI_A_2000


 30 33  0  0  0  0  0  0  0  0999 V2000
   26.2826   22.5459   35.9438 C   0  0  0  0  0  0  0  0  0  0  0  0
   24.9985   23.0849   35.6554 C   0  0  0  0  0  0  0  0  0  0  0  0
   24.1288   23.5421   36.7043 C   0  0  0  0  0  0  0  0  0  0  0  0
   26.7161   22.4414   37.3027 C   0  0  0  0  0  0  0  0  0  0  0  0
   25.8656   22.8785   38.3156 C   0  0  0  0  0  0  0  0  0  0  0  0
   26.0433   22.9036   39.6897 N   0  0  0  0  0  0  0  0  0  0  0  0
   25.0050   23.4365   40.2403 N   0  0  0  0  0  0  0  0  0  0  0  0
   24.1200   23.7485   39.3649 C   0  0  0  0  0  0  0  0  0  0  0  0
   24.6151   23.4108   38.0433 C   0  0  0  0  0  0  0  0  0  0  0  0
   24.9046   23.5847   41.2084 H   0  0  0  0  0  0  0  0  0  0  0  0
   22.8587   24.3988   39.7562 C   0  0  0  0  0  0  0  0  0  0  0  0
   22.1109   25.3314   39.0363 C   0  0  0  0  0  0  0  0  0  0  0  0
   20.8289   25.9311   39.5397 C   0  0  0  0  0  0  0  0  0  0  0  0
   20.8782   27.2543   39.8002 N   0  0  0  0  0  0  0  0  0  0  0  0
   19.7770   27.9112   40.2621 C   0  0  0  0  0  0  0  0  0  0  0  0
   18.5681   27.2285   40.4830 C   0  0  0  0  0  0  0  0  0  0  0  0
   18.5022   25.8493   40.2159 C   0  0  0  0  0  0  0  0  0  0  0  0
   19.6511   25.1689   39.7346 C   0  0  0  0  0  0  0  0  0  0  0  0
   27.3212   22.0156   34.6518 S   0  0  0  0  0  0  0  0  0  0  0  0
   27.0604   22.5928   31.9104 C   0  0  0  0  0  0  0  0  0  0  0  0
   26.8395   23.5320   30.8605 C   0  0  0  0  0  0  0  0  0  0  0  0
   26.6165   24.9110   31.1009 C   0  0  0  0  0  0  0  0  0  0  0  0
   26.5990   25.3601   32.4386 C   0  0  0  0  0  0  0  0  0  0  0  0
   27.0429   23.0535   33.2709 C   0  0  0  0  0  0  0  0  0  0  0  0
   26.8260   24.4519   33.5008 C   0  0  0  0  0  0  0  0  0  0  0  0
   26.3199   20.5338   31.0280 O   0  0  0  0  0  0  0  0  0  0  0  0
   27.2750   21.1777   31.5037 C   0  0  0  0  0  0  0  0  0  0  0  0
   28.4913   20.6131   31.6237 N   0  0  0  0  0  0  0  0  0  0  0  0
   28.8277   19.2816   31.1266 C   0  0  0  0  0  0  0  0  0  0  0  0
   29.1978   21.1298   32.0745 H   0  0  0  0  0  0  0  0  0  0  0  0
 26 27  2  0  0  0
 27 28  1  0  0  0
 27 20  1  0  0  0
 28 29  1  0  0  0
 20 21  1  0  0  0
 20 24  2  0  0  0
 21 22  2  0  0  0
 22 23  1  0  0  0
 23 25  2  0  0  0
 24 25  1  0  0  0
 24 19  1  0  0  0
 19  1  1  0  0  0
  1  2  1  0  0  0
  1  4  2  0  0  0
  2  3  2  0  0  0
  3  9  1  0  0  0
  4  5  1  0  0  0
  5  6  2  0  0  0
  5  9  1  0  0  0
  6  7  1  0  0  0
  7  8  1  0  0  0
  8  9  2  0  0  0
  8 11  1  0  0  0
 11 12  2  0  0  0
 12 13  1  0  0  0
 13 14  2  0  0  0
 13 18  1  0  0  0
 14 15  1  0  0  0
 15 16  2  0  0  0
 16 17  1  0  0  0
 17 18  2  0  0  0
 28 30  1  0  0  0
  7 10  1  0  0  0
M  END
> <minimizedAffinity>
-9.35334

$$$$
4AG8_AXI_A_2000


 30 33  0  0  0  0  0  0  0  0999 V2000
   21.9563   23.8053   38.8379 C   0  0  0  0  0  0  0  0  0  0  0  0
   22.0934   23.8359   37.4228 C   0  0  0  0  0  0  0  0  0  0  0  0
   23.3615   23.5949   36.7909 C   0  0  0  0  0  0  0  0  0  0  0  0
   23.1019   23.5441   39.6533 C   0  0  0  0  0  0  0  0  0  0  0  0
   24.3301   23.3193   39.0356 C   0  0  0  0  0  0  0  0  0  0  0  0
   25.5713   23.0336   39.5813 N   0  0  0  0  0  0  0  0  0  0  0  0
   26.4220   22.8577   38.6271 N   0  0  0  0  0  0  0  0  0  0  0  0
   25.8774   23.0298   37.4779 C   0  0  0  0  0  0  0  0  0  0  0  0
   24.4715   23.3412   37.6570 C   0  0  0  0  0  0  0  0  0  0  0  0
   27.3681   22.6217   38.7634 H   0  0  0  0  0  0  0  0  0  0  0  0
   26.6483   22.8529   36.2363 C   0  0  0  0  0  0  0  0  0  0  0  0
   26.2996   22.1167   35.1034 C   0  0  0  0  0  0  0  0  0  0  0  0
   27.1724   22.0076   33.8856 C   0  0  0  0  0  0  0  0  0  0  0  0
   26.9685   22.9557   32.9472 N   0  0  0  0  0  0  0  0  0  0  0  0
   27.7002   22.9615   31.7974 C   0  0  0  0  0  0  0  0  0  0  0  0
   28.6784   21.9804   31.5585 C   0  0  0  0  0  0  0  0  0  0  0  0
   28.9016   20.9860   32.5278 C   0  0  0  0  0  0  0  0  0  0  0  0
   28.1378   20.9838   33.7241 C   0  0  0  0  0  0  0  0  0  0  0  0
   20.4043   24.0845   39.5748 S   0  0  0  0  0  0  0  0  0  0  0  0
   18.9255   26.4374   40.0136 C   0  0  0  0  0  0  0  0  0  0  0  0
   18.8666   27.8579   40.1248 C   0  0  0  0  0  0  0  0  0  0  0  0
   20.0079   28.6855   39.9779 C   0  0  0  0  0  0  0  0  0  0  0  0
   21.2515   28.0676   39.7266 C   0  0  0  0  0  0  0  0  0  0  0  0
   20.1928   25.8118   39.7568 C   0  0  0  0  0  0  0  0  0  0  0  0
   21.3380   26.6599   39.6005 C   0  0  0  0  0  0  0  0  0  0  0  0
   17.6353   24.6714   40.8984 O   0  0  0  0  0  0  0  0  0  0  0  0
   17.6454   25.7016   40.1974 C   0  0  0  0  0  0  0  0  0  0  0  0
   16.5112   26.1604   39.6354 N   0  0  0  0  0  0  0  0  0  0  0  0
   15.1901   25.5843   39.8719 C   0  0  0  0  0  0  0  0  0  0  0  0
   16.5764   26.9320   39.0274 H   0  0  0  0  0  0  0  0  0  0  0  0
 26 27  2  0  0  0
 27 28  1  0  0  0
 27 20  1  0  0  0
 28 29  1  0  0  0
 20 21  1  0  0  0
 20 24  2  0  0  0
 21 22  2  0  0  0
 22 23  1  0  0  0
 23 25  2  0  0  0
 24 25  1  0  0  0
 24 19  1  0  0  0
 19  1  1  0  0  0
  1  2  1  0  0  0
  1  4  2  0  0  0
  2  3  2  0  0  0
  3  9  1  0  0  0
  4  5  1  0  0  0
  5  6  2  0  0  0
  5  9  1  0  0  0
  6  7  1  0  0  0
  7  8  1  0  0  0
  8  9  2  0  0  0
  8 11  1  0  0  0
 11 12  2  0  0  0
 12 13  1  0  0  0
 13 14  2  0  0  0
 13 18  1  0  0  0
 14 15  1  0  0  0
 15 16  2  0  0  0
 16 17  1  0  0  0
 17 18  2  0  0  0
 28 30  1  0  0  0
  7 10  1  0  0  0
M  END
> <minimizedAffinity>
-9.34993

$$$$
4AG8_AXI_A_2000


 30 33  0  0  0  0  0  0  0  0999 V2000
   15.1775   26.9813   41.0095 C   0  0  0  0  0  0  0  0  0  0  0  0
   15.6437   25.7078   40.5815 C   0  0  0  0  0  0  0  0  0  0  0  0
   17.0358   25.4758   40.3099 C   0  0  0  0  0  0  0  0  0  0  0  0
   16.1053   28.0593   41.1605 C   0  0  0  0  0  0  0  0  0  0  0  0
   17.4521   27.8308   40.8878 C   0  0  0  0  0  0  0  0  0  0  0  0
   18.5420   28.6827   40.9672 N   0  0  0  0  0  0  0  0  0  0  0  0
   19.6121   28.0295   40.6619 N   0  0  0  0  0  0  0  0  0  0  0  0
   19.3444   26.8137   40.3500 C   0  0  0  0  0  0  0  0  0  0  0  0
   17.9160   26.5912   40.4762 C   0  0  0  0  0  0  0  0  0  0  0  0
   20.5182   28.4145   40.6676 H   0  0  0  0  0  0  0  0  0  0  0  0
   20.4134   25.8667   39.9929 C   0  0  0  0  0  0  0  0  0  0  0  0
   21.6072   26.1291   39.3198 C   0  0  0  0  0  0  0  0  0  0  0  0
   22.6314   25.0753   39.0086 C   0  0  0  0  0  0  0  0  0  0  0  0
   23.0179   24.3229   40.0602 N   0  0  0  0  0  0  0  0  0  0  0  0
   23.9425   23.3342   39.9025 C   0  0  0  0  0  0  0  0  0  0  0  0
   24.5188   23.0776   38.6462 C   0  0  0  0  0  0  0  0  0  0  0  0
   24.1257   23.8539   37.5413 C   0  0  0  0  0  0  0  0  0  0  0  0
   23.1621   24.8824   37.7096 C   0  0  0  0  0  0  0  0  0  0  0  0
   13.4880   27.2284   41.3473 S   0  0  0  0  0  0  0  0  0  0  0  0
   13.0533   27.8069   44.0662 C   0  0  0  0  0  0  0  0  0  0  0  0
   12.8462   27.3655   45.4063 C   0  0  0  0  0  0  0  0  0  0  0  0
   12.7987   25.9943   45.7622 C   0  0  0  0  0  0  0  0  0  0  0  0
   12.9482   25.0344   44.7387 C   0  0  0  0  0  0  0  0  0  0  0  0
   13.2061   26.8271   43.0269 C   0  0  0  0  0  0  0  0  0  0  0  0
   13.1659   25.4437   43.4008 C   0  0  0  0  0  0  0  0  0  0  0  0
   14.1691   29.8505   43.6854 O   0  0  0  0  0  0  0  0  0  0  0  0
   13.0737   29.2782   43.8455 C   0  0  0  0  0  0  0  0  0  0  0  0
   11.9220   29.9735   43.7929 N   0  0  0  0  0  0  0  0  0  0  0  0
   11.8367   31.3898   43.4466 C   0  0  0  0  0  0  0  0  0  0  0  0
   11.0855   29.4978   44.0007 H   0  0  0  0  0  0  0  0  0  0  0  0
 26 27  2  0  0  0
 27 28  1  0  0  0
 27 20  1  0  0  0
 28 29  1  0  0  0
 20 21  1  0  0  0
 20 24  2  0  0  0
 21 22  2  0  0  0
 22 23  1  0  0  0
 23 25  2  0  0  0
 24 25  1  0  0  0
 24 19  1  0  0  0
 19  1  1  0  0  0
  1  2  1  0  0  0
  1  4  2  0  0  0
  2  3  2  0  0  0
  3  9  1  0  0  0
  4  5  1  0  0  0
  5  6  2  0  0  0
  5  9  1  0  0  0
  6  7  1  0  0  0
  7  8  1  0  0  0
  8  9  2  0  0  0
  8 11  1  0  0  0
 11 12  2  0  0  0
 12 13  1  0  0  0
 13 14  2  0  0  0
 13 18  1  0  0  0
 14 15  1  0  0  0
 15 16  2  0  0  0
 16 17  1  0  0  0
 17 18  2  0  0  0
 28 30  1  0  0  0
  7 10  1  0  0  0
M  END
> <minimizedAffinity>
-9.30613

$$$$
4AG8_AXI_A_2000


 30 33  0  0  0  0  0  0  0  0999 V2000
   13.8171   26.8543   41.6887 C   0  0  0  0  0  0  0  0  0  0  0  0
   14.2334   25.6496   41.0580 C   0  0  0  0  0  0  0  0  0  0  0  0
   15.5553   25.5125   40.5108 C   0  0  0  0  0  0  0  0  0  0  0  0
   14.7223   27.9587   41.7702 C   0  0  0  0  0  0  0  0  0  0  0  0
   15.9994   27.8228   41.2307 C   0  0  0  0  0  0  0  0  0  0  0  0
   17.0572   28.7169   41.1898 N   0  0  0  0  0  0  0  0  0  0  0  0
   18.0700   28.1478   40.6280 N   0  0  0  0  0  0  0  0  0  0  0  0
   17.7863   26.9537   40.2529 C   0  0  0  0  0  0  0  0  0  0  0  0
   16.4156   26.6503   40.6198 C   0  0  0  0  0  0  0  0  0  0  0  0
   18.9481   28.5751   40.5031 H   0  0  0  0  0  0  0  0  0  0  0  0
   18.7973   26.0972   39.6117 C   0  0  0  0  0  0  0  0  0  0  0  0
   20.0186   25.6680   40.1329 C   0  0  0  0  0  0  0  0  0  0  0  0
   20.9766   24.7884   39.3812 C   0  0  0  0  0  0  0  0  0  0  0  0
   22.2783   24.9607   39.6926 N   0  0  0  0  0  0  0  0  0  0  0  0
   23.2422   24.2198   39.0766 C   0  0  0  0  0  0  0  0  0  0  0  0
   22.9064   23.2648   38.1012 C   0  0  0  0  0  0  0  0  0  0  0  0
   21.5537   23.0746   37.7665 C   0  0  0  0  0  0  0  0  0  0  0  0
   20.5528   23.8479   38.4106 C   0  0  0  0  0  0  0  0  0  0  0  0
   12.2155   26.9858   42.3574 S   0  0  0  0  0  0  0  0  0  0  0  0
   10.8656   27.7584   40.0128 C   0  0  0  0  0  0  0  0  0  0  0  0
   10.1342   28.7325   39.2714 C   0  0  0  0  0  0  0  0  0  0  0  0
    9.8212   30.0137   39.7906 C   0  0  0  0  0  0  0  0  0  0  0  0
   10.2420   30.3226   41.1017 C   0  0  0  0  0  0  0  0  0  0  0  0
   11.2933   28.0765   41.3468 C   0  0  0  0  0  0  0  0  0  0  0  0
   10.9792   29.3788   41.8572 C   0  0  0  0  0  0  0  0  0  0  0  0
   11.9823   26.3926   38.4463 O   0  0  0  0  0  0  0  0  0  0  0  0
   11.1136   26.4559   39.3375 C   0  0  0  0  0  0  0  0  0  0  0  0
   10.4267   25.3580   39.7056 N   0  0  0  0  0  0  0  0  0  0  0  0
   10.6967   24.0157   39.1974 C   0  0  0  0  0  0  0  0  0  0  0  0
    9.6973   25.4668   40.3578 H   0  0  0  0  0  0  0  0  0  0  0  0
 26 27  2  0  0  0
 27 28  1  0  0  0
 27 20  1  0  0  0
 28 29  1  0  0  0
 20 21  1  0  0  0
 20 24  2  0  0  0
 21 22  2  0  0  0
 22 23  1  0  0  0
 23 25  2  0  0  0
 24 25  1  0  0  0
 24 19  1  0  0  0
 19  1  1  0  0  0
  1  2  1  0  0  0
  1  4  2  0  0  0
  2  3  2  0  0  0
  3  9  1  0  0  0
  4  5  1  0  0  0
  5  6  2  0  0  0
  5  9  1  0  0  0
  6  7  1  0  0  0
  7  8  1  0  0  0
  8  9  2  0  0  0
  8 11  1  0  0  0
 11 12  2  0  0  0
 12 13  1  0  0  0
 13 14  2  0  0  0
 13 18  1  0  0  0
 14 15  1  0  0  0
 15 16  2  0  0  0
 16 17  1  0  0  0
 17 18  2  0  0  0
 28 30  1  0  0  0
  7 10  1  0  0  0
M  END
> <minimizedAffinity>
-9.13584

$$$$
4AG8_AXI_A_2000


 30 33  0  0  0  0  0  0  0  0999 V2000
   14.3779   27.3578   41.6837 C   0  0  0  0  0  0  0  0  0  0  0  0
   14.6396   26.0553   41.1764 C   0  0  0  0  0  0  0  0  0  0  0  0
   15.9299   25.7059   40.6485 C   0  0  0  0  0  0  0  0  0  0  0  0
   15.4105   28.3470   41.6575 C   0  0  0  0  0  0  0  0  0  0  0  0
   16.6566   28.0050   41.1371 C   0  0  0  0  0  0  0  0  0  0  0  0
   17.8142   28.7560   41.0103 N   0  0  0  0  0  0  0  0  0  0  0  0
   18.7453   28.0159   40.5100 N   0  0  0  0  0  0  0  0  0  0  0  0
   18.3160   26.8338   40.2543 C   0  0  0  0  0  0  0  0  0  0  0  0
   16.9222   26.7363   40.6463 C   0  0  0  0  0  0  0  0  0  0  0  0
   19.6673   28.3193   40.3454 H   0  0  0  0  0  0  0  0  0  0  0  0
   19.2099   25.8021   39.7034 C   0  0  0  0  0  0  0  0  0  0  0  0
   20.6011   25.7336   39.7875 C   0  0  0  0  0  0  0  0  0  0  0  0
   21.4137   24.6245   39.1824 C   0  0  0  0  0  0  0  0  0  0  0  0
   22.7512   24.7730   39.2827 N   0  0  0  0  0  0  0  0  0  0  0  0
   23.5934   23.8316   38.7711 C   0  0  0  0  0  0  0  0  0  0  0  0
   23.0920   22.6889   38.1235 C   0  0  0  0  0  0  0  0  0  0  0  0
   21.7001   22.5210   38.0115 C   0  0  0  0  0  0  0  0  0  0  0  0
   20.8264   23.5036   38.5461 C   0  0  0  0  0  0  0  0  0  0  0  0
   12.8104   27.7475   42.3323 S   0  0  0  0  0  0  0  0  0  0  0  0
   10.7708   29.1277   40.9718 C   0  0  0  0  0  0  0  0  0  0  0  0
    9.9264   29.2768   39.8324 C   0  0  0  0  0  0  0  0  0  0  0  0
    9.9826   28.4027   38.7180 C   0  0  0  0  0  0  0  0  0  0  0  0
   10.9269   27.3542   38.7401 C   0  0  0  0  0  0  0  0  0  0  0  0
   11.7303   28.0588   40.9915 C   0  0  0  0  0  0  0  0  0  0  0  0
   11.7709   27.1756   39.8629 C   0  0  0  0  0  0  0  0  0  0  0  0
    9.6832   29.9651   42.8907 O   0  0  0  0  0  0  0  0  0  0  0  0
   10.6000   30.1257   42.0622 C   0  0  0  0  0  0  0  0  0  0  0  0
   11.4427   31.1707   42.1649 N   0  0  0  0  0  0  0  0  0  0  0  0
   11.4369   32.1199   43.2750 C   0  0  0  0  0  0  0  0  0  0  0  0
   12.1036   31.3032   41.4475 H   0  0  0  0  0  0  0  0  0  0  0  0
 26 27  2  0  0  0
 27 28  1  0  0  0
 27 20  1  0  0  0
 28 29  1  0  0  0
 20 21  1  0  0  0
 20 24  2  0  0  0
 21 22  2  0  0  0
 22 23  1  0  0  0
 23 25  2  0  0  0
 24 25  1  0  0  0
 24 19  1  0  0  0
 19  1  1  0  0  0
  1  2  1  0  0  0
  1  4  2  0  0  0
  2  3  2  0  0  0
  3  9  1  0  0  0
  4  5  1  0  0  0
  5  6  2  0  0  0
  5  9  1  0  0  0
  6  7  1  0  0  0
  7  8  1  0  0  0
  8  9  2  0  0  0
  8 11  1  0  0  0
 11 12  2  0  0  0
 12 13  1  0  0  0
 13 14  2  0  0  0
 13 18  1  0  0  0
 14 15  1  0  0  0
 15 16  2  0  0  0
 16 17  1  0  0  0
 17 18  2  0  0  0
 28 30  1  0  0  0
  7 10  1  0  0  0
M  END
> <minimizedAffinity>
-8.96606

$$$$
