3IKD_J9Z_A_501


 27 29  0  0  0  0  0  0  0  0999 V2000
   14.4444    2.9973    1.8330 C   0  0  0  0  0  0  0  0  0  0  0  0
   14.5246    1.8543    0.8807 N   0  0  0  0  0  0  0  0  0  0  0  0
   12.5160    1.1952    1.5285 O   0  0  0  0  0  0  0  0  0  0  0  0
   13.4721    1.0428    0.7547 C   0  0  0  0  0  0  0  0  0  0  0  0
   15.3410    1.6999    0.3526 H   0  0  0  0  0  0  0  0  0  0  0  0
   14.6812   -0.5361   -1.1852 S   0  0  0  0  0  0  0  0  0  0  0  0
   11.6897   -3.0838   -1.1825 C   0  0  0  0  0  0  0  0  0  0  0  0
   12.0405   -4.1145   -2.0823 C   0  0  0  0  0  0  0  0  0  0  0  0
   13.2631   -4.0881   -2.7419 C   0  0  0  0  0  0  0  0  0  0  0  0
   14.1316   -3.0059   -2.5156 C   0  0  0  0  0  0  0  0  0  0  0  0
   13.8073   -1.9609   -1.6278 C   0  0  0  0  0  0  0  0  0  0  0  0
   12.5490   -2.0036   -0.9503 C   0  0  0  0  0  0  0  0  0  0  0  0
   12.3569   -0.8901   -0.0962 C   0  0  0  0  0  0  0  0  0  0  0  0
   13.4768   -0.0241   -0.1377 C   0  0  0  0  0  0  0  0  0  0  0  0
   15.1595    4.2440    1.2366 C   0  0  0  0  0  0  0  0  0  0  0  0
   13.5924    6.2081    1.1766 C   0  0  0  0  0  0  0  0  0  0  0  0
   13.2191    7.4874    1.5839 C   0  0  0  0  0  0  0  0  0  0  0  0
   13.9700    8.1560    2.5488 C   0  0  0  0  0  0  0  0  0  0  0  0
   15.0856    7.5198    3.1009 C   0  0  0  0  0  0  0  0  0  0  0  0
   15.4580    6.2395    2.6948 C   0  0  0  0  0  0  0  0  0  0  0  0
   14.7145    5.5740    1.7232 C   0  0  0  0  0  0  0  0  0  0  0  0
   15.0148    2.6347    3.2387 C   0  0  0  0  0  0  0  0  0  0  0  0
   16.3905    2.2407    2.9724 O   0  0  0  0  0  0  0  0  0  0  0  0
   16.8823    0.7425    3.2371 P   0  0  0  0  0  0  0  0  0  0  0  0
   18.4219    0.7844    3.2614 O   0  0  0  0  0  0  0  0  0  0  0  0
   16.5256    0.0351    1.9664 O   0  0  0  0  0  0  0  0  0  0  0  0
   16.4108    0.2537    4.5272 O   0  0  0  0  0  0  0  0  0  0  0  0
 16 17  2  0  0  0
 16 21  1  0  0  0
  2  1  1  0  0  0
  2  4  1  0  0  0
  3  4  2  0  0  0
 24 25  1  0  0  0
 24 23  1  0  0  0
 24 26  2  0  0  0
 24 27  1  0  0  0
 17 18  1  0  0  0
 18 19  2  0  0  0
 23 22  1  0  0  0
  6 11  1  0  0  0
  6 14  1  0  0  0
 19 20  1  0  0  0
 20 21  2  0  0  0
 21 15  1  0  0  0
 15  1  1  0  0  0
  1 22  1  0  0  0
  7  8  2  0  0  0
  7 12  1  0  0  0
  8  9  1  0  0  0
  9 10  2  0  0  0
 10 11  1  0  0  0
 11 12  2  0  0  0
 12 13  1  0  0  0
 13 14  2  0  0  0
 14  4  1  0  0  0
  2  5  1  0  0  0
M  CHG 1  25  -1
M  CHG 1  27  -1
M  END
> <minimizedAffinity>
-7.24675

$$$$
3IKD_J9Z_A_501


 27 29  0  0  0  0  0  0  0  0999 V2000
   15.1656    3.8720    1.9649 C   0  0  0  0  0  0  0  0  0  0  0  0
   13.8741    3.6148    1.2682 N   0  0  0  0  0  0  0  0  0  0  0  0
   12.8007    3.9390    3.1739 O   0  0  0  0  0  0  0  0  0  0  0  0
   12.7345    3.7394    1.9524 C   0  0  0  0  0  0  0  0  0  0  0  0
   13.8612    3.3569    0.3182 H   0  0  0  0  0  0  0  0  0  0  0  0
   10.8166    2.1308    0.7475 S   0  0  0  0  0  0  0  0  0  0  0  0
    8.2077    5.0674    0.6476 C   0  0  0  0  0  0  0  0  0  0  0  0
    7.0185    4.5286    0.1086 C   0  0  0  0  0  0  0  0  0  0  0  0
    6.9497    3.1865   -0.2443 C   0  0  0  0  0  0  0  0  0  0  0  0
    8.0913    2.3830   -0.0779 C   0  0  0  0  0  0  0  0  0  0  0  0
    9.2929    2.8931    0.4526 C   0  0  0  0  0  0  0  0  0  0  0  0
    9.3483    4.2743    0.8180 C   0  0  0  0  0  0  0  0  0  0  0  0
   10.6147    4.6472    1.3311 C   0  0  0  0  0  0  0  0  0  0  0  0
   11.4969    3.5394    1.3500 C   0  0  0  0  0  0  0  0  0  0  0  0
   15.7598    5.2356    1.5076 C   0  0  0  0  0  0  0  0  0  0  0  0
   15.4798    6.9402    3.3333 C   0  0  0  0  0  0  0  0  0  0  0  0
   14.8413    8.0506    3.8821 C   0  0  0  0  0  0  0  0  0  0  0  0
   13.8413    8.7026    3.1631 C   0  0  0  0  0  0  0  0  0  0  0  0
   13.5040    8.2318    1.8908 C   0  0  0  0  0  0  0  0  0  0  0  0
   14.1439    7.1221    1.3413 C   0  0  0  0  0  0  0  0  0  0  0  0
   15.1364    6.4632    2.0627 C   0  0  0  0  0  0  0  0  0  0  0  0
   16.1872    2.7113    1.7607 C   0  0  0  0  0  0  0  0  0  0  0  0
   16.2982    2.1006    3.0773 O   0  0  0  0  0  0  0  0  0  0  0  0
   16.9374    0.6461    3.2574 P   0  0  0  0  0  0  0  0  0  0  0  0
   18.4642    0.8228    3.1564 O   0  0  0  0  0  0  0  0  0  0  0  0
   16.5369   -0.0624    2.0004 O   0  0  0  0  0  0  0  0  0  0  0  0
   16.6201    0.0900    4.5672 O   0  0  0  0  0  0  0  0  0  0  0  0
 16 17  2  0  0  0
 16 21  1  0  0  0
  2  1  1  0  0  0
  2  4  1  0  0  0
  3  4  2  0  0  0
 24 25  1  0  0  0
 24 23  1  0  0  0
 24 26  2  0  0  0
 24 27  1  0  0  0
 17 18  1  0  0  0
 18 19  2  0  0  0
 23 22  1  0  0  0
  6 11  1  0  0  0
  6 14  1  0  0  0
 19 20  1  0  0  0
 20 21  2  0  0  0
 21 15  1  0  0  0
 15  1  1  0  0  0
  1 22  1  0  0  0
  7  8  2  0  0  0
  7 12  1  0  0  0
  8  9  1  0  0  0
  9 10  2  0  0  0
 10 11  1  0  0  0
 11 12  2  0  0  0
 12 13  1  0  0  0
 13 14  2  0  0  0
 14  4  1  0  0  0
  2  5  1  0  0  0
M  CHG 1  25  -1
M  CHG 1  27  -1
M  END
> <minimizedAffinity>
-7.21695

$$$$
3IKD_J9Z_A_501


 27 29  0  0  0  0  0  0  0  0999 V2000
   13.9726    3.2853    2.4438 C   0  0  0  0  0  0  0  0  0  0  0  0
   12.7413    3.3782    1.6101 N   0  0  0  0  0  0  0  0  0  0  0  0
   11.6366    4.1599    3.3586 O   0  0  0  0  0  0  0  0  0  0  0  0
   11.6341    3.8952    2.1478 C   0  0  0  0  0  0  0  0  0  0  0  0
   12.7440    3.0631    0.6774 H   0  0  0  0  0  0  0  0  0  0  0  0
    9.0514    4.8550    1.7925 S   0  0  0  0  0  0  0  0  0  0  0  0
    8.9069    3.5168   -1.8992 C   0  0  0  0  0  0  0  0  0  0  0  0
    7.6587    3.9202   -2.4229 C   0  0  0  0  0  0  0  0  0  0  0  0
    6.7777    4.6656   -1.6492 C   0  0  0  0  0  0  0  0  0  0  0  0
    7.1413    4.9889   -0.3302 C   0  0  0  0  0  0  0  0  0  0  0  0
    8.3772    4.5966    0.2214 C   0  0  0  0  0  0  0  0  0  0  0  0
    9.2775    3.8356   -0.5876 C   0  0  0  0  0  0  0  0  0  0  0  0
   10.4743    3.5093    0.0960 C   0  0  0  0  0  0  0  0  0  0  0  0
   10.4621    4.0335    1.4116 C   0  0  0  0  0  0  0  0  0  0  0  0
   14.9857    4.3915    2.0297 C   0  0  0  0  0  0  0  0  0  0  0  0
   14.0830    6.6239    1.3096 C   0  0  0  0  0  0  0  0  0  0  0  0
   13.7920    7.9636    1.5596 C   0  0  0  0  0  0  0  0  0  0  0  0
   14.0207    8.4996    2.8254 C   0  0  0  0  0  0  0  0  0  0  0  0
   14.5315    7.6725    3.8300 C   0  0  0  0  0  0  0  0  0  0  0  0
   14.8209    6.3321    3.5804 C   0  0  0  0  0  0  0  0  0  0  0  0
   14.6025    5.7974    2.3131 C   0  0  0  0  0  0  0  0  0  0  0  0
   14.6223    1.8688    2.3802 C   0  0  0  0  0  0  0  0  0  0  0  0
   15.8706    2.0178    3.1137 O   0  0  0  0  0  0  0  0  0  0  0  0
   16.9235    0.8174    3.1967 P   0  0  0  0  0  0  0  0  0  0  0  0
   16.5661   -0.1586    2.0599 O   0  0  0  0  0  0  0  0  0  0  0  0
   16.5392    0.1111    4.4601 O   0  0  0  0  0  0  0  0  0  0  0  0
   18.2848    1.2954    2.9873 O   0  0  0  0  0  0  0  0  0  0  0  0
 16 17  2  0  0  0
 16 21  1  0  0  0
  2  1  1  0  0  0
  2  4  1  0  0  0
  3  4  2  0  0  0
 24 25  1  0  0  0
 24 23  1  0  0  0
 24 26  2  0  0  0
 24 27  1  0  0  0
 17 18  1  0  0  0
 18 19  2  0  0  0
 23 22  1  0  0  0
  6 11  1  0  0  0
  6 14  1  0  0  0
 19 20  1  0  0  0
 20 21  2  0  0  0
 21 15  1  0  0  0
 15  1  1  0  0  0
  1 22  1  0  0  0
  7  8  2  0  0  0
  7 12  1  0  0  0
  8  9  1  0  0  0
  9 10  2  0  0  0
 10 11  1  0  0  0
 11 12  2  0  0  0
 12 13  1  0  0  0
 13 14  2  0  0  0
 14  4  1  0  0  0
  2  5  1  0  0  0
M  CHG 1  25  -1
M  CHG 1  27  -1
M  END
> <minimizedAffinity>
-7.19522

$$$$
3IKD_J9Z_A_501


 27 29  0  0  0  0  0  0  0  0999 V2000
   14.3940    3.5997    3.1785 C   0  0  0  0  0  0  0  0  0  0  0  0
   12.9376    3.7915    2.9296 N   0  0  0  0  0  0  0  0  0  0  0  0
   12.7033    4.5572    4.9906 O   0  0  0  0  0  0  0  0  0  0  0  0
   12.1858    4.3433    3.8848 C   0  0  0  0  0  0  0  0  0  0  0  0
   12.5360    3.5156    2.0742 H   0  0  0  0  0  0  0  0  0  0  0  0
    9.5335    4.1912    4.6971 S   0  0  0  0  0  0  0  0  0  0  0  0
    8.3240    6.3504    1.6450 C   0  0  0  0  0  0  0  0  0  0  0  0
    6.9309    6.5218    1.8026 C   0  0  0  0  0  0  0  0  0  0  0  0
    6.2745    5.9818    2.9017 C   0  0  0  0  0  0  0  0  0  0  0  0
    7.0176    5.2425    3.8387 C   0  0  0  0  0  0  0  0  0  0  0  0
    8.4071    5.0505    3.7057 C   0  0  0  0  0  0  0  0  0  0  0  0
    9.0716    5.6171    2.5737 C   0  0  0  0  0  0  0  0  0  0  0  0
   10.4609    5.3413    2.5686 C   0  0  0  0  0  0  0  0  0  0  0  0
   10.8264    4.5733    3.7010 C   0  0  0  0  0  0  0  0  0  0  0  0
   15.2185    4.6437    2.3713 C   0  0  0  0  0  0  0  0  0  0  0  0
   14.9696    6.9014    3.4474 C   0  0  0  0  0  0  0  0  0  0  0  0
   14.4399    8.1900    3.4775 C   0  0  0  0  0  0  0  0  0  0  0  0
   13.6455    8.6393    2.4244 C   0  0  0  0  0  0  0  0  0  0  0  0
   13.4033    7.7845    1.3451 C   0  0  0  0  0  0  0  0  0  0  0  0
   13.9345    6.4962    1.3142 C   0  0  0  0  0  0  0  0  0  0  0  0
   14.7203    6.0421    2.3707 C   0  0  0  0  0  0  0  0  0  0  0  0
   14.8592    2.1444    2.8646 C   0  0  0  0  0  0  0  0  0  0  0  0
   16.2510    2.1174    3.2900 O   0  0  0  0  0  0  0  0  0  0  0  0
   17.0897    0.7563    3.2716 P   0  0  0  0  0  0  0  0  0  0  0  0
   16.5797   -0.0567    2.0667 O   0  0  0  0  0  0  0  0  0  0  0  0
   16.5887    0.0286    4.4807 O   0  0  0  0  0  0  0  0  0  0  0  0
   18.5123    1.0168    3.0871 O   0  0  0  0  0  0  0  0  0  0  0  0
 16 17  2  0  0  0
 16 21  1  0  0  0
  2  1  1  0  0  0
  2  4  1  0  0  0
  3  4  2  0  0  0
 24 25  1  0  0  0
 24 23  1  0  0  0
 24 26  2  0  0  0
 24 27  1  0  0  0
 17 18  1  0  0  0
 18 19  2  0  0  0
 23 22  1  0  0  0
  6 11  1  0  0  0
  6 14  1  0  0  0
 19 20  1  0  0  0
 20 21  2  0  0  0
 21 15  1  0  0  0
 15  1  1  0  0  0
  1 22  1  0  0  0
  7  8  2  0  0  0
  7 12  1  0  0  0
  8  9  1  0  0  0
  9 10  2  0  0  0
 10 11  1  0  0  0
 11 12  2  0  0  0
 12 13  1  0  0  0
 13 14  2  0  0  0
 14  4  1  0  0  0
  2  5  1  0  0  0
M  CHG 1  25  -1
M  CHG 1  27  -1
M  END
> <minimizedAffinity>
-7.01991

$$$$
3IKD_J9Z_A_501


 27 29  0  0  0  0  0  0  0  0999 V2000
   15.1586    3.7285    1.9226 C   0  0  0  0  0  0  0  0  0  0  0  0
   13.7547    3.6439    1.4311 N   0  0  0  0  0  0  0  0  0  0  0  0
   13.0305    3.9296    3.5005 O   0  0  0  0  0  0  0  0  0  0  0  0
   12.7547    3.8252    2.2967 C   0  0  0  0  0  0  0  0  0  0  0  0
   13.5675    3.4572    0.4827 H   0  0  0  0  0  0  0  0  0  0  0  0
   10.4320    2.4646    1.6099 S   0  0  0  0  0  0  0  0  0  0  0  0
    8.3740    5.8036    1.3725 C   0  0  0  0  0  0  0  0  0  0  0  0
    7.0430    5.4337    1.0780 C   0  0  0  0  0  0  0  0  0  0  0  0
    6.6952    4.0944    0.9532 C   0  0  0  0  0  0  0  0  0  0  0  0
    7.6959    3.1179    1.1012 C   0  0  0  0  0  0  0  0  0  0  0  0
    9.0327    3.4564    1.3903 C   0  0  0  0  0  0  0  0  0  0  0  0
    9.3761    4.8380    1.5228 C   0  0  0  0  0  0  0  0  0  0  0  0
   10.7502    5.0284    1.8086 C   0  0  0  0  0  0  0  0  0  0  0  0
   11.4244    3.7857    1.8925 C   0  0  0  0  0  0  0  0  0  0  0  0
   15.7985    5.0792    1.4896 C   0  0  0  0  0  0  0  0  0  0  0  0
   15.5145    6.7829    3.3154 C   0  0  0  0  0  0  0  0  0  0  0  0
   14.8891    7.9060    3.8534 C   0  0  0  0  0  0  0  0  0  0  0  0
   13.9223    8.5841    3.1134 C   0  0  0  0  0  0  0  0  0  0  0  0
   13.6049    8.1261    1.8314 C   0  0  0  0  0  0  0  0  0  0  0  0
   14.2317    7.0038    1.2925 C   0  0  0  0  0  0  0  0  0  0  0  0
   15.1908    6.3190    2.0348 C   0  0  0  0  0  0  0  0  0  0  0  0
   16.0214    2.5164    1.4544 C   0  0  0  0  0  0  0  0  0  0  0  0
   15.3540    2.0511    0.2474 O   0  0  0  0  0  0  0  0  0  0  0  0
   14.7532    0.5721    0.1586 P   0  0  0  0  0  0  0  0  0  0  0  0
   13.6127    0.4994    1.1914 O   0  0  0  0  0  0  0  0  0  0  0  0
   15.8506   -0.2780    0.7203 O   0  0  0  0  0  0  0  0  0  0  0  0
   14.1994    0.3072   -1.1638 O   0  0  0  0  0  0  0  0  0  0  0  0
 16 17  2  0  0  0
 16 21  1  0  0  0
  2  1  1  0  0  0
  2  4  1  0  0  0
  3  4  2  0  0  0
 24 25  1  0  0  0
 24 23  1  0  0  0
 24 26  2  0  0  0
 24 27  1  0  0  0
 17 18  1  0  0  0
 18 19  2  0  0  0
 23 22  1  0  0  0
  6 11  1  0  0  0
  6 14  1  0  0  0
 19 20  1  0  0  0
 20 21  2  0  0  0
 21 15  1  0  0  0
 15  1  1  0  0  0
  1 22  1  0  0  0
  7  8  2  0  0  0
  7 12  1  0  0  0
  8  9  1  0  0  0
  9 10  2  0  0  0
 10 11  1  0  0  0
 11 12  2  0  0  0
 12 13  1  0  0  0
 13 14  2  0  0  0
 14  4  1  0  0  0
  2  5  1  0  0  0
M  CHG 1  25  -1
M  CHG 1  27  -1
M  END
> <minimizedAffinity>
-6.86879

$$$$
3IKD_J9Z_A_501


 27 29  0  0  0  0  0  0  0  0999 V2000
   13.9799    3.2148    2.5838 C   0  0  0  0  0  0  0  0  0  0  0  0
   12.7743    3.3477    1.7187 N   0  0  0  0  0  0  0  0  0  0  0  0
   11.6062    4.0067    3.4765 O   0  0  0  0  0  0  0  0  0  0  0  0
   11.6447    3.8189    2.2520 C   0  0  0  0  0  0  0  0  0  0  0  0
   12.8100    3.0922    0.7686 H   0  0  0  0  0  0  0  0  0  0  0  0
    9.1057    4.8650    1.8319 S   0  0  0  0  0  0  0  0  0  0  0  0
    8.9957    3.5012   -1.8516 C   0  0  0  0  0  0  0  0  0  0  0  0
    7.7742    3.9433   -2.4062 C   0  0  0  0  0  0  0  0  0  0  0  0
    6.9030    4.7256   -1.6581 C   0  0  0  0  0  0  0  0  0  0  0  0
    7.2486    5.0473   -0.3338 C   0  0  0  0  0  0  0  0  0  0  0  0
    8.4575    4.6168    0.2481 C   0  0  0  0  0  0  0  0  0  0  0  0
    9.3482    3.8181   -0.5347 C   0  0  0  0  0  0  0  0  0  0  0  0
   10.5175    3.4561    0.1780 C   0  0  0  0  0  0  0  0  0  0  0  0
   10.4948    3.9916    1.4889 C   0  0  0  0  0  0  0  0  0  0  0  0
   15.0227    4.3120    2.2234 C   0  0  0  0  0  0  0  0  0  0  0  0
   14.1965    6.5119    1.3318 C   0  0  0  0  0  0  0  0  0  0  0  0
   13.8777    7.8579    1.5012 C   0  0  0  0  0  0  0  0  0  0  0  0
   13.9697    8.4400    2.7640 C   0  0  0  0  0  0  0  0  0  0  0  0
   14.3730    7.6523    3.8461 C   0  0  0  0  0  0  0  0  0  0  0  0
   14.6903    6.3056    3.6770 C   0  0  0  0  0  0  0  0  0  0  0  0
   14.6086    5.7248    2.4138 C   0  0  0  0  0  0  0  0  0  0  0  0
   14.6072    1.7889    2.5059 C   0  0  0  0  0  0  0  0  0  0  0  0
   14.0057    1.2011    1.3179 O   0  0  0  0  0  0  0  0  0  0  0  0
   14.9148    0.6350    0.1307 P   0  0  0  0  0  0  0  0  0  0  0  0
   15.8665    1.7763   -0.2750 O   0  0  0  0  0  0  0  0  0  0  0  0
   13.9495    0.5015   -1.0064 O   0  0  0  0  0  0  0  0  0  0  0  0
   15.7143   -0.5003    0.5750 O   0  0  0  0  0  0  0  0  0  0  0  0
 16 17  2  0  0  0
 16 21  1  0  0  0
  2  1  1  0  0  0
  2  4  1  0  0  0
  3  4  2  0  0  0
 24 25  1  0  0  0
 24 23  1  0  0  0
 24 26  2  0  0  0
 24 27  1  0  0  0
 17 18  1  0  0  0
 18 19  2  0  0  0
 23 22  1  0  0  0
  6 11  1  0  0  0
  6 14  1  0  0  0
 19 20  1  0  0  0
 20 21  2  0  0  0
 21 15  1  0  0  0
 15  1  1  0  0  0
  1 22  1  0  0  0
  7  8  2  0  0  0
  7 12  1  0  0  0
  8  9  1  0  0  0
  9 10  2  0  0  0
 10 11  1  0  0  0
 11 12  2  0  0  0
 12 13  1  0  0  0
 13 14  2  0  0  0
 14  4  1  0  0  0
  2  5  1  0  0  0
M  CHG 1  25  -1
M  CHG 1  27  -1
M  END
> <minimizedAffinity>
-6.82118

$$$$
3IKD_J9Z_A_501


 27 29  0  0  0  0  0  0  0  0999 V2000
   13.4773    3.3847    3.2151 C   0  0  0  0  0  0  0  0  0  0  0  0
   13.9420    2.2462    2.3738 N   0  0  0  0  0  0  0  0  0  0  0  0
   12.2654    2.6137    0.9799 O   0  0  0  0  0  0  0  0  0  0  0  0
   13.3016    1.9822    1.2326 C   0  0  0  0  0  0  0  0  0  0  0  0
   14.7093    1.6973    2.6551 H   0  0  0  0  0  0  0  0  0  0  0  0
   15.2223    0.6185   -0.2402 S   0  0  0  0  0  0  0  0  0  0  0  0
   12.7069   -2.2698   -1.1181 C   0  0  0  0  0  0  0  0  0  0  0  0
   13.4360   -3.2236   -1.8621 C   0  0  0  0  0  0  0  0  0  0  0  0
   14.7870   -3.0307   -2.1230 C   0  0  0  0  0  0  0  0  0  0  0  0
   15.4069   -1.8590   -1.6544 C   0  0  0  0  0  0  0  0  0  0  0  0
   14.7046   -0.8874   -0.9139 C   0  0  0  0  0  0  0  0  0  0  0  0
   13.3164   -1.1013   -0.6466 C   0  0  0  0  0  0  0  0  0  0  0  0
   12.7409   -0.0449    0.1010 C   0  0  0  0  0  0  0  0  0  0  0  0
   13.7056    0.9505    0.3918 C   0  0  0  0  0  0  0  0  0  0  0  0
   14.6067    4.4463    3.3527 C   0  0  0  0  0  0  0  0  0  0  0  0
   14.6974    6.9466    3.5930 C   0  0  0  0  0  0  0  0  0  0  0  0
   14.3529    8.2289    3.1702 C   0  0  0  0  0  0  0  0  0  0  0  0
   13.6066    8.3994    2.0057 C   0  0  0  0  0  0  0  0  0  0  0  0
   13.2248    7.2713    1.2737 C   0  0  0  0  0  0  0  0  0  0  0  0
   13.5709    5.9887    1.6957 C   0  0  0  0  0  0  0  0  0  0  0  0
   14.3080    5.8161    2.8647 C   0  0  0  0  0  0  0  0  0  0  0  0
   12.9667    2.9156    4.6122 C   0  0  0  0  0  0  0  0  0  0  0  0
   12.4878    4.1368    5.2432 O   0  0  0  0  0  0  0  0  0  0  0  0
   12.8918    4.4975    6.7476 P   0  0  0  0  0  0  0  0  0  0  0  0
   13.1052    3.1579    7.4773 O   0  0  0  0  0  0  0  0  0  0  0  0
   11.6263    5.0609    7.3165 O   0  0  0  0  0  0  0  0  0  0  0  0
   14.1375    5.2536    6.7915 O   0  0  0  0  0  0  0  0  0  0  0  0
 16 17  2  0  0  0
 16 21  1  0  0  0
  2  1  1  0  0  0
  2  4  1  0  0  0
  3  4  2  0  0  0
 24 25  1  0  0  0
 24 23  1  0  0  0
 24 26  2  0  0  0
 24 27  1  0  0  0
 17 18  1  0  0  0
 18 19  2  0  0  0
 23 22  1  0  0  0
  6 11  1  0  0  0
  6 14  1  0  0  0
 19 20  1  0  0  0
 20 21  2  0  0  0
 21 15  1  0  0  0
 15  1  1  0  0  0
  1 22  1  0  0  0
  7  8  2  0  0  0
  7 12  1  0  0  0
  8  9  1  0  0  0
  9 10  2  0  0  0
 10 11  1  0  0  0
 11 12  2  0  0  0
 12 13  1  0  0  0
 13 14  2  0  0  0
 14  4  1  0  0  0
  2  5  1  0  0  0
M  CHG 1  25  -1
M  CHG 1  27  -1
M  END
> <minimizedAffinity>
-6.47044

$$$$
3IKD_J9Z_A_501


 27 29  0  0  0  0  0  0  0  0999 V2000
   14.1404    4.4676    2.5731 C   0  0  0  0  0  0  0  0  0  0  0  0
   12.8163    4.8195    3.1585 N   0  0  0  0  0  0  0  0  0  0  0  0
   11.9610    4.9180    1.1219 O   0  0  0  0  0  0  0  0  0  0  0  0
   11.7668    4.9596    2.3454 C   0  0  0  0  0  0  0  0  0  0  0  0
   12.7168    4.9466    4.1296 H   0  0  0  0  0  0  0  0  0  0  0  0
    9.9356    5.2551    4.4135 S   0  0  0  0  0  0  0  0  0  0  0  0
    7.2042    6.6945    1.9829 C   0  0  0  0  0  0  0  0  0  0  0  0
    6.0893    7.0258    2.7843 C   0  0  0  0  0  0  0  0  0  0  0  0
    6.1293    6.8360    4.1602 C   0  0  0  0  0  0  0  0  0  0  0  0
    7.2889    6.2865    4.7347 C   0  0  0  0  0  0  0  0  0  0  0  0
    8.4147    5.9418    3.9607 C   0  0  0  0  0  0  0  0  0  0  0  0
    8.3630    6.1484    2.5469 C   0  0  0  0  0  0  0  0  0  0  0  0
    9.5594    5.7545    1.8990 C   0  0  0  0  0  0  0  0  0  0  0  0
   10.5001    5.2599    2.8351 C   0  0  0  0  0  0  0  0  0  0  0  0
   14.4305    2.9521    2.7742 C   0  0  0  0  0  0  0  0  0  0  0  0
   13.2060    1.4353    1.1877 C   0  0  0  0  0  0  0  0  0  0  0  0
   13.1830    0.5698    0.0958 C   0  0  0  0  0  0  0  0  0  0  0  0
   14.3471    0.3439   -0.6363 C   0  0  0  0  0  0  0  0  0  0  0  0
   15.5215    1.0043   -0.2636 C   0  0  0  0  0  0  0  0  0  0  0  0
   15.5441    1.8713    0.8276 C   0  0  0  0  0  0  0  0  0  0  0  0
   14.3839    2.0903    1.5664 C   0  0  0  0  0  0  0  0  0  0  0  0
   15.2924    5.3469    3.1498 C   0  0  0  0  0  0  0  0  0  0  0  0
   14.6063    6.3484    3.9529 O   0  0  0  0  0  0  0  0  0  0  0  0
   15.0093    7.8929    3.8607 P   0  0  0  0  0  0  0  0  0  0  0  0
   14.3752    8.5850    5.0820 O   0  0  0  0  0  0  0  0  0  0  0  0
   14.2286    8.3809    2.6796 O   0  0  0  0  0  0  0  0  0  0  0  0
   16.4555    8.0648    3.9287 O   0  0  0  0  0  0  0  0  0  0  0  0
 16 17  2  0  0  0
 16 21  1  0  0  0
  2  1  1  0  0  0
  2  4  1  0  0  0
  3  4  2  0  0  0
 24 25  1  0  0  0
 24 23  1  0  0  0
 24 26  2  0  0  0
 24 27  1  0  0  0
 17 18  1  0  0  0
 18 19  2  0  0  0
 23 22  1  0  0  0
  6 11  1  0  0  0
  6 14  1  0  0  0
 19 20  1  0  0  0
 20 21  2  0  0  0
 21 15  1  0  0  0
 15  1  1  0  0  0
  1 22  1  0  0  0
  7  8  2  0  0  0
  7 12  1  0  0  0
  8  9  1  0  0  0
  9 10  2  0  0  0
 10 11  1  0  0  0
 11 12  2  0  0  0
 12 13  1  0  0  0
 13 14  2  0  0  0
 14  4  1  0  0  0
  2  5  1  0  0  0
M  CHG 1  25  -1
M  CHG 1  27  -1
M  END
> <minimizedAffinity>
-5.99252

$$$$
3IKD_J9Z_A_501


 27 29  0  0  0  0  0  0  0  0999 V2000
   11.1990    4.3389    2.0300 C   0  0  0  0  0  0  0  0  0  0  0  0
    9.9889    5.1939    2.1854 N   0  0  0  0  0  0  0  0  0  0  0  0
    9.8793    4.6223    4.3184 O   0  0  0  0  0  0  0  0  0  0  0  0
    9.4387    5.3218    3.3949 C   0  0  0  0  0  0  0  0  0  0  0  0
    9.6010    5.6574    1.4082 H   0  0  0  0  0  0  0  0  0  0  0  0
    7.1674    6.6605    2.5190 S   0  0  0  0  0  0  0  0  0  0  0  0
    6.1744    7.6725    6.1837 C   0  0  0  0  0  0  0  0  0  0  0  0
    4.9452    8.3619    6.0898 C   0  0  0  0  0  0  0  0  0  0  0  0
    4.3290    8.5388    4.8571 C   0  0  0  0  0  0  0  0  0  0  0  0
    4.9632    8.0411    3.7052 C   0  0  0  0  0  0  0  0  0  0  0  0
    6.1916    7.3538    3.7668 C   0  0  0  0  0  0  0  0  0  0  0  0
    6.8118    7.1726    5.0422 C   0  0  0  0  0  0  0  0  0  0  0  0
    8.0388    6.4708    4.9518 C   0  0  0  0  0  0  0  0  0  0  0  0
    8.3252    6.1276    3.6079 C   0  0  0  0  0  0  0  0  0  0  0  0
   12.3440    5.1471    1.3538 C   0  0  0  0  0  0  0  0  0  0  0  0
   13.3121    7.4514    1.6189 C   0  0  0  0  0  0  0  0  0  0  0  0
   13.9896    8.4149    2.3637 C   0  0  0  0  0  0  0  0  0  0  0  0
   14.3655    8.1400    3.6771 C   0  0  0  0  0  0  0  0  0  0  0  0
   14.0430    6.8966    4.2287 C   0  0  0  0  0  0  0  0  0  0  0  0
   13.3639    5.9335    3.4843 C   0  0  0  0  0  0  0  0  0  0  0  0
   12.9964    6.2030    2.1682 C   0  0  0  0  0  0  0  0  0  0  0  0
   10.8954    3.0236    1.2486 C   0  0  0  0  0  0  0  0  0  0  0  0
   10.4973    3.4809   -0.0746 O   0  0  0  0  0  0  0  0  0  0  0  0
    9.0716    3.0912   -0.6845 P   0  0  0  0  0  0  0  0  0  0  0  0
    8.8583    1.5965   -0.3797 O   0  0  0  0  0  0  0  0  0  0  0  0
    9.2994    3.1651   -2.1628 O   0  0  0  0  0  0  0  0  0  0  0  0
    8.0017    3.8517   -0.0501 O   0  0  0  0  0  0  0  0  0  0  0  0
 16 17  2  0  0  0
 16 21  1  0  0  0
  2  1  1  0  0  0
  2  4  1  0  0  0
  3  4  2  0  0  0
 24 25  1  0  0  0
 24 23  1  0  0  0
 24 26  2  0  0  0
 24 27  1  0  0  0
 17 18  1  0  0  0
 18 19  2  0  0  0
 23 22  1  0  0  0
  6 11  1  0  0  0
  6 14  1  0  0  0
 19 20  1  0  0  0
 20 21  2  0  0  0
 21 15  1  0  0  0
 15  1  1  0  0  0
  1 22  1  0  0  0
  7  8  2  0  0  0
  7 12  1  0  0  0
  8  9  1  0  0  0
  9 10  2  0  0  0
 10 11  1  0  0  0
 11 12  2  0  0  0
 12 13  1  0  0  0
 13 14  2  0  0  0
 14  4  1  0  0  0
  2  5  1  0  0  0
M  CHG 1  25  -1
M  CHG 1  27  -1
M  END
> <minimizedAffinity>
-5.92750

$$$$
3IKD_J9Z_A_501


 27 29  0  0  0  0  0  0  0  0999 V2000
   12.1913    4.4930    1.6404 C   0  0  0  0  0  0  0  0  0  0  0  0
   11.2200    5.1336    2.5708 N   0  0  0  0  0  0  0  0  0  0  0  0
    9.5993    4.7497    1.1166 O   0  0  0  0  0  0  0  0  0  0  0  0
    9.9261    5.1521    2.2424 C   0  0  0  0  0  0  0  0  0  0  0  0
   11.5274    5.5370    3.4147 H   0  0  0  0  0  0  0  0  0  0  0  0
    8.8734    5.6920    4.7561 S   0  0  0  0  0  0  0  0  0  0  0  0
    6.0763    8.0029    3.2474 C   0  0  0  0  0  0  0  0  0  0  0  0
    5.3519    8.5225    4.3430 C   0  0  0  0  0  0  0  0  0  0  0  0
    5.7109    8.1940    5.6444 C   0  0  0  0  0  0  0  0  0  0  0  0
    6.7909    7.3174    5.8485 C   0  0  0  0  0  0  0  0  0  0  0  0
    7.5292    6.7794    4.7756 C   0  0  0  0  0  0  0  0  0  0  0  0
    7.1536    7.1307    3.4416 C   0  0  0  0  0  0  0  0  0  0  0  0
    7.9781    6.5152    2.4681 C   0  0  0  0  0  0  0  0  0  0  0  0
    8.9686    5.7107    3.0825 C   0  0  0  0  0  0  0  0  0  0  0  0
   12.7439    3.1783    2.2630 C   0  0  0  0  0  0  0  0  0  0  0  0
   14.8672    2.2716    1.2698 C   0  0  0  0  0  0  0  0  0  0  0  0
   15.5427    1.4553    0.3646 C   0  0  0  0  0  0  0  0  0  0  0  0
   14.8243    0.6066   -0.4755 C   0  0  0  0  0  0  0  0  0  0  0  0
   13.4296    0.5835   -0.3845 C   0  0  0  0  0  0  0  0  0  0  0  0
   12.7541    1.3989    0.5220 C   0  0  0  0  0  0  0  0  0  0  0  0
   13.4700    2.2550    1.3552 C   0  0  0  0  0  0  0  0  0  0  0  0
   13.3475    5.4594    1.2378 C   0  0  0  0  0  0  0  0  0  0  0  0
   13.7939    6.0248    2.5026 O   0  0  0  0  0  0  0  0  0  0  0  0
   15.3171    5.8922    2.9701 P   0  0  0  0  0  0  0  0  0  0  0  0
   15.3460    4.8131    4.0690 O   0  0  0  0  0  0  0  0  0  0  0  0
   15.5719    7.1863    3.6793 O   0  0  0  0  0  0  0  0  0  0  0  0
   16.1697    5.4575    1.8702 O   0  0  0  0  0  0  0  0  0  0  0  0
 16 17  2  0  0  0
 16 21  1  0  0  0
  2  1  1  0  0  0
  2  4  1  0  0  0
  3  4  2  0  0  0
 24 25  1  0  0  0
 24 23  1  0  0  0
 24 26  2  0  0  0
 24 27  1  0  0  0
 17 18  1  0  0  0
 18 19  2  0  0  0
 23 22  1  0  0  0
  6 11  1  0  0  0
  6 14  1  0  0  0
 19 20  1  0  0  0
 20 21  2  0  0  0
 21 15  1  0  0  0
 15  1  1  0  0  0
  1 22  1  0  0  0
  7  8  2  0  0  0
  7 12  1  0  0  0
  8  9  1  0  0  0
  9 10  2  0  0  0
 10 11  1  0  0  0
 11 12  2  0  0  0
 12 13  1  0  0  0
 13 14  2  0  0  0
 14  4  1  0  0  0
  2  5  1  0  0  0
M  CHG 1  25  -1
M  CHG 1  27  -1
M  END
> <minimizedAffinity>
-5.83230

$$$$
