2W9H_TOP_A_1160
  RCSB PDB12061707123D
Coordinates from PDB:2W9H:A:1160 Model:1 without hydrogens
 21 22  0  0  0  0            999 V2000
    7.0800   -4.2930   14.7190   C 0  0  0  0  0  0  0  0  0  0  0  0
    6.0010   -3.8790   14.0780   N 0  0  0  0  0  0  0  0  0  0  0  0
    6.0670   -2.8760   13.2410   C 0  0  0  0  0  0  0  0  0  0  0  0
    4.9790   -2.5240   12.5840   N 0  0  0  0  0  0  0  0  0  0  0  0
    7.1920   -2.2280   13.0720   N 0  0  0  0  0  0  0  0  0  0  0  0
    8.2800   -2.5070   13.7140   C 0  0  0  0  0  0  0  0  0  0  0  0
    9.3950   -1.8170   13.5620   N 0  0  0  0  0  0  0  0  0  0  0  0
    8.2590   -3.6500   14.6160   C 0  0  0  0  0  0  0  0  0  0  0  0
    9.5350   -4.0470   15.3400   C 0  0  0  0  0  0  0  0  0  0  0  0
    9.5490   -5.2960   16.2120   C 0  0  0  0  0  0  0  0  0  0  0  0
    9.8030   -5.1980   17.5710   C 0  0  0  0  0  0  0  0  0  0  0  0
    9.8280   -6.3630   18.3910   C 0  0  0  0  0  0  0  0  0  0  0  0
   10.0770   -6.3160   19.7210   O 0  0  0  0  0  0  0  0  0  0  0  0
   10.4380   -5.1920   20.3750   C 0  0  0  0  0  0  0  0  0  0  0  0
    9.5530   -7.5160   17.8150   C 0  0  0  0  0  0  0  0  0  0  0  0
    9.4900   -8.6780   18.5090   O 0  0  0  0  0  0  0  0  0  0  0  0
    8.4000   -9.5670   18.2700   C 0  0  0  0  0  0  0  0  0  0  0  0
    9.2980   -7.6260   16.5000   C 0  0  0  0  0  0  0  0  0  0  0  0
    9.0550   -8.8040   15.9850   O 0  0  0  0  0  0  0  0  0  0  0  0
    9.0340   -9.0900   14.6430   C 0  0  0  0  0  0  0  0  0  0  0  0
    9.3050   -6.5000   15.6680   C 0  0  0  0  0  0  0  0  0  0  0  0
  1  2  2  0  0  0  0
  1  8  1  0  0  0  0
  2  3  1  0  0  0  0
  3  4  1  0  0  0  0
  3  5  2  0  0  0  0
  5  6  1  0  0  0  0
  6  7  1  0  0  0  0
  6  8  2  0  0  0  0
  8  9  1  0  0  0  0
  9 10  1  0  0  0  0
 10 11  2  0  0  0  0
 10 21  1  0  0  0  0
 11 12  1  0  0  0  0
 12 13  1  0  0  0  0
 12 15  2  0  0  0  0
 13 14  1  0  0  0  0
 15 16  1  0  0  0  0
 15 18  1  0  0  0  0
 16 17  1  0  0  0  0
 18 19  1  0  0  0  0
 18 21  2  0  0  0  0
 19 20  1  0  0  0  0
A    1
C1
A    2
N2
A    3
C3
A    4
N4
A    5
N5
A    6
C6
A    7
N7
A    8
C8
A    9
C9
A   10
C10
A   11
C11
A   12
C12
A   13
O13
A   14
C14
A   15
C15
A   16
O16
A   17
C17
A   18
C18
A   19
O19
A   20
C20
A   21
C21
M  END
>  <InstanceId>
2W9H_TOP_A_1160

>  <ChemCompId>
TOP

>  <PdbId>
2W9H

>  <ChainId>
A

>  <ResidueNumber>
1160

>  <InsertionCode>


>  <Model>
1

>  <AltIds>


>  <MissingHeavyAtoms>
0

>  <ObservedFormula>
C14 N4 O3

>  <Name>
TRIMETHOPRIM

>  <SystematicName>
5-[(3,4,5-trimethoxyphenyl)methyl]pyrimidine-2,4-diamine

>  <Synonyms>


>  <Type>
NON-POLYMER

>  <Formula>
C14 H18 N4 O3

>  <MolecularWeight>
290.318

>  <ModifiedDate>
2011-06-04

>  <Parent>


>  <OneLetterCode>


>  <SubcomponentList>


>  <AmbiguousFlag>
N

>  <InChI>
InChI=1S/C14H18N4O3/c1-19-10-5-8(6-11(20-2)12(10)21-3)4-9-7-17-14(16)18-13(9)15/h5-7H,4H2,1-3H3,(H4,15,16,17,18)

>  <InChIKey>
IEDVJHCEMCRBQM-UHFFFAOYSA-N

>  <SMILES>
COc1cc(cc(c1OC)OC)Cc2cnc(nc2N)N

$$$$
