4WN5_MVC_A_402


 27 26  0  0  0  0  0  0  0  0999 V2000
    7.4981  -32.8956   -9.5651 C   0  0  0  0  0  0  0  0  0  0  0  0
    6.5082  -33.2435  -10.6872 C   0  0  0  0  0  0  0  0  0  0  0  0
    7.2053  -33.8091  -11.9156 C   0  0  0  0  0  0  0  0  0  0  0  0
    6.7289  -35.2102  -12.2111 C   0  0  0  0  0  0  0  0  0  0  0  0
    5.5160  -34.7730  -14.2438 O   0  0  0  0  0  0  0  0  0  0  0  0
    5.5442  -35.2614  -13.1499 C   0  0  0  0  0  0  0  0  0  0  0  0
    4.3963  -35.5989  -12.4515 O   0  0  0  0  0  0  0  0  0  0  0  0
    3.1805  -35.4755  -13.1806 C   0  0  0  0  0  0  0  0  0  0  0  0
    2.2474  -34.7180  -12.2531 C   0  0  0  0  0  0  0  0  0  0  0  0
    1.0906  -35.4812  -12.0090 O   0  0  0  0  0  0  0  0  0  0  0  0
    1.3369  -36.3098  -11.5688 H   0  0  0  0  0  0  0  0  0  0  0  0
    2.9081  -34.3785  -10.9450 C   0  0  0  0  0  0  0  0  0  0  0  0
    2.6703  -35.4487  -10.0521 O   0  0  0  0  0  0  0  0  0  0  0  0
    1.7145  -35.5681   -9.9377 H   0  0  0  0  0  0  0  0  0  0  0  0
    7.0548  -33.5000   -8.2204 C   0  0  0  0  0  0  0  0  0  0  0  0
    5.6957  -34.2236   -8.2782 C   0  0  0  0  0  0  0  0  0  0  0  0
    4.7051  -33.7297   -7.2172 C   0  0  0  0  0  0  0  0  0  0  0  0
    3.7366  -34.8176   -6.7592 C   0  0  0  0  0  0  0  0  0  0  0  0
    4.2903  -36.2435   -6.8878 C   0  0  0  0  0  0  0  0  0  0  0  0
    4.5794  -36.8221   -5.5002 C   0  0  0  0  0  0  0  0  0  0  0  0
    5.7886  -36.7541   -4.8716 C   0  0  0  0  0  0  0  0  0  0  0  0
    7.0723  -36.1304   -5.4255 C   0  0  0  0  0  0  0  0  0  0  0  0
    8.2323  -37.1208   -5.4780 C   0  0  0  0  0  0  0  0  0  0  0  0
    8.7706  -37.4288   -6.8498 C   0  0  0  0  0  0  0  0  0  0  0  0
    7.7537  -37.2558   -7.9543 C   0  0  0  0  0  0  0  0  0  0  0  0
    8.3178  -36.9959   -9.3223 C   0  0  0  0  0  0  0  0  0  0  0  0
    9.4706  -36.0311   -9.2738 C   0  0  0  0  0  0  0  0  0  0  0  0
 18 17  1  0  0  0
 18 19  1  0  0  0
 17 16  1  0  0  0
 25 24  1  0  0  0
 19 20  1  0  0  0
 16 15  1  0  0  0
  8  9  1  0  0  0
  8  7  1  0  0  0
 24 23  1  0  0  0
 20 21  2  0  0  0
 15  1  1  0  0  0
 23 22  1  0  0  0
 21 22  1  0  0  0
  1  2  1  0  0  0
  2  3  1  0  0  0
  3  4  1  0  0  0
  4  6  1  0  0  0
 12  9  1  0  0  0
 12 13  1  0  0  0
  9 10  1  0  0  0
  5  6  2  0  0  0
  7  6  1  0  0  0
 25 26  1  0  0  0
 26 27  1  0  0  0
 10 11  1  0  0  0
 13 14  1  0  0  0
M  END
> <minimizedAffinity>
-2.60367

$$$$
4WN5_MVC_A_402


 27 26  0  0  0  0  0  0  0  0999 V2000
    7.8966  -37.4163   -8.0277 C   0  0  0  0  0  0  0  0  0  0  0  0
    8.9541  -37.3001   -9.1360 C   0  0  0  0  0  0  0  0  0  0  0  0
    8.5815  -36.2592  -10.1812 C   0  0  0  0  0  0  0  0  0  0  0  0
    7.1035  -35.9570  -10.1412 C   0  0  0  0  0  0  0  0  0  0  0  0
    7.1576  -34.5267  -12.0765 O   0  0  0  0  0  0  0  0  0  0  0  0
    6.5765  -35.3426  -11.4188 C   0  0  0  0  0  0  0  0  0  0  0  0
    5.2104  -35.5497  -11.5197 O   0  0  0  0  0  0  0  0  0  0  0  0
    4.4042  -34.3876  -11.3631 C   0  0  0  0  0  0  0  0  0  0  0  0
    3.0390  -34.7885  -11.8926 C   0  0  0  0  0  0  0  0  0  0  0  0
    2.1581  -33.6934  -11.8245 O   0  0  0  0  0  0  0  0  0  0  0  0
    2.4925  -32.9742  -12.3829 H   0  0  0  0  0  0  0  0  0  0  0  0
    3.1097  -35.2865  -13.3103 C   0  0  0  0  0  0  0  0  0  0  0  0
    2.0624  -36.2190  -13.4916 O   0  0  0  0  0  0  0  0  0  0  0  0
    2.1668  -36.9490  -12.8615 H   0  0  0  0  0  0  0  0  0  0  0  0
    8.5188  -37.2029   -6.6359 C   0  0  0  0  0  0  0  0  0  0  0  0
    7.4884  -36.9047   -5.5298 C   0  0  0  0  0  0  0  0  0  0  0  0
    7.5315  -35.4515   -5.0426 C   0  0  0  0  0  0  0  0  0  0  0  0
    8.1508  -34.5020   -6.0654 C   0  0  0  0  0  0  0  0  0  0  0  0
    7.1335  -33.8553   -7.0158 C   0  0  0  0  0  0  0  0  0  0  0  0
    5.8065  -33.6257   -6.2878 C   0  0  0  0  0  0  0  0  0  0  0  0
    4.6293  -34.2312   -6.6187 C   0  0  0  0  0  0  0  0  0  0  0  0
    4.3984  -35.2108   -7.7723 C   0  0  0  0  0  0  0  0  0  0  0  0
    4.2652  -36.6557   -7.2994 C   0  0  0  0  0  0  0  0  0  0  0  0
    2.9157  -37.0476   -6.7595 C   0  0  0  0  0  0  0  0  0  0  0  0
    2.9792  -37.7837   -5.4411 C   0  0  0  0  0  0  0  0  0  0  0  0
    4.1186  -37.4038   -4.5387 C   0  0  0  0  0  0  0  0  0  0  0  0
    3.7500  -36.2652   -3.6277 C   0  0  0  0  0  0  0  0  0  0  0  0
 18 17  1  0  0  0
 18 19  1  0  0  0
 17 16  1  0  0  0
 25 24  1  0  0  0
 19 20  1  0  0  0
 16 15  1  0  0  0
  8  9  1  0  0  0
  8  7  1  0  0  0
 24 23  1  0  0  0
 20 21  2  0  0  0
 15  1  1  0  0  0
 23 22  1  0  0  0
 21 22  1  0  0  0
  1  2  1  0  0  0
  2  3  1  0  0  0
  3  4  1  0  0  0
  4  6  1  0  0  0
 12  9  1  0  0  0
 12 13  1  0  0  0
  9 10  1  0  0  0
  5  6  2  0  0  0
  7  6  1  0  0  0
 25 26  1  0  0  0
 26 27  1  0  0  0
 10 11  1  0  0  0
 13 14  1  0  0  0
M  END
> <minimizedAffinity>
-2.28023

$$$$
4WN5_MVC_A_402


 27 26  0  0  0  0  0  0  0  0999 V2000
    6.8358  -35.5361   -9.1762 C   0  0  0  0  0  0  0  0  0  0  0  0
    7.9681  -35.5482  -10.2144 C   0  0  0  0  0  0  0  0  0  0  0  0
    7.4678  -35.2335  -11.6164 C   0  0  0  0  0  0  0  0  0  0  0  0
    6.0541  -34.7066  -11.5810 C   0  0  0  0  0  0  0  0  0  0  0  0
    5.3548  -35.8396  -13.5864 O   0  0  0  0  0  0  0  0  0  0  0  0
    5.1017  -35.4684  -12.4755 C   0  0  0  0  0  0  0  0  0  0  0  0
    3.8044  -35.3462  -12.0050 O   0  0  0  0  0  0  0  0  0  0  0  0
    3.0540  -34.2708  -12.5576 C   0  0  0  0  0  0  0  0  0  0  0  0
    1.8417  -34.9292  -13.1912 C   0  0  0  0  0  0  0  0  0  0  0  0
    2.1590  -36.2435  -13.5809 O   0  0  0  0  0  0  0  0  0  0  0  0
    2.4026  -36.7628  -12.7987 H   0  0  0  0  0  0  0  0  0  0  0  0
    0.6631  -34.9551  -12.2568 C   0  0  0  0  0  0  0  0  0  0  0  0
    1.1339  -35.3408  -10.9806 O   0  0  0  0  0  0  0  0  0  0  0  0
    1.5493  -36.2153  -11.0399 H   0  0  0  0  0  0  0  0  0  0  0  0
    7.0979  -36.5528   -8.0504 C   0  0  0  0  0  0  0  0  0  0  0  0
    7.1569  -35.9264   -6.6439 C   0  0  0  0  0  0  0  0  0  0  0  0
    7.2580  -36.9690   -5.5242 C   0  0  0  0  0  0  0  0  0  0  0  0
    6.2570  -36.7267   -4.3971 C   0  0  0  0  0  0  0  0  0  0  0  0
    4.9536  -36.0546   -4.8509 C   0  0  0  0  0  0  0  0  0  0  0  0
    3.8994  -37.1169   -5.1737 C   0  0  0  0  0  0  0  0  0  0  0  0
    3.2218  -37.1983   -6.3553 C   0  0  0  0  0  0  0  0  0  0  0  0
    3.3530  -36.2513   -7.5508 C   0  0  0  0  0  0  0  0  0  0  0  0
    2.2488  -35.1985   -7.5913 C   0  0  0  0  0  0  0  0  0  0  0  0
    2.7003  -33.7686   -7.4580 C   0  0  0  0  0  0  0  0  0  0  0  0
    4.1970  -33.5911   -7.5696 C   0  0  0  0  0  0  0  0  0  0  0  0
    4.8199  -32.6723   -6.5573 C   0  0  0  0  0  0  0  0  0  0  0  0
    6.2892  -32.4777   -6.8135 C   0  0  0  0  0  0  0  0  0  0  0  0
 18 17  1  0  0  0
 18 19  1  0  0  0
 17 16  1  0  0  0
 25 24  1  0  0  0
 19 20  1  0  0  0
 16 15  1  0  0  0
  8  9  1  0  0  0
  8  7  1  0  0  0
 24 23  1  0  0  0
 20 21  2  0  0  0
 15  1  1  0  0  0
 23 22  1  0  0  0
 21 22  1  0  0  0
  1  2  1  0  0  0
  2  3  1  0  0  0
  3  4  1  0  0  0
  4  6  1  0  0  0
 12  9  1  0  0  0
 12 13  1  0  0  0
  9 10  1  0  0  0
  5  6  2  0  0  0
  7  6  1  0  0  0
 25 26  1  0  0  0
 26 27  1  0  0  0
 10 11  1  0  0  0
 13 14  1  0  0  0
M  END
> <minimizedAffinity>
-2.26862

$$$$
4WN5_MVC_A_402


 27 26  0  0  0  0  0  0  0  0999 V2000
    7.0407  -32.5629   -9.4273 C   0  0  0  0  0  0  0  0  0  0  0  0
    6.1834  -33.5303  -10.2575 C   0  0  0  0  0  0  0  0  0  0  0  0
    6.7422  -33.7393  -11.6571 C   0  0  0  0  0  0  0  0  0  0  0  0
    6.6082  -35.1806  -12.0836 C   0  0  0  0  0  0  0  0  0  0  0  0
    5.6733  -34.8454  -14.2764 O   0  0  0  0  0  0  0  0  0  0  0  0
    5.6205  -35.3892  -13.2099 C   0  0  0  0  0  0  0  0  0  0  0  0
    4.4627  -35.9768  -12.7264 O   0  0  0  0  0  0  0  0  0  0  0  0
    3.2473  -35.4318  -13.2270 C   0  0  0  0  0  0  0  0  0  0  0  0
    2.6168  -34.7318  -12.0366 C   0  0  0  0  0  0  0  0  0  0  0  0
    3.0976  -35.2945  -10.8398 O   0  0  0  0  0  0  0  0  0  0  0  0
    4.0574  -35.1655  -10.7846 H   0  0  0  0  0  0  0  0  0  0  0  0
    2.8947  -33.2534  -12.0415 C   0  0  0  0  0  0  0  0  0  0  0  0
    3.5577  -32.9440  -13.2514 O   0  0  0  0  0  0  0  0  0  0  0  0
    4.3818  -33.4525  -13.3076 H   0  0  0  0  0  0  0  0  0  0  0  0
    6.8250  -32.7780   -7.9182 C   0  0  0  0  0  0  0  0  0  0  0  0
    8.1104  -32.6484   -7.0786 C   0  0  0  0  0  0  0  0  0  0  0  0
    9.2891  -32.0665   -7.8679 C   0  0  0  0  0  0  0  0  0  0  0  0
   10.6396  -32.5978   -7.3935 C   0  0  0  0  0  0  0  0  0  0  0  0
   10.6182  -34.0729   -6.9692 C   0  0  0  0  0  0  0  0  0  0  0  0
   11.3111  -34.9344   -8.0283 C   0  0  0  0  0  0  0  0  0  0  0  0
   10.6699  -35.5492   -9.0641 C   0  0  0  0  0  0  0  0  0  0  0  0
    9.1660  -35.5275   -9.3495 C   0  0  0  0  0  0  0  0  0  0  0  0
    8.5613  -36.9268   -9.4244 C   0  0  0  0  0  0  0  0  0  0  0  0
    7.8520  -37.4023   -8.1846 C   0  0  0  0  0  0  0  0  0  0  0  0
    7.7237  -36.3432   -7.1141 C   0  0  0  0  0  0  0  0  0  0  0  0
    6.3379  -36.1282   -6.5751 C   0  0  0  0  0  0  0  0  0  0  0  0
    5.2934  -36.2998   -7.6436 C   0  0  0  0  0  0  0  0  0  0  0  0
 18 17  1  0  0  0
 18 19  1  0  0  0
 17 16  1  0  0  0
 25 24  1  0  0  0
 19 20  1  0  0  0
 16 15  1  0  0  0
  8  9  1  0  0  0
  8  7  1  0  0  0
 24 23  1  0  0  0
 20 21  2  0  0  0
 15  1  1  0  0  0
 23 22  1  0  0  0
 21 22  1  0  0  0
  1  2  1  0  0  0
  2  3  1  0  0  0
  3  4  1  0  0  0
  4  6  1  0  0  0
 12  9  1  0  0  0
 12 13  1  0  0  0
  9 10  1  0  0  0
  5  6  2  0  0  0
  7  6  1  0  0  0
 25 26  1  0  0  0
 26 27  1  0  0  0
 10 11  1  0  0  0
 13 14  1  0  0  0
M  END
> <minimizedAffinity>
-2.26785

$$$$
4WN5_MVC_A_402


 27 26  0  0  0  0  0  0  0  0999 V2000
    7.1030  -36.0641   -9.5382 C   0  0  0  0  0  0  0  0  0  0  0  0
    6.6729  -36.8036   -8.2622 C   0  0  0  0  0  0  0  0  0  0  0  0
    5.7703  -35.9538   -7.3802 C   0  0  0  0  0  0  0  0  0  0  0  0
    4.8898  -35.0551   -8.2135 C   0  0  0  0  0  0  0  0  0  0  0  0
    3.0529  -36.5926   -7.9765 O   0  0  0  0  0  0  0  0  0  0  0  0
    3.5497  -35.6678   -8.5544 C   0  0  0  0  0  0  0  0  0  0  0  0
    3.1597  -35.2845   -9.8273 O   0  0  0  0  0  0  0  0  0  0  0  0
    3.9505  -34.2643  -10.4261 C   0  0  0  0  0  0  0  0  0  0  0  0
    3.9147  -34.5684  -11.9130 C   0  0  0  0  0  0  0  0  0  0  0  0
    4.7098  -35.6956  -12.1910 O   0  0  0  0  0  0  0  0  0  0  0  0
    4.3529  -36.4665  -11.7227 H   0  0  0  0  0  0  0  0  0  0  0  0
    2.5137  -34.8110  -12.4039 C   0  0  0  0  0  0  0  0  0  0  0  0
    2.5254  -36.0001  -13.1688 O   0  0  0  0  0  0  0  0  0  0  0  0
    3.1413  -35.9007  -13.9116 H   0  0  0  0  0  0  0  0  0  0  0  0
    8.5555  -36.4036   -9.9192 C   0  0  0  0  0  0  0  0  0  0  0  0
    9.5082  -36.5143   -8.7133 C   0  0  0  0  0  0  0  0  0  0  0  0
   10.5636  -35.4026   -8.6758 C   0  0  0  0  0  0  0  0  0  0  0  0
   10.4387  -34.5086   -7.4445 C   0  0  0  0  0  0  0  0  0  0  0  0
    9.1045  -34.6523   -6.6991 C   0  0  0  0  0  0  0  0  0  0  0  0
    9.3547  -34.7857   -5.1946 C   0  0  0  0  0  0  0  0  0  0  0  0
    9.0515  -35.8926   -4.4565 C   0  0  0  0  0  0  0  0  0  0  0  0
    8.3894  -37.1760   -4.9643 C   0  0  0  0  0  0  0  0  0  0  0  0
    9.3927  -38.1593   -5.5608 C   0  0  0  0  0  0  0  0  0  0  0  0
   10.8126  -38.0203   -5.0805 C   0  0  0  0  0  0  0  0  0  0  0  0
   11.8218  -37.8888   -6.1977 C   0  0  0  0  0  0  0  0  0  0  0  0
   13.1063  -37.1988   -5.8356 C   0  0  0  0  0  0  0  0  0  0  0  0
   12.8757  -36.0628   -4.8773 C   0  0  0  0  0  0  0  0  0  0  0  0
 18 17  1  0  0  0
 18 19  1  0  0  0
 17 16  1  0  0  0
 25 24  1  0  0  0
 19 20  1  0  0  0
 16 15  1  0  0  0
  8  9  1  0  0  0
  8  7  1  0  0  0
 24 23  1  0  0  0
 20 21  2  0  0  0
 15  1  1  0  0  0
 23 22  1  0  0  0
 21 22  1  0  0  0
  1  2  1  0  0  0
  2  3  1  0  0  0
  3  4  1  0  0  0
  4  6  1  0  0  0
 12  9  1  0  0  0
 12 13  1  0  0  0
  9 10  1  0  0  0
  5  6  2  0  0  0
  7  6  1  0  0  0
 25 26  1  0  0  0
 26 27  1  0  0  0
 10 11  1  0  0  0
 13 14  1  0  0  0
M  END
> <minimizedAffinity>
-2.18430

$$$$
4WN5_MVC_A_402


 27 26  0  0  0  0  0  0  0  0999 V2000
    6.4612  -32.7234   -9.2243 C   0  0  0  0  0  0  0  0  0  0  0  0
    5.7544  -33.8022  -10.0590 C   0  0  0  0  0  0  0  0  0  0  0  0
    6.0099  -33.6368  -11.5497 C   0  0  0  0  0  0  0  0  0  0  0  0
    6.1009  -34.9780  -12.2353 C   0  0  0  0  0  0  0  0  0  0  0  0
    6.2178  -34.9623  -14.6396 O   0  0  0  0  0  0  0  0  0  0  0  0
    5.5508  -34.9762  -13.6441 C   0  0  0  0  0  0  0  0  0  0  0  0
    4.2144  -34.6108  -13.6340 O   0  0  0  0  0  0  0  0  0  0  0  0
    3.3085  -35.6233  -13.2108 C   0  0  0  0  0  0  0  0  0  0  0  0
    2.0884  -34.8690  -12.7138 C   0  0  0  0  0  0  0  0  0  0  0  0
    0.9764  -35.7302  -12.6727 O   0  0  0  0  0  0  0  0  0  0  0  0
    1.1505  -36.4537  -12.0506 H   0  0  0  0  0  0  0  0  0  0  0  0
    2.3117  -34.2746  -11.3500 C   0  0  0  0  0  0  0  0  0  0  0  0
    2.6599  -35.3277  -10.4732 O   0  0  0  0  0  0  0  0  0  0  0  0
    1.9444  -35.9824  -10.4539 H   0  0  0  0  0  0  0  0  0  0  0  0
    7.5871  -32.0445  -10.0251 C   0  0  0  0  0  0  0  0  0  0  0  0
    9.0046  -32.4449   -9.5728 C   0  0  0  0  0  0  0  0  0  0  0  0
    9.4997  -33.7426  -10.2223 C   0  0  0  0  0  0  0  0  0  0  0  0
    9.6271  -34.8925   -9.2260 C   0  0  0  0  0  0  0  0  0  0  0  0
    9.2802  -36.2688   -9.8106 C   0  0  0  0  0  0  0  0  0  0  0  0
    7.8480  -36.6549   -9.4317 C   0  0  0  0  0  0  0  0  0  0  0  0
    7.4707  -37.1111   -8.2023 C   0  0  0  0  0  0  0  0  0  0  0  0
    8.3839  -37.3520   -6.9975 C   0  0  0  0  0  0  0  0  0  0  0  0
    7.7503  -36.9094   -5.6814 C   0  0  0  0  0  0  0  0  0  0  0  0
    6.5393  -36.0233   -5.8015 C   0  0  0  0  0  0  0  0  0  0  0  0
    5.2881  -36.6196   -5.1990 C   0  0  0  0  0  0  0  0  0  0  0  0
    4.1011  -36.7030   -6.1161 C   0  0  0  0  0  0  0  0  0  0  0  0
    4.1973  -35.7094   -7.2412 C   0  0  0  0  0  0  0  0  0  0  0  0
 18 17  1  0  0  0
 18 19  1  0  0  0
 17 16  1  0  0  0
 25 24  1  0  0  0
 19 20  1  0  0  0
 16 15  1  0  0  0
  8  9  1  0  0  0
  8  7  1  0  0  0
 24 23  1  0  0  0
 20 21  2  0  0  0
 15  1  1  0  0  0
 23 22  1  0  0  0
 21 22  1  0  0  0
  1  2  1  0  0  0
  2  3  1  0  0  0
  3  4  1  0  0  0
  4  6  1  0  0  0
 12  9  1  0  0  0
 12 13  1  0  0  0
  9 10  1  0  0  0
  5  6  2  0  0  0
  7  6  1  0  0  0
 25 26  1  0  0  0
 26 27  1  0  0  0
 10 11  1  0  0  0
 13 14  1  0  0  0
M  END
> <minimizedAffinity>
-2.18105

$$$$
4WN5_MVC_A_402


 27 26  0  0  0  0  0  0  0  0999 V2000
    7.0317  -33.0724   -5.8277 C   0  0  0  0  0  0  0  0  0  0  0  0
    6.7952  -32.9691   -7.3421 C   0  0  0  0  0  0  0  0  0  0  0  0
    5.3773  -33.3598   -7.7318 C   0  0  0  0  0  0  0  0  0  0  0  0
    5.2804  -33.6399   -9.2115 C   0  0  0  0  0  0  0  0  0  0  0  0
    3.8563  -35.5267   -8.7570 O   0  0  0  0  0  0  0  0  0  0  0  0
    4.3332  -34.7685   -9.5531 C   0  0  0  0  0  0  0  0  0  0  0  0
    4.3921  -35.0470  -10.9089 O   0  0  0  0  0  0  0  0  0  0  0  0
    5.3849  -34.3321  -11.6358 C   0  0  0  0  0  0  0  0  0  0  0  0
    5.1052  -34.6534  -13.0929 C   0  0  0  0  0  0  0  0  0  0  0  0
    5.8852  -35.7516  -13.4998 O   0  0  0  0  0  0  0  0  0  0  0  0
    5.6458  -36.5307  -12.9739 H   0  0  0  0  0  0  0  0  0  0  0  0
    3.6514  -34.9557  -13.3332 C   0  0  0  0  0  0  0  0  0  0  0  0
    3.4609  -36.3421  -13.1314 O   0  0  0  0  0  0  0  0  0  0  0  0
    4.0249  -36.8386  -13.7448 H   0  0  0  0  0  0  0  0  0  0  0  0
    8.5335  -33.1598   -5.5005 C   0  0  0  0  0  0  0  0  0  0  0  0
    8.8371  -33.7609   -4.1147 C   0  0  0  0  0  0  0  0  0  0  0  0
    9.4930  -35.1448   -4.1892 C   0  0  0  0  0  0  0  0  0  0  0  0
    8.5350  -36.2750   -3.8203 C   0  0  0  0  0  0  0  0  0  0  0  0
    8.1938  -37.2126   -4.9868 C   0  0  0  0  0  0  0  0  0  0  0  0
    6.9521  -36.7040   -5.7239 C   0  0  0  0  0  0  0  0  0  0  0  0
    6.8109  -36.6908   -7.0810 C   0  0  0  0  0  0  0  0  0  0  0  0
    7.8495  -37.1402   -8.1120 C   0  0  0  0  0  0  0  0  0  0  0  0
    7.5739  -36.5834   -9.5059 C   0  0  0  0  0  0  0  0  0  0  0  0
    8.7137  -35.8440  -10.1544 C   0  0  0  0  0  0  0  0  0  0  0  0
    9.1281  -34.5946   -9.4118 C   0  0  0  0  0  0  0  0  0  0  0  0
   10.5784  -34.5176   -9.0276 C   0  0  0  0  0  0  0  0  0  0  0  0
   10.8222  -35.0943   -7.6600 C   0  0  0  0  0  0  0  0  0  0  0  0
 18 17  1  0  0  0
 18 19  1  0  0  0
 17 16  1  0  0  0
 25 24  1  0  0  0
 19 20  1  0  0  0
 16 15  1  0  0  0
  8  9  1  0  0  0
  8  7  1  0  0  0
 24 23  1  0  0  0
 20 21  2  0  0  0
 15  1  1  0  0  0
 23 22  1  0  0  0
 21 22  1  0  0  0
  1  2  1  0  0  0
  2  3  1  0  0  0
  3  4  1  0  0  0
  4  6  1  0  0  0
 12  9  1  0  0  0
 12 13  1  0  0  0
  9 10  1  0  0  0
  5  6  2  0  0  0
  7  6  1  0  0  0
 25 26  1  0  0  0
 26 27  1  0  0  0
 10 11  1  0  0  0
 13 14  1  0  0  0
M  END
> <minimizedAffinity>
-2.17590

$$$$
4WN5_MVC_A_402


 27 26  0  0  0  0  0  0  0  0999 V2000
    5.7544  -36.7297   -5.0119 C   0  0  0  0  0  0  0  0  0  0  0  0
    6.4740  -36.0343   -6.1775 C   0  0  0  0  0  0  0  0  0  0  0  0
    5.6810  -36.1130   -7.4736 C   0  0  0  0  0  0  0  0  0  0  0  0
    5.9956  -34.9424   -8.3725 C   0  0  0  0  0  0  0  0  0  0  0  0
    4.8938  -35.0050  -10.5118 O   0  0  0  0  0  0  0  0  0  0  0  0
    5.8577  -35.2563   -9.8455 C   0  0  0  0  0  0  0  0  0  0  0  0
    6.8054  -36.1931  -10.2245 O   0  0  0  0  0  0  0  0  0  0  0  0
    8.0378  -35.6584  -10.6939 C   0  0  0  0  0  0  0  0  0  0  0  0
    9.0835  -36.6823  -10.2904 C   0  0  0  0  0  0  0  0  0  0  0  0
   10.3521  -36.2761  -10.7438 O   0  0  0  0  0  0  0  0  0  0  0  0
   10.5888  -35.4320  -10.3286 H   0  0  0  0  0  0  0  0  0  0  0  0
    9.1261  -36.8857   -8.8005 C   0  0  0  0  0  0  0  0  0  0  0  0
    8.3226  -38.0086   -8.4961 O   0  0  0  0  0  0  0  0  0  0  0  0
    7.4151  -37.8485   -8.7990 H   0  0  0  0  0  0  0  0  0  0  0  0
    4.2255  -36.6114   -5.1476 C   0  0  0  0  0  0  0  0  0  0  0  0
    3.4600  -37.8767   -4.7152 C   0  0  0  0  0  0  0  0  0  0  0  0
    2.2543  -38.1864   -5.6104 C   0  0  0  0  0  0  0  0  0  0  0  0
    2.5306  -37.9219   -7.0885 C   0  0  0  0  0  0  0  0  0  0  0  0
    1.4573  -37.0730   -7.7840 C   0  0  0  0  0  0  0  0  0  0  0  0
    0.9316  -36.0016   -6.8251 C   0  0  0  0  0  0  0  0  0  0  0  0
    1.4207  -34.7303   -6.7444 C   0  0  0  0  0  0  0  0  0  0  0  0
    2.5822  -34.1454   -7.5522 C   0  0  0  0  0  0  0  0  0  0  0  0
    2.9340  -32.7216   -7.1301 C   0  0  0  0  0  0  0  0  0  0  0  0
    3.1319  -32.5048   -5.6535 C   0  0  0  0  0  0  0  0  0  0  0  0
    4.4613  -33.0064   -5.1386 C   0  0  0  0  0  0  0  0  0  0  0  0
    5.6772  -32.3689   -5.7487 C   0  0  0  0  0  0  0  0  0  0  0  0
    6.0433  -31.0887   -5.0493 C   0  0  0  0  0  0  0  0  0  0  0  0
 18 17  1  0  0  0
 18 19  1  0  0  0
 17 16  1  0  0  0
 25 24  1  0  0  0
 19 20  1  0  0  0
 16 15  1  0  0  0
  8  9  1  0  0  0
  8  7  1  0  0  0
 24 23  1  0  0  0
 20 21  2  0  0  0
 15  1  1  0  0  0
 23 22  1  0  0  0
 21 22  1  0  0  0
  1  2  1  0  0  0
  2  3  1  0  0  0
  3  4  1  0  0  0
  4  6  1  0  0  0
 12  9  1  0  0  0
 12 13  1  0  0  0
  9 10  1  0  0  0
  5  6  2  0  0  0
  7  6  1  0  0  0
 25 26  1  0  0  0
 26 27  1  0  0  0
 10 11  1  0  0  0
 13 14  1  0  0  0
M  END
> <minimizedAffinity>
-2.16609

$$$$
4WN5_MVC_A_402


 27 26  0  0  0  0  0  0  0  0999 V2000
    7.3029  -34.0763   -6.7702 C   0  0  0  0  0  0  0  0  0  0  0  0
    6.7839  -33.1548   -7.8845 C   0  0  0  0  0  0  0  0  0  0  0  0
    7.4646  -33.4237   -9.2183 C   0  0  0  0  0  0  0  0  0  0  0  0
    6.4518  -33.7662  -10.2834 C   0  0  0  0  0  0  0  0  0  0  0  0
    7.5215  -35.8608  -10.7962 O   0  0  0  0  0  0  0  0  0  0  0  0
    6.5195  -35.2057  -10.7424 C   0  0  0  0  0  0  0  0  0  0  0  0
    5.3699  -35.5385  -11.4403 O   0  0  0  0  0  0  0  0  0  0  0  0
    5.4557  -35.4077  -12.8547 C   0  0  0  0  0  0  0  0  0  0  0  0
    4.0191  -35.2425  -13.3167 C   0  0  0  0  0  0  0  0  0  0  0  0
    3.1379  -35.6307  -12.2906 O   0  0  0  0  0  0  0  0  0  0  0  0
    3.2682  -35.0579  -11.5186 H   0  0  0  0  0  0  0  0  0  0  0  0
    3.7189  -33.8261  -13.7248 C   0  0  0  0  0  0  0  0  0  0  0  0
    3.9816  -32.9929  -12.6130 O   0  0  0  0  0  0  0  0  0  0  0  0
    3.4249  -33.2647  -11.8666 H   0  0  0  0  0  0  0  0  0  0  0  0
    8.2504  -35.1528   -7.3301 C   0  0  0  0  0  0  0  0  0  0  0  0
    7.6658  -36.5780   -7.2973 C   0  0  0  0  0  0  0  0  0  0  0  0
    8.5199  -37.5606   -6.4874 C   0  0  0  0  0  0  0  0  0  0  0  0
    8.9925  -36.9780   -5.1576 C   0  0  0  0  0  0  0  0  0  0  0  0
    8.0816  -37.3128   -3.9682 C   0  0  0  0  0  0  0  0  0  0  0  0
    7.1623  -36.1280   -3.6604 C   0  0  0  0  0  0  0  0  0  0  0  0
    5.8250  -36.0976   -3.9302 C   0  0  0  0  0  0  0  0  0  0  0  0
    5.0039  -37.1995   -4.6049 C   0  0  0  0  0  0  0  0  0  0  0  0
    3.8325  -36.6488   -5.4134 C   0  0  0  0  0  0  0  0  0  0  0  0
    4.1435  -35.4746   -6.3028 C   0  0  0  0  0  0  0  0  0  0  0  0
    4.1023  -35.8019   -7.7777 C   0  0  0  0  0  0  0  0  0  0  0  0
    3.3587  -34.8223   -8.6405 C   0  0  0  0  0  0  0  0  0  0  0  0
    2.4433  -33.9489   -7.8272 C   0  0  0  0  0  0  0  0  0  0  0  0
 18 17  1  0  0  0
 18 19  1  0  0  0
 17 16  1  0  0  0
 25 24  1  0  0  0
 19 20  1  0  0  0
 16 15  1  0  0  0
  8  9  1  0  0  0
  8  7  1  0  0  0
 24 23  1  0  0  0
 20 21  2  0  0  0
 15  1  1  0  0  0
 23 22  1  0  0  0
 21 22  1  0  0  0
  1  2  1  0  0  0
  2  3  1  0  0  0
  3  4  1  0  0  0
  4  6  1  0  0  0
 12  9  1  0  0  0
 12 13  1  0  0  0
  9 10  1  0  0  0
  5  6  2  0  0  0
  7  6  1  0  0  0
 25 26  1  0  0  0
 26 27  1  0  0  0
 10 11  1  0  0  0
 13 14  1  0  0  0
M  END
> <minimizedAffinity>
-2.16057

$$$$
4WN5_MVC_A_402


 27 26  0  0  0  0  0  0  0  0999 V2000
    8.6818  -35.2886  -13.7210 C   0  0  0  0  0  0  0  0  0  0  0  0
    7.8191  -34.1993  -14.3762 C   0  0  0  0  0  0  0  0  0  0  0  0
    6.3326  -34.5119  -14.2898 C   0  0  0  0  0  0  0  0  0  0  0  0
    5.8012  -34.2361  -12.9046 C   0  0  0  0  0  0  0  0  0  0  0  0
    4.3349  -36.1407  -13.0360 O   0  0  0  0  0  0  0  0  0  0  0  0
    4.9204  -35.3401  -12.3634 C   0  0  0  0  0  0  0  0  0  0  0  0
    4.5772  -35.0748  -11.0476 O   0  0  0  0  0  0  0  0  0  0  0  0
    3.2163  -34.7192  -10.8321 C   0  0  0  0  0  0  0  0  0  0  0  0
    3.0207  -34.8260   -9.3304 C   0  0  0  0  0  0  0  0  0  0  0  0
    2.2753  -35.9797   -9.0249 O   0  0  0  0  0  0  0  0  0  0  0  0
    2.7626  -36.7661   -9.3164 H   0  0  0  0  0  0  0  0  0  0  0  0
    4.3318  -34.8678   -8.5941 C   0  0  0  0  0  0  0  0  0  0  0  0
    4.6893  -36.2257   -8.4284 O   0  0  0  0  0  0  0  0  0  0  0  0
    3.9956  -36.6840   -7.9288 H   0  0  0  0  0  0  0  0  0  0  0  0
   10.1660  -35.1288  -14.0972 C   0  0  0  0  0  0  0  0  0  0  0  0
   11.1411  -35.4851  -12.9586 C   0  0  0  0  0  0  0  0  0  0  0  0
   10.6162  -36.5966  -12.0421 C   0  0  0  0  0  0  0  0  0  0  0  0
   11.2146  -36.5390  -10.6386 C   0  0  0  0  0  0  0  0  0  0  0  0
   10.1781  -36.6435   -9.5112 C   0  0  0  0  0  0  0  0  0  0  0  0
    8.7651  -36.6868  -10.0987 C   0  0  0  0  0  0  0  0  0  0  0  0
    7.9080  -35.6254  -10.1281 C   0  0  0  0  0  0  0  0  0  0  0  0
    8.1683  -34.2253   -9.5664 C   0  0  0  0  0  0  0  0  0  0  0  0
    8.3699  -33.1807  -10.6606 C   0  0  0  0  0  0  0  0  0  0  0  0
    9.7926  -32.7541  -10.9064 C   0  0  0  0  0  0  0  0  0  0  0  0
   10.6918  -32.9152   -9.7025 C   0  0  0  0  0  0  0  0  0  0  0  0
   12.1513  -33.1078  -10.0022 C   0  0  0  0  0  0  0  0  0  0  0  0
   12.5496  -32.4286  -11.2837 C   0  0  0  0  0  0  0  0  0  0  0  0
 18 17  1  0  0  0
 18 19  1  0  0  0
 17 16  1  0  0  0
 25 24  1  0  0  0
 19 20  1  0  0  0
 16 15  1  0  0  0
  8  9  1  0  0  0
  8  7  1  0  0  0
 24 23  1  0  0  0
 20 21  2  0  0  0
 15  1  1  0  0  0
 23 22  1  0  0  0
 21 22  1  0  0  0
  1  2  1  0  0  0
  2  3  1  0  0  0
  3  4  1  0  0  0
  4  6  1  0  0  0
 12  9  1  0  0  0
 12 13  1  0  0  0
  9 10  1  0  0  0
  5  6  2  0  0  0
  7  6  1  0  0  0
 25 26  1  0  0  0
 26 27  1  0  0  0
 10 11  1  0  0  0
 13 14  1  0  0  0
M  END
> <minimizedAffinity>
-2.15050

$$$$
