4BAM_MM9_B_1287


 38 40  0  0  0  0  0  0  0  0999 V2000
   17.9211  -13.1428   22.1610 C   0  0  0  0  0  0  0  0  0  0  0  0
   16.8809  -12.5382   22.4032 O   0  0  0  0  0  0  0  0  0  0  0  0
   18.7493  -12.6315   21.2285 N   0  0  0  0  0  0  0  0  0  0  0  0
   18.5737  -11.4974   20.3165 C   0  0  0  0  0  0  0  0  0  0  0  0
   19.7611  -11.9492   19.4570 C   0  0  0  0  0  0  0  0  0  0  0  0
   19.9939  -13.0176   20.5330 C   0  0  0  0  0  0  0  0  0  0  0  0
   17.1992  -11.6791   19.6926 C   0  0  0  0  0  0  0  0  0  0  0  0
   16.8973  -12.7499   19.1919 O   0  0  0  0  0  0  0  0  0  0  0  0
   16.2769  -10.7105   19.8353 N   0  0  0  0  0  0  0  0  0  0  0  0
   16.5164   -9.8741   20.2962 H   0  0  0  0  0  0  0  0  0  0  0  0
   14.9195  -10.8867   19.3122 C   0  0  0  0  0  0  0  0  0  0  0  0
   13.9667  -10.8559   20.4782 C   0  0  0  0  0  0  0  0  0  0  0  0
   13.6665   -9.6327   21.0672 C   0  0  0  0  0  0  0  0  0  0  0  0
   12.7910   -9.5688   22.1316 C   0  0  0  0  0  0  0  0  0  0  0  0
   12.2594  -10.7596   22.6581 C   0  0  0  0  0  0  0  0  0  0  0  0
   12.5734  -11.9971   22.0647 C   0  0  0  0  0  0  0  0  0  0  0  0
   13.4248  -12.0307   20.9658 C   0  0  0  0  0  0  0  0  0  0  0  0
   11.2857  -10.6852   23.7771 C   0  0  0  0  0  0  0  0  0  0  0  0
   10.9720   -9.5369   24.3082 N   0  0  0  0  0  0  0  0  0  0  0  0
   10.6293  -11.8271   24.2231 N   0  0  0  0  0  0  0  0  0  0  0  0
   11.4240   -8.7156   24.0076 H   0  0  0  0  0  0  0  0  0  0  0  0
   10.8505  -12.7049   23.8360 H   0  0  0  0  0  0  0  0  0  0  0  0
    9.9435  -11.7578   24.9260 H   0  0  0  0  0  0  0  0  0  0  0  0
   18.2020  -14.4383   22.8843 C   0  0  0  0  0  0  0  0  0  0  0  0
   18.7064  -14.1443   24.3204 C   0  0  0  0  0  0  0  0  0  0  0  0
   18.8165  -15.4539   25.1313 C   0  0  0  0  0  0  0  0  0  0  0  0
   19.3518  -15.1850   26.5470 C   0  0  0  0  0  0  0  0  0  0  0  0
   20.7030  -14.4495   26.4934 C   0  0  0  0  0  0  0  0  0  0  0  0
   20.5745  -13.1249   25.7181 C   0  0  0  0  0  0  0  0  0  0  0  0
   20.0718  -13.4222   24.2923 C   0  0  0  0  0  0  0  0  0  0  0  0
   16.9454  -15.2304   22.9030 N   0  0  0  0  0  0  0  0  0  0  0  0
   16.2127  -14.6481   23.3086 H   0  0  0  0  0  0  0  0  0  0  0  0
   16.4693  -15.7087   21.5726 C   0  0  0  0  0  0  0  0  0  0  0  0
   14.9824  -15.7775   18.9904 C   0  0  0  0  0  0  0  0  0  0  0  0
   14.9507  -15.6817   21.4861 C   0  0  0  0  0  0  0  0  0  0  0  0
   14.3003  -15.6245   22.5252 O   0  0  0  0  0  0  0  0  0  0  0  0
   12.8044  -15.6471   20.2503 C   0  0  0  0  0  0  0  0  0  0  0  0
   14.2820  -15.7044   20.2857 N   0  0  0  0  0  0  0  0  0  0  0  0
 25 26  1  0  0  0
 25 30  1  0  0  0
 25 24  1  0  0  0
 26 27  1  0  0  0
 27 28  1  0  0  0
 28 29  1  0  0  0
 29 30  1  0  0  0
 31 24  1  0  0  0
 31 33  1  0  0  0
 24  1  1  0  0  0
  1  2  2  0  0  0
  1  3  1  0  0  0
  3  4  1  0  0  0
  3  6  1  0  0  0
  4  7  1  0  0  0
  4  5  1  0  0  0
  7  8  2  0  0  0
  7  9  1  0  0  0
  9 11  1  0  0  0
 11 12  1  0  0  0
 12 13  1  0  0  0
 12 17  2  0  0  0
 13 14  2  0  0  0
 14 15  1  0  0  0
 15 16  2  0  0  0
 15 18  1  0  0  0
 16 17  1  0  0  0
 18 19  2  0  0  0
 18 20  1  0  0  0
  5  6  1  0  0  0
 33 35  1  0  0  0
 34 38  1  0  0  0
 35 36  2  0  0  0
 35 38  1  0  0  0
 37 38  1  0  0  0
 31 32  1  0  0  0
  9 10  1  0  0  0
 19 21  1  0  0  0
 20 22  1  0  0  0
 20 23  1  0  0  0
M  END
> <minimizedAffinity>
-10.42278

$$$$
4BAM_MM9_B_1287


 38 40  0  0  0  0  0  0  0  0999 V2000
   17.9313  -13.1097   22.1970 C   0  0  0  0  0  0  0  0  0  0  0  0
   16.8895  -12.5030   22.4265 O   0  0  0  0  0  0  0  0  0  0  0  0
   18.7450  -12.6311   21.2348 N   0  0  0  0  0  0  0  0  0  0  0  0
   18.5505  -11.5365   20.2794 C   0  0  0  0  0  0  0  0  0  0  0  0
   19.7313  -12.0147   19.4252 C   0  0  0  0  0  0  0  0  0  0  0  0
   19.9844  -13.0366   20.5411 C   0  0  0  0  0  0  0  0  0  0  0  0
   17.1704  -11.7531   19.6796 C   0  0  0  0  0  0  0  0  0  0  0  0
   16.8810  -12.8369   19.2000 O   0  0  0  0  0  0  0  0  0  0  0  0
   16.2324  -10.7995   19.8217 N   0  0  0  0  0  0  0  0  0  0  0  0
   16.4632   -9.9518   20.2660 H   0  0  0  0  0  0  0  0  0  0  0  0
   14.8708  -11.0088   19.3223 C   0  0  0  0  0  0  0  0  0  0  0  0
   13.9324  -10.9510   20.4990 C   0  0  0  0  0  0  0  0  0  0  0  0
   13.5289   -9.7084   20.9747 C   0  0  0  0  0  0  0  0  0  0  0  0
   12.6633   -9.6206   22.0456 C   0  0  0  0  0  0  0  0  0  0  0  0
   12.2484  -10.7977   22.6936 C   0  0  0  0  0  0  0  0  0  0  0  0
   12.6669  -12.0536   22.2144 C   0  0  0  0  0  0  0  0  0  0  0  0
   13.5053  -12.1169   21.1069 C   0  0  0  0  0  0  0  0  0  0  0  0
   11.2847  -10.7030   23.8197 C   0  0  0  0  0  0  0  0  0  0  0  0
   10.9150   -9.5410   24.2805 N   0  0  0  0  0  0  0  0  0  0  0  0
   10.6963  -11.8470   24.3477 N   0  0  0  0  0  0  0  0  0  0  0  0
   11.3183   -8.7180   23.9211 H   0  0  0  0  0  0  0  0  0  0  0  0
   10.9604  -12.7350   24.0145 H   0  0  0  0  0  0  0  0  0  0  0  0
   10.0157  -11.7690   25.0547 H   0  0  0  0  0  0  0  0  0  0  0  0
   18.2302  -14.3725   22.9692 C   0  0  0  0  0  0  0  0  0  0  0  0
   18.7880  -14.0165   24.3711 C   0  0  0  0  0  0  0  0  0  0  0  0
   19.0318  -15.2993   25.1955 C   0  0  0  0  0  0  0  0  0  0  0  0
   19.6211  -14.9665   26.5758 C   0  0  0  0  0  0  0  0  0  0  0  0
   20.9129  -14.1410   26.4376 C   0  0  0  0  0  0  0  0  0  0  0  0
   20.6516  -12.8438   25.6494 C   0  0  0  0  0  0  0  0  0  0  0  0
   20.0962  -13.2028   24.2578 C   0  0  0  0  0  0  0  0  0  0  0  0
   16.9702  -15.1530   23.0697 N   0  0  0  0  0  0  0  0  0  0  0  0
   16.2190  -14.5902   22.6706 H   0  0  0  0  0  0  0  0  0  0  0  0
   16.9762  -16.4723   22.3734 C   0  0  0  0  0  0  0  0  0  0  0  0
   17.3598  -18.5477   24.4780 C   0  0  0  0  0  0  0  0  0  0  0  0
   15.8524  -17.3671   22.8741 C   0  0  0  0  0  0  0  0  0  0  0  0
   14.7324  -17.2367   22.3896 O   0  0  0  0  0  0  0  0  0  0  0  0
   14.9328  -19.1925   24.2734 C   0  0  0  0  0  0  0  0  0  0  0  0
   16.0499  -18.3257   23.8388 N   0  0  0  0  0  0  0  0  0  0  0  0
 25 26  1  0  0  0
 25 30  1  0  0  0
 25 24  1  0  0  0
 26 27  1  0  0  0
 27 28  1  0  0  0
 28 29  1  0  0  0
 29 30  1  0  0  0
 31 24  1  0  0  0
 31 33  1  0  0  0
 24  1  1  0  0  0
  1  2  2  0  0  0
  1  3  1  0  0  0
  3  4  1  0  0  0
  3  6  1  0  0  0
  4  7  1  0  0  0
  4  5  1  0  0  0
  7  8  2  0  0  0
  7  9  1  0  0  0
  9 11  1  0  0  0
 11 12  1  0  0  0
 12 13  1  0  0  0
 12 17  2  0  0  0
 13 14  2  0  0  0
 14 15  1  0  0  0
 15 16  2  0  0  0
 15 18  1  0  0  0
 16 17  1  0  0  0
 18 19  2  0  0  0
 18 20  1  0  0  0
  5  6  1  0  0  0
 33 35  1  0  0  0
 34 38  1  0  0  0
 35 36  2  0  0  0
 35 38  1  0  0  0
 37 38  1  0  0  0
 31 32  1  0  0  0
  9 10  1  0  0  0
 19 21  1  0  0  0
 20 22  1  0  0  0
 20 23  1  0  0  0
M  END
> <minimizedAffinity>
-9.85704

$$$$
4BAM_MM9_B_1287


 38 40  0  0  0  0  0  0  0  0999 V2000
   18.0396  -13.0809   22.2174 C   0  0  0  0  0  0  0  0  0  0  0  0
   16.9834  -12.5102   22.4723 O   0  0  0  0  0  0  0  0  0  0  0  0
   18.8166  -12.5707   21.2412 N   0  0  0  0  0  0  0  0  0  0  0  0
   18.5659  -11.4782   20.2965 C   0  0  0  0  0  0  0  0  0  0  0  0
   19.7435  -11.9127   19.4149 C   0  0  0  0  0  0  0  0  0  0  0  0
   20.0537  -12.9314   20.5193 C   0  0  0  0  0  0  0  0  0  0  0  0
   17.1813  -11.7372   19.7245 C   0  0  0  0  0  0  0  0  0  0  0  0
   16.8965  -12.8468   19.3048 O   0  0  0  0  0  0  0  0  0  0  0  0
   16.2363  -10.7856   19.8280 N   0  0  0  0  0  0  0  0  0  0  0  0
   16.4643   -9.9142   20.2254 H   0  0  0  0  0  0  0  0  0  0  0  0
   14.8712  -11.0320   19.3557 C   0  0  0  0  0  0  0  0  0  0  0  0
   13.9426  -10.8973   20.5338 C   0  0  0  0  0  0  0  0  0  0  0  0
   13.2294  -12.0134   20.9569 C   0  0  0  0  0  0  0  0  0  0  0  0
   12.3768  -11.9259   22.0380 C   0  0  0  0  0  0  0  0  0  0  0  0
   12.1844  -10.6815   22.6641 C   0  0  0  0  0  0  0  0  0  0  0  0
   12.9015   -9.5516   22.2266 C   0  0  0  0  0  0  0  0  0  0  0  0
   13.7872   -9.6754   21.1618 C   0  0  0  0  0  0  0  0  0  0  0  0
   11.2980  -10.5983   23.8529 C   0  0  0  0  0  0  0  0  0  0  0  0
   10.9322  -11.6784   24.4844 N   0  0  0  0  0  0  0  0  0  0  0  0
   10.9099   -9.3644   24.3632 N   0  0  0  0  0  0  0  0  0  0  0  0
   11.1958  -12.5626   24.1409 H   0  0  0  0  0  0  0  0  0  0  0  0
   11.1750   -8.5357   23.9025 H   0  0  0  0  0  0  0  0  0  0  0  0
   10.3701   -9.3194   25.1853 H   0  0  0  0  0  0  0  0  0  0  0  0
   18.3962  -14.3372   22.9757 C   0  0  0  0  0  0  0  0  0  0  0  0
   18.8933  -13.9738   24.3984 C   0  0  0  0  0  0  0  0  0  0  0  0
   19.0414  -15.2475   25.2589 C   0  0  0  0  0  0  0  0  0  0  0  0
   19.5701  -14.9090   26.6621 C   0  0  0  0  0  0  0  0  0  0  0  0
   20.8997  -14.1380   26.5776 C   0  0  0  0  0  0  0  0  0  0  0  0
   20.7328  -12.8484   25.7520 C   0  0  0  0  0  0  0  0  0  0  0  0
   20.2375  -13.2147   24.3398 C   0  0  0  0  0  0  0  0  0  0  0  0
   17.1852  -15.1960   23.0279 N   0  0  0  0  0  0  0  0  0  0  0  0
   16.3744  -14.6085   22.8335 H   0  0  0  0  0  0  0  0  0  0  0  0
   17.1670  -16.3374   22.0676 C   0  0  0  0  0  0  0  0  0  0  0  0
   19.8888  -17.2591   21.2765 C   0  0  0  0  0  0  0  0  0  0  0  0
   17.8329  -17.5700   22.6605 C   0  0  0  0  0  0  0  0  0  0  0  0
   17.2244  -18.2235   23.5023 O   0  0  0  0  0  0  0  0  0  0  0  0
   19.6805  -19.2077   22.8601 C   0  0  0  0  0  0  0  0  0  0  0  0
   19.0852  -17.9857   22.2765 N   0  0  0  0  0  0  0  0  0  0  0  0
 25 26  1  0  0  0
 25 30  1  0  0  0
 25 24  1  0  0  0
 26 27  1  0  0  0
 27 28  1  0  0  0
 28 29  1  0  0  0
 29 30  1  0  0  0
 31 24  1  0  0  0
 31 33  1  0  0  0
 24  1  1  0  0  0
  1  2  2  0  0  0
  1  3  1  0  0  0
  3  4  1  0  0  0
  3  6  1  0  0  0
  4  7  1  0  0  0
  4  5  1  0  0  0
  7  8  2  0  0  0
  7  9  1  0  0  0
  9 11  1  0  0  0
 11 12  1  0  0  0
 12 13  1  0  0  0
 12 17  2  0  0  0
 13 14  2  0  0  0
 14 15  1  0  0  0
 15 16  2  0  0  0
 15 18  1  0  0  0
 16 17  1  0  0  0
 18 19  2  0  0  0
 18 20  1  0  0  0
  5  6  1  0  0  0
 33 35  1  0  0  0
 34 38  1  0  0  0
 35 36  2  0  0  0
 35 38  1  0  0  0
 37 38  1  0  0  0
 31 32  1  0  0  0
  9 10  1  0  0  0
 19 21  1  0  0  0
 20 22  1  0  0  0
 20 23  1  0  0  0
M  END
> <minimizedAffinity>
-9.67225

$$$$
4BAM_MM9_B_1287


 38 40  0  0  0  0  0  0  0  0999 V2000
   17.7294  -13.3933   22.1671 C   0  0  0  0  0  0  0  0  0  0  0  0
   16.7423  -12.7105   22.4232 O   0  0  0  0  0  0  0  0  0  0  0  0
   18.6445  -12.8904   21.3148 N   0  0  0  0  0  0  0  0  0  0  0  0
   18.6206  -11.6715   20.5008 C   0  0  0  0  0  0  0  0  0  0  0  0
   19.7968  -12.1655   19.6491 C   0  0  0  0  0  0  0  0  0  0  0  0
   19.8765  -13.3388   20.6343 C   0  0  0  0  0  0  0  0  0  0  0  0
   17.2648  -11.6617   19.8129 C   0  0  0  0  0  0  0  0  0  0  0  0
   16.8999  -12.6374   19.1780 O   0  0  0  0  0  0  0  0  0  0  0  0
   16.4182  -10.6411   20.0385 N   0  0  0  0  0  0  0  0  0  0  0  0
   16.7038   -9.8873   20.6039 H   0  0  0  0  0  0  0  0  0  0  0  0
   15.0754  -10.6390   19.4520 C   0  0  0  0  0  0  0  0  0  0  0  0
   14.0777  -10.6198   20.5800 C   0  0  0  0  0  0  0  0  0  0  0  0
   13.4060  -11.7940   20.9015 C   0  0  0  0  0  0  0  0  0  0  0  0
   12.4919  -11.8124   21.9349 C   0  0  0  0  0  0  0  0  0  0  0  0
   12.1963  -10.6169   22.6138 C   0  0  0  0  0  0  0  0  0  0  0  0
   12.8719   -9.4280   22.2789 C   0  0  0  0  0  0  0  0  0  0  0  0
   13.8200   -9.4450   21.2618 C   0  0  0  0  0  0  0  0  0  0  0  0
   11.2429  -10.6475   23.7523 C   0  0  0  0  0  0  0  0  0  0  0  0
   10.9218   -9.5500   24.3781 N   0  0  0  0  0  0  0  0  0  0  0  0
   10.6127  -11.8318   24.1179 N   0  0  0  0  0  0  0  0  0  0  0  0
   11.3555   -8.7001   24.1356 H   0  0  0  0  0  0  0  0  0  0  0  0
   10.8398  -12.6725   23.6586 H   0  0  0  0  0  0  0  0  0  0  0  0
    9.9393  -11.8297   24.8361 H   0  0  0  0  0  0  0  0  0  0  0  0
   17.8511  -14.7668   22.7829 C   0  0  0  0  0  0  0  0  0  0  0  0
   16.8841  -15.7513   22.0766 C   0  0  0  0  0  0  0  0  0  0  0  0
   17.5764  -16.4087   20.8628 C   0  0  0  0  0  0  0  0  0  0  0  0
   16.6437  -17.4171   20.1727 C   0  0  0  0  0  0  0  0  0  0  0  0
   16.1465  -18.4783   21.1706 C   0  0  0  0  0  0  0  0  0  0  0  0
   15.4214  -17.8163   22.3574 C   0  0  0  0  0  0  0  0  0  0  0  0
   16.3860  -16.8380   23.0550 C   0  0  0  0  0  0  0  0  0  0  0  0
   19.2644  -15.2031   22.6452 N   0  0  0  0  0  0  0  0  0  0  0  0
   19.8267  -14.3820   22.4218 H   0  0  0  0  0  0  0  0  0  0  0  0
   19.8557  -15.8510   23.8519 C   0  0  0  0  0  0  0  0  0  0  0  0
   22.0353  -13.8640   24.2816 C   0  0  0  0  0  0  0  0  0  0  0  0
   19.8877  -14.8939   25.0340 C   0  0  0  0  0  0  0  0  0  0  0  0
   18.9780  -14.9394   25.8564 O   0  0  0  0  0  0  0  0  0  0  0  0
   20.9094  -13.0994   26.4020 C   0  0  0  0  0  0  0  0  0  0  0  0
   20.9062  -13.9905   25.2213 N   0  0  0  0  0  0  0  0  0  0  0  0
 25 26  1  0  0  0
 25 30  1  0  0  0
 25 24  1  0  0  0
 26 27  1  0  0  0
 27 28  1  0  0  0
 28 29  1  0  0  0
 29 30  1  0  0  0
 31 24  1  0  0  0
 31 33  1  0  0  0
 24  1  1  0  0  0
  1  2  2  0  0  0
  1  3  1  0  0  0
  3  4  1  0  0  0
  3  6  1  0  0  0
  4  7  1  0  0  0
  4  5  1  0  0  0
  7  8  2  0  0  0
  7  9  1  0  0  0
  9 11  1  0  0  0
 11 12  1  0  0  0
 12 13  1  0  0  0
 12 17  2  0  0  0
 13 14  2  0  0  0
 14 15  1  0  0  0
 15 16  2  0  0  0
 15 18  1  0  0  0
 16 17  1  0  0  0
 18 19  2  0  0  0
 18 20  1  0  0  0
  5  6  1  0  0  0
 33 35  1  0  0  0
 34 38  1  0  0  0
 35 36  2  0  0  0
 35 38  1  0  0  0
 37 38  1  0  0  0
 31 32  1  0  0  0
  9 10  1  0  0  0
 19 21  1  0  0  0
 20 22  1  0  0  0
 20 23  1  0  0  0
M  END
> <minimizedAffinity>
-8.49409

$$$$
4BAM_MM9_B_1287


 38 40  0  0  0  0  0  0  0  0999 V2000
   14.0686  -13.0587   21.4233 C   0  0  0  0  0  0  0  0  0  0  0  0
   15.1000  -13.0145   22.0870 O   0  0  0  0  0  0  0  0  0  0  0  0
   13.6129  -14.2679   21.0396 N   0  0  0  0  0  0  0  0  0  0  0  0
   14.2147  -15.5983   21.1688 C   0  0  0  0  0  0  0  0  0  0  0  0
   13.2301  -16.1897   20.1521 C   0  0  0  0  0  0  0  0  0  0  0  0
   12.5431  -14.8183   20.1827 C   0  0  0  0  0  0  0  0  0  0  0  0
   15.6499  -15.4499   20.6896 C   0  0  0  0  0  0  0  0  0  0  0  0
   15.8768  -15.2450   19.5086 O   0  0  0  0  0  0  0  0  0  0  0  0
   16.6444  -15.3923   21.5935 N   0  0  0  0  0  0  0  0  0  0  0  0
   16.4393  -15.4984   22.5505 H   0  0  0  0  0  0  0  0  0  0  0  0
   18.0297  -15.1732   21.1691 C   0  0  0  0  0  0  0  0  0  0  0  0
   18.7844  -14.5914   22.3354 C   0  0  0  0  0  0  0  0  0  0  0  0
   19.9616  -13.8929   22.0915 C   0  0  0  0  0  0  0  0  0  0  0  0
   20.6725  -13.3403   23.1369 C   0  0  0  0  0  0  0  0  0  0  0  0
   20.2316  -13.5495   24.4557 C   0  0  0  0  0  0  0  0  0  0  0  0
   19.0440  -14.2655   24.6990 C   0  0  0  0  0  0  0  0  0  0  0  0
   18.3226  -14.7760   23.6254 C   0  0  0  0  0  0  0  0  0  0  0  0
   20.9753  -12.9194   25.5763 C   0  0  0  0  0  0  0  0  0  0  0  0
   21.2168  -11.6384   25.5750 N   0  0  0  0  0  0  0  0  0  0  0  0
   21.3547  -13.6677   26.6853 N   0  0  0  0  0  0  0  0  0  0  0  0
   20.9568  -11.0893   24.8003 H   0  0  0  0  0  0  0  0  0  0  0  0
   21.1821  -14.6367   26.7077 H   0  0  0  0  0  0  0  0  0  0  0  0
   21.7959  -13.2285   27.4480 H   0  0  0  0  0  0  0  0  0  0  0  0
   13.3874  -11.7669   21.0393 C   0  0  0  0  0  0  0  0  0  0  0  0
   13.1106  -10.9173   22.3061 C   0  0  0  0  0  0  0  0  0  0  0  0
   13.0049   -9.4211   21.9387 C   0  0  0  0  0  0  0  0  0  0  0  0
   12.6927   -8.5675   23.1784 C   0  0  0  0  0  0  0  0  0  0  0  0
   11.4124   -9.0598   23.8769 C   0  0  0  0  0  0  0  0  0  0  0  0
   11.5424  -10.5417   24.2764 C   0  0  0  0  0  0  0  0  0  0  0  0
   11.8187  -11.3815   23.0145 C   0  0  0  0  0  0  0  0  0  0  0  0
   14.2757  -11.0494   20.0892 N   0  0  0  0  0  0  0  0  0  0  0  0
   15.1921  -10.9533   20.5268 H   0  0  0  0  0  0  0  0  0  0  0  0
   14.4654  -11.7101   18.7652 C   0  0  0  0  0  0  0  0  0  0  0  0
   15.2246  -11.1618   15.9357 C   0  0  0  0  0  0  0  0  0  0  0  0
   15.9089  -11.6056   18.2965 C   0  0  0  0  0  0  0  0  0  0  0  0
   16.8092  -11.7575   19.1164 O   0  0  0  0  0  0  0  0  0  0  0  0
   17.6589  -11.2973   16.5709 C   0  0  0  0  0  0  0  0  0  0  0  0
   16.2404  -11.3616   16.9853 N   0  0  0  0  0  0  0  0  0  0  0  0
 25 26  1  0  0  0
 25 30  1  0  0  0
 25 24  1  0  0  0
 26 27  1  0  0  0
 27 28  1  0  0  0
 28 29  1  0  0  0
 29 30  1  0  0  0
 31 24  1  0  0  0
 31 33  1  0  0  0
 24  1  1  0  0  0
  1  2  2  0  0  0
  1  3  1  0  0  0
  3  4  1  0  0  0
  3  6  1  0  0  0
  4  7  1  0  0  0
  4  5  1  0  0  0
  7  8  2  0  0  0
  7  9  1  0  0  0
  9 11  1  0  0  0
 11 12  1  0  0  0
 12 13  1  0  0  0
 12 17  2  0  0  0
 13 14  2  0  0  0
 14 15  1  0  0  0
 15 16  2  0  0  0
 15 18  1  0  0  0
 16 17  1  0  0  0
 18 19  2  0  0  0
 18 20  1  0  0  0
  5  6  1  0  0  0
 33 35  1  0  0  0
 34 38  1  0  0  0
 35 36  2  0  0  0
 35 38  1  0  0  0
 37 38  1  0  0  0
 31 32  1  0  0  0
  9 10  1  0  0  0
 19 21  1  0  0  0
 20 22  1  0  0  0
 20 23  1  0  0  0
M  END
> <minimizedAffinity>
-8.16871

$$$$
4BAM_MM9_B_1287


 38 40  0  0  0  0  0  0  0  0999 V2000
   13.7340  -14.4309   21.7692 C   0  0  0  0  0  0  0  0  0  0  0  0
   13.7751  -15.0321   22.8383 O   0  0  0  0  0  0  0  0  0  0  0  0
   13.1943  -15.0618   20.7072 N   0  0  0  0  0  0  0  0  0  0  0  0
   12.7356  -16.4454   20.5524 C   0  0  0  0  0  0  0  0  0  0  0  0
   12.7024  -16.3090   19.0250 C   0  0  0  0  0  0  0  0  0  0  0  0
   13.0244  -14.8274   19.2588 C   0  0  0  0  0  0  0  0  0  0  0  0
   13.8496  -17.3143   21.1142 C   0  0  0  0  0  0  0  0  0  0  0  0
   13.5794  -18.2332   21.8699 O   0  0  0  0  0  0  0  0  0  0  0  0
   15.1035  -17.1592   20.6526 N   0  0  0  0  0  0  0  0  0  0  0  0
   15.2965  -16.4519   19.9956 H   0  0  0  0  0  0  0  0  0  0  0  0
   16.1852  -18.0317   21.1172 C   0  0  0  0  0  0  0  0  0  0  0  0
   17.2376  -17.1639   21.7558 C   0  0  0  0  0  0  0  0  0  0  0  0
   18.4446  -16.9749   21.0921 C   0  0  0  0  0  0  0  0  0  0  0  0
   19.4264  -16.1791   21.6457 C   0  0  0  0  0  0  0  0  0  0  0  0
   19.2208  -15.6176   22.9185 C   0  0  0  0  0  0  0  0  0  0  0  0
   18.0007  -15.8192   23.5915 C   0  0  0  0  0  0  0  0  0  0  0  0
   17.0103  -16.5904   22.9931 C   0  0  0  0  0  0  0  0  0  0  0  0
   20.2617  -14.7283   23.4943 C   0  0  0  0  0  0  0  0  0  0  0  0
   20.9872  -13.9695   22.7216 N   0  0  0  0  0  0  0  0  0  0  0  0
   20.4250  -14.6267   24.8715 N   0  0  0  0  0  0  0  0  0  0  0  0
   20.8880  -14.0248   21.7437 H   0  0  0  0  0  0  0  0  0  0  0  0
   19.8875  -15.1901   25.4738 H   0  0  0  0  0  0  0  0  0  0  0  0
   21.0782  -13.9913   25.2441 H   0  0  0  0  0  0  0  0  0  0  0  0
   14.3193  -13.0414   21.6860 C   0  0  0  0  0  0  0  0  0  0  0  0
   15.6135  -13.0622   20.8329 C   0  0  0  0  0  0  0  0  0  0  0  0
   15.5404  -11.9971   19.7171 C   0  0  0  0  0  0  0  0  0  0  0  0
   16.8325  -11.9782   18.8845 C   0  0  0  0  0  0  0  0  0  0  0  0
   18.0626  -11.7577   19.7832 C   0  0  0  0  0  0  0  0  0  0  0  0
   18.1503  -12.8480   20.8676 C   0  0  0  0  0  0  0  0  0  0  0  0
   16.8615  -12.8241   21.7117 C   0  0  0  0  0  0  0  0  0  0  0  0
   13.2915  -12.1500   21.0894 N   0  0  0  0  0  0  0  0  0  0  0  0
   12.8998  -12.6227   20.2749 H   0  0  0  0  0  0  0  0  0  0  0  0
   12.1635  -11.7782   21.9921 C   0  0  0  0  0  0  0  0  0  0  0  0
   11.3636  -10.7818   24.6848 C   0  0  0  0  0  0  0  0  0  0  0  0
   12.2348  -10.3121   22.3916 C   0  0  0  0  0  0  0  0  0  0  0  0
   12.6359   -9.4941   21.5693 O   0  0  0  0  0  0  0  0  0  0  0  0
   11.9120   -8.4294   23.9685 C   0  0  0  0  0  0  0  0  0  0  0  0
   11.8525   -9.8693   23.6351 N   0  0  0  0  0  0  0  0  0  0  0  0
 25 26  1  0  0  0
 25 30  1  0  0  0
 25 24  1  0  0  0
 26 27  1  0  0  0
 27 28  1  0  0  0
 28 29  1  0  0  0
 29 30  1  0  0  0
 31 24  1  0  0  0
 31 33  1  0  0  0
 24  1  1  0  0  0
  1  2  2  0  0  0
  1  3  1  0  0  0
  3  4  1  0  0  0
  3  6  1  0  0  0
  4  7  1  0  0  0
  4  5  1  0  0  0
  7  8  2  0  0  0
  7  9  1  0  0  0
  9 11  1  0  0  0
 11 12  1  0  0  0
 12 13  1  0  0  0
 12 17  2  0  0  0
 13 14  2  0  0  0
 14 15  1  0  0  0
 15 16  2  0  0  0
 15 18  1  0  0  0
 16 17  1  0  0  0
 18 19  2  0  0  0
 18 20  1  0  0  0
  5  6  1  0  0  0
 33 35  1  0  0  0
 34 38  1  0  0  0
 35 36  2  0  0  0
 35 38  1  0  0  0
 37 38  1  0  0  0
 31 32  1  0  0  0
  9 10  1  0  0  0
 19 21  1  0  0  0
 20 22  1  0  0  0
 20 23  1  0  0  0
M  END
> <minimizedAffinity>
-8.10621

$$$$
4BAM_MM9_B_1287


 38 40  0  0  0  0  0  0  0  0999 V2000
   15.1696  -13.7306   21.1510 C   0  0  0  0  0  0  0  0  0  0  0  0
   14.5217  -13.8263   22.1889 O   0  0  0  0  0  0  0  0  0  0  0  0
   15.1681  -14.7789   20.3036 N   0  0  0  0  0  0  0  0  0  0  0  0
   14.6088  -16.1255   20.4542 C   0  0  0  0  0  0  0  0  0  0  0  0
   15.4183  -16.6423   19.2582 C   0  0  0  0  0  0  0  0  0  0  0  0
   15.8414  -15.1821   19.0522 C   0  0  0  0  0  0  0  0  0  0  0  0
   15.0655  -16.6112   21.8206 C   0  0  0  0  0  0  0  0  0  0  0  0
   14.2754  -17.1765   22.5584 O   0  0  0  0  0  0  0  0  0  0  0  0
   16.3708  -16.5508   22.1396 N   0  0  0  0  0  0  0  0  0  0  0  0
   17.0083  -16.1464   21.5078 H   0  0  0  0  0  0  0  0  0  0  0  0
   16.8542  -17.0805   23.4175 C   0  0  0  0  0  0  0  0  0  0  0  0
   18.2722  -16.6099   23.6068 C   0  0  0  0  0  0  0  0  0  0  0  0
   18.5388  -15.6608   24.5873 C   0  0  0  0  0  0  0  0  0  0  0  0
   19.8283  -15.2147   24.7921 C   0  0  0  0  0  0  0  0  0  0  0  0
   20.8582  -15.6780   23.9540 C   0  0  0  0  0  0  0  0  0  0  0  0
   20.5823  -16.6320   22.9561 C   0  0  0  0  0  0  0  0  0  0  0  0
   19.2817  -17.0978   22.7979 C   0  0  0  0  0  0  0  0  0  0  0  0
   22.2515  -15.2279   24.2026 C   0  0  0  0  0  0  0  0  0  0  0  0
   22.7049  -14.1375   23.6505 N   0  0  0  0  0  0  0  0  0  0  0  0
   23.0705  -15.9143   25.0925 N   0  0  0  0  0  0  0  0  0  0  0  0
   22.1422  -13.6356   23.0175 H   0  0  0  0  0  0  0  0  0  0  0  0
   22.7485  -16.7401   25.5210 H   0  0  0  0  0  0  0  0  0  0  0  0
   23.9722  -15.5745   25.2939 H   0  0  0  0  0  0  0  0  0  0  0  0
   15.9610  -12.4705   20.8938 C   0  0  0  0  0  0  0  0  0  0  0  0
   17.4309  -12.8282   20.5550 C   0  0  0  0  0  0  0  0  0  0  0  0
   18.1057  -11.6673   19.7924 C   0  0  0  0  0  0  0  0  0  0  0  0
   19.5762  -11.9900   19.4816 C   0  0  0  0  0  0  0  0  0  0  0  0
   20.3480  -12.3322   20.7687 C   0  0  0  0  0  0  0  0  0  0  0  0
   19.6917  -13.5175   21.5015 C   0  0  0  0  0  0  0  0  0  0  0  0
   18.2311  -13.1576   21.8347 C   0  0  0  0  0  0  0  0  0  0  0  0
   15.3083  -11.7443   19.7742 N   0  0  0  0  0  0  0  0  0  0  0  0
   15.4010  -12.3141   18.9333 H   0  0  0  0  0  0  0  0  0  0  0  0
   13.8607  -11.4390   19.9656 C   0  0  0  0  0  0  0  0  0  0  0  0
   12.0640  -11.4826   22.3433 C   0  0  0  0  0  0  0  0  0  0  0  0
   13.6645  -10.2408   20.8822 C   0  0  0  0  0  0  0  0  0  0  0  0
   14.2685   -9.2017   20.6343 O   0  0  0  0  0  0  0  0  0  0  0  0
   12.6431   -9.0764   22.8150 C   0  0  0  0  0  0  0  0  0  0  0  0
   12.8242  -10.2761   21.9690 N   0  0  0  0  0  0  0  0  0  0  0  0
 25 26  1  0  0  0
 25 30  1  0  0  0
 25 24  1  0  0  0
 26 27  1  0  0  0
 27 28  1  0  0  0
 28 29  1  0  0  0
 29 30  1  0  0  0
 31 24  1  0  0  0
 31 33  1  0  0  0
 24  1  1  0  0  0
  1  2  2  0  0  0
  1  3  1  0  0  0
  3  4  1  0  0  0
  3  6  1  0  0  0
  4  7  1  0  0  0
  4  5  1  0  0  0
  7  8  2  0  0  0
  7  9  1  0  0  0
  9 11  1  0  0  0
 11 12  1  0  0  0
 12 13  1  0  0  0
 12 17  2  0  0  0
 13 14  2  0  0  0
 14 15  1  0  0  0
 15 16  2  0  0  0
 15 18  1  0  0  0
 16 17  1  0  0  0
 18 19  2  0  0  0
 18 20  1  0  0  0
  5  6  1  0  0  0
 33 35  1  0  0  0
 34 38  1  0  0  0
 35 36  2  0  0  0
 35 38  1  0  0  0
 37 38  1  0  0  0
 31 32  1  0  0  0
  9 10  1  0  0  0
 19 21  1  0  0  0
 20 22  1  0  0  0
 20 23  1  0  0  0
M  END
> <minimizedAffinity>
-8.05393

$$$$
4BAM_MM9_B_1287


 38 40  0  0  0  0  0  0  0  0999 V2000
   17.6902  -13.1210   22.1120 C   0  0  0  0  0  0  0  0  0  0  0  0
   16.6851  -12.4955   22.4355 O   0  0  0  0  0  0  0  0  0  0  0  0
   18.4949  -12.5861   21.1721 N   0  0  0  0  0  0  0  0  0  0  0  0
   18.3216  -11.3960   20.3341 C   0  0  0  0  0  0  0  0  0  0  0  0
   19.4520  -11.8387   19.3965 C   0  0  0  0  0  0  0  0  0  0  0  0
   19.6921  -12.9747   20.3992 C   0  0  0  0  0  0  0  0  0  0  0  0
   16.9150  -11.4934   19.7654 C   0  0  0  0  0  0  0  0  0  0  0  0
   16.1372  -10.5646   19.9090 O   0  0  0  0  0  0  0  0  0  0  0  0
   16.5925  -12.5356   18.9785 N   0  0  0  0  0  0  0  0  0  0  0  0
   17.2520  -13.2494   18.8211 H   0  0  0  0  0  0  0  0  0  0  0  0
   15.2700  -12.6199   18.3530 C   0  0  0  0  0  0  0  0  0  0  0  0
   14.7452  -14.0153   18.5668 C   0  0  0  0  0  0  0  0  0  0  0  0
   13.6464  -14.1985   19.3990 C   0  0  0  0  0  0  0  0  0  0  0  0
   13.1357  -15.4629   19.6093 C   0  0  0  0  0  0  0  0  0  0  0  0
   13.7792  -16.5705   19.0291 C   0  0  0  0  0  0  0  0  0  0  0  0
   14.8973  -16.3814   18.1947 C   0  0  0  0  0  0  0  0  0  0  0  0
   15.3669  -15.0931   17.9640 C   0  0  0  0  0  0  0  0  0  0  0  0
   13.2038  -17.9259   19.2234 C   0  0  0  0  0  0  0  0  0  0  0  0
   12.5410  -18.2159   20.3077 N   0  0  0  0  0  0  0  0  0  0  0  0
   13.2894  -18.8834   18.2186 N   0  0  0  0  0  0  0  0  0  0  0  0
   12.4675  -17.5530   21.0319 H   0  0  0  0  0  0  0  0  0  0  0  0
   13.7850  -18.6858   17.3912 H   0  0  0  0  0  0  0  0  0  0  0  0
   12.8545  -19.7590   18.3347 H   0  0  0  0  0  0  0  0  0  0  0  0
   17.9542  -14.4650   22.7479 C   0  0  0  0  0  0  0  0  0  0  0  0
   18.5125  -14.2721   24.1812 C   0  0  0  0  0  0  0  0  0  0  0  0
   18.7053  -15.6393   24.8727 C   0  0  0  0  0  0  0  0  0  0  0  0
   19.2945  -15.4685   26.2823 C   0  0  0  0  0  0  0  0  0  0  0  0
   20.6150  -14.6790   26.2343 C   0  0  0  0  0  0  0  0  0  0  0  0
   20.4049  -13.3005   25.5802 C   0  0  0  0  0  0  0  0  0  0  0  0
   19.8489  -13.4975   24.1568 C   0  0  0  0  0  0  0  0  0  0  0  0
   16.6753  -15.2206   22.7619 N   0  0  0  0  0  0  0  0  0  0  0  0
   15.9116  -14.5455   22.8020 H   0  0  0  0  0  0  0  0  0  0  0  0
   16.4426  -16.1087   21.5861 C   0  0  0  0  0  0  0  0  0  0  0  0
   17.4015  -18.8907   21.1119 C   0  0  0  0  0  0  0  0  0  0  0  0
   15.6416  -17.3424   21.9746 C   0  0  0  0  0  0  0  0  0  0  0  0
   14.5452  -17.1925   22.5052 O   0  0  0  0  0  0  0  0  0  0  0  0
   15.2682  -19.7874   22.1084 C   0  0  0  0  0  0  0  0  0  0  0  0
   16.0955  -18.6180   21.7393 N   0  0  0  0  0  0  0  0  0  0  0  0
 25 26  1  0  0  0
 25 30  1  0  0  0
 25 24  1  0  0  0
 26 27  1  0  0  0
 27 28  1  0  0  0
 28 29  1  0  0  0
 29 30  1  0  0  0
 31 24  1  0  0  0
 31 33  1  0  0  0
 24  1  1  0  0  0
  1  2  2  0  0  0
  1  3  1  0  0  0
  3  4  1  0  0  0
  3  6  1  0  0  0
  4  7  1  0  0  0
  4  5  1  0  0  0
  7  8  2  0  0  0
  7  9  1  0  0  0
  9 11  1  0  0  0
 11 12  1  0  0  0
 12 13  1  0  0  0
 12 17  2  0  0  0
 13 14  2  0  0  0
 14 15  1  0  0  0
 15 16  2  0  0  0
 15 18  1  0  0  0
 16 17  1  0  0  0
 18 19  2  0  0  0
 18 20  1  0  0  0
  5  6  1  0  0  0
 33 35  1  0  0  0
 34 38  1  0  0  0
 35 36  2  0  0  0
 35 38  1  0  0  0
 37 38  1  0  0  0
 31 32  1  0  0  0
  9 10  1  0  0  0
 19 21  1  0  0  0
 20 22  1  0  0  0
 20 23  1  0  0  0
M  END
> <minimizedAffinity>
-7.80084

$$$$
4BAM_MM9_B_1287


 38 40  0  0  0  0  0  0  0  0999 V2000
   17.3129  -16.2919   21.3397 C   0  0  0  0  0  0  0  0  0  0  0  0
   16.5489  -15.9435   20.4447 O   0  0  0  0  0  0  0  0  0  0  0  0
   17.2335  -17.5626   21.7824 N   0  0  0  0  0  0  0  0  0  0  0  0
   16.2747  -18.6248   21.4639 C   0  0  0  0  0  0  0  0  0  0  0  0
   16.7286  -19.4556   22.6708 C   0  0  0  0  0  0  0  0  0  0  0  0
   17.8175  -18.3911   22.8568 C   0  0  0  0  0  0  0  0  0  0  0  0
   14.8994  -17.9872   21.5802 C   0  0  0  0  0  0  0  0  0  0  0  0
   14.4423  -17.7279   22.6812 O   0  0  0  0  0  0  0  0  0  0  0  0
   14.2674  -17.5747   20.4667 N   0  0  0  0  0  0  0  0  0  0  0  0
   14.6771  -17.7361   19.5862 H   0  0  0  0  0  0  0  0  0  0  0  0
   12.9758  -16.8879   20.5502 C   0  0  0  0  0  0  0  0  0  0  0  0
   13.2346  -15.4057   20.4819 C   0  0  0  0  0  0  0  0  0  0  0  0
   13.6806  -14.8571   19.2848 C   0  0  0  0  0  0  0  0  0  0  0  0
   13.9191  -13.5017   19.1863 C   0  0  0  0  0  0  0  0  0  0  0  0
   13.7727  -12.6924   20.3270 C   0  0  0  0  0  0  0  0  0  0  0  0
   13.3298  -13.2535   21.5399 C   0  0  0  0  0  0  0  0  0  0  0  0
   13.0551  -14.6153   21.6019 C   0  0  0  0  0  0  0  0  0  0  0  0
   13.9901  -11.2280   20.2085 C   0  0  0  0  0  0  0  0  0  0  0  0
   13.9079  -10.6368   19.0496 N   0  0  0  0  0  0  0  0  0  0  0  0
   14.2028  -10.4487   21.3404 N   0  0  0  0  0  0  0  0  0  0  0  0
   13.7577  -11.1690   18.2351 H   0  0  0  0  0  0  0  0  0  0  0  0
   14.2681  -10.8741   22.2258 H   0  0  0  0  0  0  0  0  0  0  0  0
   14.2880   -9.4715   21.2563 H   0  0  0  0  0  0  0  0  0  0  0  0
   18.2694  -15.2795   21.9232 C   0  0  0  0  0  0  0  0  0  0  0  0
   18.3299  -14.0239   21.0160 C   0  0  0  0  0  0  0  0  0  0  0  0
   17.4485  -12.8968   21.5968 C   0  0  0  0  0  0  0  0  0  0  0  0
   17.5267  -11.6302   20.7292 C   0  0  0  0  0  0  0  0  0  0  0  0
   18.9850  -11.1659   20.5642 C   0  0  0  0  0  0  0  0  0  0  0  0
   19.8480  -12.2821   19.9464 C   0  0  0  0  0  0  0  0  0  0  0  0
   19.7835  -13.5279   20.8508 C   0  0  0  0  0  0  0  0  0  0  0  0
   17.7937  -14.9389   23.2887 N   0  0  0  0  0  0  0  0  0  0  0  0
   16.9244  -15.4460   23.4544 H   0  0  0  0  0  0  0  0  0  0  0  0
   18.7367  -15.2682   24.3967 C   0  0  0  0  0  0  0  0  0  0  0  0
   21.4636  -16.2864   23.7557 C   0  0  0  0  0  0  0  0  0  0  0  0
   19.9693  -14.3775   24.3573 C   0  0  0  0  0  0  0  0  0  0  0  0
   19.8430  -13.1821   24.6045 O   0  0  0  0  0  0  0  0  0  0  0  0
   22.3951  -13.9667   24.0711 C   0  0  0  0  0  0  0  0  0  0  0  0
   21.2209  -14.8663   24.0692 N   0  0  0  0  0  0  0  0  0  0  0  0
 25 26  1  0  0  0
 25 30  1  0  0  0
 25 24  1  0  0  0
 26 27  1  0  0  0
 27 28  1  0  0  0
 28 29  1  0  0  0
 29 30  1  0  0  0
 31 24  1  0  0  0
 31 33  1  0  0  0
 24  1  1  0  0  0
  1  2  2  0  0  0
  1  3  1  0  0  0
  3  4  1  0  0  0
  3  6  1  0  0  0
  4  7  1  0  0  0
  4  5  1  0  0  0
  7  8  2  0  0  0
  7  9  1  0  0  0
  9 11  1  0  0  0
 11 12  1  0  0  0
 12 13  1  0  0  0
 12 17  2  0  0  0
 13 14  2  0  0  0
 14 15  1  0  0  0
 15 16  2  0  0  0
 15 18  1  0  0  0
 16 17  1  0  0  0
 18 19  2  0  0  0
 18 20  1  0  0  0
  5  6  1  0  0  0
 33 35  1  0  0  0
 34 38  1  0  0  0
 35 36  2  0  0  0
 35 38  1  0  0  0
 37 38  1  0  0  0
 31 32  1  0  0  0
  9 10  1  0  0  0
 19 21  1  0  0  0
 20 22  1  0  0  0
 20 23  1  0  0  0
M  END
> <minimizedAffinity>
-7.77043

$$$$
4BAM_MM9_B_1287


 38 40  0  0  0  0  0  0  0  0999 V2000
   17.0631  -16.4822   21.4744 C   0  0  0  0  0  0  0  0  0  0  0  0
   16.7937  -16.4447   20.2777 O   0  0  0  0  0  0  0  0  0  0  0  0
   16.4097  -17.3757   22.2437 N   0  0  0  0  0  0  0  0  0  0  0  0
   15.2940  -18.2717   21.9256 C   0  0  0  0  0  0  0  0  0  0  0  0
   15.0228  -18.5323   23.4127 C   0  0  0  0  0  0  0  0  0  0  0  0
   16.2961  -17.7180   23.6761 C   0  0  0  0  0  0  0  0  0  0  0  0
   14.2664  -17.4118   21.2073 C   0  0  0  0  0  0  0  0  0  0  0  0
   13.4861  -17.9268   20.4236 O   0  0  0  0  0  0  0  0  0  0  0  0
   14.1264  -16.1206   21.5574 N   0  0  0  0  0  0  0  0  0  0  0  0
   14.7240  -15.7328   22.2369 H   0  0  0  0  0  0  0  0  0  0  0  0
   13.0940  -15.2851   20.9385 C   0  0  0  0  0  0  0  0  0  0  0  0
   13.7759  -14.3315   19.9930 C   0  0  0  0  0  0  0  0  0  0  0  0
   13.6868  -12.9657   20.2376 C   0  0  0  0  0  0  0  0  0  0  0  0
   14.3070  -12.0657   19.3955 C   0  0  0  0  0  0  0  0  0  0  0  0
   14.9714  -12.5398   18.2504 C   0  0  0  0  0  0  0  0  0  0  0  0
   15.0513  -13.9232   18.0012 C   0  0  0  0  0  0  0  0  0  0  0  0
   14.4542  -14.8121   18.8883 C   0  0  0  0  0  0  0  0  0  0  0  0
   15.6730  -11.5729   17.3680 C   0  0  0  0  0  0  0  0  0  0  0  0
   15.0338  -10.9677   16.4065 N   0  0  0  0  0  0  0  0  0  0  0  0
   17.0009  -11.2331   17.6023 N   0  0  0  0  0  0  0  0  0  0  0  0
   14.0930  -11.1926   16.2230 H   0  0  0  0  0  0  0  0  0  0  0  0
   17.5028  -11.6775   18.3233 H   0  0  0  0  0  0  0  0  0  0  0  0
   17.4391  -10.5482   17.0472 H   0  0  0  0  0  0  0  0  0  0  0  0
   18.0756  -15.5090   22.0294 C   0  0  0  0  0  0  0  0  0  0  0  0
   18.1047  -14.2237   21.1632 C   0  0  0  0  0  0  0  0  0  0  0  0
   17.2920  -13.0989   21.8408 C   0  0  0  0  0  0  0  0  0  0  0  0
   17.3419  -11.8045   21.0132 C   0  0  0  0  0  0  0  0  0  0  0  0
   18.7964  -11.3664   20.7644 C   0  0  0  0  0  0  0  0  0  0  0  0
   19.5884  -12.4786   20.0516 C   0  0  0  0  0  0  0  0  0  0  0  0
   19.5554  -13.7539   20.9157 C   0  0  0  0  0  0  0  0  0  0  0  0
   17.6945  -15.2076   23.4333 N   0  0  0  0  0  0  0  0  0  0  0  0
   16.8554  -15.7442   23.6534 H   0  0  0  0  0  0  0  0  0  0  0  0
   18.7277  -15.5274   24.4607 C   0  0  0  0  0  0  0  0  0  0  0  0
   21.5312  -16.1774   23.6851 C   0  0  0  0  0  0  0  0  0  0  0  0
   19.8492  -14.4995   24.4560 C   0  0  0  0  0  0  0  0  0  0  0  0
   19.5957  -13.3464   24.7907 O   0  0  0  0  0  0  0  0  0  0  0  0
   22.2024  -13.7925   24.1431 C   0  0  0  0  0  0  0  0  0  0  0  0
   21.1386  -14.8196   24.1046 N   0  0  0  0  0  0  0  0  0  0  0  0
 25 26  1  0  0  0
 25 30  1  0  0  0
 25 24  1  0  0  0
 26 27  1  0  0  0
 27 28  1  0  0  0
 28 29  1  0  0  0
 29 30  1  0  0  0
 31 24  1  0  0  0
 31 33  1  0  0  0
 24  1  1  0  0  0
  1  2  2  0  0  0
  1  3  1  0  0  0
  3  4  1  0  0  0
  3  6  1  0  0  0
  4  7  1  0  0  0
  4  5  1  0  0  0
  7  8  2  0  0  0
  7  9  1  0  0  0
  9 11  1  0  0  0
 11 12  1  0  0  0
 12 13  1  0  0  0
 12 17  2  0  0  0
 13 14  2  0  0  0
 14 15  1  0  0  0
 15 16  2  0  0  0
 15 18  1  0  0  0
 16 17  1  0  0  0
 18 19  2  0  0  0
 18 20  1  0  0  0
  5  6  1  0  0  0
 33 35  1  0  0  0
 34 38  1  0  0  0
 35 36  2  0  0  0
 35 38  1  0  0  0
 37 38  1  0  0  0
 31 32  1  0  0  0
  9 10  1  0  0  0
 19 21  1  0  0  0
 20 22  1  0  0  0
 20 23  1  0  0  0
M  END
> <minimizedAffinity>
-7.72643

$$$$
