4BAM_MM9_B_1287
  RCSB PDB12061711483D
Coordinates from PDB:4BAM:B:1287 Model:1 without hydrogens
 33 35  0  0  0  0            999 V2000
   18.7580  -14.4100   24.2350   C 0  0  0  0  0  0  0  0  0  0  0  0
   18.8850  -15.7670   24.9610   C 0  0  0  0  0  0  0  0  0  0  0  0
   19.4730  -15.5880   26.3700   C 0  0  0  0  0  0  0  0  0  0  0  0
   20.8280  -14.8600   26.3120   C 0  0  0  0  0  0  0  0  0  0  0  0
   20.6840  -13.4900   25.6230   C 0  0  0  0  0  0  0  0  0  0  0  0
   20.1280  -13.6970   24.2010   C 0  0  0  0  0  0  0  0  0  0  0  0
   16.9340  -15.3900   22.8200   N 0  0  0  0  0  0  0  0  0  0  0  0
   18.2000  -14.6130   22.8030   C 0  0  0  0  0  0  0  0  0  0  0  0
   17.9120  -13.2740   22.1670   C 0  0  0  0  0  0  0  0  0  0  0  0
   16.8690  -12.6920   22.4490   O 0  0  0  0  0  0  0  0  0  0  0  0
   18.7370  -12.6980   21.2700   N 0  0  0  0  0  0  0  0  0  0  0  0
   18.5550  -11.5070   20.4350   C 0  0  0  0  0  0  0  0  0  0  0  0
   17.1810  -11.6540   19.8010   C 0  0  0  0  0  0  0  0  0  0  0  0
   16.8790  -12.6960   19.2430   O 0  0  0  0  0  0  0  0  0  0  0  0
   16.2590  -10.6940   19.9950   N 0  0  0  0  0  0  0  0  0  0  0  0
   14.9020  -10.8410   19.4620   C 0  0  0  0  0  0  0  0  0  0  0  0
   13.9440  -10.8230   20.6240   C 0  0  0  0  0  0  0  0  0  0  0  0
   13.3340   -9.6230   20.9720   C 0  0  0  0  0  0  0  0  0  0  0  0
   12.4450   -9.5740   22.0260   C 0  0  0  0  0  0  0  0  0  0  0  0
   12.2150  -10.7340   22.7870   C 0  0  0  0  0  0  0  0  0  0  0  0
   12.8420  -11.9450   22.4370   C 0  0  0  0  0  0  0  0  0  0  0  0
   13.7010  -11.9780   21.3440   C 0  0  0  0  0  0  0  0  0  0  0  0
   11.2270  -10.6890   23.8950   C 0  0  0  0  0  0  0  0  0  0  0  0
   10.9340   -9.5600   24.4770   N 0  0  0  0  0  0  0  0  0  0  0  0
   10.5360  -11.8340   24.2760   N 0  0  0  0  0  0  0  0  0  0  0  0
   19.7440  -11.8950   19.5470   C 0  0  0  0  0  0  0  0  0  0  0  0
   19.9830  -13.0310   20.5500   C 0  0  0  0  0  0  0  0  0  0  0  0
   16.3400  -15.6770   21.4820   C 0  0  0  0  0  0  0  0  0  0  0  0
   14.6100  -15.5200   19.0600   C 0  0  0  0  0  0  0  0  0  0  0  0
   14.8200  -15.6910   21.5430   C 0  0  0  0  0  0  0  0  0  0  0  0
   14.2730  -15.7660   22.6390   O 0  0  0  0  0  0  0  0  0  0  0  0
   12.5630  -15.5960   20.5270   C 0  0  0  0  0  0  0  0  0  0  0  0
   14.0380  -15.6080   20.4160   N 0  0  0  0  0  0  0  0  0  0  0  0
  1  2  1  0  0  0  0
  1  6  1  0  0  0  0
  1  8  1  0  0  0  0
  2  3  1  0  0  0  0
  3  4  1  0  0  0  0
  4  5  1  0  0  0  0
  5  6  1  0  0  0  0
  7  8  1  0  0  0  0
  7 28  1  0  0  0  0
  8  9  1  0  0  0  0
  9 10  2  0  0  0  0
  9 11  1  0  0  0  0
 11 12  1  0  0  0  0
 11 27  1  0  0  0  0
 12 13  1  0  0  0  0
 12 26  1  0  0  0  0
 13 14  2  0  0  0  0
 13 15  1  0  0  0  0
 15 16  1  0  0  0  0
 16 17  1  0  0  0  0
 17 18  1  0  0  0  0
 17 22  2  0  0  0  0
 18 19  2  0  0  0  0
 19 20  1  0  0  0  0
 20 21  2  0  0  0  0
 20 23  1  0  0  0  0
 21 22  1  0  0  0  0
 23 24  2  0  0  0  0
 23 25  1  0  0  0  0
 26 27  1  0  0  0  0
 28 30  1  0  0  0  0
 29 33  1  0  0  0  0
 30 31  2  0  0  0  0
 30 33  1  0  0  0  0
 32 33  1  0  0  0  0
A    1
C1
A    2
C2
A    3
C3
A    4
C4
A    5
C5
A    6
C6
A    7
N7
A    8
C8
A    9
C9
A   10
O0
A   11
N11
A   12
C12
A   13
C13
A   14
O14
A   15
N15
A   16
C16
A   17
C17
A   18
C18
A   19
C19
A   20
C20
A   21
C21
A   22
C22
A   23
C23
A   24
N24
A   25
N25
A   26
C26
A   27
C27
A   28
C28
A   29
C10
A   30
C29
A   31
O30
A   32
C30
A   33
N2
M  END
>  <InstanceId>
4BAM_MM9_B_1287

>  <ChemCompId>
MM9

>  <PdbId>
4BAM

>  <ChainId>
B

>  <ResidueNumber>
1287

>  <InsertionCode>


>  <Model>
1

>  <AltIds>


>  <MissingHeavyAtoms>
0

>  <ObservedFormula>
C24 N6 O3

>  <Name>
(2S)-N-[(4-carbamimidoylphenyl)methyl]-1-[(2R)-2-cyclohexyl-2-[[2-(dimethylamino)-2-oxidanylidene-ethyl]amino]ethanoyl]azetidine-2-carboxamide

>  <SystematicName>
(2S)-N-[(4-carbamimidoylphenyl)methyl]-1-[(2R)-2-cyclohexyl-2-[[2-(dimethylamino)-2-oxidanylidene-ethyl]amino]ethanoyl]azetidine-2-carboxamide

>  <Synonyms>


>  <Type>
non-polymer

>  <Formula>
C24 H36 N6 O3

>  <MolecularWeight>
456.581

>  <ModifiedDate>
2014-09-05

>  <Parent>


>  <OneLetterCode>


>  <SubcomponentList>


>  <AmbiguousFlag>
N

>  <InChI>
InChI=1S/C24H36N6O3/c1-29(2)20(31)15-27-21(17-6-4-3-5-7-17)24(33)30-13-12-19(30)23(32)28-14-16-8-10-18(11-9-16)22(25)26/h8-11,17,19,21,27H,3-7,12-15H2,1-2H3,(H3,25,26)(H,28,32)/t19-,21+/m0/s1

>  <InChIKey>
UBUHFANKPRTXGI-PZJWPPBQSA-N

>  <SMILES>
[H]/N=C(/c1ccc(cc1)CNC(=O)[C@@H]2CCN2C(=O)[C@@H](C3CCCCC3)NCC(=O)N(C)C)\N

$$$$
