4YHO_4CC_H_301
  RCSB PDB12061716263D
Coordinates from PDB:4YHO:H:301 Model:1 without hydrogens
 35 38  0  0  0  0            999 V2000
    4.4630  -20.7060   11.8120   N 0  0  0  0  0  0  0  0  0  0  0  0
    3.5490  -22.8660   12.7840   C 0  0  0  0  0  0  0  0  0  0  0  0
    1.0640  -21.6250   12.2810   C 0  0  0  0  0  0  0  0  0  0  0  0
    3.7680  -19.5800   11.3260   C 0  0  0  0  0  0  0  0  0  0  0  0
    5.9080  -20.9490   11.8930   C 0  0  0  0  0  0  0  0  0  0  0  0
    1.1250  -22.9010   12.8470   C 0  0  0  0  0  0  0  0  0  0  0  0
   -0.6340  -22.2460   15.1610   C 0  0  0  0  0  0  0  0  0  0  0  0
    2.6680  -16.2840    8.1580   C 0  0  0  0  0  0  0  0  0  0  0  0
   -1.2640  -20.9900   15.1720   C 0  0  0  0  0  0  0  0  0  0  0  0
    5.0160  -16.8650    6.8040   C 0  0  0  0  0  0  0  0  0  0  0  0
   -0.9080  -20.1020   16.1750   C 0  0  0  0  0  0  0  0  0  0  0  0
   -3.7840  -25.5120   15.3670   C 0  0  0  0  0  0  0  0  0  0  0  0
    3.4780  -21.5960   12.2240   C 0  0  0  0  0  0  0  0  0  0  0  0
    2.2600  -20.9690   11.9700   C 0  0  0  0  0  0  0  0  0  0  0  0
    2.4620  -19.7070   11.4070   N 0  0  0  0  0  0  0  0  0  0  0  0
    2.3600  -23.5050   13.0880   C 0  0  0  0  0  0  0  0  0  0  0  0
    4.4420  -18.3240   10.7610   C 0  0  0  0  0  0  0  0  0  0  0  0
   -0.1140  -23.6610   13.1980   C 0  0  0  0  0  0  0  0  0  0  0  0
    3.4600  -17.5060   10.0680   N 0  0  0  0  0  0  0  0  0  0  0  0
   -0.9610  -23.1910   14.1640   N 0  0  0  0  0  0  0  0  0  0  0  0
   -0.3520  -24.6920   12.5920   O 0  0  0  0  0  0  0  0  0  0  0  0
    3.6510  -17.0480    8.7780   C 0  0  0  0  0  0  0  0  0  0  0  0
   -2.3230  -23.7480   14.2490   C 0  0  0  0  0  0  0  0  0  0  0  0
    4.8390  -17.3120    8.1010   C 0  0  0  0  0  0  0  0  0  0  0  0
    0.2830  -22.6150   16.0670   N 0  0  0  0  0  0  0  0  0  0  0  0
   -2.4020  -24.8980   15.2410   C 0  0  0  0  0  0  0  0  0  0  0  0
    2.8470  -15.8450    6.8590   C 0  0  0  0  0  0  0  0  0  0  0  0
    0.5990  -21.7230   17.0230   C 0  0  0  0  0  0  0  0  0  0  0  0
    4.0380  -16.0950    6.1830   C 0  0  0  0  0  0  0  0  0  0  0  0
    0.0340  -20.4640   17.1160   C 0  0  0  0  0  0  0  0  0  0  0  0
   -4.7150  -24.7830   15.7840   O 0  0  0  0  0  0  0  0  0  0  0  0
   -3.9170  -26.7180   15.0540   O 0  0  0  0  0  0  0  0  0  0  0  0
    4.2370  -15.6010    4.8060   C 0  0  0  0  0  0  0  0  0  0  0  0
    4.2080  -14.3110    4.5660   N 0  0  0  0  0  0  0  0  0  0  0  0
    4.4380  -16.4520    3.8300   N 0  0  0  0  0  0  0  0  0  0  0  0
 31 12  2  0  0  0  0
 32 12  1  0  0  0  0
 12 26  1  0  0  0  0
 26 23  1  0  0  0  0
 23 20  1  0  0  0  0
  9 11  2  0  0  0  0
  9  7  1  0  0  0  0
 11 30  1  0  0  0  0
 21 18  2  0  0  0  0
 20  7  1  0  0  0  0
 20 18  1  0  0  0  0
  7 25  2  0  0  0  0
 18  6  1  0  0  0  0
 30 28  2  0  0  0  0
 25 28  1  0  0  0  0
  3  6  2  0  0  0  0
  3 14  1  0  0  0  0
  6 16  1  0  0  0  0
 14 15  1  0  0  0  0
 14 13  2  0  0  0  0
 16  2  2  0  0  0  0
 15  4  2  0  0  0  0
  8 27  2  0  0  0  0
  8 22  1  0  0  0  0
 27 29  1  0  0  0  0
 13  2  1  0  0  0  0
 13  1  1  0  0  0  0
 19 22  1  0  0  0  0
 19 17  1  0  0  0  0
 22 24  2  0  0  0  0
  4  1  1  0  0  0  0
  4 17  1  0  0  0  0
 35 33  2  0  0  0  0
 29 33  1  0  0  0  0
 29 10  2  0  0  0  0
 33 34  1  0  0  0  0
  1  5  1  0  0  0  0
 24 10  1  0  0  0  0
A    1
N3
A    2
C4
A    3
C5
A    4
C7
A    5
C8
A    6
C10
A    7
C17
A    8
C20
A    9
C21
A   10
C24
A   11
C26
A   12
C28
A   13
C1
A   14
C2
A   15
N6
A   16
C9
A   17
C11
A   18
C12
A   19
N13
A   20
N14
A   21
O15
A   22
C16
A   23
C18
A   24
C19
A   25
N22
A   26
C23
A   27
C25
A   28
C27
A   29
C29
A   30
C30
A   31
O31
A   32
O32
A   33
C33
A   34
N34
A   35
N35
M  END
>  <InstanceId>
4YHO_4CC_H_301

>  <ChemCompId>
4CC

>  <PdbId>
4YHO

>  <ChainId>
H

>  <ResidueNumber>
301

>  <InsertionCode>


>  <Model>
1

>  <AltIds>


>  <MissingHeavyAtoms>
0

>  <ObservedFormula>
C25 N7 O3

>  <Name>
N-[(2-{[(4-carbamimidoylphenyl)amino]methyl}-1-methyl-1H-benzimidazol-5-yl)carbonyl]-N-pyridin-2-yl-beta-alanine

>  <SystematicName>
3-[[2-[[(4-carbamimidoylphenyl)amino]methyl]-1-methyl-benzimidazol-5-yl]carbonyl-pyridin-2-yl-amino]propanoic acid

>  <Synonyms>


>  <Type>
NON-POLYMER

>  <Formula>
C25 H25 N7 O3

>  <MolecularWeight>
471.511

>  <ModifiedDate>
2015-03-06

>  <Parent>


>  <OneLetterCode>


>  <SubcomponentList>


>  <AmbiguousFlag>
N

>  <InChI>
InChI=1S/C25H25N7O3/c1-31-20-10-7-17(25(35)32(13-11-23(33)34)21-4-2-3-12-28-21)14-19(20)30-22(31)15-29-18-8-5-16(6-9-18)24(26)27/h2-10,12,14,29H,11,13,15H2,1H3,(H3,26,27)(H,33,34)

>  <InChIKey>
YBSJFWOBGCMAKL-UHFFFAOYSA-N

>  <SMILES>
[H]/N=C(\c1ccc(cc1)NCc2nc3cc(ccc3n2C)C(=O)N(CCC(=O)O)c4ccccn4)/N

$$$$
