2ZKJ_ADP_A_501
  RCSB PDB12061707453D
Coordinates from PDB:2ZKJ:A:501 Model:1 without hydrogens
 27 29  0  0  0  0            999 V2000
  -21.6730    5.2810   26.5140   P 0  0  0  0  0  0  0  0  0  0  0  0
  -21.0930    5.2840   27.9140   O 0  0  0  0  0  0  0  0  0  0  0  0
  -23.1380    4.7920   26.4160   O 0  0  0  0  0  0  0  0  0  0  0  0
  -21.5700    6.5460   25.8290   O 0  0  0  0  0  0  0  0  0  0  0  0
  -19.5600    4.5260   24.6230   P 0  0  0  0  0  0  0  0  0  0  0  0
  -19.7820    5.6630   23.7150   O 0  0  0  0  0  0  0  0  0  0  0  0
  -18.9730    3.1650   24.1710   O 0  0  0  0  0  0  0  0  0  0  0  0
  -20.7960    4.1770   25.6370   O 0  0  0  0  0  0  0  0  0  0  0  0
  -18.4730    5.1310   25.5790   O 0  0  0  0  0  0  0  0  0  0  0  0
  -18.0640    4.2960   26.6710   C 0  0  0  0  0  0  0  0  0  0  0  0
  -17.3060    5.0840   27.7650   C 0  0  0  0  0  0  0  0  0  0  0  0
  -16.0770    5.6490   27.2800   O 0  0  0  0  0  0  0  0  0  0  0  0
  -18.0910    6.2850   28.3200   C 0  0  0  0  0  0  0  0  0  0  0  0
  -19.0840    5.8490   29.3000   O 0  0  0  0  0  0  0  0  0  0  0  0
  -16.9520    7.1270   28.9200   C 0  0  0  0  0  0  0  0  0  0  0  0
  -16.6770    6.5460   30.1850   O 0  0  0  0  0  0  0  0  0  0  0  0
  -15.7060    6.7920   28.0780   C 0  0  0  0  0  0  0  0  0  0  0  0
  -15.5070    7.8820   27.1380   N 0  0  0  0  0  0  0  0  0  0  0  0
  -15.8960    7.8510   25.8440   C 0  0  0  0  0  0  0  0  0  0  0  0
  -15.5480    8.9990   25.2730   N 0  0  0  0  0  0  0  0  0  0  0  0
  -15.0020    9.7810   26.2320   C 0  0  0  0  0  0  0  0  0  0  0  0
  -14.4560   11.1190   26.2870   C 0  0  0  0  0  0  0  0  0  0  0  0
  -14.4640   11.9250   25.1590   N 0  0  0  0  0  0  0  0  0  0  0  0
  -13.9550   11.5320   27.4670   N 0  0  0  0  0  0  0  0  0  0  0  0
  -13.9620   10.7930   28.5770   C 0  0  0  0  0  0  0  0  0  0  0  0
  -14.4340    9.5580   28.6160   N 0  0  0  0  0  0  0  0  0  0  0  0
  -14.9620    9.0320   27.4620   C 0  0  0  0  0  0  0  0  0  0  0  0
  1  2  2  0  0  0  0
  1  3  1  0  0  0  0
  1  4  1  0  0  0  0
  1  8  1  0  0  0  0
  5  6  2  0  0  0  0
  5  7  1  0  0  0  0
  5  8  1  0  0  0  0
  5  9  1  0  0  0  0
  9 10  1  0  0  0  0
 10 11  1  0  0  0  0
 11 12  1  0  0  0  0
 11 13  1  0  0  0  0
 12 17  1  0  0  0  0
 13 14  1  0  0  0  0
 13 15  1  0  0  0  0
 15 16  1  0  0  0  0
 15 17  1  0  0  0  0
 17 18  1  0  0  0  0
 18 19  1  0  0  0  0
 18 27  1  0  0  0  0
 19 20  2  0  0  0  0
 20 21  1  0  0  0  0
 21 22  1  0  0  0  0
 21 27  2  0  0  0  0
 22 23  1  0  0  0  0
 22 24  2  0  0  0  0
 24 25  1  0  0  0  0
 25 26  2  0  0  0  0
 26 27  1  0  0  0  0
A    1
PB
A    2
O1B
A    3
O2B
A    4
O3B
A    5
PA
A    6
O1A
A    7
O2A
A    8
O3A
A    9
O5'
A   10
C5'
A   11
C4'
A   12
O4'
A   13
C3'
A   14
O3'
A   15
C2'
A   16
O2'
A   17
C1'
A   18
N9
A   19
C8
A   20
N7
A   21
C5
A   22
C6
A   23
N6
A   24
N1
A   25
C2
A   26
N3
A   27
C4
M  END
>  <InstanceId>
2ZKJ_ADP_A_501

>  <ChemCompId>
ADP

>  <PdbId>
2ZKJ

>  <ChainId>
A

>  <ResidueNumber>
501

>  <InsertionCode>


>  <Model>
1

>  <AltIds>


>  <MissingHeavyAtoms>
0

>  <ObservedFormula>
C10 N5 O10 P2

>  <Name>
ADENOSINE-5'-DIPHOSPHATE

>  <SystematicName>
[(2R,3S,4R,5R)-5-(6-aminopurin-9-yl)-3,4-dihydroxy-oxolan-2-yl]methyl phosphono hydrogen phosphate

>  <Synonyms>


>  <Type>
NON-POLYMER

>  <Formula>
C10 H15 N5 O10 P2

>  <MolecularWeight>
427.201

>  <ModifiedDate>
2011-06-04

>  <Parent>
A

>  <OneLetterCode>


>  <SubcomponentList>


>  <AmbiguousFlag>
N

>  <InChI>
InChI=1S/C10H15N5O10P2/c11-8-5-9(13-2-12-8)15(3-14-5)10-7(17)6(16)4(24-10)1-23-27(21,22)25-26(18,19)20/h2-4,6-7,10,16-17H,1H2,(H,21,22)(H2,11,12,13)(H2,18,19,20)/t4-,6-,7-,10-/m1/s1

>  <InChIKey>
XTWYTFMLZFPYCI-KQYNXXCUSA-N

>  <SMILES>
c1nc(c2c(n1)n(cn2)[C@H]3[C@@H]([C@@H]([C@H](O3)CO[P@](=O)(O)OP(=O)(O)O)O)O)N

$$$$
