3AID_ARQ_A_401
  RCSB PDB12061707533D
Coordinates from PDB:3AID:A:401 Model:1 without hydrogens
 37 39  0  0  0  0            999 V2000
    1.4740    1.3210   11.3540   C 0  0  0  0  0  0  0  0  0  0  0  0
    0.5620    0.2520   12.0360   C 0  0  0  0  0  0  0  0  0  0  0  0
    0.6750    2.6330   11.4100   C 0  0  0  0  0  0  0  0  0  0  0  0
    1.8520    1.0060    9.8910   C 0  0  0  0  0  0  0  0  0  0  0  0
    2.6640    1.5540   12.1080   O 0  0  0  0  0  0  0  0  0  0  0  0
    3.5110    0.5710   12.4000   C 0  0  0  0  0  0  0  0  0  0  0  0
    3.3990   -0.5330   11.9700   O 0  0  0  0  0  0  0  0  0  0  0  0
    4.4970    0.9940   13.1930   N 0  0  0  0  0  0  0  0  0  0  0  0
    5.7160    0.2690   13.5580   C 0  0  0  0  0  0  0  0  0  0  0  0
    6.9530    1.1630   13.3460   C 0  0  0  0  0  0  0  0  0  0  0  0
    6.9750    1.8240   11.9980   C 0  0  0  0  0  0  0  0  0  0  0  0
    6.8150    1.0510   10.8260   C 0  0  0  0  0  0  0  0  0  0  0  0
    6.7910    1.7010    9.5740   C 0  0  0  0  0  0  0  0  0  0  0  0
    6.9270    3.1100    9.5190   C 0  0  0  0  0  0  0  0  0  0  0  0
    7.1140    3.2320   11.9410   C 0  0  0  0  0  0  0  0  0  0  0  0
    7.0850    3.8880   10.6920   C 0  0  0  0  0  0  0  0  0  0  0  0
    5.6420   -0.3190   14.9980   C 0  0  0  0  0  0  0  0  0  0  0  0
    5.2480    0.6510   15.9800   O 0  0  0  0  0  0  0  0  0  0  0  0
    4.6690   -1.5250   15.0080   C 0  0  0  0  0  0  0  0  0  0  0  0
    4.9980   -2.6690   15.9100   N 0  3  0  0  0  0  0  0  0  0  0  0
    5.4410   -2.2190   17.2490   C 0  0  0  0  0  0  0  0  0  0  0  0
    3.7180   -3.4410   16.0240   C 0  0  0  0  0  0  0  0  0  0  0  0
    3.7240   -4.6950   16.8830   C 0  0  0  0  0  0  0  0  0  0  0  0
    4.0550   -5.9400   16.3080   C 0  0  0  0  0  0  0  0  0  0  0  0
    4.1620   -7.1060   17.1090   C 0  0  0  0  0  0  0  0  0  0  0  0
    3.9570   -7.0060   18.5050   C 0  0  0  0  0  0  0  0  0  0  0  0
    3.3860   -4.6320   18.2480   C 0  0  0  0  0  0  0  0  0  0  0  0
    3.5020   -5.7910   19.0630   C 0  0  0  0  0  0  0  0  0  0  0  0
    6.1210   -3.3330   15.2910   N 0  0  0  0  0  0  0  0  0  0  0  0
    6.0670   -4.0330   14.1400   C 0  0  0  0  0  0  0  0  0  0  0  0
    5.0150   -4.2240   13.5230   O 0  0  0  0  0  0  0  0  0  0  0  0
    7.3600   -4.5790   13.6740   C 0  0  0  0  0  0  0  0  0  0  0  0
    7.3430   -5.4900   12.5820   C 0  0  0  0  0  0  0  0  0  0  0  0
    8.5210   -6.1010   12.1230   C 0  0  0  0  0  0  0  0  0  0  0  0
    9.7140   -5.7960   12.7960   C 0  0  0  0  0  0  0  0  0  0  0  0
    8.5930   -4.2220   14.2790   C 0  0  0  0  0  0  0  0  0  0  0  0
    9.7810   -4.8390   13.8380   C 0  0  0  0  0  0  0  0  0  0  0  0
  1  2  1  0  0  0  0
  1  3  1  0  0  0  0
  1  4  1  0  0  0  0
  1  5  1  0  0  0  0
  5  6  1  0  0  0  0
  6  7  2  0  0  0  0
  6  8  1  0  0  0  0
  8  9  1  0  0  0  0
  9 10  1  0  0  0  0
  9 17  1  0  0  0  0
 10 11  1  0  0  0  0
 11 12  2  0  0  0  0
 11 15  1  0  0  0  0
 12 13  1  0  0  0  0
 13 14  2  0  0  0  0
 14 16  1  0  0  0  0
 15 16  2  0  0  0  0
 17 18  1  0  0  0  0
 17 19  1  0  0  0  0
 19 20  1  0  0  0  0
 20 21  1  0  0  0  0
 20 22  1  0  0  0  0
 20 29  1  0  0  0  0
 22 23  1  0  0  0  0
 23 24  2  0  0  0  0
 23 27  1  0  0  0  0
 24 25  1  0  0  0  0
 25 26  2  0  0  0  0
 26 28  1  0  0  0  0
 27 28  2  0  0  0  0
 29 30  1  0  0  0  0
 30 31  2  0  0  0  0
 30 32  1  0  0  0  0
 32 33  2  0  0  0  0
 32 36  1  0  0  0  0
 33 34  1  0  0  0  0
 34 35  2  0  0  0  0
 35 37  1  0  0  0  0
 36 37  2  0  0  0  0
M  CHG  1  20   1
A    1
C1
A    2
C2
A    3
C3
A    4
C4
A    5
O4
A    6
C30
A    7
O3
A    8
N1
A    9
C5
A   10
C6
A   11
C7
A   12
C8
A   13
C9
A   14
C10
A   15
C11
A   16
C12
A   17
C13
A   18
O1
A   19
C14
A   20
N2
A   21
C22
A   22
C15
A   23
C16
A   24
C17
A   25
C18
A   26
C19
A   27
C20
A   28
C21
A   29
N3
A   30
C23
A   31
O2
A   32
C27
A   33
C26
A   34
C25
A   35
C24
A   36
C28
A   37
C29
M  END
>  <InstanceId>
3AID_ARQ_A_401

>  <ChemCompId>
ARQ

>  <PdbId>
3AID

>  <ChainId>
A

>  <ResidueNumber>
401

>  <InsertionCode>


>  <Model>
1

>  <AltIds>


>  <MissingHeavyAtoms>
0

>  <ObservedFormula>
C30 N3 O4

>  <Name>
BENZOYLAMINO-BENZYL-METHYL-[2-HYDROXY-3-[1-METHYL-ETHYL-OXY-N-FORMAMIDYL]-4-PHENYL-BUTYL]-AMMONIUM

>  <SystematicName>
(R)-benzamido-[(2S,3S)-2-hydroxy-3-[(2-methylpropan-2-yl)oxycarbonylamino]-4-phenyl-butyl]-methyl-(phenylmethyl)azanium

>  <Synonyms>


>  <Type>
NON-POLYMER

>  <Formula>
C30 H38 N3 O4

>  <MolecularWeight>
504.64

>  <ModifiedDate>
2011-06-04

>  <Parent>


>  <OneLetterCode>


>  <SubcomponentList>


>  <AmbiguousFlag>
N

>  <InChI>
InChI=1S/C30H37N3O4/c1-30(2,3)37-29(36)31-26(20-23-14-8-5-9-15-23)27(34)22-33(4,21-24-16-10-6-11-17-24)32-28(35)25-18-12-7-13-19-25/h5-19,26-27,34H,20-22H2,1-4H3,(H-,31,32,35,36)/p+1/t26-,27-,33+/m0/s1

>  <InChIKey>
KTCIZECZUWZDHY-ZTMGNVKNSA-O

>  <SMILES>
CC(C)(C)OC(=O)N[C@@H](Cc1ccccc1)[C@H](C[N@@+](C)(Cc2ccccc2)NC(=O)c3ccccc3)O

$$$$
