4FL1_ANP_A_701
  RCSB PDB12061712333D
Coordinates from PDB:4FL1:A:701 Model:1 without hydrogens
 31 33  0  0  0  0            999 V2000
   -1.1030    6.8570    8.5530   P 0  0  0  0  0  0  0  0  0  0  0  0
   -1.1310    6.8560   10.1190   O 0  0  0  0  0  0  0  0  0  0  0  0
   -1.3840    8.3120    8.0270   O 0  0  0  0  0  0  0  0  0  0  0  0
   -2.2630    5.9090    8.0810   O 0  0  0  0  0  0  0  0  0  0  0  0
    1.7870    7.0150    8.4970   P 0  0  0  0  0  0  0  0  0  0  0  0
    2.6810    7.4380    7.3050   O 0  0  0  0  0  0  0  0  0  0  0  0
    1.5010    8.2560    9.3810   O 0  0  0  0  0  0  0  0  0  0  0  0
    0.3670    6.2880    7.9320   N 0  0  0  0  0  0  0  0  0  0  0  0
    2.4540    5.3990   10.8840   P 0  0  0  0  0  0  0  0  0  0  0  0
    3.7690    5.5720   11.6890   O 0  0  0  0  0  0  0  0  0  0  0  0
    1.3240    6.1930   11.5910   O 0  0  0  0  0  0  0  0  0  0  0  0
    2.6220    5.9510    9.3770   O 0  0  0  0  0  0  0  0  0  0  0  0
    2.0270    3.8530   10.7630   O 0  0  0  0  0  0  0  0  0  0  0  0
    0.6800    3.4680   10.4460   C 0  0  0  0  0  0  0  0  0  0  0  0
    0.1620    2.4370   11.4530   C 0  0  0  0  0  0  0  0  0  0  0  0
    1.0720    1.3140   11.5180   O 0  0  0  0  0  0  0  0  0  0  0  0
    0.1100    2.9870   12.8950   C 0  0  0  0  0  0  0  0  0  0  0  0
   -1.0880    3.7270   13.1310   O 0  0  0  0  0  0  0  0  0  0  0  0
    0.1700    1.6820   13.7250   C 0  0  0  0  0  0  0  0  0  0  0  0
   -1.1260    1.0610   13.7740   O 0  0  0  0  0  0  0  0  0  0  0  0
    1.1560    0.8200   12.8810   C 0  0  0  0  0  0  0  0  0  0  0  0
    2.5330    0.8730   13.4110   N 0  0  0  0  0  0  0  0  0  0  0  0
    3.5550    1.6970   13.0160   C 0  0  0  0  0  0  0  0  0  0  0  0
    4.6280    1.4840   13.7450   N 0  0  0  0  0  0  0  0  0  0  0  0
    4.3470    0.5390   14.6850   C 0  0  0  0  0  0  0  0  0  0  0  0
    5.0470   -0.0750   15.7570   C 0  0  0  0  0  0  0  0  0  0  0  0
    6.3570    0.2410   16.0860   N 0  0  0  0  0  0  0  0  0  0  0  0
    4.4040   -0.9860   16.5000   N 0  0  0  0  0  0  0  0  0  0  0  0
    3.1410   -1.2910   16.2740   C 0  0  0  0  0  0  0  0  0  0  0  0
    2.4530   -0.7660   15.2890   N 0  0  0  0  0  0  0  0  0  0  0  0
    3.0020    0.1580   14.4850   C 0  0  0  0  0  0  0  0  0  0  0  0
  1  2  2  0  0  0  0
  1  3  1  0  0  0  0
  1  4  1  0  0  0  0
  1  8  1  0  0  0  0
  5  6  2  0  0  0  0
  5  7  1  0  0  0  0
  5  8  1  0  0  0  0
  5 12  1  0  0  0  0
  9 10  2  0  0  0  0
  9 11  1  0  0  0  0
  9 12  1  0  0  0  0
  9 13  1  0  0  0  0
 13 14  1  0  0  0  0
 14 15  1  0  0  0  0
 15 16  1  0  0  0  0
 15 17  1  0  0  0  0
 16 21  1  0  0  0  0
 17 18  1  0  0  0  0
 17 19  1  0  0  0  0
 19 20  1  0  0  0  0
 19 21  1  0  0  0  0
 21 22  1  0  0  0  0
 22 23  1  0  0  0  0
 22 31  1  0  0  0  0
 23 24  2  0  0  0  0
 24 25  1  0  0  0  0
 25 26  1  0  0  0  0
 25 31  2  0  0  0  0
 26 27  1  0  0  0  0
 26 28  2  0  0  0  0
 28 29  1  0  0  0  0
 29 30  2  0  0  0  0
 30 31  1  0  0  0  0
A    1
PG
A    2
O1G
A    3
O2G
A    4
O3G
A    5
PB
A    6
O1B
A    7
O2B
A    8
N3B
A    9
PA
A   10
O1A
A   11
O2A
A   12
O3A
A   13
O5'
A   14
C5'
A   15
C4'
A   16
O4'
A   17
C3'
A   18
O3'
A   19
C2'
A   20
O2'
A   21
C1'
A   22
N9
A   23
C8
A   24
N7
A   25
C5
A   26
C6
A   27
N6
A   28
N1
A   29
C2
A   30
N3
A   31
C4
M  END
>  <InstanceId>
4FL1_ANP_A_701

>  <ChemCompId>
ANP

>  <PdbId>
4FL1

>  <ChainId>
A

>  <ResidueNumber>
701

>  <InsertionCode>


>  <Model>
1

>  <AltIds>


>  <MissingHeavyAtoms>
0

>  <ObservedFormula>
C10 N6 O12 P3

>  <Name>
PHOSPHOAMINOPHOSPHONIC ACID-ADENYLATE ESTER

>  <SystematicName>
[[[[(2R,3S,4R,5R)-5-(6-aminopurin-9-yl)-3,4-dihydroxy-oxolan-2-yl]methoxy-hydroxy-phosphoryl]oxy-hydroxy-phosphoryl]amino]phosphonic acid

>  <Synonyms>


>  <Type>
NON-POLYMER

>  <Formula>
C10 H17 N6 O12 P3

>  <MolecularWeight>
506.196

>  <ModifiedDate>
2011-06-04

>  <Parent>


>  <OneLetterCode>


>  <SubcomponentList>


>  <AmbiguousFlag>
N

>  <InChI>
InChI=1S/C10H17N6O12P3/c11-8-5-9(13-2-12-8)16(3-14-5)10-7(18)6(17)4(27-10)1-26-31(24,25)28-30(22,23)15-29(19,20)21/h2-4,6-7,10,17-18H,1H2,(H,24,25)(H2,11,12,13)(H4,15,19,20,21,22,23)/t4-,6-,7-,10-/m1/s1

>  <InChIKey>
PVKSNHVPLWYQGJ-KQYNXXCUSA-N

>  <SMILES>
c1nc(c2c(n1)n(cn2)[C@H]3[C@@H]([C@@H]([C@H](O3)CO[P@](=O)(O)O[P@@](=O)(NP(=O)(O)O)O)O)O)N

$$$$
