2JDU_MFU_C_1117
  RCSB PDB12061706023D
Coordinates from PDB:2JDU:C:1117 Model:1 without hydrogens
 12 12  0  0  0  0            999 V2000
  -40.0780   20.3600   11.1970   C 0  0  0  0  0  0  0  0  0  0  0  0
  -38.6790   19.8620   11.4050   C 0  0  0  0  0  0  0  0  0  0  0  0
  -38.1330   20.3660   12.7550   C 0  0  0  0  0  0  0  0  0  0  0  0
  -39.0380   20.0820   13.9480   C 0  0  0  0  0  0  0  0  0  0  0  0
  -40.4120   20.6450   13.6230   C 0  0  0  0  0  0  0  0  0  0  0  0
  -41.4090   20.5160   14.7940   C 0  0  0  0  0  0  0  0  0  0  0  0
  -40.0430   21.7910   11.0070   O 0  0  0  0  0  0  0  0  0  0  0  0
  -37.7690   20.2470   10.3390   O 0  0  0  0  0  0  0  0  0  0  0  0
  -36.8690   19.7030   12.9710   O 0  0  0  0  0  0  0  0  0  0  0  0
  -39.0420   18.6540   14.1730   O 0  0  0  0  0  0  0  0  0  0  0  0
  -40.8770   20.0520   12.3800   O 0  0  0  0  0  0  0  0  0  0  0  0
  -41.3320   22.2360   10.4930   C 0  0  0  0  0  0  0  0  0  0  0  0
  1  2  1  0  0  0  0
  1  7  1  0  0  0  0
  1 11  1  0  0  0  0
  2  3  1  0  0  0  0
  2  8  1  0  0  0  0
  3  4  1  0  0  0  0
  3  9  1  0  0  0  0
  4  5  1  0  0  0  0
  4 10  1  0  0  0  0
  5  6  1  0  0  0  0
  5 11  1  0  0  0  0
  7 12  1  0  0  0  0
A    1
C1
A    2
C2
A    3
C3
A    4
C4
A    5
C5
A    6
C6
A    7
O1
A    8
O2
A    9
O3
A   10
O4
A   11
O5
A   12
CM
M  END
>  <InstanceId>
2JDU_MFU_C_1117

>  <ChemCompId>
MFU

>  <PdbId>
2JDU

>  <ChainId>
C

>  <ResidueNumber>
1117

>  <InsertionCode>


>  <Model>
1

>  <AltIds>


>  <MissingHeavyAtoms>
0

>  <ObservedFormula>
C7 O5

>  <Name>
ALPHA-L-METHYL-FUCOSE

>  <SystematicName>
(2R,3S,4R,5S,6S)-2-methoxy-6-methyl-oxane-3,4,5-triol

>  <Synonyms>


>  <Type>
L-SACCHARIDE

>  <Formula>
C7 H14 O5

>  <MolecularWeight>
178.183

>  <ModifiedDate>
2011-06-04

>  <Parent>


>  <OneLetterCode>


>  <SubcomponentList>


>  <AmbiguousFlag>
N

>  <InChI>
InChI=1S/C7H14O5/c1-3-4(8)5(9)6(10)7(11-2)12-3/h3-10H,1-2H3/t3-,4+,5+,6-,7+/m0/s1

>  <InChIKey>
OHWCAVRRXKJCRB-CXNFULCWSA-N

>  <SMILES>
C[C@H]1[C@H]([C@H]([C@@H]([C@@H](O1)OC)O)O)O

$$$$
