5ORW_A6E_A_404


 18 19  0  0  0  0  0  0  0  0999 V2000
  -13.8322   13.5330  -16.1511 C   0  0  0  0  0  0  0  0  0  0  0  0
  -12.9014   12.7141  -15.2461 C   0  0  0  0  0  0  0  0  0  0  0  0
  -11.3024   10.9695  -13.7510 C   0  0  0  0  0  0  0  0  0  0  0  0
  -11.4529   10.2677  -12.4231 C   0  0  0  0  0  0  0  0  0  0  0  0
  -12.2595    8.1451  -13.8037 C   0  0  0  0  0  0  0  0  0  0  0  0
  -12.0703    8.9901  -15.0432 C   0  0  0  0  0  0  0  0  0  0  0  0
  -13.0130   11.2409  -15.4877 C   0  0  0  0  0  0  0  0  0  0  0  0
  -13.7719   10.7872  -16.3525 O   0  0  0  0  0  0  0  0  0  0  0  0
  -12.2114   10.4251  -14.7748 N   0  0  0  0  0  0  0  0  0  0  0  0
  -11.0450    8.5237  -12.5350 S   0  0  0  0  0  0  0  0  0  0  0  0
  -13.1267   13.7635  -17.3798 O   0  0  0  0  0  0  0  0  0  0  0  0
  -12.1478   17.3264  -17.7938 C   0  0  0  0  0  0  0  0  0  0  0  0
  -12.9346   16.1929  -17.6968 C   0  0  0  0  0  0  0  0  0  0  0  0
  -12.3462   14.9601  -17.5166 C   0  0  0  0  0  0  0  0  0  0  0  0
  -10.9761   14.8472  -17.4328 C   0  0  0  0  0  0  0  0  0  0  0  0
  -10.1815   15.9776  -17.5280 C   0  0  0  0  0  0  0  0  0  0  0  0
  -10.7946   17.1839  -17.7079 C   0  0  0  0  0  0  0  0  0  0  0  0
  -10.0239   18.2865  -17.8062 F   0  0  0  0  0  0  0  0  0  0  0  0
 12 13  2  0  0  0
 12 17  1  0  0  0
 13 14  1  0  0  0
 18 17  1  0  0  0
 17 16  2  0  0  0
  1  2  1  0  0  0
  1 11  1  0  0  0
 14 11  1  0  0  0
 14 15  2  0  0  0
  2  7  1  0  0  0
 16 15  1  0  0  0
  7  8  2  0  0  0
  7  9  1  0  0  0
  3  9  1  0  0  0
  3  4  1  0  0  0
  9  6  1  0  0  0
  4 10  1  0  0  0
  6  5  1  0  0  0
 10  5  1  0  0  0
M  END
> <minimizedAffinity>
-6.28267

$$$$
5ORW_A6E_A_404


 18 19  0  0  0  0  0  0  0  0999 V2000
  -13.5119   13.8058  -15.9540 C   0  0  0  0  0  0  0  0  0  0  0  0
  -12.2234   13.0871  -15.5303 C   0  0  0  0  0  0  0  0  0  0  0  0
  -11.4819   10.3896  -15.4322 C   0  0  0  0  0  0  0  0  0  0  0  0
  -10.1975    9.6527  -15.1394 C   0  0  0  0  0  0  0  0  0  0  0  0
  -11.1017    9.3651  -12.6571 C   0  0  0  0  0  0  0  0  0  0  0  0
  -12.3230   10.1343  -13.1074 C   0  0  0  0  0  0  0  0  0  0  0  0
  -12.3782   12.3387  -14.2430 C   0  0  0  0  0  0  0  0  0  0  0  0
  -12.8538   12.8803  -13.2380 O   0  0  0  0  0  0  0  0  0  0  0  0
  -12.0407   11.0340  -14.2308 N   0  0  0  0  0  0  0  0  0  0  0  0
  -10.4408    8.3209  -13.9613 S   0  0  0  0  0  0  0  0  0  0  0  0
  -13.5438   13.7986  -17.3891 O   0  0  0  0  0  0  0  0  0  0  0  0
  -12.0932   15.9363  -20.0630 C   0  0  0  0  0  0  0  0  0  0  0  0
  -12.5744   14.8199  -19.4031 C   0  0  0  0  0  0  0  0  0  0  0  0
  -13.0085   14.9247  -18.0997 C   0  0  0  0  0  0  0  0  0  0  0  0
  -12.9662   16.1364  -17.4462 C   0  0  0  0  0  0  0  0  0  0  0  0
  -12.4868   17.2591  -18.1004 C   0  0  0  0  0  0  0  0  0  0  0  0
  -12.0627   17.1220  -19.3907 C   0  0  0  0  0  0  0  0  0  0  0  0
  -11.5903   18.2121  -20.0294 F   0  0  0  0  0  0  0  0  0  0  0  0
 12 13  2  0  0  0
 12 17  1  0  0  0
 13 14  1  0  0  0
 18 17  1  0  0  0
 17 16  2  0  0  0
  1  2  1  0  0  0
  1 11  1  0  0  0
 14 11  1  0  0  0
 14 15  2  0  0  0
  2  7  1  0  0  0
 16 15  1  0  0  0
  7  8  2  0  0  0
  7  9  1  0  0  0
  3  9  1  0  0  0
  3  4  1  0  0  0
  9  6  1  0  0  0
  4 10  1  0  0  0
  6  5  1  0  0  0
 10  5  1  0  0  0
M  END
> <minimizedAffinity>
-6.16569

$$$$
5ORW_A6E_A_404


 18 19  0  0  0  0  0  0  0  0999 V2000
  -11.6183   13.1584  -14.6916 C   0  0  0  0  0  0  0  0  0  0  0  0
  -10.8954   11.8083  -14.7949 C   0  0  0  0  0  0  0  0  0  0  0  0
  -10.7485    9.0190  -14.9789 C   0  0  0  0  0  0  0  0  0  0  0  0
   -9.6252    8.0113  -14.9418 C   0  0  0  0  0  0  0  0  0  0  0  0
  -10.1999    7.6862  -12.3676 C   0  0  0  0  0  0  0  0  0  0  0  0
  -11.2781    8.7270  -12.5681 C   0  0  0  0  0  0  0  0  0  0  0  0
  -11.0197   10.9915  -13.5465 C   0  0  0  0  0  0  0  0  0  0  0  0
  -11.2158   11.5236  -12.4474 O   0  0  0  0  0  0  0  0  0  0  0  0
  -10.9741    9.6500  -13.6667 N   0  0  0  0  0  0  0  0  0  0  0  0
   -9.9770    6.6542  -13.8214 S   0  0  0  0  0  0  0  0  0  0  0  0
  -12.2624   13.3871  -15.9539 O   0  0  0  0  0  0  0  0  0  0  0  0
  -10.3019   15.9815  -17.7565 C   0  0  0  0  0  0  0  0  0  0  0  0
  -10.5982   14.8631  -16.9985 C   0  0  0  0  0  0  0  0  0  0  0  0
  -11.9097   14.5547  -16.7103 C   0  0  0  0  0  0  0  0  0  0  0  0
  -12.9315   15.3545  -17.1721 C   0  0  0  0  0  0  0  0  0  0  0  0
  -12.6431   16.4754  -17.9327 C   0  0  0  0  0  0  0  0  0  0  0  0
  -11.3338   16.7547  -18.1994 C   0  0  0  0  0  0  0  0  0  0  0  0
  -11.0487   17.8484  -18.9355 F   0  0  0  0  0  0  0  0  0  0  0  0
 12 13  2  0  0  0
 12 17  1  0  0  0
 13 14  1  0  0  0
 18 17  1  0  0  0
 17 16  2  0  0  0
  1  2  1  0  0  0
  1 11  1  0  0  0
 14 11  1  0  0  0
 14 15  2  0  0  0
  2  7  1  0  0  0
 16 15  1  0  0  0
  7  8  2  0  0  0
  7  9  1  0  0  0
  3  9  1  0  0  0
  3  4  1  0  0  0
  9  6  1  0  0  0
  4 10  1  0  0  0
  6  5  1  0  0  0
 10  5  1  0  0  0
M  END
> <minimizedAffinity>
-6.14554

$$$$
5ORW_A6E_A_404


 18 19  0  0  0  0  0  0  0  0999 V2000
  -13.7188   13.3709  -15.9029 C   0  0  0  0  0  0  0  0  0  0  0  0
  -12.7760   12.4075  -15.1685 C   0  0  0  0  0  0  0  0  0  0  0  0
  -11.0726   10.4433  -14.1311 C   0  0  0  0  0  0  0  0  0  0  0  0
  -11.0721    9.5898  -12.8861 C   0  0  0  0  0  0  0  0  0  0  0  0
  -12.1649    7.6786  -14.3744 C   0  0  0  0  0  0  0  0  0  0  0  0
  -12.1079    8.6621  -15.5214 C   0  0  0  0  0  0  0  0  0  0  0  0
  -12.9918   10.9792  -15.5614 C   0  0  0  0  0  0  0  0  0  0  0  0
  -13.8844   10.6590  -16.3553 O   0  0  0  0  0  0  0  0  0  0  0  0
  -12.1401   10.0573  -15.0704 N   0  0  0  0  0  0  0  0  0  0  0  0
  -10.7694    7.8604  -13.2574 S   0  0  0  0  0  0  0  0  0  0  0  0
  -13.1384   13.6255  -17.1908 O   0  0  0  0  0  0  0  0  0  0  0  0
  -10.2705   15.9664  -17.5357 C   0  0  0  0  0  0  0  0  0  0  0  0
  -10.9845   14.8014  -17.3204 C   0  0  0  0  0  0  0  0  0  0  0  0
  -12.3610   14.8174  -17.3771 C   0  0  0  0  0  0  0  0  0  0  0  0
  -13.0340   15.9885  -17.6466 C   0  0  0  0  0  0  0  0  0  0  0  0
  -12.3263   17.1589  -17.8643 C   0  0  0  0  0  0  0  0  0  0  0  0
  -10.9636   17.1104  -17.7997 C   0  0  0  0  0  0  0  0  0  0  0  0
  -10.2711   18.2493  -18.0062 F   0  0  0  0  0  0  0  0  0  0  0  0
 12 13  2  0  0  0
 12 17  1  0  0  0
 13 14  1  0  0  0
 18 17  1  0  0  0
 17 16  2  0  0  0
  1  2  1  0  0  0
  1 11  1  0  0  0
 14 11  1  0  0  0
 14 15  2  0  0  0
  2  7  1  0  0  0
 16 15  1  0  0  0
  7  8  2  0  0  0
  7  9  1  0  0  0
  3  9  1  0  0  0
  3  4  1  0  0  0
  9  6  1  0  0  0
  4 10  1  0  0  0
  6  5  1  0  0  0
 10  5  1  0  0  0
M  END
> <minimizedAffinity>
-6.12058

$$$$
5ORW_A6E_A_404


 18 19  0  0  0  0  0  0  0  0999 V2000
   -9.0741   12.7171  -17.1590 C   0  0  0  0  0  0  0  0  0  0  0  0
   -9.0797   14.0329  -17.9494 C   0  0  0  0  0  0  0  0  0  0  0  0
  -11.1282   15.9368  -18.0706 C   0  0  0  0  0  0  0  0  0  0  0  0
  -11.2482   17.3312  -18.6361 C   0  0  0  0  0  0  0  0  0  0  0  0
  -12.3362   16.2070  -20.7842 C   0  0  0  0  0  0  0  0  0  0  0  0
  -12.1323   14.8822  -20.0848 C   0  0  0  0  0  0  0  0  0  0  0  0
  -10.0282   14.0052  -19.1073 C   0  0  0  0  0  0  0  0  0  0  0  0
   -9.9411   13.1420  -19.9887 O   0  0  0  0  0  0  0  0  0  0  0  0
  -11.0224   14.9148  -19.1266 N   0  0  0  0  0  0  0  0  0  0  0  0
  -12.7287   17.5276  -19.6309 S   0  0  0  0  0  0  0  0  0  0  0  0
  -10.4304   12.2492  -17.1135 O   0  0  0  0  0  0  0  0  0  0  0  0
  -13.1869   13.5455  -14.9816 C   0  0  0  0  0  0  0  0  0  0  0  0
  -12.4210   13.2747  -16.1012 C   0  0  0  0  0  0  0  0  0  0  0  0
  -11.2390   12.5782  -15.9744 C   0  0  0  0  0  0  0  0  0  0  0  0
  -10.8122   12.1487  -14.7373 C   0  0  0  0  0  0  0  0  0  0  0  0
  -11.5739   12.4151  -13.6117 C   0  0  0  0  0  0  0  0  0  0  0  0
  -12.7390   13.1086  -13.7703 C   0  0  0  0  0  0  0  0  0  0  0  0
  -13.4809   13.3743  -12.6757 F   0  0  0  0  0  0  0  0  0  0  0  0
 12 13  2  0  0  0
 12 17  1  0  0  0
 13 14  1  0  0  0
 18 17  1  0  0  0
 17 16  2  0  0  0
  1  2  1  0  0  0
  1 11  1  0  0  0
 14 11  1  0  0  0
 14 15  2  0  0  0
  2  7  1  0  0  0
 16 15  1  0  0  0
  7  8  2  0  0  0
  7  9  1  0  0  0
  3  9  1  0  0  0
  3  4  1  0  0  0
  9  6  1  0  0  0
  4 10  1  0  0  0
  6  5  1  0  0  0
 10  5  1  0  0  0
M  END
> <minimizedAffinity>
-5.98046

$$$$
5ORW_A6E_A_404


 18 19  0  0  0  0  0  0  0  0999 V2000
  -13.0621   13.7036  -14.5780 C   0  0  0  0  0  0  0  0  0  0  0  0
  -13.5642   13.3730  -15.9904 C   0  0  0  0  0  0  0  0  0  0  0  0
  -11.7347   12.9981  -18.0757 C   0  0  0  0  0  0  0  0  0  0  0  0
  -11.8242   12.4507  -19.4796 C   0  0  0  0  0  0  0  0  0  0  0  0
  -12.0413   14.9720  -20.2905 C   0  0  0  0  0  0  0  0  0  0  0  0
  -11.9521   15.3560  -18.8309 C   0  0  0  0  0  0  0  0  0  0  0  0
  -13.3312   14.4892  -16.9604 C   0  0  0  0  0  0  0  0  0  0  0  0
  -13.9065   15.5772  -16.8382 O   0  0  0  0  0  0  0  0  0  0  0  0
  -12.4244   14.2928  -17.9378 N   0  0  0  0  0  0  0  0  0  0  0  0
  -11.0359   13.5332  -20.6742 S   0  0  0  0  0  0  0  0  0  0  0  0
  -11.6899   13.2873  -14.5124 O   0  0  0  0  0  0  0  0  0  0  0  0
  -10.4392    9.7866  -14.5833 C   0  0  0  0  0  0  0  0  0  0  0  0
  -10.7329   11.0752  -14.9917 C   0  0  0  0  0  0  0  0  0  0  0  0
  -11.3937   11.9333  -14.1401 C   0  0  0  0  0  0  0  0  0  0  0  0
  -11.7661   11.5164  -12.8813 C   0  0  0  0  0  0  0  0  0  0  0  0
  -11.4748   10.2282  -12.4645 C   0  0  0  0  0  0  0  0  0  0  0  0
  -10.8206    9.4018  -13.3322 C   0  0  0  0  0  0  0  0  0  0  0  0
  -10.5397    8.1448  -12.9318 F   0  0  0  0  0  0  0  0  0  0  0  0
 12 13  2  0  0  0
 12 17  1  0  0  0
 13 14  1  0  0  0
 18 17  1  0  0  0
 17 16  2  0  0  0
  1  2  1  0  0  0
  1 11  1  0  0  0
 14 11  1  0  0  0
 14 15  2  0  0  0
  2  7  1  0  0  0
 16 15  1  0  0  0
  7  8  2  0  0  0
  7  9  1  0  0  0
  3  9  1  0  0  0
  3  4  1  0  0  0
  9  6  1  0  0  0
  4 10  1  0  0  0
  6  5  1  0  0  0
 10  5  1  0  0  0
M  END
> <minimizedAffinity>
-5.85902

$$$$
5ORW_A6E_A_404


 18 19  0  0  0  0  0  0  0  0999 V2000
  -11.4393   13.9362  -17.6304 C   0  0  0  0  0  0  0  0  0  0  0  0
  -12.7913   14.3876  -18.2000 C   0  0  0  0  0  0  0  0  0  0  0  0
  -12.4573   15.3566  -20.8049 C   0  0  0  0  0  0  0  0  0  0  0  0
  -13.3864   15.6260  -21.9636 C   0  0  0  0  0  0  0  0  0  0  0  0
  -13.4159   18.1586  -21.1592 C   0  0  0  0  0  0  0  0  0  0  0  0
  -12.4950   17.7219  -20.0424 C   0  0  0  0  0  0  0  0  0  0  0  0
  -12.8518   15.8644  -18.4379 C   0  0  0  0  0  0  0  0  0  0  0  0
  -13.0149   16.6594  -17.5047 O   0  0  0  0  0  0  0  0  0  0  0  0
  -12.6594   16.3061  -19.6966 N   0  0  0  0  0  0  0  0  0  0  0  0
  -13.1147   17.2492  -22.6792 S   0  0  0  0  0  0  0  0  0  0  0  0
  -11.4793   14.1753  -16.2155 O   0  0  0  0  0  0  0  0  0  0  0  0
  -10.4152   10.9691  -14.6624 C   0  0  0  0  0  0  0  0  0  0  0  0
  -10.5099   12.0127  -15.5653 C   0  0  0  0  0  0  0  0  0  0  0  0
  -11.3734   13.0582  -15.3208 C   0  0  0  0  0  0  0  0  0  0  0  0
  -12.1462   13.0719  -14.1808 C   0  0  0  0  0  0  0  0  0  0  0  0
  -12.0564   12.0312  -13.2714 C   0  0  0  0  0  0  0  0  0  0  0  0
  -11.1928   11.0095  -13.5432 C   0  0  0  0  0  0  0  0  0  0  0  0
  -11.1063    9.9917  -12.6624 F   0  0  0  0  0  0  0  0  0  0  0  0
 12 13  2  0  0  0
 12 17  1  0  0  0
 13 14  1  0  0  0
 18 17  1  0  0  0
 17 16  2  0  0  0
  1  2  1  0  0  0
  1 11  1  0  0  0
 14 11  1  0  0  0
 14 15  2  0  0  0
  2  7  1  0  0  0
 16 15  1  0  0  0
  7  8  2  0  0  0
  7  9  1  0  0  0
  3  9  1  0  0  0
  3  4  1  0  0  0
  9  6  1  0  0  0
  4 10  1  0  0  0
  6  5  1  0  0  0
 10  5  1  0  0  0
M  END
> <minimizedAffinity>
-5.67784

$$$$
5ORW_A6E_A_404


 18 19  0  0  0  0  0  0  0  0999 V2000
  -10.8333   13.4420  -16.0992 C   0  0  0  0  0  0  0  0  0  0  0  0
  -10.1902   14.1455  -17.3024 C   0  0  0  0  0  0  0  0  0  0  0  0
  -11.7401   16.2922  -18.2110 C   0  0  0  0  0  0  0  0  0  0  0  0
  -11.4855   17.4798  -19.1072 C   0  0  0  0  0  0  0  0  0  0  0  0
  -12.5533   16.0408  -21.0695 C   0  0  0  0  0  0  0  0  0  0  0  0
  -12.7259   14.9394  -20.0483 C   0  0  0  0  0  0  0  0  0  0  0  0
  -10.9885   13.9834  -18.5585 C   0  0  0  0  0  0  0  0  0  0  0  0
  -10.9987   12.9141  -19.1799 O   0  0  0  0  0  0  0  0  0  0  0  0
  -11.7482   15.0223  -18.9581 N   0  0  0  0  0  0  0  0  0  0  0  0
  -12.7676   17.6722  -20.3480 S   0  0  0  0  0  0  0  0  0  0  0  0
  -10.0822   12.2414  -15.8645 O   0  0  0  0  0  0  0  0  0  0  0  0
  -11.4079   11.0117  -12.6158 C   0  0  0  0  0  0  0  0  0  0  0  0
  -11.0171   11.8777  -13.6211 C   0  0  0  0  0  0  0  0  0  0  0  0
  -10.4719   11.3803  -14.7846 C   0  0  0  0  0  0  0  0  0  0  0  0
  -10.3118   10.0229  -14.9548 C   0  0  0  0  0  0  0  0  0  0  0  0
  -10.7017    9.1493  -13.9533 C   0  0  0  0  0  0  0  0  0  0  0  0
  -11.2369    9.6734  -12.8121 C   0  0  0  0  0  0  0  0  0  0  0  0
  -11.6130    8.8261  -11.8325 F   0  0  0  0  0  0  0  0  0  0  0  0
 12 13  2  0  0  0
 12 17  1  0  0  0
 13 14  1  0  0  0
 18 17  1  0  0  0
 17 16  2  0  0  0
  1  2  1  0  0  0
  1 11  1  0  0  0
 14 11  1  0  0  0
 14 15  2  0  0  0
  2  7  1  0  0  0
 16 15  1  0  0  0
  7  8  2  0  0  0
  7  9  1  0  0  0
  3  9  1  0  0  0
  3  4  1  0  0  0
  9  6  1  0  0  0
  4 10  1  0  0  0
  6  5  1  0  0  0
 10  5  1  0  0  0
M  END
> <minimizedAffinity>
-5.56768

$$$$
5ORW_A6E_A_404


 18 19  0  0  0  0  0  0  0  0999 V2000
  -11.9964   12.6956  -17.6461 C   0  0  0  0  0  0  0  0  0  0  0  0
  -12.2335   12.3765  -16.1635 C   0  0  0  0  0  0  0  0  0  0  0  0
  -11.0590   10.6808  -14.2712 C   0  0  0  0  0  0  0  0  0  0  0  0
  -11.2455   10.4529  -12.7907 C   0  0  0  0  0  0  0  0  0  0  0  0
  -12.8206    8.4174  -13.4528 C   0  0  0  0  0  0  0  0  0  0  0  0
  -12.5433    8.7865  -14.8925 C   0  0  0  0  0  0  0  0  0  0  0  0
  -12.8128   11.0122  -15.9536 C   0  0  0  0  0  0  0  0  0  0  0  0
  -13.7756   10.6134  -16.6197 O   0  0  0  0  0  0  0  0  0  0  0  0
  -12.2109   10.2055  -15.0573 N   0  0  0  0  0  0  0  0  0  0  0  0
  -11.3990    8.7096  -12.3936 S   0  0  0  0  0  0  0  0  0  0  0  0
  -13.0616   13.5622  -18.0644 O   0  0  0  0  0  0  0  0  0  0  0  0
  -12.4689   16.1486  -20.6688 C   0  0  0  0  0  0  0  0  0  0  0  0
  -12.7619   14.9298  -20.0841 C   0  0  0  0  0  0  0  0  0  0  0  0
  -12.7339   14.7999  -18.7127 C   0  0  0  0  0  0  0  0  0  0  0  0
  -12.4146   15.8777  -17.9169 C   0  0  0  0  0  0  0  0  0  0  0  0
  -12.1210   17.1017  -18.4947 C   0  0  0  0  0  0  0  0  0  0  0  0
  -12.1558   17.1974  -19.8560 C   0  0  0  0  0  0  0  0  0  0  0  0
  -11.8654   18.3865  -20.4226 F   0  0  0  0  0  0  0  0  0  0  0  0
 12 13  2  0  0  0
 12 17  1  0  0  0
 13 14  1  0  0  0
 18 17  1  0  0  0
 17 16  2  0  0  0
  1  2  1  0  0  0
  1 11  1  0  0  0
 14 11  1  0  0  0
 14 15  2  0  0  0
  2  7  1  0  0  0
 16 15  1  0  0  0
  7  8  2  0  0  0
  7  9  1  0  0  0
  3  9  1  0  0  0
  3  4  1  0  0  0
  9  6  1  0  0  0
  4 10  1  0  0  0
  6  5  1  0  0  0
 10  5  1  0  0  0
M  END
> <minimizedAffinity>
-5.52751

$$$$
5ORW_A6E_A_404


 18 19  0  0  0  0  0  0  0  0999 V2000
  -10.3636   11.7446  -17.2547 C   0  0  0  0  0  0  0  0  0  0  0  0
   -9.6154   12.9088  -17.9186 C   0  0  0  0  0  0  0  0  0  0  0  0
  -10.7467   14.2423  -20.1044 C   0  0  0  0  0  0  0  0  0  0  0  0
  -12.0982   14.2207  -20.7764 C   0  0  0  0  0  0  0  0  0  0  0  0
  -12.6914   16.3639  -19.3214 C   0  0  0  0  0  0  0  0  0  0  0  0
  -11.3048   16.2381  -18.7321 C   0  0  0  0  0  0  0  0  0  0  0  0
  -10.2877   14.2276  -17.6950 C   0  0  0  0  0  0  0  0  0  0  0  0
  -10.3240   14.7484  -16.5738 O   0  0  0  0  0  0  0  0  0  0  0  0
  -10.7988   14.8619  -18.7686 N   0  0  0  0  0  0  0  0  0  0  0  0
  -12.7391   15.8745  -21.0496 S   0  0  0  0  0  0  0  0  0  0  0  0
   -9.6956   11.4694  -16.0142 O   0  0  0  0  0  0  0  0  0  0  0  0
  -11.9736   11.9736  -13.1194 C   0  0  0  0  0  0  0  0  0  0  0  0
  -11.2001   12.2463  -14.2332 C   0  0  0  0  0  0  0  0  0  0  0  0
  -10.4853   11.2361  -14.8389 C   0  0  0  0  0  0  0  0  0  0  0  0
  -10.5345    9.9525  -14.3417 C   0  0  0  0  0  0  0  0  0  0  0  0
  -11.3075    9.6712  -13.2275 C   0  0  0  0  0  0  0  0  0  0  0  0
  -12.0025   10.6941  -12.6494 C   0  0  0  0  0  0  0  0  0  0  0  0
  -12.7523   10.4250  -11.5610 F   0  0  0  0  0  0  0  0  0  0  0  0
 12 13  2  0  0  0
 12 17  1  0  0  0
 13 14  1  0  0  0
 18 17  1  0  0  0
 17 16  2  0  0  0
  1  2  1  0  0  0
  1 11  1  0  0  0
 14 11  1  0  0  0
 14 15  2  0  0  0
  2  7  1  0  0  0
 16 15  1  0  0  0
  7  8  2  0  0  0
  7  9  1  0  0  0
  3  9  1  0  0  0
  3  4  1  0  0  0
  9  6  1  0  0  0
  4 10  1  0  0  0
  6  5  1  0  0  0
 10  5  1  0  0  0
M  END
> <minimizedAffinity>
-5.49582

$$$$
