2ZX7_ZX7_A_901


 29 31  0  0  0  0  0  0  0  0999 V2000
   -1.7248   25.9043   27.1893 C   0  0  0  0  0  0  0  0  0  0  0  0
   -3.3296   25.8714   24.8076 O   0  0  0  0  0  0  0  0  0  0  0  0
   -1.9826   26.3410   24.7346 C   0  0  0  0  0  0  0  0  0  0  0  0
   -1.8696   27.4228   23.6588 C   0  0  0  0  0  0  0  0  0  0  0  0
   -2.3692   26.9103   22.4245 O   0  0  0  0  0  0  0  0  0  0  0  0
   -0.3992   27.8198   23.5280 C   0  0  0  0  0  0  0  0  0  0  0  0
    0.3381   26.7031   23.0241 O   0  0  0  0  0  0  0  0  0  0  0  0
    0.1576   28.2574   24.8886 C   0  0  0  0  0  0  0  0  0  0  0  0
    1.6674   28.4825   24.8004 C   0  0  0  0  0  0  0  0  0  0  0  0
   -0.0955   27.2585   25.9406 N   0  0  0  0  0  0  0  0  0  0  0  0
   -1.5253   26.9310   26.0721 C   0  0  0  0  0  0  0  0  0  0  0  0
   -3.5911   25.5043   23.9487 H   0  0  0  0  0  0  0  0  0  0  0  0
   -1.8579   26.1265   22.1692 H   0  0  0  0  0  0  0  0  0  0  0  0
    0.2549   25.9570   23.6384 H   0  0  0  0  0  0  0  0  0  0  0  0
    0.2390   27.6280   26.8305 H   0  0  0  0  0  0  0  0  0  0  0  0
   -2.6234   26.3837   28.2505 N   0  0  0  0  0  0  0  0  0  0  0  0
   -2.1532   26.4888   29.4924 C   0  0  0  0  0  0  0  0  0  0  0  0
   -0.9836   26.2570   29.8022 O   0  0  0  0  0  0  0  0  0  0  0  0
   -3.5564   26.6228   28.0464 H   0  0  0  0  0  0  0  0  0  0  0  0
   -3.1155   26.9672   30.5838 C   0  0  0  0  0  0  0  0  0  0  0  0
   -4.2856   27.5184   30.2809 C   0  0  0  0  0  0  0  0  0  0  0  0
   -4.8710   27.8383   31.4307 C   0  0  0  0  0  0  0  0  0  0  0  0
   -6.0712   28.4841   31.7060 C   0  0  0  0  0  0  0  0  0  0  0  0
   -6.4233   28.7418   33.0261 C   0  0  0  0  0  0  0  0  0  0  0  0
   -5.5681   28.3403   34.0483 C   0  0  0  0  0  0  0  0  0  0  0  0
   -4.3670   27.6916   33.7744 C   0  0  0  0  0  0  0  0  0  0  0  0
   -4.0125   27.4451   32.4531 C   0  0  0  0  0  0  0  0  0  0  0  0
   -2.9256   26.9146   31.8989 N   0  0  0  0  0  0  0  0  0  0  0  0
   -2.1385   26.5551   32.3684 H   0  0  0  0  0  0  0  0  0  0  0  0
  2  3  1  0  0  0
  3  4  1  0  0  0
  3 11  1  0  0  0
  4  5  1  0  0  0
  4  6  1  0  0  0
  6  7  1  0  0  0
  6  8  1  0  0  0
  8  9  1  0  0  0
  8 10  1  0  0  0
 10 11  1  0  0  0
 11  1  1  0  0  0
  1 16  1  0  0  0
 16 17  1  0  0  0
 17 18  2  0  0  0
 17 20  1  0  0  0
 20 21  2  0  0  0
 20 28  1  0  0  0
 21 22  1  0  0  0
 22 23  2  0  0  0
 22 27  1  0  0  0
 23 24  1  0  0  0
 24 25  2  0  0  0
 25 26  1  0  0  0
 26 27  2  0  0  0
 27 28  1  0  0  0
  2 12  1  0  0  0
  5 13  1  0  0  0
  7 14  1  0  0  0
 10 15  1  0  0  0
 16 19  1  0  0  0
 28 29  1  0  0  0
M  END
> <minimizedAffinity>
-10.21836

$$$$
2ZX7_ZX7_A_901


 29 31  0  0  0  0  0  0  0  0999 V2000
   -2.1151   25.8439   27.0605 C   0  0  0  0  0  0  0  0  0  0  0  0
   -3.4379   26.3305   24.5579 O   0  0  0  0  0  0  0  0  0  0  0  0
   -2.0302   26.5519   24.6574 C   0  0  0  0  0  0  0  0  0  0  0  0
   -1.6189   27.6925   23.7247 C   0  0  0  0  0  0  0  0  0  0  0  0
   -2.0642   27.3994   22.4011 O   0  0  0  0  0  0  0  0  0  0  0  0
   -0.0967   27.8259   23.7696 C   0  0  0  0  0  0  0  0  0  0  0  0
    0.4875   26.6468   23.2102 O   0  0  0  0  0  0  0  0  0  0  0  0
    0.3783   28.0234   25.2147 C   0  0  0  0  0  0  0  0  0  0  0  0
    1.9050   27.9772   25.2860 C   0  0  0  0  0  0  0  0  0  0  0  0
   -0.1535   26.9916   26.1210 N   0  0  0  0  0  0  0  0  0  0  0  0
   -1.6240   26.9188   26.0880 C   0  0  0  0  0  0  0  0  0  0  0  0
   -3.6652   26.1006   23.6434 H   0  0  0  0  0  0  0  0  0  0  0  0
   -1.6708   26.5636   22.1053 H   0  0  0  0  0  0  0  0  0  0  0  0
    0.2122   25.8733   23.7267 H   0  0  0  0  0  0  0  0  0  0  0  0
    0.1424   27.2077   27.0729 H   0  0  0  0  0  0  0  0  0  0  0  0
   -1.2770   25.7385   28.2646 N   0  0  0  0  0  0  0  0  0  0  0  0
   -1.8495   25.4003   29.4188 C   0  0  0  0  0  0  0  0  0  0  0  0
   -3.0426   25.1154   29.5322 O   0  0  0  0  0  0  0  0  0  0  0  0
   -0.3096   25.9149   28.2182 H   0  0  0  0  0  0  0  0  0  0  0  0
   -0.9594   25.3210   30.6628 C   0  0  0  0  0  0  0  0  0  0  0  0
   -0.3193   24.2024   30.9849 C   0  0  0  0  0  0  0  0  0  0  0  0
    0.3447   24.4476   32.1100 C   0  0  0  0  0  0  0  0  0  0  0  0
    1.1278   23.6286   32.9158 C   0  0  0  0  0  0  0  0  0  0  0  0
    1.6728   24.1402   34.0881 C   0  0  0  0  0  0  0  0  0  0  0  0
    1.4287   25.4676   34.4284 C   0  0  0  0  0  0  0  0  0  0  0  0
    0.6465   26.2896   33.6215 C   0  0  0  0  0  0  0  0  0  0  0  0
    0.0940   25.7723   32.4556 C   0  0  0  0  0  0  0  0  0  0  0  0
   -0.7259   26.2890   31.5442 N   0  0  0  0  0  0  0  0  0  0  0  0
   -1.0873   27.2046   31.5259 H   0  0  0  0  0  0  0  0  0  0  0  0
  2  3  1  0  0  0
  3  4  1  0  0  0
  3 11  1  0  0  0
  4  5  1  0  0  0
  4  6  1  0  0  0
  6  7  1  0  0  0
  6  8  1  0  0  0
  8  9  1  0  0  0
  8 10  1  0  0  0
 10 11  1  0  0  0
 11  1  1  0  0  0
  1 16  1  0  0  0
 16 17  1  0  0  0
 17 18  2  0  0  0
 17 20  1  0  0  0
 20 21  2  0  0  0
 20 28  1  0  0  0
 21 22  1  0  0  0
 22 23  2  0  0  0
 22 27  1  0  0  0
 23 24  1  0  0  0
 24 25  2  0  0  0
 25 26  1  0  0  0
 26 27  2  0  0  0
 27 28  1  0  0  0
  2 12  1  0  0  0
  5 13  1  0  0  0
  7 14  1  0  0  0
 10 15  1  0  0  0
 16 19  1  0  0  0
 28 29  1  0  0  0
M  END
> <minimizedAffinity>
-10.00356

$$$$
2ZX7_ZX7_A_901


 29 31  0  0  0  0  0  0  0  0999 V2000
    0.7214   23.5839   32.5804 C   0  0  0  0  0  0  0  0  0  0  0  0
    2.2752   25.9329   33.1433 O   0  0  0  0  0  0  0  0  0  0  0  0
    2.2214   24.8838   34.1112 C   0  0  0  0  0  0  0  0  0  0  0  0
    2.3304   25.4727   35.5189 C   0  0  0  0  0  0  0  0  0  0  0  0
    3.5083   26.2737   35.6019 O   0  0  0  0  0  0  0  0  0  0  0  0
    2.3852   24.3191   36.5204 C   0  0  0  0  0  0  0  0  0  0  0  0
    3.5975   23.5884   36.3181 O   0  0  0  0  0  0  0  0  0  0  0  0
    1.1708   23.3994   36.3405 C   0  0  0  0  0  0  0  0  0  0  0  0
    1.3121   22.1517   37.2130 C   0  0  0  0  0  0  0  0  0  0  0  0
    1.0046   22.9643   34.9434 N   0  0  0  0  0  0  0  0  0  0  0  0
    0.9100   24.0988   34.0092 C   0  0  0  0  0  0  0  0  0  0  0  0
    3.1144   26.4113   33.2314 H   0  0  0  0  0  0  0  0  0  0  0  0
    4.2852   25.7278   35.4038 H   0  0  0  0  0  0  0  0  0  0  0  0
    3.6163   23.2371   35.4142 H   0  0  0  0  0  0  0  0  0  0  0  0
    0.1516   22.4096   34.8724 H   0  0  0  0  0  0  0  0  0  0  0  0
   -0.2032   24.4134   31.7928 N   0  0  0  0  0  0  0  0  0  0  0  0
   -0.3536   24.1536   30.4950 C   0  0  0  0  0  0  0  0  0  0  0  0
    0.2000   23.2171   29.9169 O   0  0  0  0  0  0  0  0  0  0  0  0
   -0.7024   25.1480   32.2175 H   0  0  0  0  0  0  0  0  0  0  0  0
   -1.3037   25.0469   29.6917 C   0  0  0  0  0  0  0  0  0  0  0  0
   -2.0103   26.0075   30.2772 C   0  0  0  0  0  0  0  0  0  0  0  0
   -2.7405   26.5834   29.3274 C   0  0  0  0  0  0  0  0  0  0  0  0
   -3.6918   27.5960   29.3823 C   0  0  0  0  0  0  0  0  0  0  0  0
   -4.3543   27.9771   28.2209 C   0  0  0  0  0  0  0  0  0  0  0  0
   -4.0456   27.3404   27.0223 C   0  0  0  0  0  0  0  0  0  0  0  0
   -3.0917   26.3277   26.9653 C   0  0  0  0  0  0  0  0  0  0  0  0
   -2.4389   25.9414   28.1301 C   0  0  0  0  0  0  0  0  0  0  0  0
   -1.5499   24.9854   28.3863 N   0  0  0  0  0  0  0  0  0  0  0  0
   -1.1536   24.3581   27.7392 H   0  0  0  0  0  0  0  0  0  0  0  0
  2  3  1  0  0  0
  3  4  1  0  0  0
  3 11  1  0  0  0
  4  5  1  0  0  0
  4  6  1  0  0  0
  6  7  1  0  0  0
  6  8  1  0  0  0
  8  9  1  0  0  0
  8 10  1  0  0  0
 10 11  1  0  0  0
 11  1  1  0  0  0
  1 16  1  0  0  0
 16 17  1  0  0  0
 17 18  2  0  0  0
 17 20  1  0  0  0
 20 21  2  0  0  0
 20 28  1  0  0  0
 21 22  1  0  0  0
 22 23  2  0  0  0
 22 27  1  0  0  0
 23 24  1  0  0  0
 24 25  2  0  0  0
 25 26  1  0  0  0
 26 27  2  0  0  0
 27 28  1  0  0  0
  2 12  1  0  0  0
  5 13  1  0  0  0
  7 14  1  0  0  0
 10 15  1  0  0  0
 16 19  1  0  0  0
 28 29  1  0  0  0
M  END
> <minimizedAffinity>
-8.46888

$$$$
2ZX7_ZX7_A_901


 29 31  0  0  0  0  0  0  0  0999 V2000
   -2.7438   27.2141   29.7376 C   0  0  0  0  0  0  0  0  0  0  0  0
   -1.1287   25.4758   28.1194 O   0  0  0  0  0  0  0  0  0  0  0  0
   -2.2267   26.1657   27.5203 C   0  0  0  0  0  0  0  0  0  0  0  0
   -2.8175   25.3172   26.3928 C   0  0  0  0  0  0  0  0  0  0  0  0
   -1.7822   24.9729   25.4734 O   0  0  0  0  0  0  0  0  0  0  0  0
   -3.9115   26.1303   25.7010 C   0  0  0  0  0  0  0  0  0  0  0  0
   -3.3121   27.2570   25.0559 O   0  0  0  0  0  0  0  0  0  0  0  0
   -4.9574   26.5939   26.7228 C   0  0  0  0  0  0  0  0  0  0  0  0
   -5.9525   27.5542   26.0701 C   0  0  0  0  0  0  0  0  0  0  0  0
   -4.3455   27.2809   27.8727 N   0  0  0  0  0  0  0  0  0  0  0  0
   -3.3284   26.4545   28.5445 C   0  0  0  0  0  0  0  0  0  0  0  0
   -0.4484   25.3069   27.4489 H   0  0  0  0  0  0  0  0  0  0  0  0
   -1.3865   25.7824   25.1141 H   0  0  0  0  0  0  0  0  0  0  0  0
   -2.8647   27.8079   25.7171 H   0  0  0  0  0  0  0  0  0  0  0  0
   -5.0776   27.5099   28.5449 H   0  0  0  0  0  0  0  0  0  0  0  0
   -1.9826   26.3460   30.6488 N   0  0  0  0  0  0  0  0  0  0  0  0
   -0.9371   26.8551   31.2983 C   0  0  0  0  0  0  0  0  0  0  0  0
   -0.5949   28.0362   31.2232 O   0  0  0  0  0  0  0  0  0  0  0  0
   -2.2415   25.4047   30.7765 H   0  0  0  0  0  0  0  0  0  0  0  0
   -0.1464   25.9243   32.2226 C   0  0  0  0  0  0  0  0  0  0  0  0
   -0.0275   24.6274   31.9608 C   0  0  0  0  0  0  0  0  0  0  0  0
    0.6919   24.0988   32.9458 C   0  0  0  0  0  0  0  0  0  0  0  0
    1.0715   22.7874   33.2092 C   0  0  0  0  0  0  0  0  0  0  0  0
    1.7943   22.5021   34.3621 C   0  0  0  0  0  0  0  0  0  0  0  0
    2.1304   23.5389   35.2277 C   0  0  0  0  0  0  0  0  0  0  0  0
    1.7529   24.8530   34.9642 C   0  0  0  0  0  0  0  0  0  0  0  0
    1.0209   25.1336   33.8163 C   0  0  0  0  0  0  0  0  0  0  0  0
    0.4804   26.2554   33.3478 N   0  0  0  0  0  0  0  0  0  0  0  0
    0.5338   27.1511   33.7529 H   0  0  0  0  0  0  0  0  0  0  0  0
  2  3  1  0  0  0
  3  4  1  0  0  0
  3 11  1  0  0  0
  4  5  1  0  0  0
  4  6  1  0  0  0
  6  7  1  0  0  0
  6  8  1  0  0  0
  8  9  1  0  0  0
  8 10  1  0  0  0
 10 11  1  0  0  0
 11  1  1  0  0  0
  1 16  1  0  0  0
 16 17  1  0  0  0
 17 18  2  0  0  0
 17 20  1  0  0  0
 20 21  2  0  0  0
 20 28  1  0  0  0
 21 22  1  0  0  0
 22 23  2  0  0  0
 22 27  1  0  0  0
 23 24  1  0  0  0
 24 25  2  0  0  0
 25 26  1  0  0  0
 26 27  2  0  0  0
 27 28  1  0  0  0
  2 12  1  0  0  0
  5 13  1  0  0  0
  7 14  1  0  0  0
 10 15  1  0  0  0
 16 19  1  0  0  0
 28 29  1  0  0  0
M  END
> <minimizedAffinity>
-8.35203

$$$$
2ZX7_ZX7_A_901


 29 31  0  0  0  0  0  0  0  0999 V2000
   -2.2501   26.2634   26.4886 C   0  0  0  0  0  0  0  0  0  0  0  0
   -2.8966   26.8540   23.7532 O   0  0  0  0  0  0  0  0  0  0  0  0
   -1.5409   26.9655   24.1892 C   0  0  0  0  0  0  0  0  0  0  0  0
   -0.8343   28.0717   23.4037 C   0  0  0  0  0  0  0  0  0  0  0  0
   -0.9714   27.8156   22.0068 O   0  0  0  0  0  0  0  0  0  0  0  0
    0.6387   28.0866   23.8123 C   0  0  0  0  0  0  0  0  0  0  0  0
    1.2493   26.8664   23.3849 O   0  0  0  0  0  0  0  0  0  0  0  0
    0.7683   28.2450   25.3325 C   0  0  0  0  0  0  0  0  0  0  0  0
    2.2259   28.0804   25.7642 C   0  0  0  0  0  0  0  0  0  0  0  0
   -0.0405   27.2565   26.0657 N   0  0  0  0  0  0  0  0  0  0  0  0
   -1.4618   27.2981   25.6823 C   0  0  0  0  0  0  0  0  0  0  0  0
   -2.9155   26.6435   22.8066 H   0  0  0  0  0  0  0  0  0  0  0  0
   -0.5826   26.9521   21.7967 H   0  0  0  0  0  0  0  0  0  0  0  0
    0.8014   26.1159   23.8058 H   0  0  0  0  0  0  0  0  0  0  0  0
    0.0350   27.4479   27.0647 H   0  0  0  0  0  0  0  0  0  0  0  0
   -2.6114   26.7419   27.8317 N   0  0  0  0  0  0  0  0  0  0  0  0
   -3.7460   26.3143   28.3830 C   0  0  0  0  0  0  0  0  0  0  0  0
   -4.4953   25.4918   27.8540 O   0  0  0  0  0  0  0  0  0  0  0  0
   -2.0246   27.3676   28.3149 H   0  0  0  0  0  0  0  0  0  0  0  0
   -4.1116   26.8460   29.7721 C   0  0  0  0  0  0  0  0  0  0  0  0
   -3.6118   26.2999   30.8752 C   0  0  0  0  0  0  0  0  0  0  0  0
   -4.1275   26.9657   31.9036 C   0  0  0  0  0  0  0  0  0  0  0  0
   -3.9960   26.7880   33.2764 C   0  0  0  0  0  0  0  0  0  0  0  0
   -4.7025   27.6128   34.1446 C   0  0  0  0  0  0  0  0  0  0  0  0
   -5.5235   28.6070   33.6204 C   0  0  0  0  0  0  0  0  0  0  0  0
   -5.6545   28.7877   32.2461 C   0  0  0  0  0  0  0  0  0  0  0  0
   -4.9554   27.9545   31.3804 C   0  0  0  0  0  0  0  0  0  0  0  0
   -4.9340   27.8523   30.0542 N   0  0  0  0  0  0  0  0  0  0  0  0
   -5.4279   28.4099   29.4105 H   0  0  0  0  0  0  0  0  0  0  0  0
  2  3  1  0  0  0
  3  4  1  0  0  0
  3 11  1  0  0  0
  4  5  1  0  0  0
  4  6  1  0  0  0
  6  7  1  0  0  0
  6  8  1  0  0  0
  8  9  1  0  0  0
  8 10  1  0  0  0
 10 11  1  0  0  0
 11  1  1  0  0  0
  1 16  1  0  0  0
 16 17  1  0  0  0
 17 18  2  0  0  0
 17 20  1  0  0  0
 20 21  2  0  0  0
 20 28  1  0  0  0
 21 22  1  0  0  0
 22 23  2  0  0  0
 22 27  1  0  0  0
 23 24  1  0  0  0
 24 25  2  0  0  0
 25 26  1  0  0  0
 26 27  2  0  0  0
 27 28  1  0  0  0
  2 12  1  0  0  0
  5 13  1  0  0  0
  7 14  1  0  0  0
 10 15  1  0  0  0
 16 19  1  0  0  0
 28 29  1  0  0  0
M  END
> <minimizedAffinity>
-8.27599

$$$$
2ZX7_ZX7_A_901


 29 31  0  0  0  0  0  0  0  0999 V2000
   -0.1061   25.2786   32.0653 C   0  0  0  0  0  0  0  0  0  0  0  0
    1.9213   24.2566   33.8243 O   0  0  0  0  0  0  0  0  0  0  0  0
    1.0739   23.3401   33.1297 C   0  0  0  0  0  0  0  0  0  0  0  0
    0.8609   22.0865   33.9801 C   0  0  0  0  0  0  0  0  0  0  0  0
    2.1301   21.5409   34.3370 O   0  0  0  0  0  0  0  0  0  0  0  0
    0.0476   21.0829   33.1627 C   0  0  0  0  0  0  0  0  0  0  0  0
    0.8294   20.6562   32.0441 O   0  0  0  0  0  0  0  0  0  0  0  0
   -1.2629   21.7218   32.6858 C   0  0  0  0  0  0  0  0  0  0  0  0
   -1.9934   20.7863   31.7219 C   0  0  0  0  0  0  0  0  0  0  0  0
   -1.0383   23.0040   31.9971 N   0  0  0  0  0  0  0  0  0  0  0  0
   -0.2917   23.9644   32.8272 C   0  0  0  0  0  0  0  0  0  0  0  0
    2.7767   23.8350   34.0019 H   0  0  0  0  0  0  0  0  0  0  0  0
    2.6258   21.3222   33.5324 H   0  0  0  0  0  0  0  0  0  0  0  0
    1.0506   21.4230   31.4928 H   0  0  0  0  0  0  0  0  0  0  0  0
   -1.9428   23.4107   31.7590 H   0  0  0  0  0  0  0  0  0  0  0  0
   -1.1595   25.5119   31.0657 N   0  0  0  0  0  0  0  0  0  0  0  0
   -1.3197   26.7399   30.5750 C   0  0  0  0  0  0  0  0  0  0  0  0
   -0.5977   27.6934   30.8704 O   0  0  0  0  0  0  0  0  0  0  0  0
   -1.7363   24.7732   30.7644 H   0  0  0  0  0  0  0  0  0  0  0  0
   -2.4392   26.9619   29.5536 C   0  0  0  0  0  0  0  0  0  0  0  0
   -3.6181   27.4554   29.9160 C   0  0  0  0  0  0  0  0  0  0  0  0
   -4.3675   27.5103   28.8195 C   0  0  0  0  0  0  0  0  0  0  0  0
   -5.6915   27.8882   28.6254 C   0  0  0  0  0  0  0  0  0  0  0  0
   -6.2503   27.7983   27.3555 C   0  0  0  0  0  0  0  0  0  0  0  0
   -5.4687   27.3374   26.3000 C   0  0  0  0  0  0  0  0  0  0  0  0
   -4.1422   26.9606   26.4923 C   0  0  0  0  0  0  0  0  0  0  0  0
   -3.5894   27.0413   27.7652 C   0  0  0  0  0  0  0  0  0  0  0  0
   -2.3988   26.6994   28.2505 N   0  0  0  0  0  0  0  0  0  0  0  0
   -1.6399   26.3268   27.7461 H   0  0  0  0  0  0  0  0  0  0  0  0
  2  3  1  0  0  0
  3  4  1  0  0  0
  3 11  1  0  0  0
  4  5  1  0  0  0
  4  6  1  0  0  0
  6  7  1  0  0  0
  6  8  1  0  0  0
  8  9  1  0  0  0
  8 10  1  0  0  0
 10 11  1  0  0  0
 11  1  1  0  0  0
  1 16  1  0  0  0
 16 17  1  0  0  0
 17 18  2  0  0  0
 17 20  1  0  0  0
 20 21  2  0  0  0
 20 28  1  0  0  0
 21 22  1  0  0  0
 22 23  2  0  0  0
 22 27  1  0  0  0
 23 24  1  0  0  0
 24 25  2  0  0  0
 25 26  1  0  0  0
 26 27  2  0  0  0
 27 28  1  0  0  0
  2 12  1  0  0  0
  5 13  1  0  0  0
  7 14  1  0  0  0
 10 15  1  0  0  0
 16 19  1  0  0  0
 28 29  1  0  0  0
M  END
> <minimizedAffinity>
-8.07476

$$$$
2ZX7_ZX7_A_901


 29 31  0  0  0  0  0  0  0  0999 V2000
   -2.4545   26.1830   27.4998 C   0  0  0  0  0  0  0  0  0  0  0  0
   -4.0511   26.9367   25.2345 O   0  0  0  0  0  0  0  0  0  0  0  0
   -4.6028   27.0545   26.5468 C   0  0  0  0  0  0  0  0  0  0  0  0
   -6.1130   26.8156   26.4964 C   0  0  0  0  0  0  0  0  0  0  0  0
   -6.6965   27.7033   25.5439 O   0  0  0  0  0  0  0  0  0  0  0  0
   -6.6861   27.0616   27.8920 C   0  0  0  0  0  0  0  0  0  0  0  0
   -6.5300   28.4449   28.2186 O   0  0  0  0  0  0  0  0  0  0  0  0
   -5.9677   26.1845   28.9252 C   0  0  0  0  0  0  0  0  0  0  0  0
   -6.4106   26.5554   30.3409 C   0  0  0  0  0  0  0  0  0  0  0  0
   -4.5035   26.3249   28.8522 N   0  0  0  0  0  0  0  0  0  0  0  0
   -3.9780   26.0376   27.5069 C   0  0  0  0  0  0  0  0  0  0  0  0
   -4.4645   27.5912   24.6500 H   0  0  0  0  0  0  0  0  0  0  0  0
   -6.5087   28.6201   25.7990 H   0  0  0  0  0  0  0  0  0  0  0  0
   -5.5879   28.6755   28.2074 H   0  0  0  0  0  0  0  0  0  0  0  0
   -4.0789   25.6763   29.5151 H   0  0  0  0  0  0  0  0  0  0  0  0
   -1.7923   25.2917   28.4645 N   0  0  0  0  0  0  0  0  0  0  0  0
   -1.3957   25.7911   29.6339 C   0  0  0  0  0  0  0  0  0  0  0  0
   -1.5983   26.9547   29.9842 O   0  0  0  0  0  0  0  0  0  0  0  0
   -1.6447   24.3424   28.2495 H   0  0  0  0  0  0  0  0  0  0  0  0
   -0.6869   24.8484   30.6112 C   0  0  0  0  0  0  0  0  0  0  0  0
   -0.5927   23.5455   30.3699 C   0  0  0  0  0  0  0  0  0  0  0  0
    0.0536   23.0077   31.3994 C   0  0  0  0  0  0  0  0  0  0  0  0
    0.3779   21.6888   31.6974 C   0  0  0  0  0  0  0  0  0  0  0  0
    1.0255   21.3960   32.8924 C   0  0  0  0  0  0  0  0  0  0  0  0
    1.3433   22.4327   33.7650 C   0  0  0  0  0  0  0  0  0  0  0  0
    1.0211   23.7541   33.4672 C   0  0  0  0  0  0  0  0  0  0  0  0
    0.3639   24.0426   32.2767 C   0  0  0  0  0  0  0  0  0  0  0  0
   -0.1151   25.1742   31.7668 N   0  0  0  0  0  0  0  0  0  0  0  0
   -0.0577   26.0727   32.1651 H   0  0  0  0  0  0  0  0  0  0  0  0
  2  3  1  0  0  0
  3  4  1  0  0  0
  3 11  1  0  0  0
  4  5  1  0  0  0
  4  6  1  0  0  0
  6  7  1  0  0  0
  6  8  1  0  0  0
  8  9  1  0  0  0
  8 10  1  0  0  0
 10 11  1  0  0  0
 11  1  1  0  0  0
  1 16  1  0  0  0
 16 17  1  0  0  0
 17 18  2  0  0  0
 17 20  1  0  0  0
 20 21  2  0  0  0
 20 28  1  0  0  0
 21 22  1  0  0  0
 22 23  2  0  0  0
 22 27  1  0  0  0
 23 24  1  0  0  0
 24 25  2  0  0  0
 25 26  1  0  0  0
 26 27  2  0  0  0
 27 28  1  0  0  0
  2 12  1  0  0  0
  5 13  1  0  0  0
  7 14  1  0  0  0
 10 15  1  0  0  0
 16 19  1  0  0  0
 28 29  1  0  0  0
M  END
> <minimizedAffinity>
-7.99569

$$$$
2ZX7_ZX7_A_901


 29 31  0  0  0  0  0  0  0  0999 V2000
   -0.1848   23.8310   30.1744 C   0  0  0  0  0  0  0  0  0  0  0  0
   -0.1121   25.6647   32.3838 O   0  0  0  0  0  0  0  0  0  0  0  0
    0.3585   24.3289   32.5702 C   0  0  0  0  0  0  0  0  0  0  0  0
    0.0946   23.8838   34.0098 C   0  0  0  0  0  0  0  0  0  0  0  0
    0.6747   24.8298   34.9067 O   0  0  0  0  0  0  0  0  0  0  0  0
    0.7112   22.4989   34.2061 C   0  0  0  0  0  0  0  0  0  0  0  0
    2.1327   22.6056   34.0949 O   0  0  0  0  0  0  0  0  0  0  0  0
    0.1655   21.5196   33.1591 C   0  0  0  0  0  0  0  0  0  0  0  0
    0.9094   20.1859   33.2366 C   0  0  0  0  0  0  0  0  0  0  0  0
    0.2998   22.0395   31.7878 N   0  0  0  0  0  0  0  0  0  0  0  0
   -0.3430   23.3537   31.6199 C   0  0  0  0  0  0  0  0  0  0  0  0
    0.3486   26.2583   32.9972 H   0  0  0  0  0  0  0  0  0  0  0  0
    1.6287   24.8889   34.7417 H   0  0  0  0  0  0  0  0  0  0  0  0
    2.3637   22.9441   33.2157 H   0  0  0  0  0  0  0  0  0  0  0  0
   -0.1332   21.3783   31.1431 H   0  0  0  0  0  0  0  0  0  0  0  0
   -1.4583   24.2514   29.5702 N   0  0  0  0  0  0  0  0  0  0  0  0
   -1.7080   25.5530   29.4369 C   0  0  0  0  0  0  0  0  0  0  0  0
   -0.9070   26.4374   29.7434 O   0  0  0  0  0  0  0  0  0  0  0  0
   -2.1148   23.5823   29.2695 H   0  0  0  0  0  0  0  0  0  0  0  0
   -3.0512   25.9652   28.8270 C   0  0  0  0  0  0  0  0  0  0  0  0
   -3.1490   26.3330   27.5543 C   0  0  0  0  0  0  0  0  0  0  0  0
   -4.4234   26.6430   27.3386 C   0  0  0  0  0  0  0  0  0  0  0  0
   -5.0747   27.1369   26.2138 C   0  0  0  0  0  0  0  0  0  0  0  0
   -6.4326   27.4278   26.2811 C   0  0  0  0  0  0  0  0  0  0  0  0
   -7.1158   27.2111   27.4742 C   0  0  0  0  0  0  0  0  0  0  0  0
   -6.4656   26.7146   28.6008 C   0  0  0  0  0  0  0  0  0  0  0  0
   -5.1056   26.4350   28.5337 C   0  0  0  0  0  0  0  0  0  0  0  0
   -4.2278   26.0221   29.4442 N   0  0  0  0  0  0  0  0  0  0  0  0
   -4.4122   25.8027   30.3860 H   0  0  0  0  0  0  0  0  0  0  0  0
  2  3  1  0  0  0
  3  4  1  0  0  0
  3 11  1  0  0  0
  4  5  1  0  0  0
  4  6  1  0  0  0
  6  7  1  0  0  0
  6  8  1  0  0  0
  8  9  1  0  0  0
  8 10  1  0  0  0
 10 11  1  0  0  0
 11  1  1  0  0  0
  1 16  1  0  0  0
 16 17  1  0  0  0
 17 18  2  0  0  0
 17 20  1  0  0  0
 20 21  2  0  0  0
 20 28  1  0  0  0
 21 22  1  0  0  0
 22 23  2  0  0  0
 22 27  1  0  0  0
 23 24  1  0  0  0
 24 25  2  0  0  0
 25 26  1  0  0  0
 26 27  2  0  0  0
 27 28  1  0  0  0
  2 12  1  0  0  0
  5 13  1  0  0  0
  7 14  1  0  0  0
 10 15  1  0  0  0
 16 19  1  0  0  0
 28 29  1  0  0  0
M  END
> <minimizedAffinity>
-7.92663

$$$$
2ZX7_ZX7_A_901


 29 31  0  0  0  0  0  0  0  0999 V2000
   -0.8216   23.8380   31.8223 C   0  0  0  0  0  0  0  0  0  0  0  0
   -0.0974   26.6166   31.8844 O   0  0  0  0  0  0  0  0  0  0  0  0
    0.6261   25.6890   32.6946 C   0  0  0  0  0  0  0  0  0  0  0  0
    1.1015   26.3805   33.9737 C   0  0  0  0  0  0  0  0  0  0  0  0
    1.8469   27.5467   33.6268 O   0  0  0  0  0  0  0  0  0  0  0  0
    1.9665   25.3958   34.7603 C   0  0  0  0  0  0  0  0  0  0  0  0
    3.1535   25.1224   34.0113 O   0  0  0  0  0  0  0  0  0  0  0  0
    1.1911   24.0989   35.0246 C   0  0  0  0  0  0  0  0  0  0  0  0
    2.1075   23.0470   35.6506 C   0  0  0  0  0  0  0  0  0  0  0  0
    0.6188   23.5319   33.7919 N   0  0  0  0  0  0  0  0  0  0  0  0
   -0.2449   24.4898   33.0812 C   0  0  0  0  0  0  0  0  0  0  0  0
    0.4778   27.3634   31.6557 H   0  0  0  0  0  0  0  0  0  0  0  0
    2.6060   27.2939   33.0783 H   0  0  0  0  0  0  0  0  0  0  0  0
    2.9134   24.7344   33.1553 H   0  0  0  0  0  0  0  0  0  0  0  0
    0.0655   22.7103   34.0354 H   0  0  0  0  0  0  0  0  0  0  0  0
   -1.9388   24.6014   31.2457 N   0  0  0  0  0  0  0  0  0  0  0  0
   -1.8241   25.0705   30.0043 C   0  0  0  0  0  0  0  0  0  0  0  0
   -0.8501   24.8576   29.2806 O   0  0  0  0  0  0  0  0  0  0  0  0
   -2.7574   24.7628   31.7682 H   0  0  0  0  0  0  0  0  0  0  0  0
   -2.9914   25.8828   29.4354 C   0  0  0  0  0  0  0  0  0  0  0  0
   -4.2403   25.4344   29.4960 C   0  0  0  0  0  0  0  0  0  0  0  0
   -5.0075   26.3477   28.9093 C   0  0  0  0  0  0  0  0  0  0  0  0
   -6.3721   26.3725   28.6432 C   0  0  0  0  0  0  0  0  0  0  0  0
   -6.9162   27.4516   27.9557 C   0  0  0  0  0  0  0  0  0  0  0  0
   -6.0829   28.4912   27.5532 C   0  0  0  0  0  0  0  0  0  0  0  0
   -4.7167   28.4688   27.8208 C   0  0  0  0  0  0  0  0  0  0  0  0
   -4.1737   27.3836   28.4988 C   0  0  0  0  0  0  0  0  0  0  0  0
   -2.9252   27.0652   28.8305 N   0  0  0  0  0  0  0  0  0  0  0  0
   -2.1149   27.5982   28.6619 H   0  0  0  0  0  0  0  0  0  0  0  0
  2  3  1  0  0  0
  3  4  1  0  0  0
  3 11  1  0  0  0
  4  5  1  0  0  0
  4  6  1  0  0  0
  6  7  1  0  0  0
  6  8  1  0  0  0
  8  9  1  0  0  0
  8 10  1  0  0  0
 10 11  1  0  0  0
 11  1  1  0  0  0
  1 16  1  0  0  0
 16 17  1  0  0  0
 17 18  2  0  0  0
 17 20  1  0  0  0
 20 21  2  0  0  0
 20 28  1  0  0  0
 21 22  1  0  0  0
 22 23  2  0  0  0
 22 27  1  0  0  0
 23 24  1  0  0  0
 24 25  2  0  0  0
 25 26  1  0  0  0
 26 27  2  0  0  0
 27 28  1  0  0  0
  2 12  1  0  0  0
  5 13  1  0  0  0
  7 14  1  0  0  0
 10 15  1  0  0  0
 16 19  1  0  0  0
 28 29  1  0  0  0
M  END
> <minimizedAffinity>
-7.91223

$$$$
2ZX7_ZX7_A_901


 29 31  0  0  0  0  0  0  0  0999 V2000
   -0.8180   28.0104   32.8216 C   0  0  0  0  0  0  0  0  0  0  0  0
    1.9292   27.7419   33.6150 O   0  0  0  0  0  0  0  0  0  0  0  0
    1.1647   26.5671   33.3399 C   0  0  0  0  0  0  0  0  0  0  0  0
    1.6512   25.4152   34.2212 C   0  0  0  0  0  0  0  0  0  0  0  0
    3.0558   25.2451   34.0371 O   0  0  0  0  0  0  0  0  0  0  0  0
    0.8928   24.1496   33.8213 C   0  0  0  0  0  0  0  0  0  0  0  0
    1.2624   23.7911   32.4874 O   0  0  0  0  0  0  0  0  0  0  0  0
   -0.6204   24.3845   33.9114 C   0  0  0  0  0  0  0  0  0  0  0  0
   -1.3816   23.1864   33.3430 C   0  0  0  0  0  0  0  0  0  0  0  0
   -1.0417   25.5867   33.1725 N   0  0  0  0  0  0  0  0  0  0  0  0
   -0.3252   26.7960   33.6118 C   0  0  0  0  0  0  0  0  0  0  0  0
    2.8662   27.5676   33.4343 H   0  0  0  0  0  0  0  0  0  0  0  0
    3.2390   25.0558   33.1036 H   0  0  0  0  0  0  0  0  0  0  0  0
    1.0327   24.5141   31.8828 H   0  0  0  0  0  0  0  0  0  0  0  0
   -2.0414   25.7272   33.3183 H   0  0  0  0  0  0  0  0  0  0  0  0
   -1.9882   27.7086   31.9831 N   0  0  0  0  0  0  0  0  0  0  0  0
   -1.7929   27.2722   30.7398 C   0  0  0  0  0  0  0  0  0  0  0  0
   -0.6799   27.0525   30.2595 O   0  0  0  0  0  0  0  0  0  0  0  0
   -2.9001   27.8270   32.3348 H   0  0  0  0  0  0  0  0  0  0  0  0
   -3.0275   26.9880   29.8790 C   0  0  0  0  0  0  0  0  0  0  0  0
   -3.8506   25.9841   30.1605 C   0  0  0  0  0  0  0  0  0  0  0  0
   -4.8005   25.9910   29.2306 C   0  0  0  0  0  0  0  0  0  0  0  0
   -5.8767   25.1399   29.0055 C   0  0  0  0  0  0  0  0  0  0  0  0
   -6.7004   25.3534   27.9059 C   0  0  0  0  0  0  0  0  0  0  0  0
   -6.4344   26.4220   27.0547 C   0  0  0  0  0  0  0  0  0  0  0  0
   -5.3584   27.2764   27.2799 C   0  0  0  0  0  0  0  0  0  0  0  0
   -4.5302   27.0540   28.3739 C   0  0  0  0  0  0  0  0  0  0  0  0
   -3.4185   27.6515   28.7948 N   0  0  0  0  0  0  0  0  0  0  0  0
   -2.9742   28.4289   28.3855 H   0  0  0  0  0  0  0  0  0  0  0  0
  2  3  1  0  0  0
  3  4  1  0  0  0
  3 11  1  0  0  0
  4  5  1  0  0  0
  4  6  1  0  0  0
  6  7  1  0  0  0
  6  8  1  0  0  0
  8  9  1  0  0  0
  8 10  1  0  0  0
 10 11  1  0  0  0
 11  1  1  0  0  0
  1 16  1  0  0  0
 16 17  1  0  0  0
 17 18  2  0  0  0
 17 20  1  0  0  0
 20 21  2  0  0  0
 20 28  1  0  0  0
 21 22  1  0  0  0
 22 23  2  0  0  0
 22 27  1  0  0  0
 23 24  1  0  0  0
 24 25  2  0  0  0
 25 26  1  0  0  0
 26 27  2  0  0  0
 27 28  1  0  0  0
  2 12  1  0  0  0
  5 13  1  0  0  0
  7 14  1  0  0  0
 10 15  1  0  0  0
 16 19  1  0  0  0
 28 29  1  0  0  0
M  END
> <minimizedAffinity>
-7.81585

$$$$
