2WQ5_MIY_A_1120
  RCSB PDB12061707173D
Coordinates from PDB:2WQ5:A:1120 Model:1 without hydrogens
 33 36  0  0  0  0            999 V2000
  -13.7090   17.5040   15.1700   O 0  0  0  0  0  0  0  0  0  0  0  0
  -13.0470   16.6000   15.7240   C 0  0  0  0  0  0  0  0  0  0  0  0
  -11.8290   16.8560   16.2090   N 0  0  0  0  0  0  0  0  0  0  0  0
  -13.6040   15.2540   15.8250   C 0  0  0  0  0  0  0  0  0  0  0  0
  -14.8170   14.9630   16.5640   C 0  0  0  0  0  0  0  0  0  0  0  0
  -15.7110   15.7740   16.7120   O 0  0  0  0  0  0  0  0  0  0  0  0
  -13.2320   14.3450   14.9440   C 0  0  0  0  0  0  0  0  0  0  0  0
  -13.0120   14.7870   13.7140   O 0  0  0  0  0  0  0  0  0  0  0  0
  -13.4820   12.8690   15.1850   C 0  0  0  0  0  0  0  0  0  0  0  0
  -12.1880   12.3600   15.7290   N 0  0  0  0  0  0  0  0  0  0  0  0
  -12.2500   10.8890   15.7920   C 0  0  0  0  0  0  0  0  0  0  0  0
  -11.7830   12.8300   17.0640   C 0  0  0  0  0  0  0  0  0  0  0  0
  -14.7580   12.5840   15.9820   C 0  0  0  0  0  0  0  0  0  0  0  0
  -14.9310   13.5760   17.1120   C 0  0  0  0  0  0  0  0  0  0  0  0
  -13.8710   13.3470   18.0320   O 0  0  0  0  0  0  0  0  0  0  0  0
  -16.2480   13.4220   17.8170   C 0  0  0  0  0  0  0  0  0  0  0  0
  -16.3570   14.0150   19.0040   O 0  0  0  0  0  0  0  0  0  0  0  0
  -17.2650   12.7430   17.2740   C 0  0  0  0  0  0  0  0  0  0  0  0
  -17.1760   12.0490   15.9340   C 0  0  0  0  0  0  0  0  0  0  0  0
  -15.9990   12.5490   15.0990   C 0  0  0  0  0  0  0  0  0  0  0  0
  -18.5130   12.6370   18.0160   C 0  0  0  0  0  0  0  0  0  0  0  0
  -18.6120   13.1840   19.1610   O 0  0  0  0  0  0  0  0  0  0  0  0
  -19.6620   11.9330   17.3640   C 0  0  0  0  0  0  0  0  0  0  0  0
  -19.6440   11.7150   15.9880   C 0  0  0  0  0  0  0  0  0  0  0  0
  -18.4730   12.2270   15.1650   C 0  0  0  0  0  0  0  0  0  0  0  0
  -20.7220   11.4660   18.1310   C 0  0  0  0  0  0  0  0  0  0  0  0
  -20.7440   11.6730   19.4460   O 0  0  0  0  0  0  0  0  0  0  0  0
  -21.7790   10.7950   17.5090   C 0  0  0  0  0  0  0  0  0  0  0  0
  -21.7720   10.5910   16.1330   C 0  0  0  0  0  0  0  0  0  0  0  0
  -20.6950   11.0470   15.3600   C 0  0  0  0  0  0  0  0  0  0  0  0
  -20.6560   10.8580   13.9620   N 0  0  0  0  0  0  0  0  0  0  0  0
  -20.9820   12.1140   13.2920   C 0  0  0  0  0  0  0  0  0  0  0  0
  -21.5860    9.8450   13.4760   C 0  0  0  0  0  0  0  0  0  0  0  0
  1  2  2  0  0  0  0
  2  3  1  0  0  0  0
  2  4  1  0  0  0  0
  4  5  1  0  0  0  0
  4  7  2  0  0  0  0
  5  6  2  0  0  0  0
  5 14  1  0  0  0  0
  7  8  1  0  0  0  0
  7  9  1  0  0  0  0
  9 10  1  0  0  0  0
  9 13  1  0  0  0  0
 10 11  1  0  0  0  0
 10 12  1  0  0  0  0
 13 14  1  0  0  0  0
 13 20  1  0  0  0  0
 14 15  1  0  0  0  0
 14 16  1  0  0  0  0
 16 17  1  0  0  0  0
 16 18  2  0  0  0  0
 18 19  1  0  0  0  0
 18 21  1  0  0  0  0
 19 20  1  0  0  0  0
 19 25  1  0  0  0  0
 21 22  2  0  0  0  0
 21 23  1  0  0  0  0
 23 24  2  0  0  0  0
 23 26  1  0  0  0  0
 24 25  1  0  0  0  0
 24 30  1  0  0  0  0
 26 27  1  0  0  0  0
 26 28  2  0  0  0  0
 28 29  1  0  0  0  0
 29 30  2  0  0  0  0
 30 31  1  0  0  0  0
 31 32  1  0  0  0  0
 31 33  1  0  0  0  0
A    1
O8
A    2
C21
A    3
N2
A    4
C2
A    5
C1
A    6
O1
A    7
C3
A    8
O2
A    9
C4
A   10
N1
A   11
C20
A   12
C19
A   13
C5
A   14
C18
A   15
O7
A   16
C17
A   17
O6
A   18
C16
A   19
C7
A   20
C6
A   21
C15
A   22
O5
A   23
C14
A   24
C9
A   25
C8
A   26
C13
A   27
O4
A   28
C12
A   29
C11
A   30
C10
A   31
N7
A   32
CN7
A   33
C71
M  END
>  <InstanceId>
2WQ5_MIY_A_1120

>  <ChemCompId>
MIY

>  <PdbId>
2WQ5

>  <ChainId>
A

>  <ResidueNumber>
1120

>  <InsertionCode>


>  <Model>
1

>  <AltIds>


>  <MissingHeavyAtoms>
33

>  <ObservedFormula>
C23 N3 O7

>  <Name>
(4S,4AS,5AR,12AS)-4,7-BIS(DIMETHYLAMINO)-3,10,12,12A-TETRAHYDROXY-1,11-DIOXO-1,4,4A,5,5A,6,11,12A-OCTAHYDROTETRACENE-2-CARBOXAMIDE

>  <SystematicName>
(4S,4aS,5aR,12aS)-4,7-bis(dimethylamino)-3,10,12,12a-tetrahydroxy-1,11-dioxo-4a,5,5a,6-tetrahydro-4H-tetracene-2-carboxamide

>  <Synonyms>
MINOCYCLINE

>  <Type>
NON-POLYMER

>  <Formula>
C23 H27 N3 O7

>  <MolecularWeight>
457.476

>  <ModifiedDate>
2011-06-04

>  <Parent>


>  <OneLetterCode>


>  <SubcomponentList>


>  <AmbiguousFlag>
N

>  <InChI>
InChI=1S/C23H27N3O7/c1-25(2)12-5-6-13(27)15-10(12)7-9-8-11-17(26(3)4)19(29)16(22(24)32)21(31)23(11,33)20(30)14(9)18(15)28/h5-6,9,11,17,27,29-30,33H,7-8H2,1-4H3,(H2,24,32)/t9-,11-,17-,23-/m0/s1

>  <InChIKey>
DYKFCLLONBREIL-KVUCHLLUSA-N

>  <SMILES>
CN(C)c1ccc(c2c1C[C@H]3C[C@H]4[C@@H](C(=C(C(=O)[C@]4(C(=C3C2=O)O)O)C(=O)N)O)N(C)C)O

$$$$
