2I4D_QFI_B_300


 49 52  0  0  0  0  0  0  0  0999 V2000
   16.4423   25.2307   16.2017 C   0  0  0  0  0  0  0  0  0  0  0  0
   17.9759   26.6677   14.9745 C   0  0  0  0  0  0  0  0  0  0  0  0
   17.6351   26.0341   16.1149 N   0  0  0  0  0  0  0  0  0  0  0  0
   17.3488   26.6316   13.9229 O   0  0  0  0  0  0  0  0  0  0  0  0
   18.2144   26.1224   16.9060 H   0  0  0  0  0  0  0  0  0  0  0  0
   19.1242   27.3261   15.1896 O   0  0  0  0  0  0  0  0  0  0  0  0
   21.4925   26.6912   15.1019 C   0  0  0  0  0  0  0  0  0  0  0  0
   21.7232   28.9481   14.2471 O   0  0  0  0  0  0  0  0  0  0  0  0
   20.2235   27.0334   14.3138 C   0  0  0  0  0  0  0  0  0  0  0  0
   20.5565   28.3682   13.6065 C   0  0  0  0  0  0  0  0  0  0  0  0
   22.1636   28.0539   15.2787 C   0  0  0  0  0  0  0  0  0  0  0  0
   21.7971   28.5336   16.5735 O   0  0  0  0  0  0  0  0  0  0  0  0
   21.7187   27.3974   17.4383 C   0  0  0  0  0  0  0  0  0  0  0  0
   21.2090   26.2446   16.5527 C   0  0  0  0  0  0  0  0  0  0  0  0
   16.2539   24.9408   17.7070 C   0  0  0  0  0  0  0  0  0  0  0  0
   15.4801   25.9974   18.2445 O   0  0  0  0  0  0  0  0  0  0  0  0
   15.9472   26.8378   18.1166 H   0  0  0  0  0  0  0  0  0  0  0  0
   17.6118   24.8434   18.4514 C   0  0  0  0  0  0  0  0  0  0  0  0
   17.5141   23.8131   19.5105 N   0  0  0  0  0  0  0  0  0  0  0  0
   17.6675   22.2295   18.8976 S   0  0  0  0  0  0  0  0  0  0  0  0
   18.4147   21.3903   19.8817 O   0  0  0  0  0  0  0  0  0  0  0  0
   18.4340   22.2951   17.6138 O   0  0  0  0  0  0  0  0  0  0  0  0
   16.0943   21.5319   18.5935 C   0  0  0  0  0  0  0  0  0  0  0  0
   15.9496   20.4999   17.6510 C   0  0  0  0  0  0  0  0  0  0  0  0
   14.6847   19.9281   17.4198 C   0  0  0  0  0  0  0  0  0  0  0  0
   13.5592   20.3784   18.1243 C   0  0  0  0  0  0  0  0  0  0  0  0
   13.7068   21.4195   19.0644 C   0  0  0  0  0  0  0  0  0  0  0  0
   14.9714   21.9934   19.2983 C   0  0  0  0  0  0  0  0  0  0  0  0
   12.3091   19.7907   17.8854 O   0  0  0  0  0  0  0  0  0  0  0  0
   11.6124   19.2859   19.0381 C   0  0  0  0  0  0  0  0  0  0  0  0
   18.5706   24.1010   20.5029 C   0  0  0  0  0  0  0  0  0  0  0  0
   19.6826   25.0242   19.9403 C   0  0  0  0  0  0  0  0  0  0  0  0
   20.1194   26.0563   20.9981 C   0  0  0  0  0  0  0  0  0  0  0  0
   20.9097   24.1720   19.6009 C   0  0  0  0  0  0  0  0  0  0  0  0
   16.6342   23.9073   15.4225 C   0  0  0  0  0  0  0  0  0  0  0  0
   15.3050   23.1978   15.1851 C   0  0  0  0  0  0  0  0  0  0  0  0
   15.2312   22.1139   14.2860 C   0  0  0  0  0  0  0  0  0  0  0  0
   13.9996   21.4638   14.0708 C   0  0  0  0  0  0  0  0  0  0  0  0
   12.8405   21.9004   14.7544 C   0  0  0  0  0  0  0  0  0  0  0  0
   12.9202   22.9842   15.6546 C   0  0  0  0  0  0  0  0  0  0  0  0
   14.1508   23.6322   15.8680 C   0  0  0  0  0  0  0  0  0  0  0  0
   11.6231   21.2605   14.5445 O   0  0  0  0  0  0  0  0  0  0  0  0
   11.6577   20.3342   13.4690 C   0  0  0  0  0  0  0  0  0  0  0  0
   11.0298   18.7190   14.0221 P   0  0  0  0  0  0  0  0  0  0  0  0
   11.0227   18.6606   15.6170 O   0  0  0  0  0  0  0  0  0  0  0  0
   11.9119   17.6622   13.4780 O   0  0  0  0  0  0  0  0  0  0  0  0
    9.5400   18.5065   13.4916 O   0  0  0  0  0  0  0  0  0  0  0  0
   10.4423   19.3563   15.9634 H   0  0  0  0  0  0  0  0  0  0  0  0
   11.9093   17.7061   12.5090 H   0  0  0  0  0  0  0  0  0  0  0  0
  7 14  1  0  0  0
  7 11  1  0  0  0
  7  9  1  0  0  0
  8 11  1  0  0  0
  8 10  1  0  0  0
  9  6  1  0  0  0
  9 10  1  0  0  0
  6  2  1  0  0  0
  2  3  1  0  0  0
  2  4  2  0  0  0
  3  1  1  0  0  0
  1 35  1  0  0  0
  1 15  1  0  0  0
 15 18  1  0  0  0
 15 16  1  0  0  0
 18 19  1  0  0  0
 19 20  1  0  0  0
 19 31  1  0  0  0
 31 32  1  0  0  0
 32 33  1  0  0  0
 32 34  1  0  0  0
 20 21  2  0  0  0
 20 23  1  0  0  0
 20 22  2  0  0  0
 23 24  2  0  0  0
 23 28  1  0  0  0
 24 25  1  0  0  0
 25 26  2  0  0  0
 26 29  1  0  0  0
 26 27  1  0  0  0
 29 30  1  0  0  0
 27 28  2  0  0  0
 35 36  1  0  0  0
 36 37  2  0  0  0
 36 41  1  0  0  0
 37 38  1  0  0  0
 38 39  2  0  0  0
 39 42  1  0  0  0
 39 40  1  0  0  0
 42 43  1  0  0  0
 43 44  1  0  0  0
 44 47  2  0  0  0
 44 45  1  0  0  0
 44 46  1  0  0  0
 40 41  2  0  0  0
 11 12  1  0  0  0
 12 13  1  0  0  0
 13 14  1  0  0  0
  3  5  1  0  0  0
 16 17  1  0  0  0
 45 48  1  0  0  0
 46 49  1  0  0  0
M  END
> <minimizedAffinity>
-9.32091

$$$$
2I4D_QFI_B_300


 49 52  0  0  0  0  0  0  0  0999 V2000
   14.1372   22.6124   17.0794 C   0  0  0  0  0  0  0  0  0  0  0  0
   13.7793   20.8356   18.7035 C   0  0  0  0  0  0  0  0  0  0  0  0
   13.2800   21.8017   17.9063 N   0  0  0  0  0  0  0  0  0  0  0  0
   14.9628   20.5381   18.8093 O   0  0  0  0  0  0  0  0  0  0  0  0
   12.3080   21.9566   17.8890 H   0  0  0  0  0  0  0  0  0  0  0  0
   12.7556   20.2510   19.3426 O   0  0  0  0  0  0  0  0  0  0  0  0
   11.9709   18.0434   18.6142 C   0  0  0  0  0  0  0  0  0  0  0  0
   10.8619   18.0939   20.7693 O   0  0  0  0  0  0  0  0  0  0  0  0
   12.8517   18.8390   19.5837 C   0  0  0  0  0  0  0  0  0  0  0  0
   12.2040   18.6103   20.9698 C   0  0  0  0  0  0  0  0  0  0  0  0
   10.6391   17.9498   19.3596 C   0  0  0  0  0  0  0  0  0  0  0  0
    9.8055   18.9949   18.8557 O   0  0  0  0  0  0  0  0  0  0  0  0
   10.1039   19.1396   17.4647 C   0  0  0  0  0  0  0  0  0  0  0  0
   11.6070   18.8283   17.3350 C   0  0  0  0  0  0  0  0  0  0  0  0
   14.5813   23.7865   17.9795 C   0  0  0  0  0  0  0  0  0  0  0  0
   13.4227   24.5372   18.2925 O   0  0  0  0  0  0  0  0  0  0  0  0
   13.0220   24.8697   17.4740 H   0  0  0  0  0  0  0  0  0  0  0  0
   15.6276   24.6907   17.2757 C   0  0  0  0  0  0  0  0  0  0  0  0
   16.9756   24.1030   17.4503 N   0  0  0  0  0  0  0  0  0  0  0  0
   17.7197   23.7222   15.9643 S   0  0  0  0  0  0  0  0  0  0  0  0
   16.6836   23.2366   15.0044 O   0  0  0  0  0  0  0  0  0  0  0  0
   18.7235   22.6386   16.2059 O   0  0  0  0  0  0  0  0  0  0  0  0
   18.5319   25.1225   15.3057 C   0  0  0  0  0  0  0  0  0  0  0  0
   17.7882   26.1556   14.7111 C   0  0  0  0  0  0  0  0  0  0  0  0
   18.4429   27.2899   14.1964 C   0  0  0  0  0  0  0  0  0  0  0  0
   19.8385   27.4028   14.2711 C   0  0  0  0  0  0  0  0  0  0  0  0
   20.5826   26.3605   14.8622 C   0  0  0  0  0  0  0  0  0  0  0  0
   19.9302   25.2243   15.3786 C   0  0  0  0  0  0  0  0  0  0  0  0
   20.4715   28.5443   13.7597 O   0  0  0  0  0  0  0  0  0  0  0  0
   21.6681   28.9660   14.4374 C   0  0  0  0  0  0  0  0  0  0  0  0
   17.7843   25.0767   18.2129 C   0  0  0  0  0  0  0  0  0  0  0  0
   18.4869   24.4385   19.4397 C   0  0  0  0  0  0  0  0  0  0  0  0
   17.8904   23.0512   19.7471 C   0  0  0  0  0  0  0  0  0  0  0  0
   19.9694   24.2347   19.1113 C   0  0  0  0  0  0  0  0  0  0  0  0
   13.3500   23.1439   15.8574 C   0  0  0  0  0  0  0  0  0  0  0  0
   12.7967   22.0048   15.0074 C   0  0  0  0  0  0  0  0  0  0  0  0
   11.4035   21.8180   14.8933 C   0  0  0  0  0  0  0  0  0  0  0  0
   10.8994   20.7628   14.1071 C   0  0  0  0  0  0  0  0  0  0  0  0
   11.7905   19.8925   13.4363 C   0  0  0  0  0  0  0  0  0  0  0  0
   13.1837   20.0850   13.5520 C   0  0  0  0  0  0  0  0  0  0  0  0
   13.6851   21.1391   14.3377 C   0  0  0  0  0  0  0  0  0  0  0  0
   11.2961   18.8499   12.6589 O   0  0  0  0  0  0  0  0  0  0  0  0
   11.7959   17.5789   13.0470 C   0  0  0  0  0  0  0  0  0  0  0  0
   10.4594   16.5845   13.7780 P   0  0  0  0  0  0  0  0  0  0  0  0
    9.0718   17.3607   13.6388 O   0  0  0  0  0  0  0  0  0  0  0  0
   10.7734   16.3555   15.2063 O   0  0  0  0  0  0  0  0  0  0  0  0
   10.3467   15.1862   13.0178 O   0  0  0  0  0  0  0  0  0  0  0  0
    8.8753   17.5058   12.7001 H   0  0  0  0  0  0  0  0  0  0  0  0
   11.6177   15.8836   15.2800 H   0  0  0  0  0  0  0  0  0  0  0  0
  7 14  1  0  0  0
  7 11  1  0  0  0
  7  9  1  0  0  0
  8 11  1  0  0  0
  8 10  1  0  0  0
  9  6  1  0  0  0
  9 10  1  0  0  0
  6  2  1  0  0  0
  2  3  1  0  0  0
  2  4  2  0  0  0
  3  1  1  0  0  0
  1 35  1  0  0  0
  1 15  1  0  0  0
 15 18  1  0  0  0
 15 16  1  0  0  0
 18 19  1  0  0  0
 19 20  1  0  0  0
 19 31  1  0  0  0
 31 32  1  0  0  0
 32 33  1  0  0  0
 32 34  1  0  0  0
 20 21  2  0  0  0
 20 23  1  0  0  0
 20 22  2  0  0  0
 23 24  2  0  0  0
 23 28  1  0  0  0
 24 25  1  0  0  0
 25 26  2  0  0  0
 26 29  1  0  0  0
 26 27  1  0  0  0
 29 30  1  0  0  0
 27 28  2  0  0  0
 35 36  1  0  0  0
 36 37  2  0  0  0
 36 41  1  0  0  0
 37 38  1  0  0  0
 38 39  2  0  0  0
 39 42  1  0  0  0
 39 40  1  0  0  0
 42 43  1  0  0  0
 43 44  1  0  0  0
 44 47  2  0  0  0
 44 45  1  0  0  0
 44 46  1  0  0  0
 40 41  2  0  0  0
 11 12  1  0  0  0
 12 13  1  0  0  0
 13 14  1  0  0  0
  3  5  1  0  0  0
 16 17  1  0  0  0
 45 48  1  0  0  0
 46 49  1  0  0  0
M  END
> <minimizedAffinity>
-8.94435

$$$$
2I4D_QFI_B_300


 49 52  0  0  0  0  0  0  0  0999 V2000
   14.2158   22.3985   17.0069 C   0  0  0  0  0  0  0  0  0  0  0  0
   13.8503   20.6250   18.6330 C   0  0  0  0  0  0  0  0  0  0  0  0
   13.3785   21.6732   17.9281 N   0  0  0  0  0  0  0  0  0  0  0  0
   14.9892   20.1783   18.5720 O   0  0  0  0  0  0  0  0  0  0  0  0
   12.4407   21.9490   18.0455 H   0  0  0  0  0  0  0  0  0  0  0  0
   12.8535   20.1513   19.3947 O   0  0  0  0  0  0  0  0  0  0  0  0
   11.9163   18.0210   18.6181 C   0  0  0  0  0  0  0  0  0  0  0  0
   10.7295   18.1548   20.7278 O   0  0  0  0  0  0  0  0  0  0  0  0
   12.8209   18.7351   19.6282 C   0  0  0  0  0  0  0  0  0  0  0  0
   12.1010   18.5554   20.9855 C   0  0  0  0  0  0  0  0  0  0  0  0
   10.5523   18.0364   19.3092 C   0  0  0  0  0  0  0  0  0  0  0  0
    9.8304   19.1503   18.7809 O   0  0  0  0  0  0  0  0  0  0  0  0
   10.1957   19.2758   17.4041 C   0  0  0  0  0  0  0  0  0  0  0  0
   11.6714   18.8396   17.3317 C   0  0  0  0  0  0  0  0  0  0  0  0
   14.8065   23.5674   17.8257 C   0  0  0  0  0  0  0  0  0  0  0  0
   13.7383   24.4415   18.1405 O   0  0  0  0  0  0  0  0  0  0  0  0
   13.3370   24.7700   17.3207 H   0  0  0  0  0  0  0  0  0  0  0  0
   15.9034   24.3299   17.0363 C   0  0  0  0  0  0  0  0  0  0  0  0
   16.8638   24.9286   17.9914 N   0  0  0  0  0  0  0  0  0  0  0  0
   17.6307   23.7590   18.9663 S   0  0  0  0  0  0  0  0  0  0  0  0
   17.9391   22.5538   18.1398 O   0  0  0  0  0  0  0  0  0  0  0  0
   16.6940   23.3807   20.0706 O   0  0  0  0  0  0  0  0  0  0  0  0
   19.1029   24.4010   19.6553 C   0  0  0  0  0  0  0  0  0  0  0  0
   19.0449   25.2961   20.7367 C   0  0  0  0  0  0  0  0  0  0  0  0
   20.2320   25.7989   21.3008 C   0  0  0  0  0  0  0  0  0  0  0  0
   21.4812   25.4139   20.7935 C   0  0  0  0  0  0  0  0  0  0  0  0
   21.5356   24.5209   19.7031 C   0  0  0  0  0  0  0  0  0  0  0  0
   20.3493   24.0156   19.1368 C   0  0  0  0  0  0  0  0  0  0  0  0
   22.6526   25.9197   21.3741 O   0  0  0  0  0  0  0  0  0  0  0  0
   22.4759   26.8472   22.4593 C   0  0  0  0  0  0  0  0  0  0  0  0
   17.8534   25.6899   17.2008 C   0  0  0  0  0  0  0  0  0  0  0  0
   17.9954   25.1584   15.7507 C   0  0  0  0  0  0  0  0  0  0  0  0
   17.9352   26.3184   14.7380 C   0  0  0  0  0  0  0  0  0  0  0  0
   19.3664   24.4917   15.5992 C   0  0  0  0  0  0  0  0  0  0  0  0
   13.3675   22.9435   15.8327 C   0  0  0  0  0  0  0  0  0  0  0  0
   12.7337   21.8143   15.0266 C   0  0  0  0  0  0  0  0  0  0  0  0
   11.3397   21.7915   14.8143 C   0  0  0  0  0  0  0  0  0  0  0  0
   10.7609   20.7445   14.0695 C   0  0  0  0  0  0  0  0  0  0  0  0
   11.5776   19.7186   13.5387 C   0  0  0  0  0  0  0  0  0  0  0  0
   12.9723   19.7474   13.7522 C   0  0  0  0  0  0  0  0  0  0  0  0
   13.5483   20.7934   14.4964 C   0  0  0  0  0  0  0  0  0  0  0  0
   11.0093   18.6838   12.8025 O   0  0  0  0  0  0  0  0  0  0  0  0
   11.5773   17.4153   13.0927 C   0  0  0  0  0  0  0  0  0  0  0  0
   10.3356   16.3470   13.8841 P   0  0  0  0  0  0  0  0  0  0  0  0
   10.6799   16.1761   15.4331 O   0  0  0  0  0  0  0  0  0  0  0  0
   10.3538   15.0292   13.2102 O   0  0  0  0  0  0  0  0  0  0  0  0
    8.8885   17.0050   13.7469 O   0  0  0  0  0  0  0  0  0  0  0  0
   10.6655   17.0444   15.8652 H   0  0  0  0  0  0  0  0  0  0  0  0
   10.1436   15.1438   12.2703 H   0  0  0  0  0  0  0  0  0  0  0  0
  7 14  1  0  0  0
  7 11  1  0  0  0
  7  9  1  0  0  0
  8 11  1  0  0  0
  8 10  1  0  0  0
  9  6  1  0  0  0
  9 10  1  0  0  0
  6  2  1  0  0  0
  2  3  1  0  0  0
  2  4  2  0  0  0
  3  1  1  0  0  0
  1 35  1  0  0  0
  1 15  1  0  0  0
 15 18  1  0  0  0
 15 16  1  0  0  0
 18 19  1  0  0  0
 19 20  1  0  0  0
 19 31  1  0  0  0
 31 32  1  0  0  0
 32 33  1  0  0  0
 32 34  1  0  0  0
 20 21  2  0  0  0
 20 23  1  0  0  0
 20 22  2  0  0  0
 23 24  2  0  0  0
 23 28  1  0  0  0
 24 25  1  0  0  0
 25 26  2  0  0  0
 26 29  1  0  0  0
 26 27  1  0  0  0
 29 30  1  0  0  0
 27 28  2  0  0  0
 35 36  1  0  0  0
 36 37  2  0  0  0
 36 41  1  0  0  0
 37 38  1  0  0  0
 38 39  2  0  0  0
 39 42  1  0  0  0
 39 40  1  0  0  0
 42 43  1  0  0  0
 43 44  1  0  0  0
 44 47  2  0  0  0
 44 45  1  0  0  0
 44 46  1  0  0  0
 40 41  2  0  0  0
 11 12  1  0  0  0
 12 13  1  0  0  0
 13 14  1  0  0  0
  3  5  1  0  0  0
 16 17  1  0  0  0
 45 48  1  0  0  0
 46 49  1  0  0  0
M  END
> <minimizedAffinity>
-8.71272

$$$$
2I4D_QFI_B_300


 49 52  0  0  0  0  0  0  0  0999 V2000
   11.3910   20.6131   14.9126 C   0  0  0  0  0  0  0  0  0  0  0  0
   11.7863   19.1471   13.0106 C   0  0  0  0  0  0  0  0  0  0  0  0
   11.0185   20.0638   13.6338 N   0  0  0  0  0  0  0  0  0  0  0  0
   12.8461   18.6991   13.4306 O   0  0  0  0  0  0  0  0  0  0  0  0
   10.1846   20.3644   13.2055 H   0  0  0  0  0  0  0  0  0  0  0  0
   11.1961   18.8279   11.8495 O   0  0  0  0  0  0  0  0  0  0  0  0
    9.6259   16.9603   11.5913 C   0  0  0  0  0  0  0  0  0  0  0  0
    8.9665   18.2206    9.6281 O   0  0  0  0  0  0  0  0  0  0  0  0
    9.8118   18.4503   11.8981 C   0  0  0  0  0  0  0  0  0  0  0  0
    9.1424   19.1759   10.7072 C   0  0  0  0  0  0  0  0  0  0  0  0
    9.4444   16.9434   10.0731 C   0  0  0  0  0  0  0  0  0  0  0  0
   10.7193   16.6388    9.5047 O   0  0  0  0  0  0  0  0  0  0  0  0
   11.3691   15.7238   10.3909 C   0  0  0  0  0  0  0  0  0  0  0  0
   10.9091   16.1280   11.8044 C   0  0  0  0  0  0  0  0  0  0  0  0
   10.2159   20.2801   15.8580 C   0  0  0  0  0  0  0  0  0  0  0  0
    9.2618   21.3172   15.7233 O   0  0  0  0  0  0  0  0  0  0  0  0
    9.6668   22.1632   15.9703 H   0  0  0  0  0  0  0  0  0  0  0  0
   10.6764   20.1689   17.3356 C   0  0  0  0  0  0  0  0  0  0  0  0
   11.1828   18.8001   17.5865 N   0  0  0  0  0  0  0  0  0  0  0  0
   12.1708   18.7130   18.9732 S   0  0  0  0  0  0  0  0  0  0  0  0
   12.6272   17.3039   19.1655 O   0  0  0  0  0  0  0  0  0  0  0  0
   11.3591   19.1407   20.1557 O   0  0  0  0  0  0  0  0  0  0  0  0
   13.5532   19.7699   18.8117 C   0  0  0  0  0  0  0  0  0  0  0  0
   14.5539   19.4846   17.8676 C   0  0  0  0  0  0  0  0  0  0  0  0
   15.6578   20.3460   17.7275 C   0  0  0  0  0  0  0  0  0  0  0  0
   15.7716   21.4943   18.5240 C   0  0  0  0  0  0  0  0  0  0  0  0
   14.7689   21.7738   19.4758 C   0  0  0  0  0  0  0  0  0  0  0  0
   13.6627   20.9139   19.6180 C   0  0  0  0  0  0  0  0  0  0  0  0
   16.8750   22.3441   18.3640 O   0  0  0  0  0  0  0  0  0  0  0  0
   17.9727   22.1394   19.2708 C   0  0  0  0  0  0  0  0  0  0  0  0
   10.0077   17.9137   17.7175 C   0  0  0  0  0  0  0  0  0  0  0  0
   10.2310   16.5255   17.0627 C   0  0  0  0  0  0  0  0  0  0  0  0
    9.3262   15.4636   17.7175 C   0  0  0  0  0  0  0  0  0  0  0  0
    9.8412   16.6069   15.5833 C   0  0  0  0  0  0  0  0  0  0  0  0
   11.5695   22.1465   14.8014 C   0  0  0  0  0  0  0  0  0  0  0  0
   13.0300   22.5549   14.9636 C   0  0  0  0  0  0  0  0  0  0  0  0
   13.3868   23.5570   15.8894 C   0  0  0  0  0  0  0  0  0  0  0  0
   14.7381   23.9301   16.0331 C   0  0  0  0  0  0  0  0  0  0  0  0
   15.7328   23.3010   15.2480 C   0  0  0  0  0  0  0  0  0  0  0  0
   15.3707   22.2973   14.3246 C   0  0  0  0  0  0  0  0  0  0  0  0
   14.0209   21.9264   14.1823 C   0  0  0  0  0  0  0  0  0  0  0  0
   17.0679   23.6667   15.3878 O   0  0  0  0  0  0  0  0  0  0  0  0
   17.2516   25.0684   15.5202 C   0  0  0  0  0  0  0  0  0  0  0  0
   18.4152   25.4154   16.8748 P   0  0  0  0  0  0  0  0  0  0  0  0
   19.5689   24.3128   16.8903 O   0  0  0  0  0  0  0  0  0  0  0  0
   17.6682   25.3886   18.1523 O   0  0  0  0  0  0  0  0  0  0  0  0
   19.0775   26.8519   16.6652 O   0  0  0  0  0  0  0  0  0  0  0  0
   20.0521   24.3384   16.0496 H   0  0  0  0  0  0  0  0  0  0  0  0
   16.9701   26.0617   18.1328 H   0  0  0  0  0  0  0  0  0  0  0  0
  7 14  1  0  0  0
  7 11  1  0  0  0
  7  9  1  0  0  0
  8 11  1  0  0  0
  8 10  1  0  0  0
  9  6  1  0  0  0
  9 10  1  0  0  0
  6  2  1  0  0  0
  2  3  1  0  0  0
  2  4  2  0  0  0
  3  1  1  0  0  0
  1 35  1  0  0  0
  1 15  1  0  0  0
 15 18  1  0  0  0
 15 16  1  0  0  0
 18 19  1  0  0  0
 19 20  1  0  0  0
 19 31  1  0  0  0
 31 32  1  0  0  0
 32 33  1  0  0  0
 32 34  1  0  0  0
 20 21  2  0  0  0
 20 23  1  0  0  0
 20 22  2  0  0  0
 23 24  2  0  0  0
 23 28  1  0  0  0
 24 25  1  0  0  0
 25 26  2  0  0  0
 26 29  1  0  0  0
 26 27  1  0  0  0
 29 30  1  0  0  0
 27 28  2  0  0  0
 35 36  1  0  0  0
 36 37  2  0  0  0
 36 41  1  0  0  0
 37 38  1  0  0  0
 38 39  2  0  0  0
 39 42  1  0  0  0
 39 40  1  0  0  0
 42 43  1  0  0  0
 43 44  1  0  0  0
 44 47  2  0  0  0
 44 45  1  0  0  0
 44 46  1  0  0  0
 40 41  2  0  0  0
 11 12  1  0  0  0
 12 13  1  0  0  0
 13 14  1  0  0  0
  3  5  1  0  0  0
 16 17  1  0  0  0
 45 48  1  0  0  0
 46 49  1  0  0  0
M  END
> <minimizedAffinity>
-8.25827

$$$$
2I4D_QFI_B_300


 49 52  0  0  0  0  0  0  0  0999 V2000
   14.4855   20.4574   18.5763 C   0  0  0  0  0  0  0  0  0  0  0  0
   16.7838   21.1112   18.1150 C   0  0  0  0  0  0  0  0  0  0  0  0
   15.7027   21.1472   18.9200 N   0  0  0  0  0  0  0  0  0  0  0  0
   16.8617   20.5098   17.0507 O   0  0  0  0  0  0  0  0  0  0  0  0
   15.7462   21.6563   19.7616 H   0  0  0  0  0  0  0  0  0  0  0  0
   17.7573   21.8319   18.6905 O   0  0  0  0  0  0  0  0  0  0  0  0
   17.6422   24.2142   19.2662 C   0  0  0  0  0  0  0  0  0  0  0  0
   19.3551   23.5719   20.8570 O   0  0  0  0  0  0  0  0  0  0  0  0
   17.3678   22.7714   19.7039 C   0  0  0  0  0  0  0  0  0  0  0  0
   18.3396   22.5346   20.8839 C   0  0  0  0  0  0  0  0  0  0  0  0
   19.0659   24.4592   19.7677 C   0  0  0  0  0  0  0  0  0  0  0  0
   19.9419   24.2286   18.6629 O   0  0  0  0  0  0  0  0  0  0  0  0
   19.2631   24.6733   17.4856 C   0  0  0  0  0  0  0  0  0  0  0  0
   17.7729   24.3740   17.7357 C   0  0  0  0  0  0  0  0  0  0  0  0
   13.6714   21.4621   17.7315 C   0  0  0  0  0  0  0  0  0  0  0  0
   13.2715   22.5099   18.5953 O   0  0  0  0  0  0  0  0  0  0  0  0
   12.7261   22.1483   19.3113 H   0  0  0  0  0  0  0  0  0  0  0  0
   12.4257   20.7990   17.0865 C   0  0  0  0  0  0  0  0  0  0  0  0
   12.5653   20.8302   15.6125 N   0  0  0  0  0  0  0  0  0  0  0  0
   11.0604   20.7833   14.8126 S   0  0  0  0  0  0  0  0  0  0  0  0
   10.7658   22.1299   14.2374 O   0  0  0  0  0  0  0  0  0  0  0  0
   10.0070   20.4271   15.8145 O   0  0  0  0  0  0  0  0  0  0  0  0
   11.0754   19.5834   13.5422 C   0  0  0  0  0  0  0  0  0  0  0  0
   10.1931   19.6954   12.4544 C   0  0  0  0  0  0  0  0  0  0  0  0
   10.2184   18.7372   11.4242 C   0  0  0  0  0  0  0  0  0  0  0  0
   11.1206   17.6648   11.4699 C   0  0  0  0  0  0  0  0  0  0  0  0
   11.9998   17.5515   12.5669 C   0  0  0  0  0  0  0  0  0  0  0  0
   11.9772   18.5091   13.5993 C   0  0  0  0  0  0  0  0  0  0  0  0
   11.1357   16.7249   10.4299 O   0  0  0  0  0  0  0  0  0  0  0  0
   10.2703   16.9970    9.3136 C   0  0  0  0  0  0  0  0  0  0  0  0
   13.3100   22.0590   15.2673 C   0  0  0  0  0  0  0  0  0  0  0  0
   14.6560   21.7616   14.5564 C   0  0  0  0  0  0  0  0  0  0  0  0
   14.4610   21.6940   13.0292 C   0  0  0  0  0  0  0  0  0  0  0  0
   15.6309   22.9086   14.8411 C   0  0  0  0  0  0  0  0  0  0  0  0
   13.7055   20.0830   19.8596 C   0  0  0  0  0  0  0  0  0  0  0  0
   12.7274   18.9399   19.6087 C   0  0  0  0  0  0  0  0  0  0  0  0
   11.3734   19.0715   19.9802 C   0  0  0  0  0  0  0  0  0  0  0  0
   10.4757   18.0108   19.7464 C   0  0  0  0  0  0  0  0  0  0  0  0
   10.9340   16.8165   19.1421 C   0  0  0  0  0  0  0  0  0  0  0  0
   12.2895   16.6907   18.7703 C   0  0  0  0  0  0  0  0  0  0  0  0
   13.1844   17.7508   19.0049 C   0  0  0  0  0  0  0  0  0  0  0  0
   10.0502   15.7675   18.9094 O   0  0  0  0  0  0  0  0  0  0  0  0
    8.8604   16.1759   18.2510 C   0  0  0  0  0  0  0  0  0  0  0  0
    9.1359   16.2347   16.4537 P   0  0  0  0  0  0  0  0  0  0  0  0
   10.2500   15.1680   16.0439 O   0  0  0  0  0  0  0  0  0  0  0  0
    9.5806   17.5995   16.0925 O   0  0  0  0  0  0  0  0  0  0  0  0
    7.7810   15.8862   15.6864 O   0  0  0  0  0  0  0  0  0  0  0  0
    9.9493   14.2777   16.2845 H   0  0  0  0  0  0  0  0  0  0  0  0
    8.8972   18.2398   16.3454 H   0  0  0  0  0  0  0  0  0  0  0  0
  7 14  1  0  0  0
  7 11  1  0  0  0
  7  9  1  0  0  0
  8 11  1  0  0  0
  8 10  1  0  0  0
  9  6  1  0  0  0
  9 10  1  0  0  0
  6  2  1  0  0  0
  2  3  1  0  0  0
  2  4  2  0  0  0
  3  1  1  0  0  0
  1 35  1  0  0  0
  1 15  1  0  0  0
 15 18  1  0  0  0
 15 16  1  0  0  0
 18 19  1  0  0  0
 19 20  1  0  0  0
 19 31  1  0  0  0
 31 32  1  0  0  0
 32 33  1  0  0  0
 32 34  1  0  0  0
 20 21  2  0  0  0
 20 23  1  0  0  0
 20 22  2  0  0  0
 23 24  2  0  0  0
 23 28  1  0  0  0
 24 25  1  0  0  0
 25 26  2  0  0  0
 26 29  1  0  0  0
 26 27  1  0  0  0
 29 30  1  0  0  0
 27 28  2  0  0  0
 35 36  1  0  0  0
 36 37  2  0  0  0
 36 41  1  0  0  0
 37 38  1  0  0  0
 38 39  2  0  0  0
 39 42  1  0  0  0
 39 40  1  0  0  0
 42 43  1  0  0  0
 43 44  1  0  0  0
 44 47  2  0  0  0
 44 45  1  0  0  0
 44 46  1  0  0  0
 40 41  2  0  0  0
 11 12  1  0  0  0
 12 13  1  0  0  0
 13 14  1  0  0  0
  3  5  1  0  0  0
 16 17  1  0  0  0
 45 48  1  0  0  0
 46 49  1  0  0  0
M  END
> <minimizedAffinity>
-8.23851

$$$$
2I4D_QFI_B_300


 49 52  0  0  0  0  0  0  0  0999 V2000
   14.6275   21.5244   15.9507 C   0  0  0  0  0  0  0  0  0  0  0  0
   14.0801   20.2206   17.9314 C   0  0  0  0  0  0  0  0  0  0  0  0
   13.7161   21.1121   16.9875 N   0  0  0  0  0  0  0  0  0  0  0  0
   15.1728   19.6730   18.0126 O   0  0  0  0  0  0  0  0  0  0  0  0
   12.8071   21.4896   17.0073 H   0  0  0  0  0  0  0  0  0  0  0  0
   13.0353   20.0286   18.7497 O   0  0  0  0  0  0  0  0  0  0  0  0
   11.8218   17.8964   18.7180 C   0  0  0  0  0  0  0  0  0  0  0  0
   10.9650   18.7332   20.8258 O   0  0  0  0  0  0  0  0  0  0  0  0
   12.9183   18.7416   19.3752 C   0  0  0  0  0  0  0  0  0  0  0  0
   12.3879   19.0207   20.8012 C   0  0  0  0  0  0  0  0  0  0  0  0
   10.5771   18.2604   19.5282 C   0  0  0  0  0  0  0  0  0  0  0  0
    9.8825   19.2698   18.7935 O   0  0  0  0  0  0  0  0  0  0  0  0
   10.0559   18.9761   17.4048 C   0  0  0  0  0  0  0  0  0  0  0  0
   11.4643   18.3628   17.2899 C   0  0  0  0  0  0  0  0  0  0  0  0
   15.4603   22.6683   16.5703 C   0  0  0  0  0  0  0  0  0  0  0  0
   14.8323   23.8858   16.2133 O   0  0  0  0  0  0  0  0  0  0  0  0
   14.8102   23.9670   15.2470 H   0  0  0  0  0  0  0  0  0  0  0  0
   16.9264   22.6566   16.0624 C   0  0  0  0  0  0  0  0  0  0  0  0
   17.7464   23.5422   16.9204 N   0  0  0  0  0  0  0  0  0  0  0  0
   17.7334   25.1620   16.3884 S   0  0  0  0  0  0  0  0  0  0  0  0
   16.8629   25.9710   17.2931 O   0  0  0  0  0  0  0  0  0  0  0  0
   17.1775   25.1955   14.9992 O   0  0  0  0  0  0  0  0  0  0  0  0
   19.3528   25.8191   16.3760 C   0  0  0  0  0  0  0  0  0  0  0  0
   19.8894   26.3967   17.5390 C   0  0  0  0  0  0  0  0  0  0  0  0
   21.1996   26.9101   17.5315 C   0  0  0  0  0  0  0  0  0  0  0  0
   21.9820   26.8510   16.3694 C   0  0  0  0  0  0  0  0  0  0  0  0
   21.4374   26.2770   15.2018 C   0  0  0  0  0  0  0  0  0  0  0  0
   20.1267   25.7619   15.2062 C   0  0  0  0  0  0  0  0  0  0  0  0
   23.2877   27.3608   16.3844 O   0  0  0  0  0  0  0  0  0  0  0  0
   23.4345   28.7452   16.0223 C   0  0  0  0  0  0  0  0  0  0  0  0
   17.2186   23.4330   18.2964 C   0  0  0  0  0  0  0  0  0  0  0  0
   18.3183   23.0790   19.3313 C   0  0  0  0  0  0  0  0  0  0  0  0
   18.4176   24.1710   20.4143 C   0  0  0  0  0  0  0  0  0  0  0  0
   17.9351   21.7730   20.0347 C   0  0  0  0  0  0  0  0  0  0  0  0
   13.8387   22.0417   14.7237 C   0  0  0  0  0  0  0  0  0  0  0  0
   12.6884   21.1080   14.3614 C   0  0  0  0  0  0  0  0  0  0  0  0
   11.3541   21.5126   14.5724 C   0  0  0  0  0  0  0  0  0  0  0  0
   10.2963   20.6442   14.2363 C   0  0  0  0  0  0  0  0  0  0  0  0
   10.5745   19.3690   13.6907 C   0  0  0  0  0  0  0  0  0  0  0  0
   11.9114   18.9697   13.4795 C   0  0  0  0  0  0  0  0  0  0  0  0
   12.9662   19.8381   13.8160 C   0  0  0  0  0  0  0  0  0  0  0  0
    9.5325   18.5094   13.3574 O   0  0  0  0  0  0  0  0  0  0  0  0
    9.9793   17.2687   12.8310 C   0  0  0  0  0  0  0  0  0  0  0  0
    9.5715   15.9230   13.9851 P   0  0  0  0  0  0  0  0  0  0  0  0
   10.6457   15.8803   15.1646 O   0  0  0  0  0  0  0  0  0  0  0  0
    9.5846   14.6453   13.2381 O   0  0  0  0  0  0  0  0  0  0  0  0
    8.1253   16.1679   14.6133 O   0  0  0  0  0  0  0  0  0  0  0  0
   10.6293   16.7213   15.6476 H   0  0  0  0  0  0  0  0  0  0  0  0
    8.9289   14.6814   12.5242 H   0  0  0  0  0  0  0  0  0  0  0  0
  7 14  1  0  0  0
  7 11  1  0  0  0
  7  9  1  0  0  0
  8 11  1  0  0  0
  8 10  1  0  0  0
  9  6  1  0  0  0
  9 10  1  0  0  0
  6  2  1  0  0  0
  2  3  1  0  0  0
  2  4  2  0  0  0
  3  1  1  0  0  0
  1 35  1  0  0  0
  1 15  1  0  0  0
 15 18  1  0  0  0
 15 16  1  0  0  0
 18 19  1  0  0  0
 19 20  1  0  0  0
 19 31  1  0  0  0
 31 32  1  0  0  0
 32 33  1  0  0  0
 32 34  1  0  0  0
 20 21  2  0  0  0
 20 23  1  0  0  0
 20 22  2  0  0  0
 23 24  2  0  0  0
 23 28  1  0  0  0
 24 25  1  0  0  0
 25 26  2  0  0  0
 26 29  1  0  0  0
 26 27  1  0  0  0
 29 30  1  0  0  0
 27 28  2  0  0  0
 35 36  1  0  0  0
 36 37  2  0  0  0
 36 41  1  0  0  0
 37 38  1  0  0  0
 38 39  2  0  0  0
 39 42  1  0  0  0
 39 40  1  0  0  0
 42 43  1  0  0  0
 43 44  1  0  0  0
 44 47  2  0  0  0
 44 45  1  0  0  0
 44 46  1  0  0  0
 40 41  2  0  0  0
 11 12  1  0  0  0
 12 13  1  0  0  0
 13 14  1  0  0  0
  3  5  1  0  0  0
 16 17  1  0  0  0
 45 48  1  0  0  0
 46 49  1  0  0  0
M  END
> <minimizedAffinity>
-8.21128

$$$$
2I4D_QFI_B_300


 49 52  0  0  0  0  0  0  0  0999 V2000
   21.1671   25.6289   19.9141 C   0  0  0  0  0  0  0  0  0  0  0  0
   23.4324   24.9157   20.4459 C   0  0  0  0  0  0  0  0  0  0  0  0
   22.2659   25.4708   20.8324 N   0  0  0  0  0  0  0  0  0  0  0  0
   23.6840   24.4907   19.3250 O   0  0  0  0  0  0  0  0  0  0  0  0
   22.1628   25.7750   21.7631 H   0  0  0  0  0  0  0  0  0  0  0  0
   24.2564   24.8962   21.5037 O   0  0  0  0  0  0  0  0  0  0  0  0
   25.2068   26.7420   22.8113 C   0  0  0  0  0  0  0  0  0  0  0  0
   24.3629   28.0524   20.9544 O   0  0  0  0  0  0  0  0  0  0  0  0
   25.2970   25.8845   21.5443 C   0  0  0  0  0  0  0  0  0  0  0  0
   24.9815   26.8659   20.3909 C   0  0  0  0  0  0  0  0  0  0  0  0
   24.3031   27.8973   22.3792 C   0  0  0  0  0  0  0  0  0  0  0  0
   22.9801   27.5753   22.8118 O   0  0  0  0  0  0  0  0  0  0  0  0
   23.0999   26.8811   24.0563 C   0  0  0  0  0  0  0  0  0  0  0  0
   24.4052   26.0705   23.9477 C   0  0  0  0  0  0  0  0  0  0  0  0
   21.4770   26.9199   19.1249 C   0  0  0  0  0  0  0  0  0  0  0  0
   21.4556   27.9922   20.0489 O   0  0  0  0  0  0  0  0  0  0  0  0
   20.5785   28.0477   20.4595 H   0  0  0  0  0  0  0  0  0  0  0  0
   20.4426   27.1695   17.9956 C   0  0  0  0  0  0  0  0  0  0  0  0
   21.1278   27.1052   16.6843 N   0  0  0  0  0  0  0  0  0  0  0  0
   20.0339   27.0356   15.3784 S   0  0  0  0  0  0  0  0  0  0  0  0
   20.7973   26.8867   14.1033 O   0  0  0  0  0  0  0  0  0  0  0  0
   19.2565   28.3142   15.3484 O   0  0  0  0  0  0  0  0  0  0  0  0
   18.9293   25.6951   15.5711 C   0  0  0  0  0  0  0  0  0  0  0  0
   17.5596   25.8653   15.3087 C   0  0  0  0  0  0  0  0  0  0  0  0
   16.6745   24.7802   15.4483 C   0  0  0  0  0  0  0  0  0  0  0  0
   17.1466   23.5220   15.8482 C   0  0  0  0  0  0  0  0  0  0  0  0
   18.5211   23.3566   16.1179 C   0  0  0  0  0  0  0  0  0  0  0  0
   19.4094   24.4404   15.9786 C   0  0  0  0  0  0  0  0  0  0  0  0
   16.2502   22.4515   15.9740 O   0  0  0  0  0  0  0  0  0  0  0  0
   15.2191   22.3641   14.9749 C   0  0  0  0  0  0  0  0  0  0  0  0
   21.9971   28.2959   16.5836 C   0  0  0  0  0  0  0  0  0  0  0  0
   23.4049   27.9619   16.0249 C   0  0  0  0  0  0  0  0  0  0  0  0
   24.4959   28.7049   16.8203 C   0  0  0  0  0  0  0  0  0  0  0  0
   23.6612   26.4607   16.1924 C   0  0  0  0  0  0  0  0  0  0  0  0
   19.8397   25.7852   20.6944 C   0  0  0  0  0  0  0  0  0  0  0  0
   18.8678   24.6521   20.3815 C   0  0  0  0  0  0  0  0  0  0  0  0
   19.0676   23.3728   20.9402 C   0  0  0  0  0  0  0  0  0  0  0  0
   18.1662   22.3303   20.6458 C   0  0  0  0  0  0  0  0  0  0  0  0
   17.0652   22.5681   19.7899 C   0  0  0  0  0  0  0  0  0  0  0  0
   16.8685   23.8507   19.2352 C   0  0  0  0  0  0  0  0  0  0  0  0
   17.7698   24.8901   19.5301 C   0  0  0  0  0  0  0  0  0  0  0  0
   16.1732   21.5412   19.4976 O   0  0  0  0  0  0  0  0  0  0  0  0
   14.8912   22.0100   19.1069 C   0  0  0  0  0  0  0  0  0  0  0  0
   13.8300   20.6046   18.6507 P   0  0  0  0  0  0  0  0  0  0  0  0
   12.5364   21.1335   17.8801 O   0  0  0  0  0  0  0  0  0  0  0  0
   13.4316   19.8974   19.8885 O   0  0  0  0  0  0  0  0  0  0  0  0
   14.6302   19.6102   17.6931 O   0  0  0  0  0  0  0  0  0  0  0  0
   12.8080   21.5949   17.0713 H   0  0  0  0  0  0  0  0  0  0  0  0
   14.2241   19.5802   20.3490 H   0  0  0  0  0  0  0  0  0  0  0  0
  7 14  1  0  0  0
  7 11  1  0  0  0
  7  9  1  0  0  0
  8 11  1  0  0  0
  8 10  1  0  0  0
  9  6  1  0  0  0
  9 10  1  0  0  0
  6  2  1  0  0  0
  2  3  1  0  0  0
  2  4  2  0  0  0
  3  1  1  0  0  0
  1 35  1  0  0  0
  1 15  1  0  0  0
 15 18  1  0  0  0
 15 16  1  0  0  0
 18 19  1  0  0  0
 19 20  1  0  0  0
 19 31  1  0  0  0
 31 32  1  0  0  0
 32 33  1  0  0  0
 32 34  1  0  0  0
 20 21  2  0  0  0
 20 23  1  0  0  0
 20 22  2  0  0  0
 23 24  2  0  0  0
 23 28  1  0  0  0
 24 25  1  0  0  0
 25 26  2  0  0  0
 26 29  1  0  0  0
 26 27  1  0  0  0
 29 30  1  0  0  0
 27 28  2  0  0  0
 35 36  1  0  0  0
 36 37  2  0  0  0
 36 41  1  0  0  0
 37 38  1  0  0  0
 38 39  2  0  0  0
 39 42  1  0  0  0
 39 40  1  0  0  0
 42 43  1  0  0  0
 43 44  1  0  0  0
 44 47  2  0  0  0
 44 45  1  0  0  0
 44 46  1  0  0  0
 40 41  2  0  0  0
 11 12  1  0  0  0
 12 13  1  0  0  0
 13 14  1  0  0  0
  3  5  1  0  0  0
 16 17  1  0  0  0
 45 48  1  0  0  0
 46 49  1  0  0  0
M  END
> <minimizedAffinity>
-8.11380

$$$$
2I4D_QFI_B_300


 49 52  0  0  0  0  0  0  0  0999 V2000
   15.9465   21.4566   17.9954 C   0  0  0  0  0  0  0  0  0  0  0  0
   13.8283   21.1689   19.1587 C   0  0  0  0  0  0  0  0  0  0  0  0
   14.7366   20.7232   18.2674 N   0  0  0  0  0  0  0  0  0  0  0  0
   13.9212   22.1959   19.8197 O   0  0  0  0  0  0  0  0  0  0  0  0
   14.5693   19.8776   17.7918 H   0  0  0  0  0  0  0  0  0  0  0  0
   12.8203   20.2857   19.2050 O   0  0  0  0  0  0  0  0  0  0  0  0
   12.1873   17.9260   18.9787 C   0  0  0  0  0  0  0  0  0  0  0  0
   11.5358   18.2225   21.2949 O   0  0  0  0  0  0  0  0  0  0  0  0
   13.1383   18.9465   19.6133 C   0  0  0  0  0  0  0  0  0  0  0  0
   12.8157   18.8867   21.1250 C   0  0  0  0  0  0  0  0  0  0  0  0
   11.0545   17.8315   20.0014 C   0  0  0  0  0  0  0  0  0  0  0  0
   10.0129   18.6993   19.5504 O   0  0  0  0  0  0  0  0  0  0  0  0
   10.0057   18.6434   18.1216 C   0  0  0  0  0  0  0  0  0  0  0  0
   11.4791   18.4559   17.7128 C   0  0  0  0  0  0  0  0  0  0  0  0
   16.4010   20.9897   16.5950 C   0  0  0  0  0  0  0  0  0  0  0  0
   17.8164   21.0156   16.5826 O   0  0  0  0  0  0  0  0  0  0  0  0
   18.1247   21.9188   16.7558 H   0  0  0  0  0  0  0  0  0  0  0  0
   15.8419   21.9024   15.4717 C   0  0  0  0  0  0  0  0  0  0  0  0
   14.4344   22.2458   15.7781 N   0  0  0  0  0  0  0  0  0  0  0  0
   14.2293   23.8991   16.1404 S   0  0  0  0  0  0  0  0  0  0  0  0
   13.6111   24.0343   17.4933 O   0  0  0  0  0  0  0  0  0  0  0  0
   13.3182   24.4953   15.1134 O   0  0  0  0  0  0  0  0  0  0  0  0
   15.7645   24.7331   16.1011 C   0  0  0  0  0  0  0  0  0  0  0  0
   16.4259   25.0519   17.2990 C   0  0  0  0  0  0  0  0  0  0  0  0
   17.6700   25.7086   17.2647 C   0  0  0  0  0  0  0  0  0  0  0  0
   18.2623   26.0503   16.0406 C   0  0  0  0  0  0  0  0  0  0  0  0
   17.5921   25.7353   14.8402 C   0  0  0  0  0  0  0  0  0  0  0  0
   16.3472   25.0777   14.8713 C   0  0  0  0  0  0  0  0  0  0  0  0
   19.5058   26.6973   16.0272 O   0  0  0  0  0  0  0  0  0  0  0  0
   20.4900   26.1659   15.1226 C   0  0  0  0  0  0  0  0  0  0  0  0
   13.6216   21.8558   14.6072 C   0  0  0  0  0  0  0  0  0  0  0  0
   12.6100   20.7259   14.9321 C   0  0  0  0  0  0  0  0  0  0  0  0
   11.1637   21.2530   14.8580 C   0  0  0  0  0  0  0  0  0  0  0  0
   12.7468   19.6206   13.8801 C   0  0  0  0  0  0  0  0  0  0  0  0
   17.0259   21.1123   19.0499 C   0  0  0  0  0  0  0  0  0  0  0  0
   17.7280   22.3649   19.5641 C   0  0  0  0  0  0  0  0  0  0  0  0
   17.0566   23.2454   20.4373 C   0  0  0  0  0  0  0  0  0  0  0  0
   17.7112   24.4014   20.9076 C   0  0  0  0  0  0  0  0  0  0  0  0
   19.0381   24.6772   20.5018 C   0  0  0  0  0  0  0  0  0  0  0  0
   19.7062   23.7917   19.6296 C   0  0  0  0  0  0  0  0  0  0  0  0
   19.0509   22.6382   19.1609 C   0  0  0  0  0  0  0  0  0  0  0  0
   19.6873   25.8174   20.9646 O   0  0  0  0  0  0  0  0  0  0  0  0
   21.0399   25.9001   20.5408 C   0  0  0  0  0  0  0  0  0  0  0  0
   21.7274   27.5269   20.9770 P   0  0  0  0  0  0  0  0  0  0  0  0
   20.5564   28.6098   21.0331 O   0  0  0  0  0  0  0  0  0  0  0  0
   22.7224   27.9059   19.9487 O   0  0  0  0  0  0  0  0  0  0  0  0
   22.4297   27.4521   22.4078 O   0  0  0  0  0  0  0  0  0  0  0  0
   19.9103   28.3525   21.7092 H   0  0  0  0  0  0  0  0  0  0  0  0
   23.4292   27.2421   19.9226 H   0  0  0  0  0  0  0  0  0  0  0  0
  7 14  1  0  0  0
  7 11  1  0  0  0
  7  9  1  0  0  0
  8 11  1  0  0  0
  8 10  1  0  0  0
  9  6  1  0  0  0
  9 10  1  0  0  0
  6  2  1  0  0  0
  2  3  1  0  0  0
  2  4  2  0  0  0
  3  1  1  0  0  0
  1 35  1  0  0  0
  1 15  1  0  0  0
 15 18  1  0  0  0
 15 16  1  0  0  0
 18 19  1  0  0  0
 19 20  1  0  0  0
 19 31  1  0  0  0
 31 32  1  0  0  0
 32 33  1  0  0  0
 32 34  1  0  0  0
 20 21  2  0  0  0
 20 23  1  0  0  0
 20 22  2  0  0  0
 23 24  2  0  0  0
 23 28  1  0  0  0
 24 25  1  0  0  0
 25 26  2  0  0  0
 26 29  1  0  0  0
 26 27  1  0  0  0
 29 30  1  0  0  0
 27 28  2  0  0  0
 35 36  1  0  0  0
 36 37  2  0  0  0
 36 41  1  0  0  0
 37 38  1  0  0  0
 38 39  2  0  0  0
 39 42  1  0  0  0
 39 40  1  0  0  0
 42 43  1  0  0  0
 43 44  1  0  0  0
 44 47  2  0  0  0
 44 45  1  0  0  0
 44 46  1  0  0  0
 40 41  2  0  0  0
 11 12  1  0  0  0
 12 13  1  0  0  0
 13 14  1  0  0  0
  3  5  1  0  0  0
 16 17  1  0  0  0
 45 48  1  0  0  0
 46 49  1  0  0  0
M  END
> <minimizedAffinity>
-8.05388

$$$$
2I4D_QFI_B_300


 49 52  0  0  0  0  0  0  0  0999 V2000
   10.7601   19.8191   14.5372 C   0  0  0  0  0  0  0  0  0  0  0  0
   10.3677   19.9354   16.9362 C   0  0  0  0  0  0  0  0  0  0  0  0
   11.1795   19.6331   15.9029 N   0  0  0  0  0  0  0  0  0  0  0  0
    9.2345   20.3911   16.8442 O   0  0  0  0  0  0  0  0  0  0  0  0
   12.0791   19.2773   16.0859 H   0  0  0  0  0  0  0  0  0  0  0  0
   11.0231   19.6663   18.0748 O   0  0  0  0  0  0  0  0  0  0  0  0
   12.8784   18.2983   18.9154 C   0  0  0  0  0  0  0  0  0  0  0  0
   13.5428   20.4055   19.9130 O   0  0  0  0  0  0  0  0  0  0  0  0
   12.4357   19.4282   17.9794 C   0  0  0  0  0  0  0  0  0  0  0  0
   13.1094   20.6948   18.5579 C   0  0  0  0  0  0  0  0  0  0  0  0
   13.2208   19.0393   20.2084 C   0  0  0  0  0  0  0  0  0  0  0  0
   12.0752   18.9471   21.0570 O   0  0  0  0  0  0  0  0  0  0  0  0
   11.4821   17.6662   20.8283 C   0  0  0  0  0  0  0  0  0  0  0  0
   11.7219   17.3656   19.3367 C   0  0  0  0  0  0  0  0  0  0  0  0
   10.1871   18.4540   14.0966 C   0  0  0  0  0  0  0  0  0  0  0  0
   11.0258   17.4514   14.6402 O   0  0  0  0  0  0  0  0  0  0  0  0
   11.9277   17.5660   14.3020 H   0  0  0  0  0  0  0  0  0  0  0  0
   10.1317   18.3219   12.5516 C   0  0  0  0  0  0  0  0  0  0  0  0
   10.0567   16.8884   12.1875 N   0  0  0  0  0  0  0  0  0  0  0  0
    8.4783   16.2599   12.3303 S   0  0  0  0  0  0  0  0  0  0  0  0
    8.1227   15.5309   11.0762 O   0  0  0  0  0  0  0  0  0  0  0  0
    7.5335   17.4038   12.5278 O   0  0  0  0  0  0  0  0  0  0  0  0
    8.3673   15.1791   13.6992 C   0  0  0  0  0  0  0  0  0  0  0  0
    7.2577   15.2399   14.5589 C   0  0  0  0  0  0  0  0  0  0  0  0
    7.1623   14.3574   15.6509 C   0  0  0  0  0  0  0  0  0  0  0  0
    8.1680   13.4108   15.8925 C   0  0  0  0  0  0  0  0  0  0  0  0
    9.2840   13.3575   15.0317 C   0  0  0  0  0  0  0  0  0  0  0  0
    9.3821   14.2389   13.9378 C   0  0  0  0  0  0  0  0  0  0  0  0
    8.0508   12.5352   16.9810 O   0  0  0  0  0  0  0  0  0  0  0  0
    8.1546   13.1271   18.2879 C   0  0  0  0  0  0  0  0  0  0  0  0
   10.5540   16.7600   10.8019 C   0  0  0  0  0  0  0  0  0  0  0  0
   11.5798   15.6080   10.6401 C   0  0  0  0  0  0  0  0  0  0  0  0
   12.0506   15.5007    9.1766 C   0  0  0  0  0  0  0  0  0  0  0  0
   12.8132   15.9191   11.4940 C   0  0  0  0  0  0  0  0  0  0  0  0
   11.9736   20.1991   13.6549 C   0  0  0  0  0  0  0  0  0  0  0  0
   12.8163   21.2941   14.3009 C   0  0  0  0  0  0  0  0  0  0  0  0
   12.2134   22.4988   14.7182 C   0  0  0  0  0  0  0  0  0  0  0  0
   12.9984   23.5065   15.3133 C   0  0  0  0  0  0  0  0  0  0  0  0
   14.3882   23.3091   15.4889 C   0  0  0  0  0  0  0  0  0  0  0  0
   14.9862   22.1010   15.0716 C   0  0  0  0  0  0  0  0  0  0  0  0
   14.2008   21.0961   14.4773 C   0  0  0  0  0  0  0  0  0  0  0  0
   15.1660   24.3019   16.0765 O   0  0  0  0  0  0  0  0  0  0  0  0
   16.2721   23.7873   16.8030 C   0  0  0  0  0  0  0  0  0  0  0  0
   16.4493   24.6816   18.3772 P   0  0  0  0  0  0  0  0  0  0  0  0
   15.1661   25.5978   18.6243 O   0  0  0  0  0  0  0  0  0  0  0  0
   17.6671   25.5199   18.3051 O   0  0  0  0  0  0  0  0  0  0  0  0
   16.5793   23.6408   19.5797 O   0  0  0  0  0  0  0  0  0  0  0  0
   14.3742   25.0395   18.6700 H   0  0  0  0  0  0  0  0  0  0  0  0
   18.4406   24.9543   18.1549 H   0  0  0  0  0  0  0  0  0  0  0  0
  7 14  1  0  0  0
  7 11  1  0  0  0
  7  9  1  0  0  0
  8 11  1  0  0  0
  8 10  1  0  0  0
  9  6  1  0  0  0
  9 10  1  0  0  0
  6  2  1  0  0  0
  2  3  1  0  0  0
  2  4  2  0  0  0
  3  1  1  0  0  0
  1 35  1  0  0  0
  1 15  1  0  0  0
 15 18  1  0  0  0
 15 16  1  0  0  0
 18 19  1  0  0  0
 19 20  1  0  0  0
 19 31  1  0  0  0
 31 32  1  0  0  0
 32 33  1  0  0  0
 32 34  1  0  0  0
 20 21  2  0  0  0
 20 23  1  0  0  0
 20 22  2  0  0  0
 23 24  2  0  0  0
 23 28  1  0  0  0
 24 25  1  0  0  0
 25 26  2  0  0  0
 26 29  1  0  0  0
 26 27  1  0  0  0
 29 30  1  0  0  0
 27 28  2  0  0  0
 35 36  1  0  0  0
 36 37  2  0  0  0
 36 41  1  0  0  0
 37 38  1  0  0  0
 38 39  2  0  0  0
 39 42  1  0  0  0
 39 40  1  0  0  0
 42 43  1  0  0  0
 43 44  1  0  0  0
 44 47  2  0  0  0
 44 45  1  0  0  0
 44 46  1  0  0  0
 40 41  2  0  0  0
 11 12  1  0  0  0
 12 13  1  0  0  0
 13 14  1  0  0  0
  3  5  1  0  0  0
 16 17  1  0  0  0
 45 48  1  0  0  0
 46 49  1  0  0  0
M  END
> <minimizedAffinity>
-7.99621

$$$$
2I4D_QFI_B_300


 49 52  0  0  0  0  0  0  0  0999 V2000
   17.8374   23.2606   18.6347 C   0  0  0  0  0  0  0  0  0  0  0  0
   18.6528   24.4420   16.6695 C   0  0  0  0  0  0  0  0  0  0  0  0
   18.1386   24.4721   17.9156 N   0  0  0  0  0  0  0  0  0  0  0  0
   18.9219   23.4310   16.0325 O   0  0  0  0  0  0  0  0  0  0  0  0
   17.9650   25.3416   18.3436 H   0  0  0  0  0  0  0  0  0  0  0  0
   18.8318   25.7067   16.2609 O   0  0  0  0  0  0  0  0  0  0  0  0
   20.6498   26.6558   14.9140 C   0  0  0  0  0  0  0  0  0  0  0  0
   18.9064   28.2067   14.2563 O   0  0  0  0  0  0  0  0  0  0  0  0
   19.3150   25.9028   14.9233 C   0  0  0  0  0  0  0  0  0  0  0  0
   18.3158   26.8804   14.2610 C   0  0  0  0  0  0  0  0  0  0  0  0
   20.2162   28.1201   14.8346 C   0  0  0  0  0  0  0  0  0  0  0  0
   20.2302   28.6313   16.1686 O   0  0  0  0  0  0  0  0  0  0  0  0
   21.3175   28.0015   16.8510 C   0  0  0  0  0  0  0  0  0  0  0  0
   21.4026   26.5813   16.2603 C   0  0  0  0  0  0  0  0  0  0  0  0
   16.3200   23.0410   18.4474 C   0  0  0  0  0  0  0  0  0  0  0  0
   15.7560   22.8858   19.7365 O   0  0  0  0  0  0  0  0  0  0  0  0
   16.1581   22.1199   20.1753 H   0  0  0  0  0  0  0  0  0  0  0  0
   16.0197   21.7896   17.5806 C   0  0  0  0  0  0  0  0  0  0  0  0
   14.5927   21.8019   17.1850 N   0  0  0  0  0  0  0  0  0  0  0  0
   14.3710   22.2429   15.5531 S   0  0  0  0  0  0  0  0  0  0  0  0
   15.6136   21.9313   14.7852 O   0  0  0  0  0  0  0  0  0  0  0  0
   14.1048   23.7146   15.4963 O   0  0  0  0  0  0  0  0  0  0  0  0
   13.0137   21.3856   14.8625 C   0  0  0  0  0  0  0  0  0  0  0  0
   13.2160   20.1719   14.1841 C   0  0  0  0  0  0  0  0  0  0  0  0
   12.1197   19.4748   13.6434 C   0  0  0  0  0  0  0  0  0  0  0  0
   10.8184   19.9800   13.7751 C   0  0  0  0  0  0  0  0  0  0  0  0
   10.6197   21.2023   14.4503 C   0  0  0  0  0  0  0  0  0  0  0  0
   11.7148   21.9020   14.9930 C   0  0  0  0  0  0  0  0  0  0  0  0
    9.7385   19.2668   13.2362 O   0  0  0  0  0  0  0  0  0  0  0  0
    9.8186   18.9536   11.8346 C   0  0  0  0  0  0  0  0  0  0  0  0
   14.0523   20.4516   17.4464 C   0  0  0  0  0  0  0  0  0  0  0  0
   12.8841   20.4632   18.4666 C   0  0  0  0  0  0  0  0  0  0  0  0
   11.6706   19.6916   17.9125 C   0  0  0  0  0  0  0  0  0  0  0  0
   13.3346   19.7477   19.7442 C   0  0  0  0  0  0  0  0  0  0  0  0
   18.1707   23.4360   20.1359 C   0  0  0  0  0  0  0  0  0  0  0  0
   19.4716   24.2068   20.3358 C   0  0  0  0  0  0  0  0  0  0  0  0
   20.6531   23.7809   19.6944 C   0  0  0  0  0  0  0  0  0  0  0  0
   21.8516   24.4973   19.8846 C   0  0  0  0  0  0  0  0  0  0  0  0
   21.8680   25.6395   20.7191 C   0  0  0  0  0  0  0  0  0  0  0  0
   20.6825   26.0627   21.3569 C   0  0  0  0  0  0  0  0  0  0  0  0
   19.4869   25.3460   21.1660 C   0  0  0  0  0  0  0  0  0  0  0  0
   23.0496   26.3493   20.9086 O   0  0  0  0  0  0  0  0  0  0  0  0
   23.1405   27.5091   20.0947 C   0  0  0  0  0  0  0  0  0  0  0  0
   24.5714   27.3728   18.9796 P   0  0  0  0  0  0  0  0  0  0  0  0
   25.9139   27.2651   19.8359 O   0  0  0  0  0  0  0  0  0  0  0  0
   24.6114   28.5769   18.1197 O   0  0  0  0  0  0  0  0  0  0  0  0
   24.4305   26.0661   18.0748 O   0  0  0  0  0  0  0  0  0  0  0  0
   25.8778   26.4737   20.3955 H   0  0  0  0  0  0  0  0  0  0  0  0
   23.7918   28.6332   17.6038 H   0  0  0  0  0  0  0  0  0  0  0  0
  7 14  1  0  0  0
  7 11  1  0  0  0
  7  9  1  0  0  0
  8 11  1  0  0  0
  8 10  1  0  0  0
  9  6  1  0  0  0
  9 10  1  0  0  0
  6  2  1  0  0  0
  2  3  1  0  0  0
  2  4  2  0  0  0
  3  1  1  0  0  0
  1 35  1  0  0  0
  1 15  1  0  0  0
 15 18  1  0  0  0
 15 16  1  0  0  0
 18 19  1  0  0  0
 19 20  1  0  0  0
 19 31  1  0  0  0
 31 32  1  0  0  0
 32 33  1  0  0  0
 32 34  1  0  0  0
 20 21  2  0  0  0
 20 23  1  0  0  0
 20 22  2  0  0  0
 23 24  2  0  0  0
 23 28  1  0  0  0
 24 25  1  0  0  0
 25 26  2  0  0  0
 26 29  1  0  0  0
 26 27  1  0  0  0
 29 30  1  0  0  0
 27 28  2  0  0  0
 35 36  1  0  0  0
 36 37  2  0  0  0
 36 41  1  0  0  0
 37 38  1  0  0  0
 38 39  2  0  0  0
 39 42  1  0  0  0
 39 40  1  0  0  0
 42 43  1  0  0  0
 43 44  1  0  0  0
 44 47  2  0  0  0
 44 45  1  0  0  0
 44 46  1  0  0  0
 40 41  2  0  0  0
 11 12  1  0  0  0
 12 13  1  0  0  0
 13 14  1  0  0  0
  3  5  1  0  0  0
 16 17  1  0  0  0
 45 48  1  0  0  0
 46 49  1  0  0  0
M  END
> <minimizedAffinity>
-7.98416

$$$$
