5DUS_APR_A_201


 45 48  0  0  0  0  0  0  0  0999 V2000
    2.0265   20.8221   68.7181 O   0  0  0  0  0  0  0  0  0  0  0  0
    1.8904   22.0241   67.7085 P   0  0  0  0  0  0  0  0  0  0  0  0
    0.4026   22.3648   67.6438 O   0  0  0  0  0  0  0  0  0  0  0  0
    2.7281   23.1998   68.1893 O   0  0  0  0  0  0  0  0  0  0  0  0
    2.3934   23.5061   69.0467 H   0  0  0  0  0  0  0  0  0  0  0  0
    2.4386   21.5412   66.3298 O   0  0  0  0  0  0  0  0  0  0  0  0
    1.7641   21.1551   64.9268 P   0  0  0  0  0  0  0  0  0  0  0  0
    2.8382   20.4063   64.1373 O   0  0  0  0  0  0  0  0  0  0  0  0
    0.4404   20.4367   65.1666 O   0  0  0  0  0  0  0  0  0  0  0  0
    0.6088   19.5825   65.5940 H   0  0  0  0  0  0  0  0  0  0  0  0
    1.4401   22.5314   64.2339 O   0  0  0  0  0  0  0  0  0  0  0  0
    2.4993   23.4898   64.0399 C   0  0  0  0  0  0  0  0  0  0  0  0
    1.4904   25.1925   65.5643 O   0  0  0  0  0  0  0  0  0  0  0  0
    2.3948   26.3015   67.2804 O   0  0  0  0  0  0  0  0  0  0  0  0
    2.0554   26.3358   65.9100 C   0  0  0  0  0  0  0  0  0  0  0  0
    3.8324   27.6806   65.0221 O   0  0  0  0  0  0  0  0  0  0  0  0
    3.3396   26.3852   65.0720 C   0  0  0  0  0  0  0  0  0  0  0  0
    2.0954   26.9958   63.0360 O   0  0  0  0  0  0  0  0  0  0  0  0
    2.8099   25.8774   63.7334 C   0  0  0  0  0  0  0  0  0  0  0  0
    1.9360   24.8961   64.0716 C   0  0  0  0  0  0  0  0  0  0  0  0
    1.5849   26.2702   67.8133 H   0  0  0  0  0  0  0  0  0  0  0  0
    4.1511   27.9393   65.9010 H   0  0  0  0  0  0  0  0  0  0  0  0
    2.7318   27.6889   62.8006 H   0  0  0  0  0  0  0  0  0  0  0  0
    1.6568   19.4560   68.4604 C   0  0  0  0  0  0  0  0  0  0  0  0
    1.9704   19.2889   72.0387 C   0  0  0  0  0  0  0  0  0  0  0  0
    0.8995   18.6557   71.5910 C   0  0  0  0  0  0  0  0  0  0  0  0
    0.3214   17.7501   72.5379 O   0  0  0  0  0  0  0  0  0  0  0  0
    1.4392   17.8437   70.2785 C   0  0  0  0  0  0  0  0  0  0  0  0
    2.1547   16.6751   70.7409 O   0  0  0  0  0  0  0  0  0  0  0  0
    2.6807   19.7406   70.7140 O   0  0  0  0  0  0  0  0  0  0  0  0
    2.2980   18.7077   69.6552 C   0  0  0  0  0  0  0  0  0  0  0  0
    0.9767   17.0790   72.7852 H   0  0  0  0  0  0  0  0  0  0  0  0
    2.8675   16.9482   71.3395 H   0  0  0  0  0  0  0  0  0  0  0  0
    3.3388   22.0246   76.0972 N   0  0  0  0  0  0  0  0  0  0  0  0
    3.8280   20.8190   75.6749 C   0  0  0  0  0  0  0  0  0  0  0  0
    3.3328   20.2131   74.5360 N   0  0  0  0  0  0  0  0  0  0  0  0
    2.3379   20.8383   73.8289 C   0  0  0  0  0  0  0  0  0  0  0  0
    1.8609   22.0318   74.2495 C   0  0  0  0  0  0  0  0  0  0  0  0
    2.3554   22.6344   75.3959 C   0  0  0  0  0  0  0  0  0  0  0  0
    1.9476   23.8816   75.9467 N   0  0  0  0  0  0  0  0  0  0  0  0
    0.8866   22.4412   73.3890 N   0  0  0  0  0  0  0  0  0  0  0  0
    0.7688   21.4930   72.4223 C   0  0  0  0  0  0  0  0  0  0  0  0
    1.6529   20.4948   72.6814 N   0  0  0  0  0  0  0  0  0  0  0  0
    2.3690   24.2171   76.7708 H   0  0  0  0  0  0  0  0  0  0  0  0
    1.2442   24.4090   75.5036 H   0  0  0  0  0  0  0  0  0  0  0  0
 34 35  1  0  0  0
 34 39  2  0  0  0
 35 36  2  0  0  0
 36 37  1  0  0  0
 37 38  2  0  0  0
 37 43  1  0  0  0
 38 39  1  0  0  0
 38 41  1  0  0  0
 39 40  1  0  0  0
 41 42  2  0  0  0
 42 43  1  0  0  0
 43 25  1  0  0  0
 25 26  1  0  0  0
 25 30  1  0  0  0
 26 27  1  0  0  0
 26 28  1  0  0  0
 28 29  1  0  0  0
 28 31  1  0  0  0
 30 31  1  0  0  0
 31 24  1  0  0  0
 24  1  1  0  0  0
  1  2  1  0  0  0
  2  3  2  0  0  0
  2  4  1  0  0  0
  2  6  1  0  0  0
  6  7  1  0  0  0
  7  8  2  0  0  0
  7  9  1  0  0  0
  7 11  1  0  0  0
 11 12  1  0  0  0
 12 20  1  0  0  0
 13 15  1  0  0  0
 13 20  1  0  0  0
 14 15  1  0  0  0
 15 17  1  0  0  0
 16 17  1  0  0  0
 17 19  1  0  0  0
 18 19  1  0  0  0
 19 20  1  0  0  0
 40 44  1  0  0  0
 40 45  1  0  0  0
 27 32  1  0  0  0
 29 33  1  0  0  0
  4  5  1  0  0  0
  9 10  1  0  0  0
 14 21  1  0  0  0
 16 22  1  0  0  0
 18 23  1  0  0  0
M  END
> <minimizedAffinity>
-10.98796

$$$$
5DUS_APR_A_201


 45 48  0  0  0  0  0  0  0  0999 V2000
    0.7258   19.8310   68.2276 O   0  0  0  0  0  0  0  0  0  0  0  0
    1.0336   21.3687   68.0747 P   0  0  0  0  0  0  0  0  0  0  0  0
   -0.3189   22.0790   68.0658 O   0  0  0  0  0  0  0  0  0  0  0  0
    1.9191   21.8347   69.2211 O   0  0  0  0  0  0  0  0  0  0  0  0
    1.4483   21.7187   70.0611 H   0  0  0  0  0  0  0  0  0  0  0  0
    1.8019   21.5604   66.7304 O   0  0  0  0  0  0  0  0  0  0  0  0
    1.5488   21.0941   65.2168 P   0  0  0  0  0  0  0  0  0  0  0  0
    2.8483   20.4310   64.7595 O   0  0  0  0  0  0  0  0  0  0  0  0
    0.2712   20.2654   65.1348 O   0  0  0  0  0  0  0  0  0  0  0  0
    0.3917   19.4362   65.6234 H   0  0  0  0  0  0  0  0  0  0  0  0
    1.3050   22.4254   64.4118 O   0  0  0  0  0  0  0  0  0  0  0  0
    2.4045   23.3336   64.2016 C   0  0  0  0  0  0  0  0  0  0  0  0
    1.4530   25.1774   65.5929 O   0  0  0  0  0  0  0  0  0  0  0  0
    2.3918   26.3755   67.2288 O   0  0  0  0  0  0  0  0  0  0  0  0
    2.0576   26.3221   65.8577 C   0  0  0  0  0  0  0  0  0  0  0  0
    3.8840   27.5348   64.8840 O   0  0  0  0  0  0  0  0  0  0  0  0
    3.3451   26.2648   65.0252 C   0  0  0  0  0  0  0  0  0  0  0  0
    2.1290   26.7693   62.9436 O   0  0  0  0  0  0  0  0  0  0  0  0
    2.8012   25.6800   63.7242 C   0  0  0  0  0  0  0  0  0  0  0  0
    1.8918   24.7575   64.1281 C   0  0  0  0  0  0  0  0  0  0  0  0
    1.5799   26.4119   67.7583 H   0  0  0  0  0  0  0  0  0  0  0  0
    4.2093   27.8454   65.7434 H   0  0  0  0  0  0  0  0  0  0  0  0
    2.7904   27.4206   62.6619 H   0  0  0  0  0  0  0  0  0  0  0  0
    1.7021   18.7820   68.3522 C   0  0  0  0  0  0  0  0  0  0  0  0
    0.7698   18.5612   71.8182 C   0  0  0  0  0  0  0  0  0  0  0  0
   -0.1688   19.1192   71.0726 C   0  0  0  0  0  0  0  0  0  0  0  0
   -1.4561   19.1673   71.6984 O   0  0  0  0  0  0  0  0  0  0  0  0
   -0.2186   18.1838   69.7326 C   0  0  0  0  0  0  0  0  0  0  0  0
   -0.9462   16.9772   70.0585 O   0  0  0  0  0  0  0  0  0  0  0  0
    1.8498   18.1474   70.7572 O   0  0  0  0  0  0  0  0  0  0  0  0
    1.0888   17.8875   69.4579 C   0  0  0  0  0  0  0  0  0  0  0  0
   -1.7468   18.2664   71.9098 H   0  0  0  0  0  0  0  0  0  0  0  0
   -0.5236   16.5388   70.8136 H   0  0  0  0  0  0  0  0  0  0  0  0
    4.0522   18.7087   75.6952 N   0  0  0  0  0  0  0  0  0  0  0  0
    3.5355   17.6164   75.0542 C   0  0  0  0  0  0  0  0  0  0  0  0
    2.6450   17.7644   74.0080 N   0  0  0  0  0  0  0  0  0  0  0  0
    2.2820   19.0277   73.6170 C   0  0  0  0  0  0  0  0  0  0  0  0
    2.7990   20.1038   74.2525 C   0  0  0  0  0  0  0  0  0  0  0  0
    3.6876   19.9521   75.3057 C   0  0  0  0  0  0  0  0  0  0  0  0
    4.3049   20.9918   76.0563 N   0  0  0  0  0  0  0  0  0  0  0  0
    2.2872   21.2333   73.6872 N   0  0  0  0  0  0  0  0  0  0  0  0
    1.4523   20.8482   72.6860 C   0  0  0  0  0  0  0  0  0  0  0  0
    1.4334   19.4910   72.6326 N   0  0  0  0  0  0  0  0  0  0  0  0
    4.9242   20.7693   76.7885 H   0  0  0  0  0  0  0  0  0  0  0  0
    4.1126   21.9336   75.8433 H   0  0  0  0  0  0  0  0  0  0  0  0
 34 35  1  0  0  0
 34 39  2  0  0  0
 35 36  2  0  0  0
 36 37  1  0  0  0
 37 38  2  0  0  0
 37 43  1  0  0  0
 38 39  1  0  0  0
 38 41  1  0  0  0
 39 40  1  0  0  0
 41 42  2  0  0  0
 42 43  1  0  0  0
 43 25  1  0  0  0
 25 26  1  0  0  0
 25 30  1  0  0  0
 26 27  1  0  0  0
 26 28  1  0  0  0
 28 29  1  0  0  0
 28 31  1  0  0  0
 30 31  1  0  0  0
 31 24  1  0  0  0
 24  1  1  0  0  0
  1  2  1  0  0  0
  2  3  2  0  0  0
  2  4  1  0  0  0
  2  6  1  0  0  0
  6  7  1  0  0  0
  7  8  2  0  0  0
  7  9  1  0  0  0
  7 11  1  0  0  0
 11 12  1  0  0  0
 12 20  1  0  0  0
 13 15  1  0  0  0
 13 20  1  0  0  0
 14 15  1  0  0  0
 15 17  1  0  0  0
 16 17  1  0  0  0
 17 19  1  0  0  0
 18 19  1  0  0  0
 19 20  1  0  0  0
 40 44  1  0  0  0
 40 45  1  0  0  0
 27 32  1  0  0  0
 29 33  1  0  0  0
  4  5  1  0  0  0
  9 10  1  0  0  0
 14 21  1  0  0  0
 16 22  1  0  0  0
 18 23  1  0  0  0
M  END
> <minimizedAffinity>
-10.94395

$$$$
5DUS_APR_A_201


 45 48  0  0  0  0  0  0  0  0999 V2000
    1.7360   20.2900   68.8631 O   0  0  0  0  0  0  0  0  0  0  0  0
    1.5556   21.5331   67.9120 P   0  0  0  0  0  0  0  0  0  0  0  0
    0.0512   21.7740   67.8001 O   0  0  0  0  0  0  0  0  0  0  0  0
    2.2880   22.7357   68.4890 O   0  0  0  0  0  0  0  0  0  0  0  0
    1.8985   22.9710   69.3456 H   0  0  0  0  0  0  0  0  0  0  0  0
    2.1912   21.1650   66.5355 O   0  0  0  0  0  0  0  0  0  0  0  0
    1.6210   20.9918   65.0465 P   0  0  0  0  0  0  0  0  0  0  0  0
    2.7707   20.4124   64.2220 O   0  0  0  0  0  0  0  0  0  0  0  0
    0.3143   20.2060   65.0783 O   0  0  0  0  0  0  0  0  0  0  0  0
    0.4896   19.2990   65.3741 H   0  0  0  0  0  0  0  0  0  0  0  0
    1.2863   22.4523   64.5620 O   0  0  0  0  0  0  0  0  0  0  0  0
    2.3649   23.3529   64.2404 C   0  0  0  0  0  0  0  0  0  0  0  0
    1.4421   25.2446   65.5861 O   0  0  0  0  0  0  0  0  0  0  0  0
    2.4214   26.5137   67.1428 O   0  0  0  0  0  0  0  0  0  0  0  0
    2.0455   26.4031   65.7860 C   0  0  0  0  0  0  0  0  0  0  0  0
    3.8311   27.5881   64.7082 O   0  0  0  0  0  0  0  0  0  0  0  0
    3.3070   26.3211   64.9167 C   0  0  0  0  0  0  0  0  0  0  0  0
    2.0232   26.7335   62.8556 O   0  0  0  0  0  0  0  0  0  0  0  0
    2.7279   25.6810   63.6576 C   0  0  0  0  0  0  0  0  0  0  0  0
    1.8388   24.7693   64.1262 C   0  0  0  0  0  0  0  0  0  0  0  0
    1.6260   26.5658   67.6954 H   0  0  0  0  0  0  0  0  0  0  0  0
    4.1804   27.9350   65.5440 H   0  0  0  0  0  0  0  0  0  0  0  0
    2.6704   27.3774   62.5276 H   0  0  0  0  0  0  0  0  0  0  0  0
    0.7622   19.7925   69.7977 C   0  0  0  0  0  0  0  0  0  0  0  0
    2.2927   17.6593   72.2548 C   0  0  0  0  0  0  0  0  0  0  0  0
    0.9781   17.7216   72.3821 C   0  0  0  0  0  0  0  0  0  0  0  0
    0.4219   16.6766   73.1880 O   0  0  0  0  0  0  0  0  0  0  0  0
    0.4260   17.6157   70.8468 C   0  0  0  0  0  0  0  0  0  0  0  0
    0.4985   16.2292   70.4421 O   0  0  0  0  0  0  0  0  0  0  0  0
    2.5525   18.5069   70.9597 O   0  0  0  0  0  0  0  0  0  0  0  0
    1.2934   18.3705   70.1050 C   0  0  0  0  0  0  0  0  0  0  0  0
    0.6379   15.8161   72.7958 H   0  0  0  0  0  0  0  0  0  0  0  0
    1.4091   15.9104   70.5422 H   0  0  0  0  0  0  0  0  0  0  0  0
    2.2346   22.1986   74.5393 N   0  0  0  0  0  0  0  0  0  0  0  0
    1.4335   21.7397   73.5300 C   0  0  0  0  0  0  0  0  0  0  0  0
    1.5918   20.4634   73.0244 N   0  0  0  0  0  0  0  0  0  0  0  0
    2.5684   19.6564   73.5494 C   0  0  0  0  0  0  0  0  0  0  0  0
    3.3549   20.1147   74.5496 C   0  0  0  0  0  0  0  0  0  0  0  0
    3.1978   21.3976   75.0506 C   0  0  0  0  0  0  0  0  0  0  0  0
    3.9507   22.0024   76.0960 N   0  0  0  0  0  0  0  0  0  0  0  0
    4.2399   19.1368   74.8931 N   0  0  0  0  0  0  0  0  0  0  0  0
    3.9892   18.0608   74.1014 C   0  0  0  0  0  0  0  0  0  0  0  0
    2.9649   18.3661   73.2632 N   0  0  0  0  0  0  0  0  0  0  0  0
    3.7532   22.9259   76.3741 H   0  0  0  0  0  0  0  0  0  0  0  0
    4.6690   21.4973   76.5410 H   0  0  0  0  0  0  0  0  0  0  0  0
 34 35  1  0  0  0
 34 39  2  0  0  0
 35 36  2  0  0  0
 36 37  1  0  0  0
 37 38  2  0  0  0
 37 43  1  0  0  0
 38 39  1  0  0  0
 38 41  1  0  0  0
 39 40  1  0  0  0
 41 42  2  0  0  0
 42 43  1  0  0  0
 43 25  1  0  0  0
 25 26  1  0  0  0
 25 30  1  0  0  0
 26 27  1  0  0  0
 26 28  1  0  0  0
 28 29  1  0  0  0
 28 31  1  0  0  0
 30 31  1  0  0  0
 31 24  1  0  0  0
 24  1  1  0  0  0
  1  2  1  0  0  0
  2  3  2  0  0  0
  2  4  1  0  0  0
  2  6  1  0  0  0
  6  7  1  0  0  0
  7  8  2  0  0  0
  7  9  1  0  0  0
  7 11  1  0  0  0
 11 12  1  0  0  0
 12 20  1  0  0  0
 13 15  1  0  0  0
 13 20  1  0  0  0
 14 15  1  0  0  0
 15 17  1  0  0  0
 16 17  1  0  0  0
 17 19  1  0  0  0
 18 19  1  0  0  0
 19 20  1  0  0  0
 40 44  1  0  0  0
 40 45  1  0  0  0
 27 32  1  0  0  0
 29 33  1  0  0  0
  4  5  1  0  0  0
  9 10  1  0  0  0
 14 21  1  0  0  0
 16 22  1  0  0  0
 18 23  1  0  0  0
M  END
> <minimizedAffinity>
-10.33252

$$$$
5DUS_APR_A_201


 45 48  0  0  0  0  0  0  0  0999 V2000
   -0.7374   17.8447   70.7145 O   0  0  0  0  0  0  0  0  0  0  0  0
   -1.9749   18.4318   71.4931 P   0  0  0  0  0  0  0  0  0  0  0  0
   -3.0019   17.3043   71.5809 O   0  0  0  0  0  0  0  0  0  0  0  0
   -1.5375   18.9180   72.8670 O   0  0  0  0  0  0  0  0  0  0  0  0
   -1.2029   18.1685   73.3838 H   0  0  0  0  0  0  0  0  0  0  0  0
   -2.5106   19.6459   70.6725 O   0  0  0  0  0  0  0  0  0  0  0  0
   -2.0293   21.1621   70.4678 P   0  0  0  0  0  0  0  0  0  0  0  0
   -3.0970   21.8271   69.5986 O   0  0  0  0  0  0  0  0  0  0  0  0
   -1.7284   21.7992   71.8203 O   0  0  0  0  0  0  0  0  0  0  0  0
   -2.5493   21.8759   72.3314 H   0  0  0  0  0  0  0  0  0  0  0  0
   -0.6712   21.0591   69.6775 O   0  0  0  0  0  0  0  0  0  0  0  0
   -0.4040   21.9909   68.6106 C   0  0  0  0  0  0  0  0  0  0  0  0
    1.4152   20.3071   68.3005 O   0  0  0  0  0  0  0  0  0  0  0  0
    1.5359   18.5599   66.9128 O   0  0  0  0  0  0  0  0  0  0  0  0
    1.8935   19.9078   67.1353 C   0  0  0  0  0  0  0  0  0  0  0  0
    1.8476   20.7784   64.9004 O   0  0  0  0  0  0  0  0  0  0  0  0
    1.1743   20.7973   66.1127 C   0  0  0  0  0  0  0  0  0  0  0  0
    2.6076   22.7274   66.6482 O   0  0  0  0  0  0  0  0  0  0  0  0
    1.2391   22.1430   66.8306 C   0  0  0  0  0  0  0  0  0  0  0  0
    1.0262   21.8354   68.1349 C   0  0  0  0  0  0  0  0  0  0  0  0
    1.9890   17.9945   67.5578 H   0  0  0  0  0  0  0  0  0  0  0  0
    1.7670   19.8988   64.4995 H   0  0  0  0  0  0  0  0  0  0  0  0
    2.7454   22.9421   65.7123 H   0  0  0  0  0  0  0  0  0  0  0  0
   -0.4125   16.4506   70.5719 C   0  0  0  0  0  0  0  0  0  0  0  0
    2.3416   18.0829   72.2094 C   0  0  0  0  0  0  0  0  0  0  0  0
    1.7153   17.2261   72.9979 C   0  0  0  0  0  0  0  0  0  0  0  0
    2.4614   16.8559   74.1629 O   0  0  0  0  0  0  0  0  0  0  0  0
    1.4603   15.9231   72.0439 C   0  0  0  0  0  0  0  0  0  0  0  0
    2.7051   15.1937   71.9440 O   0  0  0  0  0  0  0  0  0  0  0  0
    1.6076   17.8850   70.8362 O   0  0  0  0  0  0  0  0  0  0  0  0
    1.1155   16.4385   70.8240 C   0  0  0  0  0  0  0  0  0  0  0  0
    3.2995   16.4482   73.8941 H   0  0  0  0  0  0  0  0  0  0  0  0
    3.3986   15.7823   71.6074 H   0  0  0  0  0  0  0  0  0  0  0  0
    3.5469   21.5280   75.7457 N   0  0  0  0  0  0  0  0  0  0  0  0
    3.9614   20.2286   75.6424 C   0  0  0  0  0  0  0  0  0  0  0  0
    3.5281   19.4271   74.6035 N   0  0  0  0  0  0  0  0  0  0  0  0
    2.6713   19.9527   73.6706 C   0  0  0  0  0  0  0  0  0  0  0  0
    2.2679   21.2393   73.7763 C   0  0  0  0  0  0  0  0  0  0  0  0
    2.6995   22.0391   74.8230 C   0  0  0  0  0  0  0  0  0  0  0  0
    2.3567   23.4013   75.0521 N   0  0  0  0  0  0  0  0  0  0  0  0
    1.4266   21.5202   72.7415 N   0  0  0  0  0  0  0  0  0  0  0  0
    1.3181   20.3962   71.9850 C   0  0  0  0  0  0  0  0  0  0  0  0
    2.0752   19.4183   72.5468 N   0  0  0  0  0  0  0  0  0  0  0  0
    2.7231   23.8765   75.8326 H   0  0  0  0  0  0  0  0  0  0  0  0
    1.7531   23.8683   74.4301 H   0  0  0  0  0  0  0  0  0  0  0  0
 34 35  1  0  0  0
 34 39  2  0  0  0
 35 36  2  0  0  0
 36 37  1  0  0  0
 37 38  2  0  0  0
 37 43  1  0  0  0
 38 39  1  0  0  0
 38 41  1  0  0  0
 39 40  1  0  0  0
 41 42  2  0  0  0
 42 43  1  0  0  0
 43 25  1  0  0  0
 25 26  1  0  0  0
 25 30  1  0  0  0
 26 27  1  0  0  0
 26 28  1  0  0  0
 28 29  1  0  0  0
 28 31  1  0  0  0
 30 31  1  0  0  0
 31 24  1  0  0  0
 24  1  1  0  0  0
  1  2  1  0  0  0
  2  3  2  0  0  0
  2  4  1  0  0  0
  2  6  1  0  0  0
  6  7  1  0  0  0
  7  8  2  0  0  0
  7  9  1  0  0  0
  7 11  1  0  0  0
 11 12  1  0  0  0
 12 20  1  0  0  0
 13 15  1  0  0  0
 13 20  1  0  0  0
 14 15  1  0  0  0
 15 17  1  0  0  0
 16 17  1  0  0  0
 17 19  1  0  0  0
 18 19  1  0  0  0
 19 20  1  0  0  0
 40 44  1  0  0  0
 40 45  1  0  0  0
 27 32  1  0  0  0
 29 33  1  0  0  0
  4  5  1  0  0  0
  9 10  1  0  0  0
 14 21  1  0  0  0
 16 22  1  0  0  0
 18 23  1  0  0  0
M  END
> <minimizedAffinity>
-9.90553

$$$$
5DUS_APR_A_201


 45 48  0  0  0  0  0  0  0  0999 V2000
    2.0561   20.1880   67.1631 O   0  0  0  0  0  0  0  0  0  0  0  0
    1.8680   20.9893   65.8196 P   0  0  0  0  0  0  0  0  0  0  0  0
    2.6549   20.2302   64.7526 O   0  0  0  0  0  0  0  0  0  0  0  0
    0.3881   21.0879   65.4797 O   0  0  0  0  0  0  0  0  0  0  0  0
    0.0295   20.1983   65.3356 H   0  0  0  0  0  0  0  0  0  0  0  0
    2.4324   22.4257   66.0488 O   0  0  0  0  0  0  0  0  0  0  0  0
    2.1040   23.6091   67.0803 P   0  0  0  0  0  0  0  0  0  0  0  0
    0.8335   23.1830   67.8165 O   0  0  0  0  0  0  0  0  0  0  0  0
    3.3349   23.9184   67.9258 O   0  0  0  0  0  0  0  0  0  0  0  0
    3.5379   23.1574   68.4919 H   0  0  0  0  0  0  0  0  0  0  0  0
    1.8150   24.8694   66.1816 O   0  0  0  0  0  0  0  0  0  0  0  0
    1.5457   24.6871   64.7772 C   0  0  0  0  0  0  0  0  0  0  0  0
    1.4894   26.0519   62.6855 O   0  0  0  0  0  0  0  0  0  0  0  0
    0.1770   27.7714   62.1256 O   0  0  0  0  0  0  0  0  0  0  0  0
    1.4307   27.3711   62.6377 C   0  0  0  0  0  0  0  0  0  0  0  0
    1.8883   29.1417   64.1901 O   0  0  0  0  0  0  0  0  0  0  0  0
    1.5383   27.8023   64.1062 C   0  0  0  0  0  0  0  0  0  0  0  0
    3.9634   27.3745   64.1484 O   0  0  0  0  0  0  0  0  0  0  0  0
    2.6297   26.8506   64.5893 C   0  0  0  0  0  0  0  0  0  0  0  0
    2.3514   25.6793   63.9634 C   0  0  0  0  0  0  0  0  0  0  0  0
    0.1055   27.5002   61.1970 H   0  0  0  0  0  0  0  0  0  0  0  0
    1.1541   29.6884   63.8692 H   0  0  0  0  0  0  0  0  0  0  0  0
    4.1487   28.2109   64.6034 H   0  0  0  0  0  0  0  0  0  0  0  0
    1.0580   19.9998   68.1817 C   0  0  0  0  0  0  0  0  0  0  0  0
    1.7185   18.4714   71.3689 C   0  0  0  0  0  0  0  0  0  0  0  0
    0.4577   18.3409   70.9928 C   0  0  0  0  0  0  0  0  0  0  0  0
   -0.2625   17.3340   71.7128 O   0  0  0  0  0  0  0  0  0  0  0  0
    0.5554   17.9514   69.4079 C   0  0  0  0  0  0  0  0  0  0  0  0
    0.9131   16.5533   69.3141 O   0  0  0  0  0  0  0  0  0  0  0  0
    2.3753   19.1749   70.1291 O   0  0  0  0  0  0  0  0  0  0  0  0
    1.5644   18.7316   68.9123 C   0  0  0  0  0  0  0  0  0  0  0  0
    0.1709   16.4752   71.5885 H   0  0  0  0  0  0  0  0  0  0  0  0
    1.7405   16.3982   69.7961 H   0  0  0  0  0  0  0  0  0  0  0  0
    4.0991   18.9637   75.8318 N   0  0  0  0  0  0  0  0  0  0  0  0
    4.1079   17.9003   74.9715 C   0  0  0  0  0  0  0  0  0  0  0  0
    3.3945   17.9401   73.7886 N   0  0  0  0  0  0  0  0  0  0  0  0
    2.6722   19.0655   73.4850 C   0  0  0  0  0  0  0  0  0  0  0  0
    2.6704   20.1149   74.3381 C   0  0  0  0  0  0  0  0  0  0  0  0
    3.3821   20.0698   75.5268 C   0  0  0  0  0  0  0  0  0  0  0  0
    3.4680   21.0970   76.5081 N   0  0  0  0  0  0  0  0  0  0  0  0
    1.8848   21.0998   73.8182 N   0  0  0  0  0  0  0  0  0  0  0  0
    1.4048   20.6551   72.6268 C   0  0  0  0  0  0  0  0  0  0  0  0
    1.8763   19.4000   72.4086 N   0  0  0  0  0  0  0  0  0  0  0  0
    4.0058   20.9576   77.3209 H   0  0  0  0  0  0  0  0  0  0  0  0
    2.9897   21.9470   76.3742 H   0  0  0  0  0  0  0  0  0  0  0  0
 34 35  1  0  0  0
 34 39  2  0  0  0
 35 36  2  0  0  0
 36 37  1  0  0  0
 37 38  2  0  0  0
 37 43  1  0  0  0
 38 39  1  0  0  0
 38 41  1  0  0  0
 39 40  1  0  0  0
 41 42  2  0  0  0
 42 43  1  0  0  0
 43 25  1  0  0  0
 25 26  1  0  0  0
 25 30  1  0  0  0
 26 27  1  0  0  0
 26 28  1  0  0  0
 28 29  1  0  0  0
 28 31  1  0  0  0
 30 31  1  0  0  0
 31 24  1  0  0  0
 24  1  1  0  0  0
  1  2  1  0  0  0
  2  3  2  0  0  0
  2  4  1  0  0  0
  2  6  1  0  0  0
  6  7  1  0  0  0
  7  8  2  0  0  0
  7  9  1  0  0  0
  7 11  1  0  0  0
 11 12  1  0  0  0
 12 20  1  0  0  0
 13 15  1  0  0  0
 13 20  1  0  0  0
 14 15  1  0  0  0
 15 17  1  0  0  0
 16 17  1  0  0  0
 17 19  1  0  0  0
 18 19  1  0  0  0
 19 20  1  0  0  0
 40 44  1  0  0  0
 40 45  1  0  0  0
 27 32  1  0  0  0
 29 33  1  0  0  0
  4  5  1  0  0  0
  9 10  1  0  0  0
 14 21  1  0  0  0
 16 22  1  0  0  0
 18 23  1  0  0  0
M  END
> <minimizedAffinity>
-9.61788

$$$$
5DUS_APR_A_201


 45 48  0  0  0  0  0  0  0  0999 V2000
    2.2814   22.6407   66.1496 O   0  0  0  0  0  0  0  0  0  0  0  0
    1.3899   21.3439   66.0719 P   0  0  0  0  0  0  0  0  0  0  0  0
    0.5648   21.4654   64.7920 O   0  0  0  0  0  0  0  0  0  0  0  0
    2.2763   20.1071   66.0680 O   0  0  0  0  0  0  0  0  0  0  0  0
    2.8397   20.1156   65.2784 H   0  0  0  0  0  0  0  0  0  0  0  0
    0.4895   21.3183   67.3459 O   0  0  0  0  0  0  0  0  0  0  0  0
    0.6662   20.7457   68.8336 P   0  0  0  0  0  0  0  0  0  0  0  0
    1.9380   21.3920   69.3834 O   0  0  0  0  0  0  0  0  0  0  0  0
   -0.6220   20.9473   69.6247 O   0  0  0  0  0  0  0  0  0  0  0  0
   -0.7789   21.8962   69.7508 H   0  0  0  0  0  0  0  0  0  0  0  0
    0.8773   19.1955   68.6551 O   0  0  0  0  0  0  0  0  0  0  0  0
    1.7099   18.4847   69.5929 C   0  0  0  0  0  0  0  0  0  0  0  0
    1.4194   16.1751   70.4999 O   0  0  0  0  0  0  0  0  0  0  0  0
    2.7427   14.9835   71.8496 O   0  0  0  0  0  0  0  0  0  0  0  0
    1.6095   15.8213   71.7587 C   0  0  0  0  0  0  0  0  0  0  0  0
    1.7288   16.9969   73.8463 O   0  0  0  0  0  0  0  0  0  0  0  0
    1.9000   17.1450   72.4780 C   0  0  0  0  0  0  0  0  0  0  0  0
   -0.4783   17.7847   72.4538 O   0  0  0  0  0  0  0  0  0  0  0  0
    0.8561   18.0452   71.8220 C   0  0  0  0  0  0  0  0  0  0  0  0
    0.8485   17.6544   70.5227 C   0  0  0  0  0  0  0  0  0  0  0  0
    2.5624   14.1455   71.3957 H   0  0  0  0  0  0  0  0  0  0  0  0
    2.4217   16.4162   74.1979 H   0  0  0  0  0  0  0  0  0  0  0  0
   -0.4580   18.0686   73.3811 H   0  0  0  0  0  0  0  0  0  0  0  0
    1.8013   23.9966   66.1641 C   0  0  0  0  0  0  0  0  0  0  0  0
    1.4423   26.5987   63.7083 C   0  0  0  0  0  0  0  0  0  0  0  0
    2.3028   26.9131   64.6616 C   0  0  0  0  0  0  0  0  0  0  0  0
    3.1623   28.0096   64.3304 O   0  0  0  0  0  0  0  0  0  0  0  0
    3.1749   25.5466   64.8744 C   0  0  0  0  0  0  0  0  0  0  0  0
    4.1328   25.4568   63.7946 O   0  0  0  0  0  0  0  0  0  0  0  0
    1.0527   25.1222   64.0710 O   0  0  0  0  0  0  0  0  0  0  0  0
    2.2656   24.5279   64.7854 C   0  0  0  0  0  0  0  0  0  0  0  0
    3.6728   27.7915   63.5349 H   0  0  0  0  0  0  0  0  0  0  0  0
    3.6655   25.4819   62.9450 H   0  0  0  0  0  0  0  0  0  0  0  0
   -2.3364   28.3467   60.7939 N   0  0  0  0  0  0  0  0  0  0  0  0
   -1.2165   27.6571   60.4182 C   0  0  0  0  0  0  0  0  0  0  0  0
   -0.2837   27.2559   61.3555 N   0  0  0  0  0  0  0  0  0  0  0  0
   -0.4946   27.5595   62.6761 C   0  0  0  0  0  0  0  0  0  0  0  0
   -1.6056   28.2385   63.0416 C   0  0  0  0  0  0  0  0  0  0  0  0
   -2.5367   28.6450   62.0984 C   0  0  0  0  0  0  0  0  0  0  0  0
   -3.7425   29.3598   62.3442 N   0  0  0  0  0  0  0  0  0  0  0  0
   -1.5840   28.4177   64.3925 N   0  0  0  0  0  0  0  0  0  0  0  0
   -0.4510   27.8343   64.8651 C   0  0  0  0  0  0  0  0  0  0  0  0
    0.2351   27.3048   63.8191 N   0  0  0  0  0  0  0  0  0  0  0  0
   -4.3344   29.5990   61.5947 H   0  0  0  0  0  0  0  0  0  0  0  0
   -3.9847   29.6151   63.2636 H   0  0  0  0  0  0  0  0  0  0  0  0
 34 35  1  0  0  0
 34 39  2  0  0  0
 35 36  2  0  0  0
 36 37  1  0  0  0
 37 38  2  0  0  0
 37 43  1  0  0  0
 38 39  1  0  0  0
 38 41  1  0  0  0
 39 40  1  0  0  0
 41 42  2  0  0  0
 42 43  1  0  0  0
 43 25  1  0  0  0
 25 26  1  0  0  0
 25 30  1  0  0  0
 26 27  1  0  0  0
 26 28  1  0  0  0
 28 29  1  0  0  0
 28 31  1  0  0  0
 30 31  1  0  0  0
 31 24  1  0  0  0
 24  1  1  0  0  0
  1  2  1  0  0  0
  2  3  2  0  0  0
  2  4  1  0  0  0
  2  6  1  0  0  0
  6  7  1  0  0  0
  7  8  2  0  0  0
  7  9  1  0  0  0
  7 11  1  0  0  0
 11 12  1  0  0  0
 12 20  1  0  0  0
 13 15  1  0  0  0
 13 20  1  0  0  0
 14 15  1  0  0  0
 15 17  1  0  0  0
 16 17  1  0  0  0
 17 19  1  0  0  0
 18 19  1  0  0  0
 19 20  1  0  0  0
 40 44  1  0  0  0
 40 45  1  0  0  0
 27 32  1  0  0  0
 29 33  1  0  0  0
  4  5  1  0  0  0
  9 10  1  0  0  0
 14 21  1  0  0  0
 16 22  1  0  0  0
 18 23  1  0  0  0
M  END
> <minimizedAffinity>
-9.28234

$$$$
5DUS_APR_A_201


 45 48  0  0  0  0  0  0  0  0999 V2000
    0.8576   17.5719   71.6277 O   0  0  0  0  0  0  0  0  0  0  0  0
    1.4951   16.5650   72.6583 P   0  0  0  0  0  0  0  0  0  0  0  0
    0.3496   15.6965   73.1755 O   0  0  0  0  0  0  0  0  0  0  0  0
    2.5763   15.7413   71.9744 O   0  0  0  0  0  0  0  0  0  0  0  0
    2.1795   15.2123   71.2648 H   0  0  0  0  0  0  0  0  0  0  0  0
    2.1458   17.4105   73.7968 O   0  0  0  0  0  0  0  0  0  0  0  0
    3.1337   18.6735   73.8322 P   0  0  0  0  0  0  0  0  0  0  0  0
    4.4026   18.1936   74.5373 O   0  0  0  0  0  0  0  0  0  0  0  0
    3.2865   19.2535   72.4300 O   0  0  0  0  0  0  0  0  0  0  0  0
    3.7400   18.6111   71.8620 H   0  0  0  0  0  0  0  0  0  0  0  0
    2.3949   19.7487   74.7140 O   0  0  0  0  0  0  0  0  0  0  0  0
    2.0232   21.0101   74.1236 C   0  0  0  0  0  0  0  0  0  0  0  0
    1.8261   23.3391   75.0054 O   0  0  0  0  0  0  0  0  0  0  0  0
    0.7173   24.1141   76.7839 O   0  0  0  0  0  0  0  0  0  0  0  0
    1.9629   23.6883   76.2725 C   0  0  0  0  0  0  0  0  0  0  0  0
    2.9404   22.6691   78.2115 O   0  0  0  0  0  0  0  0  0  0  0  0
    2.3804   22.3893   76.9740 C   0  0  0  0  0  0  0  0  0  0  0  0
    4.6836   22.5609   76.1185 O   0  0  0  0  0  0  0  0  0  0  0  0
    3.3786   21.8407   75.9577 C   0  0  0  0  0  0  0  0  0  0  0  0
    2.8230   22.1317   74.7545 C   0  0  0  0  0  0  0  0  0  0  0  0
    0.4502   24.9354   76.3424 H   0  0  0  0  0  0  0  0  0  0  0  0
    2.2554   23.0122   78.8063 H   0  0  0  0  0  0  0  0  0  0  0  0
    5.0686   22.3436   76.9819 H   0  0  0  0  0  0  0  0  0  0  0  0
   -0.4213   18.2175   71.7575 C   0  0  0  0  0  0  0  0  0  0  0  0
    0.5495   20.9068   69.5766 C   0  0  0  0  0  0  0  0  0  0  0  0
   -0.7610   20.7384   69.6257 C   0  0  0  0  0  0  0  0  0  0  0  0
   -1.5093   21.8529   69.1271 O   0  0  0  0  0  0  0  0  0  0  0  0
   -1.0712   20.5054   71.2140 C   0  0  0  0  0  0  0  0  0  0  0  0
   -1.0343   21.7944   71.8687 O   0  0  0  0  0  0  0  0  0  0  0  0
    1.0689   19.8660   70.6305 O   0  0  0  0  0  0  0  0  0  0  0  0
   -0.0469   19.7174   71.6638 C   0  0  0  0  0  0  0  0  0  0  0  0
   -1.2958   22.6440   69.6462 H   0  0  0  0  0  0  0  0  0  0  0  0
   -0.1755   22.2151   71.7061 H   0  0  0  0  0  0  0  0  0  0  0  0
    2.0976   22.7480   65.0999 N   0  0  0  0  0  0  0  0  0  0  0  0
    1.5659   23.4235   66.1639 C   0  0  0  0  0  0  0  0  0  0  0  0
    1.1964   22.7543   67.3151 N   0  0  0  0  0  0  0  0  0  0  0  0
    1.3697   21.3954   67.3791 C   0  0  0  0  0  0  0  0  0  0  0  0
    1.8992   20.7337   66.3252 C   0  0  0  0  0  0  0  0  0  0  0  0
    2.2633   21.4069   65.1694 C   0  0  0  0  0  0  0  0  0  0  0  0
    2.8298   20.8380   63.9943 N   0  0  0  0  0  0  0  0  0  0  0  0
    1.9661   19.4072   66.6304 N   0  0  0  0  0  0  0  0  0  0  0  0
    1.4806   19.2517   67.8904 C   0  0  0  0  0  0  0  0  0  0  0  0
    1.1033   20.4673   68.3648 N   0  0  0  0  0  0  0  0  0  0  0  0
    3.0516   21.4130   63.2266 H   0  0  0  0  0  0  0  0  0  0  0  0
    3.0000   19.8694   63.9492 H   0  0  0  0  0  0  0  0  0  0  0  0
 34 35  1  0  0  0
 34 39  2  0  0  0
 35 36  2  0  0  0
 36 37  1  0  0  0
 37 38  2  0  0  0
 37 43  1  0  0  0
 38 39  1  0  0  0
 38 41  1  0  0  0
 39 40  1  0  0  0
 41 42  2  0  0  0
 42 43  1  0  0  0
 43 25  1  0  0  0
 25 26  1  0  0  0
 25 30  1  0  0  0
 26 27  1  0  0  0
 26 28  1  0  0  0
 28 29  1  0  0  0
 28 31  1  0  0  0
 30 31  1  0  0  0
 31 24  1  0  0  0
 24  1  1  0  0  0
  1  2  1  0  0  0
  2  3  2  0  0  0
  2  4  1  0  0  0
  2  6  1  0  0  0
  6  7  1  0  0  0
  7  8  2  0  0  0
  7  9  1  0  0  0
  7 11  1  0  0  0
 11 12  1  0  0  0
 12 20  1  0  0  0
 13 15  1  0  0  0
 13 20  1  0  0  0
 14 15  1  0  0  0
 15 17  1  0  0  0
 16 17  1  0  0  0
 17 19  1  0  0  0
 18 19  1  0  0  0
 19 20  1  0  0  0
 40 44  1  0  0  0
 40 45  1  0  0  0
 27 32  1  0  0  0
 29 33  1  0  0  0
  4  5  1  0  0  0
  9 10  1  0  0  0
 14 21  1  0  0  0
 16 22  1  0  0  0
 18 23  1  0  0  0
M  END
> <minimizedAffinity>
-9.15619

$$$$
5DUS_APR_A_201


 45 48  0  0  0  0  0  0  0  0999 V2000
    2.2484   20.9558   66.6360 O   0  0  0  0  0  0  0  0  0  0  0  0
    1.8473   21.8878   65.4306 P   0  0  0  0  0  0  0  0  0  0  0  0
    2.9762   21.7770   64.4074 O   0  0  0  0  0  0  0  0  0  0  0  0
    0.5087   21.4450   64.8585 O   0  0  0  0  0  0  0  0  0  0  0  0
    0.5885   20.5434   64.5096 H   0  0  0  0  0  0  0  0  0  0  0  0
    1.7056   23.3382   65.9879 O   0  0  0  0  0  0  0  0  0  0  0  0
    2.1318   24.7907   65.4579 P   0  0  0  0  0  0  0  0  0  0  0  0
    2.1225   25.7038   66.6842 O   0  0  0  0  0  0  0  0  0  0  0  0
    3.4307   24.6942   64.6645 O   0  0  0  0  0  0  0  0  0  0  0  0
    4.1532   24.4345   65.2574 H   0  0  0  0  0  0  0  0  0  0  0  0
    0.9926   25.2135   64.4564 O   0  0  0  0  0  0  0  0  0  0  0  0
    1.1719   26.3877   63.6397 C   0  0  0  0  0  0  0  0  0  0  0  0
    1.7557   28.7893   64.0031 O   0  0  0  0  0  0  0  0  0  0  0  0
    1.6420   30.5248   62.6003 O   0  0  0  0  0  0  0  0  0  0  0  0
    1.0075   29.8180   63.6453 C   0  0  0  0  0  0  0  0  0  0  0  0
   -1.3033   30.1100   63.0714 O   0  0  0  0  0  0  0  0  0  0  0  0
   -0.2797   29.1752   63.1126 C   0  0  0  0  0  0  0  0  0  0  0  0
   -1.0870   28.6903   65.3884 O   0  0  0  0  0  0  0  0  0  0  0  0
   -0.4886   28.0809   64.1563 C   0  0  0  0  0  0  0  0  0  0  0  0
    0.7625   27.6237   64.4147 C   0  0  0  0  0  0  0  0  0  0  0  0
    2.4564   30.9327   62.9337 H   0  0  0  0  0  0  0  0  0  0  0  0
   -1.1084   30.7730   62.3907 H   0  0  0  0  0  0  0  0  0  0  0  0
   -1.9800   29.0123   65.1889 H   0  0  0  0  0  0  0  0  0  0  0  0
    2.0151   21.2282   68.0290 C   0  0  0  0  0  0  0  0  0  0  0  0
    1.6841   19.3040   71.0487 C   0  0  0  0  0  0  0  0  0  0  0  0
    0.5231   19.5267   70.4566 C   0  0  0  0  0  0  0  0  0  0  0  0
   -0.5332   18.6713   70.9079 O   0  0  0  0  0  0  0  0  0  0  0  0
    0.8307   19.2688   68.8717 C   0  0  0  0  0  0  0  0  0  0  0  0
    0.8694   17.8398   68.6524 O   0  0  0  0  0  0  0  0  0  0  0  0
    2.7098   19.9293   70.0387 O   0  0  0  0  0  0  0  0  0  0  0  0
    2.0675   19.8135   68.6571 C   0  0  0  0  0  0  0  0  0  0  0  0
   -0.2927   17.7462   70.7430 H   0  0  0  0  0  0  0  0  0  0  0  0
    1.5310   17.4405   69.2387 H   0  0  0  0  0  0  0  0  0  0  0  0
    4.2118   19.1975   75.4563 N   0  0  0  0  0  0  0  0  0  0  0  0
    4.2252   18.2806   74.4413 C   0  0  0  0  0  0  0  0  0  0  0  0
    3.4670   18.4737   73.3022 N   0  0  0  0  0  0  0  0  0  0  0  0
    2.6952   19.6026   73.2002 C   0  0  0  0  0  0  0  0  0  0  0  0
    2.6889   20.5070   74.2057 C   0  0  0  0  0  0  0  0  0  0  0  0
    3.4458   20.3077   75.3499 C   0  0  0  0  0  0  0  0  0  0  0  0
    3.5328   21.1739   76.4757 N   0  0  0  0  0  0  0  0  0  0  0  0
    1.8507   21.5280   73.8704 N   0  0  0  0  0  0  0  0  0  0  0  0
    1.3421   21.2533   72.6402 C   0  0  0  0  0  0  0  0  0  0  0  0
    1.8484   20.0668   72.2147 N   0  0  0  0  0  0  0  0  0  0  0  0
    4.1051   20.9325   77.2395 H   0  0  0  0  0  0  0  0  0  0  0  0
    3.0205   22.0145   76.4908 H   0  0  0  0  0  0  0  0  0  0  0  0
 34 35  1  0  0  0
 34 39  2  0  0  0
 35 36  2  0  0  0
 36 37  1  0  0  0
 37 38  2  0  0  0
 37 43  1  0  0  0
 38 39  1  0  0  0
 38 41  1  0  0  0
 39 40  1  0  0  0
 41 42  2  0  0  0
 42 43  1  0  0  0
 43 25  1  0  0  0
 25 26  1  0  0  0
 25 30  1  0  0  0
 26 27  1  0  0  0
 26 28  1  0  0  0
 28 29  1  0  0  0
 28 31  1  0  0  0
 30 31  1  0  0  0
 31 24  1  0  0  0
 24  1  1  0  0  0
  1  2  1  0  0  0
  2  3  2  0  0  0
  2  4  1  0  0  0
  2  6  1  0  0  0
  6  7  1  0  0  0
  7  8  2  0  0  0
  7  9  1  0  0  0
  7 11  1  0  0  0
 11 12  1  0  0  0
 12 20  1  0  0  0
 13 15  1  0  0  0
 13 20  1  0  0  0
 14 15  1  0  0  0
 15 17  1  0  0  0
 16 17  1  0  0  0
 17 19  1  0  0  0
 18 19  1  0  0  0
 19 20  1  0  0  0
 40 44  1  0  0  0
 40 45  1  0  0  0
 27 32  1  0  0  0
 29 33  1  0  0  0
  4  5  1  0  0  0
  9 10  1  0  0  0
 14 21  1  0  0  0
 16 22  1  0  0  0
 18 23  1  0  0  0
M  END
> <minimizedAffinity>
-9.06561

$$$$
5DUS_APR_A_201


 45 48  0  0  0  0  0  0  0  0999 V2000
    2.1647   18.0893   73.1692 O   0  0  0  0  0  0  0  0  0  0  0  0
    1.4709   16.9121   72.3848 P   0  0  0  0  0  0  0  0  0  0  0  0
    2.5960   16.0118   71.8774 O   0  0  0  0  0  0  0  0  0  0  0  0
    0.5140   16.1705   73.3066 O   0  0  0  0  0  0  0  0  0  0  0  0
    1.0122   15.7733   74.0381 H   0  0  0  0  0  0  0  0  0  0  0  0
    0.6578   17.5457   71.2136 O   0  0  0  0  0  0  0  0  0  0  0  0
   -0.6457   18.4761   71.1269 P   0  0  0  0  0  0  0  0  0  0  0  0
   -1.3523   18.0878   69.8279 O   0  0  0  0  0  0  0  0  0  0  0  0
   -1.4468   18.3706   72.4204 O   0  0  0  0  0  0  0  0  0  0  0  0
   -1.8002   17.4716   72.5094 H   0  0  0  0  0  0  0  0  0  0  0  0
   -0.0945   19.9478   71.0273 O   0  0  0  0  0  0  0  0  0  0  0  0
   -0.3832   20.7307   69.8519 C   0  0  0  0  0  0  0  0  0  0  0  0
    2.0469   20.1575   69.7681 O   0  0  0  0  0  0  0  0  0  0  0  0
    3.0518   18.2236   69.2750 O   0  0  0  0  0  0  0  0  0  0  0  0
    2.6384   19.4860   68.7958 C   0  0  0  0  0  0  0  0  0  0  0  0
    2.0843   18.9638   66.5210 O   0  0  0  0  0  0  0  0  0  0  0  0
    1.5325   19.2927   67.7501 C   0  0  0  0  0  0  0  0  0  0  0  0
    1.7236   21.6258   66.9843 O   0  0  0  0  0  0  0  0  0  0  0  0
    0.8839   20.6743   67.7825 C   0  0  0  0  0  0  0  0  0  0  0  0
    0.8976   21.0181   69.0950 C   0  0  0  0  0  0  0  0  0  0  0  0
    3.7512   18.3421   69.9366 H   0  0  0  0  0  0  0  0  0  0  0  0
    2.4774   18.0783   66.5697 H   0  0  0  0  0  0  0  0  0  0  0  0
    1.7044   21.3680   66.0494 H   0  0  0  0  0  0  0  0  0  0  0  0
    2.8466   17.9779   74.4309 C   0  0  0  0  0  0  0  0  0  0  0  0
    2.7794   21.5680   74.6241 C   0  0  0  0  0  0  0  0  0  0  0  0
    2.7279   20.9927   75.8134 C   0  0  0  0  0  0  0  0  0  0  0  0
    3.0311   21.8753   76.8997 O   0  0  0  0  0  0  0  0  0  0  0  0
    3.8374   19.7951   75.7226 C   0  0  0  0  0  0  0  0  0  0  0  0
    5.1474   20.3895   75.8705 O   0  0  0  0  0  0  0  0  0  0  0  0
    2.9611   20.3440   73.6585 O   0  0  0  0  0  0  0  0  0  0  0  0
    3.6943   19.2736   74.4655 C   0  0  0  0  0  0  0  0  0  0  0  0
    3.9254   22.2332   76.7856 H   0  0  0  0  0  0  0  0  0  0  0  0
    5.2700   21.0743   75.1946 H   0  0  0  0  0  0  0  0  0  0  0  0
   -0.1359   25.6224   75.5678 N   0  0  0  0  0  0  0  0  0  0  0  0
    1.0806   25.3012   76.1044 C   0  0  0  0  0  0  0  0  0  0  0  0
    1.7382   24.1455   75.7281 N   0  0  0  0  0  0  0  0  0  0  0  0
    1.1530   23.3181   74.8042 C   0  0  0  0  0  0  0  0  0  0  0  0
   -0.0483   23.6430   74.2746 C   0  0  0  0  0  0  0  0  0  0  0  0
   -0.7083   24.7999   74.6586 C   0  0  0  0  0  0  0  0  0  0  0  0
   -1.9681   25.2602   74.1827 N   0  0  0  0  0  0  0  0  0  0  0  0
   -0.4148   22.6708   73.3926 N   0  0  0  0  0  0  0  0  0  0  0  0
    0.5766   21.7412   73.3722 C   0  0  0  0  0  0  0  0  0  0  0  0
    1.5488   22.1222   74.2410 N   0  0  0  0  0  0  0  0  0  0  0  0
   -2.3465   26.1017   74.5262 H   0  0  0  0  0  0  0  0  0  0  0  0
   -2.4613   24.7371   73.5101 H   0  0  0  0  0  0  0  0  0  0  0  0
 34 35  1  0  0  0
 34 39  2  0  0  0
 35 36  2  0  0  0
 36 37  1  0  0  0
 37 38  2  0  0  0
 37 43  1  0  0  0
 38 39  1  0  0  0
 38 41  1  0  0  0
 39 40  1  0  0  0
 41 42  2  0  0  0
 42 43  1  0  0  0
 43 25  1  0  0  0
 25 26  1  0  0  0
 25 30  1  0  0  0
 26 27  1  0  0  0
 26 28  1  0  0  0
 28 29  1  0  0  0
 28 31  1  0  0  0
 30 31  1  0  0  0
 31 24  1  0  0  0
 24  1  1  0  0  0
  1  2  1  0  0  0
  2  3  2  0  0  0
  2  4  1  0  0  0
  2  6  1  0  0  0
  6  7  1  0  0  0
  7  8  2  0  0  0
  7  9  1  0  0  0
  7 11  1  0  0  0
 11 12  1  0  0  0
 12 20  1  0  0  0
 13 15  1  0  0  0
 13 20  1  0  0  0
 14 15  1  0  0  0
 15 17  1  0  0  0
 16 17  1  0  0  0
 17 19  1  0  0  0
 18 19  1  0  0  0
 19 20  1  0  0  0
 40 44  1  0  0  0
 40 45  1  0  0  0
 27 32  1  0  0  0
 29 33  1  0  0  0
  4  5  1  0  0  0
  9 10  1  0  0  0
 14 21  1  0  0  0
 16 22  1  0  0  0
 18 23  1  0  0  0
M  END
> <minimizedAffinity>
-8.98648

$$$$
5DUS_APR_A_201


 45 48  0  0  0  0  0  0  0  0999 V2000
   -1.8773   19.1112   71.5796 O   0  0  0  0  0  0  0  0  0  0  0  0
   -2.4294   20.2588   72.5072 P   0  0  0  0  0  0  0  0  0  0  0  0
   -3.8389   20.5735   72.0091 O   0  0  0  0  0  0  0  0  0  0  0  0
   -2.4226   19.7989   73.9576 O   0  0  0  0  0  0  0  0  0  0  0  0
   -3.0161   19.0383   74.0584 H   0  0  0  0  0  0  0  0  0  0  0  0
   -1.4718   21.4817   72.3586 O   0  0  0  0  0  0  0  0  0  0  0  0
   -0.9193   22.6030   73.3635 P   0  0  0  0  0  0  0  0  0  0  0  0
   -1.5390   23.9221   72.9013 O   0  0  0  0  0  0  0  0  0  0  0  0
   -1.1700   22.1772   74.8063 O   0  0  0  0  0  0  0  0  0  0  0  0
   -2.1248   22.1542   74.9754 H   0  0  0  0  0  0  0  0  0  0  0  0
    0.6389   22.6255   73.1378 O   0  0  0  0  0  0  0  0  0  0  0  0
    1.5112   22.8496   74.2634 C   0  0  0  0  0  0  0  0  0  0  0  0
    1.8547   20.3858   74.0345 O   0  0  0  0  0  0  0  0  0  0  0  0
    3.6199   19.2445   73.2765 O   0  0  0  0  0  0  0  0  0  0  0  0
    2.9367   19.7288   74.4136 C   0  0  0  0  0  0  0  0  0  0  0  0
    4.7655   20.1939   75.8947 O   0  0  0  0  0  0  0  0  0  0  0  0
    3.7970   20.7948   75.1047 C   0  0  0  0  0  0  0  0  0  0  0  0
    2.3983   20.7398   77.1312 O   0  0  0  0  0  0  0  0  0  0  0  0
    2.7251   21.5335   75.9021 C   0  0  0  0  0  0  0  0  0  0  0  0
    1.6566   21.5732   75.0668 C   0  0  0  0  0  0  0  0  0  0  0  0
    3.0787   18.5701   72.8370 H   0  0  0  0  0  0  0  0  0  0  0  0
    5.4120   19.7446   75.3280 H   0  0  0  0  0  0  0  0  0  0  0  0
    3.1703   20.7201   77.7181 H   0  0  0  0  0  0  0  0  0  0  0  0
   -2.0400   17.6983   71.7953 C   0  0  0  0  0  0  0  0  0  0  0  0
    0.6532   18.0221   69.4346 C   0  0  0  0  0  0  0  0  0  0  0  0
    1.0175   17.3954   70.5404 C   0  0  0  0  0  0  0  0  0  0  0  0
    2.2454   16.6685   70.4189 O   0  0  0  0  0  0  0  0  0  0  0  0
   -0.2235   16.3755   70.8450 C   0  0  0  0  0  0  0  0  0  0  0  0
   -0.0998   15.2444   69.9523 O   0  0  0  0  0  0  0  0  0  0  0  0
   -0.8857   18.2392   69.6544 O   0  0  0  0  0  0  0  0  0  0  0  0
   -1.3517   17.0907   70.5480 C   0  0  0  0  0  0  0  0  0  0  0  0
    2.1589   16.0022   69.7194 H   0  0  0  0  0  0  0  0  0  0  0  0
   -0.0807   15.5576   69.0344 H   0  0  0  0  0  0  0  0  0  0  0  0
    1.9610   21.5026   65.9701 N   0  0  0  0  0  0  0  0  0  0  0  0
    1.4576   20.2464   65.7714 C   0  0  0  0  0  0  0  0  0  0  0  0
    1.1553   19.4267   66.8420 N   0  0  0  0  0  0  0  0  0  0  0  0
    1.3675   19.8900   68.1152 C   0  0  0  0  0  0  0  0  0  0  0  0
    1.8621   21.1343   68.3051 C   0  0  0  0  0  0  0  0  0  0  0  0
    2.1701   21.9521   67.2290 C   0  0  0  0  0  0  0  0  0  0  0  0
    2.6916   23.2751   67.2859 N   0  0  0  0  0  0  0  0  0  0  0  0
    1.9837   21.3569   69.6442 N   0  0  0  0  0  0  0  0  0  0  0  0
    1.5503   20.2400   70.2862 C   0  0  0  0  0  0  0  0  0  0  0  0
    1.1717   19.3234   69.3579 N   0  0  0  0  0  0  0  0  0  0  0  0
    2.8750   23.7681   66.4537 H   0  0  0  0  0  0  0  0  0  0  0  0
    2.8689   23.6973   68.1574 H   0  0  0  0  0  0  0  0  0  0  0  0
 34 35  1  0  0  0
 34 39  2  0  0  0
 35 36  2  0  0  0
 36 37  1  0  0  0
 37 38  2  0  0  0
 37 43  1  0  0  0
 38 39  1  0  0  0
 38 41  1  0  0  0
 39 40  1  0  0  0
 41 42  2  0  0  0
 42 43  1  0  0  0
 43 25  1  0  0  0
 25 26  1  0  0  0
 25 30  1  0  0  0
 26 27  1  0  0  0
 26 28  1  0  0  0
 28 29  1  0  0  0
 28 31  1  0  0  0
 30 31  1  0  0  0
 31 24  1  0  0  0
 24  1  1  0  0  0
  1  2  1  0  0  0
  2  3  2  0  0  0
  2  4  1  0  0  0
  2  6  1  0  0  0
  6  7  1  0  0  0
  7  8  2  0  0  0
  7  9  1  0  0  0
  7 11  1  0  0  0
 11 12  1  0  0  0
 12 20  1  0  0  0
 13 15  1  0  0  0
 13 20  1  0  0  0
 14 15  1  0  0  0
 15 17  1  0  0  0
 16 17  1  0  0  0
 17 19  1  0  0  0
 18 19  1  0  0  0
 19 20  1  0  0  0
 40 44  1  0  0  0
 40 45  1  0  0  0
 27 32  1  0  0  0
 29 33  1  0  0  0
  4  5  1  0  0  0
  9 10  1  0  0  0
 14 21  1  0  0  0
 16 22  1  0  0  0
 18 23  1  0  0  0
M  END
> <minimizedAffinity>
-8.93890

$$$$
