3M6R_BB2_A_194


 31 31  0  0  0  0  0  0  0  0999 V2000
  -17.6205    6.3064  -30.6915 C   0  0  0  0  0  0  0  0  0  0  0  0
  -17.8939    7.5090  -30.8513 O   0  0  0  0  0  0  0  0  0  0  0  0
  -18.2621    5.1874  -31.1772 N   0  0  0  0  0  0  0  0  0  0  0  0
  -17.8396    4.3360  -31.4339 H   0  0  0  0  0  0  0  0  0  0  0  0
  -16.3848    5.9256  -29.8040 C   0  0  0  0  0  0  0  0  0  0  0  0
  -15.3820    7.0821  -30.1695 C   0  0  0  0  0  0  0  0  0  0  0  0
  -13.9447    6.3407  -30.1137 C   0  0  0  0  0  0  0  0  0  0  0  0
  -14.3088    5.2311  -30.5235 O   0  0  0  0  0  0  0  0  0  0  0  0
  -12.6702    6.5791  -29.8278 N   0  0  0  0  0  0  0  0  0  0  0  0
  -11.7130    5.5834  -29.9279 O   0  0  0  0  0  0  0  0  0  0  0  0
  -12.4005    7.4808  -29.5391 H   0  0  0  0  0  0  0  0  0  0  0  0
  -12.1327    4.7598  -30.2217 H   0  0  0  0  0  0  0  0  0  0  0  0
  -16.7784    6.0074  -28.3021 C   0  0  0  0  0  0  0  0  0  0  0  0
  -16.8534    4.5521  -27.7727 C   0  0  0  0  0  0  0  0  0  0  0  0
  -16.9238    4.4632  -26.2783 C   0  0  0  0  0  0  0  0  0  0  0  0
  -17.7306    5.6728  -25.8125 C   0  0  0  0  0  0  0  0  0  0  0  0
  -19.1753    5.2740  -25.5306 C   0  0  0  0  0  0  0  0  0  0  0  0
  -19.7169    5.5091  -31.2406 C   0  0  0  0  0  0  0  0  0  0  0  0
  -20.5229    5.0880  -29.9703 C   0  0  0  0  0  0  0  0  0  0  0  0
  -20.2569    4.0540  -29.3971 O   0  0  0  0  0  0  0  0  0  0  0  0
  -21.5228    6.2619  -29.6882 N   0  0  0  0  0  0  0  0  0  0  0  0
  -22.4285    6.1864  -28.5008 C   0  0  0  0  0  0  0  0  0  0  0  0
  -21.8029    7.5919  -30.3519 C   0  0  0  0  0  0  0  0  0  0  0  0
  -22.3033    8.4883  -29.2027 C   0  0  0  0  0  0  0  0  0  0  0  0
  -23.2462    7.4948  -28.4924 C   0  0  0  0  0  0  0  0  0  0  0  0
  -23.3958    4.9876  -28.6204 C   0  0  0  0  0  0  0  0  0  0  0  0
  -22.9318    3.8748  -27.8587 O   0  0  0  0  0  0  0  0  0  0  0  0
  -22.0646    3.5946  -28.1908 H   0  0  0  0  0  0  0  0  0  0  0  0
  -20.2381    4.6350  -32.4695 C   0  0  0  0  0  0  0  0  0  0  0  0
  -21.4352    5.2988  -33.1977 C   0  0  0  0  0  0  0  0  0  0  0  0
  -19.1096    4.3514  -33.5324 C   0  0  0  0  0  0  0  0  0  0  0  0
  6  7  1  0  0  0
  6  5  1  0  0  0
  7  8  2  0  0  0
  7  9  1  0  0  0
  9 10  1  0  0  0
  5  1  1  0  0  0
  5 13  1  0  0  0
  1  2  2  0  0  0
  1  3  1  0  0  0
 13 14  1  0  0  0
 14 15  1  0  0  0
 15 16  1  0  0  0
 16 17  1  0  0  0
  3 18  1  0  0  0
 18 29  1  0  0  0
 18 19  1  0  0  0
 29 30  1  0  0  0
 29 31  1  0  0  0
 19 20  2  0  0  0
 19 21  1  0  0  0
 21 22  1  0  0  0
 21 23  1  0  0  0
 22 25  1  0  0  0
 22 26  1  0  0  0
 23 24  1  0  0  0
 24 25  1  0  0  0
 26 27  1  0  0  0
  9 11  1  0  0  0
 10 12  1  0  0  0
  3  4  1  0  0  0
 27 28  1  0  0  0
M  END
> <minimizedAffinity>
-8.08320

$$$$
3M6R_BB2_A_194


 31 31  0  0  0  0  0  0  0  0999 V2000
  -18.8785    5.1236  -30.9999 C   0  0  0  0  0  0  0  0  0  0  0  0
  -18.7131    5.1058  -32.2323 O   0  0  0  0  0  0  0  0  0  0  0  0
  -20.0201    4.8916  -30.2632 N   0  0  0  0  0  0  0  0  0  0  0  0
  -20.0668    4.4753  -29.3722 H   0  0  0  0  0  0  0  0  0  0  0  0
  -17.6563    5.4696  -30.0800 C   0  0  0  0  0  0  0  0  0  0  0  0
  -17.2170    6.8603  -30.6713 C   0  0  0  0  0  0  0  0  0  0  0  0
  -15.6409    6.9211  -30.3100 C   0  0  0  0  0  0  0  0  0  0  0  0
  -15.6574    7.9671  -29.6485 O   0  0  0  0  0  0  0  0  0  0  0  0
  -14.5163    6.2345  -30.4746 N   0  0  0  0  0  0  0  0  0  0  0  0
  -13.3148    6.6889  -29.9577 O   0  0  0  0  0  0  0  0  0  0  0  0
  -14.5372    5.3862  -30.9738 H   0  0  0  0  0  0  0  0  0  0  0  0
  -13.4585    7.5304  -29.4971 H   0  0  0  0  0  0  0  0  0  0  0  0
  -18.1413    5.6363  -28.6122 C   0  0  0  0  0  0  0  0  0  0  0  0
  -17.0709    4.9792  -27.7033 C   0  0  0  0  0  0  0  0  0  0  0  0
  -16.7716    5.7696  -26.4655 C   0  0  0  0  0  0  0  0  0  0  0  0
  -17.5073    5.0745  -25.3225 C   0  0  0  0  0  0  0  0  0  0  0  0
  -18.8530    5.7455  -25.0682 C   0  0  0  0  0  0  0  0  0  0  0  0
  -21.1712    5.3898  -31.0698 C   0  0  0  0  0  0  0  0  0  0  0  0
  -21.4303    6.9248  -30.9380 C   0  0  0  0  0  0  0  0  0  0  0  0
  -21.1583    7.5005  -29.9069 O   0  0  0  0  0  0  0  0  0  0  0  0
  -21.9614    7.3918  -32.3370 N   0  0  0  0  0  0  0  0  0  0  0  0
  -22.2750    8.8368  -32.5590 C   0  0  0  0  0  0  0  0  0  0  0  0
  -22.2253    6.6931  -33.6523 C   0  0  0  0  0  0  0  0  0  0  0  0
  -22.0034    7.7896  -34.7122 C   0  0  0  0  0  0  0  0  0  0  0  0
  -22.7341    8.9628  -34.0266 C   0  0  0  0  0  0  0  0  0  0  0  0
  -23.4191    9.3018  -31.6306 C   0  0  0  0  0  0  0  0  0  0  0  0
  -22.9088    9.9951  -30.4935 O   0  0  0  0  0  0  0  0  0  0  0  0
  -22.3325    9.4028  -29.9856 H   0  0  0  0  0  0  0  0  0  0  0  0
  -22.4229    4.6214  -30.4462 C   0  0  0  0  0  0  0  0  0  0  0  0
  -23.4661    4.2256  -31.5227 C   0  0  0  0  0  0  0  0  0  0  0  0
  -22.0049    3.3200  -29.6619 C   0  0  0  0  0  0  0  0  0  0  0  0
  6  7  1  0  0  0
  6  5  1  0  0  0
  7  8  2  0  0  0
  7  9  1  0  0  0
  9 10  1  0  0  0
  5  1  1  0  0  0
  5 13  1  0  0  0
  1  2  2  0  0  0
  1  3  1  0  0  0
 13 14  1  0  0  0
 14 15  1  0  0  0
 15 16  1  0  0  0
 16 17  1  0  0  0
  3 18  1  0  0  0
 18 29  1  0  0  0
 18 19  1  0  0  0
 29 30  1  0  0  0
 29 31  1  0  0  0
 19 20  2  0  0  0
 19 21  1  0  0  0
 21 22  1  0  0  0
 21 23  1  0  0  0
 22 25  1  0  0  0
 22 26  1  0  0  0
 23 24  1  0  0  0
 24 25  1  0  0  0
 26 27  1  0  0  0
  9 11  1  0  0  0
 10 12  1  0  0  0
  3  4  1  0  0  0
 27 28  1  0  0  0
M  END
> <minimizedAffinity>
-6.80493

$$$$
3M6R_BB2_A_194


 31 31  0  0  0  0  0  0  0  0999 V2000
  -18.9163    5.1335  -29.2738 C   0  0  0  0  0  0  0  0  0  0  0  0
  -19.5905    4.0966  -29.1445 O   0  0  0  0  0  0  0  0  0  0  0  0
  -19.3298    6.4260  -29.5151 N   0  0  0  0  0  0  0  0  0  0  0  0
  -18.9021    7.2485  -29.1835 H   0  0  0  0  0  0  0  0  0  0  0  0
  -17.3541    5.0341  -29.1767 C   0  0  0  0  0  0  0  0  0  0  0  0
  -16.9621    6.5527  -29.0468 C   0  0  0  0  0  0  0  0  0  0  0  0
  -15.5505    6.6267  -29.8345 C   0  0  0  0  0  0  0  0  0  0  0  0
  -15.4705    7.8584  -29.9264 O   0  0  0  0  0  0  0  0  0  0  0  0
  -14.5858    5.8427  -30.3011 N   0  0  0  0  0  0  0  0  0  0  0  0
  -13.4829    6.3698  -30.9516 O   0  0  0  0  0  0  0  0  0  0  0  0
  -14.6560    4.8679  -30.1823 H   0  0  0  0  0  0  0  0  0  0  0  0
  -13.5605    7.3360  -30.9884 H   0  0  0  0  0  0  0  0  0  0  0  0
  -16.9615    4.2631  -27.8849 C   0  0  0  0  0  0  0  0  0  0  0  0
  -16.6218    5.3255  -26.8080 C   0  0  0  0  0  0  0  0  0  0  0  0
  -17.1264    4.9730  -25.4414 C   0  0  0  0  0  0  0  0  0  0  0  0
  -18.5102    5.6059  -25.3170 C   0  0  0  0  0  0  0  0  0  0  0  0
  -19.5949    4.5849  -25.6438 C   0  0  0  0  0  0  0  0  0  0  0  0
  -20.5468    6.3440  -30.3729 C   0  0  0  0  0  0  0  0  0  0  0  0
  -20.4117    7.0705  -31.7493 C   0  0  0  0  0  0  0  0  0  0  0  0
  -20.4386    8.2809  -31.8026 O   0  0  0  0  0  0  0  0  0  0  0  0
  -20.1794    5.9399  -32.8101 N   0  0  0  0  0  0  0  0  0  0  0  0
  -19.9721    6.3091  -34.2441 C   0  0  0  0  0  0  0  0  0  0  0  0
  -20.0630    4.4336  -32.7383 C   0  0  0  0  0  0  0  0  0  0  0  0
  -19.1416    4.0705  -33.9190 C   0  0  0  0  0  0  0  0  0  0  0  0
  -19.7412    4.9873  -35.0056 C   0  0  0  0  0  0  0  0  0  0  0  0
  -21.2226    7.0110  -34.8192 C   0  0  0  0  0  0  0  0  0  0  0  0
  -20.8785    7.8598  -35.9124 O   0  0  0  0  0  0  0  0  0  0  0  0
  -20.2632    8.5452  -35.6084 H   0  0  0  0  0  0  0  0  0  0  0  0
  -21.6570    7.1069  -29.5176 C   0  0  0  0  0  0  0  0  0  0  0  0
  -23.0549    7.0523  -30.1860 C   0  0  0  0  0  0  0  0  0  0  0  0
  -21.7878    6.5405  -28.0528 C   0  0  0  0  0  0  0  0  0  0  0  0
  6  7  1  0  0  0
  6  5  1  0  0  0
  7  8  2  0  0  0
  7  9  1  0  0  0
  9 10  1  0  0  0
  5  1  1  0  0  0
  5 13  1  0  0  0
  1  2  2  0  0  0
  1  3  1  0  0  0
 13 14  1  0  0  0
 14 15  1  0  0  0
 15 16  1  0  0  0
 16 17  1  0  0  0
  3 18  1  0  0  0
 18 29  1  0  0  0
 18 19  1  0  0  0
 29 30  1  0  0  0
 29 31  1  0  0  0
 19 20  2  0  0  0
 19 21  1  0  0  0
 21 22  1  0  0  0
 21 23  1  0  0  0
 22 25  1  0  0  0
 22 26  1  0  0  0
 23 24  1  0  0  0
 24 25  1  0  0  0
 26 27  1  0  0  0
  9 11  1  0  0  0
 10 12  1  0  0  0
  3  4  1  0  0  0
 27 28  1  0  0  0
M  END
> <minimizedAffinity>
-6.69895

$$$$
3M6R_BB2_A_194


 31 31  0  0  0  0  0  0  0  0999 V2000
  -17.7013    6.3956  -30.8949 C   0  0  0  0  0  0  0  0  0  0  0  0
  -17.4715    7.6143  -30.9864 O   0  0  0  0  0  0  0  0  0  0  0  0
  -18.5772    5.6102  -31.6132 N   0  0  0  0  0  0  0  0  0  0  0  0
  -18.4482    4.6661  -31.8608 H   0  0  0  0  0  0  0  0  0  0  0  0
  -16.9305    5.5620  -29.8128 C   0  0  0  0  0  0  0  0  0  0  0  0
  -15.9458    6.6476  -29.2397 C   0  0  0  0  0  0  0  0  0  0  0  0
  -14.5063    6.1490  -29.7853 C   0  0  0  0  0  0  0  0  0  0  0  0
  -14.8798    5.0936  -30.3130 O   0  0  0  0  0  0  0  0  0  0  0  0
  -13.2356    6.5296  -29.8434 N   0  0  0  0  0  0  0  0  0  0  0  0
  -12.2752    5.7374  -30.4498 O   0  0  0  0  0  0  0  0  0  0  0  0
  -12.9711    7.3915  -29.4479 H   0  0  0  0  0  0  0  0  0  0  0  0
  -12.6898    4.9281  -30.7876 H   0  0  0  0  0  0  0  0  0  0  0  0
  -17.9231    5.0979  -28.7098 C   0  0  0  0  0  0  0  0  0  0  0  0
  -17.2952    5.4796  -27.3446 C   0  0  0  0  0  0  0  0  0  0  0  0
  -16.9198    4.2943  -26.5077 C   0  0  0  0  0  0  0  0  0  0  0  0
  -17.4269    4.5852  -25.0973 C   0  0  0  0  0  0  0  0  0  0  0  0
  -18.4662    5.7010  -25.1237 C   0  0  0  0  0  0  0  0  0  0  0  0
  -19.7569    6.4599  -31.9448 C   0  0  0  0  0  0  0  0  0  0  0  0
  -20.6695    6.7959  -30.7221 C   0  0  0  0  0  0  0  0  0  0  0  0
  -20.8420    7.9489  -30.3914 O   0  0  0  0  0  0  0  0  0  0  0  0
  -21.2468    5.4246  -30.2282 N   0  0  0  0  0  0  0  0  0  0  0  0
  -22.2003    5.4007  -29.0767 C   0  0  0  0  0  0  0  0  0  0  0  0
  -21.1001    3.9911  -30.6878 C   0  0  0  0  0  0  0  0  0  0  0  0
  -22.4314    3.3281  -30.2841 C   0  0  0  0  0  0  0  0  0  0  0  0
  -22.5983    3.9244  -28.8709 C   0  0  0  0  0  0  0  0  0  0  0  0
  -21.5245    5.9253  -27.7901 C   0  0  0  0  0  0  0  0  0  0  0  0
  -22.4918    6.4212  -26.8669 O   0  0  0  0  0  0  0  0  0  0  0  0
  -22.9777    7.1568  -27.2717 H   0  0  0  0  0  0  0  0  0  0  0  0
  -20.5964    5.5534  -32.9545 C   0  0  0  0  0  0  0  0  0  0  0  0
  -21.6487    6.3730  -33.7451 C   0  0  0  0  0  0  0  0  0  0  0  0
  -19.6822    4.7946  -33.9899 C   0  0  0  0  0  0  0  0  0  0  0  0
  6  7  1  0  0  0
  6  5  1  0  0  0
  7  8  2  0  0  0
  7  9  1  0  0  0
  9 10  1  0  0  0
  5  1  1  0  0  0
  5 13  1  0  0  0
  1  2  2  0  0  0
  1  3  1  0  0  0
 13 14  1  0  0  0
 14 15  1  0  0  0
 15 16  1  0  0  0
 16 17  1  0  0  0
  3 18  1  0  0  0
 18 29  1  0  0  0
 18 19  1  0  0  0
 29 30  1  0  0  0
 29 31  1  0  0  0
 19 20  2  0  0  0
 19 21  1  0  0  0
 21 22  1  0  0  0
 21 23  1  0  0  0
 22 25  1  0  0  0
 22 26  1  0  0  0
 23 24  1  0  0  0
 24 25  1  0  0  0
 26 27  1  0  0  0
  9 11  1  0  0  0
 10 12  1  0  0  0
  3  4  1  0  0  0
 27 28  1  0  0  0
M  END
> <minimizedAffinity>
-6.53770

$$$$
3M6R_BB2_A_194


 31 31  0  0  0  0  0  0  0  0999 V2000
  -19.3254    5.5154  -30.7526 C   0  0  0  0  0  0  0  0  0  0  0  0
  -19.3983    6.1298  -31.8314 O   0  0  0  0  0  0  0  0  0  0  0  0
  -20.3057    4.8390  -30.0588 N   0  0  0  0  0  0  0  0  0  0  0  0
  -20.1819    4.0320  -29.5086 H   0  0  0  0  0  0  0  0  0  0  0  0
  -17.9498    5.4726  -30.0006 C   0  0  0  0  0  0  0  0  0  0  0  0
  -17.2898    6.8108  -30.5010 C   0  0  0  0  0  0  0  0  0  0  0  0
  -15.7211    6.5785  -30.1793 C   0  0  0  0  0  0  0  0  0  0  0  0
  -15.6164    5.4397  -30.6526 O   0  0  0  0  0  0  0  0  0  0  0  0
  -14.6701    7.2017  -29.6597 N   0  0  0  0  0  0  0  0  0  0  0  0
  -13.4338    6.5828  -29.5815 O   0  0  0  0  0  0  0  0  0  0  0  0
  -14.7716    8.1215  -29.3235 H   0  0  0  0  0  0  0  0  0  0  0  0
  -13.4964    5.6879  -29.9506 H   0  0  0  0  0  0  0  0  0  0  0  0
  -18.1939    5.5322  -28.4663 C   0  0  0  0  0  0  0  0  0  0  0  0
  -17.6237    4.2219  -27.8649 C   0  0  0  0  0  0  0  0  0  0  0  0
  -16.9441    4.4176  -26.5435 C   0  0  0  0  0  0  0  0  0  0  0  0
  -17.3816    5.7884  -26.0332 C   0  0  0  0  0  0  0  0  0  0  0  0
  -18.5356    5.6468  -25.0463 C   0  0  0  0  0  0  0  0  0  0  0  0
  -21.5890    5.5598  -30.2983 C   0  0  0  0  0  0  0  0  0  0  0  0
  -21.9532    6.6050  -29.1958 C   0  0  0  0  0  0  0  0  0  0  0  0
  -21.7682    6.3445  -28.0269 O   0  0  0  0  0  0  0  0  0  0  0  0
  -22.4469    7.8811  -29.9610 N   0  0  0  0  0  0  0  0  0  0  0  0
  -22.8429    9.0961  -29.1847 C   0  0  0  0  0  0  0  0  0  0  0  0
  -22.6025    8.2412  -31.4218 C   0  0  0  0  0  0  0  0  0  0  0  0
  -22.4025    9.7689  -31.4563 C   0  0  0  0  0  0  0  0  0  0  0  0
  -23.2394   10.1665  -30.2226 C   0  0  0  0  0  0  0  0  0  0  0  0
  -24.0574    8.7990  -28.2769 C   0  0  0  0  0  0  0  0  0  0  0  0
  -23.6493    8.5771  -26.9286 O   0  0  0  0  0  0  0  0  0  0  0  0
  -23.0539    7.8121  -26.8927 H   0  0  0  0  0  0  0  0  0  0  0  0
  -22.6816    4.3977  -30.2586 C   0  0  0  0  0  0  0  0  0  0  0  0
  -23.5268    4.3402  -31.5572 C   0  0  0  0  0  0  0  0  0  0  0  0
  -22.0447    2.9759  -30.0209 C   0  0  0  0  0  0  0  0  0  0  0  0
  6  7  1  0  0  0
  6  5  1  0  0  0
  7  8  2  0  0  0
  7  9  1  0  0  0
  9 10  1  0  0  0
  5  1  1  0  0  0
  5 13  1  0  0  0
  1  2  2  0  0  0
  1  3  1  0  0  0
 13 14  1  0  0  0
 14 15  1  0  0  0
 15 16  1  0  0  0
 16 17  1  0  0  0
  3 18  1  0  0  0
 18 29  1  0  0  0
 18 19  1  0  0  0
 29 30  1  0  0  0
 29 31  1  0  0  0
 19 20  2  0  0  0
 19 21  1  0  0  0
 21 22  1  0  0  0
 21 23  1  0  0  0
 22 25  1  0  0  0
 22 26  1  0  0  0
 23 24  1  0  0  0
 24 25  1  0  0  0
 26 27  1  0  0  0
  9 11  1  0  0  0
 10 12  1  0  0  0
  3  4  1  0  0  0
 27 28  1  0  0  0
M  END
> <minimizedAffinity>
-6.49051

$$$$
3M6R_BB2_A_194


 31 31  0  0  0  0  0  0  0  0999 V2000
  -20.6191    4.8046  -29.6093 C   0  0  0  0  0  0  0  0  0  0  0  0
  -21.0727    3.6479  -29.6630 O   0  0  0  0  0  0  0  0  0  0  0  0
  -21.2385    6.0050  -29.8835 N   0  0  0  0  0  0  0  0  0  0  0  0
  -21.0670    6.8666  -29.4393 H   0  0  0  0  0  0  0  0  0  0  0  0
  -19.1214    5.0085  -29.1908 C   0  0  0  0  0  0  0  0  0  0  0  0
  -18.7444    6.2859  -30.0291 C   0  0  0  0  0  0  0  0  0  0  0  0
  -17.1541    6.1028  -30.2651 C   0  0  0  0  0  0  0  0  0  0  0  0
  -16.8915    7.2720  -30.5744 O   0  0  0  0  0  0  0  0  0  0  0  0
  -16.1976    5.1849  -30.1889 N   0  0  0  0  0  0  0  0  0  0  0  0
  -14.8834    5.4889  -30.5020 O   0  0  0  0  0  0  0  0  0  0  0  0
  -16.4272    4.2708  -29.9045 H   0  0  0  0  0  0  0  0  0  0  0  0
  -14.8203    6.4213  -30.7619 H   0  0  0  0  0  0  0  0  0  0  0  0
  -19.0445    5.3195  -27.6694 C   0  0  0  0  0  0  0  0  0  0  0  0
  -18.3786    4.0957  -26.9892 C   0  0  0  0  0  0  0  0  0  0  0  0
  -16.9492    4.3307  -26.6045 C   0  0  0  0  0  0  0  0  0  0  0  0
  -16.8470    5.8007  -26.2049 C   0  0  0  0  0  0  0  0  0  0  0  0
  -15.6335    6.4491  -26.8627 C   0  0  0  0  0  0  0  0  0  0  0  0
  -22.2175    5.7527  -30.9797 C   0  0  0  0  0  0  0  0  0  0  0  0
  -21.9649    6.5940  -32.2716 C   0  0  0  0  0  0  0  0  0  0  0  0
  -22.4216    7.7124  -32.3672 O   0  0  0  0  0  0  0  0  0  0  0  0
  -21.0307    5.7195  -33.1771 N   0  0  0  0  0  0  0  0  0  0  0  0
  -20.5651    6.2603  -34.4912 C   0  0  0  0  0  0  0  0  0  0  0  0
  -20.3907    4.3572  -33.0279 C   0  0  0  0  0  0  0  0  0  0  0  0
  -19.0984    4.4548  -33.8617 C   0  0  0  0  0  0  0  0  0  0  0  0
  -19.6488    5.1821  -35.1063 C   0  0  0  0  0  0  0  0  0  0  0  0
  -21.7592    6.5086  -35.4396 C   0  0  0  0  0  0  0  0  0  0  0  0
  -22.5384    5.3257  -35.6058 O   0  0  0  0  0  0  0  0  0  0  0  0
  -21.9877    4.6277  -35.9935 H   0  0  0  0  0  0  0  0  0  0  0  0
  -23.6084    6.2173  -30.3508 C   0  0  0  0  0  0  0  0  0  0  0  0
  -24.5325    5.0181  -30.0162 C   0  0  0  0  0  0  0  0  0  0  0  0
  -23.4242    7.0782  -29.0437 C   0  0  0  0  0  0  0  0  0  0  0  0
  6  7  1  0  0  0
  6  5  1  0  0  0
  7  8  2  0  0  0
  7  9  1  0  0  0
  9 10  1  0  0  0
  5  1  1  0  0  0
  5 13  1  0  0  0
  1  2  2  0  0  0
  1  3  1  0  0  0
 13 14  1  0  0  0
 14 15  1  0  0  0
 15 16  1  0  0  0
 16 17  1  0  0  0
  3 18  1  0  0  0
 18 29  1  0  0  0
 18 19  1  0  0  0
 29 30  1  0  0  0
 29 31  1  0  0  0
 19 20  2  0  0  0
 19 21  1  0  0  0
 21 22  1  0  0  0
 21 23  1  0  0  0
 22 25  1  0  0  0
 22 26  1  0  0  0
 23 24  1  0  0  0
 24 25  1  0  0  0
 26 27  1  0  0  0
  9 11  1  0  0  0
 10 12  1  0  0  0
  3  4  1  0  0  0
 27 28  1  0  0  0
M  END
> <minimizedAffinity>
-6.29718

$$$$
3M6R_BB2_A_194


 31 31  0  0  0  0  0  0  0  0999 V2000
  -19.2448    5.9260  -30.0152 C   0  0  0  0  0  0  0  0  0  0  0  0
  -19.8497    6.5073  -29.0972 O   0  0  0  0  0  0  0  0  0  0  0  0
  -19.6095    5.7468  -31.3323 N   0  0  0  0  0  0  0  0  0  0  0  0
  -19.0035    5.7120  -32.1075 H   0  0  0  0  0  0  0  0  0  0  0  0
  -17.8612    5.2573  -29.7016 C   0  0  0  0  0  0  0  0  0  0  0  0
  -16.9413    6.5247  -29.5457 C   0  0  0  0  0  0  0  0  0  0  0  0
  -15.5443    6.0358  -30.1998 C   0  0  0  0  0  0  0  0  0  0  0  0
  -15.0553    7.1526  -30.4129 O   0  0  0  0  0  0  0  0  0  0  0  0
  -14.8704    4.9286  -30.4878 N   0  0  0  0  0  0  0  0  0  0  0  0
  -13.6212    4.9820  -31.0829 O   0  0  0  0  0  0  0  0  0  0  0  0
  -15.2664    4.0529  -30.2741 H   0  0  0  0  0  0  0  0  0  0  0  0
  -13.3717    5.9080  -31.2284 H   0  0  0  0  0  0  0  0  0  0  0  0
  -17.9499    4.4860  -28.3546 C   0  0  0  0  0  0  0  0  0  0  0  0
  -17.2668    5.3701  -27.2797 C   0  0  0  0  0  0  0  0  0  0  0  0
  -17.3311    4.7891  -25.8996 C   0  0  0  0  0  0  0  0  0  0  0  0
  -18.2460    5.7043  -25.0894 C   0  0  0  0  0  0  0  0  0  0  0  0
  -19.6988    5.5178  -25.5140 C   0  0  0  0  0  0  0  0  0  0  0  0
  -21.0946    5.6155  -31.3620 C   0  0  0  0  0  0  0  0  0  0  0  0
  -21.6359    4.3034  -30.7093 C   0  0  0  0  0  0  0  0  0  0  0  0
  -21.1474    3.2334  -31.0011 O   0  0  0  0  0  0  0  0  0  0  0  0
  -22.7341    4.7549  -29.6858 N   0  0  0  0  0  0  0  0  0  0  0  0
  -23.4328    3.7258  -28.8560 C   0  0  0  0  0  0  0  0  0  0  0  0
  -23.2905    6.0947  -29.2578 C   0  0  0  0  0  0  0  0  0  0  0  0
  -23.7318    5.8703  -27.7984 C   0  0  0  0  0  0  0  0  0  0  0  0
  -24.4120    4.4931  -27.9434 C   0  0  0  0  0  0  0  0  0  0  0  0
  -24.2329    2.7495  -29.7469 C   0  0  0  0  0  0  0  0  0  0  0  0
  -23.4964    1.5523  -29.9879 O   0  0  0  0  0  0  0  0  0  0  0  0
  -22.6697    1.7682  -30.4470 H   0  0  0  0  0  0  0  0  0  0  0  0
  -21.4330    5.5688  -32.9206 C   0  0  0  0  0  0  0  0  0  0  0  0
  -21.9409    6.9334  -33.4534 C   0  0  0  0  0  0  0  0  0  0  0  0
  -20.1989    5.1259  -33.7950 C   0  0  0  0  0  0  0  0  0  0  0  0
  6  7  1  0  0  0
  6  5  1  0  0  0
  7  8  2  0  0  0
  7  9  1  0  0  0
  9 10  1  0  0  0
  5  1  1  0  0  0
  5 13  1  0  0  0
  1  2  2  0  0  0
  1  3  1  0  0  0
 13 14  1  0  0  0
 14 15  1  0  0  0
 15 16  1  0  0  0
 16 17  1  0  0  0
  3 18  1  0  0  0
 18 29  1  0  0  0
 18 19  1  0  0  0
 29 30  1  0  0  0
 29 31  1  0  0  0
 19 20  2  0  0  0
 19 21  1  0  0  0
 21 22  1  0  0  0
 21 23  1  0  0  0
 22 25  1  0  0  0
 22 26  1  0  0  0
 23 24  1  0  0  0
 24 25  1  0  0  0
 26 27  1  0  0  0
  9 11  1  0  0  0
 10 12  1  0  0  0
  3  4  1  0  0  0
 27 28  1  0  0  0
M  END
> <minimizedAffinity>
-6.29249

$$$$
3M6R_BB2_A_194


 31 31  0  0  0  0  0  0  0  0999 V2000
  -21.3785    4.6953  -30.0797 C   0  0  0  0  0  0  0  0  0  0  0  0
  -21.2092    3.5106  -30.4175 O   0  0  0  0  0  0  0  0  0  0  0  0
  -20.8118    5.8439  -30.5892 N   0  0  0  0  0  0  0  0  0  0  0  0
  -21.2396    6.7282  -30.6538 H   0  0  0  0  0  0  0  0  0  0  0  0
  -22.3555    5.0090  -28.8935 C   0  0  0  0  0  0  0  0  0  0  0  0
  -23.3425    3.7865  -28.9834 C   0  0  0  0  0  0  0  0  0  0  0  0
  -24.6604    4.3336  -28.2204 C   0  0  0  0  0  0  0  0  0  0  0  0
  -24.9435    5.2493  -29.0034 O   0  0  0  0  0  0  0  0  0  0  0  0
  -25.4234    4.0773  -27.1643 N   0  0  0  0  0  0  0  0  0  0  0  0
  -26.5312    4.8553  -26.8724 O   0  0  0  0  0  0  0  0  0  0  0  0
  -25.1972    3.3198  -26.5776 H   0  0  0  0  0  0  0  0  0  0  0  0
  -26.6192    5.5552  -27.5381 H   0  0  0  0  0  0  0  0  0  0  0  0
  -21.5720    4.9724  -27.5511 C   0  0  0  0  0  0  0  0  0  0  0  0
  -21.7524    6.3595  -26.8824 C   0  0  0  0  0  0  0  0  0  0  0  0
  -22.5105    7.3365  -27.7292 C   0  0  0  0  0  0  0  0  0  0  0  0
  -23.2048    8.2945  -26.7641 C   0  0  0  0  0  0  0  0  0  0  0  0
  -24.3655    7.5968  -26.0629 C   0  0  0  0  0  0  0  0  0  0  0  0
  -19.4288    5.4946  -31.0239 C   0  0  0  0  0  0  0  0  0  0  0  0
  -18.3215    6.4447  -30.4653 C   0  0  0  0  0  0  0  0  0  0  0  0
  -18.0983    7.5038  -31.0101 O   0  0  0  0  0  0  0  0  0  0  0  0
  -17.7752    5.7514  -29.1697 N   0  0  0  0  0  0  0  0  0  0  0  0
  -16.7142    6.4308  -28.3644 C   0  0  0  0  0  0  0  0  0  0  0  0
  -18.1069    4.4691  -28.4394 C   0  0  0  0  0  0  0  0  0  0  0  0
  -17.7721    4.7770  -26.9669 C   0  0  0  0  0  0  0  0  0  0  0  0
  -16.4299    5.5142  -27.1563 C   0  0  0  0  0  0  0  0  0  0  0  0
  -15.4178    6.5964  -29.1883 C   0  0  0  0  0  0  0  0  0  0  0  0
  -15.3705    7.8735  -29.8212 O   0  0  0  0  0  0  0  0  0  0  0  0
  -16.1235    7.9628  -30.4261 H   0  0  0  0  0  0  0  0  0  0  0  0
  -19.4806    5.6733  -32.6086 C   0  0  0  0  0  0  0  0  0  0  0  0
  -19.4076    4.3169  -33.3562 C   0  0  0  0  0  0  0  0  0  0  0  0
  -20.7745    6.4333  -33.0902 C   0  0  0  0  0  0  0  0  0  0  0  0
  6  7  1  0  0  0
  6  5  1  0  0  0
  7  8  2  0  0  0
  7  9  1  0  0  0
  9 10  1  0  0  0
  5  1  1  0  0  0
  5 13  1  0  0  0
  1  2  2  0  0  0
  1  3  1  0  0  0
 13 14  1  0  0  0
 14 15  1  0  0  0
 15 16  1  0  0  0
 16 17  1  0  0  0
  3 18  1  0  0  0
 18 29  1  0  0  0
 18 19  1  0  0  0
 29 30  1  0  0  0
 29 31  1  0  0  0
 19 20  2  0  0  0
 19 21  1  0  0  0
 21 22  1  0  0  0
 21 23  1  0  0  0
 22 25  1  0  0  0
 22 26  1  0  0  0
 23 24  1  0  0  0
 24 25  1  0  0  0
 26 27  1  0  0  0
  9 11  1  0  0  0
 10 12  1  0  0  0
  3  4  1  0  0  0
 27 28  1  0  0  0
M  END
> <minimizedAffinity>
-6.19222

$$$$
3M6R_BB2_A_194


 31 31  0  0  0  0  0  0  0  0999 V2000
  -21.1295    4.3137  -28.7780 C   0  0  0  0  0  0  0  0  0  0  0  0
  -21.3955    3.4586  -29.6408 O   0  0  0  0  0  0  0  0  0  0  0  0
  -21.9163    5.3261  -28.2723 N   0  0  0  0  0  0  0  0  0  0  0  0
  -21.8985    5.6770  -27.3527 H   0  0  0  0  0  0  0  0  0  0  0  0
  -19.6995    4.3154  -28.1338 C   0  0  0  0  0  0  0  0  0  0  0  0
  -19.1265    5.6782  -28.6731 C   0  0  0  0  0  0  0  0  0  0  0  0
  -18.7244    5.3188  -30.1988 C   0  0  0  0  0  0  0  0  0  0  0  0
  -17.4964    5.2861  -30.0487 O   0  0  0  0  0  0  0  0  0  0  0  0
  -19.2761    5.0521  -31.3768 N   0  0  0  0  0  0  0  0  0  0  0  0
  -18.4982    4.7792  -32.4893 O   0  0  0  0  0  0  0  0  0  0  0  0
  -20.2570    5.0483  -31.4608 H   0  0  0  0  0  0  0  0  0  0  0  0
  -17.5601    4.8209  -32.2460 H   0  0  0  0  0  0  0  0  0  0  0  0
  -19.8271    4.3590  -26.5849 C   0  0  0  0  0  0  0  0  0  0  0  0
  -19.0079    5.5812  -26.0963 C   0  0  0  0  0  0  0  0  0  0  0  0
  -17.9152    5.2222  -25.1354 C   0  0  0  0  0  0  0  0  0  0  0  0
  -16.6605    4.9955  -25.9753 C   0  0  0  0  0  0  0  0  0  0  0  0
  -16.2207    6.2963  -26.6388 C   0  0  0  0  0  0  0  0  0  0  0  0
  -22.7997    5.7898  -29.3806 C   0  0  0  0  0  0  0  0  0  0  0  0
  -22.2497    7.0231  -30.1662 C   0  0  0  0  0  0  0  0  0  0  0  0
  -21.7942    7.9720  -29.5658 O   0  0  0  0  0  0  0  0  0  0  0  0
  -22.3715    6.6534  -31.6848 N   0  0  0  0  0  0  0  0  0  0  0  0
  -21.8897    7.6213  -32.7177 C   0  0  0  0  0  0  0  0  0  0  0  0
  -22.8632    5.4378  -32.4386 C   0  0  0  0  0  0  0  0  0  0  0  0
  -22.0417    5.4456  -33.7425 C   0  0  0  0  0  0  0  0  0  0  0  0
  -22.1186    6.9477  -34.0867 C   0  0  0  0  0  0  0  0  0  0  0  0
  -22.6984    8.9365  -32.6608 C   0  0  0  0  0  0  0  0  0  0  0  0
  -21.8350   10.0667  -32.5556 O   0  0  0  0  0  0  0  0  0  0  0  0
  -21.3132   10.0002  -31.7407 H   0  0  0  0  0  0  0  0  0  0  0  0
  -24.1350    6.2367  -28.6301 C   0  0  0  0  0  0  0  0  0  0  0  0
  -25.2995    6.5129  -29.6157 C   0  0  0  0  0  0  0  0  0  0  0  0
  -24.6225    5.1713  -27.5761 C   0  0  0  0  0  0  0  0  0  0  0  0
  6  7  1  0  0  0
  6  5  1  0  0  0
  7  8  2  0  0  0
  7  9  1  0  0  0
  9 10  1  0  0  0
  5  1  1  0  0  0
  5 13  1  0  0  0
  1  2  2  0  0  0
  1  3  1  0  0  0
 13 14  1  0  0  0
 14 15  1  0  0  0
 15 16  1  0  0  0
 16 17  1  0  0  0
  3 18  1  0  0  0
 18 29  1  0  0  0
 18 19  1  0  0  0
 29 30  1  0  0  0
 29 31  1  0  0  0
 19 20  2  0  0  0
 19 21  1  0  0  0
 21 22  1  0  0  0
 21 23  1  0  0  0
 22 25  1  0  0  0
 22 26  1  0  0  0
 23 24  1  0  0  0
 24 25  1  0  0  0
 26 27  1  0  0  0
  9 11  1  0  0  0
 10 12  1  0  0  0
  3  4  1  0  0  0
 27 28  1  0  0  0
M  END
> <minimizedAffinity>
-6.09960

$$$$
3M6R_BB2_A_194


 31 31  0  0  0  0  0  0  0  0999 V2000
  -21.4148    3.9285  -29.1820 C   0  0  0  0  0  0  0  0  0  0  0  0
  -21.2336    3.2754  -30.2246 O   0  0  0  0  0  0  0  0  0  0  0  0
  -22.5928    4.2751  -28.5558 N   0  0  0  0  0  0  0  0  0  0  0  0
  -22.7339    4.3695  -27.5861 H   0  0  0  0  0  0  0  0  0  0  0  0
  -20.1659    4.4894  -28.4169 C   0  0  0  0  0  0  0  0  0  0  0  0
  -19.7752    5.7103  -29.3299 C   0  0  0  0  0  0  0  0  0  0  0  0
  -18.2664    5.3465  -29.7878 C   0  0  0  0  0  0  0  0  0  0  0  0
  -18.5072    5.0778  -30.9717 O   0  0  0  0  0  0  0  0  0  0  0  0
  -17.0259    5.3042  -29.3162 N   0  0  0  0  0  0  0  0  0  0  0  0
  -15.9664    4.9091  -30.1156 O   0  0  0  0  0  0  0  0  0  0  0  0
  -16.8561    5.5585  -28.3804 H   0  0  0  0  0  0  0  0  0  0  0  0
  -16.2938    4.6925  -31.0026 H   0  0  0  0  0  0  0  0  0  0  0  0
  -20.5987    4.9857  -27.0085 C   0  0  0  0  0  0  0  0  0  0  0  0
  -19.4966    4.5418  -26.0125 C   0  0  0  0  0  0  0  0  0  0  0  0
  -18.8377    5.6854  -25.3024 C   0  0  0  0  0  0  0  0  0  0  0  0
  -17.3620    5.6412  -25.6917 C   0  0  0  0  0  0  0  0  0  0  0  0
  -16.9394    4.2129  -26.0193 C   0  0  0  0  0  0  0  0  0  0  0  0
  -23.6131    4.4801  -29.6238 C   0  0  0  0  0  0  0  0  0  0  0  0
  -24.1108    5.9546  -29.7610 C   0  0  0  0  0  0  0  0  0  0  0  0
  -24.8570    6.4237  -28.9293 O   0  0  0  0  0  0  0  0  0  0  0  0
  -23.3896    6.5347  -31.0262 N   0  0  0  0  0  0  0  0  0  0  0  0
  -23.6253    7.9583  -31.4182 C   0  0  0  0  0  0  0  0  0  0  0  0
  -22.3944    5.9796  -32.0208 C   0  0  0  0  0  0  0  0  0  0  0  0
  -21.5958    7.2139  -32.4831 C   0  0  0  0  0  0  0  0  0  0  0  0
  -22.7539    8.2172  -32.6648 C   0  0  0  0  0  0  0  0  0  0  0  0
  -25.1086    8.1919  -31.7820 C   0  0  0  0  0  0  0  0  0  0  0  0
  -25.7636    6.9616  -32.0840 O   0  0  0  0  0  0  0  0  0  0  0  0
  -25.3308    6.5429  -32.8444 H   0  0  0  0  0  0  0  0  0  0  0  0
  -24.8428    3.5857  -29.1403 C   0  0  0  0  0  0  0  0  0  0  0  0
  -24.9154    2.2306  -29.8902 C   0  0  0  0  0  0  0  0  0  0  0  0
  -24.8061    3.2920  -27.5924 C   0  0  0  0  0  0  0  0  0  0  0  0
  6  7  1  0  0  0
  6  5  1  0  0  0
  7  8  2  0  0  0
  7  9  1  0  0  0
  9 10  1  0  0  0
  5  1  1  0  0  0
  5 13  1  0  0  0
  1  2  2  0  0  0
  1  3  1  0  0  0
 13 14  1  0  0  0
 14 15  1  0  0  0
 15 16  1  0  0  0
 16 17  1  0  0  0
  3 18  1  0  0  0
 18 29  1  0  0  0
 18 19  1  0  0  0
 29 30  1  0  0  0
 29 31  1  0  0  0
 19 20  2  0  0  0
 19 21  1  0  0  0
 21 22  1  0  0  0
 21 23  1  0  0  0
 22 25  1  0  0  0
 22 26  1  0  0  0
 23 24  1  0  0  0
 24 25  1  0  0  0
 26 27  1  0  0  0
  9 11  1  0  0  0
 10 12  1  0  0  0
  3  4  1  0  0  0
 27 28  1  0  0  0
M  END
> <minimizedAffinity>
-5.97181

$$$$
