3M6R_BB2_A_194
  RCSB PDB12061709423D
Coordinates from PDB:3M6R:A:194 Model:1 without hydrogens
 27 27  0  0  0  0            999 V2000
  -14.4930    6.5380  -30.9450   C 0  0  0  0  0  0  0  0  0  0  0  0
  -13.0760    6.0100  -30.3690   C 0  0  0  0  0  0  0  0  0  0  0  0
  -12.9100    5.0710  -31.1580   O 0  0  0  0  0  0  0  0  0  0  0  0
  -12.1660    6.2950  -29.4450   N 0  0  0  0  0  0  0  0  0  0  0  0
  -11.0260    5.5230  -29.2970   O 0  0  0  0  0  0  0  0  0  0  0  0
  -15.5390    5.7470  -30.0750   C 0  0  0  0  0  0  0  0  0  0  0  0
  -16.8890    6.3080  -30.6430   C 0  0  0  0  0  0  0  0  0  0  0  0
  -17.0380    7.5400  -30.7230   O 0  0  0  0  0  0  0  0  0  0  0  0
  -15.4020    6.1400  -28.5770   C 0  0  0  0  0  0  0  0  0  0  0  0
  -16.4430    5.3020  -27.7910   C 0  0  0  0  0  0  0  0  0  0  0  0
  -16.4480    5.5840  -26.3190   C 0  0  0  0  0  0  0  0  0  0  0  0
  -17.3450    4.5260  -25.6810   C 0  0  0  0  0  0  0  0  0  0  0  0
  -18.8040    4.9680  -25.7230   C 0  0  0  0  0  0  0  0  0  0  0  0
  -17.7620    5.2940  -30.9740   N 0  0  0  0  0  0  0  0  0  0  0  0
  -19.1390    5.7910  -30.6900   C 0  0  0  0  0  0  0  0  0  0  0  0
  -19.8890    5.6290  -32.0890   C 0  0  0  0  0  0  0  0  0  0  0  0
  -19.6120    6.8170  -33.0460   C 0  0  0  0  0  0  0  0  0  0  0  0
  -19.5010    4.2950  -32.8330   C 0  0  0  0  0  0  0  0  0  0  0  0
  -19.9160    4.9540  -29.6240   C 0  0  0  0  0  0  0  0  0  0  0  0
  -19.4120    3.9610  -29.1460   O 0  0  0  0  0  0  0  0  0  0  0  0
  -21.2540    5.7280  -29.3630   N 0  0  0  0  0  0  0  0  0  0  0  0
  -22.2220    5.2020  -28.3520   C 0  0  0  0  0  0  0  0  0  0  0  0
  -21.8520    7.0110  -29.8960   C 0  0  0  0  0  0  0  0  0  0  0  0
  -22.7320    7.5250  -28.7400   C 0  0  0  0  0  0  0  0  0  0  0  0
  -23.3980    6.2000  -28.3140   C 0  0  0  0  0  0  0  0  0  0  0  0
  -22.7530    3.8120  -28.7680   C 0  0  0  0  0  0  0  0  0  0  0  0
  -23.6650    3.2990  -27.7990   O 0  0  0  0  0  0  0  0  0  0  0  0
  1  2  1  0  0  0  0
  1  6  1  0  0  0  0
  2  3  2  0  0  0  0
  2  4  1  0  0  0  0
  4  5  1  0  0  0  0
  6  7  1  0  0  0  0
  6  9  1  0  0  0  0
  7  8  2  0  0  0  0
  7 14  1  0  0  0  0
  9 10  1  0  0  0  0
 10 11  1  0  0  0  0
 11 12  1  0  0  0  0
 12 13  1  0  0  0  0
 14 15  1  0  0  0  0
 15 16  1  0  0  0  0
 15 19  1  0  0  0  0
 16 17  1  0  0  0  0
 16 18  1  0  0  0  0
 19 20  2  0  0  0  0
 19 21  1  0  0  0  0
 21 22  1  0  0  0  0
 21 23  1  0  0  0  0
 22 25  1  0  0  0  0
 22 26  1  0  0  0  0
 23 24  1  0  0  0  0
 24 25  1  0  0  0  0
 26 27  1  0  0  0  0
A    1
C5
A    2
C3
A    3
O4
A    4
N1
A    5
O2
A    6
C6
A    7
C12
A    8
O13
A    9
C7
A   10
C8
A   11
C9
A   12
C10
A   13
C11
A   14
N14
A   15
C15
A   16
C16
A   17
C18
A   18
C17
A   19
C19
A   20
O20
A   21
N21
A   22
C22
A   23
C23
A   24
C24
A   25
C25
A   26
C26
A   27
O27
M  END
>  <InstanceId>
3M6R_BB2_A_194

>  <ChemCompId>
BB2

>  <PdbId>
3M6R

>  <ChainId>
A

>  <ResidueNumber>
194

>  <InsertionCode>


>  <Model>
1

>  <AltIds>


>  <MissingHeavyAtoms>
0

>  <ObservedFormula>
C19 N3 O5

>  <Name>
ACTINONIN

>  <SystematicName>
(2R)-N'-hydroxy-N-[(2S)-1-[(2S)-2-(hydroxymethyl)pyrrolidin-1-yl]-3-methyl-1-oxo-butan-2-yl]-2-pentyl-butanediamide

>  <Synonyms>
2-[(FORMYL-HYDROXY-AMINO)-METHYL]-HEPTANOIC ACID [1-(2-HYDROXYMETHYL-PYRROLIDINE-1-CARBONYL)-2-METHYL-PROPYL]-AMIDE

>  <Type>
NON-POLYMER

>  <Formula>
C19 H35 N3 O5

>  <MolecularWeight>
385.498

>  <ModifiedDate>
2011-06-04

>  <Parent>


>  <OneLetterCode>


>  <SubcomponentList>


>  <AmbiguousFlag>
N

>  <InChI>
InChI=1S/C19H35N3O5/c1-4-5-6-8-14(11-16(24)21-27)18(25)20-17(13(2)3)19(26)22-10-7-9-15(22)12-23/h13-15,17,23,27H,4-12H2,1-3H3,(H,20,25)(H,21,24)/t14-,15+,17+/m1/s1

>  <InChIKey>
XJLATMLVMSFZBN-VYDXJSESSA-N

>  <SMILES>
CCCCC[C@H](CC(=O)NO)C(=O)N[C@@H](C(C)C)C(=O)N1CCC[C@H]1CO

$$$$
