5M25_7DU_A_401


 57 58  0  0  0  0  0  0  0  0999 V2000
  -10.4912   26.2910    1.6940 C   0  0  0  0  0  0  0  0  0  0  0  0
   -8.3498   26.1462    3.1191 N   0  0  0  0  0  0  0  0  0  0  0  0
   -9.4648   25.4943    2.4746 C   0  0  0  0  0  0  0  0  0  0  0  0
   -9.5890   24.2974    2.5662 O   0  0  0  0  0  0  0  0  0  0  0  0
   -8.2612   27.1246    3.0537 H   0  0  0  0  0  0  0  0  0  0  0  0
   -7.3677   25.4006    3.8529 C   0  0  0  0  0  0  0  0  0  0  0  0
   -6.0212   26.0365    3.8499 C   0  0  0  0  0  0  0  0  0  0  0  0
   -9.2419   25.3575    5.6420 N   0  0  0  0  0  0  0  0  0  0  0  0
   -7.8170   25.2304    5.2882 C   0  0  0  0  0  0  0  0  0  0  0  0
   -6.9927   24.9746    6.1342 O   0  0  0  0  0  0  0  0  0  0  0  0
   -9.9283   25.5579    4.9653 H   0  0  0  0  0  0  0  0  0  0  0  0
   -9.5824   25.1697    7.0534 C   0  0  0  0  0  0  0  0  0  0  0  0
  -13.7264   24.1439    7.4735 C   0  0  0  0  0  0  0  0  0  0  0  0
  -13.3227   25.4768    7.5696 C   0  0  0  0  0  0  0  0  0  0  0  0
  -11.9601   25.8285    7.4217 C   0  0  0  0  0  0  0  0  0  0  0  0
  -12.7660   23.1406    7.2321 C   0  0  0  0  0  0  0  0  0  0  0  0
  -11.4105   23.4893    7.0948 C   0  0  0  0  0  0  0  0  0  0  0  0
  -11.0077   24.8261    7.1912 C   0  0  0  0  0  0  0  0  0  0  0  0
  -15.1127   23.7960    7.6171 N   0  0  0  0  0  0  0  0  0  0  0  0
  -15.5109   22.4497    7.6321 N   0  0  0  0  0  0  0  0  0  0  0  0
  -19.4876   21.2962    8.7600 C   0  0  0  0  0  0  0  0  0  0  0  0
  -18.9735   22.5344    9.1342 C   0  0  0  0  0  0  0  0  0  0  0  0
  -17.6504   22.9066    8.7579 C   0  0  0  0  0  0  0  0  0  0  0  0
  -18.6743   20.4065    7.9885 C   0  0  0  0  0  0  0  0  0  0  0  0
  -17.3637   20.7794    7.6118 C   0  0  0  0  0  0  0  0  0  0  0  0
  -16.8424   22.0303    7.9980 C   0  0  0  0  0  0  0  0  0  0  0  0
  -20.9295   20.9206    9.1886 C   0  0  0  0  0  0  0  0  0  0  0  0
  -21.8218   22.0216    8.9226 O   0  0  0  0  0  0  0  0  0  0  0  0
  -21.8140   22.2221    7.9736 H   0  0  0  0  0  0  0  0  0  0  0  0
  -10.6481   27.5923    2.2531 N   0  0  0  0  0  0  0  0  0  0  0  0
  -11.2989   27.6997    3.5286 C   0  0  0  0  0  0  0  0  0  0  0  0
  -11.7028   26.7345    4.0831 O   0  0  0  0  0  0  0  0  0  0  0  0
  -10.3210   28.3915    1.7804 H   0  0  0  0  0  0  0  0  0  0  0  0
  -11.4588   29.0741    4.1486 C   0  0  0  0  0  0  0  0  0  0  0  0
  -12.8615   29.5551    3.9163 C   0  0  0  0  0  0  0  0  0  0  0  0
  -10.5708   29.9673    3.4804 N   0  0  0  0  0  0  0  0  0  0  0  0
   -9.1403   29.9176    3.6610 C   0  0  0  0  0  0  0  0  0  0  0  0
   -8.6586   29.0841    4.4109 O   0  0  0  0  0  0  0  0  0  0  0  0
  -10.9482   30.6436    2.8726 H   0  0  0  0  0  0  0  0  0  0  0  0
   -8.2692   30.9358    2.9234 C   0  0  0  0  0  0  0  0  0  0  0  0
   -7.3745   31.5434    3.8472 N   0  0  0  0  0  0  0  0  0  0  0  0
   -6.7540   30.8336    4.2365 H   0  0  0  0  0  0  0  0  0  0  0  0
   -7.9073   31.9791    4.6000 H   0  0  0  0  0  0  0  0  0  0  0  0
   -7.4869   30.3497    1.7761 C   0  0  0  0  0  0  0  0  0  0  0  0
   -8.2120   29.2436    1.2335 O   0  0  0  0  0  0  0  0  0  0  0  0
   -9.0783   29.5474    0.9201 H   0  0  0  0  0  0  0  0  0  0  0  0
  -10.0301   26.4682    0.2522 C   0  0  0  0  0  0  0  0  0  0  0  0
  -10.5072   25.2955   -0.6482 C   0  0  0  0  0  0  0  0  0  0  0  0
  -11.9058   25.5841   -1.2515 C   0  0  0  0  0  0  0  0  0  0  0  0
  -12.4505   24.4636   -1.9920 N   0  0  0  0  0  0  0  0  0  0  0  0
  -12.0446   23.5702   -1.9128 H   0  0  0  0  0  0  0  0  0  0  0  0
  -13.6056   24.6740   -2.8552 C   0  0  0  0  0  0  0  0  0  0  0  0
  -13.8290   25.8824   -3.3475 N   0  0  0  0  0  0  0  0  0  0  0  0
  -14.4021   23.6886   -3.1531 N   0  0  0  0  0  0  0  0  0  0  0  0
  -14.6053   26.0401   -3.9321 H   0  0  0  0  0  0  0  0  0  0  0  0
  -13.2188   26.6235   -3.1290 H   0  0  0  0  0  0  0  0  0  0  0  0
  -15.1793   23.8432   -3.7373 H   0  0  0  0  0  0  0  0  0  0  0  0
 54 52  2  0  0  0
 52 53  1  0  0  0
 52 50  1  0  0  0
 50 49  1  0  0  0
 49 48  1  0  0  0
 48 47  1  0  0  0
 47  1  1  0  0  0
 45 44  1  0  0  0
 44 40  1  0  0  0
  1 30  1  0  0  0
  1  3  1  0  0  0
 30 31  1  0  0  0
 40 41  1  0  0  0
 40 37  1  0  0  0
  3  2  1  0  0  0
  3  4  2  0  0  0
  2  6  1  0  0  0
  7  6  1  0  0  0
  6  9  1  0  0  0
 37 36  1  0  0  0
 37 38  2  0  0  0
 36 34  1  0  0  0
 31 34  1  0  0  0
 31 32  2  0  0  0
 35 34  1  0  0  0
  9 10  2  0  0  0
  9  8  1  0  0  0
  8 12  1  0  0  0
 15 14  2  0  0  0
 15 18  1  0  0  0
 14 13  1  0  0  0
 12 18  1  0  0  0
 18 17  2  0  0  0
 13 19  1  0  0  0
 13 16  2  0  0  0
 19 20  2  0  0  0
 17 16  1  0  0  0
 25 24  2  0  0  0
 25 26  1  0  0  0
 24 21  1  0  0  0
 20 26  1  0  0  0
 26 23  2  0  0  0
 28 27  1  0  0  0
 21 27  1  0  0  0
 21 22  2  0  0  0
 23 22  1  0  0  0
  8 11  1  0  0  0
  2  5  1  0  0  0
 50 51  1  0  0  0
 53 55  1  0  0  0
 53 56  1  0  0  0
 54 57  1  0  0  0
 30 33  1  0  0  0
 36 39  1  0  0  0
 41 42  1  0  0  0
 41 43  1  0  0  0
 45 46  1  0  0  0
 28 29  1  0  0  0
M  END
> <minimizedAffinity>
-8.68439

$$$$
5M25_7DU_A_401


 57 58  0  0  0  0  0  0  0  0999 V2000
   -7.6802   26.4727    4.6315 C   0  0  0  0  0  0  0  0  0  0  0  0
   -8.2096   28.8862    5.3612 N   0  0  0  0  0  0  0  0  0  0  0  0
   -7.8277   27.5363    5.7014 C   0  0  0  0  0  0  0  0  0  0  0  0
   -7.6324   27.2457    6.8562 O   0  0  0  0  0  0  0  0  0  0  0  0
   -8.3822   29.1144    4.4192 H   0  0  0  0  0  0  0  0  0  0  0  0
   -8.3434   29.9028    6.3649 C   0  0  0  0  0  0  0  0  0  0  0  0
   -7.7605   31.2117    5.9599 C   0  0  0  0  0  0  0  0  0  0  0  0
  -10.8506   29.7075    5.7389 N   0  0  0  0  0  0  0  0  0  0  0  0
   -9.8056   30.1087    6.6975 C   0  0  0  0  0  0  0  0  0  0  0  0
  -10.1017   30.5922    7.7648 O   0  0  0  0  0  0  0  0  0  0  0  0
  -10.6286   29.3052    4.8682 H   0  0  0  0  0  0  0  0  0  0  0  0
  -12.2363   29.9390    6.1504 C   0  0  0  0  0  0  0  0  0  0  0  0
  -13.9391   26.2900    7.6293 C   0  0  0  0  0  0  0  0  0  0  0  0
  -14.1881   27.4953    8.2880 C   0  0  0  0  0  0  0  0  0  0  0  0
  -13.6411   28.7068    7.8032 C   0  0  0  0  0  0  0  0  0  0  0  0
  -13.1311   26.2812    6.4742 C   0  0  0  0  0  0  0  0  0  0  0  0
  -12.5795   27.4841    5.9981 C   0  0  0  0  0  0  0  0  0  0  0  0
  -12.8305   28.6915    6.6597 C   0  0  0  0  0  0  0  0  0  0  0  0
  -14.5047   25.0654    8.1234 N   0  0  0  0  0  0  0  0  0  0  0  0
  -14.3440   23.8677    7.4085 N   0  0  0  0  0  0  0  0  0  0  0  0
  -15.2842   20.0401    9.1062 C   0  0  0  0  0  0  0  0  0  0  0  0
  -14.1886   20.7691    9.5597 C   0  0  0  0  0  0  0  0  0  0  0  0
  -13.8825   22.0375    8.9868 C   0  0  0  0  0  0  0  0  0  0  0  0
  -16.1013   20.5828    8.0641 C   0  0  0  0  0  0  0  0  0  0  0  0
  -15.7992   21.8436    7.5004 C   0  0  0  0  0  0  0  0  0  0  0  0
  -14.6852   22.5767    7.9556 C   0  0  0  0  0  0  0  0  0  0  0  0
  -15.5876   18.6618    9.7482 C   0  0  0  0  0  0  0  0  0  0  0  0
  -14.3896   17.8598    9.7745 O   0  0  0  0  0  0  0  0  0  0  0  0
  -13.7094   18.3117   10.2980 H   0  0  0  0  0  0  0  0  0  0  0  0
   -8.8810   26.3523    3.8739 N   0  0  0  0  0  0  0  0  0  0  0  0
   -9.8397   25.3672    4.2893 C   0  0  0  0  0  0  0  0  0  0  0  0
   -9.6238   24.6713    5.2227 O   0  0  0  0  0  0  0  0  0  0  0  0
   -9.0480   26.9258    3.0913 H   0  0  0  0  0  0  0  0  0  0  0  0
  -11.1318   25.2365    3.5070 C   0  0  0  0  0  0  0  0  0  0  0  0
  -11.8045   23.9492    3.8855 C   0  0  0  0  0  0  0  0  0  0  0  0
  -10.8055   25.1717    2.1207 N   0  0  0  0  0  0  0  0  0  0  0  0
  -10.6790   26.3502    1.2982 C   0  0  0  0  0  0  0  0  0  0  0  0
  -10.8549   27.4507    1.7951 O   0  0  0  0  0  0  0  0  0  0  0  0
  -10.6610   24.2892    1.7090 H   0  0  0  0  0  0  0  0  0  0  0  0
  -10.3536   26.1804   -0.1868 C   0  0  0  0  0  0  0  0  0  0  0  0
   -9.1818   25.3855   -0.3216 N   0  0  0  0  0  0  0  0  0  0  0  0
   -9.3550   24.4567    0.0627 H   0  0  0  0  0  0  0  0  0  0  0  0
   -8.4128   25.8248    0.1844 H   0  0  0  0  0  0  0  0  0  0  0  0
  -11.4729   25.5676   -0.9889 C   0  0  0  0  0  0  0  0  0  0  0  0
  -11.6197   24.1962   -0.6135 O   0  0  0  0  0  0  0  0  0  0  0  0
  -11.8242   24.1401    0.3330 H   0  0  0  0  0  0  0  0  0  0  0  0
   -6.5677   26.8557    3.6627 C   0  0  0  0  0  0  0  0  0  0  0  0
   -7.1253   27.1635    2.2457 C   0  0  0  0  0  0  0  0  0  0  0  0
   -7.0260   28.6758    1.9197 C   0  0  0  0  0  0  0  0  0  0  0  0
   -8.2977   29.2650    1.5507 N   0  0  0  0  0  0  0  0  0  0  0  0
   -8.8024   28.9174    0.7801 H   0  0  0  0  0  0  0  0  0  0  0  0
   -8.8211   30.3778    2.3327 C   0  0  0  0  0  0  0  0  0  0  0  0
   -8.1535   31.5208    2.3515 N   0  0  0  0  0  0  0  0  0  0  0  0
   -9.9362   30.2603    2.9938 N   0  0  0  0  0  0  0  0  0  0  0  0
   -8.4946   32.2815    2.8752 H   0  0  0  0  0  0  0  0  0  0  0  0
   -7.3159   31.6101    1.8419 H   0  0  0  0  0  0  0  0  0  0  0  0
  -10.2796   31.0192    3.5185 H   0  0  0  0  0  0  0  0  0  0  0  0
 54 52  2  0  0  0
 52 53  1  0  0  0
 52 50  1  0  0  0
 50 49  1  0  0  0
 49 48  1  0  0  0
 48 47  1  0  0  0
 47  1  1  0  0  0
 45 44  1  0  0  0
 44 40  1  0  0  0
  1 30  1  0  0  0
  1  3  1  0  0  0
 30 31  1  0  0  0
 40 41  1  0  0  0
 40 37  1  0  0  0
  3  2  1  0  0  0
  3  4  2  0  0  0
  2  6  1  0  0  0
  7  6  1  0  0  0
  6  9  1  0  0  0
 37 36  1  0  0  0
 37 38  2  0  0  0
 36 34  1  0  0  0
 31 34  1  0  0  0
 31 32  2  0  0  0
 35 34  1  0  0  0
  9 10  2  0  0  0
  9  8  1  0  0  0
  8 12  1  0  0  0
 15 14  2  0  0  0
 15 18  1  0  0  0
 14 13  1  0  0  0
 12 18  1  0  0  0
 18 17  2  0  0  0
 13 19  1  0  0  0
 13 16  2  0  0  0
 19 20  2  0  0  0
 17 16  1  0  0  0
 25 24  2  0  0  0
 25 26  1  0  0  0
 24 21  1  0  0  0
 20 26  1  0  0  0
 26 23  2  0  0  0
 28 27  1  0  0  0
 21 27  1  0  0  0
 21 22  2  0  0  0
 23 22  1  0  0  0
  8 11  1  0  0  0
  2  5  1  0  0  0
 50 51  1  0  0  0
 53 55  1  0  0  0
 53 56  1  0  0  0
 54 57  1  0  0  0
 30 33  1  0  0  0
 36 39  1  0  0  0
 41 42  1  0  0  0
 41 43  1  0  0  0
 45 46  1  0  0  0
 28 29  1  0  0  0
M  END
> <minimizedAffinity>
-8.25961

$$$$
5M25_7DU_A_401


 57 58  0  0  0  0  0  0  0  0999 V2000
   -6.8477   27.1913    2.3426 C   0  0  0  0  0  0  0  0  0  0  0  0
   -6.7338   27.6459    4.8759 N   0  0  0  0  0  0  0  0  0  0  0  0
   -6.4062   26.8140    3.7427 C   0  0  0  0  0  0  0  0  0  0  0  0
   -5.7799   25.7964    3.9121 O   0  0  0  0  0  0  0  0  0  0  0  0
   -7.2576   28.4674    4.7342 H   0  0  0  0  0  0  0  0  0  0  0  0
   -6.3133   27.3027    6.2041 C   0  0  0  0  0  0  0  0  0  0  0  0
   -5.0374   27.9568    6.6062 C   0  0  0  0  0  0  0  0  0  0  0  0
   -8.8043   27.7006    6.7976 N   0  0  0  0  0  0  0  0  0  0  0  0
   -7.3866   27.6874    7.1997 C   0  0  0  0  0  0  0  0  0  0  0  0
   -7.0643   27.9680    8.3302 O   0  0  0  0  0  0  0  0  0  0  0  0
   -9.0862   27.4677    5.8835 H   0  0  0  0  0  0  0  0  0  0  0  0
   -9.7711   28.0787    7.8298 C   0  0  0  0  0  0  0  0  0  0  0  0
  -13.3127   25.6849    7.4714 C   0  0  0  0  0  0  0  0  0  0  0  0
  -12.1285   25.1156    7.9427 C   0  0  0  0  0  0  0  0  0  0  0  0
  -10.9570   25.8978    8.0757 C   0  0  0  0  0  0  0  0  0  0  0  0
  -13.3381   27.0501    7.1207 C   0  0  0  0  0  0  0  0  0  0  0  0
  -12.1710   27.8251    7.2438 C   0  0  0  0  0  0  0  0  0  0  0  0
  -10.9848   27.2524    7.7166 C   0  0  0  0  0  0  0  0  0  0  0  0
  -14.4999   24.8858    7.3467 N   0  0  0  0  0  0  0  0  0  0  0  0
  -14.6278   23.6846    8.0625 N   0  0  0  0  0  0  0  0  0  0  0  0
  -18.2799   21.4442    8.3058 C   0  0  0  0  0  0  0  0  0  0  0  0
  -17.1707   20.9257    7.6439 C   0  0  0  0  0  0  0  0  0  0  0  0
  -15.9636   21.6792    7.5654 C   0  0  0  0  0  0  0  0  0  0  0  0
  -18.1906   22.7382    8.9108 C   0  0  0  0  0  0  0  0  0  0  0  0
  -16.9907   23.4821    8.8362 C   0  0  0  0  0  0  0  0  0  0  0  0
  -15.8712   22.9586    8.1593 C   0  0  0  0  0  0  0  0  0  0  0  0
  -19.5791   20.6004    8.3701 C   0  0  0  0  0  0  0  0  0  0  0  0
  -19.3676   19.4385    9.1974 O   0  0  0  0  0  0  0  0  0  0  0  0
  -19.1262   19.7195   10.0938 H   0  0  0  0  0  0  0  0  0  0  0  0
   -8.2255   26.8828    2.1501 N   0  0  0  0  0  0  0  0  0  0  0  0
   -8.5495   25.7025    1.3991 C   0  0  0  0  0  0  0  0  0  0  0  0
   -7.6931   25.0223    0.9450 O   0  0  0  0  0  0  0  0  0  0  0  0
   -8.9321   27.4600    2.5199 H   0  0  0  0  0  0  0  0  0  0  0  0
  -10.0098   25.3473    1.1993 C   0  0  0  0  0  0  0  0  0  0  0  0
  -10.6643   26.4158    0.3727 C   0  0  0  0  0  0  0  0  0  0  0  0
  -10.6407   25.3315    2.4777 N   0  0  0  0  0  0  0  0  0  0  0  0
  -11.3341   24.1728    2.9856 C   0  0  0  0  0  0  0  0  0  0  0  0
  -11.3900   23.1609    2.3059 O   0  0  0  0  0  0  0  0  0  0  0  0
  -10.6016   26.1421    3.0351 H   0  0  0  0  0  0  0  0  0  0  0  0
  -12.0053   24.2589    4.3574 C   0  0  0  0  0  0  0  0  0  0  0  0
  -13.2578   24.9197    4.2255 N   0  0  0  0  0  0  0  0  0  0  0  0
  -13.8686   24.3726    3.6189 H   0  0  0  0  0  0  0  0  0  0  0  0
  -13.1135   25.8438    3.8184 H   0  0  0  0  0  0  0  0  0  0  0  0
  -12.2092   22.9207    5.0203 C   0  0  0  0  0  0  0  0  0  0  0  0
  -13.5966   22.7564    5.3231 O   0  0  0  0  0  0  0  0  0  0  0  0
  -14.1138   22.8000    4.5036 H   0  0  0  0  0  0  0  0  0  0  0  0
   -6.6833   28.6913    2.1284 C   0  0  0  0  0  0  0  0  0  0  0  0
   -8.0189   29.3560    1.6951 C   0  0  0  0  0  0  0  0  0  0  0  0
   -8.4068   30.5122    2.6522 C   0  0  0  0  0  0  0  0  0  0  0  0
   -8.9722   30.0514    3.9046 N   0  0  0  0  0  0  0  0  0  0  0  0
   -8.5053   30.2224    4.7543 H   0  0  0  0  0  0  0  0  0  0  0  0
  -10.2396   29.3322    3.8923 C   0  0  0  0  0  0  0  0  0  0  0  0
  -11.3437   29.9805    3.5558 N   0  0  0  0  0  0  0  0  0  0  0  0
  -10.2897   28.0668    4.1930 N   0  0  0  0  0  0  0  0  0  0  0  0
  -12.2074   29.5081    3.5429 H   0  0  0  0  0  0  0  0  0  0  0  0
  -11.3011   30.9350    3.3185 H   0  0  0  0  0  0  0  0  0  0  0  0
  -11.1520   27.5918    4.1812 H   0  0  0  0  0  0  0  0  0  0  0  0
 54 52  2  0  0  0
 52 53  1  0  0  0
 52 50  1  0  0  0
 50 49  1  0  0  0
 49 48  1  0  0  0
 48 47  1  0  0  0
 47  1  1  0  0  0
 45 44  1  0  0  0
 44 40  1  0  0  0
  1 30  1  0  0  0
  1  3  1  0  0  0
 30 31  1  0  0  0
 40 41  1  0  0  0
 40 37  1  0  0  0
  3  2  1  0  0  0
  3  4  2  0  0  0
  2  6  1  0  0  0
  7  6  1  0  0  0
  6  9  1  0  0  0
 37 36  1  0  0  0
 37 38  2  0  0  0
 36 34  1  0  0  0
 31 34  1  0  0  0
 31 32  2  0  0  0
 35 34  1  0  0  0
  9 10  2  0  0  0
  9  8  1  0  0  0
  8 12  1  0  0  0
 15 14  2  0  0  0
 15 18  1  0  0  0
 14 13  1  0  0  0
 12 18  1  0  0  0
 18 17  2  0  0  0
 13 19  1  0  0  0
 13 16  2  0  0  0
 19 20  2  0  0  0
 17 16  1  0  0  0
 25 24  2  0  0  0
 25 26  1  0  0  0
 24 21  1  0  0  0
 20 26  1  0  0  0
 26 23  2  0  0  0
 28 27  1  0  0  0
 21 27  1  0  0  0
 21 22  2  0  0  0
 23 22  1  0  0  0
  8 11  1  0  0  0
  2  5  1  0  0  0
 50 51  1  0  0  0
 53 55  1  0  0  0
 53 56  1  0  0  0
 54 57  1  0  0  0
 30 33  1  0  0  0
 36 39  1  0  0  0
 41 42  1  0  0  0
 41 43  1  0  0  0
 45 46  1  0  0  0
 28 29  1  0  0  0
M  END
> <minimizedAffinity>
-8.21714

$$$$
5M25_7DU_A_401


 57 58  0  0  0  0  0  0  0  0999 V2000
   -7.3479   26.4856    3.0049 C   0  0  0  0  0  0  0  0  0  0  0  0
   -5.7302   25.6540    4.8294 N   0  0  0  0  0  0  0  0  0  0  0  0
   -6.9762   25.5205    4.1131 C   0  0  0  0  0  0  0  0  0  0  0  0
   -7.7400   24.6334    4.4066 O   0  0  0  0  0  0  0  0  0  0  0  0
   -5.1173   26.3882    4.5960 H   0  0  0  0  0  0  0  0  0  0  0  0
   -5.3646   24.7406    5.8740 C   0  0  0  0  0  0  0  0  0  0  0  0
   -3.8976   24.6868    6.1236 C   0  0  0  0  0  0  0  0  0  0  0  0
   -7.5282   25.0745    7.2609 N   0  0  0  0  0  0  0  0  0  0  0  0
   -6.0587   25.1273    7.1623 C   0  0  0  0  0  0  0  0  0  0  0  0
   -5.3895   25.4644    8.1105 O   0  0  0  0  0  0  0  0  0  0  0  0
   -8.0890   24.7951    6.5015 H   0  0  0  0  0  0  0  0  0  0  0  0
   -8.1094   25.4598    8.5481 C   0  0  0  0  0  0  0  0  0  0  0  0
  -12.2868   24.4872    8.6185 C   0  0  0  0  0  0  0  0  0  0  0  0
  -11.3329   23.4895    8.8264 C   0  0  0  0  0  0  0  0  0  0  0  0
   -9.9525   23.8002    8.8165 C   0  0  0  0  0  0  0  0  0  0  0  0
  -11.8690   25.8143    8.3918 C   0  0  0  0  0  0  0  0  0  0  0  0
  -10.4967   26.1212    8.3724 C   0  0  0  0  0  0  0  0  0  0  0  0
   -9.5419   25.1196    8.5812 C   0  0  0  0  0  0  0  0  0  0  0  0
  -13.6866   24.1648    8.6380 N   0  0  0  0  0  0  0  0  0  0  0  0
  -14.1868   23.1171    7.8484 N   0  0  0  0  0  0  0  0  0  0  0  0
  -18.1973   21.6636    8.3174 C   0  0  0  0  0  0  0  0  0  0  0  0
  -17.8206   22.8942    8.8476 C   0  0  0  0  0  0  0  0  0  0  0  0
  -16.4854   23.3664    8.6897 C   0  0  0  0  0  0  0  0  0  0  0  0
  -17.2300   20.8833    7.6076 C   0  0  0  0  0  0  0  0  0  0  0  0
  -15.9071   21.3556    7.4476 C   0  0  0  0  0  0  0  0  0  0  0  0
  -15.5258   22.5983    7.9914 C   0  0  0  0  0  0  0  0  0  0  0  0
  -19.6569   21.1774    8.5099 C   0  0  0  0  0  0  0  0  0  0  0  0
  -20.4548   22.2362    9.0766 O   0  0  0  0  0  0  0  0  0  0  0  0
  -20.4502   23.0000    8.4787 H   0  0  0  0  0  0  0  0  0  0  0  0
   -8.6670   26.2249    2.5332 N   0  0  0  0  0  0  0  0  0  0  0  0
   -8.8087   25.4470    1.3346 C   0  0  0  0  0  0  0  0  0  0  0  0
   -7.8544   25.0525    0.7551 O   0  0  0  0  0  0  0  0  0  0  0  0
   -9.4554   26.5670    3.0134 H   0  0  0  0  0  0  0  0  0  0  0  0
  -10.2047   25.1433    0.8270 C   0  0  0  0  0  0  0  0  0  0  0  0
  -10.6224   26.2217   -0.1299 C   0  0  0  0  0  0  0  0  0  0  0  0
  -11.0963   25.1722    1.9392 N   0  0  0  0  0  0  0  0  0  0  0  0
  -11.4960   23.9781    2.6434 C   0  0  0  0  0  0  0  0  0  0  0  0
  -11.0617   22.8958    2.2845 O   0  0  0  0  0  0  0  0  0  0  0  0
  -11.4527   26.0399    2.2380 H   0  0  0  0  0  0  0  0  0  0  0  0
  -12.4796   24.1045    3.8080 C   0  0  0  0  0  0  0  0  0  0  0  0
  -12.6206   22.8390    4.4417 N   0  0  0  0  0  0  0  0  0  0  0  0
  -11.7221   22.5508    4.8290 H   0  0  0  0  0  0  0  0  0  0  0  0
  -12.9331   22.1494    3.7582 H   0  0  0  0  0  0  0  0  0  0  0  0
  -12.0827   25.1383    4.8305 C   0  0  0  0  0  0  0  0  0  0  0  0
  -10.6799   25.3900    4.7195 O   0  0  0  0  0  0  0  0  0  0  0  0
  -10.4793   25.7151    3.8278 H   0  0  0  0  0  0  0  0  0  0  0  0
   -7.3267   27.9169    3.5284 C   0  0  0  0  0  0  0  0  0  0  0  0
   -7.6735   27.9767    5.0415 C   0  0  0  0  0  0  0  0  0  0  0  0
   -8.8444   28.9564    5.3106 C   0  0  0  0  0  0  0  0  0  0  0  0
  -10.1462   28.3768    5.0458 N   0  0  0  0  0  0  0  0  0  0  0  0
  -10.5156   27.6884    5.6448 H   0  0  0  0  0  0  0  0  0  0  0  0
  -10.9022   28.8242    3.8831 C   0  0  0  0  0  0  0  0  0  0  0  0
  -11.2859   30.0894    3.8134 N   0  0  0  0  0  0  0  0  0  0  0  0
  -11.1869   27.9999    2.9168 N   0  0  0  0  0  0  0  0  0  0  0  0
  -11.7972   30.4064    3.0341 H   0  0  0  0  0  0  0  0  0  0  0  0
  -11.0598   30.7131    4.5408 H   0  0  0  0  0  0  0  0  0  0  0  0
  -11.6983   28.3141    2.1364 H   0  0  0  0  0  0  0  0  0  0  0  0
 54 52  2  0  0  0
 52 53  1  0  0  0
 52 50  1  0  0  0
 50 49  1  0  0  0
 49 48  1  0  0  0
 48 47  1  0  0  0
 47  1  1  0  0  0
 45 44  1  0  0  0
 44 40  1  0  0  0
  1 30  1  0  0  0
  1  3  1  0  0  0
 30 31  1  0  0  0
 40 41  1  0  0  0
 40 37  1  0  0  0
  3  2  1  0  0  0
  3  4  2  0  0  0
  2  6  1  0  0  0
  7  6  1  0  0  0
  6  9  1  0  0  0
 37 36  1  0  0  0
 37 38  2  0  0  0
 36 34  1  0  0  0
 31 34  1  0  0  0
 31 32  2  0  0  0
 35 34  1  0  0  0
  9 10  2  0  0  0
  9  8  1  0  0  0
  8 12  1  0  0  0
 15 14  2  0  0  0
 15 18  1  0  0  0
 14 13  1  0  0  0
 12 18  1  0  0  0
 18 17  2  0  0  0
 13 19  1  0  0  0
 13 16  2  0  0  0
 19 20  2  0  0  0
 17 16  1  0  0  0
 25 24  2  0  0  0
 25 26  1  0  0  0
 24 21  1  0  0  0
 20 26  1  0  0  0
 26 23  2  0  0  0
 28 27  1  0  0  0
 21 27  1  0  0  0
 21 22  2  0  0  0
 23 22  1  0  0  0
  8 11  1  0  0  0
  2  5  1  0  0  0
 50 51  1  0  0  0
 53 55  1  0  0  0
 53 56  1  0  0  0
 54 57  1  0  0  0
 30 33  1  0  0  0
 36 39  1  0  0  0
 41 42  1  0  0  0
 41 43  1  0  0  0
 45 46  1  0  0  0
 28 29  1  0  0  0
M  END
> <minimizedAffinity>
-7.80895

$$$$
5M25_7DU_A_401


 57 58  0  0  0  0  0  0  0  0999 V2000
  -10.2791   26.9598    3.0536 C   0  0  0  0  0  0  0  0  0  0  0  0
  -11.2401   29.2404    3.7696 N   0  0  0  0  0  0  0  0  0  0  0  0
  -11.2768   27.7986    3.8273 C   0  0  0  0  0  0  0  0  0  0  0  0
  -12.1208   27.2505    4.4934 O   0  0  0  0  0  0  0  0  0  0  0  0
  -10.5588   29.6825    3.2131 H   0  0  0  0  0  0  0  0  0  0  0  0
  -12.1740   30.0440    4.5050 C   0  0  0  0  0  0  0  0  0  0  0  0
  -13.5713   29.9327    4.0026 C   0  0  0  0  0  0  0  0  0  0  0  0
  -13.3252   28.9938    6.5757 N   0  0  0  0  0  0  0  0  0  0  0  0
  -12.1544   29.6491    5.9661 C   0  0  0  0  0  0  0  0  0  0  0  0
  -11.1606   29.8657    6.6187 O   0  0  0  0  0  0  0  0  0  0  0  0
  -14.1404   28.8026    6.0578 H   0  0  0  0  0  0  0  0  0  0  0  0
  -13.2115   28.6423    7.9923 C   0  0  0  0  0  0  0  0  0  0  0  0
  -15.3107   24.9882    8.7937 C   0  0  0  0  0  0  0  0  0  0  0  0
  -15.7219   26.1778    9.3974 C   0  0  0  0  0  0  0  0  0  0  0  0
  -15.0442   27.3912    9.1320 C   0  0  0  0  0  0  0  0  0  0  0  0
  -14.2072   24.9972    7.9164 C   0  0  0  0  0  0  0  0  0  0  0  0
  -13.5278   26.2016    7.6603 C   0  0  0  0  0  0  0  0  0  0  0  0
  -13.9418   27.3932    8.2664 C   0  0  0  0  0  0  0  0  0  0  0  0
  -16.0089   23.7619    9.0622 N   0  0  0  0  0  0  0  0  0  0  0  0
  -16.1330   22.7805    8.0657 N   0  0  0  0  0  0  0  0  0  0  0  0
  -17.6574   18.8393    8.8138 C   0  0  0  0  0  0  0  0  0  0  0  0
  -18.4525   19.8049    8.2033 C   0  0  0  0  0  0  0  0  0  0  0  0
  -17.9382   21.1120    7.9626 C   0  0  0  0  0  0  0  0  0  0  0  0
  -16.3175   19.1734    9.1899 C   0  0  0  0  0  0  0  0  0  0  0  0
  -15.8074   20.4691    8.9458 C   0  0  0  0  0  0  0  0  0  0  0  0
  -16.6163   21.4475    8.3344 C   0  0  0  0  0  0  0  0  0  0  0  0
  -18.2484   17.4280    9.0646 C   0  0  0  0  0  0  0  0  0  0  0  0
  -17.3472   16.4229    8.5578 O   0  0  0  0  0  0  0  0  0  0  0  0
  -16.4933   16.4955    9.0122 H   0  0  0  0  0  0  0  0  0  0  0  0
   -8.9755   27.5296    3.1329 N   0  0  0  0  0  0  0  0  0  0  0  0
   -8.4002   28.0572    1.9276 C   0  0  0  0  0  0  0  0  0  0  0  0
   -8.9909   28.0020    0.9027 O   0  0  0  0  0  0  0  0  0  0  0  0
   -8.4852   27.5605    3.9861 H   0  0  0  0  0  0  0  0  0  0  0  0
   -7.0215   28.6843    1.9952 C   0  0  0  0  0  0  0  0  0  0  0  0
   -5.9880   27.5958    1.9795 C   0  0  0  0  0  0  0  0  0  0  0  0
   -6.9111   29.3783    3.2357 N   0  0  0  0  0  0  0  0  0  0  0  0
   -7.2567   30.7718    3.3777 C   0  0  0  0  0  0  0  0  0  0  0  0
   -7.6607   31.3919    2.4075 O   0  0  0  0  0  0  0  0  0  0  0  0
   -6.5866   28.8880    4.0253 H   0  0  0  0  0  0  0  0  0  0  0  0
   -7.0784   31.4393    4.7424 C   0  0  0  0  0  0  0  0  0  0  0  0
   -7.3975   32.8211    4.6333 N   0  0  0  0  0  0  0  0  0  0  0  0
   -8.3768   32.9239    4.3671 H   0  0  0  0  0  0  0  0  0  0  0  0
   -6.8051   33.2518    3.9234 H   0  0  0  0  0  0  0  0  0  0  0  0
   -7.9059   30.8163    5.8374 C   0  0  0  0  0  0  0  0  0  0  0  0
   -8.7318   29.7944    5.2744 O   0  0  0  0  0  0  0  0  0  0  0  0
   -8.1728   29.1189    4.8595 H   0  0  0  0  0  0  0  0  0  0  0  0
  -10.2001   25.5590    3.6490 C   0  0  0  0  0  0  0  0  0  0  0  0
  -10.1008   24.4729    2.5427 C   0  0  0  0  0  0  0  0  0  0  0  0
  -11.4064   24.3988    1.7101 C   0  0  0  0  0  0  0  0  0  0  0  0
  -11.1694   24.2325    0.2900 N   0  0  0  0  0  0  0  0  0  0  0  0
  -11.2552   23.3454   -0.1283 H   0  0  0  0  0  0  0  0  0  0  0  0
  -10.8027   25.3928   -0.5119 C   0  0  0  0  0  0  0  0  0  0  0  0
  -11.3757   26.5584   -0.2560 N   0  0  0  0  0  0  0  0  0  0  0  0
   -9.9146   25.2940   -1.4582 N   0  0  0  0  0  0  0  0  0  0  0  0
  -11.1382   27.3513   -0.7891 H   0  0  0  0  0  0  0  0  0  0  0  0
  -12.0393   26.6325    0.4675 H   0  0  0  0  0  0  0  0  0  0  0  0
   -9.6752   26.0850   -1.9932 H   0  0  0  0  0  0  0  0  0  0  0  0
 54 52  2  0  0  0
 52 53  1  0  0  0
 52 50  1  0  0  0
 50 49  1  0  0  0
 49 48  1  0  0  0
 48 47  1  0  0  0
 47  1  1  0  0  0
 45 44  1  0  0  0
 44 40  1  0  0  0
  1 30  1  0  0  0
  1  3  1  0  0  0
 30 31  1  0  0  0
 40 41  1  0  0  0
 40 37  1  0  0  0
  3  2  1  0  0  0
  3  4  2  0  0  0
  2  6  1  0  0  0
  7  6  1  0  0  0
  6  9  1  0  0  0
 37 36  1  0  0  0
 37 38  2  0  0  0
 36 34  1  0  0  0
 31 34  1  0  0  0
 31 32  2  0  0  0
 35 34  1  0  0  0
  9 10  2  0  0  0
  9  8  1  0  0  0
  8 12  1  0  0  0
 15 14  2  0  0  0
 15 18  1  0  0  0
 14 13  1  0  0  0
 12 18  1  0  0  0
 18 17  2  0  0  0
 13 19  1  0  0  0
 13 16  2  0  0  0
 19 20  2  0  0  0
 17 16  1  0  0  0
 25 24  2  0  0  0
 25 26  1  0  0  0
 24 21  1  0  0  0
 20 26  1  0  0  0
 26 23  2  0  0  0
 28 27  1  0  0  0
 21 27  1  0  0  0
 21 22  2  0  0  0
 23 22  1  0  0  0
  8 11  1  0  0  0
  2  5  1  0  0  0
 50 51  1  0  0  0
 53 55  1  0  0  0
 53 56  1  0  0  0
 54 57  1  0  0  0
 30 33  1  0  0  0
 36 39  1  0  0  0
 41 42  1  0  0  0
 41 43  1  0  0  0
 45 46  1  0  0  0
 28 29  1  0  0  0
M  END
> <minimizedAffinity>
-7.78605

$$$$
5M25_7DU_A_401


 57 58  0  0  0  0  0  0  0  0999 V2000
   -9.6791   25.5014    2.4235 C   0  0  0  0  0  0  0  0  0  0  0  0
   -7.7888   25.5907    4.1718 N   0  0  0  0  0  0  0  0  0  0  0  0
   -8.4682   24.8953    3.1049 C   0  0  0  0  0  0  0  0  0  0  0  0
   -8.0737   23.8097    2.7554 O   0  0  0  0  0  0  0  0  0  0  0  0
   -8.1235   26.4696    4.4631 H   0  0  0  0  0  0  0  0  0  0  0  0
   -6.6365   25.0301    4.8173 C   0  0  0  0  0  0  0  0  0  0  0  0
   -5.4310   25.9000    4.7317 C   0  0  0  0  0  0  0  0  0  0  0  0
   -8.2337   25.1777    6.8528 N   0  0  0  0  0  0  0  0  0  0  0  0
   -6.9399   24.7695    6.2772 C   0  0  0  0  0  0  0  0  0  0  0  0
   -6.1125   24.2094    6.9571 O   0  0  0  0  0  0  0  0  0  0  0  0
   -8.9225   25.6280    6.3125 H   0  0  0  0  0  0  0  0  0  0  0  0
   -8.4399   24.8780    8.2708 C   0  0  0  0  0  0  0  0  0  0  0  0
  -12.4325   23.4515    8.9234 C   0  0  0  0  0  0  0  0  0  0  0  0
  -11.7549   23.1207    7.7486 C   0  0  0  0  0  0  0  0  0  0  0  0
  -10.4337   23.5761    7.5272 C   0  0  0  0  0  0  0  0  0  0  0  0
  -11.7949   24.2506    9.8941 C   0  0  0  0  0  0  0  0  0  0  0  0
  -10.4851   24.7112    9.6695 C   0  0  0  0  0  0  0  0  0  0  0  0
   -9.8075   24.3783    8.4911 C   0  0  0  0  0  0  0  0  0  0  0  0
  -13.7708   22.9786    9.1441 N   0  0  0  0  0  0  0  0  0  0  0  0
  -14.7901   23.2714    8.2239 N   0  0  0  0  0  0  0  0  0  0  0  0
  -18.6098   21.3172    8.3087 C   0  0  0  0  0  0  0  0  0  0  0  0
  -17.5116   20.7057    7.7108 C   0  0  0  0  0  0  0  0  0  0  0  0
  -16.2483   21.3645    7.6845 C   0  0  0  0  0  0  0  0  0  0  0  0
  -18.4524   22.6105    8.9012 C   0  0  0  0  0  0  0  0  0  0  0  0
  -17.1972   23.2604    8.8786 C   0  0  0  0  0  0  0  0  0  0  0  0
  -16.0884   22.6430    8.2662 C   0  0  0  0  0  0  0  0  0  0  0  0
  -19.9710   20.5749    8.3172 C   0  0  0  0  0  0  0  0  0  0  0  0
  -20.0381   19.6886    9.4525 O   0  0  0  0  0  0  0  0  0  0  0  0
  -19.9514   20.2032   10.2701 H   0  0  0  0  0  0  0  0  0  0  0  0
  -10.5142   26.1572    3.3738 N   0  0  0  0  0  0  0  0  0  0  0  0
  -11.3579   25.3409    4.2007 C   0  0  0  0  0  0  0  0  0  0  0  0
  -11.3644   24.1631    4.0791 O   0  0  0  0  0  0  0  0  0  0  0  0
  -10.5128   27.1379    3.4604 H   0  0  0  0  0  0  0  0  0  0  0  0
  -12.2402   26.0190    5.2305 C   0  0  0  0  0  0  0  0  0  0  0  0
  -13.5765   25.3358    5.2555 C   0  0  0  0  0  0  0  0  0  0  0  0
  -12.4436   27.3689    4.8193 N   0  0  0  0  0  0  0  0  0  0  0  0
  -11.5310   28.4309    5.1667 C   0  0  0  0  0  0  0  0  0  0  0  0
  -10.5432   28.1782    5.8371 O   0  0  0  0  0  0  0  0  0  0  0  0
  -13.2370   27.5845    4.2778 H   0  0  0  0  0  0  0  0  0  0  0  0
  -11.8471   29.8542    4.7041 C   0  0  0  0  0  0  0  0  0  0  0  0
  -10.8977   30.2492    3.7215 N   0  0  0  0  0  0  0  0  0  0  0  0
  -10.9754   29.6380    2.9086 H   0  0  0  0  0  0  0  0  0  0  0  0
   -9.9572   30.1800    4.1102 H   0  0  0  0  0  0  0  0  0  0  0  0
  -13.2404   30.0198    4.1533 C   0  0  0  0  0  0  0  0  0  0  0  0
  -13.1592   30.2911    2.7522 O   0  0  0  0  0  0  0  0  0  0  0  0
  -12.7142   29.5541    2.3054 H   0  0  0  0  0  0  0  0  0  0  0  0
   -9.2384   26.5478    1.4068 C   0  0  0  0  0  0  0  0  0  0  0  0
   -9.8856   26.3010    0.0162 C   0  0  0  0  0  0  0  0  0  0  0  0
  -10.6962   24.9797    0.0009 C   0  0  0  0  0  0  0  0  0  0  0  0
  -10.9772   24.4977   -1.3367 N   0  0  0  0  0  0  0  0  0  0  0  0
  -10.3321   23.9181   -1.8026 H   0  0  0  0  0  0  0  0  0  0  0  0
  -12.2253   24.8805   -1.9845 C   0  0  0  0  0  0  0  0  0  0  0  0
  -13.1025   23.9396   -2.2971 N   0  0  0  0  0  0  0  0  0  0  0  0
  -12.4858   26.1295   -2.2416 N   0  0  0  0  0  0  0  0  0  0  0  0
  -13.9501   24.1827   -2.7350 H   0  0  0  0  0  0  0  0  0  0  0  0
  -12.9073   22.9968   -2.0917 H   0  0  0  0  0  0  0  0  0  0  0  0
  -13.3325   26.3757   -2.6796 H   0  0  0  0  0  0  0  0  0  0  0  0
 54 52  2  0  0  0
 52 53  1  0  0  0
 52 50  1  0  0  0
 50 49  1  0  0  0
 49 48  1  0  0  0
 48 47  1  0  0  0
 47  1  1  0  0  0
 45 44  1  0  0  0
 44 40  1  0  0  0
  1 30  1  0  0  0
  1  3  1  0  0  0
 30 31  1  0  0  0
 40 41  1  0  0  0
 40 37  1  0  0  0
  3  2  1  0  0  0
  3  4  2  0  0  0
  2  6  1  0  0  0
  7  6  1  0  0  0
  6  9  1  0  0  0
 37 36  1  0  0  0
 37 38  2  0  0  0
 36 34  1  0  0  0
 31 34  1  0  0  0
 31 32  2  0  0  0
 35 34  1  0  0  0
  9 10  2  0  0  0
  9  8  1  0  0  0
  8 12  1  0  0  0
 15 14  2  0  0  0
 15 18  1  0  0  0
 14 13  1  0  0  0
 12 18  1  0  0  0
 18 17  2  0  0  0
 13 19  1  0  0  0
 13 16  2  0  0  0
 19 20  2  0  0  0
 17 16  1  0  0  0
 25 24  2  0  0  0
 25 26  1  0  0  0
 24 21  1  0  0  0
 20 26  1  0  0  0
 26 23  2  0  0  0
 28 27  1  0  0  0
 21 27  1  0  0  0
 21 22  2  0  0  0
 23 22  1  0  0  0
  8 11  1  0  0  0
  2  5  1  0  0  0
 50 51  1  0  0  0
 53 55  1  0  0  0
 53 56  1  0  0  0
 54 57  1  0  0  0
 30 33  1  0  0  0
 36 39  1  0  0  0
 41 42  1  0  0  0
 41 43  1  0  0  0
 45 46  1  0  0  0
 28 29  1  0  0  0
M  END
> <minimizedAffinity>
-7.53032

$$$$
5M25_7DU_A_401


 57 58  0  0  0  0  0  0  0  0999 V2000
   -6.6210   26.0538    3.9130 C   0  0  0  0  0  0  0  0  0  0  0  0
   -8.1640   28.1009    3.6558 N   0  0  0  0  0  0  0  0  0  0  0  0
   -6.8742   27.5463    3.9910 C   0  0  0  0  0  0  0  0  0  0  0  0
   -5.9853   28.2798    4.3489 O   0  0  0  0  0  0  0  0  0  0  0  0
   -8.8902   27.4967    3.3785 H   0  0  0  0  0  0  0  0  0  0  0  0
   -8.4117   29.5129    3.7176 C   0  0  0  0  0  0  0  0  0  0  0  0
   -8.3941   30.1737    2.3833 C   0  0  0  0  0  0  0  0  0  0  0  0
  -10.9974   29.3403    3.7022 N   0  0  0  0  0  0  0  0  0  0  0  0
   -9.7546   29.7722    4.3661 C   0  0  0  0  0  0  0  0  0  0  0  0
   -9.7900   30.3241    5.4407 O   0  0  0  0  0  0  0  0  0  0  0  0
  -10.9876   28.8827    2.8306 H   0  0  0  0  0  0  0  0  0  0  0  0
  -12.2473   29.6279    4.4080 C   0  0  0  0  0  0  0  0  0  0  0  0
  -13.3703   26.2515    6.8039 C   0  0  0  0  0  0  0  0  0  0  0  0
  -13.4092   27.5374    7.3458 C   0  0  0  0  0  0  0  0  0  0  0  0
  -13.0517   28.6598    6.5618 C   0  0  0  0  0  0  0  0  0  0  0  0
  -12.9663   26.0713    5.4655 C   0  0  0  0  0  0  0  0  0  0  0  0
  -12.6017   27.1861    4.6894 C   0  0  0  0  0  0  0  0  0  0  0  0
  -12.6415   28.4745    5.2344 C   0  0  0  0  0  0  0  0  0  0  0  0
  -13.7423   25.1180    7.6041 N   0  0  0  0  0  0  0  0  0  0  0  0
  -14.3330   23.9908    7.0107 N   0  0  0  0  0  0  0  0  0  0  0  0
  -14.8041   20.3028    9.1539 C   0  0  0  0  0  0  0  0  0  0  0  0
  -13.7120   21.1311    9.3958 C   0  0  0  0  0  0  0  0  0  0  0  0
  -13.5625   22.3520    8.6762 C   0  0  0  0  0  0  0  0  0  0  0  0
  -15.7764   20.6956    8.1799 C   0  0  0  0  0  0  0  0  0  0  0  0
  -15.6292   21.9096    7.4704 C   0  0  0  0  0  0  0  0  0  0  0  0
  -14.5189   22.7431    7.7115 C   0  0  0  0  0  0  0  0  0  0  0  0
  -14.9352   18.9797    9.9514 C   0  0  0  0  0  0  0  0  0  0  0  0
  -15.6582   18.0070    9.1703 O   0  0  0  0  0  0  0  0  0  0  0  0
  -15.1792   17.8346    8.3447 H   0  0  0  0  0  0  0  0  0  0  0  0
   -6.4379   25.5067    5.2159 N   0  0  0  0  0  0  0  0  0  0  0  0
   -5.1255   25.0442    5.5702 C   0  0  0  0  0  0  0  0  0  0  0  0
   -4.2341   25.1049    4.7930 O   0  0  0  0  0  0  0  0  0  0  0  0
   -7.1867   25.4477    5.8524 H   0  0  0  0  0  0  0  0  0  0  0  0
   -4.9063   24.4757    6.9586 C   0  0  0  0  0  0  0  0  0  0  0  0
   -3.9625   23.3121    6.8672 C   0  0  0  0  0  0  0  0  0  0  0  0
   -6.1573   23.9910    7.4411 N   0  0  0  0  0  0  0  0  0  0  0  0
   -6.8070   24.5454    8.6038 C   0  0  0  0  0  0  0  0  0  0  0  0
   -6.2771   25.4648    9.2064 O   0  0  0  0  0  0  0  0  0  0  0  0
   -6.5943   23.2498    6.9628 H   0  0  0  0  0  0  0  0  0  0  0  0
   -8.1348   23.9410    9.0638 C   0  0  0  0  0  0  0  0  0  0  0  0
   -8.4591   24.4484   10.3523 N   0  0  0  0  0  0  0  0  0  0  0  0
   -8.5846   25.4592   10.2980 H   0  0  0  0  0  0  0  0  0  0  0  0
   -7.7028   24.2341   11.0023 H   0  0  0  0  0  0  0  0  0  0  0  0
   -9.2803   24.1979    8.1184 C   0  0  0  0  0  0  0  0  0  0  0  0
   -8.9124   25.2398    7.2115 O   0  0  0  0  0  0  0  0  0  0  0  0
   -8.1267   24.9701    6.7107 H   0  0  0  0  0  0  0  0  0  0  0  0
   -7.8213   25.3513    3.2894 C   0  0  0  0  0  0  0  0  0  0  0  0
   -7.7096   25.2962    1.7408 C   0  0  0  0  0  0  0  0  0  0  0  0
   -8.9836   25.8656    1.0656 C   0  0  0  0  0  0  0  0  0  0  0  0
   -9.2293   25.3100   -0.2503 N   0  0  0  0  0  0  0  0  0  0  0  0
   -8.4798   25.1331   -0.8636 H   0  0  0  0  0  0  0  0  0  0  0  0
  -10.5979   25.0163   -0.6556 C   0  0  0  0  0  0  0  0  0  0  0  0
  -11.0991   25.6267   -1.7180 N   0  0  0  0  0  0  0  0  0  0  0  0
  -11.3176   24.1562    0.0051 N   0  0  0  0  0  0  0  0  0  0  0  0
  -12.0221   25.4386   -2.0041 H   0  0  0  0  0  0  0  0  0  0  0  0
  -10.5487   26.2688   -2.2221 H   0  0  0  0  0  0  0  0  0  0  0  0
  -12.2410   23.9662   -0.2785 H   0  0  0  0  0  0  0  0  0  0  0  0
 54 52  2  0  0  0
 52 53  1  0  0  0
 52 50  1  0  0  0
 50 49  1  0  0  0
 49 48  1  0  0  0
 48 47  1  0  0  0
 47  1  1  0  0  0
 45 44  1  0  0  0
 44 40  1  0  0  0
  1 30  1  0  0  0
  1  3  1  0  0  0
 30 31  1  0  0  0
 40 41  1  0  0  0
 40 37  1  0  0  0
  3  2  1  0  0  0
  3  4  2  0  0  0
  2  6  1  0  0  0
  7  6  1  0  0  0
  6  9  1  0  0  0
 37 36  1  0  0  0
 37 38  2  0  0  0
 36 34  1  0  0  0
 31 34  1  0  0  0
 31 32  2  0  0  0
 35 34  1  0  0  0
  9 10  2  0  0  0
  9  8  1  0  0  0
  8 12  1  0  0  0
 15 14  2  0  0  0
 15 18  1  0  0  0
 14 13  1  0  0  0
 12 18  1  0  0  0
 18 17  2  0  0  0
 13 19  1  0  0  0
 13 16  2  0  0  0
 19 20  2  0  0  0
 17 16  1  0  0  0
 25 24  2  0  0  0
 25 26  1  0  0  0
 24 21  1  0  0  0
 20 26  1  0  0  0
 26 23  2  0  0  0
 28 27  1  0  0  0
 21 27  1  0  0  0
 21 22  2  0  0  0
 23 22  1  0  0  0
  8 11  1  0  0  0
  2  5  1  0  0  0
 50 51  1  0  0  0
 53 55  1  0  0  0
 53 56  1  0  0  0
 54 57  1  0  0  0
 30 33  1  0  0  0
 36 39  1  0  0  0
 41 42  1  0  0  0
 41 43  1  0  0  0
 45 46  1  0  0  0
 28 29  1  0  0  0
M  END
> <minimizedAffinity>
-7.52143

$$$$
5M25_7DU_A_401


 57 58  0  0  0  0  0  0  0  0999 V2000
   -9.3121   27.3818    2.4749 C   0  0  0  0  0  0  0  0  0  0  0  0
  -11.2726   28.5222    3.6969 N   0  0  0  0  0  0  0  0  0  0  0  0
   -9.8880   28.5235    3.2889 C   0  0  0  0  0  0  0  0  0  0  0  0
   -9.1737   29.4421    3.6086 O   0  0  0  0  0  0  0  0  0  0  0  0
  -11.8475   27.7633    3.4461 H   0  0  0  0  0  0  0  0  0  0  0  0
  -11.8301   29.6021    4.4598 C   0  0  0  0  0  0  0  0  0  0  0  0
  -13.1834   30.0150    3.9956 C   0  0  0  0  0  0  0  0  0  0  0  0
  -13.2337   29.0768    6.5740 N   0  0  0  0  0  0  0  0  0  0  0  0
  -11.9203   29.2090    5.9188 C   0  0  0  0  0  0  0  0  0  0  0  0
  -10.9015   28.9914    6.5314 O   0  0  0  0  0  0  0  0  0  0  0  0
  -14.0742   29.2426    6.0890 H   0  0  0  0  0  0  0  0  0  0  0  0
  -13.2219   28.6858    7.9848 C   0  0  0  0  0  0  0  0  0  0  0  0
  -15.4786   25.0808    8.5438 C   0  0  0  0  0  0  0  0  0  0  0  0
  -15.7321   26.1958    9.3446 C   0  0  0  0  0  0  0  0  0  0  0  0
  -15.0018   27.3940    9.1621 C   0  0  0  0  0  0  0  0  0  0  0  0
  -14.4825   25.1496    7.5487 C   0  0  0  0  0  0  0  0  0  0  0  0
  -13.7501   26.3374    7.3739 C   0  0  0  0  0  0  0  0  0  0  0  0
  -14.0059   27.4542    8.1776 C   0  0  0  0  0  0  0  0  0  0  0  0
  -16.2299   23.8707    8.7303 N   0  0  0  0  0  0  0  0  0  0  0  0
  -16.0276   22.7696    7.8829 N   0  0  0  0  0  0  0  0  0  0  0  0
  -17.5679   18.8541    8.7269 C   0  0  0  0  0  0  0  0  0  0  0  0
  -16.2321   19.1601    8.9702 C   0  0  0  0  0  0  0  0  0  0  0  0
  -15.7293   20.4622    8.6830 C   0  0  0  0  0  0  0  0  0  0  0  0
  -18.4296   19.8638    8.1920 C   0  0  0  0  0  0  0  0  0  0  0  0
  -17.9303   21.1566    7.9123 C   0  0  0  0  0  0  0  0  0  0  0  0
  -16.5759   21.4622    8.1523 C   0  0  0  0  0  0  0  0  0  0  0  0
  -18.0824   17.4269    9.0472 C   0  0  0  0  0  0  0  0  0  0  0  0
  -17.0272   16.4673    8.8356 O   0  0  0  0  0  0  0  0  0  0  0  0
  -16.2801   16.6744    9.4186 H   0  0  0  0  0  0  0  0  0  0  0  0
   -8.5056   26.5386    3.2929 N   0  0  0  0  0  0  0  0  0  0  0  0
   -7.0817   26.5968    3.1166 C   0  0  0  0  0  0  0  0  0  0  0  0
   -6.6031   27.3136    2.3046 O   0  0  0  0  0  0  0  0  0  0  0  0
   -8.9114   25.9358    3.9572 H   0  0  0  0  0  0  0  0  0  0  0  0
   -6.2056   25.7207    3.9905 C   0  0  0  0  0  0  0  0  0  0  0  0
   -7.0728   24.7413    4.7266 C   0  0  0  0  0  0  0  0  0  0  0  0
   -5.5671   26.5547    4.9546 N   0  0  0  0  0  0  0  0  0  0  0  0
   -4.3251   26.1915    5.5926 C   0  0  0  0  0  0  0  0  0  0  0  0
   -3.7896   25.1334    5.3050 O   0  0  0  0  0  0  0  0  0  0  0  0
   -5.9898   27.4109    5.1942 H   0  0  0  0  0  0  0  0  0  0  0  0
   -3.7292   27.1375    6.6364 C   0  0  0  0  0  0  0  0  0  0  0  0
   -3.2743   28.3205    5.9910 N   0  0  0  0  0  0  0  0  0  0  0  0
   -4.0656   28.7985    5.5600 H   0  0  0  0  0  0  0  0  0  0  0  0
   -2.5929   28.0754    5.2727 H   0  0  0  0  0  0  0  0  0  0  0  0
   -4.6854   27.5033    7.7426 C   0  0  0  0  0  0  0  0  0  0  0  0
   -5.4750   28.6201    7.3269 O   0  0  0  0  0  0  0  0  0  0  0  0
   -5.9712   28.3854    6.5271 H   0  0  0  0  0  0  0  0  0  0  0  0
  -10.4369   26.5239    1.9076 C   0  0  0  0  0  0  0  0  0  0  0  0
   -9.8858   25.3697    1.0259 C   0  0  0  0  0  0  0  0  0  0  0  0
  -11.0287   24.6494    0.2655 C   0  0  0  0  0  0  0  0  0  0  0  0
  -10.9559   24.8222   -1.1716 N   0  0  0  0  0  0  0  0  0  0  0  0
  -10.0852   24.8101   -1.6309 H   0  0  0  0  0  0  0  0  0  0  0  0
  -12.1858   25.0141   -1.9294 C   0  0  0  0  0  0  0  0  0  0  0  0
  -12.5245   26.2370   -2.3067 N   0  0  0  0  0  0  0  0  0  0  0  0
  -12.9376   23.9998   -2.2461 N   0  0  0  0  0  0  0  0  0  0  0  0
  -13.3525   26.3825   -2.8191 H   0  0  0  0  0  0  0  0  0  0  0  0
  -11.9485   27.0010   -2.0748 H   0  0  0  0  0  0  0  0  0  0  0  0
  -13.7662   24.1422   -2.7583 H   0  0  0  0  0  0  0  0  0  0  0  0
 54 52  2  0  0  0
 52 53  1  0  0  0
 52 50  1  0  0  0
 50 49  1  0  0  0
 49 48  1  0  0  0
 48 47  1  0  0  0
 47  1  1  0  0  0
 45 44  1  0  0  0
 44 40  1  0  0  0
  1 30  1  0  0  0
  1  3  1  0  0  0
 30 31  1  0  0  0
 40 41  1  0  0  0
 40 37  1  0  0  0
  3  2  1  0  0  0
  3  4  2  0  0  0
  2  6  1  0  0  0
  7  6  1  0  0  0
  6  9  1  0  0  0
 37 36  1  0  0  0
 37 38  2  0  0  0
 36 34  1  0  0  0
 31 34  1  0  0  0
 31 32  2  0  0  0
 35 34  1  0  0  0
  9 10  2  0  0  0
  9  8  1  0  0  0
  8 12  1  0  0  0
 15 14  2  0  0  0
 15 18  1  0  0  0
 14 13  1  0  0  0
 12 18  1  0  0  0
 18 17  2  0  0  0
 13 19  1  0  0  0
 13 16  2  0  0  0
 19 20  2  0  0  0
 17 16  1  0  0  0
 25 24  2  0  0  0
 25 26  1  0  0  0
 24 21  1  0  0  0
 20 26  1  0  0  0
 26 23  2  0  0  0
 28 27  1  0  0  0
 21 27  1  0  0  0
 21 22  2  0  0  0
 23 22  1  0  0  0
  8 11  1  0  0  0
  2  5  1  0  0  0
 50 51  1  0  0  0
 53 55  1  0  0  0
 53 56  1  0  0  0
 54 57  1  0  0  0
 30 33  1  0  0  0
 36 39  1  0  0  0
 41 42  1  0  0  0
 41 43  1  0  0  0
 45 46  1  0  0  0
 28 29  1  0  0  0
M  END
> <minimizedAffinity>
-7.37942

$$$$
5M25_7DU_A_401


 57 58  0  0  0  0  0  0  0  0999 V2000
   -6.9184   26.1188    3.2603 C   0  0  0  0  0  0  0  0  0  0  0  0
   -7.3584   27.0657    5.6155 N   0  0  0  0  0  0  0  0  0  0  0  0
   -6.6993   26.1079    4.7601 C   0  0  0  0  0  0  0  0  0  0  0  0
   -5.9701   25.2781    5.2460 O   0  0  0  0  0  0  0  0  0  0  0  0
   -7.9638   27.7312    5.2157 H   0  0  0  0  0  0  0  0  0  0  0  0
   -7.1510   27.0698    7.0354 C   0  0  0  0  0  0  0  0  0  0  0  0
   -6.0997   28.0283    7.4750 C   0  0  0  0  0  0  0  0  0  0  0  0
   -9.6404   27.7869    6.9684 N   0  0  0  0  0  0  0  0  0  0  0  0
   -8.4437   27.4144    7.7435 C   0  0  0  0  0  0  0  0  0  0  0  0
   -8.4824   27.3645    8.9504 O   0  0  0  0  0  0  0  0  0  0  0  0
   -9.6298   27.8255    5.9847 H   0  0  0  0  0  0  0  0  0  0  0  0
  -10.8459   28.0967    7.7392 C   0  0  0  0  0  0  0  0  0  0  0  0
  -13.6455   24.8539    7.5190 C   0  0  0  0  0  0  0  0  0  0  0  0
  -13.6303   25.8334    6.5246 C   0  0  0  0  0  0  0  0  0  0  0  0
  -12.7041   26.9016    6.5806 C   0  0  0  0  0  0  0  0  0  0  0  0
  -12.7326   24.9343    8.5902 C   0  0  0  0  0  0  0  0  0  0  0  0
  -11.8186   26.0014    8.6508 C   0  0  0  0  0  0  0  0  0  0  0  0
  -11.8048   26.9823    7.6528 C   0  0  0  0  0  0  0  0  0  0  0  0
  -14.5837   23.7683    7.4506 N   0  0  0  0  0  0  0  0  0  0  0  0
  -14.3961   22.6151    8.2293 N   0  0  0  0  0  0  0  0  0  0  0  0
  -17.4738   19.6513    8.6290 C   0  0  0  0  0  0  0  0  0  0  0  0
  -17.7698   20.9228    8.1463 C   0  0  0  0  0  0  0  0  0  0  0  0
  -16.7413   21.9012    8.0209 C   0  0  0  0  0  0  0  0  0  0  0  0
  -16.1250   19.3379    8.9906 C   0  0  0  0  0  0  0  0  0  0  0  0
  -15.1051   20.3082    8.8608 C   0  0  0  0  0  0  0  0  0  0  0  0
  -15.4080   21.5972    8.3790 C   0  0  0  0  0  0  0  0  0  0  0  0
  -18.6165   18.6111    8.7567 C   0  0  0  0  0  0  0  0  0  0  0  0
  -18.0794   17.2777    8.6440 O   0  0  0  0  0  0  0  0  0  0  0  0
  -17.4330   17.1286    9.3517 H   0  0  0  0  0  0  0  0  0  0  0  0
   -8.3096   26.0735    2.9555 N   0  0  0  0  0  0  0  0  0  0  0  0
   -8.9339   24.7837    2.8633 C   0  0  0  0  0  0  0  0  0  0  0  0
   -8.3019   23.7948    3.0212 O   0  0  0  0  0  0  0  0  0  0  0  0
   -8.8259   26.8995    2.8129 H   0  0  0  0  0  0  0  0  0  0  0  0
  -10.4175   24.7153    2.5581 C   0  0  0  0  0  0  0  0  0  0  0  0
  -10.9412   23.3720    2.9757 C   0  0  0  0  0  0  0  0  0  0  0  0
  -10.5853   24.8341    1.1473 N   0  0  0  0  0  0  0  0  0  0  0  0
  -10.7753   26.1061    0.4937 C   0  0  0  0  0  0  0  0  0  0  0  0
  -10.7948   27.1272    1.1615 O   0  0  0  0  0  0  0  0  0  0  0  0
  -10.5709   24.0170    0.5983 H   0  0  0  0  0  0  0  0  0  0  0  0
  -10.9754   26.1323   -1.0226 C   0  0  0  0  0  0  0  0  0  0  0  0
   -9.9363   25.3869   -1.6452 N   0  0  0  0  0  0  0  0  0  0  0  0
   -9.9896   24.4134   -1.3455 H   0  0  0  0  0  0  0  0  0  0  0  0
   -9.0319   25.7758   -1.3782 H   0  0  0  0  0  0  0  0  0  0  0  0
  -12.3133   25.6010   -1.4692 C   0  0  0  0  0  0  0  0  0  0  0  0
  -12.2580   24.1732   -1.5118 O   0  0  0  0  0  0  0  0  0  0  0  0
  -12.0462   23.8314   -0.6291 H   0  0  0  0  0  0  0  0  0  0  0  0
   -6.3629   27.4047    2.6596 C   0  0  0  0  0  0  0  0  0  0  0  0
   -7.4502   28.1808    1.8666 C   0  0  0  0  0  0  0  0  0  0  0  0
   -7.8845   29.4647    2.6191 C   0  0  0  0  0  0  0  0  0  0  0  0
   -9.3173   29.6822    2.5973 N   0  0  0  0  0  0  0  0  0  0  0  0
   -9.7462   30.0944    1.8128 H   0  0  0  0  0  0  0  0  0  0  0  0
  -10.1160   29.2841    3.7493 C   0  0  0  0  0  0  0  0  0  0  0  0
  -10.8028   30.2063    4.4054 N   0  0  0  0  0  0  0  0  0  0  0  0
  -10.1688   28.0388    4.1243 N   0  0  0  0  0  0  0  0  0  0  0  0
  -11.3470   29.9526    5.1856 H   0  0  0  0  0  0  0  0  0  0  0  0
  -10.7694   31.1458    4.1130 H   0  0  0  0  0  0  0  0  0  0  0  0
  -10.7119   27.7821    4.9042 H   0  0  0  0  0  0  0  0  0  0  0  0
 54 52  2  0  0  0
 52 53  1  0  0  0
 52 50  1  0  0  0
 50 49  1  0  0  0
 49 48  1  0  0  0
 48 47  1  0  0  0
 47  1  1  0  0  0
 45 44  1  0  0  0
 44 40  1  0  0  0
  1 30  1  0  0  0
  1  3  1  0  0  0
 30 31  1  0  0  0
 40 41  1  0  0  0
 40 37  1  0  0  0
  3  2  1  0  0  0
  3  4  2  0  0  0
  2  6  1  0  0  0
  7  6  1  0  0  0
  6  9  1  0  0  0
 37 36  1  0  0  0
 37 38  2  0  0  0
 36 34  1  0  0  0
 31 34  1  0  0  0
 31 32  2  0  0  0
 35 34  1  0  0  0
  9 10  2  0  0  0
  9  8  1  0  0  0
  8 12  1  0  0  0
 15 14  2  0  0  0
 15 18  1  0  0  0
 14 13  1  0  0  0
 12 18  1  0  0  0
 18 17  2  0  0  0
 13 19  1  0  0  0
 13 16  2  0  0  0
 19 20  2  0  0  0
 17 16  1  0  0  0
 25 24  2  0  0  0
 25 26  1  0  0  0
 24 21  1  0  0  0
 20 26  1  0  0  0
 26 23  2  0  0  0
 28 27  1  0  0  0
 21 27  1  0  0  0
 21 22  2  0  0  0
 23 22  1  0  0  0
  8 11  1  0  0  0
  2  5  1  0  0  0
 50 51  1  0  0  0
 53 55  1  0  0  0
 53 56  1  0  0  0
 54 57  1  0  0  0
 30 33  1  0  0  0
 36 39  1  0  0  0
 41 42  1  0  0  0
 41 43  1  0  0  0
 45 46  1  0  0  0
 28 29  1  0  0  0
M  END
> <minimizedAffinity>
-7.36961

$$$$
5M25_7DU_A_401


 57 58  0  0  0  0  0  0  0  0999 V2000
  -10.2170   27.0793    2.7325 C   0  0  0  0  0  0  0  0  0  0  0  0
  -11.1988   29.3149    3.5546 N   0  0  0  0  0  0  0  0  0  0  0  0
  -11.2201   27.8716    3.5471 C   0  0  0  0  0  0  0  0  0  0  0  0
  -12.0555   27.2850    4.1909 O   0  0  0  0  0  0  0  0  0  0  0  0
  -10.5246   29.7889    3.0160 H   0  0  0  0  0  0  0  0  0  0  0  0
  -12.1380   30.0744    4.3291 C   0  0  0  0  0  0  0  0  0  0  0  0
  -13.5381   29.9610    3.8349 C   0  0  0  0  0  0  0  0  0  0  0  0
  -13.2560   28.9314    6.3686 N   0  0  0  0  0  0  0  0  0  0  0  0
  -12.0988   29.6229    5.7733 C   0  0  0  0  0  0  0  0  0  0  0  0
  -11.1004   29.8247    6.4238 O   0  0  0  0  0  0  0  0  0  0  0  0
  -14.0746   28.7516    5.8519 H   0  0  0  0  0  0  0  0  0  0  0  0
  -13.1236   28.5261    7.7691 C   0  0  0  0  0  0  0  0  0  0  0  0
  -15.3742   24.9461    8.4903 C   0  0  0  0  0  0  0  0  0  0  0  0
  -14.4482   24.9917    7.4468 C   0  0  0  0  0  0  0  0  0  0  0  0
  -13.6920   26.1632    7.2062 C   0  0  0  0  0  0  0  0  0  0  0  0
  -15.5599   26.0799    9.3072 C   0  0  0  0  0  0  0  0  0  0  0  0
  -14.8151   27.2475    9.0618 C   0  0  0  0  0  0  0  0  0  0  0  0
  -13.8871   27.2911    8.0152 C   0  0  0  0  0  0  0  0  0  0  0  0
  -16.1323   23.7503    8.7329 N   0  0  0  0  0  0  0  0  0  0  0  0
  -16.0587   22.6677    7.8417 N   0  0  0  0  0  0  0  0  0  0  0  0
  -17.6030   18.7741    8.7749 C   0  0  0  0  0  0  0  0  0  0  0  0
  -16.2657   19.0827    9.0067 C   0  0  0  0  0  0  0  0  0  0  0  0
  -15.7616   20.3774    8.6899 C   0  0  0  0  0  0  0  0  0  0  0  0
  -18.4648   19.7739    8.2216 C   0  0  0  0  0  0  0  0  0  0  0  0
  -17.9642   21.0593    7.9126 C   0  0  0  0  0  0  0  0  0  0  0  0
  -16.6083   21.3675    8.1411 C   0  0  0  0  0  0  0  0  0  0  0  0
  -18.1189   17.3551    9.1274 C   0  0  0  0  0  0  0  0  0  0  0  0
  -17.0745   16.3858    8.9068 O   0  0  0  0  0  0  0  0  0  0  0  0
  -16.3135   16.5966    9.4701 H   0  0  0  0  0  0  0  0  0  0  0  0
   -8.8850   27.4484    3.0791 N   0  0  0  0  0  0  0  0  0  0  0  0
   -8.2231   28.4209    2.2556 C   0  0  0  0  0  0  0  0  0  0  0  0
   -8.7686   28.8839    1.3120 O   0  0  0  0  0  0  0  0  0  0  0  0
   -8.4334   27.0497    3.8577 H   0  0  0  0  0  0  0  0  0  0  0  0
   -6.8122   28.8403    2.6190 C   0  0  0  0  0  0  0  0  0  0  0  0
   -5.9643   27.6127    2.7837 C   0  0  0  0  0  0  0  0  0  0  0  0
   -6.8600   29.5140    3.8746 N   0  0  0  0  0  0  0  0  0  0  0  0
   -7.2606   30.8944    3.9988 C   0  0  0  0  0  0  0  0  0  0  0  0
   -7.5733   31.5209    2.9995 O   0  0  0  0  0  0  0  0  0  0  0  0
   -6.6102   29.0184    4.6877 H   0  0  0  0  0  0  0  0  0  0  0  0
   -7.2539   31.5412    5.3849 C   0  0  0  0  0  0  0  0  0  0  0  0
   -8.4466   31.1858    6.0735 N   0  0  0  0  0  0  0  0  0  0  0  0
   -8.4739   30.1750    6.2068 H   0  0  0  0  0  0  0  0  0  0  0  0
   -9.2556   31.4785    5.5255 H   0  0  0  0  0  0  0  0  0  0  0  0
   -6.0582   31.1697    6.2241 C   0  0  0  0  0  0  0  0  0  0  0  0
   -6.2464   29.8530    6.7477 O   0  0  0  0  0  0  0  0  0  0  0  0
   -6.3424   29.2244    6.0152 H   0  0  0  0  0  0  0  0  0  0  0  0
  -10.3664   25.5906    3.0226 C   0  0  0  0  0  0  0  0  0  0  0  0
   -9.1904   25.0560    3.8854 C   0  0  0  0  0  0  0  0  0  0  0  0
   -9.5755   24.9997    5.3860 C   0  0  0  0  0  0  0  0  0  0  0  0
   -8.6741   25.7523    6.2355 N   0  0  0  0  0  0  0  0  0  0  0  0
   -7.8178   25.3607    6.5231 H   0  0  0  0  0  0  0  0  0  0  0  0
   -9.0491   27.0952    6.6592 C   0  0  0  0  0  0  0  0  0  0  0  0
   -9.8543   27.2398    7.7001 N   0  0  0  0  0  0  0  0  0  0  0  0
   -8.5908   28.1421    6.0361 N   0  0  0  0  0  0  0  0  0  0  0  0
  -10.1165   28.1407    7.9982 H   0  0  0  0  0  0  0  0  0  0  0  0
  -10.1908   26.4465    8.1760 H   0  0  0  0  0  0  0  0  0  0  0  0
   -8.8514   29.0442    6.3318 H   0  0  0  0  0  0  0  0  0  0  0  0
 54 52  2  0  0  0
 52 53  1  0  0  0
 52 50  1  0  0  0
 50 49  1  0  0  0
 49 48  1  0  0  0
 48 47  1  0  0  0
 47  1  1  0  0  0
 45 44  1  0  0  0
 44 40  1  0  0  0
  1 30  1  0  0  0
  1  3  1  0  0  0
 30 31  1  0  0  0
 40 41  1  0  0  0
 40 37  1  0  0  0
  3  2  1  0  0  0
  3  4  2  0  0  0
  2  6  1  0  0  0
  7  6  1  0  0  0
  6  9  1  0  0  0
 37 36  1  0  0  0
 37 38  2  0  0  0
 36 34  1  0  0  0
 31 34  1  0  0  0
 31 32  2  0  0  0
 35 34  1  0  0  0
  9 10  2  0  0  0
  9  8  1  0  0  0
  8 12  1  0  0  0
 15 14  2  0  0  0
 15 18  1  0  0  0
 14 13  1  0  0  0
 12 18  1  0  0  0
 18 17  2  0  0  0
 13 19  1  0  0  0
 13 16  2  0  0  0
 19 20  2  0  0  0
 17 16  1  0  0  0
 25 24  2  0  0  0
 25 26  1  0  0  0
 24 21  1  0  0  0
 20 26  1  0  0  0
 26 23  2  0  0  0
 28 27  1  0  0  0
 21 27  1  0  0  0
 21 22  2  0  0  0
 23 22  1  0  0  0
  8 11  1  0  0  0
  2  5  1  0  0  0
 50 51  1  0  0  0
 53 55  1  0  0  0
 53 56  1  0  0  0
 54 57  1  0  0  0
 30 33  1  0  0  0
 36 39  1  0  0  0
 41 42  1  0  0  0
 41 43  1  0  0  0
 45 46  1  0  0  0
 28 29  1  0  0  0
M  END
> <minimizedAffinity>
-7.32299

$$$$
