4I7L_IPH_A_202
  RCSB PDB12061712583D
Coordinates from PDB:4I7L:A:202 Model:1 without hydrogens
  7  7  0  0  0  0            999 V2000
    4.2410   10.9510    1.0770   C 0  0  0  0  0  0  0  0  0  0  0  0
    3.9880    9.7870    0.3540   C 0  0  0  0  0  0  0  0  0  0  0  0
    2.8270    9.0460    0.6190   C 0  0  0  0  0  0  0  0  0  0  0  0
    1.9590    9.4370    1.6150   C 0  0  0  0  0  0  0  0  0  0  0  0
    2.2340   10.5730    2.3460   C 0  0  0  0  0  0  0  0  0  0  0  0
    3.3650   11.3510    2.0860   C 0  0  0  0  0  0  0  0  0  0  0  0
    5.3180   11.6980    0.7770   O 0  0  0  0  0  0  0  0  0  0  0  0
  1  2  2  0  0  0  0
  1  6  1  0  0  0  0
  1  7  1  0  0  0  0
  2  3  1  0  0  0  0
  3  4  2  0  0  0  0
  4  5  1  0  0  0  0
  5  6  2  0  0  0  0
A    1
C1
A    2
C2
A    3
C3
A    4
C4
A    5
C5
A    6
C6
A    7
O1
M  END
>  <InstanceId>
4I7L_IPH_A_202

>  <ChemCompId>
IPH

>  <PdbId>
4I7L

>  <ChainId>
A

>  <ResidueNumber>
202

>  <InsertionCode>


>  <Model>
1

>  <AltIds>


>  <MissingHeavyAtoms>
0

>  <ObservedFormula>
C6 O

>  <Name>
PHENOL

>  <SystematicName>
phenol

>  <Synonyms>


>  <Type>
NON-POLYMER

>  <Formula>
C6 H6 O

>  <MolecularWeight>
94.111

>  <ModifiedDate>
2011-06-04

>  <Parent>


>  <OneLetterCode>


>  <SubcomponentList>


>  <AmbiguousFlag>
N

>  <InChI>
InChI=1S/C6H6O/c7-6-4-2-1-3-5-6/h1-5,7H

>  <InChIKey>
ISWSIDIOOBJBQZ-UHFFFAOYSA-N

>  <SMILES>
c1ccc(cc1)O

$$$$
