4I7L_IPH_A_202


  8  8  0  0  0  0  0  0  0  0999 V2000
    3.7450   10.7092    1.2379 C   0  0  0  0  0  0  0  0  0  0  0  0
    2.6924   11.0771    2.0736 C   0  0  0  0  0  0  0  0  0  0  0  0
    1.5962   10.2157    2.2265 C   0  0  0  0  0  0  0  0  0  0  0  0
    1.5336    9.0311    1.5257 C   0  0  0  0  0  0  0  0  0  0  0  0
    2.5655    8.6904    0.6773 C   0  0  0  0  0  0  0  0  0  0  0  0
    3.6863    9.5108    0.5267 C   0  0  0  0  0  0  0  0  0  0  0  0
    4.8265   11.5026    1.1439 O   0  0  0  0  0  0  0  0  0  0  0  0
    4.8609   12.3066    1.6238 H   0  0  0  0  0  0  0  0  0  0  0  0
  1  2  2  0  0  0
  1  6  1  0  0  0
  1  7  1  0  0  0
  2  3  1  0  0  0
  3  4  2  0  0  0
  4  5  1  0  0  0
  5  6  2  0  0  0
  7  8  1  0  0  0
M  END
> <minimizedAffinity>
-6.25357

$$$$
4I7L_IPH_A_202


  8  8  0  0  0  0  0  0  0  0999 V2000
    3.7693   10.7035    1.2252 C   0  0  0  0  0  0  0  0  0  0  0  0
    3.6889    9.4979    0.5311 C   0  0  0  0  0  0  0  0  0  0  0  0
    2.5497    8.6922    0.6728 C   0  0  0  0  0  0  0  0  0  0  0  0
    1.5312    9.0630    1.5234 C   0  0  0  0  0  0  0  0  0  0  0  0
    1.6340   10.2425    2.2297 C   0  0  0  0  0  0  0  0  0  0  0  0
    2.7406   11.0833    2.0872 C   0  0  0  0  0  0  0  0  0  0  0  0
    4.8299   11.5083    1.0373 O   0  0  0  0  0  0  0  0  0  0  0  0
    5.5183   11.2484    0.4571 H   0  0  0  0  0  0  0  0  0  0  0  0
  1  2  2  0  0  0
  1  6  1  0  0  0
  1  7  1  0  0  0
  2  3  1  0  0  0
  3  4  2  0  0  0
  4  5  1  0  0  0
  5  6  2  0  0  0
  7  8  1  0  0  0
M  END
> <minimizedAffinity>
-6.25048

$$$$
4I7L_IPH_A_202


  8  8  0  0  0  0  0  0  0  0999 V2000
    2.4331    9.2451    0.8633 C   0  0  0  0  0  0  0  0  0  0  0  0
    2.0054   10.1766    1.8072 C   0  0  0  0  0  0  0  0  0  0  0  0
    2.8700   11.2072    2.2040 C   0  0  0  0  0  0  0  0  0  0  0  0
    4.1502   11.2801    1.6998 C   0  0  0  0  0  0  0  0  0  0  0  0
    4.5748   10.3356    0.7898 C   0  0  0  0  0  0  0  0  0  0  0  0
    3.7281    9.3151    0.3498 C   0  0  0  0  0  0  0  0  0  0  0  0
    1.5818    8.2979    0.4321 O   0  0  0  0  0  0  0  0  0  0  0  0
    0.7129    8.2553    0.7803 H   0  0  0  0  0  0  0  0  0  0  0  0
  1  2  2  0  0  0
  1  6  1  0  0  0
  1  7  1  0  0  0
  2  3  1  0  0  0
  3  4  2  0  0  0
  4  5  1  0  0  0
  5  6  2  0  0  0
  7  8  1  0  0  0
M  END
> <minimizedAffinity>
-5.80211

$$$$
4I7L_IPH_A_202


  8  8  0  0  0  0  0  0  0  0999 V2000
    2.3924    9.2824    0.8448 C   0  0  0  0  0  0  0  0  0  0  0  0
    3.6775    9.3729    0.3139 C   0  0  0  0  0  0  0  0  0  0  0  0
    4.5504   10.3673    0.7792 C   0  0  0  0  0  0  0  0  0  0  0  0
    4.1331   11.2787    1.7244 C   0  0  0  0  0  0  0  0  0  0  0  0
    2.8494   11.2004    2.2209 C   0  0  0  0  0  0  0  0  0  0  0  0
    1.9656   10.2027    1.8021 C   0  0  0  0  0  0  0  0  0  0  0  0
    1.5789    8.2878    0.4486 O   0  0  0  0  0  0  0  0  0  0  0  0
    1.8705    7.6722   -0.1948 H   0  0  0  0  0  0  0  0  0  0  0  0
  1  2  2  0  0  0
  1  6  1  0  0  0
  1  7  1  0  0  0
  2  3  1  0  0  0
  3  4  2  0  0  0
  4  5  1  0  0  0
  5  6  2  0  0  0
  7  8  1  0  0  0
M  END
> <minimizedAffinity>
-5.78614

$$$$
4I7L_IPH_A_202


  8  8  0  0  0  0  0  0  0  0999 V2000
    2.2384   10.2230    1.6389 C   0  0  0  0  0  0  0  0  0  0  0  0
    2.2183    8.9198    1.1459 C   0  0  0  0  0  0  0  0  0  0  0  0
    3.3735    8.3844    0.5575 C   0  0  0  0  0  0  0  0  0  0  0  0
    4.5114    9.1499    0.4261 C   0  0  0  0  0  0  0  0  0  0  0  0
    4.5116   10.4485    0.8888 C   0  0  0  0  0  0  0  0  0  0  0  0
    3.3882   11.0016    1.5084 C   0  0  0  0  0  0  0  0  0  0  0  0
    1.1534   10.7131    2.2639 O   0  0  0  0  0  0  0  0  0  0  0  0
    0.3835   10.1858    2.3488 H   0  0  0  0  0  0  0  0  0  0  0  0
  1  2  2  0  0  0
  1  6  1  0  0  0
  1  7  1  0  0  0
  2  3  1  0  0  0
  3  4  2  0  0  0
  4  5  1  0  0  0
  5  6  2  0  0  0
  7  8  1  0  0  0
M  END
> <minimizedAffinity>
-5.38367

$$$$
