1YDR_IQP_E_351


 21 23  0  0  0  0  0  0  0  0999 V2000
    8.4503    9.6736    4.1921 S   0  0  0  0  0  0  0  0  0  0  0  0
    8.2775    8.4311    4.9471 O   0  0  0  0  0  0  0  0  0  0  0  0
    8.4076   10.9409    4.8720 O   0  0  0  0  0  0  0  0  0  0  0  0
    7.1048    9.7956    3.0379 C   0  0  0  0  0  0  0  0  0  0  0  0
    7.3917    9.9030    1.6406 C   0  0  0  0  0  0  0  0  0  0  0  0
    6.3650   10.0021    0.6692 C   0  0  0  0  0  0  0  0  0  0  0  0
    5.0125    9.9958    1.1057 C   0  0  0  0  0  0  0  0  0  0  0  0
    4.6876    9.8932    2.4906 C   0  0  0  0  0  0  0  0  0  0  0  0
    3.3482    9.8867    2.9289 C   0  0  0  0  0  0  0  0  0  0  0  0
    3.0806    9.7867    4.2462 N   0  0  0  0  0  0  0  0  0  0  0  0
    4.0153    9.6899    5.2156 C   0  0  0  0  0  0  0  0  0  0  0  0
    5.3515    9.6908    4.8552 C   0  0  0  0  0  0  0  0  0  0  0  0
    5.7314    9.7925    3.4747 C   0  0  0  0  0  0  0  0  0  0  0  0
    9.7201    9.4736    3.2382 N   0  0  0  0  0  0  0  0  0  0  0  0
   10.9806   10.1495    3.7394 C   0  0  0  0  0  0  0  0  0  0  0  0
   11.4458    9.5141    5.0716 C   0  0  0  0  0  0  0  0  0  0  0  0
   12.1422    9.8720    2.7481 C   0  0  0  0  0  0  0  0  0  0  0  0
   12.1799    8.3908    2.4135 N   0  0  0  0  0  0  0  0  0  0  0  0
   10.9516    7.8354    1.8052 C   0  0  0  0  0  0  0  0  0  0  0  0
    9.8626    8.0271    2.8667 C   0  0  0  0  0  0  0  0  0  0  0  0
   12.3596    7.8795    3.2776 H   0  0  0  0  0  0  0  0  0  0  0  0
  4  5  2  0  0  0
  4 13  1  0  0  0
  4  1  1  0  0  0
  5  6  1  0  0  0
  6  7  2  0  0  0
  7  8  1  0  0  0
  8  9  1  0  0  0
  8 13  2  0  0  0
  9 10  2  0  0  0
 10 11  1  0  0  0
 11 12  2  0  0  0
 12 13  1  0  0  0
  1  2  2  0  0  0
  1  3  2  0  0  0
  1 14  1  0  0  0
 14 15  1  0  0  0
 14 20  1  0  0  0
 15 16  1  0  0  0
 15 17  1  0  0  0
 17 18  1  0  0  0
 18 19  1  0  0  0
 19 20  1  0  0  0
 18 21  1  0  0  0
M  END
> <minimizedAffinity>
-8.34156

$$$$
1YDR_IQP_E_351


 21 23  0  0  0  0  0  0  0  0999 V2000
    9.4611    7.9470    3.7979 S   0  0  0  0  0  0  0  0  0  0  0  0
    9.6966    7.5111    2.4202 O   0  0  0  0  0  0  0  0  0  0  0  0
    9.2329    6.9730    4.8320 O   0  0  0  0  0  0  0  0  0  0  0  0
    7.9628    8.9023    3.8133 C   0  0  0  0  0  0  0  0  0  0  0  0
    7.2718    9.0966    5.0507 C   0  0  0  0  0  0  0  0  0  0  0  0
    6.0737    9.8486    5.1309 C   0  0  0  0  0  0  0  0  0  0  0  0
    5.5490   10.4215    3.9410 C   0  0  0  0  0  0  0  0  0  0  0  0
    6.2082   10.2469    2.6884 C   0  0  0  0  0  0  0  0  0  0  0  0
    5.6922   10.8126    1.5053 C   0  0  0  0  0  0  0  0  0  0  0  0
    6.3444   10.6269    0.3404 N   0  0  0  0  0  0  0  0  0  0  0  0
    7.4874    9.9215    0.2030 C   0  0  0  0  0  0  0  0  0  0  0  0
    8.0490    9.3380    1.3252 C   0  0  0  0  0  0  0  0  0  0  0  0
    7.4243    9.4834    2.6094 C   0  0  0  0  0  0  0  0  0  0  0  0
   10.5809    9.0364    4.1464 N   0  0  0  0  0  0  0  0  0  0  0  0
   11.7016    8.5109    5.0209 C   0  0  0  0  0  0  0  0  0  0  0  0
   12.5041    7.4161    4.2777 C   0  0  0  0  0  0  0  0  0  0  0  0
   12.7309    9.6445    5.2748 C   0  0  0  0  0  0  0  0  0  0  0  0
   13.0744   10.3212    3.9590 N   0  0  0  0  0  0  0  0  0  0  0  0
   11.9391   10.9249    3.2284 C   0  0  0  0  0  0  0  0  0  0  0  0
   11.0109    9.7503    2.8990 C   0  0  0  0  0  0  0  0  0  0  0  0
   13.5020    9.6230    3.3506 H   0  0  0  0  0  0  0  0  0  0  0  0
  4  5  2  0  0  0
  4 13  1  0  0  0
  4  1  1  0  0  0
  5  6  1  0  0  0
  6  7  2  0  0  0
  7  8  1  0  0  0
  8  9  1  0  0  0
  8 13  2  0  0  0
  9 10  2  0  0  0
 10 11  1  0  0  0
 11 12  2  0  0  0
 12 13  1  0  0  0
  1  2  2  0  0  0
  1  3  2  0  0  0
  1 14  1  0  0  0
 14 15  1  0  0  0
 14 20  1  0  0  0
 15 16  1  0  0  0
 15 17  1  0  0  0
 17 18  1  0  0  0
 18 19  1  0  0  0
 19 20  1  0  0  0
 18 21  1  0  0  0
M  END
> <minimizedAffinity>
-8.18526

$$$$
1YDR_IQP_E_351


 21 23  0  0  0  0  0  0  0  0999 V2000
    9.6414    8.0914    2.3558 S   0  0  0  0  0  0  0  0  0  0  0  0
   10.3475    7.8302    1.1002 O   0  0  0  0  0  0  0  0  0  0  0  0
    9.0956    6.9983    3.1157 O   0  0  0  0  0  0  0  0  0  0  0  0
    8.2061    9.0673    1.9752 C   0  0  0  0  0  0  0  0  0  0  0  0
    7.9870    9.4896    0.6261 C   0  0  0  0  0  0  0  0  0  0  0  0
    6.8621   10.2678    0.2567 C   0  0  0  0  0  0  0  0  0  0  0  0
    5.9299   10.6370    1.2637 C   0  0  0  0  0  0  0  0  0  0  0  0
    6.1162   10.2372    2.6200 C   0  0  0  0  0  0  0  0  0  0  0  0
    5.1949   10.6007    3.6227 C   0  0  0  0  0  0  0  0  0  0  0  0
    5.4043   10.2027    4.8934 N   0  0  0  0  0  0  0  0  0  0  0  0
    6.4556    9.4618    5.3038 C   0  0  0  0  0  0  0  0  0  0  0  0
    7.3996    9.0703    4.3705 C   0  0  0  0  0  0  0  0  0  0  0  0
    7.2586    9.4472    2.9926 C   0  0  0  0  0  0  0  0  0  0  0  0
   10.5454    9.1043    3.2039 N   0  0  0  0  0  0  0  0  0  0  0  0
   11.4530    8.4262    4.2105 C   0  0  0  0  0  0  0  0  0  0  0  0
   12.5027    7.5462    3.4905 C   0  0  0  0  0  0  0  0  0  0  0  0
   12.2894    9.5010    4.9551 C   0  0  0  0  0  0  0  0  0  0  0  0
   12.8921   10.4630    3.9458 N   0  0  0  0  0  0  0  0  0  0  0  0
   11.9281   11.1848    3.0873 C   0  0  0  0  0  0  0  0  0  0  0  0
   11.2113   10.0896    2.2895 C   0  0  0  0  0  0  0  0  0  0  0  0
   13.5137    9.9295    3.3380 H   0  0  0  0  0  0  0  0  0  0  0  0
  4  5  2  0  0  0
  4 13  1  0  0  0
  4  1  1  0  0  0
  5  6  1  0  0  0
  6  7  2  0  0  0
  7  8  1  0  0  0
  8  9  1  0  0  0
  8 13  2  0  0  0
  9 10  2  0  0  0
 10 11  1  0  0  0
 11 12  2  0  0  0
 12 13  1  0  0  0
  1  2  2  0  0  0
  1  3  2  0  0  0
  1 14  1  0  0  0
 14 15  1  0  0  0
 14 20  1  0  0  0
 15 16  1  0  0  0
 15 17  1  0  0  0
 17 18  1  0  0  0
 18 19  1  0  0  0
 19 20  1  0  0  0
 18 21  1  0  0  0
M  END
> <minimizedAffinity>
-8.15124

$$$$
1YDR_IQP_E_351


 21 23  0  0  0  0  0  0  0  0999 V2000
   10.4793    8.8485    2.4255 S   0  0  0  0  0  0  0  0  0  0  0  0
   10.9037   10.0264    1.6665 O   0  0  0  0  0  0  0  0  0  0  0  0
   10.0452    7.6642    1.7333 O   0  0  0  0  0  0  0  0  0  0  0  0
    9.0463    9.3039    3.3725 C   0  0  0  0  0  0  0  0  0  0  0  0
    9.1351    9.3379    4.7998 C   0  0  0  0  0  0  0  0  0  0  0  0
    8.0301    9.6939    5.6121 C   0  0  0  0  0  0  0  0  0  0  0  0
    6.8002   10.0236    4.9811 C   0  0  0  0  0  0  0  0  0  0  0  0
    6.6726    9.9979    3.5609 C   0  0  0  0  0  0  0  0  0  0  0  0
    5.4551   10.3236    2.9301 C   0  0  0  0  0  0  0  0  0  0  0  0
    5.3737   10.2895    1.5850 N   0  0  0  0  0  0  0  0  0  0  0  0
    6.3908    9.9584    0.7612 C   0  0  0  0  0  0  0  0  0  0  0  0
    7.6152    9.6266    1.3145 C   0  0  0  0  0  0  0  0  0  0  0  0
    7.7956    9.6364    2.7385 C   0  0  0  0  0  0  0  0  0  0  0  0
   11.5845    8.5911    3.5544 N   0  0  0  0  0  0  0  0  0  0  0  0
   12.5377    7.4563    3.2370 C   0  0  0  0  0  0  0  0  0  0  0  0
   13.3897    7.7939    1.9901 C   0  0  0  0  0  0  0  0  0  0  0  0
   13.5694    7.3139    4.3878 C   0  0  0  0  0  0  0  0  0  0  0  0
   14.1352    8.6806    4.7332 N   0  0  0  0  0  0  0  0  0  0  0  0
   13.1499    9.6974    5.1605 C   0  0  0  0  0  0  0  0  0  0  0  0
   12.2272    9.8872    3.9513 C   0  0  0  0  0  0  0  0  0  0  0  0
   14.6153    9.0381    3.9073 H   0  0  0  0  0  0  0  0  0  0  0  0
  4  5  2  0  0  0
  4 13  1  0  0  0
  4  1  1  0  0  0
  5  6  1  0  0  0
  6  7  2  0  0  0
  7  8  1  0  0  0
  8  9  1  0  0  0
  8 13  2  0  0  0
  9 10  2  0  0  0
 10 11  1  0  0  0
 11 12  2  0  0  0
 12 13  1  0  0  0
  1  2  2  0  0  0
  1  3  2  0  0  0
  1 14  1  0  0  0
 14 15  1  0  0  0
 14 20  1  0  0  0
 15 16  1  0  0  0
 15 17  1  0  0  0
 17 18  1  0  0  0
 18 19  1  0  0  0
 19 20  1  0  0  0
 18 21  1  0  0  0
M  END
> <minimizedAffinity>
-7.97924

$$$$
1YDR_IQP_E_351


 21 23  0  0  0  0  0  0  0  0999 V2000
    9.3404    9.5975    1.4170 S   0  0  0  0  0  0  0  0  0  0  0  0
    8.8798   10.4579    0.3256 O   0  0  0  0  0  0  0  0  0  0  0  0
    9.2679    8.1666    1.2852 O   0  0  0  0  0  0  0  0  0  0  0  0
    8.3114    9.9197    2.8295 C   0  0  0  0  0  0  0  0  0  0  0  0
    8.9254   10.1983    4.0911 C   0  0  0  0  0  0  0  0  0  0  0  0
    8.1620   10.4647    5.2546 C   0  0  0  0  0  0  0  0  0  0  0  0
    6.7444   10.4505    5.1562 C   0  0  0  0  0  0  0  0  0  0  0  0
    6.0964   10.1738    3.9162 C   0  0  0  0  0  0  0  0  0  0  0  0
    4.6909   10.1582    3.8131 C   0  0  0  0  0  0  0  0  0  0  0  0
    4.1148    9.8942    2.6234 N   0  0  0  0  0  0  0  0  0  0  0  0
    4.7894    9.6335    1.4834 C   0  0  0  0  0  0  0  0  0  0  0  0
    6.1730    9.6321    1.5134 C   0  0  0  0  0  0  0  0  0  0  0  0
    6.8733    9.9040    2.7365 C   0  0  0  0  0  0  0  0  0  0  0  0
   10.7682   10.1505    1.8837 N   0  0  0  0  0  0  0  0  0  0  0  0
   11.7008    9.0802    2.4144 C   0  0  0  0  0  0  0  0  0  0  0  0
   12.0681    8.0754    1.2962 C   0  0  0  0  0  0  0  0  0  0  0  0
   13.0526    9.7285    2.8159 C   0  0  0  0  0  0  0  0  0  0  0  0
   13.5306   10.6379    1.6971 N   0  0  0  0  0  0  0  0  0  0  0  0
   12.6167   11.7401    1.3267 C   0  0  0  0  0  0  0  0  0  0  0  0
   11.3434   11.0477    0.8279 C   0  0  0  0  0  0  0  0  0  0  0  0
   13.6786   10.0624    0.8681 H   0  0  0  0  0  0  0  0  0  0  0  0
  4  5  2  0  0  0
  4 13  1  0  0  0
  4  1  1  0  0  0
  5  6  1  0  0  0
  6  7  2  0  0  0
  7  8  1  0  0  0
  8  9  1  0  0  0
  8 13  2  0  0  0
  9 10  2  0  0  0
 10 11  1  0  0  0
 11 12  2  0  0  0
 12 13  1  0  0  0
  1  2  2  0  0  0
  1  3  2  0  0  0
  1 14  1  0  0  0
 14 15  1  0  0  0
 14 20  1  0  0  0
 15 16  1  0  0  0
 15 17  1  0  0  0
 17 18  1  0  0  0
 18 19  1  0  0  0
 19 20  1  0  0  0
 18 21  1  0  0  0
M  END
> <minimizedAffinity>
-7.82366

$$$$
1YDR_IQP_E_351


 21 23  0  0  0  0  0  0  0  0999 V2000
    8.7780    9.9679    4.9133 S   0  0  0  0  0  0  0  0  0  0  0  0
    8.8470    9.2194    6.1697 O   0  0  0  0  0  0  0  0  0  0  0  0
    9.1514   11.3570    4.8815 O   0  0  0  0  0  0  0  0  0  0  0  0
    7.0780   10.0007    4.3970 C   0  0  0  0  0  0  0  0  0  0  0  0
    6.0483   10.0492    5.3889 C   0  0  0  0  0  0  0  0  0  0  0  0
    4.6746   10.0787    5.0434 C   0  0  0  0  0  0  0  0  0  0  0  0
    4.3183   10.0572    3.6678 C   0  0  0  0  0  0  0  0  0  0  0  0
    5.3167   10.0059    2.6507 C   0  0  0  0  0  0  0  0  0  0  0  0
    4.9690    9.9841    1.2851 C   0  0  0  0  0  0  0  0  0  0  0  0
    5.9410    9.9371    0.3525 N   0  0  0  0  0  0  0  0  0  0  0  0
    7.2638    9.9072    0.6214 C   0  0  0  0  0  0  0  0  0  0  0  0
    7.6757    9.9256    1.9425 C   0  0  0  0  0  0  0  0  0  0  0  0
    6.7105    9.9762    3.0037 C   0  0  0  0  0  0  0  0  0  0  0  0
    9.4739    9.0667    3.7882 N   0  0  0  0  0  0  0  0  0  0  0  0
   10.8866    9.4935    3.4427 C   0  0  0  0  0  0  0  0  0  0  0  0
   11.8236    9.3102    4.6605 C   0  0  0  0  0  0  0  0  0  0  0  0
   11.4618    8.5407    2.3609 C   0  0  0  0  0  0  0  0  0  0  0  0
   11.2021    7.0996    2.7649 N   0  0  0  0  0  0  0  0  0  0  0  0
    9.7833    6.7289    2.9559 C   0  0  0  0  0  0  0  0  0  0  0  0
    9.2952    7.6123    4.1096 C   0  0  0  0  0  0  0  0  0  0  0  0
   11.6911    6.9283    3.6435 H   0  0  0  0  0  0  0  0  0  0  0  0
  4  5  2  0  0  0
  4 13  1  0  0  0
  4  1  1  0  0  0
  5  6  1  0  0  0
  6  7  2  0  0  0
  7  8  1  0  0  0
  8  9  1  0  0  0
  8 13  2  0  0  0
  9 10  2  0  0  0
 10 11  1  0  0  0
 11 12  2  0  0  0
 12 13  1  0  0  0
  1  2  2  0  0  0
  1  3  2  0  0  0
  1 14  1  0  0  0
 14 15  1  0  0  0
 14 20  1  0  0  0
 15 16  1  0  0  0
 15 17  1  0  0  0
 17 18  1  0  0  0
 18 19  1  0  0  0
 19 20  1  0  0  0
 18 21  1  0  0  0
M  END
> <minimizedAffinity>
-7.69922

$$$$
1YDR_IQP_E_351


 21 23  0  0  0  0  0  0  0  0999 V2000
    9.6254    9.1655    0.4505 S   0  0  0  0  0  0  0  0  0  0  0  0
    9.5711    9.5537   -0.9601 O   0  0  0  0  0  0  0  0  0  0  0  0
    9.7156    7.7757    0.8117 O   0  0  0  0  0  0  0  0  0  0  0  0
    8.1023    9.6761    1.2100 C   0  0  0  0  0  0  0  0  0  0  0  0
    7.1107   10.3311    0.4138 C   0  0  0  0  0  0  0  0  0  0  0  0
    5.8754   10.7615    0.9581 C   0  0  0  0  0  0  0  0  0  0  0  0
    5.6236   10.5333    2.3380 C   0  0  0  0  0  0  0  0  0  0  0  0
    6.5893    9.8863    3.1642 C   0  0  0  0  0  0  0  0  0  0  0  0
    6.3449    9.6577    4.5332 C   0  0  0  0  0  0  0  0  0  0  0  0
    7.2814    9.0416    5.2817 N   0  0  0  0  0  0  0  0  0  0  0  0
    8.4742    8.6104    4.8190 C   0  0  0  0  0  0  0  0  0  0  0  0
    8.7799    8.8034    3.4831 C   0  0  0  0  0  0  0  0  0  0  0  0
    7.8424    9.4501    2.6094 C   0  0  0  0  0  0  0  0  0  0  0  0
   10.7089   10.1077    1.1580 N   0  0  0  0  0  0  0  0  0  0  0  0
   11.6728    9.3673    2.0633 C   0  0  0  0  0  0  0  0  0  0  0  0
   12.5482    8.3899    1.2429 C   0  0  0  0  0  0  0  0  0  0  0  0
   12.6820   10.3757    2.6748 C   0  0  0  0  0  0  0  0  0  0  0  0
   13.2351   11.2679    1.5770 N   0  0  0  0  0  0  0  0  0  0  0  0
   12.2374   12.0588    0.8245 C   0  0  0  0  0  0  0  0  0  0  0  0
   11.3382   11.0191    0.1461 C   0  0  0  0  0  0  0  0  0  0  0  0
   13.7302   10.6744    0.9114 H   0  0  0  0  0  0  0  0  0  0  0  0
  4  5  2  0  0  0
  4 13  1  0  0  0
  4  1  1  0  0  0
  5  6  1  0  0  0
  6  7  2  0  0  0
  7  8  1  0  0  0
  8  9  1  0  0  0
  8 13  2  0  0  0
  9 10  2  0  0  0
 10 11  1  0  0  0
 11 12  2  0  0  0
 12 13  1  0  0  0
  1  2  2  0  0  0
  1  3  2  0  0  0
  1 14  1  0  0  0
 14 15  1  0  0  0
 14 20  1  0  0  0
 15 16  1  0  0  0
 15 17  1  0  0  0
 17 18  1  0  0  0
 18 19  1  0  0  0
 19 20  1  0  0  0
 18 21  1  0  0  0
M  END
> <minimizedAffinity>
-7.51342

$$$$
1YDR_IQP_E_351


 21 23  0  0  0  0  0  0  0  0999 V2000
   11.7587    9.0414    2.0715 S   0  0  0  0  0  0  0  0  0  0  0  0
   12.1342   10.4452    1.8924 O   0  0  0  0  0  0  0  0  0  0  0  0
   11.7570    8.1472    0.9443 O   0  0  0  0  0  0  0  0  0  0  0  0
   10.0674    9.0001    2.6151 C   0  0  0  0  0  0  0  0  0  0  0  0
    9.7674    8.5124    3.9259 C   0  0  0  0  0  0  0  0  0  0  0  0
    8.4407    8.4548    4.4197 C   0  0  0  0  0  0  0  0  0  0  0  0
    7.3824    8.8950    3.5796 C   0  0  0  0  0  0  0  0  0  0  0  0
    7.6422    9.3848    2.2656 C   0  0  0  0  0  0  0  0  0  0  0  0
    6.5964    9.8224    1.4283 C   0  0  0  0  0  0  0  0  0  0  0  0
    6.8816   10.2803    0.1930 N   0  0  0  0  0  0  0  0  0  0  0  0
    8.1236   10.3582   -0.3305 C   0  0  0  0  0  0  0  0  0  0  0  0
    9.1976    9.9443    0.4379 C   0  0  0  0  0  0  0  0  0  0  0  0
    8.9897    9.4426    1.7667 C   0  0  0  0  0  0  0  0  0  0  0  0
   12.5561    8.4989    3.3490 N   0  0  0  0  0  0  0  0  0  0  0  0
   13.6211    7.4717    3.0209 C   0  0  0  0  0  0  0  0  0  0  0  0
   14.7396    8.1041    2.1585 C   0  0  0  0  0  0  0  0  0  0  0  0
   14.3355    7.0357    4.3280 C   0  0  0  0  0  0  0  0  0  0  0  0
   14.7176    8.2667    5.1316 N   0  0  0  0  0  0  0  0  0  0  0  0
   13.6005    9.1524    5.5253 C   0  0  0  0  0  0  0  0  0  0  0  0
   13.0035    9.6480    4.2033 C   0  0  0  0  0  0  0  0  0  0  0  0
   15.3695    8.8159    4.5714 H   0  0  0  0  0  0  0  0  0  0  0  0
  4  5  2  0  0  0
  4 13  1  0  0  0
  4  1  1  0  0  0
  5  6  1  0  0  0
  6  7  2  0  0  0
  7  8  1  0  0  0
  8  9  1  0  0  0
  8 13  2  0  0  0
  9 10  2  0  0  0
 10 11  1  0  0  0
 11 12  2  0  0  0
 12 13  1  0  0  0
  1  2  2  0  0  0
  1  3  2  0  0  0
  1 14  1  0  0  0
 14 15  1  0  0  0
 14 20  1  0  0  0
 15 16  1  0  0  0
 15 17  1  0  0  0
 17 18  1  0  0  0
 18 19  1  0  0  0
 19 20  1  0  0  0
 18 21  1  0  0  0
M  END
> <minimizedAffinity>
-7.25483

$$$$
1YDR_IQP_E_351


 21 23  0  0  0  0  0  0  0  0999 V2000
   11.9419   10.2131    2.4207 S   0  0  0  0  0  0  0  0  0  0  0  0
   12.0109   11.1775    3.5201 O   0  0  0  0  0  0  0  0  0  0  0  0
   12.5193   10.5356    1.1429 O   0  0  0  0  0  0  0  0  0  0  0  0
   10.2267    9.9615    2.0303 C   0  0  0  0  0  0  0  0  0  0  0  0
    9.8542    9.6656    0.6812 C   0  0  0  0  0  0  0  0  0  0  0  0
    8.5050    9.4529    0.3047 C   0  0  0  0  0  0  0  0  0  0  0  0
    7.4980    9.5402    1.3037 C   0  0  0  0  0  0  0  0  0  0  0  0
    7.8305    9.8362    2.6586 C   0  0  0  0  0  0  0  0  0  0  0  0
    6.8359    9.9242    3.6532 C   0  0  0  0  0  0  0  0  0  0  0  0
    7.1893   10.2045    4.9234 N   0  0  0  0  0  0  0  0  0  0  0  0
    8.4558   10.4164    5.3403 C   0  0  0  0  0  0  0  0  0  0  0  0
    9.4825   10.3456    4.4149 C   0  0  0  0  0  0  0  0  0  0  0  0
    9.2008   10.0515    3.0384 C   0  0  0  0  0  0  0  0  0  0  0  0
   12.3844    8.7924    3.0105 N   0  0  0  0  0  0  0  0  0  0  0  0
   13.4737    8.1051    2.2116 C   0  0  0  0  0  0  0  0  0  0  0  0
   14.7855    8.9244    2.2632 C   0  0  0  0  0  0  0  0  0  0  0  0
   13.8310    6.7534    2.8856 C   0  0  0  0  0  0  0  0  0  0  0  0
   14.0298    6.9673    4.3763 N   0  0  0  0  0  0  0  0  0  0  0  0
   12.8706    7.5214    5.1087 C   0  0  0  0  0  0  0  0  0  0  0  0
   12.6320    8.9017    4.4861 C   0  0  0  0  0  0  0  0  0  0  0  0
   14.8128    7.6095    4.4983 H   0  0  0  0  0  0  0  0  0  0  0  0
  4  5  2  0  0  0
  4 13  1  0  0  0
  4  1  1  0  0  0
  5  6  1  0  0  0
  6  7  2  0  0  0
  7  8  1  0  0  0
  8  9  1  0  0  0
  8 13  2  0  0  0
  9 10  2  0  0  0
 10 11  1  0  0  0
 11 12  2  0  0  0
 12 13  1  0  0  0
  1  2  2  0  0  0
  1  3  2  0  0  0
  1 14  1  0  0  0
 14 15  1  0  0  0
 14 20  1  0  0  0
 15 16  1  0  0  0
 15 17  1  0  0  0
 17 18  1  0  0  0
 18 19  1  0  0  0
 19 20  1  0  0  0
 18 21  1  0  0  0
M  END
> <minimizedAffinity>
-7.16626

$$$$
1YDR_IQP_E_351


 21 23  0  0  0  0  0  0  0  0999 V2000
   12.1647    9.0795    3.7969 S   0  0  0  0  0  0  0  0  0  0  0  0
   11.5499    8.0195    4.5981 O   0  0  0  0  0  0  0  0  0  0  0  0
   12.3316   10.3964    4.3519 O   0  0  0  0  0  0  0  0  0  0  0  0
   11.1175    9.3698    2.3909 C   0  0  0  0  0  0  0  0  0  0  0  0
   11.7092    9.4991    1.0950 C   0  0  0  0  0  0  0  0  0  0  0  0
   10.9303    9.7298   -0.0659 C   0  0  0  0  0  0  0  0  0  0  0  0
    9.5199    9.8366    0.0713 C   0  0  0  0  0  0  0  0  0  0  0  0
    8.8943    9.7163    1.3473 C   0  0  0  0  0  0  0  0  0  0  0  0
    7.4961    9.8216    1.4890 C   0  0  0  0  0  0  0  0  0  0  0  0
    6.9411    9.7007    2.7114 N   0  0  0  0  0  0  0  0  0  0  0  0
    7.6311    9.4810    3.8509 C   0  0  0  0  0  0  0  0  0  0  0  0
    9.0088    9.3677    3.7841 C   0  0  0  0  0  0  0  0  0  0  0  0
    9.6869    9.4819    2.5241 C   0  0  0  0  0  0  0  0  0  0  0  0
   13.4862    8.4647    3.1351 N   0  0  0  0  0  0  0  0  0  0  0  0
   14.7765    8.9924    3.7297 C   0  0  0  0  0  0  0  0  0  0  0  0
   14.9046    8.5704    5.2130 C   0  0  0  0  0  0  0  0  0  0  0  0
   15.9824    8.3147    3.0256 C   0  0  0  0  0  0  0  0  0  0  0  0
   15.7554    6.8140    2.9641 N   0  0  0  0  0  0  0  0  0  0  0  0
   14.5367    6.3747    2.2507 C   0  0  0  0  0  0  0  0  0  0  0  0
   13.3731    6.9712    3.0506 C   0  0  0  0  0  0  0  0  0  0  0  0
   15.6996    6.4667    3.9215 H   0  0  0  0  0  0  0  0  0  0  0  0
  4  5  2  0  0  0
  4 13  1  0  0  0
  4  1  1  0  0  0
  5  6  1  0  0  0
  6  7  2  0  0  0
  7  8  1  0  0  0
  8  9  1  0  0  0
  8 13  2  0  0  0
  9 10  2  0  0  0
 10 11  1  0  0  0
 11 12  2  0  0  0
 12 13  1  0  0  0
  1  2  2  0  0  0
  1  3  2  0  0  0
  1 14  1  0  0  0
 14 15  1  0  0  0
 14 20  1  0  0  0
 15 16  1  0  0  0
 15 17  1  0  0  0
 17 18  1  0  0  0
 18 19  1  0  0  0
 19 20  1  0  0  0
 18 21  1  0  0  0
M  END
> <minimizedAffinity>
-6.96634

$$$$
