3ZYF_147_A_1001


 25 26  0  0  0  0  0  0  0  0999 V2000
    9.7448    8.5826   10.1935 C   0  0  0  0  0  0  0  0  0  0  0  0
   11.0972    7.9503   10.3441 C   0  0  0  0  0  0  0  0  0  0  0  0
   12.0294    8.8957   10.8173 O   0  0  0  0  0  0  0  0  0  0  0  0
   11.5630    7.3844    9.0856 C   0  0  0  0  0  0  0  0  0  0  0  0
   12.8289    6.6955    9.3629 O   0  0  0  0  0  0  0  0  0  0  0  0
   10.6208    6.4980    8.5269 C   0  0  0  0  0  0  0  0  0  0  0  0
   10.5389    5.2826    9.3248 O   0  0  0  0  0  0  0  0  0  0  0  0
    9.2535    7.0954    8.4263 C   0  0  0  0  0  0  0  0  0  0  0  0
    8.8143    7.6851    9.6967 O   0  0  0  0  0  0  0  0  0  0  0  0
   12.1127    9.6173   10.1746 H   0  0  0  0  0  0  0  0  0  0  0  0
   12.6794    5.9952   10.0172 H   0  0  0  0  0  0  0  0  0  0  0  0
   10.2287    5.5020   10.2173 H   0  0  0  0  0  0  0  0  0  0  0  0
    8.2660    6.0659    7.9631 C   0  0  0  0  0  0  0  0  0  0  0  0
    7.2945    6.4692    7.0982 O   0  0  0  0  0  0  0  0  0  0  0  0
    6.7204    7.1170    7.5360 H   0  0  0  0  0  0  0  0  0  0  0  0
    9.3217    9.0493   11.4404 O   0  0  0  0  0  0  0  0  0  0  0  0
    8.3271   10.0934   11.2200 C   0  0  0  0  0  0  0  0  0  0  0  0
    7.3271   10.2837   12.1377 C   0  0  0  0  0  0  0  0  0  0  0  0
    6.3418   11.3121   11.9252 C   0  0  0  0  0  0  0  0  0  0  0  0
    6.4136   12.0806   10.8190 C   0  0  0  0  0  0  0  0  0  0  0  0
    7.4286   11.8855    9.8953 C   0  0  0  0  0  0  0  0  0  0  0  0
    8.3972   10.8707   10.1070 C   0  0  0  0  0  0  0  0  0  0  0  0
    5.4329   13.1270   10.5922 N   0  0  0  0  0  0  0  0  0  0  0  0
    4.1592   12.8065   10.3417 O   0  0  0  0  0  0  0  0  0  0  0  0
    5.7894   14.3774   10.6930 O   0  0  0  0  0  0  0  0  0  0  0  0
  1  2  1  0  0  0
  1  9  1  0  0  0
  1 16  1  0  0  0
  2  3  1  0  0  0
  2  4  1  0  0  0
  4  5  1  0  0  0
  4  6  1  0  0  0
  6  7  1  0  0  0
  6  8  1  0  0  0
  8 13  1  0  0  0
  8  9  1  0  0  0
 13 14  1  0  0  0
 16 17  1  0  0  0
 17 18  2  0  0  0
 17 22  1  0  0  0
 18 19  1  0  0  0
 19 20  2  0  0  0
 20 21  1  0  0  0
 20 23  1  0  0  0
 21 22  2  0  0  0
 23 24  1  0  0  0
 23 25  2  0  0  0
  3 10  1  0  0  0
  5 11  1  0  0  0
  7 12  1  0  0  0
 14 15  1  0  0  0
M  CHG 1  23   1
M  CHG 1  24  -1
M  END
> <minimizedAffinity>
-6.30753

$$$$
3ZYF_147_A_1001


 25 26  0  0  0  0  0  0  0  0999 V2000
   11.3453    7.3943    8.8516 C   0  0  0  0  0  0  0  0  0  0  0  0
   10.1809    6.4521    8.9394 C   0  0  0  0  0  0  0  0  0  0  0  0
   10.5955    5.2090    9.4585 O   0  0  0  0  0  0  0  0  0  0  0  0
    9.5528    6.2600    7.6395 C   0  0  0  0  0  0  0  0  0  0  0  0
    8.3667    5.4218    7.8514 O   0  0  0  0  0  0  0  0  0  0  0  0
    9.2012    7.4853    7.0391 C   0  0  0  0  0  0  0  0  0  0  0  0
    8.0920    8.0972    7.7574 O   0  0  0  0  0  0  0  0  0  0  0  0
   10.3373    8.4569    6.9992 C   0  0  0  0  0  0  0  0  0  0  0  0
   10.9745    8.6149    8.3121 O   0  0  0  0  0  0  0  0  0  0  0  0
   11.2501    4.8120    8.8628 H   0  0  0  0  0  0  0  0  0  0  0  0
    7.7593    5.8694    8.4609 H   0  0  0  0  0  0  0  0  0  0  0  0
    8.3652    8.2942    8.6671 H   0  0  0  0  0  0  0  0  0  0  0  0
    9.8705    9.7864    6.4855 C   0  0  0  0  0  0  0  0  0  0  0  0
    9.1015    9.7928    5.3616 O   0  0  0  0  0  0  0  0  0  0  0  0
    9.6200    9.4580    4.6133 H   0  0  0  0  0  0  0  0  0  0  0  0
   11.8665    7.5908   10.1328 O   0  0  0  0  0  0  0  0  0  0  0  0
   11.1576    8.7098   10.7438 C   0  0  0  0  0  0  0  0  0  0  0  0
   11.7468    9.9466   10.7842 C   0  0  0  0  0  0  0  0  0  0  0  0
   11.0524   11.0549   11.3868 C   0  0  0  0  0  0  0  0  0  0  0  0
    9.8235   10.8626   11.9086 C   0  0  0  0  0  0  0  0  0  0  0  0
    9.2312    9.6102   11.8628 C   0  0  0  0  0  0  0  0  0  0  0  0
    9.9184    8.5200   11.2693 C   0  0  0  0  0  0  0  0  0  0  0  0
    9.1058   11.9703   12.5136 N   0  0  0  0  0  0  0  0  0  0  0  0
    7.8696   11.7860   12.9887 O   0  0  0  0  0  0  0  0  0  0  0  0
    9.6952   13.1264   12.6435 O   0  0  0  0  0  0  0  0  0  0  0  0
  1  2  1  0  0  0
  1  9  1  0  0  0
  1 16  1  0  0  0
  2  3  1  0  0  0
  2  4  1  0  0  0
  4  5  1  0  0  0
  4  6  1  0  0  0
  6  7  1  0  0  0
  6  8  1  0  0  0
  8 13  1  0  0  0
  8  9  1  0  0  0
 13 14  1  0  0  0
 16 17  1  0  0  0
 17 18  2  0  0  0
 17 22  1  0  0  0
 18 19  1  0  0  0
 19 20  2  0  0  0
 20 21  1  0  0  0
 20 23  1  0  0  0
 21 22  2  0  0  0
 23 24  1  0  0  0
 23 25  2  0  0  0
  3 10  1  0  0  0
  5 11  1  0  0  0
  7 12  1  0  0  0
 14 15  1  0  0  0
M  CHG 1  23   1
M  CHG 1  24  -1
M  END
> <minimizedAffinity>
-5.69471

$$$$
3ZYF_147_A_1001


 25 26  0  0  0  0  0  0  0  0999 V2000
    9.8650    8.7314    9.7309 C   0  0  0  0  0  0  0  0  0  0  0  0
   10.9146    7.7461   10.1537 C   0  0  0  0  0  0  0  0  0  0  0  0
   11.6131    8.2280   11.2791 O   0  0  0  0  0  0  0  0  0  0  0  0
   11.8505    7.4692    9.0727 C   0  0  0  0  0  0  0  0  0  0  0  0
   12.7593    6.4180    9.5454 O   0  0  0  0  0  0  0  0  0  0  0  0
   11.1894    7.0691    7.8944 C   0  0  0  0  0  0  0  0  0  0  0  0
   10.6157    5.7416    8.0657 O   0  0  0  0  0  0  0  0  0  0  0  0
   10.0996    8.0116    7.4941 C   0  0  0  0  0  0  0  0  0  0  0  0
    9.1840    8.2999    8.6048 O   0  0  0  0  0  0  0  0  0  0  0  0
   12.0631    9.0562   11.0501 H   0  0  0  0  0  0  0  0  0  0  0  0
   12.2480    5.6237    9.7658 H   0  0  0  0  0  0  0  0  0  0  0  0
    9.9503    5.7655    8.7711 H   0  0  0  0  0  0  0  0  0  0  0  0
    9.3389    7.4643    6.3232 C   0  0  0  0  0  0  0  0  0  0  0  0
   10.0597    6.9551    5.2860 O   0  0  0  0  0  0  0  0  0  0  0  0
   10.5801    7.6633    4.8755 H   0  0  0  0  0  0  0  0  0  0  0  0
    8.9614    8.9091   10.7815 O   0  0  0  0  0  0  0  0  0  0  0  0
    8.7024   10.3381   10.9197 C   0  0  0  0  0  0  0  0  0  0  0  0
    7.5877   10.7643   11.5936 C   0  0  0  0  0  0  0  0  0  0  0  0
    7.3261   12.1735   11.7326 C   0  0  0  0  0  0  0  0  0  0  0  0
    8.1851   13.0635   11.1944 C   0  0  0  0  0  0  0  0  0  0  0  0
    9.3122   12.6269   10.5160 C   0  0  0  0  0  0  0  0  0  0  0  0
    9.5666   11.2378   10.3799 C   0  0  0  0  0  0  0  0  0  0  0  0
    7.9409   14.4882   11.3311 N   0  0  0  0  0  0  0  0  0  0  0  0
    7.2741   14.9533   12.3928 O   0  0  0  0  0  0  0  0  0  0  0  0
    8.4261   15.3134   10.4455 O   0  0  0  0  0  0  0  0  0  0  0  0
  1  2  1  0  0  0
  1  9  1  0  0  0
  1 16  1  0  0  0
  2  3  1  0  0  0
  2  4  1  0  0  0
  4  5  1  0  0  0
  4  6  1  0  0  0
  6  7  1  0  0  0
  6  8  1  0  0  0
  8 13  1  0  0  0
  8  9  1  0  0  0
 13 14  1  0  0  0
 16 17  1  0  0  0
 17 18  2  0  0  0
 17 22  1  0  0  0
 18 19  1  0  0  0
 19 20  2  0  0  0
 20 21  1  0  0  0
 20 23  1  0  0  0
 21 22  2  0  0  0
 23 24  1  0  0  0
 23 25  2  0  0  0
  3 10  1  0  0  0
  5 11  1  0  0  0
  7 12  1  0  0  0
 14 15  1  0  0  0
M  CHG 1  23   1
M  CHG 1  24  -1
M  END
> <minimizedAffinity>
-5.11158

$$$$
3ZYF_147_A_1001


 25 26  0  0  0  0  0  0  0  0999 V2000
    9.9256    8.7788    8.6538 C   0  0  0  0  0  0  0  0  0  0  0  0
    9.8380    7.4929    9.4219 C   0  0  0  0  0  0  0  0  0  0  0  0
   10.2042    7.7005   10.7671 O   0  0  0  0  0  0  0  0  0  0  0  0
   10.6828    6.4629    8.8333 C   0  0  0  0  0  0  0  0  0  0  0  0
   10.4398    5.2238    9.5815 O   0  0  0  0  0  0  0  0  0  0  0  0
   10.4138    6.2825    7.4619 C   0  0  0  0  0  0  0  0  0  0  0  0
    9.1098    5.6594    7.2829 O   0  0  0  0  0  0  0  0  0  0  0  0
   10.4387    7.5654    6.6939 C   0  0  0  0  0  0  0  0  0  0  0  0
    9.6039    8.5987    7.3188 O   0  0  0  0  0  0  0  0  0  0  0  0
   11.1243    8.0050   10.8084 H   0  0  0  0  0  0  0  0  0  0  0  0
    9.5038    4.9802    9.5083 H   0  0  0  0  0  0  0  0  0  0  0  0
    8.4207    6.2453    7.6334 H   0  0  0  0  0  0  0  0  0  0  0  0
   10.0053    7.3349    5.2768 C   0  0  0  0  0  0  0  0  0  0  0  0
    8.6726    7.4072    5.0059 O   0  0  0  0  0  0  0  0  0  0  0  0
    8.2080    6.6980    5.4771 H   0  0  0  0  0  0  0  0  0  0  0  0
    9.0497    9.7066    9.2225 O   0  0  0  0  0  0  0  0  0  0  0  0
    9.7200   11.0019    9.2554 C   0  0  0  0  0  0  0  0  0  0  0  0
    9.1555   12.0753    8.6172 C   0  0  0  0  0  0  0  0  0  0  0  0
    9.8129   13.3562    8.6454 C   0  0  0  0  0  0  0  0  0  0  0  0
   10.9839   13.4861    9.3023 C   0  0  0  0  0  0  0  0  0  0  0  0
   11.5490   12.3977    9.9482 C   0  0  0  0  0  0  0  0  0  0  0  0
   10.8994   11.1368    9.9177 C   0  0  0  0  0  0  0  0  0  0  0  0
   11.6570   14.7718    9.3472 N   0  0  0  0  0  0  0  0  0  0  0  0
   12.2352   15.1843   10.4801 O   0  0  0  0  0  0  0  0  0  0  0  0
   11.7447   15.4919    8.2634 O   0  0  0  0  0  0  0  0  0  0  0  0
  1  2  1  0  0  0
  1  9  1  0  0  0
  1 16  1  0  0  0
  2  3  1  0  0  0
  2  4  1  0  0  0
  4  5  1  0  0  0
  4  6  1  0  0  0
  6  7  1  0  0  0
  6  8  1  0  0  0
  8 13  1  0  0  0
  8  9  1  0  0  0
 13 14  1  0  0  0
 16 17  1  0  0  0
 17 18  2  0  0  0
 17 22  1  0  0  0
 18 19  1  0  0  0
 19 20  2  0  0  0
 20 21  1  0  0  0
 20 23  1  0  0  0
 21 22  2  0  0  0
 23 24  1  0  0  0
 23 25  2  0  0  0
  3 10  1  0  0  0
  5 11  1  0  0  0
  7 12  1  0  0  0
 14 15  1  0  0  0
M  CHG 1  23   1
M  CHG 1  24  -1
M  END
> <minimizedAffinity>
-4.98521

$$$$
3ZYF_147_A_1001


 25 26  0  0  0  0  0  0  0  0999 V2000
   10.9940    9.8184   12.2376 C   0  0  0  0  0  0  0  0  0  0  0  0
   10.1527   10.6071   13.1976 C   0  0  0  0  0  0  0  0  0  0  0  0
    8.8764   10.8447   12.6486 O   0  0  0  0  0  0  0  0  0  0  0  0
   10.7851   11.8726   13.5435 C   0  0  0  0  0  0  0  0  0  0  0  0
    9.9469   12.5103   14.5657 O   0  0  0  0  0  0  0  0  0  0  0  0
   12.1008   11.6917   14.0142 C   0  0  0  0  0  0  0  0  0  0  0  0
   12.0831   11.0615   15.3269 O   0  0  0  0  0  0  0  0  0  0  0  0
   12.9340   10.8561   13.0954 C   0  0  0  0  0  0  0  0  0  0  0  0
   12.2672    9.5986   12.7364 O   0  0  0  0  0  0  0  0  0  0  0  0
    8.9658   11.3689   11.8374 H   0  0  0  0  0  0  0  0  0  0  0  0
    9.8903   11.9334   15.3435 H   0  0  0  0  0  0  0  0  0  0  0  0
   11.6822   10.1810   15.2576 H   0  0  0  0  0  0  0  0  0  0  0  0
   14.2721   10.5763   13.7123 C   0  0  0  0  0  0  0  0  0  0  0  0
   14.4196    9.4062   14.3932 O   0  0  0  0  0  0  0  0  0  0  0  0
   13.8362    9.4073   15.1682 H   0  0  0  0  0  0  0  0  0  0  0  0
   10.3720    8.5917   11.9926 O   0  0  0  0  0  0  0  0  0  0  0  0
   10.2745    8.4134   10.5481 C   0  0  0  0  0  0  0  0  0  0  0  0
   11.3698    7.9918    9.8402 C   0  0  0  0  0  0  0  0  0  0  0  0
   11.2800    7.8149    8.4139 C   0  0  0  0  0  0  0  0  0  0  0  0
   10.1131    8.0681    7.7866 C   0  0  0  0  0  0  0  0  0  0  0  0
    9.0078    8.4918    8.5078 C   0  0  0  0  0  0  0  0  0  0  0  0
    9.0997    8.6662    9.9128 C   0  0  0  0  0  0  0  0  0  0  0  0
   10.0024    7.8881    6.3501 N   0  0  0  0  0  0  0  0  0  0  0  0
    9.7916    8.9447    5.5583 O   0  0  0  0  0  0  0  0  0  0  0  0
   10.1687    6.7019    5.8343 O   0  0  0  0  0  0  0  0  0  0  0  0
  1  2  1  0  0  0
  1  9  1  0  0  0
  1 16  1  0  0  0
  2  3  1  0  0  0
  2  4  1  0  0  0
  4  5  1  0  0  0
  4  6  1  0  0  0
  6  7  1  0  0  0
  6  8  1  0  0  0
  8 13  1  0  0  0
  8  9  1  0  0  0
 13 14  1  0  0  0
 16 17  1  0  0  0
 17 18  2  0  0  0
 17 22  1  0  0  0
 18 19  1  0  0  0
 19 20  2  0  0  0
 20 21  1  0  0  0
 20 23  1  0  0  0
 21 22  2  0  0  0
 23 24  1  0  0  0
 23 25  2  0  0  0
  3 10  1  0  0  0
  5 11  1  0  0  0
  7 12  1  0  0  0
 14 15  1  0  0  0
M  CHG 1  23   1
M  CHG 1  24  -1
M  END
> <minimizedAffinity>
-4.96501

$$$$
3ZYF_147_A_1001


 25 26  0  0  0  0  0  0  0  0999 V2000
    6.7534   10.8829   12.2464 C   0  0  0  0  0  0  0  0  0  0  0  0
    6.1427   11.8042   11.2317 C   0  0  0  0  0  0  0  0  0  0  0  0
    7.1423   12.5814   10.6123 O   0  0  0  0  0  0  0  0  0  0  0  0
    5.1441   12.6748   11.8366 C   0  0  0  0  0  0  0  0  0  0  0  0
    4.5301   13.4489   10.7513 O   0  0  0  0  0  0  0  0  0  0  0  0
    4.1700   11.9443   12.5459 C   0  0  0  0  0  0  0  0  0  0  0  0
    3.3215   11.2069   11.6201 O   0  0  0  0  0  0  0  0  0  0  0  0
    4.7665   10.9780   13.5189 C   0  0  0  0  0  0  0  0  0  0  0  0
    5.7902   10.1296   12.8968 O   0  0  0  0  0  0  0  0  0  0  0  0
    7.5845   13.1302   11.2787 H   0  0  0  0  0  0  0  0  0  0  0  0
    4.1155   12.8435   10.1168 H   0  0  0  0  0  0  0  0  0  0  0  0
    3.8587   10.5643   11.1309 H   0  0  0  0  0  0  0  0  0  0  0  0
    3.6950   10.1299   14.1369 C   0  0  0  0  0  0  0  0  0  0  0  0
    3.1837    9.1150   13.3865 O   0  0  0  0  0  0  0  0  0  0  0  0
    2.7290    9.4825   12.6125 H   0  0  0  0  0  0  0  0  0  0  0  0
    7.6530   10.0309   11.6010 O   0  0  0  0  0  0  0  0  0  0  0  0
    8.9631   10.2027   12.2191 C   0  0  0  0  0  0  0  0  0  0  0  0
   10.0229    9.4496   11.7854 C   0  0  0  0  0  0  0  0  0  0  0  0
   11.3184    9.6140   12.3923 C   0  0  0  0  0  0  0  0  0  0  0  0
   11.4755   10.5116   13.3868 C   0  0  0  0  0  0  0  0  0  0  0  0
   10.4008   11.2725   13.8197 C   0  0  0  0  0  0  0  0  0  0  0  0
    9.1255   11.1074   13.2205 C   0  0  0  0  0  0  0  0  0  0  0  0
   12.7763   10.6958   14.0051 N   0  0  0  0  0  0  0  0  0  0  0  0
   13.7658    9.8335   13.7498 O   0  0  0  0  0  0  0  0  0  0  0  0
   12.9892   11.7370   14.7610 O   0  0  0  0  0  0  0  0  0  0  0  0
  1  2  1  0  0  0
  1  9  1  0  0  0
  1 16  1  0  0  0
  2  3  1  0  0  0
  2  4  1  0  0  0
  4  5  1  0  0  0
  4  6  1  0  0  0
  6  7  1  0  0  0
  6  8  1  0  0  0
  8 13  1  0  0  0
  8  9  1  0  0  0
 13 14  1  0  0  0
 16 17  1  0  0  0
 17 18  2  0  0  0
 17 22  1  0  0  0
 18 19  1  0  0  0
 19 20  2  0  0  0
 20 21  1  0  0  0
 20 23  1  0  0  0
 21 22  2  0  0  0
 23 24  1  0  0  0
 23 25  2  0  0  0
  3 10  1  0  0  0
  5 11  1  0  0  0
  7 12  1  0  0  0
 14 15  1  0  0  0
M  CHG 1  23   1
M  CHG 1  24  -1
M  END
> <minimizedAffinity>
-4.91405

$$$$
3ZYF_147_A_1001


 25 26  0  0  0  0  0  0  0  0999 V2000
   10.1983    8.4904   10.3278 C   0  0  0  0  0  0  0  0  0  0  0  0
   11.5413    8.1333    9.7620 C   0  0  0  0  0  0  0  0  0  0  0  0
   12.5180    9.0475   10.2058 O   0  0  0  0  0  0  0  0  0  0  0  0
   11.5151    8.1065    8.3060 C   0  0  0  0  0  0  0  0  0  0  0  0
   12.8322    7.6390    7.8579 O   0  0  0  0  0  0  0  0  0  0  0  0
   10.4918    7.2721    7.8138 C   0  0  0  0  0  0  0  0  0  0  0  0
   10.8109    5.8759    8.0773 O   0  0  0  0  0  0  0  0  0  0  0  0
    9.1570    7.5778    8.4148 C   0  0  0  0  0  0  0  0  0  0  0  0
    9.2107    7.6284    9.8809 O   0  0  0  0  0  0  0  0  0  0  0  0
   12.2943    9.9375    9.8916 H   0  0  0  0  0  0  0  0  0  0  0  0
   12.9981    6.7515    8.2125 H   0  0  0  0  0  0  0  0  0  0  0  0
   10.8603    5.7307    9.0351 H   0  0  0  0  0  0  0  0  0  0  0  0
    8.1392    6.5714    7.9672 C   0  0  0  0  0  0  0  0  0  0  0  0
    7.8724    6.4954    6.6339 O   0  0  0  0  0  0  0  0  0  0  0  0
    7.4768    7.3292    6.3353 H   0  0  0  0  0  0  0  0  0  0  0  0
   10.2659    8.4378   11.7222 O   0  0  0  0  0  0  0  0  0  0  0  0
    9.7130    9.6804   12.2499 C   0  0  0  0  0  0  0  0  0  0  0  0
    8.4366   10.0516   11.9164 C   0  0  0  0  0  0  0  0  0  0  0  0
    7.8857   11.2775   12.4335 C   0  0  0  0  0  0  0  0  0  0  0  0
    8.6361   12.0517   13.2441 C   0  0  0  0  0  0  0  0  0  0  0  0
    9.9256   11.6701   13.5802 C   0  0  0  0  0  0  0  0  0  0  0  0
   10.4659   10.4622   13.0682 C   0  0  0  0  0  0  0  0  0  0  0  0
    8.0942   13.2873   13.7805 N   0  0  0  0  0  0  0  0  0  0  0  0
    8.8741   14.3681   13.8880 O   0  0  0  0  0  0  0  0  0  0  0  0
    6.8314   13.3525   14.0998 O   0  0  0  0  0  0  0  0  0  0  0  0
  1  2  1  0  0  0
  1  9  1  0  0  0
  1 16  1  0  0  0
  2  3  1  0  0  0
  2  4  1  0  0  0
  4  5  1  0  0  0
  4  6  1  0  0  0
  6  7  1  0  0  0
  6  8  1  0  0  0
  8 13  1  0  0  0
  8  9  1  0  0  0
 13 14  1  0  0  0
 16 17  1  0  0  0
 17 18  2  0  0  0
 17 22  1  0  0  0
 18 19  1  0  0  0
 19 20  2  0  0  0
 20 21  1  0  0  0
 20 23  1  0  0  0
 21 22  2  0  0  0
 23 24  1  0  0  0
 23 25  2  0  0  0
  3 10  1  0  0  0
  5 11  1  0  0  0
  7 12  1  0  0  0
 14 15  1  0  0  0
M  CHG 1  23   1
M  CHG 1  24  -1
M  END
> <minimizedAffinity>
-4.88381

$$$$
3ZYF_147_A_1001


 25 26  0  0  0  0  0  0  0  0999 V2000
    7.4136   11.1289   12.3433 C   0  0  0  0  0  0  0  0  0  0  0  0
    7.7163   12.2511   13.2921 C   0  0  0  0  0  0  0  0  0  0  0  0
    9.1091   12.4401   13.3979 O   0  0  0  0  0  0  0  0  0  0  0  0
    7.1502   12.0006   14.6103 C   0  0  0  0  0  0  0  0  0  0  0  0
    7.4001   13.1968   15.4233 O   0  0  0  0  0  0  0  0  0  0  0  0
    5.7715   11.7167   14.5452 C   0  0  0  0  0  0  0  0  0  0  0  0
    5.0276   12.9155   14.1846 O   0  0  0  0  0  0  0  0  0  0  0  0
    5.4487   10.6403   13.5585 C   0  0  0  0  0  0  0  0  0  0  0  0
    6.0517   10.8970   12.2450 O   0  0  0  0  0  0  0  0  0  0  0  0
    9.5183   11.6360   13.7542 H   0  0  0  0  0  0  0  0  0  0  0  0
    6.9743   13.9638   15.0093 H   0  0  0  0  0  0  0  0  0  0  0  0
    5.2992   13.2112   13.3015 H   0  0  0  0  0  0  0  0  0  0  0  0
    3.9633   10.4814   13.4255 C   0  0  0  0  0  0  0  0  0  0  0  0
    3.4574    9.2182   13.4803 O   0  0  0  0  0  0  0  0  0  0  0  0
    3.7838    8.7061   12.7239 H   0  0  0  0  0  0  0  0  0  0  0  0
    7.9229   11.4514   11.0831 O   0  0  0  0  0  0  0  0  0  0  0  0
    8.8009   10.3669   10.6578 C   0  0  0  0  0  0  0  0  0  0  0  0
    9.1882    9.4123   11.5617 C   0  0  0  0  0  0  0  0  0  0  0  0
   10.0555    8.3398   11.1481 C   0  0  0  0  0  0  0  0  0  0  0  0
   10.4804    8.2864    9.8690 C   0  0  0  0  0  0  0  0  0  0  0  0
   10.0834    9.2531    8.9583 C   0  0  0  0  0  0  0  0  0  0  0  0
    9.2297   10.3091    9.3691 C   0  0  0  0  0  0  0  0  0  0  0  0
   11.3493    7.2080    9.4327 N   0  0  0  0  0  0  0  0  0  0  0  0
   12.6765    7.3690    9.4540 O   0  0  0  0  0  0  0  0  0  0  0  0
   10.8304    6.0654    9.0778 O   0  0  0  0  0  0  0  0  0  0  0  0
  1  2  1  0  0  0
  1  9  1  0  0  0
  1 16  1  0  0  0
  2  3  1  0  0  0
  2  4  1  0  0  0
  4  5  1  0  0  0
  4  6  1  0  0  0
  6  7  1  0  0  0
  6  8  1  0  0  0
  8 13  1  0  0  0
  8  9  1  0  0  0
 13 14  1  0  0  0
 16 17  1  0  0  0
 17 18  2  0  0  0
 17 22  1  0  0  0
 18 19  1  0  0  0
 19 20  2  0  0  0
 20 21  1  0  0  0
 20 23  1  0  0  0
 21 22  2  0  0  0
 23 24  1  0  0  0
 23 25  2  0  0  0
  3 10  1  0  0  0
  5 11  1  0  0  0
  7 12  1  0  0  0
 14 15  1  0  0  0
M  CHG 1  23   1
M  CHG 1  24  -1
M  END
> <minimizedAffinity>
-4.87677

$$$$
3ZYF_147_A_1001


 25 26  0  0  0  0  0  0  0  0999 V2000
   10.3383    7.9893    6.4273 C   0  0  0  0  0  0  0  0  0  0  0  0
    9.4610    6.7733    6.4810 C   0  0  0  0  0  0  0  0  0  0  0  0
    8.4077    6.8884    5.5514 O   0  0  0  0  0  0  0  0  0  0  0  0
    8.9201    6.5661    7.8172 C   0  0  0  0  0  0  0  0  0  0  0  0
    8.1771    5.3006    7.7922 O   0  0  0  0  0  0  0  0  0  0  0  0
    9.9336    6.5342    8.7957 C   0  0  0  0  0  0  0  0  0  0  0  0
   10.7238    5.3183    8.6617 O   0  0  0  0  0  0  0  0  0  0  0  0
   10.8525    7.7113    8.7153 C   0  0  0  0  0  0  0  0  0  0  0  0
   11.3641    7.9198    7.3553 O   0  0  0  0  0  0  0  0  0  0  0  0
    7.8596    7.6561    5.7773 H   0  0  0  0  0  0  0  0  0  0  0  0
    8.7775    4.5779    7.5514 H   0  0  0  0  0  0  0  0  0  0  0  0
   11.1630    5.3117    7.7968 H   0  0  0  0  0  0  0  0  0  0  0  0
   11.9904    7.5530    9.6793 C   0  0  0  0  0  0  0  0  0  0  0  0
   11.7492    7.8327   10.9900 O   0  0  0  0  0  0  0  0  0  0  0  0
   11.5331    8.7735   11.0854 H   0  0  0  0  0  0  0  0  0  0  0  0
   10.8787    8.1015    5.1439 O   0  0  0  0  0  0  0  0  0  0  0  0
   10.7179    9.4830    4.7036 C   0  0  0  0  0  0  0  0  0  0  0  0
    9.6909   10.2402    5.2039 C   0  0  0  0  0  0  0  0  0  0  0  0
    9.5265   11.6042    4.7724 C   0  0  0  0  0  0  0  0  0  0  0  0
   10.3890   12.1243    3.8752 C   0  0  0  0  0  0  0  0  0  0  0  0
   11.4275   11.3547    3.3744 C   0  0  0  0  0  0  0  0  0  0  0  0
   11.5862   10.0108    3.8007 C   0  0  0  0  0  0  0  0  0  0  0  0
   10.2427   13.5000    3.4345 N   0  0  0  0  0  0  0  0  0  0  0  0
   11.2980   14.3212    3.4455 O   0  0  0  0  0  0  0  0  0  0  0  0
    9.0939   13.9107    2.9738 O   0  0  0  0  0  0  0  0  0  0  0  0
  1  2  1  0  0  0
  1  9  1  0  0  0
  1 16  1  0  0  0
  2  3  1  0  0  0
  2  4  1  0  0  0
  4  5  1  0  0  0
  4  6  1  0  0  0
  6  7  1  0  0  0
  6  8  1  0  0  0
  8 13  1  0  0  0
  8  9  1  0  0  0
 13 14  1  0  0  0
 16 17  1  0  0  0
 17 18  2  0  0  0
 17 22  1  0  0  0
 18 19  1  0  0  0
 19 20  2  0  0  0
 20 21  1  0  0  0
 20 23  1  0  0  0
 21 22  2  0  0  0
 23 24  1  0  0  0
 23 25  2  0  0  0
  3 10  1  0  0  0
  5 11  1  0  0  0
  7 12  1  0  0  0
 14 15  1  0  0  0
M  CHG 1  23   1
M  CHG 1  24  -1
M  END
> <minimizedAffinity>
-4.82391

$$$$
3ZYF_147_A_1001


 25 26  0  0  0  0  0  0  0  0999 V2000
    4.1918   11.0406   13.1182 C   0  0  0  0  0  0  0  0  0  0  0  0
    3.1706   10.2992   13.9299 C   0  0  0  0  0  0  0  0  0  0  0  0
    3.7874    9.2714   14.6715 O   0  0  0  0  0  0  0  0  0  0  0  0
    2.1242    9.7396   13.0857 C   0  0  0  0  0  0  0  0  0  0  0  0
    1.1237    9.1397   13.9764 O   0  0  0  0  0  0  0  0  0  0  0  0
    1.5375   10.7173   12.2577 C   0  0  0  0  0  0  0  0  0  0  0  0
    0.7402   11.6389   13.0551 O   0  0  0  0  0  0  0  0  0  0  0  0
    2.5485   11.5051   11.4872 C   0  0  0  0  0  0  0  0  0  0  0  0
    3.6094   12.0363   12.3516 O   0  0  0  0  0  0  0  0  0  0  0  0
    4.1974    8.6359   14.0641 H   0  0  0  0  0  0  0  0  0  0  0  0
    0.7609    9.8228   14.5618 H   0  0  0  0  0  0  0  0  0  0  0  0
    1.3152   12.1049   13.6820 H   0  0  0  0  0  0  0  0  0  0  0  0
    1.8819   12.6206   10.7384 C   0  0  0  0  0  0  0  0  0  0  0  0
    0.6600   12.3705   10.1917 O   0  0  0  0  0  0  0  0  0  0  0  0
    0.7458   11.6900    9.5059 H   0  0  0  0  0  0  0  0  0  0  0  0
    5.1317   11.6082   13.9820 O   0  0  0  0  0  0  0  0  0  0  0  0
    6.4619   11.3191   13.4575 C   0  0  0  0  0  0  0  0  0  0  0  0
    6.6217   10.3380   12.5141 C   0  0  0  0  0  0  0  0  0  0  0  0
    7.9324   10.0475   11.9932 C   0  0  0  0  0  0  0  0  0  0  0  0
    8.9945   10.7471   12.4426 C   0  0  0  0  0  0  0  0  0  0  0  0
    8.8268   11.7401   13.3951 C   0  0  0  0  0  0  0  0  0  0  0  0
    7.5342   12.0233   13.9071 C   0  0  0  0  0  0  0  0  0  0  0  0
   10.3223   10.4725   11.9233 N   0  0  0  0  0  0  0  0  0  0  0  0
   10.8522   11.2686   10.9887 O   0  0  0  0  0  0  0  0  0  0  0  0
   11.0152    9.4833   12.4153 O   0  0  0  0  0  0  0  0  0  0  0  0
  1  2  1  0  0  0
  1  9  1  0  0  0
  1 16  1  0  0  0
  2  3  1  0  0  0
  2  4  1  0  0  0
  4  5  1  0  0  0
  4  6  1  0  0  0
  6  7  1  0  0  0
  6  8  1  0  0  0
  8 13  1  0  0  0
  8  9  1  0  0  0
 13 14  1  0  0  0
 16 17  1  0  0  0
 17 18  2  0  0  0
 17 22  1  0  0  0
 18 19  1  0  0  0
 19 20  2  0  0  0
 20 21  1  0  0  0
 20 23  1  0  0  0
 21 22  2  0  0  0
 23 24  1  0  0  0
 23 25  2  0  0  0
  3 10  1  0  0  0
  5 11  1  0  0  0
  7 12  1  0  0  0
 14 15  1  0  0  0
M  CHG 1  23   1
M  CHG 1  24  -1
M  END
> <minimizedAffinity>
-4.81485

$$$$
