3GVU_STI_A_1001


 39 43  0  0  0  0  0  0  0  0999 V2000
   13.0828    8.2534   18.2198 C   0  0  0  0  0  0  0  0  0  0  0  0
   12.7951    8.1048   16.8764 C   0  0  0  0  0  0  0  0  0  0  0  0
   13.7251    8.5237   15.9353 C   0  0  0  0  0  0  0  0  0  0  0  0
   14.9274    9.0727   16.3061 C   0  0  0  0  0  0  0  0  0  0  0  0
   15.2461    9.2264   17.6468 C   0  0  0  0  0  0  0  0  0  0  0  0
   14.3113    8.7885   18.5876 C   0  0  0  0  0  0  0  0  0  0  0  0
   11.4606    7.5088   16.4125 C   0  0  0  0  0  0  0  0  0  0  0  0
   16.4708    9.7222   17.9570 N   0  0  0  0  0  0  0  0  0  0  0  0
   16.9982    9.8499   19.1886 C   0  0  0  0  0  0  0  0  0  0  0  0
   16.3959    9.6880   20.2554 O   0  0  0  0  0  0  0  0  0  0  0  0
   17.0310   10.0189   17.2037 H   0  0  0  0  0  0  0  0  0  0  0  0
   18.4729   10.2828   19.2397 C   0  0  0  0  0  0  0  0  0  0  0  0
   19.1285   10.9061   18.1848 C   0  0  0  0  0  0  0  0  0  0  0  0
   20.4696   11.2776   18.3119 C   0  0  0  0  0  0  0  0  0  0  0  0
   21.1700   11.0303   19.4878 C   0  0  0  0  0  0  0  0  0  0  0  0
   20.5063   10.4039   20.5138 C   0  0  0  0  0  0  0  0  0  0  0  0
   19.1730   10.0396   20.4006 C   0  0  0  0  0  0  0  0  0  0  0  0
   22.6635   11.4444   19.6907 C   0  0  0  0  0  0  0  0  0  0  0  0
   22.9756   12.7047   18.9835 N   0  0  0  0  0  0  0  0  0  0  0  0
   22.6624   13.7648   19.8699 C   0  0  0  0  0  0  0  0  0  0  0  0
   22.8871   15.0501   19.0613 C   0  0  0  0  0  0  0  0  0  0  0  0
   24.3063   15.2119   18.6568 N   0  0  0  0  0  0  0  0  0  0  0  0
   24.5235   16.2492   17.6523 C   0  0  0  0  0  0  0  0  0  0  0  0
   24.5757   14.0177   17.7907 C   0  0  0  0  0  0  0  0  0  0  0  0
   24.3653   12.7051   18.5977 C   0  0  0  0  0  0  0  0  0  0  0  0
   12.2390    7.8077   19.1713 N   0  0  0  0  0  0  0  0  0  0  0  0
   12.4159    6.9214   19.5616 H   0  0  0  0  0  0  0  0  0  0  0  0
    9.2282    8.5034   20.9288 C   0  0  0  0  0  0  0  0  0  0  0  0
    9.0167    9.8282   20.5505 C   0  0  0  0  0  0  0  0  0  0  0  0
    9.9357   10.4123   19.6807 C   0  0  0  0  0  0  0  0  0  0  0  0
   10.9816    9.7429   19.2361 N   0  0  0  0  0  0  0  0  0  0  0  0
   11.1860    8.4802   19.6186 C   0  0  0  0  0  0  0  0  0  0  0  0
   10.3098    7.8585   20.4331 N   0  0  0  0  0  0  0  0  0  0  0  0
    6.4067    7.8265   23.2242 C   0  0  0  0  0  0  0  0  0  0  0  0
    7.2565    8.5350   22.3760 C   0  0  0  0  0  0  0  0  0  0  0  0
    8.3384    7.8551   21.7918 C   0  0  0  0  0  0  0  0  0  0  0  0
    8.5063    6.5001   22.0842 C   0  0  0  0  0  0  0  0  0  0  0  0
    7.6776    5.8515   22.8985 N   0  0  0  0  0  0  0  0  0  0  0  0
    6.6509    6.4672   23.4613 C   0  0  0  0  0  0  0  0  0  0  0  0
 34 35  2  0  0  0
 34 39  1  0  0  0
 35 36  1  0  0  0
 36 37  2  0  0  0
 36 28  1  0  0  0
 37 38  1  0  0  0
 38 39  2  0  0  0
 28 29  2  0  0  0
 28 33  1  0  0  0
 29 30  1  0  0  0
 30 31  2  0  0  0
 31 32  1  0  0  0
 32 33  2  0  0  0
 32 26  1  0  0  0
 26  1  1  0  0  0
  1  2  2  0  0  0
  1  6  1  0  0  0
  2  3  1  0  0  0
  2  7  1  0  0  0
  3  4  2  0  0  0
  4  5  1  0  0  0
  5  6  2  0  0  0
  5  8  1  0  0  0
  8  9  1  0  0  0
  9 12  1  0  0  0
  9 10  2  0  0  0
 12 13  2  0  0  0
 12 17  1  0  0  0
 13 14  1  0  0  0
 14 15  2  0  0  0
 15 16  1  0  0  0
 15 18  1  0  0  0
 16 17  2  0  0  0
 18 19  1  0  0  0
 19 20  1  0  0  0
 19 25  1  0  0  0
 20 21  1  0  0  0
 21 22  1  0  0  0
 22 23  1  0  0  0
 22 24  1  0  0  0
 24 25  1  0  0  0
 26 27  1  0  0  0
  8 11  1  0  0  0
M  END
> <minimizedAffinity>
-13.26426

$$$$
3GVU_STI_A_1001


 39 43  0  0  0  0  0  0  0  0999 V2000
   21.0276   13.0003   18.1244 C   0  0  0  0  0  0  0  0  0  0  0  0
   22.0635   12.1850   18.5393 C   0  0  0  0  0  0  0  0  0  0  0  0
   21.7899   10.8713   18.8933 C   0  0  0  0  0  0  0  0  0  0  0  0
   20.5178   10.3591   18.8321 C   0  0  0  0  0  0  0  0  0  0  0  0
   19.4606   11.1518   18.4118 C   0  0  0  0  0  0  0  0  0  0  0  0
   19.7466   12.4681   18.0429 C   0  0  0  0  0  0  0  0  0  0  0  0
   23.4993   12.7147   18.6363 C   0  0  0  0  0  0  0  0  0  0  0  0
   18.2341   10.5785   18.3161 N   0  0  0  0  0  0  0  0  0  0  0  0
   17.5376    9.9989   19.3112 C   0  0  0  0  0  0  0  0  0  0  0  0
   17.9640    9.7472   20.4434 O   0  0  0  0  0  0  0  0  0  0  0  0
   17.8104   10.5876   17.4275 H   0  0  0  0  0  0  0  0  0  0  0  0
   16.0993    9.5817   18.9619 C   0  0  0  0  0  0  0  0  0  0  0  0
   15.6600    9.3479   17.6644 C   0  0  0  0  0  0  0  0  0  0  0  0
   14.3375    8.9626   17.4289 C   0  0  0  0  0  0  0  0  0  0  0  0
   13.4410    8.8091   18.4810 C   0  0  0  0  0  0  0  0  0  0  0  0
   13.8930    9.0555   19.7541 C   0  0  0  0  0  0  0  0  0  0  0  0
   15.2058    9.4294   19.9989 C   0  0  0  0  0  0  0  0  0  0  0  0
   11.9582    8.3593   18.2756 C   0  0  0  0  0  0  0  0  0  0  0  0
   11.1379    8.6395   19.4733 N   0  0  0  0  0  0  0  0  0  0  0  0
   10.2113    9.6490   19.1128 C   0  0  0  0  0  0  0  0  0  0  0  0
    9.4617    9.9933   20.4074 C   0  0  0  0  0  0  0  0  0  0  0  0
    8.6845    8.8388   20.9241 N   0  0  0  0  0  0  0  0  0  0  0  0
    8.1937    9.0153   22.2880 C   0  0  0  0  0  0  0  0  0  0  0  0
    9.7256    7.7969   21.2060 C   0  0  0  0  0  0  0  0  0  0  0  0
   10.4871    7.4258   19.9020 C   0  0  0  0  0  0  0  0  0  0  0  0
   21.2511   14.2640   17.7135 N   0  0  0  0  0  0  0  0  0  0  0  0
   21.4035   14.9497   18.4033 H   0  0  0  0  0  0  0  0  0  0  0  0
   20.2296   15.7820   14.6656 C   0  0  0  0  0  0  0  0  0  0  0  0
   21.3068   15.4495   13.8457 C   0  0  0  0  0  0  0  0  0  0  0  0
   22.3375   14.6920   14.3991 C   0  0  0  0  0  0  0  0  0  0  0  0
   22.3074   14.3097   15.6610 N   0  0  0  0  0  0  0  0  0  0  0  0
   21.2803   14.6487   16.4437 C   0  0  0  0  0  0  0  0  0  0  0  0
   20.2426   15.3530   15.9490 N   0  0  0  0  0  0  0  0  0  0  0  0
   17.0225   16.7259   13.0809 C   0  0  0  0  0  0  0  0  0  0  0  0
   18.0574   15.9177   13.5495 C   0  0  0  0  0  0  0  0  0  0  0  0
   19.1581   16.5322   14.1697 C   0  0  0  0  0  0  0  0  0  0  0  0
   19.1592   17.9231   14.2927 C   0  0  0  0  0  0  0  0  0  0  0  0
   18.1557   18.6673   13.8348 N   0  0  0  0  0  0  0  0  0  0  0  0
   17.1072   18.1147   13.2473 C   0  0  0  0  0  0  0  0  0  0  0  0
 34 35  2  0  0  0
 34 39  1  0  0  0
 35 36  1  0  0  0
 36 37  2  0  0  0
 36 28  1  0  0  0
 37 38  1  0  0  0
 38 39  2  0  0  0
 28 29  2  0  0  0
 28 33  1  0  0  0
 29 30  1  0  0  0
 30 31  2  0  0  0
 31 32  1  0  0  0
 32 33  2  0  0  0
 32 26  1  0  0  0
 26  1  1  0  0  0
  1  2  2  0  0  0
  1  6  1  0  0  0
  2  3  1  0  0  0
  2  7  1  0  0  0
  3  4  2  0  0  0
  4  5  1  0  0  0
  5  6  2  0  0  0
  5  8  1  0  0  0
  8  9  1  0  0  0
  9 12  1  0  0  0
  9 10  2  0  0  0
 12 13  2  0  0  0
 12 17  1  0  0  0
 13 14  1  0  0  0
 14 15  2  0  0  0
 15 16  1  0  0  0
 15 18  1  0  0  0
 16 17  2  0  0  0
 18 19  1  0  0  0
 19 20  1  0  0  0
 19 25  1  0  0  0
 20 21  1  0  0  0
 21 22  1  0  0  0
 22 23  1  0  0  0
 22 24  1  0  0  0
 24 25  1  0  0  0
 26 27  1  0  0  0
  8 11  1  0  0  0
M  END
> <minimizedAffinity>
-11.28808

$$$$
3GVU_STI_A_1001


 39 43  0  0  0  0  0  0  0  0999 V2000
   21.6134   11.1183   19.7799 C   0  0  0  0  0  0  0  0  0  0  0  0
   22.1433   10.6451   20.9653 C   0  0  0  0  0  0  0  0  0  0  0  0
   21.3135    9.9862   21.8615 C   0  0  0  0  0  0  0  0  0  0  0  0
   19.9820    9.7843   21.5952 C   0  0  0  0  0  0  0  0  0  0  0  0
   19.4252   10.2411   20.4104 C   0  0  0  0  0  0  0  0  0  0  0  0
   20.2702   10.8898   19.5071 C   0  0  0  0  0  0  0  0  0  0  0  0
   23.6215   10.8571   21.3135 C   0  0  0  0  0  0  0  0  0  0  0  0
   18.1178    9.9646   20.1734 N   0  0  0  0  0  0  0  0  0  0  0  0
   17.4683   10.0931   19.0017 C   0  0  0  0  0  0  0  0  0  0  0  0
   17.9104   10.6363   17.9836 O   0  0  0  0  0  0  0  0  0  0  0  0
   17.5903    9.6363   20.9371 H   0  0  0  0  0  0  0  0  0  0  0  0
   16.0314    9.5460   18.9735 C   0  0  0  0  0  0  0  0  0  0  0  0
   15.2282    9.4357   20.1021 C   0  0  0  0  0  0  0  0  0  0  0  0
   13.9277    8.9360   19.9932 C   0  0  0  0  0  0  0  0  0  0  0  0
   13.4165    8.5399   18.7619 C   0  0  0  0  0  0  0  0  0  0  0  0
   14.2307    8.6473   17.6613 C   0  0  0  0  0  0  0  0  0  0  0  0
   15.5193    9.1504   17.7577 C   0  0  0  0  0  0  0  0  0  0  0  0
   11.9627    7.9951   18.5805 C   0  0  0  0  0  0  0  0  0  0  0  0
   11.0973    8.3761   19.7171 N   0  0  0  0  0  0  0  0  0  0  0  0
   10.1948    9.3580   19.2386 C   0  0  0  0  0  0  0  0  0  0  0  0
    9.3968    9.8104   20.4695 C   0  0  0  0  0  0  0  0  0  0  0  0
    8.5894    8.7059   21.0457 N   0  0  0  0  0  0  0  0  0  0  0  0
    8.0458    8.9952   22.3698 C   0  0  0  0  0  0  0  0  0  0  0  0
    9.6092    7.6846   21.4532 C   0  0  0  0  0  0  0  0  0  0  0  0
   10.4193    7.2048   20.2157 C   0  0  0  0  0  0  0  0  0  0  0  0
   22.3900   11.7110   18.8517 N   0  0  0  0  0  0  0  0  0  0  0  0
   23.0042   11.1399   18.3362 H   0  0  0  0  0  0  0  0  0  0  0  0
   21.6501   14.7723   17.2030 C   0  0  0  0  0  0  0  0  0  0  0  0
   22.3555   15.6672   18.0060 C   0  0  0  0  0  0  0  0  0  0  0  0
   23.0730   15.1503   19.0832 C   0  0  0  0  0  0  0  0  0  0  0  0
   23.0782   13.8582   19.3479 N   0  0  0  0  0  0  0  0  0  0  0  0
   22.3846   13.0108   18.5842 C   0  0  0  0  0  0  0  0  0  0  0  0
   21.7000   13.4555   17.5113 N   0  0  0  0  0  0  0  0  0  0  0  0
   18.8524   15.5667   14.9161 C   0  0  0  0  0  0  0  0  0  0  0  0
   19.5200   15.0907   16.0437 C   0  0  0  0  0  0  0  0  0  0  0  0
   20.9173   15.2248   16.1006 C   0  0  0  0  0  0  0  0  0  0  0  0
   21.5697   15.8347   15.0273 C   0  0  0  0  0  0  0  0  0  0  0  0
   20.9039   16.2789   13.9642 N   0  0  0  0  0  0  0  0  0  0  0  0
   19.5883   16.1659   13.8850 C   0  0  0  0  0  0  0  0  0  0  0  0
 34 35  2  0  0  0
 34 39  1  0  0  0
 35 36  1  0  0  0
 36 37  2  0  0  0
 36 28  1  0  0  0
 37 38  1  0  0  0
 38 39  2  0  0  0
 28 29  2  0  0  0
 28 33  1  0  0  0
 29 30  1  0  0  0
 30 31  2  0  0  0
 31 32  1  0  0  0
 32 33  2  0  0  0
 32 26  1  0  0  0
 26  1  1  0  0  0
  1  2  2  0  0  0
  1  6  1  0  0  0
  2  3  1  0  0  0
  2  7  1  0  0  0
  3  4  2  0  0  0
  4  5  1  0  0  0
  5  6  2  0  0  0
  5  8  1  0  0  0
  8  9  1  0  0  0
  9 12  1  0  0  0
  9 10  2  0  0  0
 12 13  2  0  0  0
 12 17  1  0  0  0
 13 14  1  0  0  0
 14 15  2  0  0  0
 15 16  1  0  0  0
 15 18  1  0  0  0
 16 17  2  0  0  0
 18 19  1  0  0  0
 19 20  1  0  0  0
 19 25  1  0  0  0
 20 21  1  0  0  0
 21 22  1  0  0  0
 22 23  1  0  0  0
 22 24  1  0  0  0
 24 25  1  0  0  0
 26 27  1  0  0  0
  8 11  1  0  0  0
M  END
> <minimizedAffinity>
-10.66882

$$$$
3GVU_STI_A_1001


 39 43  0  0  0  0  0  0  0  0999 V2000
   20.0605   10.7826   18.7262 C   0  0  0  0  0  0  0  0  0  0  0  0
   20.6977   10.2098   19.8104 C   0  0  0  0  0  0  0  0  0  0  0  0
   19.9362    9.6039   20.7998 C   0  0  0  0  0  0  0  0  0  0  0  0
   18.5666    9.5510   20.7230 C   0  0  0  0  0  0  0  0  0  0  0  0
   17.9011   10.1104   19.6428 C   0  0  0  0  0  0  0  0  0  0  0  0
   18.6756   10.7048   18.6440 C   0  0  0  0  0  0  0  0  0  0  0  0
   22.2244   10.2542   19.9472 C   0  0  0  0  0  0  0  0  0  0  0  0
   16.5513    9.9797   19.5898 N   0  0  0  0  0  0  0  0  0  0  0  0
   15.8207    9.6100   18.5217 C   0  0  0  0  0  0  0  0  0  0  0  0
   16.2391    9.4831   17.3660 O   0  0  0  0  0  0  0  0  0  0  0  0
   16.0557   10.1753   20.4176 H   0  0  0  0  0  0  0  0  0  0  0  0
   14.3240    9.3770   18.7874 C   0  0  0  0  0  0  0  0  0  0  0  0
   13.8280    8.8285   19.9639 C   0  0  0  0  0  0  0  0  0  0  0  0
   12.4516    8.6563   20.1336 C   0  0  0  0  0  0  0  0  0  0  0  0
   11.5579    9.0259   19.1341 C   0  0  0  0  0  0  0  0  0  0  0  0
   12.0699    9.5560   17.9754 C   0  0  0  0  0  0  0  0  0  0  0  0
   13.4334    9.7392   17.8012 C   0  0  0  0  0  0  0  0  0  0  0  0
   10.0090    8.8756   19.2807 C   0  0  0  0  0  0  0  0  0  0  0  0
    9.6347    8.4441   20.6443 N   0  0  0  0  0  0  0  0  0  0  0  0
    8.4865    9.1880   21.0129 C   0  0  0  0  0  0  0  0  0  0  0  0
    8.2012    8.7993   22.4702 C   0  0  0  0  0  0  0  0  0  0  0  0
    7.8626    7.3603   22.6060 N   0  0  0  0  0  0  0  0  0  0  0  0
    7.8679    6.8759   23.9836 C   0  0  0  0  0  0  0  0  0  0  0  0
    9.0934    6.6505   22.1265 C   0  0  0  0  0  0  0  0  0  0  0  0
    9.3909    7.0226   20.6462 C   0  0  0  0  0  0  0  0  0  0  0  0
   20.7581   11.3294   17.7111 N   0  0  0  0  0  0  0  0  0  0  0  0
   21.1995   10.7187   17.0776 H   0  0  0  0  0  0  0  0  0  0  0  0
   20.0777   14.5999   16.4951 C   0  0  0  0  0  0  0  0  0  0  0  0
   21.1379   15.3048   17.0628 C   0  0  0  0  0  0  0  0  0  0  0  0
   22.0538   14.5935   17.8358 C   0  0  0  0  0  0  0  0  0  0  0  0
   21.9206   13.2971   18.0386 N   0  0  0  0  0  0  0  0  0  0  0  0
   20.8916   12.6337   17.5060 C   0  0  0  0  0  0  0  0  0  0  0  0
   19.9956   13.2686   16.7240 N   0  0  0  0  0  0  0  0  0  0  0  0
   18.4694   16.4222   13.7057 C   0  0  0  0  0  0  0  0  0  0  0  0
   19.4657   15.7877   14.4464 C   0  0  0  0  0  0  0  0  0  0  0  0
   19.1288   15.2522   15.7008 C   0  0  0  0  0  0  0  0  0  0  0  0
   17.8099   15.3757   16.1424 C   0  0  0  0  0  0  0  0  0  0  0  0
   16.8813   15.9875   15.4117 N   0  0  0  0  0  0  0  0  0  0  0  0
   17.1711   16.5001   14.2272 C   0  0  0  0  0  0  0  0  0  0  0  0
 34 35  2  0  0  0
 34 39  1  0  0  0
 35 36  1  0  0  0
 36 37  2  0  0  0
 36 28  1  0  0  0
 37 38  1  0  0  0
 38 39  2  0  0  0
 28 29  2  0  0  0
 28 33  1  0  0  0
 29 30  1  0  0  0
 30 31  2  0  0  0
 31 32  1  0  0  0
 32 33  2  0  0  0
 32 26  1  0  0  0
 26  1  1  0  0  0
  1  2  2  0  0  0
  1  6  1  0  0  0
  2  3  1  0  0  0
  2  7  1  0  0  0
  3  4  2  0  0  0
  4  5  1  0  0  0
  5  6  2  0  0  0
  5  8  1  0  0  0
  8  9  1  0  0  0
  9 12  1  0  0  0
  9 10  2  0  0  0
 12 13  2  0  0  0
 12 17  1  0  0  0
 13 14  1  0  0  0
 14 15  2  0  0  0
 15 16  1  0  0  0
 15 18  1  0  0  0
 16 17  2  0  0  0
 18 19  1  0  0  0
 19 20  1  0  0  0
 19 25  1  0  0  0
 20 21  1  0  0  0
 21 22  1  0  0  0
 22 23  1  0  0  0
 22 24  1  0  0  0
 24 25  1  0  0  0
 26 27  1  0  0  0
  8 11  1  0  0  0
M  END
> <minimizedAffinity>
-10.53849

$$$$
3GVU_STI_A_1001


 39 43  0  0  0  0  0  0  0  0999 V2000
   21.4607   12.2664   17.6757 C   0  0  0  0  0  0  0  0  0  0  0  0
   22.1150   12.0357   18.8708 C   0  0  0  0  0  0  0  0  0  0  0  0
   21.4311   11.4167   19.9077 C   0  0  0  0  0  0  0  0  0  0  0  0
   20.1241   11.0194   19.7720 C   0  0  0  0  0  0  0  0  0  0  0  0
   19.4453   11.2309   18.5816 C   0  0  0  0  0  0  0  0  0  0  0  0
   20.1452   11.8406   17.5381 C   0  0  0  0  0  0  0  0  0  0  0  0
   23.5708   12.4724   19.0750 C   0  0  0  0  0  0  0  0  0  0  0  0
   18.1735   10.7674   18.4833 N   0  0  0  0  0  0  0  0  0  0  0  0
   17.6702    9.6684   19.0750 C   0  0  0  0  0  0  0  0  0  0  0  0
   18.3204    8.8072   19.6771 O   0  0  0  0  0  0  0  0  0  0  0  0
   17.5556   11.2887   17.9214 H   0  0  0  0  0  0  0  0  0  0  0  0
   16.1520    9.4709   18.9310 C   0  0  0  0  0  0  0  0  0  0  0  0
   15.2756    9.4340   20.0088 C   0  0  0  0  0  0  0  0  0  0  0  0
   13.9057    9.2593   19.7952 C   0  0  0  0  0  0  0  0  0  0  0  0
   13.3967    9.1175   18.5087 C   0  0  0  0  0  0  0  0  0  0  0  0
   14.2813    9.1462   17.4588 C   0  0  0  0  0  0  0  0  0  0  0  0
   15.6413    9.3282   17.6599 C   0  0  0  0  0  0  0  0  0  0  0  0
   11.8721    8.9416   18.2122 C   0  0  0  0  0  0  0  0  0  0  0  0
   11.0716    8.9867   19.4544 N   0  0  0  0  0  0  0  0  0  0  0  0
   10.0894    9.9924   19.2770 C   0  0  0  0  0  0  0  0  0  0  0  0
    9.3591   10.0889   20.6238 C   0  0  0  0  0  0  0  0  0  0  0  0
    8.6509    8.8293   20.9641 N   0  0  0  0  0  0  0  0  0  0  0  0
    8.1887    8.7624   22.3477 C   0  0  0  0  0  0  0  0  0  0  0  0
    9.7468    7.8099   21.0566 C   0  0  0  0  0  0  0  0  0  0  0  0
   10.4901    7.6891   19.6961 C   0  0  0  0  0  0  0  0  0  0  0  0
   22.0988   12.8092   16.6202 N   0  0  0  0  0  0  0  0  0  0  0  0
   22.7904   12.2679   16.1753 H   0  0  0  0  0  0  0  0  0  0  0  0
   21.1524   16.2347   16.5330 C   0  0  0  0  0  0  0  0  0  0  0  0
   21.3573   16.5179   15.1836 C   0  0  0  0  0  0  0  0  0  0  0  0
   21.8049   15.4852   14.3616 C   0  0  0  0  0  0  0  0  0  0  0  0
   22.0414   14.2795   14.8411 N   0  0  0  0  0  0  0  0  0  0  0  0
   21.8600   14.0225   16.1386 C   0  0  0  0  0  0  0  0  0  0  0  0
   21.3978   14.9777   16.9702 N   0  0  0  0  0  0  0  0  0  0  0  0
   21.0345   18.8219   19.1751 C   0  0  0  0  0  0  0  0  0  0  0  0
   21.5563   17.8411   18.3328 C   0  0  0  0  0  0  0  0  0  0  0  0
   20.6951   17.2239   17.4101 C   0  0  0  0  0  0  0  0  0  0  0  0
   19.3589   17.6277   17.3768 C   0  0  0  0  0  0  0  0  0  0  0  0
   18.8908   18.5672   18.1946 N   0  0  0  0  0  0  0  0  0  0  0  0
   19.6796   19.1647   19.0723 C   0  0  0  0  0  0  0  0  0  0  0  0
 34 35  2  0  0  0
 34 39  1  0  0  0
 35 36  1  0  0  0
 36 37  2  0  0  0
 36 28  1  0  0  0
 37 38  1  0  0  0
 38 39  2  0  0  0
 28 29  2  0  0  0
 28 33  1  0  0  0
 29 30  1  0  0  0
 30 31  2  0  0  0
 31 32  1  0  0  0
 32 33  2  0  0  0
 32 26  1  0  0  0
 26  1  1  0  0  0
  1  2  2  0  0  0
  1  6  1  0  0  0
  2  3  1  0  0  0
  2  7  1  0  0  0
  3  4  2  0  0  0
  4  5  1  0  0  0
  5  6  2  0  0  0
  5  8  1  0  0  0
  8  9  1  0  0  0
  9 12  1  0  0  0
  9 10  2  0  0  0
 12 13  2  0  0  0
 12 17  1  0  0  0
 13 14  1  0  0  0
 14 15  2  0  0  0
 15 16  1  0  0  0
 15 18  1  0  0  0
 16 17  2  0  0  0
 18 19  1  0  0  0
 19 20  1  0  0  0
 19 25  1  0  0  0
 20 21  1  0  0  0
 21 22  1  0  0  0
 22 23  1  0  0  0
 22 24  1  0  0  0
 24 25  1  0  0  0
 26 27  1  0  0  0
  8 11  1  0  0  0
M  END
> <minimizedAffinity>
-10.30109

$$$$
