3CKP_012_A_501
  RCSB PDB12061708113D
Coordinates from PDB:3CKP:A:501 Model:1 without hydrogens
 40 43  0  0  0  0            999 V2000
   30.0980    7.4040   10.4860   C 0  0  0  0  0  0  0  0  0  0  0  0
   31.2330    7.8780   10.5790   O 0  0  0  0  0  0  0  0  0  0  0  0
   29.7600    6.1170   10.1350   N 0  0  0  0  0  0  0  0  0  0  0  0
   30.7170    5.0530    9.8010   C 0  0  0  0  0  0  0  0  0  0  0  0
   30.7750    4.0590   10.9900   C 0  0  0  0  0  0  0  0  0  0  0  0
   31.1350    4.7580   12.2880   C 0  0  0  0  0  0  0  0  0  0  0  0
   30.1780    4.8860   13.3290   C 0  0  0  0  0  0  0  0  0  0  0  0
   32.4210    5.3110   12.4870   C 0  0  0  0  0  0  0  0  0  0  0  0
   30.5090    5.5510   14.5360   C 0  0  0  0  0  0  0  0  0  0  0  0
   32.7480    5.9770   13.6930   C 0  0  0  0  0  0  0  0  0  0  0  0
   31.7900    6.0980   14.7190   C 0  0  0  0  0  0  0  0  0  0  0  0
   30.2980    4.3650    8.4910   C 0  0  0  0  0  0  0  0  0  0  0  0
   31.2340    3.3520    8.1920   O 0  0  0  0  0  0  0  0  0  0  0  0
   30.2440    5.3620    7.3470   C 0  0  0  0  0  0  0  0  0  0  0  0
   30.3100    4.7080    6.0210   N 0  0  0  0  0  0  0  0  0  0  0  0
   30.7520    5.5760    4.8970   C 0  0  0  0  0  0  0  0  0  0  0  0
   32.1790    6.0310    5.0800   C 0  0  0  0  0  0  0  0  0  0  0  0
   32.4880    7.3870    5.3740   C 0  0  0  0  0  0  0  0  0  0  0  0
   33.8310    7.7880    5.5590   C 0  0  0  0  0  0  0  0  0  0  0  0
   34.8710    6.8380    5.4520   C 0  0  0  0  0  0  0  0  0  0  0  0
   34.5820    5.4650    5.1540   C 0  0  0  0  0  0  0  0  0  0  0  0
   33.2270    5.0890    4.9730   C 0  0  0  0  0  0  0  0  0  0  0  0
   35.6070    4.5110    5.0460   N 0  0  0  0  0  0  0  0  0  0  0  0
   36.9770    4.8310    5.4710   C 0  0  0  0  0  0  0  0  0  0  0  0
   35.3430    3.1690    4.5060   C 0  0  0  0  0  0  0  0  0  0  0  0
   28.8850    8.2450   10.8020   C 0  0  0  0  0  0  0  0  0  0  0  0
   27.6720    7.6940   10.2230   N 0  0  0  0  0  0  0  0  0  0  0  0
   26.7350    8.1760   11.1400   C 0  0  0  0  0  0  0  0  0  0  0  0
   25.5470    8.0700   10.9060   O 0  0  0  0  0  0  0  0  0  0  0  0
   27.2330    8.7890   12.3170   N 0  0  0  0  0  0  0  0  0  0  0  0
   28.6070    8.3310   12.2940   C 0  0  0  0  0  0  0  0  0  0  0  0
   26.4440    8.5530   13.5670   C 0  0  0  0  0  0  0  0  0  0  0  0
   26.5700    7.2330   14.2980   C 0  0  0  0  0  0  0  0  0  0  0  0
   26.0010    6.0550   13.7610   C 0  0  0  0  0  0  0  0  0  0  0  0
   26.0970    4.8190   14.4290   C 0  0  0  0  0  0  0  0  0  0  0  0
   26.7840    4.7610   15.6760   C 0  0  0  0  0  0  0  0  0  0  0  0
   27.3580    5.9310   16.2310   C 0  0  0  0  0  0  0  0  0  0  0  0
   27.2510    7.1620   15.5460   C 0  0  0  0  0  0  0  0  0  0  0  0
   25.4910    3.7040   13.8250   O 0  0  0  0  0  0  0  0  0  0  0  0
   26.3930    2.7880   13.2400   C 0  0  0  0  0  0  0  0  0  0  0  0
  1  2  2  0  0  0  0
  1  3  1  0  0  0  0
  1 26  1  0  0  0  0
  3  4  1  0  0  0  0
  4  5  1  0  0  0  0
  4 12  1  0  0  0  0
  5  6  1  0  0  0  0
  6  7  2  0  0  0  0
  6  8  1  0  0  0  0
  7  9  1  0  0  0  0
  8 10  2  0  0  0  0
  9 11  2  0  0  0  0
 10 11  1  0  0  0  0
 12 13  1  0  0  0  0
 12 14  1  0  0  0  0
 14 15  1  0  0  0  0
 15 16  1  0  0  0  0
 16 17  1  0  0  0  0
 17 18  2  0  0  0  0
 17 22  1  0  0  0  0
 18 19  1  0  0  0  0
 19 20  2  0  0  0  0
 20 21  1  0  0  0  0
 21 22  2  0  0  0  0
 21 23  1  0  0  0  0
 23 24  1  0  0  0  0
 23 25  1  0  0  0  0
 26 27  1  0  0  0  0
 26 31  1  0  0  0  0
 27 28  1  0  0  0  0
 28 29  2  0  0  0  0
 28 30  1  0  0  0  0
 30 31  1  0  0  0  0
 30 32  1  0  0  0  0
 32 33  1  0  0  0  0
 33 34  2  0  0  0  0
 33 38  1  0  0  0  0
 34 35  1  0  0  0  0
 35 36  2  0  0  0  0
 35 39  1  0  0  0  0
 36 37  1  0  0  0  0
 37 38  2  0  0  0  0
 39 40  1  0  0  0  0
A    1
C
A    2
O
A    3
N
A    4
CA
A    5
CB
A    6
CG
A    7
CD1
A    8
CD2
A    9
CE1
A   10
CE2
A   11
CZ
A   12
C1
A   13
OG
A   14
C2
A   15
N2
A   16
C20
A   17
C21
A   18
C22
A   19
C23
A   20
C24
A   21
C25
A   22
C26
A   23
N27
A   24
C28
A   25
C29
A   26
C30
A   27
N31
A   28
C32
A   29
O33
A   30
N34
A   31
C35
A   32
C36
A   33
C41
A   34
C42
A   35
C43
A   36
C44
A   37
C45
A   38
C46
A   39
O47
A   40
C48
M  END
>  <InstanceId>
3CKP_012_A_501

>  <ChemCompId>
012

>  <PdbId>
3CKP

>  <ChainId>
A

>  <ResidueNumber>
501

>  <InsertionCode>


>  <Model>
1

>  <AltIds>


>  <MissingHeavyAtoms>
0

>  <ObservedFormula>
C31 N5 O4

>  <Name>
(4S)-N-[(1S,2R)-1-benzyl-3-{[3-(dimethylamino)benzyl]amino}-2-hydroxypropyl]-1-(3-methoxybenzyl)-2-oxoimidazolidine-4-carboxamide

>  <SystematicName>
(4S)-N-[(2S,3R)-4-[(3-dimethylaminophenyl)methylamino]-3-hydroxy-1-phenyl-butan-2-yl]-1-[(3-methoxyphenyl)methyl]-2-oxo-imidazolidine-4-carboxamide

>  <Synonyms>
(S)-1-(3-methoxy-benzyl)-2-oxo-imidazolidine-4-carboxylic acid[(1S,2R)-1-benzyl-3-(3-dimethylamino-benzylamino)-2-hydroxy-propyl]-amide

>  <Type>
NON-POLYMER

>  <Formula>
C31 H39 N5 O4

>  <MolecularWeight>
545.672

>  <ModifiedDate>
2011-06-04

>  <Parent>


>  <OneLetterCode>


>  <SubcomponentList>


>  <AmbiguousFlag>
N

>  <InChI>
InChI=1S/C31H39N5O4/c1-35(2)25-13-7-11-23(15-25)18-32-19-29(37)27(17-22-9-5-4-6-10-22)33-30(38)28-21-36(31(39)34-28)20-24-12-8-14-26(16-24)40-3/h4-16,27-29,32,37H,17-21H2,1-3H3,(H,33,38)(H,34,39)/t27-,28-,29+/m0/s1

>  <InChIKey>
MCBWJRZWLSXSBN-YTCPBCGMSA-N

>  <SMILES>
CN(C)c1cccc(c1)CNC[C@H]([C@H](Cc2ccccc2)NC(=O)[C@@H]3CN(C(=O)N3)Cc4cccc(c4)OC)O

$$$$
