3CKP_012_A_501


 44 47  0  0  0  0  0  0  0  0999 V2000
   30.6818    4.8840    9.7609 C   0  0  0  0  0  0  0  0  0  0  0  0
   30.0505    7.3096   10.0730 C   0  0  0  0  0  0  0  0  0  0  0  0
   31.1583    7.8182    9.8845 O   0  0  0  0  0  0  0  0  0  0  0  0
   29.7325    5.9712   10.0370 N   0  0  0  0  0  0  0  0  0  0  0  0
   28.7957    5.7226   10.2098 H   0  0  0  0  0  0  0  0  0  0  0  0
   28.8581    8.1689   10.4169 C   0  0  0  0  0  0  0  0  0  0  0  0
   27.6190    7.6181    9.8959 N   0  0  0  0  0  0  0  0  0  0  0  0
   26.7220    8.1282   10.8373 C   0  0  0  0  0  0  0  0  0  0  0  0
   25.5250    8.0292   10.6506 O   0  0  0  0  0  0  0  0  0  0  0  0
   27.2699    8.7604   11.9815 N   0  0  0  0  0  0  0  0  0  0  0  0
   28.6378    8.2885   11.9162 C   0  0  0  0  0  0  0  0  0  0  0  0
   27.4582    7.0502    9.1079 H   0  0  0  0  0  0  0  0  0  0  0  0
   26.5268    8.5581   13.2651 C   0  0  0  0  0  0  0  0  0  0  0  0
   26.7194    7.2790   14.0521 C   0  0  0  0  0  0  0  0  0  0  0  0
   26.2745    6.0406   13.5341 C   0  0  0  0  0  0  0  0  0  0  0  0
   26.4337    4.8405   14.2534 C   0  0  0  0  0  0  0  0  0  0  0  0
   27.0577    4.8820   15.5338 C   0  0  0  0  0  0  0  0  0  0  0  0
   27.5073    6.1134   16.0703 C   0  0  0  0  0  0  0  0  0  0  0  0
   27.3383    7.3071   15.3336 C   0  0  0  0  0  0  0  0  0  0  0  0
   25.9504    3.6596   13.6643 O   0  0  0  0  0  0  0  0  0  0  0  0
   24.6626    3.7695   13.0949 C   0  0  0  0  0  0  0  0  0  0  0  0
   30.3304    4.2097    8.4242 C   0  0  0  0  0  0  0  0  0  0  0  0
   31.3597    3.3041    8.0894 O   0  0  0  0  0  0  0  0  0  0  0  0
   32.1970    3.7855    7.9986 H   0  0  0  0  0  0  0  0  0  0  0  0
   30.1795    5.2401    7.3192 C   0  0  0  0  0  0  0  0  0  0  0  0
   30.3654    4.6578    5.9713 N   0  0  0  0  0  0  0  0  0  0  0  0
   29.4586    4.3216    5.6470 H   0  0  0  0  0  0  0  0  0  0  0  0
   30.9058    5.5831    4.9398 C   0  0  0  0  0  0  0  0  0  0  0  0
   32.3753    5.8502    5.1544 C   0  0  0  0  0  0  0  0  0  0  0  0
   32.8407    7.1339    5.5497 C   0  0  0  0  0  0  0  0  0  0  0  0
   34.2204    7.3574    5.7623 C   0  0  0  0  0  0  0  0  0  0  0  0
   35.1412    6.3014    5.5820 C   0  0  0  0  0  0  0  0  0  0  0  0
   34.6936    4.9988    5.1814 C   0  0  0  0  0  0  0  0  0  0  0  0
   33.3049    4.8012    4.9747 C   0  0  0  0  0  0  0  0  0  0  0  0
   35.5990    3.9407    4.9998 N   0  0  0  0  0  0  0  0  0  0  0  0
   36.2325    3.2894    6.1550 C   0  0  0  0  0  0  0  0  0  0  0  0
   35.9405    3.4544    3.6548 C   0  0  0  0  0  0  0  0  0  0  0  0
   30.6385    3.8863   10.9474 C   0  0  0  0  0  0  0  0  0  0  0  0
   31.0382    4.5496   12.2525 C   0  0  0  0  0  0  0  0  0  0  0  0
   32.3547    5.0488   12.4356 C   0  0  0  0  0  0  0  0  0  0  0  0
   30.1194    4.6726   13.3202 C   0  0  0  0  0  0  0  0  0  0  0  0
   32.7328    5.6558   13.6592 C   0  0  0  0  0  0  0  0  0  0  0  0
   30.5008    5.2773   14.5424 C   0  0  0  0  0  0  0  0  0  0  0  0
   31.8102    5.7690   14.7125 C   0  0  0  0  0  0  0  0  0  0  0  0
  2  3  2  0  0  0
  2  4  1  0  0  0
  2  6  1  0  0  0
  4  1  1  0  0  0
  1 38  1  0  0  0
  1 22  1  0  0  0
 38 39  1  0  0  0
 39 40  2  0  0  0
 39 41  1  0  0  0
 40 42  1  0  0  0
 41 43  2  0  0  0
 42 44  2  0  0  0
 43 44  1  0  0  0
 22 23  1  0  0  0
 22 25  1  0  0  0
 25 26  1  0  0  0
 26 28  1  0  0  0
 28 29  1  0  0  0
 29 30  2  0  0  0
 29 34  1  0  0  0
 30 31  1  0  0  0
 31 32  2  0  0  0
 32 33  1  0  0  0
 33 34  2  0  0  0
 33 35  1  0  0  0
 35 36  1  0  0  0
 35 37  1  0  0  0
  6  7  1  0  0  0
  6 11  1  0  0  0
  7  8  1  0  0  0
  8  9  2  0  0  0
  8 10  1  0  0  0
 10 11  1  0  0  0
 10 13  1  0  0  0
 13 14  1  0  0  0
 14 15  2  0  0  0
 14 19  1  0  0  0
 15 16  1  0  0  0
 16 17  2  0  0  0
 16 20  1  0  0  0
 17 18  1  0  0  0
 18 19  2  0  0  0
 20 21  1  0  0  0
  4  5  1  0  0  0
 23 24  1  0  0  0
 26 27  1  0  0  0
  7 12  1  0  0  0
M  END
> <minimizedAffinity>
-9.82611

$$$$
3CKP_012_A_501


 44 47  0  0  0  0  0  0  0  0999 V2000
   29.5856    7.5196   10.0897 C   0  0  0  0  0  0  0  0  0  0  0  0
   29.9595    6.0876    8.0430 C   0  0  0  0  0  0  0  0  0  0  0  0
   29.3593    5.0744    8.4100 O   0  0  0  0  0  0  0  0  0  0  0  0
   30.1176    7.2610    8.7445 N   0  0  0  0  0  0  0  0  0  0  0  0
   30.6269    7.9836    8.3113 H   0  0  0  0  0  0  0  0  0  0  0  0
   30.6546    6.1272    6.7037 C   0  0  0  0  0  0  0  0  0  0  0  0
   30.7249    7.4740    6.1640 N   0  0  0  0  0  0  0  0  0  0  0  0
   31.8853    7.3579    5.3951 C   0  0  0  0  0  0  0  0  0  0  0  0
   32.1973    8.2486    4.6292 O   0  0  0  0  0  0  0  0  0  0  0  0
   32.6482    6.1726    5.5444 N   0  0  0  0  0  0  0  0  0  0  0  0
   32.0980    5.6567    6.7811 C   0  0  0  0  0  0  0  0  0  0  0  0
   30.1279    8.2449    6.3004 H   0  0  0  0  0  0  0  0  0  0  0  0
   34.1342    6.3306    5.4590 C   0  0  0  0  0  0  0  0  0  0  0  0
   35.0098    5.1119    5.2568 C   0  0  0  0  0  0  0  0  0  0  0  0
   35.3572    4.2851    6.3502 C   0  0  0  0  0  0  0  0  0  0  0  0
   36.1787    3.1530    6.1867 C   0  0  0  0  0  0  0  0  0  0  0  0
   36.6695    2.8395    4.8863 C   0  0  0  0  0  0  0  0  0  0  0  0
   36.3345    3.6576    3.7794 C   0  0  0  0  0  0  0  0  0  0  0  0
   35.5092    4.7894    3.9634 C   0  0  0  0  0  0  0  0  0  0  0  0
   36.4803    2.3969    7.3324 O   0  0  0  0  0  0  0  0  0  0  0  0
   37.2644    1.2474    7.0901 C   0  0  0  0  0  0  0  0  0  0  0  0
   28.4789    8.5851   10.0186 C   0  0  0  0  0  0  0  0  0  0  0  0
   28.8386    9.6679   10.8492 O   0  0  0  0  0  0  0  0  0  0  0  0
   28.9304    9.3574   11.7636 H   0  0  0  0  0  0  0  0  0  0  0  0
   27.1466    8.0157   10.4729 C   0  0  0  0  0  0  0  0  0  0  0  0
   26.9261    8.1794   11.9271 N   0  0  0  0  0  0  0  0  0  0  0  0
   26.0514    8.6880   12.0565 H   0  0  0  0  0  0  0  0  0  0  0  0
   26.8420    6.9181   12.7109 C   0  0  0  0  0  0  0  0  0  0  0  0
   27.9097    6.8583   13.7754 C   0  0  0  0  0  0  0  0  0  0  0  0
   28.2753    5.6268   14.3839 C   0  0  0  0  0  0  0  0  0  0  0  0
   29.2909    5.5912   15.3667 C   0  0  0  0  0  0  0  0  0  0  0  0
   29.9461    6.7838   15.7462 C   0  0  0  0  0  0  0  0  0  0  0  0
   29.5916    8.0377   15.1468 C   0  0  0  0  0  0  0  0  0  0  0  0
   28.5699    8.0460   14.1638 C   0  0  0  0  0  0  0  0  0  0  0  0
   30.2362    9.2300   15.5148 N   0  0  0  0  0  0  0  0  0  0  0  0
   30.8440   10.0988   14.4972 C   0  0  0  0  0  0  0  0  0  0  0  0
   30.3236    9.6437   16.9232 C   0  0  0  0  0  0  0  0  0  0  0  0
   30.7604    7.9580   11.0023 C   0  0  0  0  0  0  0  0  0  0  0  0
   31.2781    6.8051   11.8424 C   0  0  0  0  0  0  0  0  0  0  0  0
   32.2215    7.0330   12.8787 C   0  0  0  0  0  0  0  0  0  0  0  0
   30.8486    5.4789   11.6056 C   0  0  0  0  0  0  0  0  0  0  0  0
   32.7161    5.9549   13.6545 C   0  0  0  0  0  0  0  0  0  0  0  0
   31.3464    4.4035   12.3807 C   0  0  0  0  0  0  0  0  0  0  0  0
   32.2825    4.6419   13.4064 C   0  0  0  0  0  0  0  0  0  0  0  0
  2  3  2  0  0  0
  2  4  1  0  0  0
  2  6  1  0  0  0
  4  1  1  0  0  0
  1 38  1  0  0  0
  1 22  1  0  0  0
 38 39  1  0  0  0
 39 40  2  0  0  0
 39 41  1  0  0  0
 40 42  1  0  0  0
 41 43  2  0  0  0
 42 44  2  0  0  0
 43 44  1  0  0  0
 22 23  1  0  0  0
 22 25  1  0  0  0
 25 26  1  0  0  0
 26 28  1  0  0  0
 28 29  1  0  0  0
 29 30  2  0  0  0
 29 34  1  0  0  0
 30 31  1  0  0  0
 31 32  2  0  0  0
 32 33  1  0  0  0
 33 34  2  0  0  0
 33 35  1  0  0  0
 35 36  1  0  0  0
 35 37  1  0  0  0
  6  7  1  0  0  0
  6 11  1  0  0  0
  7  8  1  0  0  0
  8  9  2  0  0  0
  8 10  1  0  0  0
 10 11  1  0  0  0
 10 13  1  0  0  0
 13 14  1  0  0  0
 14 15  2  0  0  0
 14 19  1  0  0  0
 15 16  1  0  0  0
 16 17  2  0  0  0
 16 20  1  0  0  0
 17 18  1  0  0  0
 18 19  2  0  0  0
 20 21  1  0  0  0
  4  5  1  0  0  0
 23 24  1  0  0  0
 26 27  1  0  0  0
  7 12  1  0  0  0
M  END
> <minimizedAffinity>
-9.72680

$$$$
3CKP_012_A_501


 44 47  0  0  0  0  0  0  0  0999 V2000
   29.3782    7.0298    9.9973 C   0  0  0  0  0  0  0  0  0  0  0  0
   30.1008    5.6722    7.9938 C   0  0  0  0  0  0  0  0  0  0  0  0
   29.8409    4.5463    8.4256 O   0  0  0  0  0  0  0  0  0  0  0  0
   29.9229    6.8733    8.6415 N   0  0  0  0  0  0  0  0  0  0  0  0
   30.1807    7.6917    8.1588 H   0  0  0  0  0  0  0  0  0  0  0  0
   30.7124    5.8487    6.6251 C   0  0  0  0  0  0  0  0  0  0  0  0
   30.7356    7.2413    6.2123 N   0  0  0  0  0  0  0  0  0  0  0  0
   31.8481    7.2167    5.3679 C   0  0  0  0  0  0  0  0  0  0  0  0
   32.1035    8.1803    4.6726 O   0  0  0  0  0  0  0  0  0  0  0  0
   32.6310    6.0351    5.3583 N   0  0  0  0  0  0  0  0  0  0  0  0
   32.1627    5.3964    6.5711 C   0  0  0  0  0  0  0  0  0  0  0  0
   30.1401    7.9862    6.4566 H   0  0  0  0  0  0  0  0  0  0  0  0
   34.1073    6.2244    5.1996 C   0  0  0  0  0  0  0  0  0  0  0  0
   35.0145    5.0160    5.1033 C   0  0  0  0  0  0  0  0  0  0  0  0
   35.3326    4.2603    6.2555 C   0  0  0  0  0  0  0  0  0  0  0  0
   36.1825    3.1393    6.1906 C   0  0  0  0  0  0  0  0  0  0  0  0
   36.7329    2.7636    4.9311 C   0  0  0  0  0  0  0  0  0  0  0  0
   36.4280    3.5100    3.7665 C   0  0  0  0  0  0  0  0  0  0  0  0
   35.5734    4.6319    3.8517 C   0  0  0  0  0  0  0  0  0  0  0  0
   36.4513    2.4561    7.3890 O   0  0  0  0  0  0  0  0  0  0  0  0
   37.2578    1.3058    7.2433 C   0  0  0  0  0  0  0  0  0  0  0  0
   28.1022    7.8871    9.9526 C   0  0  0  0  0  0  0  0  0  0  0  0
   27.9608    8.4212    8.6540 O   0  0  0  0  0  0  0  0  0  0  0  0
   28.7298    8.9748    8.4466 H   0  0  0  0  0  0  0  0  0  0  0  0
   28.1719    9.0180   10.9634 C   0  0  0  0  0  0  0  0  0  0  0  0
   27.3938    8.7318   12.1894 N   0  0  0  0  0  0  0  0  0  0  0  0
   26.9705    7.8098   12.0842 H   0  0  0  0  0  0  0  0  0  0  0  0
   28.1686    8.7373   13.4590 C   0  0  0  0  0  0  0  0  0  0  0  0
   28.2203    7.3628   14.0793 C   0  0  0  0  0  0  0  0  0  0  0  0
   29.1907    7.0353   15.0650 C   0  0  0  0  0  0  0  0  0  0  0  0
   29.2098    5.7466   15.6459 C   0  0  0  0  0  0  0  0  0  0  0  0
   28.2607    4.7796   15.2462 C   0  0  0  0  0  0  0  0  0  0  0  0
   27.2741    5.0879   14.2518 C   0  0  0  0  0  0  0  0  0  0  0  0
   27.2767    6.3875   13.6850 C   0  0  0  0  0  0  0  0  0  0  0  0
   26.3247    4.1355   13.8467 N   0  0  0  0  0  0  0  0  0  0  0  0
   24.9271    4.5235   13.6102 C   0  0  0  0  0  0  0  0  0  0  0  0
   26.6974    2.7269   13.6486 C   0  0  0  0  0  0  0  0  0  0  0  0
   30.4752    7.6618   10.8931 C   0  0  0  0  0  0  0  0  0  0  0  0
   31.0686    6.6470   11.8529 C   0  0  0  0  0  0  0  0  0  0  0  0
   32.0841    7.0274   12.7693 C   0  0  0  0  0  0  0  0  0  0  0  0
   30.6391    5.2999   11.8484 C   0  0  0  0  0  0  0  0  0  0  0  0
   32.6488    6.0772   13.6563 C   0  0  0  0  0  0  0  0  0  0  0  0
   31.2068    4.3522   12.7341 C   0  0  0  0  0  0  0  0  0  0  0  0
   32.2141    4.7414   13.6391 C   0  0  0  0  0  0  0  0  0  0  0  0
  2  3  2  0  0  0
  2  4  1  0  0  0
  2  6  1  0  0  0
  4  1  1  0  0  0
  1 38  1  0  0  0
  1 22  1  0  0  0
 38 39  1  0  0  0
 39 40  2  0  0  0
 39 41  1  0  0  0
 40 42  1  0  0  0
 41 43  2  0  0  0
 42 44  2  0  0  0
 43 44  1  0  0  0
 22 23  1  0  0  0
 22 25  1  0  0  0
 25 26  1  0  0  0
 26 28  1  0  0  0
 28 29  1  0  0  0
 29 30  2  0  0  0
 29 34  1  0  0  0
 30 31  1  0  0  0
 31 32  2  0  0  0
 32 33  1  0  0  0
 33 34  2  0  0  0
 33 35  1  0  0  0
 35 36  1  0  0  0
 35 37  1  0  0  0
  6  7  1  0  0  0
  6 11  1  0  0  0
  7  8  1  0  0  0
  8  9  2  0  0  0
  8 10  1  0  0  0
 10 11  1  0  0  0
 10 13  1  0  0  0
 13 14  1  0  0  0
 14 15  2  0  0  0
 14 19  1  0  0  0
 15 16  1  0  0  0
 16 17  2  0  0  0
 16 20  1  0  0  0
 17 18  1  0  0  0
 18 19  2  0  0  0
 20 21  1  0  0  0
  4  5  1  0  0  0
 23 24  1  0  0  0
 26 27  1  0  0  0
  7 12  1  0  0  0
M  END
> <minimizedAffinity>
-9.64661

$$$$
3CKP_012_A_501


 44 47  0  0  0  0  0  0  0  0999 V2000
   30.6382    4.9873    9.5935 C   0  0  0  0  0  0  0  0  0  0  0  0
   30.0096    7.3849   10.0796 C   0  0  0  0  0  0  0  0  0  0  0  0
   31.1265    7.8976    9.9732 O   0  0  0  0  0  0  0  0  0  0  0  0
   29.6855    6.0566    9.9231 N   0  0  0  0  0  0  0  0  0  0  0  0
   28.7416    5.8029   10.0411 H   0  0  0  0  0  0  0  0  0  0  0  0
   28.8104    8.2236   10.4493 C   0  0  0  0  0  0  0  0  0  0  0  0
   27.5722    7.6626    9.9372 N   0  0  0  0  0  0  0  0  0  0  0  0
   26.6805    8.1488   10.8962 C   0  0  0  0  0  0  0  0  0  0  0  0
   25.4827    8.0359   10.7236 O   0  0  0  0  0  0  0  0  0  0  0  0
   27.2346    8.7742   12.0412 N   0  0  0  0  0  0  0  0  0  0  0  0
   28.6077    8.3217   11.9527 C   0  0  0  0  0  0  0  0  0  0  0  0
   27.4088    7.1023    9.1443 H   0  0  0  0  0  0  0  0  0  0  0  0
   26.5109    8.5460   13.3315 C   0  0  0  0  0  0  0  0  0  0  0  0
   26.7055    7.2462   14.0834 C   0  0  0  0  0  0  0  0  0  0  0  0
   26.2556    6.0227   13.5354 C   0  0  0  0  0  0  0  0  0  0  0  0
   26.4168    4.8038   14.2220 C   0  0  0  0  0  0  0  0  0  0  0  0
   27.0478    4.8105   15.4995 C   0  0  0  0  0  0  0  0  0  0  0  0
   27.5026    6.0266   16.0658 C   0  0  0  0  0  0  0  0  0  0  0  0
   27.3316    7.2395   15.3618 C   0  0  0  0  0  0  0  0  0  0  0  0
   25.9281    3.6395   13.6047 O   0  0  0  0  0  0  0  0  0  0  0  0
   24.6046    3.7398   13.1218 C   0  0  0  0  0  0  0  0  0  0  0  0
   30.3192    4.4129    8.2031 C   0  0  0  0  0  0  0  0  0  0  0  0
   31.1880    3.3299    7.9503 O   0  0  0  0  0  0  0  0  0  0  0  0
   32.1065    3.6412    7.9687 H   0  0  0  0  0  0  0  0  0  0  0  0
   30.4946    5.4685    7.1259 C   0  0  0  0  0  0  0  0  0  0  0  0
   31.1412    4.9332    5.9070 N   0  0  0  0  0  0  0  0  0  0  0  0
   31.3054    3.9368    6.0508 H   0  0  0  0  0  0  0  0  0  0  0  0
   30.3684    5.0923    4.6462 C   0  0  0  0  0  0  0  0  0  0  0  0
   30.9870    6.1352    3.7482 C   0  0  0  0  0  0  0  0  0  0  0  0
   30.3871    6.4903    2.5094 C   0  0  0  0  0  0  0  0  0  0  0  0
   30.9743    7.4830    1.6918 C   0  0  0  0  0  0  0  0  0  0  0  0
   32.1619    8.1256    2.1067 C   0  0  0  0  0  0  0  0  0  0  0  0
   32.7852    7.7813    3.3519 C   0  0  0  0  0  0  0  0  0  0  0  0
   32.1761    6.7826    4.1531 C   0  0  0  0  0  0  0  0  0  0  0  0
   33.9654    8.4136    3.7758 N   0  0  0  0  0  0  0  0  0  0  0  0
   35.1553    8.4364    2.9135 C   0  0  0  0  0  0  0  0  0  0  0  0
   34.0473    9.0687    5.0898 C   0  0  0  0  0  0  0  0  0  0  0  0
   30.5611    3.9069   10.7035 C   0  0  0  0  0  0  0  0  0  0  0  0
   30.9755    4.4604   12.0543 C   0  0  0  0  0  0  0  0  0  0  0  0
   32.3328    4.7842   12.3167 C   0  0  0  0  0  0  0  0  0  0  0  0
   30.0283    4.6521   13.0865 C   0  0  0  0  0  0  0  0  0  0  0  0
   32.7230    5.2879   13.5827 C   0  0  0  0  0  0  0  0  0  0  0  0
   30.4215    5.1532   14.3511 C   0  0  0  0  0  0  0  0  0  0  0  0
   31.7714    5.4708   14.5999 C   0  0  0  0  0  0  0  0  0  0  0  0
  2  3  2  0  0  0
  2  4  1  0  0  0
  2  6  1  0  0  0
  4  1  1  0  0  0
  1 38  1  0  0  0
  1 22  1  0  0  0
 38 39  1  0  0  0
 39 40  2  0  0  0
 39 41  1  0  0  0
 40 42  1  0  0  0
 41 43  2  0  0  0
 42 44  2  0  0  0
 43 44  1  0  0  0
 22 23  1  0  0  0
 22 25  1  0  0  0
 25 26  1  0  0  0
 26 28  1  0  0  0
 28 29  1  0  0  0
 29 30  2  0  0  0
 29 34  1  0  0  0
 30 31  1  0  0  0
 31 32  2  0  0  0
 32 33  1  0  0  0
 33 34  2  0  0  0
 33 35  1  0  0  0
 35 36  1  0  0  0
 35 37  1  0  0  0
  6  7  1  0  0  0
  6 11  1  0  0  0
  7  8  1  0  0  0
  8  9  2  0  0  0
  8 10  1  0  0  0
 10 11  1  0  0  0
 10 13  1  0  0  0
 13 14  1  0  0  0
 14 15  2  0  0  0
 14 19  1  0  0  0
 15 16  1  0  0  0
 16 17  2  0  0  0
 16 20  1  0  0  0
 17 18  1  0  0  0
 18 19  2  0  0  0
 20 21  1  0  0  0
  4  5  1  0  0  0
 23 24  1  0  0  0
 26 27  1  0  0  0
  7 12  1  0  0  0
M  END
> <minimizedAffinity>
-9.52137

$$$$
3CKP_012_A_501


 44 47  0  0  0  0  0  0  0  0999 V2000
   30.7246    4.8944    9.6636 C   0  0  0  0  0  0  0  0  0  0  0  0
   29.9774    7.3029    9.8063 C   0  0  0  0  0  0  0  0  0  0  0  0
   31.0840    7.8462    9.7629 O   0  0  0  0  0  0  0  0  0  0  0  0
   29.7110    5.9534    9.7668 N   0  0  0  0  0  0  0  0  0  0  0  0
   28.7675    5.6757    9.8110 H   0  0  0  0  0  0  0  0  0  0  0  0
   28.7209    8.1272    9.9488 C   0  0  0  0  0  0  0  0  0  0  0  0
   27.5531    7.3031   10.2080 N   0  0  0  0  0  0  0  0  0  0  0  0
   26.7759    8.2170   10.9236 C   0  0  0  0  0  0  0  0  0  0  0  0
   25.6172    7.9565   11.1822 O   0  0  0  0  0  0  0  0  0  0  0  0
   27.3924    9.4341   11.3079 N   0  0  0  0  0  0  0  0  0  0  0  0
   28.7881    9.0964   11.1179 C   0  0  0  0  0  0  0  0  0  0  0  0
   27.3642    6.3711    9.9533 H   0  0  0  0  0  0  0  0  0  0  0  0
   26.9873    9.9861   12.6390 C   0  0  0  0  0  0  0  0  0  0  0  0
   27.7776    9.6194   13.8774 C   0  0  0  0  0  0  0  0  0  0  0  0
   28.7415   10.5088   14.4063 C   0  0  0  0  0  0  0  0  0  0  0  0
   29.4953   10.1838   15.5506 C   0  0  0  0  0  0  0  0  0  0  0  0
   29.2776    8.9266   16.1851 C   0  0  0  0  0  0  0  0  0  0  0  0
   28.3184    8.0216   15.6682 C   0  0  0  0  0  0  0  0  0  0  0  0
   27.5721    8.3654   14.5189 C   0  0  0  0  0  0  0  0  0  0  0  0
   30.4385   11.1249   15.9975 O   0  0  0  0  0  0  0  0  0  0  0  0
   30.4627   11.3160   17.3967 C   0  0  0  0  0  0  0  0  0  0  0  0
   30.6107    4.1924    8.3001 C   0  0  0  0  0  0  0  0  0  0  0  0
   31.8273    3.5308    8.0283 O   0  0  0  0  0  0  0  0  0  0  0  0
   32.5483    4.1790    7.9992 H   0  0  0  0  0  0  0  0  0  0  0  0
   30.3180    5.1935    7.1965 C   0  0  0  0  0  0  0  0  0  0  0  0
   30.4650    4.6075    5.8455 N   0  0  0  0  0  0  0  0  0  0  0  0
   29.6277    4.0592    5.6485 H   0  0  0  0  0  0  0  0  0  0  0  0
   30.6440    5.5831    4.7372 C   0  0  0  0  0  0  0  0  0  0  0  0
   32.0932    5.9694    4.5715 C   0  0  0  0  0  0  0  0  0  0  0  0
   32.4636    7.2689    4.1302 C   0  0  0  0  0  0  0  0  0  0  0  0
   33.8280    7.6151    3.9989 C   0  0  0  0  0  0  0  0  0  0  0  0
   34.8283    6.6667    4.3076 C   0  0  0  0  0  0  0  0  0  0  0  0
   34.4771    5.3491    4.7525 C   0  0  0  0  0  0  0  0  0  0  0  0
   33.1018    5.0273    4.8757 C   0  0  0  0  0  0  0  0  0  0  0  0
   35.4623    4.3977    5.0635 N   0  0  0  0  0  0  0  0  0  0  0  0
   35.7753    3.3090    4.1272 C   0  0  0  0  0  0  0  0  0  0  0  0
   36.2072    4.4604    6.3297 C   0  0  0  0  0  0  0  0  0  0  0  0
   30.5235    3.9107   10.8455 C   0  0  0  0  0  0  0  0  0  0  0  0
   30.9144    4.5389   12.1705 C   0  0  0  0  0  0  0  0  0  0  0  0
   32.2530    4.9476   12.4092 C   0  0  0  0  0  0  0  0  0  0  0  0
   29.9640    4.7179   13.2020 C   0  0  0  0  0  0  0  0  0  0  0  0
   32.6219    5.5214   13.6514 C   0  0  0  0  0  0  0  0  0  0  0  0
   30.3361    5.2892   14.4430 C   0  0  0  0  0  0  0  0  0  0  0  0
   31.6676    5.6909   14.6685 C   0  0  0  0  0  0  0  0  0  0  0  0
  2  3  2  0  0  0
  2  4  1  0  0  0
  2  6  1  0  0  0
  4  1  1  0  0  0
  1 38  1  0  0  0
  1 22  1  0  0  0
 38 39  1  0  0  0
 39 40  2  0  0  0
 39 41  1  0  0  0
 40 42  1  0  0  0
 41 43  2  0  0  0
 42 44  2  0  0  0
 43 44  1  0  0  0
 22 23  1  0  0  0
 22 25  1  0  0  0
 25 26  1  0  0  0
 26 28  1  0  0  0
 28 29  1  0  0  0
 29 30  2  0  0  0
 29 34  1  0  0  0
 30 31  1  0  0  0
 31 32  2  0  0  0
 32 33  1  0  0  0
 33 34  2  0  0  0
 33 35  1  0  0  0
 35 36  1  0  0  0
 35 37  1  0  0  0
  6  7  1  0  0  0
  6 11  1  0  0  0
  7  8  1  0  0  0
  8  9  2  0  0  0
  8 10  1  0  0  0
 10 11  1  0  0  0
 10 13  1  0  0  0
 13 14  1  0  0  0
 14 15  2  0  0  0
 14 19  1  0  0  0
 15 16  1  0  0  0
 16 17  2  0  0  0
 16 20  1  0  0  0
 17 18  1  0  0  0
 18 19  2  0  0  0
 20 21  1  0  0  0
  4  5  1  0  0  0
 23 24  1  0  0  0
 26 27  1  0  0  0
  7 12  1  0  0  0
M  END
> <minimizedAffinity>
-9.14194

$$$$
3CKP_012_A_501


 44 47  0  0  0  0  0  0  0  0999 V2000
   30.8299    5.8576    7.7783 C   0  0  0  0  0  0  0  0  0  0  0  0
   29.0132    7.5795    8.1163 C   0  0  0  0  0  0  0  0  0  0  0  0
   28.6147    7.6637    6.9520 O   0  0  0  0  0  0  0  0  0  0  0  0
   30.0249    6.7780    8.5934 N   0  0  0  0  0  0  0  0  0  0  0  0
   30.2251    6.8248    9.5562 H   0  0  0  0  0  0  0  0  0  0  0  0
   28.4041    8.4339    9.2014 C   0  0  0  0  0  0  0  0  0  0  0  0
   27.1081    8.9650    8.8160 N   0  0  0  0  0  0  0  0  0  0  0  0
   26.5210    9.0881   10.0775 C   0  0  0  0  0  0  0  0  0  0  0  0
   25.4634    9.6744   10.1999 O   0  0  0  0  0  0  0  0  0  0  0  0
   27.2140    8.5194   11.1754 N   0  0  0  0  0  0  0  0  0  0  0  0
   28.1473    7.6557   10.4818 C   0  0  0  0  0  0  0  0  0  0  0  0
   26.7480    9.1767    7.9245 H   0  0  0  0  0  0  0  0  0  0  0  0
   26.3644    7.9061   12.2444 C   0  0  0  0  0  0  0  0  0  0  0  0
   27.0176    7.2951   13.4662 C   0  0  0  0  0  0  0  0  0  0  0  0
   26.9818    5.8975   13.6791 C   0  0  0  0  0  0  0  0  0  0  0  0
   27.5734    5.3092   14.8136 C   0  0  0  0  0  0  0  0  0  0  0  0
   28.2207    6.1478   15.7665 C   0  0  0  0  0  0  0  0  0  0  0  0
   28.2642    7.5501   15.5718 C   0  0  0  0  0  0  0  0  0  0  0  0
   27.6647    8.1219   14.4274 C   0  0  0  0  0  0  0  0  0  0  0  0
   27.4782    3.9133   14.9471 O   0  0  0  0  0  0  0  0  0  0  0  0
   26.7343    3.2736   13.9312 C   0  0  0  0  0  0  0  0  0  0  0  0
   30.9249    4.4894    8.4739 C   0  0  0  0  0  0  0  0  0  0  0  0
   29.6756    3.8411    8.3704 O   0  0  0  0  0  0  0  0  0  0  0  0
   28.9954    4.3786    8.8054 H   0  0  0  0  0  0  0  0  0  0  0  0
   31.2960    4.6488    9.9377 C   0  0  0  0  0  0  0  0  0  0  0  0
   30.1091    4.7389   10.8172 N   0  0  0  0  0  0  0  0  0  0  0  0
   29.3337    4.2725   10.3465 H   0  0  0  0  0  0  0  0  0  0  0  0
   30.2597    4.1286   12.1652 C   0  0  0  0  0  0  0  0  0  0  0  0
   30.8319    5.1131   13.1552 C   0  0  0  0  0  0  0  0  0  0  0  0
   31.4385    4.6745   14.3636 C   0  0  0  0  0  0  0  0  0  0  0  0
   31.9841    5.6133   15.2689 C   0  0  0  0  0  0  0  0  0  0  0  0
   31.9272    6.9933   14.9723 C   0  0  0  0  0  0  0  0  0  0  0  0
   31.3179    7.4580   13.7598 C   0  0  0  0  0  0  0  0  0  0  0  0
   30.7783    6.4960   12.8690 C   0  0  0  0  0  0  0  0  0  0  0  0
   31.2560    8.8271   13.4531 N   0  0  0  0  0  0  0  0  0  0  0  0
   31.2125    9.2814   12.0561 C   0  0  0  0  0  0  0  0  0  0  0  0
   31.2339    9.8440   14.5151 C   0  0  0  0  0  0  0  0  0  0  0  0
   32.2249    6.4974    7.5552 C   0  0  0  0  0  0  0  0  0  0  0  0
   32.4344    6.8942    6.1055 C   0  0  0  0  0  0  0  0  0  0  0  0
   33.6046    7.5944    5.7101 C   0  0  0  0  0  0  0  0  0  0  0  0
   31.4673    6.5927    5.1191 C   0  0  0  0  0  0  0  0  0  0  0  0
   33.7944    7.9778    4.3590 C   0  0  0  0  0  0  0  0  0  0  0  0
   31.6586    6.9792    3.7704 C   0  0  0  0  0  0  0  0  0  0  0  0
   32.8238    7.6738    3.3898 C   0  0  0  0  0  0  0  0  0  0  0  0
  2  3  2  0  0  0
  2  4  1  0  0  0
  2  6  1  0  0  0
  4  1  1  0  0  0
  1 38  1  0  0  0
  1 22  1  0  0  0
 38 39  1  0  0  0
 39 40  2  0  0  0
 39 41  1  0  0  0
 40 42  1  0  0  0
 41 43  2  0  0  0
 42 44  2  0  0  0
 43 44  1  0  0  0
 22 23  1  0  0  0
 22 25  1  0  0  0
 25 26  1  0  0  0
 26 28  1  0  0  0
 28 29  1  0  0  0
 29 30  2  0  0  0
 29 34  1  0  0  0
 30 31  1  0  0  0
 31 32  2  0  0  0
 32 33  1  0  0  0
 33 34  2  0  0  0
 33 35  1  0  0  0
 35 36  1  0  0  0
 35 37  1  0  0  0
  6  7  1  0  0  0
  6 11  1  0  0  0
  7  8  1  0  0  0
  8  9  2  0  0  0
  8 10  1  0  0  0
 10 11  1  0  0  0
 10 13  1  0  0  0
 13 14  1  0  0  0
 14 15  2  0  0  0
 14 19  1  0  0  0
 15 16  1  0  0  0
 16 17  2  0  0  0
 16 20  1  0  0  0
 17 18  1  0  0  0
 18 19  2  0  0  0
 20 21  1  0  0  0
  4  5  1  0  0  0
 23 24  1  0  0  0
 26 27  1  0  0  0
  7 12  1  0  0  0
M  END
> <minimizedAffinity>
-8.97907

$$$$
3CKP_012_A_501


 44 47  0  0  0  0  0  0  0  0999 V2000
   30.7468    4.9368    9.7102 C   0  0  0  0  0  0  0  0  0  0  0  0
   29.9917    7.3232   10.0489 C   0  0  0  0  0  0  0  0  0  0  0  0
   31.0909    7.8396   10.2649 O   0  0  0  0  0  0  0  0  0  0  0  0
   29.7328    5.9978    9.7839 N   0  0  0  0  0  0  0  0  0  0  0  0
   28.7948    5.7403    9.6318 H   0  0  0  0  0  0  0  0  0  0  0  0
   28.7311    8.1525   10.0887 C   0  0  0  0  0  0  0  0  0  0  0  0
   27.5365    7.3284   10.1524 N   0  0  0  0  0  0  0  0  0  0  0  0
   26.6821    8.2062   10.8238 C   0  0  0  0  0  0  0  0  0  0  0  0
   25.4993    7.9445   10.9230 O   0  0  0  0  0  0  0  0  0  0  0  0
   27.2528    9.3898   11.3552 N   0  0  0  0  0  0  0  0  0  0  0  0
   28.6597    9.0474   11.3154 C   0  0  0  0  0  0  0  0  0  0  0  0
   27.3757    6.4161    9.8191 H   0  0  0  0  0  0  0  0  0  0  0  0
   26.6909    9.8641   12.6590 C   0  0  0  0  0  0  0  0  0  0  0  0
   25.2736   10.3934   12.7192 C   0  0  0  0  0  0  0  0  0  0  0  0
   24.7952   11.2855   11.7317 C   0  0  0  0  0  0  0  0  0  0  0  0
   23.4843   11.7982   11.7740 C   0  0  0  0  0  0  0  0  0  0  0  0
   22.6249   11.4058   12.8407 C   0  0  0  0  0  0  0  0  0  0  0  0
   23.0872   10.5154   13.8405 C   0  0  0  0  0  0  0  0  0  0  0  0
   24.4058   10.0118   13.7812 C   0  0  0  0  0  0  0  0  0  0  0  0
   23.1002   12.6877   10.7559 O   0  0  0  0  0  0  0  0  0  0  0  0
   23.7871   12.5164    9.5338 C   0  0  0  0  0  0  0  0  0  0  0  0
   30.6797    4.2435    8.3391 C   0  0  0  0  0  0  0  0  0  0  0  0
   31.9054    3.5845    8.1044 O   0  0  0  0  0  0  0  0  0  0  0  0
   32.6264    4.2333    8.1039 H   0  0  0  0  0  0  0  0  0  0  0  0
   30.4237    5.2515    7.2327 C   0  0  0  0  0  0  0  0  0  0  0  0
   30.4589    4.6374    5.8866 N   0  0  0  0  0  0  0  0  0  0  0  0
   29.5241    4.2876    5.6768 H   0  0  0  0  0  0  0  0  0  0  0  0
   30.8689    5.5405    4.7782 C   0  0  0  0  0  0  0  0  0  0  0  0
   32.3250    5.9211    4.8870 C   0  0  0  0  0  0  0  0  0  0  0  0
   32.7236    7.2791    5.0196 C   0  0  0  0  0  0  0  0  0  0  0  0
   34.0926    7.6117    5.1378 C   0  0  0  0  0  0  0  0  0  0  0  0
   35.0692    6.5912    5.1248 C   0  0  0  0  0  0  0  0  0  0  0  0
   34.6894    5.2146    4.9900 C   0  0  0  0  0  0  0  0  0  0  0  0
   33.3101    4.9080    4.8730 C   0  0  0  0  0  0  0  0  0  0  0  0
   35.6508    4.1909    4.9767 N   0  0  0  0  0  0  0  0  0  0  0  0
   36.2019    3.6634    6.2329 C   0  0  0  0  0  0  0  0  0  0  0  0
   36.1345    3.6183    3.7116 C   0  0  0  0  0  0  0  0  0  0  0  0
   30.5015    3.9463   10.8780 C   0  0  0  0  0  0  0  0  0  0  0  0
   30.8919    4.5484   12.2152 C   0  0  0  0  0  0  0  0  0  0  0  0
   32.2309    4.9506   12.4629 C   0  0  0  0  0  0  0  0  0  0  0  0
   29.9409    4.7089   13.2491 C   0  0  0  0  0  0  0  0  0  0  0  0
   32.5995    5.5000   13.7163 C   0  0  0  0  0  0  0  0  0  0  0  0
   30.3126    5.2558   14.5012 C   0  0  0  0  0  0  0  0  0  0  0  0
   31.6445    5.6512   14.7355 C   0  0  0  0  0  0  0  0  0  0  0  0
  2  3  2  0  0  0
  2  4  1  0  0  0
  2  6  1  0  0  0
  4  1  1  0  0  0
  1 38  1  0  0  0
  1 22  1  0  0  0
 38 39  1  0  0  0
 39 40  2  0  0  0
 39 41  1  0  0  0
 40 42  1  0  0  0
 41 43  2  0  0  0
 42 44  2  0  0  0
 43 44  1  0  0  0
 22 23  1  0  0  0
 22 25  1  0  0  0
 25 26  1  0  0  0
 26 28  1  0  0  0
 28 29  1  0  0  0
 29 30  2  0  0  0
 29 34  1  0  0  0
 30 31  1  0  0  0
 31 32  2  0  0  0
 32 33  1  0  0  0
 33 34  2  0  0  0
 33 35  1  0  0  0
 35 36  1  0  0  0
 35 37  1  0  0  0
  6  7  1  0  0  0
  6 11  1  0  0  0
  7  8  1  0  0  0
  8  9  2  0  0  0
  8 10  1  0  0  0
 10 11  1  0  0  0
 10 13  1  0  0  0
 13 14  1  0  0  0
 14 15  2  0  0  0
 14 19  1  0  0  0
 15 16  1  0  0  0
 16 17  2  0  0  0
 16 20  1  0  0  0
 17 18  1  0  0  0
 18 19  2  0  0  0
 20 21  1  0  0  0
  4  5  1  0  0  0
 23 24  1  0  0  0
 26 27  1  0  0  0
  7 12  1  0  0  0
M  END
> <minimizedAffinity>
-8.93483

$$$$
3CKP_012_A_501


 44 47  0  0  0  0  0  0  0  0999 V2000
   30.7430    6.0553    7.5544 C   0  0  0  0  0  0  0  0  0  0  0  0
   28.9291    7.7419    8.0492 C   0  0  0  0  0  0  0  0  0  0  0  0
   28.5899    7.9987    6.8914 O   0  0  0  0  0  0  0  0  0  0  0  0
   29.9078    6.8631    8.4540 N   0  0  0  0  0  0  0  0  0  0  0  0
   30.0602    6.7682    9.4220 H   0  0  0  0  0  0  0  0  0  0  0  0
   28.2754    8.4425    9.2155 C   0  0  0  0  0  0  0  0  0  0  0  0
   26.8257    8.4169    9.1257 N   0  0  0  0  0  0  0  0  0  0  0  0
   26.5059    8.4711   10.4843 C   0  0  0  0  0  0  0  0  0  0  0  0
   25.3536    8.6445   10.8300 O   0  0  0  0  0  0  0  0  0  0  0  0
   27.5709    8.3300   11.4090 N   0  0  0  0  0  0  0  0  0  0  0  0
   28.6004    7.7859   10.5475 C   0  0  0  0  0  0  0  0  0  0  0  0
   26.2389    8.3738    8.3363 H   0  0  0  0  0  0  0  0  0  0  0  0
   27.2553    7.5852   12.6685 C   0  0  0  0  0  0  0  0  0  0  0  0
   27.6790    8.1554   14.0057 C   0  0  0  0  0  0  0  0  0  0  0  0
   29.0197    8.5448   14.2306 C   0  0  0  0  0  0  0  0  0  0  0  0
   29.4378    9.0674   15.4696 C   0  0  0  0  0  0  0  0  0  0  0  0
   28.4824    9.2033   16.5181 C   0  0  0  0  0  0  0  0  0  0  0  0
   27.1355    8.8160   16.3125 C   0  0  0  0  0  0  0  0  0  0  0  0
   26.7352    8.2934   15.0624 C   0  0  0  0  0  0  0  0  0  0  0  0
   30.7924    9.4168   15.6049 O   0  0  0  0  0  0  0  0  0  0  0  0
   31.5091    9.4784   14.3895 C   0  0  0  0  0  0  0  0  0  0  0  0
   31.2984    4.8365    8.3101 C   0  0  0  0  0  0  0  0  0  0  0  0
   31.9841    4.0099    7.3946 O   0  0  0  0  0  0  0  0  0  0  0  0
   31.3698    3.7111    6.7059 H   0  0  0  0  0  0  0  0  0  0  0  0
   30.1791    4.0489    8.9677 C   0  0  0  0  0  0  0  0  0  0  0  0
   30.3840    3.8798   10.4237 N   0  0  0  0  0  0  0  0  0  0  0  0
   30.5836    2.8952   10.6001 H   0  0  0  0  0  0  0  0  0  0  0  0
   31.4867    4.6833   11.0156 C   0  0  0  0  0  0  0  0  0  0  0  0
   31.2418    4.9625   12.4781 C   0  0  0  0  0  0  0  0  0  0  0  0
   32.2723    5.4737   13.3133 C   0  0  0  0  0  0  0  0  0  0  0  0
   32.0158    5.7448   14.6769 C   0  0  0  0  0  0  0  0  0  0  0  0
   30.7304    5.5076   15.2127 C   0  0  0  0  0  0  0  0  0  0  0  0
   29.6766    4.9902   14.3886 C   0  0  0  0  0  0  0  0  0  0  0  0
   29.9600    4.7268   13.0246 C   0  0  0  0  0  0  0  0  0  0  0  0
   28.3944    4.7512   14.9092 N   0  0  0  0  0  0  0  0  0  0  0  0
   27.3668    4.0859   14.0959 C   0  0  0  0  0  0  0  0  0  0  0  0
   28.0412    5.1579   16.2775 C   0  0  0  0  0  0  0  0  0  0  0  0
   31.8719    6.9595    6.9947 C   0  0  0  0  0  0  0  0  0  0  0  0
   31.7499    7.1440    5.4933 C   0  0  0  0  0  0  0  0  0  0  0  0
   30.8689    6.3290    4.7347 C   0  0  0  0  0  0  0  0  0  0  0  0
   32.5182    8.1163    4.8125 C   0  0  0  0  0  0  0  0  0  0  0  0
   30.7648    6.4911    3.3306 C   0  0  0  0  0  0  0  0  0  0  0  0
   32.4138    8.2743    3.4093 C   0  0  0  0  0  0  0  0  0  0  0  0
   31.5362    7.4596    2.6668 C   0  0  0  0  0  0  0  0  0  0  0  0
  2  3  2  0  0  0
  2  4  1  0  0  0
  2  6  1  0  0  0
  4  1  1  0  0  0
  1 38  1  0  0  0
  1 22  1  0  0  0
 38 39  1  0  0  0
 39 40  2  0  0  0
 39 41  1  0  0  0
 40 42  1  0  0  0
 41 43  2  0  0  0
 42 44  2  0  0  0
 43 44  1  0  0  0
 22 23  1  0  0  0
 22 25  1  0  0  0
 25 26  1  0  0  0
 26 28  1  0  0  0
 28 29  1  0  0  0
 29 30  2  0  0  0
 29 34  1  0  0  0
 30 31  1  0  0  0
 31 32  2  0  0  0
 32 33  1  0  0  0
 33 34  2  0  0  0
 33 35  1  0  0  0
 35 36  1  0  0  0
 35 37  1  0  0  0
  6  7  1  0  0  0
  6 11  1  0  0  0
  7  8  1  0  0  0
  8  9  2  0  0  0
  8 10  1  0  0  0
 10 11  1  0  0  0
 10 13  1  0  0  0
 13 14  1  0  0  0
 14 15  2  0  0  0
 14 19  1  0  0  0
 15 16  1  0  0  0
 16 17  2  0  0  0
 16 20  1  0  0  0
 17 18  1  0  0  0
 18 19  2  0  0  0
 20 21  1  0  0  0
  4  5  1  0  0  0
 23 24  1  0  0  0
 26 27  1  0  0  0
  7 12  1  0  0  0
M  END
> <minimizedAffinity>
-8.82492

$$$$
3CKP_012_A_501


 44 47  0  0  0  0  0  0  0  0999 V2000
   30.3749    5.9054    6.9734 C   0  0  0  0  0  0  0  0  0  0  0  0
   28.7709    7.6826    7.7785 C   0  0  0  0  0  0  0  0  0  0  0  0
   28.3366    8.0535    6.6852 O   0  0  0  0  0  0  0  0  0  0  0  0
   29.7084    6.7028    8.0124 N   0  0  0  0  0  0  0  0  0  0  0  0
   29.9517    6.5219    8.9491 H   0  0  0  0  0  0  0  0  0  0  0  0
   28.3028    8.3388    9.0548 C   0  0  0  0  0  0  0  0  0  0  0  0
   26.9473    8.8487    8.9419 N   0  0  0  0  0  0  0  0  0  0  0  0
   26.5511    8.7583   10.2783 C   0  0  0  0  0  0  0  0  0  0  0  0
   25.5050    9.2630   10.6365 O   0  0  0  0  0  0  0  0  0  0  0  0
   27.4181    8.0768   11.1687 N   0  0  0  0  0  0  0  0  0  0  0  0
   28.2652    7.3729   10.2279 C   0  0  0  0  0  0  0  0  0  0  0  0
   26.4517    9.1660    8.1526 H   0  0  0  0  0  0  0  0  0  0  0  0
   26.7577    7.2719   12.2443 C   0  0  0  0  0  0  0  0  0  0  0  0
   27.5204    6.9367   13.5086 C   0  0  0  0  0  0  0  0  0  0  0  0
   27.9546    7.9615   14.3810 C   0  0  0  0  0  0  0  0  0  0  0  0
   28.6744    7.6733   15.5565 C   0  0  0  0  0  0  0  0  0  0  0  0
   28.9703    6.3146   15.8679 C   0  0  0  0  0  0  0  0  0  0  0  0
   28.5461    5.2747   15.0047 C   0  0  0  0  0  0  0  0  0  0  0  0
   27.8252    5.5838   13.8297 C   0  0  0  0  0  0  0  0  0  0  0  0
   29.0746    8.7570   16.3569 O   0  0  0  0  0  0  0  0  0  0  0  0
   30.3853    8.6558   16.8733 C   0  0  0  0  0  0  0  0  0  0  0  0
   30.9729    4.6320    7.5946 C   0  0  0  0  0  0  0  0  0  0  0  0
   29.9985    3.6116    7.5617 O   0  0  0  0  0  0  0  0  0  0  0  0
   29.2231    3.8883    8.0746 H   0  0  0  0  0  0  0  0  0  0  0  0
   31.4039    4.8783    9.0296 C   0  0  0  0  0  0  0  0  0  0  0  0
   30.3213    4.6069   10.0015 N   0  0  0  0  0  0  0  0  0  0  0  0
   29.5934    4.0782    9.5209 H   0  0  0  0  0  0  0  0  0  0  0  0
   30.7207    3.8398   11.2116 C   0  0  0  0  0  0  0  0  0  0  0  0
   31.2136    4.7539   12.3061 C   0  0  0  0  0  0  0  0  0  0  0  0
   31.7942    4.2337   13.4948 C   0  0  0  0  0  0  0  0  0  0  0  0
   32.2656    5.1090   14.4999 C   0  0  0  0  0  0  0  0  0  0  0  0
   32.1603    6.5066   14.3232 C   0  0  0  0  0  0  0  0  0  0  0  0
   31.5761    7.0530   13.1326 C   0  0  0  0  0  0  0  0  0  0  0  0
   31.1111    6.1536   12.1401 C   0  0  0  0  0  0  0  0  0  0  0  0
   31.4666    8.4405   12.9448 N   0  0  0  0  0  0  0  0  0  0  0  0
   31.7606    9.3714   14.0434 C   0  0  0  0  0  0  0  0  0  0  0  0
   31.0555    9.0025   11.6496 C   0  0  0  0  0  0  0  0  0  0  0  0
   31.4562    6.7895    6.2994 C   0  0  0  0  0  0  0  0  0  0  0  0
   31.1038    7.1044    4.8573 C   0  0  0  0  0  0  0  0  0  0  0  0
   30.1130    6.3506    4.1747 C   0  0  0  0  0  0  0  0  0  0  0  0
   31.7609    8.1408    4.1549 C   0  0  0  0  0  0  0  0  0  0  0  0
   29.7932    6.6349    2.8236 C   0  0  0  0  0  0  0  0  0  0  0  0
   31.4410    8.4208    2.8042 C   0  0  0  0  0  0  0  0  0  0  0  0
   30.4561    7.6660    2.1371 C   0  0  0  0  0  0  0  0  0  0  0  0
  2  3  2  0  0  0
  2  4  1  0  0  0
  2  6  1  0  0  0
  4  1  1  0  0  0
  1 38  1  0  0  0
  1 22  1  0  0  0
 38 39  1  0  0  0
 39 40  2  0  0  0
 39 41  1  0  0  0
 40 42  1  0  0  0
 41 43  2  0  0  0
 42 44  2  0  0  0
 43 44  1  0  0  0
 22 23  1  0  0  0
 22 25  1  0  0  0
 25 26  1  0  0  0
 26 28  1  0  0  0
 28 29  1  0  0  0
 29 30  2  0  0  0
 29 34  1  0  0  0
 30 31  1  0  0  0
 31 32  2  0  0  0
 32 33  1  0  0  0
 33 34  2  0  0  0
 33 35  1  0  0  0
 35 36  1  0  0  0
 35 37  1  0  0  0
  6  7  1  0  0  0
  6 11  1  0  0  0
  7  8  1  0  0  0
  8  9  2  0  0  0
  8 10  1  0  0  0
 10 11  1  0  0  0
 10 13  1  0  0  0
 13 14  1  0  0  0
 14 15  2  0  0  0
 14 19  1  0  0  0
 15 16  1  0  0  0
 16 17  2  0  0  0
 16 20  1  0  0  0
 17 18  1  0  0  0
 18 19  2  0  0  0
 20 21  1  0  0  0
  4  5  1  0  0  0
 23 24  1  0  0  0
 26 27  1  0  0  0
  7 12  1  0  0  0
M  END
> <minimizedAffinity>
-8.82221

$$$$
3CKP_012_A_501


 44 47  0  0  0  0  0  0  0  0999 V2000
   30.5010    6.3164    9.4149 C   0  0  0  0  0  0  0  0  0  0  0  0
   32.1276    5.0365    7.9673 C   0  0  0  0  0  0  0  0  0  0  0  0
   31.7050    3.8959    8.1725 O   0  0  0  0  0  0  0  0  0  0  0  0
   31.6402    6.2114    8.4926 N   0  0  0  0  0  0  0  0  0  0  0  0
   32.0899    7.0468    8.2299 H   0  0  0  0  0  0  0  0  0  0  0  0
   33.3270    5.2643    7.0797 C   0  0  0  0  0  0  0  0  0  0  0  0
   33.4258    4.2672    6.0278 N   0  0  0  0  0  0  0  0  0  0  0  0
   34.0907    5.0178    5.0554 C   0  0  0  0  0  0  0  0  0  0  0  0
   34.5214    4.4731    4.0579 O   0  0  0  0  0  0  0  0  0  0  0  0
   34.2418    6.4064    5.2967 N   0  0  0  0  0  0  0  0  0  0  0  0
   33.2715    6.5992    6.3547 C   0  0  0  0  0  0  0  0  0  0  0  0
   33.1145    3.3335    6.0066 H   0  0  0  0  0  0  0  0  0  0  0  0
   34.1470    7.2974    4.0976 C   0  0  0  0  0  0  0  0  0  0  0  0
   33.1595    8.4452    4.0898 C   0  0  0  0  0  0  0  0  0  0  0  0
   31.8380    8.2553    3.6236 C   0  0  0  0  0  0  0  0  0  0  0  0
   30.9065    9.3112    3.5975 C   0  0  0  0  0  0  0  0  0  0  0  0
   31.3119   10.5994    4.0518 C   0  0  0  0  0  0  0  0  0  0  0  0
   32.6323   10.8095    4.5197 C   0  0  0  0  0  0  0  0  0  0  0  0
   33.5527    9.7378    4.5379 C   0  0  0  0  0  0  0  0  0  0  0  0
   29.6194    9.0316    3.1070 O   0  0  0  0  0  0  0  0  0  0  0  0
   29.2527    7.6686    3.1579 C   0  0  0  0  0  0  0  0  0  0  0  0
   29.2694    6.8524    8.6660 C   0  0  0  0  0  0  0  0  0  0  0  0
   29.6918    7.4095    7.4401 O   0  0  0  0  0  0  0  0  0  0  0  0
   30.3086    8.1382    7.6116 H   0  0  0  0  0  0  0  0  0  0  0  0
   28.5530    7.9106    9.4861 C   0  0  0  0  0  0  0  0  0  0  0  0
   27.4954    7.3394   10.3496 N   0  0  0  0  0  0  0  0  0  0  0  0
   27.8234    6.4362   10.6916 H   0  0  0  0  0  0  0  0  0  0  0  0
   27.1122    8.1628   11.5275 C   0  0  0  0  0  0  0  0  0  0  0  0
   27.8161    7.6970   12.7782 C   0  0  0  0  0  0  0  0  0  0  0  0
   27.6213    6.3844   13.2878 C   0  0  0  0  0  0  0  0  0  0  0  0
   28.3047    5.9629   14.4515 C   0  0  0  0  0  0  0  0  0  0  0  0
   29.1854    6.8488   15.1111 C   0  0  0  0  0  0  0  0  0  0  0  0
   29.3951    8.1784   14.6154 C   0  0  0  0  0  0  0  0  0  0  0  0
   28.6977    8.5761   13.4468 C   0  0  0  0  0  0  0  0  0  0  0  0
   30.2688    9.0681   15.2617 N   0  0  0  0  0  0  0  0  0  0  0  0
   30.7410   10.2822   14.5813 C   0  0  0  0  0  0  0  0  0  0  0  0
   30.7369    8.8133   16.6322 C   0  0  0  0  0  0  0  0  0  0  0  0
   30.9124    7.2349   10.5948 C   0  0  0  0  0  0  0  0  0  0  0  0
   31.3515    6.4308   11.8046 C   0  0  0  0  0  0  0  0  0  0  0  0
   32.1499    7.0261   12.8166 C   0  0  0  0  0  0  0  0  0  0  0  0
   30.9921    5.0707   11.9467 C   0  0  0  0  0  0  0  0  0  0  0  0
   32.5722    6.2719   13.9397 C   0  0  0  0  0  0  0  0  0  0  0  0
   31.4176    4.3191   13.0687 C   0  0  0  0  0  0  0  0  0  0  0  0
   32.2098    4.9205   14.0666 C   0  0  0  0  0  0  0  0  0  0  0  0
  2  3  2  0  0  0
  2  4  1  0  0  0
  2  6  1  0  0  0
  4  1  1  0  0  0
  1 38  1  0  0  0
  1 22  1  0  0  0
 38 39  1  0  0  0
 39 40  2  0  0  0
 39 41  1  0  0  0
 40 42  1  0  0  0
 41 43  2  0  0  0
 42 44  2  0  0  0
 43 44  1  0  0  0
 22 23  1  0  0  0
 22 25  1  0  0  0
 25 26  1  0  0  0
 26 28  1  0  0  0
 28 29  1  0  0  0
 29 30  2  0  0  0
 29 34  1  0  0  0
 30 31  1  0  0  0
 31 32  2  0  0  0
 32 33  1  0  0  0
 33 34  2  0  0  0
 33 35  1  0  0  0
 35 36  1  0  0  0
 35 37  1  0  0  0
  6  7  1  0  0  0
  6 11  1  0  0  0
  7  8  1  0  0  0
  8  9  2  0  0  0
  8 10  1  0  0  0
 10 11  1  0  0  0
 10 13  1  0  0  0
 13 14  1  0  0  0
 14 15  2  0  0  0
 14 19  1  0  0  0
 15 16  1  0  0  0
 16 17  2  0  0  0
 16 20  1  0  0  0
 17 18  1  0  0  0
 18 19  2  0  0  0
 20 21  1  0  0  0
  4  5  1  0  0  0
 23 24  1  0  0  0
 26 27  1  0  0  0
  7 12  1  0  0  0
M  END
> <minimizedAffinity>
-8.81985

$$$$
