5OSS_AEZ_B_505


 19 20  0  0  0  0  0  0  0  0999 V2000
  -19.4540  -29.1465   -6.7154 C   0  0  0  0  0  0  0  0  0  0  0  0
  -19.5255  -28.0556   -5.6713 C   0  0  0  0  0  0  0  0  0  0  0  0
  -19.7266  -28.7410   -4.3886 C   0  0  0  0  0  0  0  0  0  0  0  0
  -20.2773  -29.3393   -2.3263 C   0  0  0  0  0  0  0  0  0  0  0  0
  -18.3141  -30.0991   -6.3160 C   0  0  0  0  0  0  0  0  0  0  0  0
  -19.2743  -30.1258   -4.1252 C   0  0  0  0  0  0  0  0  0  0  0  0
  -18.5739  -30.9692   -5.0850 C   0  0  0  0  0  0  0  0  0  0  0  0
  -17.3698  -31.5209   -4.5169 O   0  0  0  0  0  0  0  0  0  0  0  0
  -19.1954  -28.5854   -8.0115 O   0  0  0  0  0  0  0  0  0  0  0  0
  -17.9220  -30.9548   -7.3750 O   0  0  0  0  0  0  0  0  0  0  0  0
  -19.6424  -30.3918   -2.8740 N   0  0  0  0  0  0  0  0  0  0  0  0
  -20.3488  -28.3399   -3.2635 N   0  0  0  0  0  0  0  0  0  0  0  0
  -16.7833  -30.7998   -4.2396 H   0  0  0  0  0  0  0  0  0  0  0  0
  -18.3544  -28.1023   -7.9927 H   0  0  0  0  0  0  0  0  0  0  0  0
  -18.6471  -31.5644   -7.5835 H   0  0  0  0  0  0  0  0  0  0  0  0
  -20.7858  -27.4673   -3.1340 H   0  0  0  0  0  0  0  0  0  0  0  0
  -20.5970  -27.0449   -5.8785 C   0  0  0  0  0  0  0  0  0  0  0  0
  -21.8755  -27.5180   -5.4571 O   0  0  0  0  0  0  0  0  0  0  0  0
  -22.1188  -28.2994   -5.9777 H   0  0  0  0  0  0  0  0  0  0  0  0
  9  1  1  0  0  0
 10  5  1  0  0  0
  1  5  1  0  0  0
  1  2  1  0  0  0
  5  7  1  0  0  0
 17  2  1  0  0  0
 17 18  1  0  0  0
  2  3  1  0  0  0
  7  8  1  0  0  0
  7  6  1  0  0  0
  3  6  2  0  0  0
  3 12  1  0  0  0
  6 11  1  0  0  0
 12  4  1  0  0  0
 11  4  2  0  0  0
  8 13  1  0  0  0
  9 14  1  0  0  0
 10 15  1  0  0  0
 18 19  1  0  0  0
 12 16  1  0  0  0
M  END
> <minimizedAffinity>
-8.11625

$$$$
5OSS_AEZ_B_505


 19 20  0  0  0  0  0  0  0  0999 V2000
  -18.6801  -29.5978   -6.1704 C   0  0  0  0  0  0  0  0  0  0  0  0
  -19.2023  -30.7036   -5.2815 C   0  0  0  0  0  0  0  0  0  0  0  0
  -19.7572  -30.0371   -4.0968 C   0  0  0  0  0  0  0  0  0  0  0  0
  -20.4592  -29.4705   -2.0718 C   0  0  0  0  0  0  0  0  0  0  0  0
  -19.8514  -28.6450   -6.4648 C   0  0  0  0  0  0  0  0  0  0  0  0
  -20.2843  -28.6539   -4.1122 C   0  0  0  0  0  0  0  0  0  0  0  0
  -20.3293  -27.7935   -5.2874 C   0  0  0  0  0  0  0  0  0  0  0  0
  -21.6469  -27.2437   -5.4839 O   0  0  0  0  0  0  0  0  0  0  0  0
  -18.1659  -30.1394   -7.3966 O   0  0  0  0  0  0  0  0  0  0  0  0
  -19.5856  -27.7727   -7.5491 O   0  0  0  0  0  0  0  0  0  0  0  0
  -20.6818  -28.4073   -2.8660 N   0  0  0  0  0  0  0  0  0  0  0  0
  -19.8712  -30.4571   -2.8222 N   0  0  0  0  0  0  0  0  0  0  0  0
  -22.2855  -27.9656   -5.5934 H   0  0  0  0  0  0  0  0  0  0  0  0
  -18.8711  -30.6184   -7.8594 H   0  0  0  0  0  0  0  0  0  0  0  0
  -18.8704  -27.1639   -7.3065 H   0  0  0  0  0  0  0  0  0  0  0  0
  -19.5787  -31.3337   -2.4826 H   0  0  0  0  0  0  0  0  0  0  0  0
  -18.1952  -31.7167   -4.8671 C   0  0  0  0  0  0  0  0  0  0  0  0
  -16.8662  -31.3325   -5.2163 O   0  0  0  0  0  0  0  0  0  0  0  0
  -16.7980  -31.2432   -6.1798 H   0  0  0  0  0  0  0  0  0  0  0  0
  9  1  1  0  0  0
 10  5  1  0  0  0
  1  5  1  0  0  0
  1  2  1  0  0  0
  5  7  1  0  0  0
 17  2  1  0  0  0
 17 18  1  0  0  0
  2  3  1  0  0  0
  7  8  1  0  0  0
  7  6  1  0  0  0
  3  6  2  0  0  0
  3 12  1  0  0  0
  6 11  1  0  0  0
 12  4  1  0  0  0
 11  4  2  0  0  0
  8 13  1  0  0  0
  9 14  1  0  0  0
 10 15  1  0  0  0
 18 19  1  0  0  0
 12 16  1  0  0  0
M  END
> <minimizedAffinity>
-6.86538

$$$$
5OSS_AEZ_B_505


 19 20  0  0  0  0  0  0  0  0999 V2000
  -19.9652  -30.1765   -3.3480 C   0  0  0  0  0  0  0  0  0  0  0  0
  -20.6299  -29.5467   -4.5509 C   0  0  0  0  0  0  0  0  0  0  0  0
  -22.0633  -29.8321   -4.4118 C   0  0  0  0  0  0  0  0  0  0  0  0
  -24.2190  -30.2484   -4.7189 C   0  0  0  0  0  0  0  0  0  0  0  0
  -20.6156  -29.5766   -2.0896 C   0  0  0  0  0  0  0  0  0  0  0  0
  -22.7270  -30.0542   -3.1074 C   0  0  0  0  0  0  0  0  0  0  0  0
  -22.0568  -30.0089   -1.8143 C   0  0  0  0  0  0  0  0  0  0  0  0
  -22.7450  -29.1351   -0.8979 O   0  0  0  0  0  0  0  0  0  0  0  0
  -18.5557  -29.9026   -3.3519 O   0  0  0  0  0  0  0  0  0  0  0  0
  -19.8598  -29.8201   -0.9161 O   0  0  0  0  0  0  0  0  0  0  0  0
  -24.0059  -30.2901   -3.3908 N   0  0  0  0  0  0  0  0  0  0  0  0
  -23.0240  -29.9921   -5.3422 N   0  0  0  0  0  0  0  0  0  0  0  0
  -22.7804  -28.2399   -1.2695 H   0  0  0  0  0  0  0  0  0  0  0  0
  -18.4127  -28.9434   -3.3332 H   0  0  0  0  0  0  0  0  0  0  0  0
  -19.8586  -30.7708   -0.7238 H   0  0  0  0  0  0  0  0  0  0  0  0
  -22.8898  -29.9343   -6.3158 H   0  0  0  0  0  0  0  0  0  0  0  0
  -20.1439  -30.0279   -5.8717 C   0  0  0  0  0  0  0  0  0  0  0  0
  -20.3077  -29.0497   -6.8975 O   0  0  0  0  0  0  0  0  0  0  0  0
  -21.2500  -28.8438   -7.0004 H   0  0  0  0  0  0  0  0  0  0  0  0
  9  1  1  0  0  0
 10  5  1  0  0  0
  1  5  1  0  0  0
  1  2  1  0  0  0
  5  7  1  0  0  0
 17  2  1  0  0  0
 17 18  1  0  0  0
  2  3  1  0  0  0
  7  8  1  0  0  0
  7  6  1  0  0  0
  3  6  2  0  0  0
  3 12  1  0  0  0
  6 11  1  0  0  0
 12  4  1  0  0  0
 11  4  2  0  0  0
  8 13  1  0  0  0
  9 14  1  0  0  0
 10 15  1  0  0  0
 18 19  1  0  0  0
 12 16  1  0  0  0
M  END
> <minimizedAffinity>
-6.49162

$$$$
5OSS_AEZ_B_505


 19 20  0  0  0  0  0  0  0  0999 V2000
  -20.8416  -30.2038   -2.4410 C   0  0  0  0  0  0  0  0  0  0  0  0
  -21.8691  -31.3126   -2.4565 C   0  0  0  0  0  0  0  0  0  0  0  0
  -22.5828  -31.1798   -3.7326 C   0  0  0  0  0  0  0  0  0  0  0  0
  -24.0534  -31.1828   -5.3915 C   0  0  0  0  0  0  0  0  0  0  0  0
  -19.9560  -30.3726   -3.6874 C   0  0  0  0  0  0  0  0  0  0  0  0
  -21.9816  -30.5765   -4.9434 C   0  0  0  0  0  0  0  0  0  0  0  0
  -20.6235  -30.0551   -5.0266 C   0  0  0  0  0  0  0  0  0  0  0  0
  -19.9186  -30.6071   -6.1559 O   0  0  0  0  0  0  0  0  0  0  0  0
  -20.0389  -30.2791   -1.2529 O   0  0  0  0  0  0  0  0  0  0  0  0
  -18.7587  -29.6187   -3.6120 O   0  0  0  0  0  0  0  0  0  0  0  0
  -22.9287  -30.6260   -5.8773 N   0  0  0  0  0  0  0  0  0  0  0  0
  -23.8466  -31.4982   -4.0724 N   0  0  0  0  0  0  0  0  0  0  0  0
  -19.8841  -31.5731   -6.0748 H   0  0  0  0  0  0  0  0  0  0  0  0
  -19.5872  -31.1370   -1.2217 H   0  0  0  0  0  0  0  0  0  0  0  0
  -18.9710  -28.6724   -3.6269 H   0  0  0  0  0  0  0  0  0  0  0  0
  -24.5163  -31.8947   -3.4695 H   0  0  0  0  0  0  0  0  0  0  0  0
  -22.8399  -31.2971   -1.3297 C   0  0  0  0  0  0  0  0  0  0  0  0
  -22.2420  -31.6904   -0.0952 O   0  0  0  0  0  0  0  0  0  0  0  0
  -21.9111  -32.5990   -0.1713 H   0  0  0  0  0  0  0  0  0  0  0  0
  9  1  1  0  0  0
 10  5  1  0  0  0
  1  5  1  0  0  0
  1  2  1  0  0  0
  5  7  1  0  0  0
 17  2  1  0  0  0
 17 18  1  0  0  0
  2  3  1  0  0  0
  7  8  1  0  0  0
  7  6  1  0  0  0
  3  6  2  0  0  0
  3 12  1  0  0  0
  6 11  1  0  0  0
 12  4  1  0  0  0
 11  4  2  0  0  0
  8 13  1  0  0  0
  9 14  1  0  0  0
 10 15  1  0  0  0
 18 19  1  0  0  0
 12 16  1  0  0  0
M  END
> <minimizedAffinity>
-6.25680

$$$$
5OSS_AEZ_B_505


 19 20  0  0  0  0  0  0  0  0999 V2000
  -22.8474  -30.1508   -3.1366 C   0  0  0  0  0  0  0  0  0  0  0  0
  -22.1900  -31.1863   -4.0204 C   0  0  0  0  0  0  0  0  0  0  0  0
  -20.7932  -30.7590   -4.1674 C   0  0  0  0  0  0  0  0  0  0  0  0
  -18.7227  -30.3516   -4.8472 C   0  0  0  0  0  0  0  0  0  0  0  0
  -22.0561  -30.0937   -1.8187 C   0  0  0  0  0  0  0  0  0  0  0  0
  -20.0804  -29.9428   -3.1589 C   0  0  0  0  0  0  0  0  0  0  0  0
  -20.6600  -29.4748   -1.9066 C   0  0  0  0  0  0  0  0  0  0  0  0
  -19.8206  -29.8088   -0.7837 O   0  0  0  0  0  0  0  0  0  0  0  0
  -24.2135  -30.5074   -2.8754 O   0  0  0  0  0  0  0  0  0  0  0  0
  -22.7611  -29.4249   -0.7877 O   0  0  0  0  0  0  0  0  0  0  0  0
  -18.8570  -29.7550   -3.6485 N   0  0  0  0  0  0  0  0  0  0  0  0
  -19.9164  -30.9443   -5.1730 N   0  0  0  0  0  0  0  0  0  0  0  0
  -19.7054  -30.7710   -0.7410 H   0  0  0  0  0  0  0  0  0  0  0  0
  -24.2438  -31.3716   -2.4360 H   0  0  0  0  0  0  0  0  0  0  0  0
  -22.8598  -28.4879   -1.0186 H   0  0  0  0  0  0  0  0  0  0  0  0
  -20.1027  -31.4286   -6.0096 H   0  0  0  0  0  0  0  0  0  0  0  0
  -22.8086  -31.3644   -5.3613 C   0  0  0  0  0  0  0  0  0  0  0  0
  -23.6159  -30.2494   -5.7369 O   0  0  0  0  0  0  0  0  0  0  0  0
  -24.3417  -30.1471   -5.1016 H   0  0  0  0  0  0  0  0  0  0  0  0
  9  1  1  0  0  0
 10  5  1  0  0  0
  1  5  1  0  0  0
  1  2  1  0  0  0
  5  7  1  0  0  0
 17  2  1  0  0  0
 17 18  1  0  0  0
  2  3  1  0  0  0
  7  8  1  0  0  0
  7  6  1  0  0  0
  3  6  2  0  0  0
  3 12  1  0  0  0
  6 11  1  0  0  0
 12  4  1  0  0  0
 11  4  2  0  0  0
  8 13  1  0  0  0
  9 14  1  0  0  0
 10 15  1  0  0  0
 18 19  1  0  0  0
 12 16  1  0  0  0
M  END
> <minimizedAffinity>
-6.24213

$$$$
5OSS_AEZ_B_505


 19 20  0  0  0  0  0  0  0  0999 V2000
  -21.6726  -29.9397   -4.8696 C   0  0  0  0  0  0  0  0  0  0  0  0
  -20.6101  -30.5773   -4.0035 C   0  0  0  0  0  0  0  0  0  0  0  0
  -21.2616  -30.8707   -2.7209 C   0  0  0  0  0  0  0  0  0  0  0  0
  -21.7688  -31.2437   -0.5953 C   0  0  0  0  0  0  0  0  0  0  0  0
  -22.8500  -30.9252   -4.9632 C   0  0  0  0  0  0  0  0  0  0  0  0
  -22.7149  -31.1158   -2.5825 C   0  0  0  0  0  0  0  0  0  0  0  0
  -23.6687  -31.1080   -3.6841 C   0  0  0  0  0  0  0  0  0  0  0  0
  -24.4707  -32.3055   -3.6912 O   0  0  0  0  0  0  0  0  0  0  0  0
  -21.1546  -29.6656   -6.1804 O   0  0  0  0  0  0  0  0  0  0  0  0
  -23.7493  -30.6028   -6.0095 O   0  0  0  0  0  0  0  0  0  0  0  0
  -22.9207  -31.3317   -1.2853 N   0  0  0  0  0  0  0  0  0  0  0  0
  -20.7596  -30.9375   -1.4729 N   0  0  0  0  0  0  0  0  0  0  0  0
  -23.8937  -33.0806   -3.7754 H   0  0  0  0  0  0  0  0  0  0  0  0
  -20.8588  -30.4933   -6.5907 H   0  0  0  0  0  0  0  0  0  0  0  0
  -24.1896  -29.7619   -5.8097 H   0  0  0  0  0  0  0  0  0  0  0  0
  -19.8173  -30.7900   -1.2288 H   0  0  0  0  0  0  0  0  0  0  0  0
  -19.3938  -29.7518   -3.7762 C   0  0  0  0  0  0  0  0  0  0  0  0
  -18.1932  -30.4668   -4.0650 O   0  0  0  0  0  0  0  0  0  0  0  0
  -18.1265  -31.2367   -3.4788 H   0  0  0  0  0  0  0  0  0  0  0  0
  9  1  1  0  0  0
 10  5  1  0  0  0
  1  5  1  0  0  0
  1  2  1  0  0  0
  5  7  1  0  0  0
 17  2  1  0  0  0
 17 18  1  0  0  0
  2  3  1  0  0  0
  7  8  1  0  0  0
  7  6  1  0  0  0
  3  6  2  0  0  0
  3 12  1  0  0  0
  6 11  1  0  0  0
 12  4  1  0  0  0
 11  4  2  0  0  0
  8 13  1  0  0  0
  9 14  1  0  0  0
 10 15  1  0  0  0
 18 19  1  0  0  0
 12 16  1  0  0  0
M  END
> <minimizedAffinity>
-6.21046

$$$$
5OSS_AEZ_B_505


 19 20  0  0  0  0  0  0  0  0999 V2000
  -22.2631  -30.5937   -4.9082 C   0  0  0  0  0  0  0  0  0  0  0  0
  -22.9230  -29.9869   -3.6909 C   0  0  0  0  0  0  0  0  0  0  0  0
  -21.8805  -29.9249   -2.6590 C   0  0  0  0  0  0  0  0  0  0  0  0
  -20.7075  -29.8840   -0.7783 C   0  0  0  0  0  0  0  0  0  0  0  0
  -21.0570  -29.7110   -5.2724 C   0  0  0  0  0  0  0  0  0  0  0  0
  -20.4355  -29.8282   -2.9655 C   0  0  0  0  0  0  0  0  0  0  0  0
  -19.8714  -29.7724   -4.3078 C   0  0  0  0  0  0  0  0  0  0  0  0
  -18.9671  -28.6593   -4.4503 O   0  0  0  0  0  0  0  0  0  0  0  0
  -23.1857  -30.6444   -6.0072 O   0  0  0  0  0  0  0  0  0  0  0  0
  -20.5667  -29.9685   -6.5766 O   0  0  0  0  0  0  0  0  0  0  0  0
  -19.8190  -29.8059   -1.7860 N   0  0  0  0  0  0  0  0  0  0  0  0
  -21.9659  -29.9813   -1.3160 N   0  0  0  0  0  0  0  0  0  0  0  0
  -19.4410  -27.8325   -4.2697 H   0  0  0  0  0  0  0  0  0  0  0  0
  -23.4869  -29.7469   -6.2182 H   0  0  0  0  0  0  0  0  0  0  0  0
  -20.1949  -30.8637   -6.6114 H   0  0  0  0  0  0  0  0  0  0  0  0
  -22.7998  -30.0772   -0.8015 H   0  0  0  0  0  0  0  0  0  0  0  0
  -24.1051  -30.7258   -3.1725 C   0  0  0  0  0  0  0  0  0  0  0  0
  -24.1651  -32.0639   -3.6645 O   0  0  0  0  0  0  0  0  0  0  0  0
  -24.2418  -32.0497   -4.6314 H   0  0  0  0  0  0  0  0  0  0  0  0
  9  1  1  0  0  0
 10  5  1  0  0  0
  1  5  1  0  0  0
  1  2  1  0  0  0
  5  7  1  0  0  0
 17  2  1  0  0  0
 17 18  1  0  0  0
  2  3  1  0  0  0
  7  8  1  0  0  0
  7  6  1  0  0  0
  3  6  2  0  0  0
  3 12  1  0  0  0
  6 11  1  0  0  0
 12  4  1  0  0  0
 11  4  2  0  0  0
  8 13  1  0  0  0
  9 14  1  0  0  0
 10 15  1  0  0  0
 18 19  1  0  0  0
 12 16  1  0  0  0
M  END
> <minimizedAffinity>
-6.08432

$$$$
5OSS_AEZ_B_505


 19 20  0  0  0  0  0  0  0  0999 V2000
  -22.3541  -30.4586   -1.7699 C   0  0  0  0  0  0  0  0  0  0  0  0
  -21.1167  -29.5903   -1.7877 C   0  0  0  0  0  0  0  0  0  0  0  0
  -20.3941  -29.9474   -3.0148 C   0  0  0  0  0  0  0  0  0  0  0  0
  -18.8877  -30.3529   -4.5899 C   0  0  0  0  0  0  0  0  0  0  0  0
  -23.1315  -30.1877   -3.0693 C   0  0  0  0  0  0  0  0  0  0  0  0
  -21.0575  -30.4870   -4.2232 C   0  0  0  0  0  0  0  0  0  0  0  0
  -22.4902  -30.7195   -4.3522 C   0  0  0  0  0  0  0  0  0  0  0  0
  -23.0154  -30.1045   -5.5451 O   0  0  0  0  0  0  0  0  0  0  0  0
  -23.1720  -30.1446   -0.6323 O   0  0  0  0  0  0  0  0  0  0  0  0
  -24.4626  -30.6705   -3.0194 O   0  0  0  0  0  0  0  0  0  0  0  0
  -20.0830  -30.6933   -5.1060 N   0  0  0  0  0  0  0  0  0  0  0  0
  -19.0785  -29.9199   -3.3021 N   0  0  0  0  0  0  0  0  0  0  0  0
  -22.8494  -29.1493   -5.5164 H   0  0  0  0  0  0  0  0  0  0  0  0
  -23.4341  -29.2114   -0.6703 H   0  0  0  0  0  0  0  0  0  0  0  0
  -24.4536  -31.6394   -2.9735 H   0  0  0  0  0  0  0  0  0  0  0  0
  -18.3663  -29.6343   -2.6854 H   0  0  0  0  0  0  0  0  0  0  0  0
  -20.2189  -29.7367   -0.6109 C   0  0  0  0  0  0  0  0  0  0  0  0
  -20.7295  -29.0737    0.5448 O   0  0  0  0  0  0  0  0  0  0  0  0
  -20.8073  -28.1237    0.3646 H   0  0  0  0  0  0  0  0  0  0  0  0
  9  1  1  0  0  0
 10  5  1  0  0  0
  1  5  1  0  0  0
  1  2  1  0  0  0
  5  7  1  0  0  0
 17  2  1  0  0  0
 17 18  1  0  0  0
  2  3  1  0  0  0
  7  8  1  0  0  0
  7  6  1  0  0  0
  3  6  2  0  0  0
  3 12  1  0  0  0
  6 11  1  0  0  0
 12  4  1  0  0  0
 11  4  2  0  0  0
  8 13  1  0  0  0
  9 14  1  0  0  0
 10 15  1  0  0  0
 18 19  1  0  0  0
 12 16  1  0  0  0
M  END
> <minimizedAffinity>
-5.88124

$$$$
5OSS_AEZ_B_505


 19 20  0  0  0  0  0  0  0  0999 V2000
  -20.2995  -29.8203   -3.2718 C   0  0  0  0  0  0  0  0  0  0  0  0
  -20.9278  -30.3498   -2.0029 C   0  0  0  0  0  0  0  0  0  0  0  0
  -22.3759  -30.3548   -2.2445 C   0  0  0  0  0  0  0  0  0  0  0  0
  -24.5870  -30.2884   -2.0980 C   0  0  0  0  0  0  0  0  0  0  0  0
  -20.7498  -30.7289   -4.4285 C   0  0  0  0  0  0  0  0  0  0  0  0
  -22.9766  -30.4766   -3.5920 C   0  0  0  0  0  0  0  0  0  0  0  0
  -22.2213  -30.6155   -4.8304 C   0  0  0  0  0  0  0  0  0  0  0  0
  -22.6856  -31.7394   -5.6039 O   0  0  0  0  0  0  0  0  0  0  0  0
  -18.8676  -29.8311   -3.1661 O   0  0  0  0  0  0  0  0  0  0  0  0
  -19.9680  -30.5525   -5.5969 O   0  0  0  0  0  0  0  0  0  0  0  0
  -24.2935  -30.4311   -3.4035 N   0  0  0  0  0  0  0  0  0  0  0  0
  -23.4114  -30.2175   -1.3942 N   0  0  0  0  0  0  0  0  0  0  0  0
  -22.5928  -32.5517   -5.0818 H   0  0  0  0  0  0  0  0  0  0  0  0
  -18.5618  -30.7383   -3.0098 H   0  0  0  0  0  0  0  0  0  0  0  0
  -20.1161  -29.6628   -5.9537 H   0  0  0  0  0  0  0  0  0  0  0  0
  -23.3365  -30.0869   -0.4213 H   0  0  0  0  0  0  0  0  0  0  0  0
  -20.6230  -29.5754   -0.7701 C   0  0  0  0  0  0  0  0  0  0  0  0
  -19.3115  -29.8411   -0.2748 O   0  0  0  0  0  0  0  0  0  0  0  0
  -19.2369  -30.7805   -0.0448 H   0  0  0  0  0  0  0  0  0  0  0  0
  9  1  1  0  0  0
 10  5  1  0  0  0
  1  5  1  0  0  0
  1  2  1  0  0  0
  5  7  1  0  0  0
 17  2  1  0  0  0
 17 18  1  0  0  0
  2  3  1  0  0  0
  7  8  1  0  0  0
  7  6  1  0  0  0
  3  6  2  0  0  0
  3 12  1  0  0  0
  6 11  1  0  0  0
 12  4  1  0  0  0
 11  4  2  0  0  0
  8 13  1  0  0  0
  9 14  1  0  0  0
 10 15  1  0  0  0
 18 19  1  0  0  0
 12 16  1  0  0  0
M  END
> <minimizedAffinity>
-5.86126

$$$$
5OSS_AEZ_B_505


 19 20  0  0  0  0  0  0  0  0999 V2000
  -23.0090  -31.3834   -3.2626 C   0  0  0  0  0  0  0  0  0  0  0  0
  -22.3729  -31.2732   -4.6296 C   0  0  0  0  0  0  0  0  0  0  0  0
  -21.6140  -30.0165   -4.6183 C   0  0  0  0  0  0  0  0  0  0  0  0
  -20.5731  -28.1213   -5.1078 C   0  0  0  0  0  0  0  0  0  0  0  0
  -21.8807  -31.3293   -2.2185 C   0  0  0  0  0  0  0  0  0  0  0  0
  -21.0644  -29.4076   -3.3860 C   0  0  0  0  0  0  0  0  0  0  0  0
  -21.1945  -29.9727   -2.0492 C   0  0  0  0  0  0  0  0  0  0  0  0
  -19.9151  -30.0632   -1.3918 O   0  0  0  0  0  0  0  0  0  0  0  0
  -23.7319  -32.6182   -3.1428 O   0  0  0  0  0  0  0  0  0  0  0  0
  -22.3020  -31.7633   -0.9372 O   0  0  0  0  0  0  0  0  0  0  0  0
  -20.4603  -28.2880   -3.7773 N   0  0  0  0  0  0  0  0  0  0  0  0
  -21.3003  -29.1678   -5.6160 N   0  0  0  0  0  0  0  0  0  0  0  0
  -19.3206  -30.6216   -1.9168 H   0  0  0  0  0  0  0  0  0  0  0  0
  -23.1245  -33.3627   -3.2761 H   0  0  0  0  0  0  0  0  0  0  0  0
  -22.9525  -31.1378   -0.5817 H   0  0  0  0  0  0  0  0  0  0  0  0
  -21.5529  -29.2806   -6.5609 H   0  0  0  0  0  0  0  0  0  0  0  0
  -23.3208  -31.2817   -5.7758 C   0  0  0  0  0  0  0  0  0  0  0  0
  -24.2190  -30.1735   -5.7431 O   0  0  0  0  0  0  0  0  0  0  0  0
  -24.7526  -30.2135   -4.9341 H   0  0  0  0  0  0  0  0  0  0  0  0
  9  1  1  0  0  0
 10  5  1  0  0  0
  1  5  1  0  0  0
  1  2  1  0  0  0
  5  7  1  0  0  0
 17  2  1  0  0  0
 17 18  1  0  0  0
  2  3  1  0  0  0
  7  8  1  0  0  0
  7  6  1  0  0  0
  3  6  2  0  0  0
  3 12  1  0  0  0
  6 11  1  0  0  0
 12  4  1  0  0  0
 11  4  2  0  0  0
  8 13  1  0  0  0
  9 14  1  0  0  0
 10 15  1  0  0  0
 18 19  1  0  0  0
 12 16  1  0  0  0
M  END
> <minimizedAffinity>
-5.80137

$$$$
