3AO5_BBY_A_213


 19 21  0  0  0  0  0  0  0  0999 V2000
   15.9523  -10.2409   -7.1705 C   0  0  0  0  0  0  0  0  0  0  0  0
   14.7934   -9.5306   -6.8020 C   0  0  0  0  0  0  0  0  0  0  0  0
   14.3499   -8.3919   -7.4954 C   0  0  0  0  0  0  0  0  0  0  0  0
   15.0421   -7.8787   -8.5881 C   0  0  0  0  0  0  0  0  0  0  0  0
   16.2578   -8.6063   -8.9967 C   0  0  0  0  0  0  0  0  0  0  0  0
   16.6783   -9.7822   -8.2597 C   0  0  0  0  0  0  0  0  0  0  0  0
   17.8274  -10.2373   -8.8409 O   0  0  0  0  0  0  0  0  0  0  0  0
   18.2704   -9.2600   -9.8121 C   0  0  0  0  0  0  0  0  0  0  0  0
   17.1491   -8.3753   -9.9997 O   0  0  0  0  0  0  0  0  0  0  0  0
   14.4511   -6.3503   -9.5150 Br  0  0  0  0  0  0  0  0  0  0  0  0
   13.9910  -10.0151   -5.6438 C   0  0  0  0  0  0  0  0  0  0  0  0
   12.6689   -9.8310   -5.4437 N   0  0  0  0  0  0  0  0  0  0  0  0
   12.2259  -10.4259   -4.2552 N   0  0  0  0  0  0  0  0  0  0  0  0
   13.3591  -10.9709   -3.7842 C   0  0  0  0  0  0  0  0  0  0  0  0
   14.4743  -10.7658   -4.5745 C   0  0  0  0  0  0  0  0  0  0  0  0
   11.6033   -9.1303   -6.2035 C   0  0  0  0  0  0  0  0  0  0  0  0
   13.4040  -11.6667   -2.6211 N   0  0  0  0  0  0  0  0  0  0  0  0
   12.5849  -11.7890   -2.0887 H   0  0  0  0  0  0  0  0  0  0  0  0
   14.2557  -12.0494   -2.3091 H   0  0  0  0  0  0  0  0  0  0  0  0
  1  2  2  0  0  0
  1  6  1  0  0  0
  2  3  1  0  0  0
  2 11  1  0  0  0
  3  4  2  0  0  0
  4  5  1  0  0  0
  4 10  1  0  0  0
  5  6  2  0  0  0
  5  9  1  0  0  0
  6  7  1  0  0  0
  7  8  1  0  0  0
  8  9  1  0  0  0
 11 12  1  0  0  0
 11 15  2  0  0  0
 12 13  1  0  0  0
 12 16  1  0  0  0
 13 14  2  0  0  0
 14 15  1  0  0  0
 14 17  1  0  0  0
 17 18  1  0  0  0
 17 19  1  0  0  0
M  END
> <minimizedAffinity>
-7.80126

$$$$
3AO5_BBY_A_213


 19 21  0  0  0  0  0  0  0  0999 V2000
   15.1204  -10.0361   -6.3832 C   0  0  0  0  0  0  0  0  0  0  0  0
   14.3611   -9.2794   -7.2966 C   0  0  0  0  0  0  0  0  0  0  0  0
   13.0130   -8.9522   -7.0736 C   0  0  0  0  0  0  0  0  0  0  0  0
   12.3315   -9.3730   -5.9356 C   0  0  0  0  0  0  0  0  0  0  0  0
   13.1050  -10.1644   -4.9612 C   0  0  0  0  0  0  0  0  0  0  0  0
   14.4968  -10.4746   -5.2245 C   0  0  0  0  0  0  0  0  0  0  0  0
   14.9527  -11.2218   -4.1760 O   0  0  0  0  0  0  0  0  0  0  0  0
   13.8265  -11.5742   -3.3379 C   0  0  0  0  0  0  0  0  0  0  0  0
   12.7489  -10.7218   -3.7712 O   0  0  0  0  0  0  0  0  0  0  0  0
   10.5238   -8.9391   -5.6380 Br  0  0  0  0  0  0  0  0  0  0  0  0
   15.0160   -8.7861   -8.5409 C   0  0  0  0  0  0  0  0  0  0  0  0
   14.9005   -7.5542   -9.0804 N   0  0  0  0  0  0  0  0  0  0  0  0
   15.6574   -7.4167  -10.2513 N   0  0  0  0  0  0  0  0  0  0  0  0
   16.2231   -8.6301  -10.3546 C   0  0  0  0  0  0  0  0  0  0  0  0
   15.8830   -9.5167   -9.3503 C   0  0  0  0  0  0  0  0  0  0  0  0
   14.1411   -6.3355   -8.7040 C   0  0  0  0  0  0  0  0  0  0  0  0
   17.0615   -8.9589  -11.3684 N   0  0  0  0  0  0  0  0  0  0  0  0
   17.2770   -8.2960  -12.0636 H   0  0  0  0  0  0  0  0  0  0  0  0
   17.4546   -9.8606  -11.4092 H   0  0  0  0  0  0  0  0  0  0  0  0
  1  2  2  0  0  0
  1  6  1  0  0  0
  2  3  1  0  0  0
  2 11  1  0  0  0
  3  4  2  0  0  0
  4  5  1  0  0  0
  4 10  1  0  0  0
  5  6  2  0  0  0
  5  9  1  0  0  0
  6  7  1  0  0  0
  7  8  1  0  0  0
  8  9  1  0  0  0
 11 12  1  0  0  0
 11 15  2  0  0  0
 12 13  1  0  0  0
 12 16  1  0  0  0
 13 14  2  0  0  0
 14 15  1  0  0  0
 14 17  1  0  0  0
 17 18  1  0  0  0
 17 19  1  0  0  0
M  END
> <minimizedAffinity>
-7.60128

$$$$
3AO5_BBY_A_213


 19 21  0  0  0  0  0  0  0  0999 V2000
   13.5302   -8.6204   -7.4386 C   0  0  0  0  0  0  0  0  0  0  0  0
   14.7371   -9.3250   -7.2647 C   0  0  0  0  0  0  0  0  0  0  0  0
   14.9573  -10.1963   -6.1846 C   0  0  0  0  0  0  0  0  0  0  0  0
   13.9963  -10.4069   -5.2005 C   0  0  0  0  0  0  0  0  0  0  0  0
   12.7216   -9.6833   -5.3609 C   0  0  0  0  0  0  0  0  0  0  0  0
   12.5303   -8.7989   -6.4939 C   0  0  0  0  0  0  0  0  0  0  0  0
   11.2813   -8.2577   -6.3816 O   0  0  0  0  0  0  0  0  0  0  0  0
   10.7386   -8.6170   -5.0889 C   0  0  0  0  0  0  0  0  0  0  0  0
   11.5971   -9.6626   -4.5935 O   0  0  0  0  0  0  0  0  0  0  0  0
   14.2921  -11.5706   -3.7503 Br  0  0  0  0  0  0  0  0  0  0  0  0
   15.8188   -9.1587   -8.2760 C   0  0  0  0  0  0  0  0  0  0  0  0
   15.8201   -8.3091   -9.3248 N   0  0  0  0  0  0  0  0  0  0  0  0
   16.9991   -8.3984  -10.0763 N   0  0  0  0  0  0  0  0  0  0  0  0
   17.6822   -9.3371   -9.4015 C   0  0  0  0  0  0  0  0  0  0  0  0
   17.0307   -9.8453   -8.2935 C   0  0  0  0  0  0  0  0  0  0  0  0
   14.8426   -7.3217   -9.8475 C   0  0  0  0  0  0  0  0  0  0  0  0
   18.9153   -9.7544   -9.7811 N   0  0  0  0  0  0  0  0  0  0  0  0
   19.3431   -9.3652  -10.5778 H   0  0  0  0  0  0  0  0  0  0  0  0
   19.3827  -10.4467   -9.2600 H   0  0  0  0  0  0  0  0  0  0  0  0
  1  2  2  0  0  0
  1  6  1  0  0  0
  2  3  1  0  0  0
  2 11  1  0  0  0
  3  4  2  0  0  0
  4  5  1  0  0  0
  4 10  1  0  0  0
  5  6  2  0  0  0
  5  9  1  0  0  0
  6  7  1  0  0  0
  7  8  1  0  0  0
  8  9  1  0  0  0
 11 12  1  0  0  0
 11 15  2  0  0  0
 12 13  1  0  0  0
 12 16  1  0  0  0
 13 14  2  0  0  0
 14 15  1  0  0  0
 14 17  1  0  0  0
 17 18  1  0  0  0
 17 19  1  0  0  0
M  END
> <minimizedAffinity>
-7.59760

$$$$
3AO5_BBY_A_213


 19 21  0  0  0  0  0  0  0  0999 V2000
   15.6208   -9.7824   -7.4353 C   0  0  0  0  0  0  0  0  0  0  0  0
   14.3821   -9.1158   -7.5026 C   0  0  0  0  0  0  0  0  0  0  0  0
   14.0530   -8.2314   -8.5436 C   0  0  0  0  0  0  0  0  0  0  0  0
   14.9434   -7.9416   -9.5731 C   0  0  0  0  0  0  0  0  0  0  0  0
   16.2468   -8.6294   -9.5279 C   0  0  0  0  0  0  0  0  0  0  0  0
   16.5455   -9.5411   -8.4405 C   0  0  0  0  0  0  0  0  0  0  0  0
   17.8103  -10.0153   -8.6427 O   0  0  0  0  0  0  0  0  0  0  0  0
   18.4126   -9.2715   -9.7284 C   0  0  0  0  0  0  0  0  0  0  0  0
   17.3234   -8.5707  -10.3593 O   0  0  0  0  0  0  0  0  0  0  0  0
   14.5051   -6.7531  -10.9660 Br  0  0  0  0  0  0  0  0  0  0  0  0
   13.3689   -9.3721   -6.4405 C   0  0  0  0  0  0  0  0  0  0  0  0
   13.5437  -10.0981   -5.3161 N   0  0  0  0  0  0  0  0  0  0  0  0
   12.3888  -10.1320   -4.5237 N   0  0  0  0  0  0  0  0  0  0  0  0
   11.5412   -9.3803   -5.2445 C   0  0  0  0  0  0  0  0  0  0  0  0
   12.0655   -8.8810   -6.4219 C   0  0  0  0  0  0  0  0  0  0  0  0
   14.6842  -10.8664   -4.7569 C   0  0  0  0  0  0  0  0  0  0  0  0
   10.2685   -9.1334   -4.8471 N   0  0  0  0  0  0  0  0  0  0  0  0
    9.9355   -9.5092   -4.0003 H   0  0  0  0  0  0  0  0  0  0  0  0
    9.6774   -8.5782   -5.4054 H   0  0  0  0  0  0  0  0  0  0  0  0
  1  2  2  0  0  0
  1  6  1  0  0  0
  2  3  1  0  0  0
  2 11  1  0  0  0
  3  4  2  0  0  0
  4  5  1  0  0  0
  4 10  1  0  0  0
  5  6  2  0  0  0
  5  9  1  0  0  0
  6  7  1  0  0  0
  7  8  1  0  0  0
  8  9  1  0  0  0
 11 12  1  0  0  0
 11 15  2  0  0  0
 12 13  1  0  0  0
 12 16  1  0  0  0
 13 14  2  0  0  0
 14 15  1  0  0  0
 14 17  1  0  0  0
 17 18  1  0  0  0
 17 19  1  0  0  0
M  END
> <minimizedAffinity>
-7.38396

$$$$
3AO5_BBY_A_213


 19 21  0  0  0  0  0  0  0  0999 V2000
   13.5381   -7.9574   -7.3782 C   0  0  0  0  0  0  0  0  0  0  0  0
   14.1650   -9.1237   -6.8986 C   0  0  0  0  0  0  0  0  0  0  0  0
   15.3119   -9.6694   -7.4994 C   0  0  0  0  0  0  0  0  0  0  0  0
   15.8960   -9.0982   -8.6259 C   0  0  0  0  0  0  0  0  0  0  0  0
   15.2606   -7.8736   -9.1464 C   0  0  0  0  0  0  0  0  0  0  0  0
   14.0823   -7.3373   -8.4933 C   0  0  0  0  0  0  0  0  0  0  0  0
   13.7033   -6.2239   -9.1876 O   0  0  0  0  0  0  0  0  0  0  0  0
   14.4924   -6.1458  -10.3984 C   0  0  0  0  0  0  0  0  0  0  0  0
   15.5703   -7.0830  -10.2107 O   0  0  0  0  0  0  0  0  0  0  0  0
   17.4301   -9.8313   -9.4345 Br  0  0  0  0  0  0  0  0  0  0  0  0
   13.6050   -9.7971   -5.6932 C   0  0  0  0  0  0  0  0  0  0  0  0
   12.3122   -9.8148   -5.3054 N   0  0  0  0  0  0  0  0  0  0  0  0
   12.1235  -10.5490   -4.1271 N   0  0  0  0  0  0  0  0  0  0  0  0
   13.3730  -10.9619   -3.8600 C   0  0  0  0  0  0  0  0  0  0  0  0
   14.3285  -10.5468   -4.7684 C   0  0  0  0  0  0  0  0  0  0  0  0
   11.0679   -9.2181   -5.8525 C   0  0  0  0  0  0  0  0  0  0  0  0
   13.6724  -11.7254   -2.7801 N   0  0  0  0  0  0  0  0  0  0  0  0
   12.9602  -11.9989   -2.1579 H   0  0  0  0  0  0  0  0  0  0  0  0
   14.6021  -12.0063   -2.6184 H   0  0  0  0  0  0  0  0  0  0  0  0
  1  2  2  0  0  0
  1  6  1  0  0  0
  2  3  1  0  0  0
  2 11  1  0  0  0
  3  4  2  0  0  0
  4  5  1  0  0  0
  4 10  1  0  0  0
  5  6  2  0  0  0
  5  9  1  0  0  0
  6  7  1  0  0  0
  7  8  1  0  0  0
  8  9  1  0  0  0
 11 12  1  0  0  0
 11 15  2  0  0  0
 12 13  1  0  0  0
 12 16  1  0  0  0
 13 14  2  0  0  0
 14 15  1  0  0  0
 14 17  1  0  0  0
 17 18  1  0  0  0
 17 19  1  0  0  0
M  END
> <minimizedAffinity>
-7.20674

$$$$
3AO5_BBY_A_213


 19 21  0  0  0  0  0  0  0  0999 V2000
   15.2072   -8.8511   -7.2586 C   0  0  0  0  0  0  0  0  0  0  0  0
   14.0932   -8.1935   -7.8155 C   0  0  0  0  0  0  0  0  0  0  0  0
   12.8025   -8.2949   -7.2698 C   0  0  0  0  0  0  0  0  0  0  0  0
   12.5367   -9.0715   -6.1461 C   0  0  0  0  0  0  0  0  0  0  0  0
   13.6871   -9.7681   -5.5415 C   0  0  0  0  0  0  0  0  0  0  0  0
   15.0053   -9.6318   -6.1301 C   0  0  0  0  0  0  0  0  0  0  0  0
   15.8644  -10.3869   -5.3837 O   0  0  0  0  0  0  0  0  0  0  0  0
   15.0910  -11.1722   -4.4457 C   0  0  0  0  0  0  0  0  0  0  0  0
   13.7723  -10.5923   -4.4612 O   0  0  0  0  0  0  0  0  0  0  0  0
   10.8066   -9.2118   -5.4169 Br  0  0  0  0  0  0  0  0  0  0  0  0
   14.2911   -7.3381   -9.0194 C   0  0  0  0  0  0  0  0  0  0  0  0
   14.9980   -7.6517  -10.1256 N   0  0  0  0  0  0  0  0  0  0  0  0
   14.9745   -6.6238  -11.0773 N   0  0  0  0  0  0  0  0  0  0  0  0
   14.2097   -5.7043  -10.4669 C   0  0  0  0  0  0  0  0  0  0  0  0
   13.7547   -6.0671   -9.2132 C   0  0  0  0  0  0  0  0  0  0  0  0
   15.7931   -8.8368  -10.5343 C   0  0  0  0  0  0  0  0  0  0  0  0
   13.9101   -4.5112  -11.0374 N   0  0  0  0  0  0  0  0  0  0  0  0
   14.2557   -4.2933  -11.9331 H   0  0  0  0  0  0  0  0  0  0  0  0
   13.3471   -3.8628  -10.5558 H   0  0  0  0  0  0  0  0  0  0  0  0
  1  2  2  0  0  0
  1  6  1  0  0  0
  2  3  1  0  0  0
  2 11  1  0  0  0
  3  4  2  0  0  0
  4  5  1  0  0  0
  4 10  1  0  0  0
  5  6  2  0  0  0
  5  9  1  0  0  0
  6  7  1  0  0  0
  7  8  1  0  0  0
  8  9  1  0  0  0
 11 12  1  0  0  0
 11 15  2  0  0  0
 12 13  1  0  0  0
 12 16  1  0  0  0
 13 14  2  0  0  0
 14 15  1  0  0  0
 14 17  1  0  0  0
 17 18  1  0  0  0
 17 19  1  0  0  0
M  END
> <minimizedAffinity>
-7.05768

$$$$
3AO5_BBY_A_213


 19 21  0  0  0  0  0  0  0  0999 V2000
   15.2683   -8.8856   -8.3338 C   0  0  0  0  0  0  0  0  0  0  0  0
   16.1953   -9.8486   -7.8903 C   0  0  0  0  0  0  0  0  0  0  0  0
   16.0397  -10.5509   -6.6834 C   0  0  0  0  0  0  0  0  0  0  0  0
   14.9608  -10.3256   -5.8338 C   0  0  0  0  0  0  0  0  0  0  0  0
   13.9734   -9.3240   -6.2767 C   0  0  0  0  0  0  0  0  0  0  0  0
   14.1659   -8.6259   -7.5331 C   0  0  0  0  0  0  0  0  0  0  0  0
   13.1217   -7.7580   -7.6805 O   0  0  0  0  0  0  0  0  0  0  0  0
   12.3655   -7.7338   -6.4467 C   0  0  0  0  0  0  0  0  0  0  0  0
   12.8286   -8.8720   -5.6947 O   0  0  0  0  0  0  0  0  0  0  0  0
   14.7538  -11.2628   -4.2141 Br  0  0  0  0  0  0  0  0  0  0  0  0
   17.3790  -10.1531   -8.7426 C   0  0  0  0  0  0  0  0  0  0  0  0
   17.7744  -11.3707   -9.1704 N   0  0  0  0  0  0  0  0  0  0  0  0
   18.9262  -11.3037   -9.9651 N   0  0  0  0  0  0  0  0  0  0  0  0
   19.1699   -9.9834   -9.9815 C   0  0  0  0  0  0  0  0  0  0  0  0
   18.2710   -9.2180   -9.2626 C   0  0  0  0  0  0  0  0  0  0  0  0
   17.2575  -12.7476   -8.9686 C   0  0  0  0  0  0  0  0  0  0  0  0
   20.2192   -9.4447  -10.6505 N   0  0  0  0  0  0  0  0  0  0  0  0
   20.8357  -10.0272  -11.1503 H   0  0  0  0  0  0  0  0  0  0  0  0
   20.3645   -8.4710  -10.6363 H   0  0  0  0  0  0  0  0  0  0  0  0
  1  2  2  0  0  0
  1  6  1  0  0  0
  2  3  1  0  0  0
  2 11  1  0  0  0
  3  4  2  0  0  0
  4  5  1  0  0  0
  4 10  1  0  0  0
  5  6  2  0  0  0
  5  9  1  0  0  0
  6  7  1  0  0  0
  7  8  1  0  0  0
  8  9  1  0  0  0
 11 12  1  0  0  0
 11 15  2  0  0  0
 12 13  1  0  0  0
 12 16  1  0  0  0
 13 14  2  0  0  0
 14 15  1  0  0  0
 14 17  1  0  0  0
 17 18  1  0  0  0
 17 19  1  0  0  0
M  END
> <minimizedAffinity>
-6.93240

$$$$
3AO5_BBY_A_213


 19 21  0  0  0  0  0  0  0  0999 V2000
   13.3515   -8.8241   -8.2163 C   0  0  0  0  0  0  0  0  0  0  0  0
   14.7398   -9.0358   -8.3223 C   0  0  0  0  0  0  0  0  0  0  0  0
   15.4981   -9.6200   -7.2938 C   0  0  0  0  0  0  0  0  0  0  0  0
   14.9248  -10.0136   -6.0884 C   0  0  0  0  0  0  0  0  0  0  0  0
   13.4713   -9.8058   -5.9530 C   0  0  0  0  0  0  0  0  0  0  0  0
   12.7225   -9.2066   -7.0407 C   0  0  0  0  0  0  0  0  0  0  0  0
   11.4197   -9.1219   -6.6397 O   0  0  0  0  0  0  0  0  0  0  0  0
   11.3469   -9.4661   -5.2358 C   0  0  0  0  0  0  0  0  0  0  0  0
   12.6173  -10.0710   -4.9264 O   0  0  0  0  0  0  0  0  0  0  0  0
   15.9410  -10.7921   -4.7079 Br  0  0  0  0  0  0  0  0  0  0  0  0
   15.4324   -8.6454   -9.5826 C   0  0  0  0  0  0  0  0  0  0  0  0
   16.7201   -8.8894   -9.9053 N   0  0  0  0  0  0  0  0  0  0  0  0
   17.0504   -8.3941  -11.1736 N   0  0  0  0  0  0  0  0  0  0  0  0
   15.8841   -7.8598  -11.5700 C   0  0  0  0  0  0  0  0  0  0  0  0
   14.8524   -7.9754  -10.6574 C   0  0  0  0  0  0  0  0  0  0  0  0
   17.8466   -9.5535   -9.2027 C   0  0  0  0  0  0  0  0  0  0  0  0
   15.7329   -7.2518  -12.7726 N   0  0  0  0  0  0  0  0  0  0  0  0
   16.4949   -7.1916  -13.3930 H   0  0  0  0  0  0  0  0  0  0  0  0
   14.8610   -6.8707  -13.0254 H   0  0  0  0  0  0  0  0  0  0  0  0
  1  2  2  0  0  0
  1  6  1  0  0  0
  2  3  1  0  0  0
  2 11  1  0  0  0
  3  4  2  0  0  0
  4  5  1  0  0  0
  4 10  1  0  0  0
  5  6  2  0  0  0
  5  9  1  0  0  0
  6  7  1  0  0  0
  7  8  1  0  0  0
  8  9  1  0  0  0
 11 12  1  0  0  0
 11 15  2  0  0  0
 12 13  1  0  0  0
 12 16  1  0  0  0
 13 14  2  0  0  0
 14 15  1  0  0  0
 14 17  1  0  0  0
 17 18  1  0  0  0
 17 19  1  0  0  0
M  END
> <minimizedAffinity>
-6.77238

$$$$
3AO5_BBY_A_213


 19 21  0  0  0  0  0  0  0  0999 V2000
   15.2107   -9.2004   -7.8484 C   0  0  0  0  0  0  0  0  0  0  0  0
   14.0256   -8.6825   -8.4056 C   0  0  0  0  0  0  0  0  0  0  0  0
   12.7949   -8.7090   -7.7283 C   0  0  0  0  0  0  0  0  0  0  0  0
   12.6635   -9.2689   -6.4611 C   0  0  0  0  0  0  0  0  0  0  0  0
   13.8907   -9.8156   -5.8535 C   0  0  0  0  0  0  0  0  0  0  0  0
   15.1434   -9.7621   -6.5819 C   0  0  0  0  0  0  0  0  0  0  0  0
   16.0961  -10.3463   -5.7967 O   0  0  0  0  0  0  0  0  0  0  0  0
   15.4429  -10.9603   -4.6605 C   0  0  0  0  0  0  0  0  0  0  0  0
   14.1063  -10.4226   -4.6541 O   0  0  0  0  0  0  0  0  0  0  0  0
   11.0138   -9.3092   -5.5547 Br  0  0  0  0  0  0  0  0  0  0  0  0
   14.0790   -8.0615   -9.7591 C   0  0  0  0  0  0  0  0  0  0  0  0
   13.5985   -8.5842  -10.9070 N   0  0  0  0  0  0  0  0  0  0  0  0
   13.8045   -7.7348  -12.0019 N   0  0  0  0  0  0  0  0  0  0  0  0
   14.4207   -6.6905  -11.4249 C   0  0  0  0  0  0  0  0  0  0  0  0
   14.6208   -6.8145  -10.0629 C   0  0  0  0  0  0  0  0  0  0  0  0
   12.9169   -9.8579  -11.2490 C   0  0  0  0  0  0  0  0  0  0  0  0
   14.8174   -5.6002  -12.1268 N   0  0  0  0  0  0  0  0  0  0  0  0
   14.6548   -5.5532  -13.0966 H   0  0  0  0  0  0  0  0  0  0  0  0
   15.2679   -4.8557  -11.6665 H   0  0  0  0  0  0  0  0  0  0  0  0
  1  2  2  0  0  0
  1  6  1  0  0  0
  2  3  1  0  0  0
  2 11  1  0  0  0
  3  4  2  0  0  0
  4  5  1  0  0  0
  4 10  1  0  0  0
  5  6  2  0  0  0
  5  9  1  0  0  0
  6  7  1  0  0  0
  7  8  1  0  0  0
  8  9  1  0  0  0
 11 12  1  0  0  0
 11 15  2  0  0  0
 12 13  1  0  0  0
 12 16  1  0  0  0
 13 14  2  0  0  0
 14 15  1  0  0  0
 14 17  1  0  0  0
 17 18  1  0  0  0
 17 19  1  0  0  0
M  END
> <minimizedAffinity>
-6.70704

$$$$
3AO5_BBY_A_213


 19 21  0  0  0  0  0  0  0  0999 V2000
   14.0410   -8.0653   -8.9290 C   0  0  0  0  0  0  0  0  0  0  0  0
   14.4915   -9.0439   -8.0219 C   0  0  0  0  0  0  0  0  0  0  0  0
   15.7084   -9.7267   -8.1862 C   0  0  0  0  0  0  0  0  0  0  0  0
   16.5445   -9.4907   -9.2733 C   0  0  0  0  0  0  0  0  0  0  0  0
   16.0974   -8.4678  -10.2366 C   0  0  0  0  0  0  0  0  0  0  0  0
   14.8383   -7.7795  -10.0274 C   0  0  0  0  0  0  0  0  0  0  0  0
   14.6722   -6.9100  -11.0675 O   0  0  0  0  0  0  0  0  0  0  0  0
   15.7002   -7.1691  -12.0527 C   0  0  0  0  0  0  0  0  0  0  0  0
   16.6641   -8.0062  -11.3852 O   0  0  0  0  0  0  0  0  0  0  0  0
   18.1731  -10.4085   -9.4968 Br  0  0  0  0  0  0  0  0  0  0  0  0
   13.6569   -9.3556   -6.8275 C   0  0  0  0  0  0  0  0  0  0  0  0
   14.0664   -9.9580   -5.6911 N   0  0  0  0  0  0  0  0  0  0  0  0
   13.0284  -10.0916   -4.7597 N   0  0  0  0  0  0  0  0  0  0  0  0
   12.0007   -9.5266   -5.4138 C   0  0  0  0  0  0  0  0  0  0  0  0
   12.3055   -9.0534   -6.6761 C   0  0  0  0  0  0  0  0  0  0  0  0
   15.3656  -10.5108   -5.2328 C   0  0  0  0  0  0  0  0  0  0  0  0
   10.7595   -9.4310   -4.8761 N   0  0  0  0  0  0  0  0  0  0  0  0
   10.5861   -9.7817   -3.9727 H   0  0  0  0  0  0  0  0  0  0  0  0
   10.0318   -9.0110   -5.3892 H   0  0  0  0  0  0  0  0  0  0  0  0
  1  2  2  0  0  0
  1  6  1  0  0  0
  2  3  1  0  0  0
  2 11  1  0  0  0
  3  4  2  0  0  0
  4  5  1  0  0  0
  4 10  1  0  0  0
  5  6  2  0  0  0
  5  9  1  0  0  0
  6  7  1  0  0  0
  7  8  1  0  0  0
  8  9  1  0  0  0
 11 12  1  0  0  0
 11 15  2  0  0  0
 12 13  1  0  0  0
 12 16  1  0  0  0
 13 14  2  0  0  0
 14 15  1  0  0  0
 14 17  1  0  0  0
 17 18  1  0  0  0
 17 19  1  0  0  0
M  END
> <minimizedAffinity>
-6.69309

$$$$
