4XTV_44K_A_301
  RCSB PDB12061716173D
Coordinates from PDB:4XTV:A:301 Model:1 without hydrogens
 36 40  0  0  0  0            999 V2000
   -2.2535   -9.9730   13.7988   C 0  0  0  0  0  0  0  0  0  0  0  0
   -1.0424   -9.2324   13.5260   N 0  0  0  0  0  0  0  0  0  0  0  0
   -0.1130   -9.4507   14.4523   C 0  0  0  0  0  0  0  0  0  0  0  0
    0.9672   -8.8744   14.5177   O 0  0  0  0  0  0  0  0  0  0  0  0
   -0.5234  -10.3763   15.3120   N 0  0  0  0  0  0  0  0  0  0  0  0
   -1.9266  -10.6591   15.1218   C 0  0  0  0  0  0  0  0  0  0  0  0
   -2.6691  -10.0259   16.2820   C 0  0  0  0  0  0  0  0  0  0  0  0
   -3.4204   -8.5766   15.6416   S 0  0  0  0  0  0  0  0  0  0  0  0
   -3.4476   -9.0415   13.9420   C 0  0  0  0  0  0  0  0  0  0  0  0
   -3.3736   -7.8743   12.9642   C 0  0  0  0  0  0  0  0  0  0  0  0
   -3.6932   -8.3459   11.5465   C 0  0  0  0  0  0  0  0  0  0  0  0
   -4.0037   -7.1766   10.6133   C 0  0  0  0  0  0  0  0  0  0  0  0
   -4.1373   -7.6197    9.1587   C 0  0  0  0  0  0  0  0  0  0  0  0
   -4.5296   -6.4403    8.2985   C 0  0  0  0  0  0  0  0  0  0  0  0
   -5.6260   -5.9205    8.4468   O 0  0  0  0  0  0  0  0  0  0  0  0
   -3.6373   -6.0301    7.3913   N 0  0  0  0  0  0  0  0  0  0  0  0
   -4.0322   -4.9916    6.2308   S 0  0  0  0  0  0  0  0  0  0  0  0
   -5.2381   -5.4110    5.5763   O 0  0  0  0  0  0  0  0  0  0  0  0
   -2.9549   -4.9106    5.2721   O 0  0  0  0  0  0  0  0  0  0  0  0
   -4.2873   -3.5348    6.8417   N 0  0  0  0  0  0  0  0  0  0  0  0
   -3.3226   -2.8686    7.6965   C 0  0  0  0  0  0  0  0  0  0  0  0
   -3.6588   -1.3806    7.6997   C 0  0  0  0  0  0  0  0  0  0  0  0
   -4.8607   -1.1274    8.6036   C 0  0  0  0  0  0  0  0  0  0  0  0
   -2.5294   -0.5193    8.2490   C 0  0  0  0  0  0  0  0  0  0  0  0
   -3.1579    0.5518    9.1301   C 0  0  0  0  0  0  0  0  0  0  0  0
   -4.5926    0.1338    9.4176   C 0  0  0  0  0  0  0  0  0  0  0  0
   -4.7105   -0.1668   10.8655   N 0  0  0  0  0  0  0  0  0  0  0  0
   -3.6924   -0.2368   11.7326   C 0  0  0  0  0  0  0  0  0  0  0  0
   -4.1683   -0.5341   12.9591   N 0  0  0  0  0  0  0  0  0  0  0  0
   -5.5064   -0.6517   12.8520   C 0  0  0  0  0  0  0  0  0  0  0  0
   -5.8383   -0.4239   11.5267   C 0  0  0  0  0  0  0  0  0  0  0  0
   -7.1297   -0.4798   11.1344   N 0  0  0  0  0  0  0  0  0  0  0  0
   -8.0775   -0.7700   12.0357   C 0  0  0  0  0  0  0  0  0  0  0  0
   -7.7820   -0.9944   13.3243   N 0  0  0  0  0  0  0  0  0  0  0  0
   -6.5086   -0.9469   13.7636   C 0  0  0  0  0  0  0  0  0  0  0  0
   -6.2175   -1.1766   15.0694   N 0  0  0  0  0  0  0  0  0  0  0  0
  7  8  1  0  0  0  0
  7  6  1  0  0  0  0
  8  9  1  0  0  0  0
  5  6  1  0  0  0  0
  5  3  1  0  0  0  0
 36 35  1  0  0  0  0
  6  1  1  0  0  0  0
  4  3  2  0  0  0  0
  3  2  1  0  0  0  0
  9  1  1  0  0  0  0
  9 10  1  0  0  0  0
 35 34  2  0  0  0  0
 35 30  1  0  0  0  0
  1  2  1  0  0  0  0
 34 33  1  0  0  0  0
 10 11  1  0  0  0  0
 29 30  1  0  0  0  0
 29 28  2  0  0  0  0
 30 31  2  0  0  0  0
 33 32  2  0  0  0  0
 28 27  1  0  0  0  0
 11 12  1  0  0  0  0
 31 32  1  0  0  0  0
 31 27  1  0  0  0  0
 27 26  1  0  0  0  0
 12 13  1  0  0  0  0
 26 25  1  0  0  0  0
 26 23  1  0  0  0  0
 13 14  1  0  0  0  0
 25 24  1  0  0  0  0
 23 22  1  0  0  0  0
 15 14  2  0  0  0  0
 24 22  1  0  0  0  0
 14 16  1  0  0  0  0
 22 21  1  0  0  0  0
 21 20  1  0  0  0  0
 16 17  1  0  0  0  0
 20 17  1  0  0  0  0
 17 18  2  0  0  0  0
 17 19  2  0  0  0  0
A    1
CBI
A    2
NAU
A    3
CBA
A    4
OAC
A    5
NAT
A    6
CBF
A    7
CAO
A    8
SAY
A    9
CBH
A   10
CAK
A   11
CAI
A   12
CAH
A   13
CAJ
A   14
CAZ
A   15
OAB
A   16
NAV
A   17
SBK
A   18
OAD
A   19
OAE
A   20
NAW
A   21
CAN
A   22
CBE
A   23
CAX
A   24
CAL
A   25
CAM
A   26
CBG
A   27
N9
A   28
C8
A   29
N7
A   30
C5
A   31
C4
A   32
N3
A   33
C2
A   34
N1
A   35
C6
A   36
N6
M  END
>  <InstanceId>
4XTV_44K_A_301

>  <ChemCompId>
44K

>  <PdbId>
4XTV

>  <ChainId>
A

>  <ResidueNumber>
301

>  <InsertionCode>


>  <Model>
1

>  <AltIds>


>  <MissingHeavyAtoms>
0

>  <ObservedFormula>
C21 N9 O4 S2

>  <Name>
N-({[(1R,3S)-3-(6-amino-9H-purin-9-yl)cyclopentyl]methyl}sulfamoyl)-5-[(3aS,4S,6aR)-2-oxohexahydro-1H-thieno[3,4-d]imidazol-4-yl]pentanamide

>  <SystematicName>
5-[(3aS,4S,6aR)-2-oxidanylidene-1,3,3a,4,6,6a-hexahydrothieno[3,4-d]imidazol-4-yl]-N-[[(1R,3S)-3-(6-aminopurin-9-yl)cyclopentyl]methylsulfamoyl]pentanamide

>  <Synonyms>


>  <Type>
NON-POLYMER

>  <Formula>
C21 H31 N9 O4 S2

>  <MolecularWeight>
537.659

>  <ModifiedDate>
2015-08-28

>  <Parent>


>  <OneLetterCode>


>  <SubcomponentList>


>  <AmbiguousFlag>
N

>  <InChI>
InChI=1S/C21H31N9O4S2/c22-19-18-20(24-10-23-19)30(11-25-18)13-6-5-12(7-13)8-26-36(33,34)29-16(31)4-2-1-3-15-17-14(9-35-15)27-21(32)28-17/h10-15,17,26H,1-9H2,(H,29,31)(H2,22,23,24)(H2,27,28,32)/t12-,13+,14+,15+,17+/m1/s1

>  <InChIKey>
WZGWWAMUOOWNHU-MDLJMBGESA-N

>  <SMILES>
c1nc(c2c(n1)n(cn2)[C@H]3CC[C@H](C3)CNS(=O)(=O)NC(=O)CCCC[C@H]4[C@@H]5[C@H](CS4)NC(=O)N5)N

$$$$
