3L4W_MIG_A_1001


 19 19  0  0  0  0  0  0  0  0999 V2000
   48.1123   92.7989   33.6910 O   0  0  0  0  0  0  0  0  0  0  0  0
   47.0654   94.2695   36.0502 O   0  0  0  0  0  0  0  0  0  0  0  0
   44.8348   93.1945   37.2353 O   0  0  0  0  0  0  0  0  0  0  0  0
   46.0709   91.4974   33.5837 C   0  0  0  0  0  0  0  0  0  0  0  0
   46.7367   92.8095   34.0587 C   0  0  0  0  0  0  0  0  0  0  0  0
   46.5155   93.0238   35.5615 C   0  0  0  0  0  0  0  0  0  0  0  0
   44.9990   93.0318   35.8393 C   0  0  0  0  0  0  0  0  0  0  0  0
   44.3376   91.7366   35.3140 C   0  0  0  0  0  0  0  0  0  0  0  0
   44.6476   91.6206   33.8544 N   0  0  0  0  0  0  0  0  0  0  0  0
   48.1902   92.6605   32.7341 H   0  0  0  0  0  0  0  0  0  0  0  0
   48.0212   94.2875   35.8860 H   0  0  0  0  0  0  0  0  0  0  0  0
   45.2643   94.0171   37.5177 H   0  0  0  0  0  0  0  0  0  0  0  0
   42.3636   93.1498   35.4234 O   0  0  0  0  0  0  0  0  0  0  0  0
   42.8154   91.7708   35.4913 C   0  0  0  0  0  0  0  0  0  0  0  0
   41.4005   93.1803   35.5349 H   0  0  0  0  0  0  0  0  0  0  0  0
   43.8476   90.6107   33.1257 C   0  0  0  0  0  0  0  0  0  0  0  0
   44.5668   88.6847   31.9680 O   0  0  0  0  0  0  0  0  0  0  0  0
   44.3811   89.1853   33.2887 C   0  0  0  0  0  0  0  0  0  0  0  0
   44.9065   87.7771   32.0111 H   0  0  0  0  0  0  0  0  0  0  0  0
 17 18  1  0  0  0
 13 14  1  0  0  0
  1  5  1  0  0  0
  2  6  1  0  0  0
  3  7  1  0  0  0
 18 16  1  0  0  0
 14  8  1  0  0  0
 16  9  1  0  0  0
  4  5  1  0  0  0
  4  9  1  0  0  0
  5  6  1  0  0  0
  6  7  1  0  0  0
  7  8  1  0  0  0
  8  9  1  0  0  0
 17 19  1  0  0  0
 13 15  1  0  0  0
  1 10  1  0  0  0
  2 11  1  0  0  0
  3 12  1  0  0  0
M  END
> <minimizedAffinity>
-6.47041

$$$$
3L4W_MIG_A_1001


 19 19  0  0  0  0  0  0  0  0999 V2000
   47.1946   91.9954   32.1027 O   0  0  0  0  0  0  0  0  0  0  0  0
   48.2338   93.7108   34.2940 O   0  0  0  0  0  0  0  0  0  0  0  0
   47.0453   93.3697   36.7449 O   0  0  0  0  0  0  0  0  0  0  0  0
   45.2903   91.3836   33.4710 C   0  0  0  0  0  0  0  0  0  0  0  0
   46.3994   92.4269   33.2023 C   0  0  0  0  0  0  0  0  0  0  0  0
   47.2188   92.6952   34.4710 C   0  0  0  0  0  0  0  0  0  0  0  0
   46.2621   93.1677   35.5838 C   0  0  0  0  0  0  0  0  0  0  0  0
   45.1292   92.1392   35.8073 C   0  0  0  0  0  0  0  0  0  0  0  0
   44.4266   91.9371   34.5014 N   0  0  0  0  0  0  0  0  0  0  0  0
   46.6254   91.8420   31.3325 H   0  0  0  0  0  0  0  0  0  0  0  0
   48.8492   93.4349   33.5968 H   0  0  0  0  0  0  0  0  0  0  0  0
   47.7401   94.0200   36.5571 H   0  0  0  0  0  0  0  0  0  0  0  0
   43.6720   93.9706   36.4621 O   0  0  0  0  0  0  0  0  0  0  0  0
   44.1122   92.6386   36.8398 C   0  0  0  0  0  0  0  0  0  0  0  0
   43.0276   94.2942   37.1110 H   0  0  0  0  0  0  0  0  0  0  0  0
   43.1332   91.2233   34.5936 C   0  0  0  0  0  0  0  0  0  0  0  0
   42.0465   89.1822   34.1241 O   0  0  0  0  0  0  0  0  0  0  0  0
   43.2836   89.7000   34.6046 C   0  0  0  0  0  0  0  0  0  0  0  0
   42.0855   88.2131   34.1097 H   0  0  0  0  0  0  0  0  0  0  0  0
 17 18  1  0  0  0
 13 14  1  0  0  0
  1  5  1  0  0  0
  2  6  1  0  0  0
  3  7  1  0  0  0
 18 16  1  0  0  0
 14  8  1  0  0  0
 16  9  1  0  0  0
  4  5  1  0  0  0
  4  9  1  0  0  0
  5  6  1  0  0  0
  6  7  1  0  0  0
  7  8  1  0  0  0
  8  9  1  0  0  0
 17 19  1  0  0  0
 13 15  1  0  0  0
  1 10  1  0  0  0
  2 11  1  0  0  0
  3 12  1  0  0  0
M  END
> <minimizedAffinity>
-6.44272

$$$$
3L4W_MIG_A_1001


 19 19  0  0  0  0  0  0  0  0999 V2000
   47.4449   93.7582   36.8503 O   0  0  0  0  0  0  0  0  0  0  0  0
   48.5230   92.9693   34.1969 O   0  0  0  0  0  0  0  0  0  0  0  0
   46.6613   92.2057   32.3296 O   0  0  0  0  0  0  0  0  0  0  0  0
   45.2881   92.8217   36.2637 C   0  0  0  0  0  0  0  0  0  0  0  0
   46.8115   92.8077   35.9999 C   0  0  0  0  0  0  0  0  0  0  0  0
   47.1126   93.0337   34.5128 C   0  0  0  0  0  0  0  0  0  0  0  0
   46.3915   91.9445   33.6939 C   0  0  0  0  0  0  0  0  0  0  0  0
   44.8769   91.9359   34.0050 C   0  0  0  0  0  0  0  0  0  0  0  0
   44.7109   91.7417   35.4797 N   0  0  0  0  0  0  0  0  0  0  0  0
   47.2195   93.5663   37.7740 H   0  0  0  0  0  0  0  0  0  0  0  0
   48.9986   93.6473   34.7018 H   0  0  0  0  0  0  0  0  0  0  0  0
   47.6202   92.2011   32.1830 H   0  0  0  0  0  0  0  0  0  0  0  0
   45.1309   89.7699   32.9327 O   0  0  0  0  0  0  0  0  0  0  0  0
   44.1596   90.7942   33.2758 C   0  0  0  0  0  0  0  0  0  0  0  0
   44.6848   89.0431   32.4705 H   0  0  0  0  0  0  0  0  0  0  0  0
   43.3362   91.4053   35.9132 C   0  0  0  0  0  0  0  0  0  0  0  0
   42.0041   93.2387   35.2562 O   0  0  0  0  0  0  0  0  0  0  0  0
   42.5482   92.6171   36.4168 C   0  0  0  0  0  0  0  0  0  0  0  0
   41.4906   94.0189   35.5180 H   0  0  0  0  0  0  0  0  0  0  0  0
 17 18  1  0  0  0
 13 14  1  0  0  0
  1  5  1  0  0  0
  2  6  1  0  0  0
  3  7  1  0  0  0
 18 16  1  0  0  0
 14  8  1  0  0  0
 16  9  1  0  0  0
  4  5  1  0  0  0
  4  9  1  0  0  0
  5  6  1  0  0  0
  6  7  1  0  0  0
  7  8  1  0  0  0
  8  9  1  0  0  0
 17 19  1  0  0  0
 13 15  1  0  0  0
  1 10  1  0  0  0
  2 11  1  0  0  0
  3 12  1  0  0  0
M  END
> <minimizedAffinity>
-5.73700

$$$$
3L4W_MIG_A_1001


 19 19  0  0  0  0  0  0  0  0999 V2000
   42.5282   86.7856   35.5143 O   0  0  0  0  0  0  0  0  0  0  0  0
   43.0105   86.9565   32.5880 O   0  0  0  0  0  0  0  0  0  0  0  0
   44.8336   88.8454   31.7856 O   0  0  0  0  0  0  0  0  0  0  0  0
   43.6862   88.8896   35.8382 C   0  0  0  0  0  0  0  0  0  0  0  0
   42.9066   87.9885   34.8529 C   0  0  0  0  0  0  0  0  0  0  0  0
   43.7176   87.7445   33.5739 C   0  0  0  0  0  0  0  0  0  0  0  0
   44.0569   89.1078   32.9389 C   0  0  0  0  0  0  0  0  0  0  0  0
   44.7913   90.0174   33.9509 C   0  0  0  0  0  0  0  0  0  0  0  0
   43.9223   90.1548   35.1617 N   0  0  0  0  0  0  0  0  0  0  0  0
   42.0203   87.0012   36.3121 H   0  0  0  0  0  0  0  0  0  0  0  0
   42.7859   86.0918   32.9659 H   0  0  0  0  0  0  0  0  0  0  0  0
   44.3337   88.2734   31.1824 H   0  0  0  0  0  0  0  0  0  0  0  0
   46.3738   91.4404   32.7774 O   0  0  0  0  0  0  0  0  0  0  0  0
   45.0476   91.4126   33.3699 C   0  0  0  0  0  0  0  0  0  0  0  0
   46.5441   92.3206   32.4071 H   0  0  0  0  0  0  0  0  0  0  0  0
   44.3249   91.2269   36.0994 C   0  0  0  0  0  0  0  0  0  0  0  0
   43.7934   93.2574   37.1772 O   0  0  0  0  0  0  0  0  0  0  0  0
   43.2025   92.2252   36.3933 C   0  0  0  0  0  0  0  0  0  0  0  0
   43.1222   93.9231   37.3943 H   0  0  0  0  0  0  0  0  0  0  0  0
 17 18  1  0  0  0
 13 14  1  0  0  0
  1  5  1  0  0  0
  2  6  1  0  0  0
  3  7  1  0  0  0
 18 16  1  0  0  0
 14  8  1  0  0  0
 16  9  1  0  0  0
  4  5  1  0  0  0
  4  9  1  0  0  0
  5  6  1  0  0  0
  6  7  1  0  0  0
  7  8  1  0  0  0
  8  9  1  0  0  0
 17 19  1  0  0  0
 13 15  1  0  0  0
  1 10  1  0  0  0
  2 11  1  0  0  0
  3 12  1  0  0  0
M  END
> <minimizedAffinity>
-5.48663

$$$$
3L4W_MIG_A_1001


 19 19  0  0  0  0  0  0  0  0999 V2000
   44.5929   93.2366   37.0468 O   0  0  0  0  0  0  0  0  0  0  0  0
   46.7158   93.3573   34.9723 O   0  0  0  0  0  0  0  0  0  0  0  0
   46.3741   91.6951   32.8145 O   0  0  0  0  0  0  0  0  0  0  0  0
   43.7162   91.2110   36.0462 C   0  0  0  0  0  0  0  0  0  0  0  0
   44.9475   92.1289   36.2252 C   0  0  0  0  0  0  0  0  0  0  0  0
   45.5228   92.5458   34.8656 C   0  0  0  0  0  0  0  0  0  0  0  0
   45.8823   91.2735   34.0726 C   0  0  0  0  0  0  0  0  0  0  0  0
   44.6554   90.3411   33.9446 C   0  0  0  0  0  0  0  0  0  0  0  0
   44.1665   90.0315   35.3249 N   0  0  0  0  0  0  0  0  0  0  0  0
   44.2368   92.9135   37.8892 H   0  0  0  0  0  0  0  0  0  0  0  0
   46.5136   94.1657   35.4688 H   0  0  0  0  0  0  0  0  0  0  0  0
   47.1403   92.2755   32.9448 H   0  0  0  0  0  0  0  0  0  0  0  0
   44.4040   89.0050   31.9303 O   0  0  0  0  0  0  0  0  0  0  0  0
   45.0191   89.0260   33.2462 C   0  0  0  0  0  0  0  0  0  0  0  0
   44.6294   88.1753   31.4812 H   0  0  0  0  0  0  0  0  0  0  0  0
   43.1949   88.9179   35.4067 C   0  0  0  0  0  0  0  0  0  0  0  0
   44.9790   87.8406   36.5129 O   0  0  0  0  0  0  0  0  0  0  0  0
   43.5555   87.8786   36.4710 C   0  0  0  0  0  0  0  0  0  0  0  0
   45.2657   87.1933   37.1760 H   0  0  0  0  0  0  0  0  0  0  0  0
 17 18  1  0  0  0
 13 14  1  0  0  0
  1  5  1  0  0  0
  2  6  1  0  0  0
  3  7  1  0  0  0
 18 16  1  0  0  0
 14  8  1  0  0  0
 16  9  1  0  0  0
  4  5  1  0  0  0
  4  9  1  0  0  0
  5  6  1  0  0  0
  6  7  1  0  0  0
  7  8  1  0  0  0
  8  9  1  0  0  0
 17 19  1  0  0  0
 13 15  1  0  0  0
  1 10  1  0  0  0
  2 11  1  0  0  0
  3 12  1  0  0  0
M  END
> <minimizedAffinity>
-5.22167

$$$$
3L4W_MIG_A_1001


 19 19  0  0  0  0  0  0  0  0999 V2000
   42.7453   88.7025   34.4347 O   0  0  0  0  0  0  0  0  0  0  0  0
   44.7042   89.4002   32.3132 O   0  0  0  0  0  0  0  0  0  0  0  0
   46.5789   91.2874   32.9913 O   0  0  0  0  0  0  0  0  0  0  0  0
   43.4472   90.6269   35.7297 C   0  0  0  0  0  0  0  0  0  0  0  0
   43.3583   89.9833   34.3267 C   0  0  0  0  0  0  0  0  0  0  0  0
   44.7371   89.9377   33.6560 C   0  0  0  0  0  0  0  0  0  0  0  0
   45.2951   91.3729   33.5804 C   0  0  0  0  0  0  0  0  0  0  0  0
   45.3311   92.0227   34.9830 C   0  0  0  0  0  0  0  0  0  0  0  0
   43.9449   91.9806   35.5458 N   0  0  0  0  0  0  0  0  0  0  0  0
   41.8804   88.7932   34.8645 H   0  0  0  0  0  0  0  0  0  0  0  0
   44.3556   88.4952   32.3357 H   0  0  0  0  0  0  0  0  0  0  0  0
   46.5063   90.8749   32.1164 H   0  0  0  0  0  0  0  0  0  0  0  0
   46.9498   93.6557   35.7701 O   0  0  0  0  0  0  0  0  0  0  0  0
   45.7887   93.4841   34.9140 C   0  0  0  0  0  0  0  0  0  0  0  0
   47.2459   94.5786   35.7321 H   0  0  0  0  0  0  0  0  0  0  0  0
   43.7324   92.8250   36.7427 C   0  0  0  0  0  0  0  0  0  0  0  0
   42.0547   93.7068   35.3373 O   0  0  0  0  0  0  0  0  0  0  0  0
   42.8466   94.0438   36.4724 C   0  0  0  0  0  0  0  0  0  0  0  0
   41.4696   94.4491   35.1194 H   0  0  0  0  0  0  0  0  0  0  0  0
 17 18  1  0  0  0
 13 14  1  0  0  0
  1  5  1  0  0  0
  2  6  1  0  0  0
  3  7  1  0  0  0
 18 16  1  0  0  0
 14  8  1  0  0  0
 16  9  1  0  0  0
  4  5  1  0  0  0
  4  9  1  0  0  0
  5  6  1  0  0  0
  6  7  1  0  0  0
  7  8  1  0  0  0
  8  9  1  0  0  0
 17 19  1  0  0  0
 13 15  1  0  0  0
  1 10  1  0  0  0
  2 11  1  0  0  0
  3 12  1  0  0  0
M  END
> <minimizedAffinity>
-5.18616

$$$$
3L4W_MIG_A_1001


 19 19  0  0  0  0  0  0  0  0999 V2000
   44.4913   93.4310   37.5423 O   0  0  0  0  0  0  0  0  0  0  0  0
   42.3866   91.5051   36.7141 O   0  0  0  0  0  0  0  0  0  0  0  0
   43.0956   89.7367   34.7378 O   0  0  0  0  0  0  0  0  0  0  0  0
   45.8128   92.8379   35.5994 C   0  0  0  0  0  0  0  0  0  0  0  0
   44.4016   92.8873   36.2293 C   0  0  0  0  0  0  0  0  0  0  0  0
   43.7360   91.5057   36.1925 C   0  0  0  0  0  0  0  0  0  0  0  0
   43.6804   91.0253   34.7286 C   0  0  0  0  0  0  0  0  0  0  0  0
   45.0911   91.0290   34.0954 C   0  0  0  0  0  0  0  0  0  0  0  0
   45.6475   92.4128   34.2187 N   0  0  0  0  0  0  0  0  0  0  0  0
   44.9186   94.3010   37.5035 H   0  0  0  0  0  0  0  0  0  0  0  0
   42.3965   91.8047   37.6366 H   0  0  0  0  0  0  0  0  0  0  0  0
   42.2154   89.7840   35.1426 H   0  0  0  0  0  0  0  0  0  0  0  0
   44.6289   89.2625   32.4915 O   0  0  0  0  0  0  0  0  0  0  0  0
   45.0419   90.6502   32.6108 C   0  0  0  0  0  0  0  0  0  0  0  0
   44.5952   89.0146   31.5544 H   0  0  0  0  0  0  0  0  0  0  0  0
   46.8539   92.6745   33.4020 C   0  0  0  0  0  0  0  0  0  0  0  0
   49.1607   92.9512   33.8140 O   0  0  0  0  0  0  0  0  0  0  0  0
   47.8971   93.5318   34.1231 C   0  0  0  0  0  0  0  0  0  0  0  0
   49.8644   93.4582   34.2483 H   0  0  0  0  0  0  0  0  0  0  0  0
 17 18  1  0  0  0
 13 14  1  0  0  0
  1  5  1  0  0  0
  2  6  1  0  0  0
  3  7  1  0  0  0
 18 16  1  0  0  0
 14  8  1  0  0  0
 16  9  1  0  0  0
  4  5  1  0  0  0
  4  9  1  0  0  0
  5  6  1  0  0  0
  6  7  1  0  0  0
  7  8  1  0  0  0
  8  9  1  0  0  0
 17 19  1  0  0  0
 13 15  1  0  0  0
  1 10  1  0  0  0
  2 11  1  0  0  0
  3 12  1  0  0  0
M  END
> <minimizedAffinity>
-4.93855

$$$$
3L4W_MIG_A_1001


 19 19  0  0  0  0  0  0  0  0999 V2000
   45.2183   88.5641   33.8713 O   0  0  0  0  0  0  0  0  0  0  0  0
   42.4576   89.4799   34.4751 O   0  0  0  0  0  0  0  0  0  0  0  0
   42.1406   92.1873   34.7992 O   0  0  0  0  0  0  0  0  0  0  0  0
   46.0849   90.7449   34.4765 C   0  0  0  0  0  0  0  0  0  0  0  0
   44.9308   89.7287   34.6386 C   0  0  0  0  0  0  0  0  0  0  0  0
   43.5829   90.3685   34.2824 C   0  0  0  0  0  0  0  0  0  0  0  0
   43.3724   91.6042   35.1799 C   0  0  0  0  0  0  0  0  0  0  0  0
   44.5577   92.5882   35.0464 C   0  0  0  0  0  0  0  0  0  0  0  0
   45.8124   91.8463   35.3857 N   0  0  0  0  0  0  0  0  0  0  0  0
   46.0786   88.2048   34.1389 H   0  0  0  0  0  0  0  0  0  0  0  0
   42.5681   88.6929   33.9190 H   0  0  0  0  0  0  0  0  0  0  0  0
   41.4295   91.5352   34.8993 H   0  0  0  0  0  0  0  0  0  0  0  0
   43.8145   93.3093   37.2450 O   0  0  0  0  0  0  0  0  0  0  0  0
   44.4142   93.7747   36.0063 C   0  0  0  0  0  0  0  0  0  0  0  0
   43.7201   94.0547   37.8586 H   0  0  0  0  0  0  0  0  0  0  0  0
   47.0012   92.7003   35.6059 C   0  0  0  0  0  0  0  0  0  0  0  0
   48.8721   92.9545   34.1909 O   0  0  0  0  0  0  0  0  0  0  0  0
   47.5141   93.3632   34.3251 C   0  0  0  0  0  0  0  0  0  0  0  0
   49.2506   93.3483   33.3893 H   0  0  0  0  0  0  0  0  0  0  0  0
 17 18  1  0  0  0
 13 14  1  0  0  0
  1  5  1  0  0  0
  2  6  1  0  0  0
  3  7  1  0  0  0
 18 16  1  0  0  0
 14  8  1  0  0  0
 16  9  1  0  0  0
  4  5  1  0  0  0
  4  9  1  0  0  0
  5  6  1  0  0  0
  6  7  1  0  0  0
  7  8  1  0  0  0
  8  9  1  0  0  0
 17 19  1  0  0  0
 13 15  1  0  0  0
  1 10  1  0  0  0
  2 11  1  0  0  0
  3 12  1  0  0  0
M  END
> <minimizedAffinity>
-4.88913

$$$$
3L4W_MIG_A_1001


 19 19  0  0  0  0  0  0  0  0999 V2000
   45.0248   91.4802   35.9590 O   0  0  0  0  0  0  0  0  0  0  0  0
   44.8132   91.5032   32.9960 O   0  0  0  0  0  0  0  0  0  0  0  0
   43.9632   89.1628   31.8403 O   0  0  0  0  0  0  0  0  0  0  0  0
   44.8076   89.0666   35.9659 C   0  0  0  0  0  0  0  0  0  0  0  0
   45.2052   90.3203   35.1530 C   0  0  0  0  0  0  0  0  0  0  0  0
   44.4357   90.3810   33.8273 C   0  0  0  0  0  0  0  0  0  0  0  0
   44.7156   89.0876   33.0364 C   0  0  0  0  0  0  0  0  0  0  0  0
   44.3613   87.8407   33.8794 C   0  0  0  0  0  0  0  0  0  0  0  0
   45.1439   87.9087   35.1533 N   0  0  0  0  0  0  0  0  0  0  0  0
   45.5323   91.3855   36.7801 H   0  0  0  0  0  0  0  0  0  0  0  0
   44.6456   92.3305   33.4739 H   0  0  0  0  0  0  0  0  0  0  0  0
   44.2189   89.9578   31.3469 H   0  0  0  0  0  0  0  0  0  0  0  0
   45.4789   86.8757   31.9491 O   0  0  0  0  0  0  0  0  0  0  0  0
   44.7269   86.5446   33.1472 C   0  0  0  0  0  0  0  0  0  0  0  0
   45.7144   86.0603   31.4795 H   0  0  0  0  0  0  0  0  0  0  0  0
   45.1623   86.6556   35.9410 C   0  0  0  0  0  0  0  0  0  0  0  0
   46.0585   86.4620   38.1151 O   0  0  0  0  0  0  0  0  0  0  0  0
   46.4507   86.4669   36.7456 C   0  0  0  0  0  0  0  0  0  0  0  0
   46.8416   86.3445   38.6753 H   0  0  0  0  0  0  0  0  0  0  0  0
 17 18  1  0  0  0
 13 14  1  0  0  0
  1  5  1  0  0  0
  2  6  1  0  0  0
  3  7  1  0  0  0
 18 16  1  0  0  0
 14  8  1  0  0  0
 16  9  1  0  0  0
  4  5  1  0  0  0
  4  9  1  0  0  0
  5  6  1  0  0  0
  6  7  1  0  0  0
  7  8  1  0  0  0
  8  9  1  0  0  0
 17 19  1  0  0  0
 13 15  1  0  0  0
  1 10  1  0  0  0
  2 11  1  0  0  0
  3 12  1  0  0  0
M  END
> <minimizedAffinity>
-4.52334

$$$$
3L4W_MIG_A_1001


 19 19  0  0  0  0  0  0  0  0999 V2000
   45.6393   90.2302   34.3672 O   0  0  0  0  0  0  0  0  0  0  0  0
   44.6233   88.7442   32.0042 O   0  0  0  0  0  0  0  0  0  0  0  0
   42.4126   87.1757   32.4387 O   0  0  0  0  0  0  0  0  0  0  0  0
   44.2414   88.8898   35.8239 C   0  0  0  0  0  0  0  0  0  0  0  0
   44.9650   88.9795   34.4605 C   0  0  0  0  0  0  0  0  0  0  0  0
   43.9879   88.7331   33.3039 C   0  0  0  0  0  0  0  0  0  0  0  0
   43.3311   87.3522   33.5006 C   0  0  0  0  0  0  0  0  0  0  0  0
   42.6548   87.2583   34.8879 C   0  0  0  0  0  0  0  0  0  0  0  0
   43.6928   87.5472   35.9267 N   0  0  0  0  0  0  0  0  0  0  0  0
   46.2408   90.3304   35.1216 H   0  0  0  0  0  0  0  0  0  0  0  0
   45.0446   89.6055   31.8576 H   0  0  0  0  0  0  0  0  0  0  0  0
   42.8808   87.2426   31.5918 H   0  0  0  0  0  0  0  0  0  0  0  0
   40.8752   85.6927   34.3514 O   0  0  0  0  0  0  0  0  0  0  0  0
   42.0832   85.8587   35.1411 C   0  0  0  0  0  0  0  0  0  0  0  0
   40.5068   84.8088   34.5060 H   0  0  0  0  0  0  0  0  0  0  0  0
   43.3001   87.2052   37.3122 C   0  0  0  0  0  0  0  0  0  0  0  0
   44.1271   86.6976   39.4629 O   0  0  0  0  0  0  0  0  0  0  0  0
   44.3930   86.4612   38.0835 C   0  0  0  0  0  0  0  0  0  0  0  0
   44.7943   86.2458   40.0029 H   0  0  0  0  0  0  0  0  0  0  0  0
 17 18  1  0  0  0
 13 14  1  0  0  0
  1  5  1  0  0  0
  2  6  1  0  0  0
  3  7  1  0  0  0
 18 16  1  0  0  0
 14  8  1  0  0  0
 16  9  1  0  0  0
  4  5  1  0  0  0
  4  9  1  0  0  0
  5  6  1  0  0  0
  6  7  1  0  0  0
  7  8  1  0  0  0
  8  9  1  0  0  0
 17 19  1  0  0  0
 13 15  1  0  0  0
  1 10  1  0  0  0
  2 11  1  0  0  0
  3 12  1  0  0  0
M  END
> <minimizedAffinity>
-4.32441

$$$$
