4OMK_SQL_A_305


 30 29  0  0  0  0  0  0  0  0999 V2000
   19.0198   10.6412    5.6894 C   0  0  0  0  0  0  0  0  0  0  0  0
   19.1999    9.7608    8.1664 C   0  0  0  0  0  0  0  0  0  0  0  0
   18.8464    9.9924    9.6199 C   0  0  0  0  0  0  0  0  0  0  0  0
   18.7566   10.8013    7.1679 C   0  0  0  0  0  0  0  0  0  0  0  0
   19.9654    8.5076    7.7391 C   0  0  0  0  0  0  0  0  0  0  0  0
   21.2088    8.3265    8.5897 C   0  0  0  0  0  0  0  0  0  0  0  0
   21.5685    5.8373    9.2162 C   0  0  0  0  0  0  0  0  0  0  0  0
   22.3285    5.5853    7.9176 C   0  0  0  0  0  0  0  0  0  0  0  0
   20.9957    7.1966    9.5878 C   0  0  0  0  0  0  0  0  0  0  0  0
   21.2864    4.6957   10.1607 C   0  0  0  0  0  0  0  0  0  0  0  0
   20.1909    3.7889    9.6920 C   0  0  0  0  0  0  0  0  0  0  0  0
   18.7944    1.2297    8.7618 C   0  0  0  0  0  0  0  0  0  0  0  0
   19.9248    1.1501    9.7576 C   0  0  0  0  0  0  0  0  0  0  0  0
   20.3887   -0.2035   10.2839 C   0  0  0  0  0  0  0  0  0  0  0  0
   20.6072    2.4119   10.2092 C   0  0  0  0  0  0  0  0  0  0  0  0
   17.6663   10.4358    5.0459 C   0  0  0  0  0  0  0  0  0  0  0  0
   16.6516   11.4814    5.5369 C   0  0  0  0  0  0  0  0  0  0  0  0
   16.1189   12.5546    4.5801 C   0  0  0  0  0  0  0  0  0  0  0  0
   16.5923   12.6115    3.1440 C   0  0  0  0  0  0  0  0  0  0  0  0
   15.1090   13.5906    5.0566 C   0  0  0  0  0  0  0  0  0  0  0  0
   14.0812   13.8257    3.9439 C   0  0  0  0  0  0  0  0  0  0  0  0
   12.7639   13.2167    4.3552 C   0  0  0  0  0  0  0  0  0  0  0  0
   12.2972   11.8699    3.8139 C   0  0  0  0  0  0  0  0  0  0  0  0
   10.9575   11.3428    4.3225 C   0  0  0  0  0  0  0  0  0  0  0  0
   13.1783   11.0525    2.8537 C   0  0  0  0  0  0  0  0  0  0  0  0
   13.8666    9.8553    3.5282 C   0  0  0  0  0  0  0  0  0  0  0  0
   14.6007    9.0135    2.4976 C   0  0  0  0  0  0  0  0  0  0  0  0
   15.6938    8.0674    2.0275 C   0  0  0  0  0  0  0  0  0  0  0  0
   15.7908    7.7731    0.5413 C   0  0  0  0  0  0  0  0  0  0  0  0
   16.6364    7.3569    3.0059 C   0  0  0  0  0  0  0  0  0  0  0  0
 14 13  1  0  0  0
 12 13  1  0  0  0
 13 15  2  0  0  0
 15 11  1  0  0  0
 11 10  1  0  0  0
 10  7  1  0  0  0
  8  7  1  0  0  0
  7  9  2  0  0  0
  9  6  1  0  0  0
  6  5  1  0  0  0
  5  2  1  0  0  0
  3  2  1  0  0  0
  2  4  2  0  0  0
  4  1  1  0  0  0
  1 16  1  0  0  0
 16 17  1  0  0  0
 17 18  2  0  0  0
 18 19  1  0  0  0
 18 20  1  0  0  0
 20 21  1  0  0  0
 21 22  1  0  0  0
 22 23  2  0  0  0
 23 24  1  0  0  0
 23 25  1  0  0  0
 25 26  1  0  0  0
 26 27  1  0  0  0
 27 28  2  0  0  0
 28 30  1  0  0  0
 28 29  1  0  0  0
M  END
> <minimizedAffinity>
-10.56747

$$$$
4OMK_SQL_A_305


 30 29  0  0  0  0  0  0  0  0999 V2000
   19.1739    7.8090    6.0595 C   0  0  0  0  0  0  0  0  0  0  0  0
   20.0844    9.2282    8.0843 C   0  0  0  0  0  0  0  0  0  0  0  0
   19.7442   10.0136    9.3327 C   0  0  0  0  0  0  0  0  0  0  0  0
   18.9385    8.6464    7.2941 C   0  0  0  0  0  0  0  0  0  0  0  0
   21.5402    9.0281    7.6602 C   0  0  0  0  0  0  0  0  0  0  0  0
   22.2845    8.1940    8.6863 C   0  0  0  0  0  0  0  0  0  0  0  0
   21.2757    5.8795    9.2728 C   0  0  0  0  0  0  0  0  0  0  0  0
   20.5511    6.4641   10.4814 C   0  0  0  0  0  0  0  0  0  0  0  0
   22.1501    6.7150    8.3501 C   0  0  0  0  0  0  0  0  0  0  0  0
   21.2080    4.3988    8.9941 C   0  0  0  0  0  0  0  0  0  0  0  0
   20.8206    3.5830   10.1885 C   0  0  0  0  0  0  0  0  0  0  0  0
   17.9560    3.0732    9.2403 C   0  0  0  0  0  0  0  0  0  0  0  0
   18.9910    1.9815    9.1273 C   0  0  0  0  0  0  0  0  0  0  0  0
   18.6196    0.6330    8.5206 C   0  0  0  0  0  0  0  0  0  0  0  0
   20.3971    2.2397    9.5942 C   0  0  0  0  0  0  0  0  0  0  0  0
   18.8763    8.7112    4.8822 C   0  0  0  0  0  0  0  0  0  0  0  0
   17.8431    9.7878    5.2526 C   0  0  0  0  0  0  0  0  0  0  0  0
   18.2754   11.2473    5.4368 C   0  0  0  0  0  0  0  0  0  0  0  0
   19.7248   11.6494    5.2715 C   0  0  0  0  0  0  0  0  0  0  0  0
   17.2574   12.3213    5.7979 C   0  0  0  0  0  0  0  0  0  0  0  0
   15.8573   11.6971    5.7881 C   0  0  0  0  0  0  0  0  0  0  0  0
   14.8600   12.7346    5.3359 C   0  0  0  0  0  0  0  0  0  0  0  0
   13.3717   12.4234    5.2234 C   0  0  0  0  0  0  0  0  0  0  0  0
   12.4553   13.5612    4.7797 C   0  0  0  0  0  0  0  0  0  0  0  0
   12.8187   11.0414    5.6116 C   0  0  0  0  0  0  0  0  0  0  0  0
   12.3743   10.2015    4.4037 C   0  0  0  0  0  0  0  0  0  0  0  0
   13.5740    9.5433    3.7428 C   0  0  0  0  0  0  0  0  0  0  0  0
   14.8187    9.5231    2.8702 C   0  0  0  0  0  0  0  0  0  0  0  0
   15.4687    8.1806    2.5871 C   0  0  0  0  0  0  0  0  0  0  0  0
   15.4662   10.8077    2.3399 C   0  0  0  0  0  0  0  0  0  0  0  0
 14 13  1  0  0  0
 12 13  1  0  0  0
 13 15  2  0  0  0
 15 11  1  0  0  0
 11 10  1  0  0  0
 10  7  1  0  0  0
  8  7  1  0  0  0
  7  9  2  0  0  0
  9  6  1  0  0  0
  6  5  1  0  0  0
  5  2  1  0  0  0
  3  2  1  0  0  0
  2  4  2  0  0  0
  4  1  1  0  0  0
  1 16  1  0  0  0
 16 17  1  0  0  0
 17 18  2  0  0  0
 18 19  1  0  0  0
 18 20  1  0  0  0
 20 21  1  0  0  0
 21 22  1  0  0  0
 22 23  2  0  0  0
 23 24  1  0  0  0
 23 25  1  0  0  0
 25 26  1  0  0  0
 26 27  1  0  0  0
 27 28  2  0  0  0
 28 30  1  0  0  0
 28 29  1  0  0  0
M  END
> <minimizedAffinity>
-10.42665

$$$$
4OMK_SQL_A_305


 30 29  0  0  0  0  0  0  0  0999 V2000
   20.8251    7.7484    9.9932 C   0  0  0  0  0  0  0  0  0  0  0  0
   21.8720    5.4239    9.3271 C   0  0  0  0  0  0  0  0  0  0  0  0
   22.8054    4.6764    8.3992 C   0  0  0  0  0  0  0  0  0  0  0  0
   21.6981    6.9044    9.0952 C   0  0  0  0  0  0  0  0  0  0  0  0
   21.1501    4.6951   10.4616 C   0  0  0  0  0  0  0  0  0  0  0  0
   21.1014    3.2029   10.1907 C   0  0  0  0  0  0  0  0  0  0  0  0
   19.4015    1.3995    9.4314 C   0  0  0  0  0  0  0  0  0  0  0  0
   20.1662    0.3141   10.1829 C   0  0  0  0  0  0  0  0  0  0  0  0
   19.8380    2.8566    9.4145 C   0  0  0  0  0  0  0  0  0  0  0  0
   18.2002    1.0365    8.5948 C   0  0  0  0  0  0  0  0  0  0  0  0
   17.0518    1.9840    8.7552 C   0  0  0  0  0  0  0  0  0  0  0  0
   14.6958    1.4553    6.8751 C   0  0  0  0  0  0  0  0  0  0  0  0
   14.7239    0.8191    8.2427 C   0  0  0  0  0  0  0  0  0  0  0  0
   13.5935   -0.1049    8.6816 C   0  0  0  0  0  0  0  0  0  0  0  0
   15.8857    1.0825    9.1608 C   0  0  0  0  0  0  0  0  0  0  0  0
   19.5360    7.9681    9.2326 C   0  0  0  0  0  0  0  0  0  0  0  0
   19.4956    9.3676    8.5973 C   0  0  0  0  0  0  0  0  0  0  0  0
   19.2606    9.5291    7.0907 C   0  0  0  0  0  0  0  0  0  0  0  0
   19.0792    8.3166    6.2037 C   0  0  0  0  0  0  0  0  0  0  0  0
   19.2132   10.9121    6.4540 C   0  0  0  0  0  0  0  0  0  0  0  0
   17.7480   11.3405    6.3138 C   0  0  0  0  0  0  0  0  0  0  0  0
   17.4056   11.4480    4.8487 C   0  0  0  0  0  0  0  0  0  0  0  0
   16.5526   12.5885    4.3043 C   0  0  0  0  0  0  0  0  0  0  0  0
   16.2939   12.6060    2.7996 C   0  0  0  0  0  0  0  0  0  0  0  0
   16.0405   13.7069    5.2280 C   0  0  0  0  0  0  0  0  0  0  0  0
   14.5837   14.1090    4.9484 C   0  0  0  0  0  0  0  0  0  0  0  0
   13.6614   12.9116    5.1066 C   0  0  0  0  0  0  0  0  0  0  0  0
   12.3208   12.2361    5.3465 C   0  0  0  0  0  0  0  0  0  0  0  0
   12.3014   10.7258    5.5003 C   0  0  0  0  0  0  0  0  0  0  0  0
   11.0024   13.0184    5.3620 C   0  0  0  0  0  0  0  0  0  0  0  0
 14 13  1  0  0  0
 12 13  1  0  0  0
 13 15  2  0  0  0
 15 11  1  0  0  0
 11 10  1  0  0  0
 10  7  1  0  0  0
  8  7  1  0  0  0
  7  9  2  0  0  0
  9  6  1  0  0  0
  6  5  1  0  0  0
  5  2  1  0  0  0
  3  2  1  0  0  0
  2  4  2  0  0  0
  4  1  1  0  0  0
  1 16  1  0  0  0
 16 17  1  0  0  0
 17 18  2  0  0  0
 18 19  1  0  0  0
 18 20  1  0  0  0
 20 21  1  0  0  0
 21 22  1  0  0  0
 22 23  2  0  0  0
 23 24  1  0  0  0
 23 25  1  0  0  0
 25 26  1  0  0  0
 26 27  1  0  0  0
 27 28  2  0  0  0
 28 30  1  0  0  0
 28 29  1  0  0  0
M  END
> <minimizedAffinity>
-10.30300

$$$$
4OMK_SQL_A_305


 30 29  0  0  0  0  0  0  0  0999 V2000
   19.7803    8.6014    8.6957 C   0  0  0  0  0  0  0  0  0  0  0  0
   18.7884    9.0220    6.2910 C   0  0  0  0  0  0  0  0  0  0  0  0
   18.4405    8.4252    4.9442 C   0  0  0  0  0  0  0  0  0  0  0  0
   19.4360    8.1150    7.3080 C   0  0  0  0  0  0  0  0  0  0  0  0
   18.4762   10.4870    6.6001 C   0  0  0  0  0  0  0  0  0  0  0  0
   17.8881   11.1751    5.3823 C   0  0  0  0  0  0  0  0  0  0  0  0
   16.1201   12.9467    4.7084 C   0  0  0  0  0  0  0  0  0  0  0  0
   16.5017   12.8168    3.2370 C   0  0  0  0  0  0  0  0  0  0  0  0
   16.7903   12.1397    5.8100 C   0  0  0  0  0  0  0  0  0  0  0  0
   15.0925   13.9646    5.1359 C   0  0  0  0  0  0  0  0  0  0  0  0
   14.0325   14.2118    4.1076 C   0  0  0  0  0  0  0  0  0  0  0  0
   12.9871   11.8322    2.4923 C   0  0  0  0  0  0  0  0  0  0  0  0
   12.3305   12.2001    3.7997 C   0  0  0  0  0  0  0  0  0  0  0  0
   11.1629   11.3755    4.3298 C   0  0  0  0  0  0  0  0  0  0  0  0
   12.8506   13.3701    4.5887 C   0  0  0  0  0  0  0  0  0  0  0  0
   21.1944    8.1341    8.9611 C   0  0  0  0  0  0  0  0  0  0  0  0
   21.2223    6.6571    9.3871 C   0  0  0  0  0  0  0  0  0  0  0  0
   21.8003    5.5901    8.4498 C   0  0  0  0  0  0  0  0  0  0  0  0
   22.3386    5.9696    7.0875 C   0  0  0  0  0  0  0  0  0  0  0  0
   21.8374    4.1254    8.8664 C   0  0  0  0  0  0  0  0  0  0  0  0
   20.7784    3.8938    9.9503 C   0  0  0  0  0  0  0  0  0  0  0  0
   20.8805    2.4710   10.4408 C   0  0  0  0  0  0  0  0  0  0  0  0
   19.9721    1.3694    9.9060 C   0  0  0  0  0  0  0  0  0  0  0  0
   20.1859   -0.0375   10.4592 C   0  0  0  0  0  0  0  0  0  0  0  0
   18.9377    1.6591    8.8048 C   0  0  0  0  0  0  0  0  0  0  0  0
   17.6945    2.4034    9.3171 C   0  0  0  0  0  0  0  0  0  0  0  0
   16.4436    1.5720    9.0862 C   0  0  0  0  0  0  0  0  0  0  0  0
   15.2181    1.1273    8.3042 C   0  0  0  0  0  0  0  0  0  0  0  0
   14.2589    0.1590    8.9729 C   0  0  0  0  0  0  0  0  0  0  0  0
   14.9694    1.5650    6.8560 C   0  0  0  0  0  0  0  0  0  0  0  0
 14 13  1  0  0  0
 12 13  1  0  0  0
 13 15  2  0  0  0
 15 11  1  0  0  0
 11 10  1  0  0  0
 10  7  1  0  0  0
  8  7  1  0  0  0
  7  9  2  0  0  0
  9  6  1  0  0  0
  6  5  1  0  0  0
  5  2  1  0  0  0
  3  2  1  0  0  0
  2  4  2  0  0  0
  4  1  1  0  0  0
  1 16  1  0  0  0
 16 17  1  0  0  0
 17 18  2  0  0  0
 18 19  1  0  0  0
 18 20  1  0  0  0
 20 21  1  0  0  0
 21 22  1  0  0  0
 22 23  2  0  0  0
 23 24  1  0  0  0
 23 25  1  0  0  0
 25 26  1  0  0  0
 26 27  1  0  0  0
 27 28  2  0  0  0
 28 30  1  0  0  0
 28 29  1  0  0  0
M  END
> <minimizedAffinity>
-10.29554

$$$$
4OMK_SQL_A_305


 30 29  0  0  0  0  0  0  0  0999 V2000
   19.3103    7.3457    5.9054 C   0  0  0  0  0  0  0  0  0  0  0  0
   21.3141    7.3738    7.6163 C   0  0  0  0  0  0  0  0  0  0  0  0
   22.0279    8.1307    8.7157 C   0  0  0  0  0  0  0  0  0  0  0  0
   20.1179    8.0361    6.9786 C   0  0  0  0  0  0  0  0  0  0  0  0
   21.7901    5.9847    7.1885 C   0  0  0  0  0  0  0  0  0  0  0  0
   22.7011    5.3850    8.2434 C   0  0  0  0  0  0  0  0  0  0  0  0
   21.1924    3.9865    9.8202 C   0  0  0  0  0  0  0  0  0  0  0  0
   20.7227    5.2455   10.5426 C   0  0  0  0  0  0  0  0  0  0  0  0
   22.1799    4.0175    8.6636 C   0  0  0  0  0  0  0  0  0  0  0  0
   20.7392    2.6287   10.2955 C   0  0  0  0  0  0  0  0  0  0  0  0
   20.3478    1.7060    9.1830 C   0  0  0  0  0  0  0  0  0  0  0  0
   17.5453    2.9005    8.8925 C   0  0  0  0  0  0  0  0  0  0  0  0
   17.7283    1.5708    9.5811 C   0  0  0  0  0  0  0  0  0  0  0  0
   16.5186    0.8096   10.1118 C   0  0  0  0  0  0  0  0  0  0  0  0
   19.1084    0.9893    9.7190 C   0  0  0  0  0  0  0  0  0  0  0  0
   18.9069    8.4275    4.9279 C   0  0  0  0  0  0  0  0  0  0  0  0
   18.0795    9.5231    5.6200 C   0  0  0  0  0  0  0  0  0  0  0  0
   18.5505   10.9820    5.5969 C   0  0  0  0  0  0  0  0  0  0  0  0
   19.8415   11.3652    4.9069 C   0  0  0  0  0  0  0  0  0  0  0  0
   17.7338   12.0747    6.2748 C   0  0  0  0  0  0  0  0  0  0  0  0
   16.3225   12.0787    5.6764 C   0  0  0  0  0  0  0  0  0  0  0  0
   16.0509   13.4319    5.0677 C   0  0  0  0  0  0  0  0  0  0  0  0
   15.5286   13.5821    3.6431 C   0  0  0  0  0  0  0  0  0  0  0  0
   15.2667   15.0014    3.1448 C   0  0  0  0  0  0  0  0  0  0  0  0
   15.2140   12.3487    2.7794 C   0  0  0  0  0  0  0  0  0  0  0  0
   13.7451   12.2756    2.3332 C   0  0  0  0  0  0  0  0  0  0  0  0
   12.8177   12.4759    3.5202 C   0  0  0  0  0  0  0  0  0  0  0  0
   12.1105   12.0456    4.7953 C   0  0  0  0  0  0  0  0  0  0  0  0
   11.0676   12.9801    5.3818 C   0  0  0  0  0  0  0  0  0  0  0  0
   12.4702   10.7502    5.5322 C   0  0  0  0  0  0  0  0  0  0  0  0
 14 13  1  0  0  0
 12 13  1  0  0  0
 13 15  2  0  0  0
 15 11  1  0  0  0
 11 10  1  0  0  0
 10  7  1  0  0  0
  8  7  1  0  0  0
  7  9  2  0  0  0
  9  6  1  0  0  0
  6  5  1  0  0  0
  5  2  1  0  0  0
  3  2  1  0  0  0
  2  4  2  0  0  0
  4  1  1  0  0  0
  1 16  1  0  0  0
 16 17  1  0  0  0
 17 18  2  0  0  0
 18 19  1  0  0  0
 18 20  1  0  0  0
 20 21  1  0  0  0
 21 22  1  0  0  0
 22 23  2  0  0  0
 23 24  1  0  0  0
 23 25  1  0  0  0
 25 26  1  0  0  0
 26 27  1  0  0  0
 27 28  2  0  0  0
 28 30  1  0  0  0
 28 29  1  0  0  0
M  END
> <minimizedAffinity>
-10.01833

$$$$
4OMK_SQL_A_305


 30 29  0  0  0  0  0  0  0  0999 V2000
   20.0006    7.2990    7.5481 C   0  0  0  0  0  0  0  0  0  0  0  0
   21.5199    5.4050    8.5716 C   0  0  0  0  0  0  0  0  0  0  0  0
   22.8925    4.7684    8.6121 C   0  0  0  0  0  0  0  0  0  0  0  0
   21.3187    6.5665    7.6300 C   0  0  0  0  0  0  0  0  0  0  0  0
   20.3930    4.8888    9.4677 C   0  0  0  0  0  0  0  0  0  0  0  0
   20.4970    3.3851    9.6421 C   0  0  0  0  0  0  0  0  0  0  0  0
   19.0467    1.2371    9.6111 C   0  0  0  0  0  0  0  0  0  0  0  0
   20.2211    0.3966   10.1028 C   0  0  0  0  0  0  0  0  0  0  0  0
   19.1465    2.7359    9.3714 C   0  0  0  0  0  0  0  0  0  0  0  0
   17.7367    0.5754    9.2632 C   0  0  0  0  0  0  0  0  0  0  0  0
   16.6165    1.5450    9.0458 C   0  0  0  0  0  0  0  0  0  0  0  0
   14.4518    1.3140    6.8951 C   0  0  0  0  0  0  0  0  0  0  0  0
   14.2885    0.5879    8.2073 C   0  0  0  0  0  0  0  0  0  0  0  0
   13.0594   -0.2793    8.4558 C   0  0  0  0  0  0  0  0  0  0  0  0
   15.3571    0.7051    9.2591 C   0  0  0  0  0  0  0  0  0  0  0  0
   20.3130    8.6512    6.9461 C   0  0  0  0  0  0  0  0  0  0  0  0
   19.2020    9.1028    5.9840 C   0  0  0  0  0  0  0  0  0  0  0  0
   18.3439   10.3306    6.3115 C   0  0  0  0  0  0  0  0  0  0  0  0
   18.5659   11.1081    7.5905 C   0  0  0  0  0  0  0  0  0  0  0  0
   17.2451   10.7885    5.3611 C   0  0  0  0  0  0  0  0  0  0  0  0
   16.9537   12.2707    5.6217 C   0  0  0  0  0  0  0  0  0  0  0  0
   15.4701   12.4510    5.8268 C   0  0  0  0  0  0  0  0  0  0  0  0
   14.5854   13.0993    4.7677 C   0  0  0  0  0  0  0  0  0  0  0  0
   13.0939   13.2041    5.0773 C   0  0  0  0  0  0  0  0  0  0  0  0
   15.1679   13.5585    3.4201 C   0  0  0  0  0  0  0  0  0  0  0  0
   14.6351   12.7578    2.2213 C   0  0  0  0  0  0  0  0  0  0  0  0
   14.8629   11.2701    2.4314 C   0  0  0  0  0  0  0  0  0  0  0  0
   14.5653    9.9106    3.0433 C   0  0  0  0  0  0  0  0  0  0  0  0
   15.5319    8.7747    2.7599 C   0  0  0  0  0  0  0  0  0  0  0  0
   13.2975    9.6429    3.8628 C   0  0  0  0  0  0  0  0  0  0  0  0
 14 13  1  0  0  0
 12 13  1  0  0  0
 13 15  2  0  0  0
 15 11  1  0  0  0
 11 10  1  0  0  0
 10  7  1  0  0  0
  8  7  1  0  0  0
  7  9  2  0  0  0
  9  6  1  0  0  0
  6  5  1  0  0  0
  5  2  1  0  0  0
  3  2  1  0  0  0
  2  4  2  0  0  0
  4  1  1  0  0  0
  1 16  1  0  0  0
 16 17  1  0  0  0
 17 18  2  0  0  0
 18 19  1  0  0  0
 18 20  1  0  0  0
 20 21  1  0  0  0
 21 22  1  0  0  0
 22 23  2  0  0  0
 23 24  1  0  0  0
 23 25  1  0  0  0
 25 26  1  0  0  0
 26 27  1  0  0  0
 27 28  2  0  0  0
 28 30  1  0  0  0
 28 29  1  0  0  0
M  END
> <minimizedAffinity>
-9.86909

$$$$
4OMK_SQL_A_305


 30 29  0  0  0  0  0  0  0  0999 V2000
   20.5935    7.4204    6.7629 C   0  0  0  0  0  0  0  0  0  0  0  0
   20.9823    7.0592    9.3439 C   0  0  0  0  0  0  0  0  0  0  0  0
   20.7405    7.5798   10.7445 C   0  0  0  0  0  0  0  0  0  0  0  0
   20.4447    7.8761    8.1951 C   0  0  0  0  0  0  0  0  0  0  0  0
   21.7324    5.7457    9.1178 C   0  0  0  0  0  0  0  0  0  0  0  0
   21.1669    4.6498   10.0020 C   0  0  0  0  0  0  0  0  0  0  0  0
   19.6192    2.6132    9.5836 C   0  0  0  0  0  0  0  0  0  0  0  0
   20.5655    1.6940   10.3499 C   0  0  0  0  0  0  0  0  0  0  0  0
   19.8859    4.0983    9.3910 C   0  0  0  0  0  0  0  0  0  0  0  0
   18.3960    2.0454    8.9081 C   0  0  0  0  0  0  0  0  0  0  0  0
   17.1175    2.6893    9.3475 C   0  0  0  0  0  0  0  0  0  0  0  0
   15.3435    0.2015    9.5162 C   0  0  0  0  0  0  0  0  0  0  0  0
   15.2523    1.1101    8.3153 C   0  0  0  0  0  0  0  0  0  0  0  0
   14.2624    0.8049    7.1967 C   0  0  0  0  0  0  0  0  0  0  0  0
   16.1264    2.3316    8.2399 C   0  0  0  0  0  0  0  0  0  0  0  0
   19.2979    7.7867    6.0733 C   0  0  0  0  0  0  0  0  0  0  0  0
   18.7476    9.1240    6.5957 C   0  0  0  0  0  0  0  0  0  0  0  0
   19.1832   10.4462    5.9532 C   0  0  0  0  0  0  0  0  0  0  0  0
   20.1705   10.4584    4.8065 C   0  0  0  0  0  0  0  0  0  0  0  0
   18.6383   11.7752    6.4604 C   0  0  0  0  0  0  0  0  0  0  0  0
   17.1422   11.8512    6.1353 C   0  0  0  0  0  0  0  0  0  0  0  0
   16.9534   11.6824    4.6483 C   0  0  0  0  0  0  0  0  0  0  0  0
   16.2553   12.7408    3.8015 C   0  0  0  0  0  0  0  0  0  0  0  0
   16.1459   12.4708    2.3027 C   0  0  0  0  0  0  0  0  0  0  0  0
   15.7513   14.0522    4.4279 C   0  0  0  0  0  0  0  0  0  0  0  0
   14.2269   14.2252    4.3359 C   0  0  0  0  0  0  0  0  0  0  0  0
   13.5218   12.9245    4.6826 C   0  0  0  0  0  0  0  0  0  0  0  0
   12.6177   11.7364    4.3955 C   0  0  0  0  0  0  0  0  0  0  0  0
   12.2894   10.7974    5.5424 C   0  0  0  0  0  0  0  0  0  0  0  0
   12.0991   11.4255    2.9866 C   0  0  0  0  0  0  0  0  0  0  0  0
 14 13  1  0  0  0
 12 13  1  0  0  0
 13 15  2  0  0  0
 15 11  1  0  0  0
 11 10  1  0  0  0
 10  7  1  0  0  0
  8  7  1  0  0  0
  7  9  2  0  0  0
  9  6  1  0  0  0
  6  5  1  0  0  0
  5  2  1  0  0  0
  3  2  1  0  0  0
  2  4  2  0  0  0
  4  1  1  0  0  0
  1 16  1  0  0  0
 16 17  1  0  0  0
 17 18  2  0  0  0
 18 19  1  0  0  0
 18 20  1  0  0  0
 20 21  1  0  0  0
 21 22  1  0  0  0
 22 23  2  0  0  0
 23 24  1  0  0  0
 23 25  1  0  0  0
 25 26  1  0  0  0
 26 27  1  0  0  0
 27 28  2  0  0  0
 28 30  1  0  0  0
 28 29  1  0  0  0
M  END
> <minimizedAffinity>
-9.81135

$$$$
4OMK_SQL_A_305


 30 29  0  0  0  0  0  0  0  0999 V2000
   20.1206    3.5019    9.5803 C   0  0  0  0  0  0  0  0  0  0  0  0
   19.4204    0.9794    9.2806 C   0  0  0  0  0  0  0  0  0  0  0  0
   19.6624   -0.4576    9.6899 C   0  0  0  0  0  0  0  0  0  0  0  0
   20.3098    2.0356    9.8885 C   0  0  0  0  0  0  0  0  0  0  0  0
   18.3034    1.3339    8.2978 C   0  0  0  0  0  0  0  0  0  0  0  0
   17.1528    2.0102    9.0198 C   0  0  0  0  0  0  0  0  0  0  0  0
   14.9921    0.6212    8.6731 C   0  0  0  0  0  0  0  0  0  0  0  0
   15.3708   -0.3158    9.8159 C   0  0  0  0  0  0  0  0  0  0  0  0
   15.8578    1.7974    8.2477 C   0  0  0  0  0  0  0  0  0  0  0  0
   13.7519    0.3553    7.8569 C   0  0  0  0  0  0  0  0  0  0  0  0
   13.4724    1.4115    6.8330 C   0  0  0  0  0  0  0  0  0  0  0  0
   13.0620    1.8891    3.8382 C   0  0  0  0  0  0  0  0  0  0  0  0
   12.0277    1.1243    4.6264 C   0  0  0  0  0  0  0  0  0  0  0  0
   10.7902    0.5687    3.9304 C   0  0  0  0  0  0  0  0  0  0  0  0
   12.2368    0.8924    6.0976 C   0  0  0  0  0  0  0  0  0  0  0  0
   21.4710    4.1494    9.7940 C   0  0  0  0  0  0  0  0  0  0  0  0
   21.3619    5.6829    9.7804 C   0  0  0  0  0  0  0  0  0  0  0  0
   21.8622    6.4856    8.5737 C   0  0  0  0  0  0  0  0  0  0  0  0
   22.4833    5.7851    7.3848 C   0  0  0  0  0  0  0  0  0  0  0  0
   21.7525    8.0047    8.5493 C   0  0  0  0  0  0  0  0  0  0  0  0
   20.2698    8.3927    8.5777 C   0  0  0  0  0  0  0  0  0  0  0  0
   19.6663    8.1269    7.2210 C   0  0  0  0  0  0  0  0  0  0  0  0
   18.8179    9.1690    6.5006 C   0  0  0  0  0  0  0  0  0  0  0  0
   18.2820    8.7955    5.1205 C   0  0  0  0  0  0  0  0  0  0  0  0
   18.5788   10.5591    7.1143 C   0  0  0  0  0  0  0  0  0  0  0  0
   18.6333   11.6978    6.0836 C   0  0  0  0  0  0  0  0  0  0  0  0
   17.2419   12.2541    5.8309 C   0  0  0  0  0  0  0  0  0  0  0  0
   15.8644   12.2614    5.1878 C   0  0  0  0  0  0  0  0  0  0  0  0
   14.9730   13.4670    5.4266 C   0  0  0  0  0  0  0  0  0  0  0  0
   15.3327   11.0713    4.3807 C   0  0  0  0  0  0  0  0  0  0  0  0
 14 13  1  0  0  0
 12 13  1  0  0  0
 13 15  2  0  0  0
 15 11  1  0  0  0
 11 10  1  0  0  0
 10  7  1  0  0  0
  8  7  1  0  0  0
  7  9  2  0  0  0
  9  6  1  0  0  0
  6  5  1  0  0  0
  5  2  1  0  0  0
  3  2  1  0  0  0
  2  4  2  0  0  0
  4  1  1  0  0  0
  1 16  1  0  0  0
 16 17  1  0  0  0
 17 18  2  0  0  0
 18 19  1  0  0  0
 18 20  1  0  0  0
 20 21  1  0  0  0
 21 22  1  0  0  0
 22 23  2  0  0  0
 23 24  1  0  0  0
 23 25  1  0  0  0
 25 26  1  0  0  0
 26 27  1  0  0  0
 27 28  2  0  0  0
 28 30  1  0  0  0
 28 29  1  0  0  0
M  END
> <minimizedAffinity>
-9.80997

$$$$
4OMK_SQL_A_305


 30 29  0  0  0  0  0  0  0  0999 V2000
   19.4973    7.7888    6.2824 C   0  0  0  0  0  0  0  0  0  0  0  0
   19.8997    8.7676    8.6955 C   0  0  0  0  0  0  0  0  0  0  0  0
   19.3391    9.5882    9.8372 C   0  0  0  0  0  0  0  0  0  0  0  0
   19.0486    8.6238    7.4581 C   0  0  0  0  0  0  0  0  0  0  0  0
   21.2724    8.1033    8.8118 C   0  0  0  0  0  0  0  0  0  0  0  0
   21.3891    7.3463   10.1217 C   0  0  0  0  0  0  0  0  0  0  0  0
   21.7173    4.9078    9.3066 C   0  0  0  0  0  0  0  0  0  0  0  0
   23.1289    5.2242    8.8220 C   0  0  0  0  0  0  0  0  0  0  0  0
   20.8180    5.9437    9.9640 C   0  0  0  0  0  0  0  0  0  0  0  0
   21.1257    3.5406    9.0709 C   0  0  0  0  0  0  0  0  0  0  0  0
   20.5104    2.9365   10.2951 C   0  0  0  0  0  0  0  0  0  0  0  0
   20.2667   -0.0593    9.7197 C   0  0  0  0  0  0  0  0  0  0  0  0
   19.0815    0.8477    9.4990 C   0  0  0  0  0  0  0  0  0  0  0  0
   17.7562    0.2723    9.0124 C   0  0  0  0  0  0  0  0  0  0  0  0
   19.2084    2.3187    9.7851 C   0  0  0  0  0  0  0  0  0  0  0  0
   19.0183    8.5189    5.0470 C   0  0  0  0  0  0  0  0  0  0  0  0
   18.0312    9.6403    5.4104 C   0  0  0  0  0  0  0  0  0  0  0  0
   18.5070   11.0954    5.4948 C   0  0  0  0  0  0  0  0  0  0  0  0
   19.9553   11.4498    5.2367 C   0  0  0  0  0  0  0  0  0  0  0  0
   17.5346   12.2134    5.8482 C   0  0  0  0  0  0  0  0  0  0  0  0
   16.1968   11.9423    5.1507 C   0  0  0  0  0  0  0  0  0  0  0  0
   16.0475   12.8920    3.9883 C   0  0  0  0  0  0  0  0  0  0  0  0
   14.9553   13.9553    3.9543 C   0  0  0  0  0  0  0  0  0  0  0  0
   14.9192   14.8760    2.7368 C   0  0  0  0  0  0  0  0  0  0  0  0
   13.9828   14.1313    5.1331 C   0  0  0  0  0  0  0  0  0  0  0  0
   12.5727   13.5918    4.8456 C   0  0  0  0  0  0  0  0  0  0  0  0
   12.5968   12.0771    4.7248 C   0  0  0  0  0  0  0  0  0  0  0  0
   12.7238   10.7640    3.9693 C   0  0  0  0  0  0  0  0  0  0  0  0
   12.4408    9.4775    4.7242 C   0  0  0  0  0  0  0  0  0  0  0  0
   13.1946   10.7018    2.5116 C   0  0  0  0  0  0  0  0  0  0  0  0
 14 13  1  0  0  0
 12 13  1  0  0  0
 13 15  2  0  0  0
 15 11  1  0  0  0
 11 10  1  0  0  0
 10  7  1  0  0  0
  8  7  1  0  0  0
  7  9  2  0  0  0
  9  6  1  0  0  0
  6  5  1  0  0  0
  5  2  1  0  0  0
  3  2  1  0  0  0
  2  4  2  0  0  0
  4  1  1  0  0  0
  1 16  1  0  0  0
 16 17  1  0  0  0
 17 18  2  0  0  0
 18 19  1  0  0  0
 18 20  1  0  0  0
 20 21  1  0  0  0
 21 22  1  0  0  0
 22 23  2  0  0  0
 23 24  1  0  0  0
 23 25  1  0  0  0
 25 26  1  0  0  0
 26 27  1  0  0  0
 27 28  2  0  0  0
 28 30  1  0  0  0
 28 29  1  0  0  0
M  END
> <minimizedAffinity>
-9.80355

$$$$
4OMK_SQL_A_305


 30 29  0  0  0  0  0  0  0  0999 V2000
   19.4077    0.6631   10.1108 C   0  0  0  0  0  0  0  0  0  0  0  0
   17.1804    1.2110    8.8138 C   0  0  0  0  0  0  0  0  0  0  0  0
   16.5551    1.7111    7.5293 C   0  0  0  0  0  0  0  0  0  0  0  0
   18.6869    1.1864    8.8911 C   0  0  0  0  0  0  0  0  0  0  0  0
   16.3055    0.7383    9.9757 C   0  0  0  0  0  0  0  0  0  0  0  0
   15.1579   -0.1139    9.4666 C   0  0  0  0  0  0  0  0  0  0  0  0
   13.1696    0.1092    7.8188 C   0  0  0  0  0  0  0  0  0  0  0  0
   13.2658   -1.3681    7.4500 C   0  0  0  0  0  0  0  0  0  0  0  0
   14.0977    0.7714    8.8257 C   0  0  0  0  0  0  0  0  0  0  0  0
   12.1742    0.9999    7.1183 C   0  0  0  0  0  0  0  0  0  0  0  0
   12.5062    1.2520    5.6802 C   0  0  0  0  0  0  0  0  0  0  0  0
   12.0978    1.7286    2.6850 C   0  0  0  0  0  0  0  0  0  0  0  0
   11.1295    0.8580    3.4468 C   0  0  0  0  0  0  0  0  0  0  0  0
    9.9616    0.1963    2.7239 C   0  0  0  0  0  0  0  0  0  0  0  0
   11.3373    0.6273    4.9183 C   0  0  0  0  0  0  0  0  0  0  0  0
   20.6937    1.4542   10.2050 C   0  0  0  0  0  0  0  0  0  0  0  0
   20.4218    2.9137   10.6051 C   0  0  0  0  0  0  0  0  0  0  0  0
   21.0851    4.0645    9.8392 C   0  0  0  0  0  0  0  0  0  0  0  0
   22.0274    3.7838    8.6889 C   0  0  0  0  0  0  0  0  0  0  0  0
   20.8166    5.5134   10.2249 C   0  0  0  0  0  0  0  0  0  0  0  0
   19.9510    6.1609    9.1380 C   0  0  0  0  0  0  0  0  0  0  0  0
   19.7854    7.6273    9.4506 C   0  0  0  0  0  0  0  0  0  0  0  0
   19.4956    8.6536    8.3609 C   0  0  0  0  0  0  0  0  0  0  0  0
   19.3224   10.1052    8.8016 C   0  0  0  0  0  0  0  0  0  0  0  0
   19.3158    8.2245    6.8947 C   0  0  0  0  0  0  0  0  0  0  0  0
   19.6584    9.3345    5.8885 C   0  0  0  0  0  0  0  0  0  0  0  0
   18.3921    9.8939    5.2615 C   0  0  0  0  0  0  0  0  0  0  0  0
   17.2652   10.9037    5.1157 C   0  0  0  0  0  0  0  0  0  0  0  0
   16.1403   10.5814    4.1483 C   0  0  0  0  0  0  0  0  0  0  0  0
   17.2729   12.2491    5.8509 C   0  0  0  0  0  0  0  0  0  0  0  0
 14 13  1  0  0  0
 12 13  1  0  0  0
 13 15  2  0  0  0
 15 11  1  0  0  0
 11 10  1  0  0  0
 10  7  1  0  0  0
  8  7  1  0  0  0
  7  9  2  0  0  0
  9  6  1  0  0  0
  6  5  1  0  0  0
  5  2  1  0  0  0
  3  2  1  0  0  0
  2  4  2  0  0  0
  4  1  1  0  0  0
  1 16  1  0  0  0
 16 17  1  0  0  0
 17 18  2  0  0  0
 18 19  1  0  0  0
 18 20  1  0  0  0
 20 21  1  0  0  0
 21 22  1  0  0  0
 22 23  2  0  0  0
 23 24  1  0  0  0
 23 25  1  0  0  0
 25 26  1  0  0  0
 26 27  1  0  0  0
 27 28  2  0  0  0
 28 30  1  0  0  0
 28 29  1  0  0  0
M  END
> <minimizedAffinity>
-9.79292

$$$$
