3F7H_419_A_1


 41 44  0  0  0  0  0  0  0  0999 V2000
   81.2500   62.8055   13.6455 C   0  0  0  0  0  0  0  0  0  0  0  0
   80.8013   62.3754   14.7269 O   0  0  0  0  0  0  0  0  0  0  0  0
   80.7140   63.9245   13.0751 N   0  0  0  0  0  0  0  0  0  0  0  0
   79.4528   64.5260   13.5532 C   0  0  0  0  0  0  0  0  0  0  0  0
   81.2685   64.6790   11.9369 C   0  0  0  0  0  0  0  0  0  0  0  0
   80.7207   66.0828   12.1612 C   0  0  0  0  0  0  0  0  0  0  0  0
   79.3274   65.8402   12.7557 C   0  0  0  0  0  0  0  0  0  0  0  0
   78.1941   65.5964   11.7368 C   0  0  0  0  0  0  0  0  0  0  0  0
   77.9281   64.0922   11.7441 C   0  0  0  0  0  0  0  0  0  0  0  0
   78.2115   63.6730   13.1919 C   0  0  0  0  0  0  0  0  0  0  0  0
   77.0561   63.9781   14.0636 N   0  0  0  0  0  0  0  0  0  0  0  0
   76.3024   63.0348   14.6330 C   0  0  0  0  0  0  0  0  0  0  0  0
   76.3957   61.8349   14.3651 O   0  0  0  0  0  0  0  0  0  0  0  0
   76.8322   64.9219   14.2320 H   0  0  0  0  0  0  0  0  0  0  0  0
   75.2511   63.5156   15.6744 C   0  0  0  0  0  0  0  0  0  0  0  0
   75.7854   63.6932   17.1373 C   0  0  0  0  0  0  0  0  0  0  0  0
   75.0570   64.5508   17.9835 C   0  0  0  0  0  0  0  0  0  0  0  0
   75.4651   64.7567   19.2952 C   0  0  0  0  0  0  0  0  0  0  0  0
   76.5957   64.1157   19.7880 C   0  0  0  0  0  0  0  0  0  0  0  0
   77.3229   63.2645   18.9728 C   0  0  0  0  0  0  0  0  0  0  0  0
   76.9282   63.0478   17.6554 C   0  0  0  0  0  0  0  0  0  0  0  0
   74.0439   62.5419   15.5419 C   0  0  0  0  0  0  0  0  0  0  0  0
   73.7616   61.5510   16.5061 C   0  0  0  0  0  0  0  0  0  0  0  0
   72.6686   60.6997   16.3430 C   0  0  0  0  0  0  0  0  0  0  0  0
   71.8539   60.8255   15.2207 C   0  0  0  0  0  0  0  0  0  0  0  0
   72.1213   61.7988   14.2621 C   0  0  0  0  0  0  0  0  0  0  0  0
   73.2128   62.6544   14.4159 C   0  0  0  0  0  0  0  0  0  0  0  0
   82.4056   61.9980   12.9623 C   0  0  0  0  0  0  0  0  0  0  0  0
   85.2524   62.1808   12.9494 O   0  0  0  0  0  0  0  0  0  0  0  0
   84.6858   61.7080   13.9372 C   0  0  0  0  0  0  0  0  0  0  0  0
   83.3529   61.6204   14.0465 N   0  0  0  0  0  0  0  0  0  0  0  0
   82.9784   61.2867   14.8937 H   0  0  0  0  0  0  0  0  0  0  0  0
   85.5282   61.1921   15.1315 C   0  0  0  0  0  0  0  0  0  0  0  0
   85.4869   62.1586   16.3408 C   0  0  0  0  0  0  0  0  0  0  0  0
   86.9138   60.9217   14.6562 N   0  0  0  0  0  0  0  0  0  0  0  0
   87.1694   59.6303   13.9709 C   0  0  0  0  0  0  0  0  0  0  0  0
   87.5279   60.9615   15.4696 H   0  0  0  0  0  0  0  0  0  0  0  0
   81.9005   60.7602   12.1211 C   0  0  0  0  0  0  0  0  0  0  0  0
   82.8162   60.5645   10.8772 C   0  0  0  0  0  0  0  0  0  0  0  0
   81.8583   59.4202   12.9126 C   0  0  0  0  0  0  0  0  0  0  0  0
   80.4660   61.0372   11.5827 C   0  0  0  0  0  0  0  0  0  0  0  0
 29 30  2  0  0  0
 30 33  1  0  0  0
 30 31  1  0  0  0
 33 35  1  0  0  0
 33 34  1  0  0  0
 35 36  1  0  0  0
 31 28  1  0  0  0
 28 38  1  0  0  0
 28  1  1  0  0  0
 38 39  1  0  0  0
 38 40  1  0  0  0
 38 41  1  0  0  0
  1  2  2  0  0  0
  1  3  1  0  0  0
  3  4  1  0  0  0
  3  5  1  0  0  0
  4  7  1  0  0  0
  4 10  1  0  0  0
  5  6  1  0  0  0
  6  7  1  0  0  0
  7  8  1  0  0  0
  8  9  1  0  0  0
  9 10  1  0  0  0
 10 11  1  0  0  0
 11 12  1  0  0  0
 12 13  2  0  0  0
 12 15  1  0  0  0
 15 16  1  0  0  0
 15 22  1  0  0  0
 16 17  2  0  0  0
 16 21  1  0  0  0
 17 18  1  0  0  0
 18 19  2  0  0  0
 19 20  1  0  0  0
 20 21  2  0  0  0
 22 23  2  0  0  0
 22 27  1  0  0  0
 23 24  1  0  0  0
 24 25  2  0  0  0
 25 26  1  0  0  0
 26 27  2  0  0  0
 35 37  1  0  0  0
 31 32  1  0  0  0
 11 14  1  0  0  0
M  END
> <minimizedAffinity>
-7.55058

$$$$
3F7H_419_A_1


 41 44  0  0  0  0  0  0  0  0999 V2000
   81.0548   63.0151   13.7714 C   0  0  0  0  0  0  0  0  0  0  0  0
   80.6366   62.7479   14.9158 O   0  0  0  0  0  0  0  0  0  0  0  0
   80.6010   64.1231   13.1148 N   0  0  0  0  0  0  0  0  0  0  0  0
   79.4435   64.9048   13.5946 C   0  0  0  0  0  0  0  0  0  0  0  0
   81.1541   64.6936   11.8735 C   0  0  0  0  0  0  0  0  0  0  0  0
   80.7709   66.1646   11.9759 C   0  0  0  0  0  0  0  0  0  0  0  0
   79.4024   66.1378   12.6689 C   0  0  0  0  0  0  0  0  0  0  0  0
   78.1849   65.9189   11.7460 C   0  0  0  0  0  0  0  0  0  0  0  0
   77.7655   64.4615   11.9292 C   0  0  0  0  0  0  0  0  0  0  0  0
   78.0992   64.1615   13.3957 C   0  0  0  0  0  0  0  0  0  0  0  0
   77.0420   64.6781   14.2921 N   0  0  0  0  0  0  0  0  0  0  0  0
   75.9809   63.9567   14.6605 C   0  0  0  0  0  0  0  0  0  0  0  0
   75.6994   62.8606   14.1710 O   0  0  0  0  0  0  0  0  0  0  0  0
   77.1249   65.5978   14.6334 H   0  0  0  0  0  0  0  0  0  0  0  0
   75.0659   64.5716   15.7584 C   0  0  0  0  0  0  0  0  0  0  0  0
   74.6949   66.0813   15.5575 C   0  0  0  0  0  0  0  0  0  0  0  0
   73.3282   66.3904   15.4205 C   0  0  0  0  0  0  0  0  0  0  0  0
   72.9197   67.7061   15.2430 C   0  0  0  0  0  0  0  0  0  0  0  0
   73.8557   68.7328   15.2018 C   0  0  0  0  0  0  0  0  0  0  0  0
   75.2044   68.4498   15.3396 C   0  0  0  0  0  0  0  0  0  0  0  0
   75.6309   67.1365   15.5172 C   0  0  0  0  0  0  0  0  0  0  0  0
   75.7558   64.2517   17.1166 C   0  0  0  0  0  0  0  0  0  0  0  0
   76.8000   63.3096   17.2314 C   0  0  0  0  0  0  0  0  0  0  0  0
   77.3866   63.0550   18.4712 C   0  0  0  0  0  0  0  0  0  0  0  0
   76.9368   63.7310   19.6024 C   0  0  0  0  0  0  0  0  0  0  0  0
   75.9074   64.6628   19.5029 C   0  0  0  0  0  0  0  0  0  0  0  0
   75.3137   64.9236   18.2674 C   0  0  0  0  0  0  0  0  0  0  0  0
   82.0725   62.0206   13.1160 C   0  0  0  0  0  0  0  0  0  0  0  0
   84.9141   62.1997   12.9384 O   0  0  0  0  0  0  0  0  0  0  0  0
   84.4032   61.7773   13.9781 C   0  0  0  0  0  0  0  0  0  0  0  0
   83.0784   61.6966   14.1643 N   0  0  0  0  0  0  0  0  0  0  0  0
   82.7513   61.4060   15.0463 H   0  0  0  0  0  0  0  0  0  0  0  0
   85.3104   61.3207   15.1488 C   0  0  0  0  0  0  0  0  0  0  0  0
   85.2994   62.3254   16.3273 C   0  0  0  0  0  0  0  0  0  0  0  0
   86.6797   61.0669   14.6199 N   0  0  0  0  0  0  0  0  0  0  0  0
   86.9556   59.7341   14.0282 C   0  0  0  0  0  0  0  0  0  0  0  0
   87.3334   61.1986   15.3917 H   0  0  0  0  0  0  0  0  0  0  0  0
   81.3920   60.7390   12.4923 C   0  0  0  0  0  0  0  0  0  0  0  0
   82.3281   60.1235   11.4111 C   0  0  0  0  0  0  0  0  0  0  0  0
   81.0441   59.6289   13.5269 C   0  0  0  0  0  0  0  0  0  0  0  0
   80.0736   61.1406   11.7678 C   0  0  0  0  0  0  0  0  0  0  0  0
 29 30  2  0  0  0
 30 33  1  0  0  0
 30 31  1  0  0  0
 33 35  1  0  0  0
 33 34  1  0  0  0
 35 36  1  0  0  0
 31 28  1  0  0  0
 28 38  1  0  0  0
 28  1  1  0  0  0
 38 39  1  0  0  0
 38 40  1  0  0  0
 38 41  1  0  0  0
  1  2  2  0  0  0
  1  3  1  0  0  0
  3  4  1  0  0  0
  3  5  1  0  0  0
  4  7  1  0  0  0
  4 10  1  0  0  0
  5  6  1  0  0  0
  6  7  1  0  0  0
  7  8  1  0  0  0
  8  9  1  0  0  0
  9 10  1  0  0  0
 10 11  1  0  0  0
 11 12  1  0  0  0
 12 13  2  0  0  0
 12 15  1  0  0  0
 15 16  1  0  0  0
 15 22  1  0  0  0
 16 17  2  0  0  0
 16 21  1  0  0  0
 17 18  1  0  0  0
 18 19  2  0  0  0
 19 20  1  0  0  0
 20 21  2  0  0  0
 22 23  2  0  0  0
 22 27  1  0  0  0
 23 24  1  0  0  0
 24 25  2  0  0  0
 25 26  1  0  0  0
 26 27  2  0  0  0
 35 37  1  0  0  0
 31 32  1  0  0  0
 11 14  1  0  0  0
M  END
> <minimizedAffinity>
-7.33991

$$$$
3F7H_419_A_1


 41 44  0  0  0  0  0  0  0  0999 V2000
   81.3321   62.6902   13.6503 C   0  0  0  0  0  0  0  0  0  0  0  0
   81.0102   62.4651   14.8341 O   0  0  0  0  0  0  0  0  0  0  0  0
   80.7040   63.6744   12.9422 N   0  0  0  0  0  0  0  0  0  0  0  0
   79.4785   64.3378   13.4313 C   0  0  0  0  0  0  0  0  0  0  0  0
   81.1145   64.2089   11.6314 C   0  0  0  0  0  0  0  0  0  0  0  0
   80.5459   65.6222   11.6480 C   0  0  0  0  0  0  0  0  0  0  0  0
   79.2290   65.4766   12.4215 C   0  0  0  0  0  0  0  0  0  0  0  0
   78.0068   65.0300   11.5915 C   0  0  0  0  0  0  0  0  0  0  0  0
   77.7933   63.5506   11.9061 C   0  0  0  0  0  0  0  0  0  0  0  0
   78.2360   63.4151   13.3682 C   0  0  0  0  0  0  0  0  0  0  0  0
   77.1656   63.8629   14.2856 N   0  0  0  0  0  0  0  0  0  0  0  0
   77.2307   63.7142   15.6107 C   0  0  0  0  0  0  0  0  0  0  0  0
   78.1041   63.0559   16.1799 O   0  0  0  0  0  0  0  0  0  0  0  0
   76.3670   64.2910   13.9007 H   0  0  0  0  0  0  0  0  0  0  0  0
   76.1190   64.4113   16.4467 C   0  0  0  0  0  0  0  0  0  0  0  0
   75.0479   63.4537   17.0736 C   0  0  0  0  0  0  0  0  0  0  0  0
   74.5778   63.7766   18.3608 C   0  0  0  0  0  0  0  0  0  0  0  0
   73.6253   62.9787   18.9816 C   0  0  0  0  0  0  0  0  0  0  0  0
   73.1233   61.8540   18.3376 C   0  0  0  0  0  0  0  0  0  0  0  0
   73.5694   61.5222   17.0692 C   0  0  0  0  0  0  0  0  0  0  0  0
   74.5244   62.3106   16.4330 C   0  0  0  0  0  0  0  0  0  0  0  0
   75.5321   65.5248   15.5310 C   0  0  0  0  0  0  0  0  0  0  0  0
   74.2200   65.4667   15.0150 C   0  0  0  0  0  0  0  0  0  0  0  0
   73.7386   66.4884   14.1964 C   0  0  0  0  0  0  0  0  0  0  0  0
   74.5581   67.5697   13.8832 C   0  0  0  0  0  0  0  0  0  0  0  0
   75.8545   67.6392   14.3857 C   0  0  0  0  0  0  0  0  0  0  0  0
   76.3455   66.6217   15.2046 C   0  0  0  0  0  0  0  0  0  0  0  0
   82.4386   61.7845   13.0103 C   0  0  0  0  0  0  0  0  0  0  0  0
   85.2424   62.3038   13.0969 O   0  0  0  0  0  0  0  0  0  0  0  0
   84.7127   61.7095   14.0384 C   0  0  0  0  0  0  0  0  0  0  0  0
   83.3977   61.4582   14.1009 N   0  0  0  0  0  0  0  0  0  0  0  0
   83.0454   61.0328   14.9159 H   0  0  0  0  0  0  0  0  0  0  0  0
   85.5816   61.2270   15.2278 C   0  0  0  0  0  0  0  0  0  0  0  0
   85.6164   62.2553   16.3853 C   0  0  0  0  0  0  0  0  0  0  0  0
   86.9391   60.8852   14.7188 N   0  0  0  0  0  0  0  0  0  0  0  0
   87.1005   59.6034   13.9882 C   0  0  0  0  0  0  0  0  0  0  0  0
   87.5677   60.8593   15.5216 H   0  0  0  0  0  0  0  0  0  0  0  0
   81.8659   60.5039   12.2844 C   0  0  0  0  0  0  0  0  0  0  0  0
   82.6871   59.2510   12.7085 C   0  0  0  0  0  0  0  0  0  0  0  0
   80.3617   60.2224   12.5708 C   0  0  0  0  0  0  0  0  0  0  0  0
   82.0349   60.6502   10.7435 C   0  0  0  0  0  0  0  0  0  0  0  0
 29 30  2  0  0  0
 30 33  1  0  0  0
 30 31  1  0  0  0
 33 35  1  0  0  0
 33 34  1  0  0  0
 35 36  1  0  0  0
 31 28  1  0  0  0
 28 38  1  0  0  0
 28  1  1  0  0  0
 38 39  1  0  0  0
 38 40  1  0  0  0
 38 41  1  0  0  0
  1  2  2  0  0  0
  1  3  1  0  0  0
  3  4  1  0  0  0
  3  5  1  0  0  0
  4  7  1  0  0  0
  4 10  1  0  0  0
  5  6  1  0  0  0
  6  7  1  0  0  0
  7  8  1  0  0  0
  8  9  1  0  0  0
  9 10  1  0  0  0
 10 11  1  0  0  0
 11 12  1  0  0  0
 12 13  2  0  0  0
 12 15  1  0  0  0
 15 16  1  0  0  0
 15 22  1  0  0  0
 16 17  2  0  0  0
 16 21  1  0  0  0
 17 18  1  0  0  0
 18 19  2  0  0  0
 19 20  1  0  0  0
 20 21  2  0  0  0
 22 23  2  0  0  0
 22 27  1  0  0  0
 23 24  1  0  0  0
 24 25  2  0  0  0
 25 26  1  0  0  0
 26 27  2  0  0  0
 35 37  1  0  0  0
 31 32  1  0  0  0
 11 14  1  0  0  0
M  END
> <minimizedAffinity>
-7.07675

$$$$
3F7H_419_A_1


 41 44  0  0  0  0  0  0  0  0999 V2000
   77.2172   62.6093   13.7101 C   0  0  0  0  0  0  0  0  0  0  0  0
   77.9450   61.6447   14.0194 O   0  0  0  0  0  0  0  0  0  0  0  0
   77.6080   63.4803   12.7337 N   0  0  0  0  0  0  0  0  0  0  0  0
   78.9775   63.4818   12.1809 C   0  0  0  0  0  0  0  0  0  0  0  0
   76.7758   64.5208   12.1035 C   0  0  0  0  0  0  0  0  0  0  0  0
   77.4224   64.6894   10.7344 C   0  0  0  0  0  0  0  0  0  0  0  0
   78.9176   64.4827   11.0089 C   0  0  0  0  0  0  0  0  0  0  0  0
   79.6917   65.7277   11.4913 C   0  0  0  0  0  0  0  0  0  0  0  0
   79.8862   65.5543   12.9964 C   0  0  0  0  0  0  0  0  0  0  0  0
   80.0224   64.0378   13.1800 C   0  0  0  0  0  0  0  0  0  0  0  0
   81.3940   63.5896   12.8546 N   0  0  0  0  0  0  0  0  0  0  0  0
   82.0092   62.5958   13.4995 C   0  0  0  0  0  0  0  0  0  0  0  0
   81.5625   62.0665   14.5195 O   0  0  0  0  0  0  0  0  0  0  0  0
   81.8762   64.0461   12.1277 H   0  0  0  0  0  0  0  0  0  0  0  0
   83.3675   62.1170   12.9107 C   0  0  0  0  0  0  0  0  0  0  0  0
   83.2973   60.8330   12.0143 C   0  0  0  0  0  0  0  0  0  0  0  0
   82.3246   59.8722   12.3498 C   0  0  0  0  0  0  0  0  0  0  0  0
   82.1978   58.7093   11.6007 C   0  0  0  0  0  0  0  0  0  0  0  0
   83.0281   58.4827   10.5093 C   0  0  0  0  0  0  0  0  0  0  0  0
   83.9879   59.4180   10.1602 C   0  0  0  0  0  0  0  0  0  0  0  0
   84.1290   60.5884   10.9009 C   0  0  0  0  0  0  0  0  0  0  0  0
   84.3413   62.0074   14.1201 C   0  0  0  0  0  0  0  0  0  0  0  0
   85.1272   60.8597   14.3572 C   0  0  0  0  0  0  0  0  0  0  0  0
   85.9847   60.8072   15.4562 C   0  0  0  0  0  0  0  0  0  0  0  0
   86.0629   61.8914   16.3265 C   0  0  0  0  0  0  0  0  0  0  0  0
   85.2930   63.0297   16.1039 C   0  0  0  0  0  0  0  0  0  0  0  0
   84.4316   63.0913   15.0079 C   0  0  0  0  0  0  0  0  0  0  0  0
   75.8801   62.7984   14.5042 C   0  0  0  0  0  0  0  0  0  0  0  0
   73.8632   61.6001   12.8811 O   0  0  0  0  0  0  0  0  0  0  0  0
   74.3034   60.9765   13.8495 C   0  0  0  0  0  0  0  0  0  0  0  0
   75.2777   61.4442   14.6421 N   0  0  0  0  0  0  0  0  0  0  0  0
   75.6148   60.8578   15.3574 H   0  0  0  0  0  0  0  0  0  0  0  0
   73.7303   59.5762   14.1855 C   0  0  0  0  0  0  0  0  0  0  0  0
   72.7882   59.0452   13.0770 C   0  0  0  0  0  0  0  0  0  0  0  0
   73.0727   59.6380   15.5207 N   0  0  0  0  0  0  0  0  0  0  0  0
   71.9315   60.5724   15.6861 C   0  0  0  0  0  0  0  0  0  0  0  0
   73.7858   59.9052   16.1993 H   0  0  0  0  0  0  0  0  0  0  0  0
   76.0652   63.5385   15.8873 C   0  0  0  0  0  0  0  0  0  0  0  0
   76.0685   65.0788   15.6600 C   0  0  0  0  0  0  0  0  0  0  0  0
   74.9742   63.2030   16.9461 C   0  0  0  0  0  0  0  0  0  0  0  0
   77.4486   63.1729   16.5011 C   0  0  0  0  0  0  0  0  0  0  0  0
 29 30  2  0  0  0
 30 33  1  0  0  0
 30 31  1  0  0  0
 33 35  1  0  0  0
 33 34  1  0  0  0
 35 36  1  0  0  0
 31 28  1  0  0  0
 28 38  1  0  0  0
 28  1  1  0  0  0
 38 39  1  0  0  0
 38 40  1  0  0  0
 38 41  1  0  0  0
  1  2  2  0  0  0
  1  3  1  0  0  0
  3  4  1  0  0  0
  3  5  1  0  0  0
  4  7  1  0  0  0
  4 10  1  0  0  0
  5  6  1  0  0  0
  6  7  1  0  0  0
  7  8  1  0  0  0
  8  9  1  0  0  0
  9 10  1  0  0  0
 10 11  1  0  0  0
 11 12  1  0  0  0
 12 13  2  0  0  0
 12 15  1  0  0  0
 15 16  1  0  0  0
 15 22  1  0  0  0
 16 17  2  0  0  0
 16 21  1  0  0  0
 17 18  1  0  0  0
 18 19  2  0  0  0
 19 20  1  0  0  0
 20 21  2  0  0  0
 22 23  2  0  0  0
 22 27  1  0  0  0
 23 24  1  0  0  0
 24 25  2  0  0  0
 25 26  1  0  0  0
 26 27  2  0  0  0
 35 37  1  0  0  0
 31 32  1  0  0  0
 11 14  1  0  0  0
M  END
> <minimizedAffinity>
-5.95323

$$$$
3F7H_419_A_1


 41 44  0  0  0  0  0  0  0  0999 V2000
   78.5167   62.4208   14.0860 C   0  0  0  0  0  0  0  0  0  0  0  0
   79.5374   63.0178   14.4831 O   0  0  0  0  0  0  0  0  0  0  0  0
   78.6112   61.1512   13.5920 N   0  0  0  0  0  0  0  0  0  0  0  0
   79.9097   60.5243   13.2728 C   0  0  0  0  0  0  0  0  0  0  0  0
   77.4909   60.2397   13.2986 C   0  0  0  0  0  0  0  0  0  0  0  0
   78.1267   58.8628   13.4436 C   0  0  0  0  0  0  0  0  0  0  0  0
   79.5559   59.0642   12.9236 C   0  0  0  0  0  0  0  0  0  0  0  0
   79.7381   58.9511   11.3952 C   0  0  0  0  0  0  0  0  0  0  0  0
   79.8640   60.3807   10.8721 C   0  0  0  0  0  0  0  0  0  0  0  0
   80.5692   61.1305   12.0091 C   0  0  0  0  0  0  0  0  0  0  0  0
   82.0279   60.8876   11.9741 N   0  0  0  0  0  0  0  0  0  0  0  0
   82.9250   61.7665   12.4266 C   0  0  0  0  0  0  0  0  0  0  0  0
   82.6397   62.9166   12.7673 O   0  0  0  0  0  0  0  0  0  0  0  0
   82.3526   60.0372   11.5992 H   0  0  0  0  0  0  0  0  0  0  0  0
   84.4017   61.2818   12.4996 C   0  0  0  0  0  0  0  0  0  0  0  0
   84.6423   59.7909   12.0795 C   0  0  0  0  0  0  0  0  0  0  0  0
   85.6585   59.5494   11.1356 C   0  0  0  0  0  0  0  0  0  0  0  0
   85.9344   58.2542   10.7161 C   0  0  0  0  0  0  0  0  0  0  0  0
   85.2122   57.1818   11.2259 C   0  0  0  0  0  0  0  0  0  0  0  0
   84.2119   57.3982   12.1590 C   0  0  0  0  0  0  0  0  0  0  0  0
   83.9219   58.6900   12.5895 C   0  0  0  0  0  0  0  0  0  0  0  0
   84.8964   61.6367   13.9321 C   0  0  0  0  0  0  0  0  0  0  0  0
   84.5567   62.8479   14.5716 C   0  0  0  0  0  0  0  0  0  0  0  0
   85.0258   63.1226   15.8562 C   0  0  0  0  0  0  0  0  0  0  0  0
   85.8371   62.1987   16.5098 C   0  0  0  0  0  0  0  0  0  0  0  0
   86.1797   61.0001   15.8902 C   0  0  0  0  0  0  0  0  0  0  0  0
   85.7161   60.7167   14.6050 C   0  0  0  0  0  0  0  0  0  0  0  0
   77.1538   63.1913   14.1390 C   0  0  0  0  0  0  0  0  0  0  0  0
   75.3877   62.5659   16.2903 O   0  0  0  0  0  0  0  0  0  0  0  0
   76.1910   63.4918   16.4231 C   0  0  0  0  0  0  0  0  0  0  0  0
   77.0835   63.8295   15.4819 N   0  0  0  0  0  0  0  0  0  0  0  0
   77.7305   64.5415   15.6910 H   0  0  0  0  0  0  0  0  0  0  0  0
   76.2016   64.3165   17.7353 C   0  0  0  0  0  0  0  0  0  0  0  0
   76.3231   63.4198   18.9921 C   0  0  0  0  0  0  0  0  0  0  0  0
   74.9923   65.1860   17.7617 N   0  0  0  0  0  0  0  0  0  0  0  0
   74.9854   66.3864   16.8890 C   0  0  0  0  0  0  0  0  0  0  0  0
   74.8691   65.5070   18.7220 H   0  0  0  0  0  0  0  0  0  0  0  0
   76.9609   64.2175   12.9538 C   0  0  0  0  0  0  0  0  0  0  0  0
   77.4813   65.6197   13.3862 C   0  0  0  0  0  0  0  0  0  0  0  0
   77.6800   63.8152   11.6329 C   0  0  0  0  0  0  0  0  0  0  0  0
   75.4451   64.3799   12.6370 C   0  0  0  0  0  0  0  0  0  0  0  0
 29 30  2  0  0  0
 30 33  1  0  0  0
 30 31  1  0  0  0
 33 35  1  0  0  0
 33 34  1  0  0  0
 35 36  1  0  0  0
 31 28  1  0  0  0
 28 38  1  0  0  0
 28  1  1  0  0  0
 38 39  1  0  0  0
 38 40  1  0  0  0
 38 41  1  0  0  0
  1  2  2  0  0  0
  1  3  1  0  0  0
  3  4  1  0  0  0
  3  5  1  0  0  0
  4  7  1  0  0  0
  4 10  1  0  0  0
  5  6  1  0  0  0
  6  7  1  0  0  0
  7  8  1  0  0  0
  8  9  1  0  0  0
  9 10  1  0  0  0
 10 11  1  0  0  0
 11 12  1  0  0  0
 12 13  2  0  0  0
 12 15  1  0  0  0
 15 16  1  0  0  0
 15 22  1  0  0  0
 16 17  2  0  0  0
 16 21  1  0  0  0
 17 18  1  0  0  0
 18 19  2  0  0  0
 19 20  1  0  0  0
 20 21  2  0  0  0
 22 23  2  0  0  0
 22 27  1  0  0  0
 23 24  1  0  0  0
 24 25  2  0  0  0
 25 26  1  0  0  0
 26 27  2  0  0  0
 35 37  1  0  0  0
 31 32  1  0  0  0
 11 14  1  0  0  0
M  END
> <minimizedAffinity>
-5.89182

$$$$
3F7H_419_A_1


 41 44  0  0  0  0  0  0  0  0999 V2000
   73.7404   66.1360   16.0118 C   0  0  0  0  0  0  0  0  0  0  0  0
   74.2392   67.1153   15.4218 O   0  0  0  0  0  0  0  0  0  0  0  0
   74.5459   65.1666   16.5373 N   0  0  0  0  0  0  0  0  0  0  0  0
   75.9886   65.0892   16.2314 C   0  0  0  0  0  0  0  0  0  0  0  0
   74.1329   64.0816   17.4453 C   0  0  0  0  0  0  0  0  0  0  0  0
   75.4156   63.7680   18.2051 C   0  0  0  0  0  0  0  0  0  0  0  0
   76.5192   63.9780   17.1602 C   0  0  0  0  0  0  0  0  0  0  0  0
   76.8105   62.7753   16.2380 C   0  0  0  0  0  0  0  0  0  0  0  0
   76.1511   63.0941   14.8975 C   0  0  0  0  0  0  0  0  0  0  0  0
   76.2657   64.6191   14.7818 C   0  0  0  0  0  0  0  0  0  0  0  0
   77.6150   65.0117   14.3199 N   0  0  0  0  0  0  0  0  0  0  0  0
   77.9034   65.2655   13.0414 C   0  0  0  0  0  0  0  0  0  0  0  0
   77.1243   65.0468   12.1112 O   0  0  0  0  0  0  0  0  0  0  0  0
   78.3347   65.0896   14.9871 H   0  0  0  0  0  0  0  0  0  0  0  0
   79.3133   65.8545   12.7476 C   0  0  0  0  0  0  0  0  0  0  0  0
   79.3247   67.2346   12.0045 C   0  0  0  0  0  0  0  0  0  0  0  0
   80.5170   67.5977   11.3498 C   0  0  0  0  0  0  0  0  0  0  0  0
   80.6040   68.8037   10.6661 C   0  0  0  0  0  0  0  0  0  0  0  0
   79.5136   69.6643   10.6181 C   0  0  0  0  0  0  0  0  0  0  0  0
   78.3304   69.3230   11.2517 C   0  0  0  0  0  0  0  0  0  0  0  0
   78.2265   68.1185   11.9421 C   0  0  0  0  0  0  0  0  0  0  0  0
   80.1045   64.7256   12.0247 C   0  0  0  0  0  0  0  0  0  0  0  0
   79.8286   64.3399   10.6956 C   0  0  0  0  0  0  0  0  0  0  0  0
   80.5639   63.3208   10.0902 C   0  0  0  0  0  0  0  0  0  0  0  0
   81.5730   62.6776   10.8022 C   0  0  0  0  0  0  0  0  0  0  0  0
   81.8553   63.0484   12.1139 C   0  0  0  0  0  0  0  0  0  0  0  0
   81.1247   64.0660   12.7285 C   0  0  0  0  0  0  0  0  0  0  0  0
   72.1781   66.0471   16.0860 C   0  0  0  0  0  0  0  0  0  0  0  0
   71.3336   66.4991   18.7731 O   0  0  0  0  0  0  0  0  0  0  0  0
   71.2989   67.4324   17.9680 C   0  0  0  0  0  0  0  0  0  0  0  0
   71.7130   67.3217   16.6982 N   0  0  0  0  0  0  0  0  0  0  0  0
   71.7093   68.1308   16.1374 H   0  0  0  0  0  0  0  0  0  0  0  0
   70.7665   68.8162   18.4196 C   0  0  0  0  0  0  0  0  0  0  0  0
   71.3839   69.9783   17.6032 C   0  0  0  0  0  0  0  0  0  0  0  0
   70.9905   68.9581   19.8854 N   0  0  0  0  0  0  0  0  0  0  0  0
   69.8160   69.2733   20.7364 C   0  0  0  0  0  0  0  0  0  0  0  0
   71.6720   69.7052   20.0183 H   0  0  0  0  0  0  0  0  0  0  0  0
   71.4953   65.7419   14.6948 C   0  0  0  0  0  0  0  0  0  0  0  0
   70.0984   65.0952   14.9284 C   0  0  0  0  0  0  0  0  0  0  0  0
   71.3096   66.9902   13.7830 C   0  0  0  0  0  0  0  0  0  0  0  0
   72.3446   64.7021   13.9062 C   0  0  0  0  0  0  0  0  0  0  0  0
 29 30  2  0  0  0
 30 33  1  0  0  0
 30 31  1  0  0  0
 33 35  1  0  0  0
 33 34  1  0  0  0
 35 36  1  0  0  0
 31 28  1  0  0  0
 28 38  1  0  0  0
 28  1  1  0  0  0
 38 39  1  0  0  0
 38 40  1  0  0  0
 38 41  1  0  0  0
  1  2  2  0  0  0
  1  3  1  0  0  0
  3  4  1  0  0  0
  3  5  1  0  0  0
  4  7  1  0  0  0
  4 10  1  0  0  0
  5  6  1  0  0  0
  6  7  1  0  0  0
  7  8  1  0  0  0
  8  9  1  0  0  0
  9 10  1  0  0  0
 10 11  1  0  0  0
 11 12  1  0  0  0
 12 13  2  0  0  0
 12 15  1  0  0  0
 15 16  1  0  0  0
 15 22  1  0  0  0
 16 17  2  0  0  0
 16 21  1  0  0  0
 17 18  1  0  0  0
 18 19  2  0  0  0
 19 20  1  0  0  0
 20 21  2  0  0  0
 22 23  2  0  0  0
 22 27  1  0  0  0
 23 24  1  0  0  0
 24 25  2  0  0  0
 25 26  1  0  0  0
 26 27  2  0  0  0
 35 37  1  0  0  0
 31 32  1  0  0  0
 11 14  1  0  0  0
M  END
> <minimizedAffinity>
-5.81819

$$$$
3F7H_419_A_1


 41 44  0  0  0  0  0  0  0  0999 V2000
   82.4058   61.0203   11.3279 C   0  0  0  0  0  0  0  0  0  0  0  0
   82.3635   61.7039   10.2855 O   0  0  0  0  0  0  0  0  0  0  0  0
   81.3372   60.9959   12.1779 N   0  0  0  0  0  0  0  0  0  0  0  0
   80.2075   61.9387   12.0511 C   0  0  0  0  0  0  0  0  0  0  0  0
   81.1429   60.0783   13.3147 C   0  0  0  0  0  0  0  0  0  0  0  0
   79.6265   60.0216   13.4498 C   0  0  0  0  0  0  0  0  0  0  0  0
   79.1740   61.4407   13.0820 C   0  0  0  0  0  0  0  0  0  0  0  0
   79.2043   62.4747   14.2274 C   0  0  0  0  0  0  0  0  0  0  0  0
   80.4470   63.3325   13.9968 C   0  0  0  0  0  0  0  0  0  0  0  0
   80.5856   63.3811   12.4702 C   0  0  0  0  0  0  0  0  0  0  0  0
   79.6677   64.3857   11.8904 N   0  0  0  0  0  0  0  0  0  0  0  0
   79.9652   65.6844   11.8078 C   0  0  0  0  0  0  0  0  0  0  0  0
   80.9534   66.1919   12.3428 O   0  0  0  0  0  0  0  0  0  0  0  0
   78.7956   64.0820   11.5490 H   0  0  0  0  0  0  0  0  0  0  0  0
   78.9809   66.5759   10.9971 C   0  0  0  0  0  0  0  0  0  0  0  0
   79.6149   67.3582    9.7958 C   0  0  0  0  0  0  0  0  0  0  0  0
   80.4486   68.4477   10.1119 C   0  0  0  0  0  0  0  0  0  0  0  0
   81.0503   69.1881    9.1023 C   0  0  0  0  0  0  0  0  0  0  0  0
   80.8385   68.8596    7.7686 C   0  0  0  0  0  0  0  0  0  0  0  0
   80.0257   67.7884    7.4372 C   0  0  0  0  0  0  0  0  0  0  0  0
   79.4141   67.0365    8.4366 C   0  0  0  0  0  0  0  0  0  0  0  0
   78.2591   67.4742   12.0434 C   0  0  0  0  0  0  0  0  0  0  0  0
   77.9899   67.0378   13.3581 C   0  0  0  0  0  0  0  0  0  0  0  0
   77.3383   67.8786   14.2605 C   0  0  0  0  0  0  0  0  0  0  0  0
   76.9476   69.1540   13.8610 C   0  0  0  0  0  0  0  0  0  0  0  0
   77.2071   69.5968   12.5670 C   0  0  0  0  0  0  0  0  0  0  0  0
   77.8574   68.7628   11.6568 C   0  0  0  0  0  0  0  0  0  0  0  0
   83.7283   60.2388   11.6348 C   0  0  0  0  0  0  0  0  0  0  0  0
   85.5059   62.0801   12.8950 O   0  0  0  0  0  0  0  0  0  0  0  0
   84.8750   61.2823   13.5920 C   0  0  0  0  0  0  0  0  0  0  0  0
   83.9899   60.4099   13.0901 N   0  0  0  0  0  0  0  0  0  0  0  0
   83.4829   59.8494   13.7211 H   0  0  0  0  0  0  0  0  0  0  0  0
   85.0853   61.2712   15.1275 C   0  0  0  0  0  0  0  0  0  0  0  0
   85.1027   62.6983   15.7287 C   0  0  0  0  0  0  0  0  0  0  0  0
   86.3233   60.5012   15.4336 N   0  0  0  0  0  0  0  0  0  0  0  0
   86.9159   59.6848   14.3449 C   0  0  0  0  0  0  0  0  0  0  0  0
   86.1060   59.8693   16.2042 H   0  0  0  0  0  0  0  0  0  0  0  0
   83.6870   58.7250   11.1860 C   0  0  0  0  0  0  0  0  0  0  0  0
   84.8927   58.4244   10.2479 C   0  0  0  0  0  0  0  0  0  0  0  0
   83.7168   57.7054   12.3622 C   0  0  0  0  0  0  0  0  0  0  0  0
   82.3964   58.4545   10.3580 C   0  0  0  0  0  0  0  0  0  0  0  0
 29 30  2  0  0  0
 30 33  1  0  0  0
 30 31  1  0  0  0
 33 35  1  0  0  0
 33 34  1  0  0  0
 35 36  1  0  0  0
 31 28  1  0  0  0
 28 38  1  0  0  0
 28  1  1  0  0  0
 38 39  1  0  0  0
 38 40  1  0  0  0
 38 41  1  0  0  0
  1  2  2  0  0  0
  1  3  1  0  0  0
  3  4  1  0  0  0
  3  5  1  0  0  0
  4  7  1  0  0  0
  4 10  1  0  0  0
  5  6  1  0  0  0
  6  7  1  0  0  0
  7  8  1  0  0  0
  8  9  1  0  0  0
  9 10  1  0  0  0
 10 11  1  0  0  0
 11 12  1  0  0  0
 12 13  2  0  0  0
 12 15  1  0  0  0
 15 16  1  0  0  0
 15 22  1  0  0  0
 16 17  2  0  0  0
 16 21  1  0  0  0
 17 18  1  0  0  0
 18 19  2  0  0  0
 19 20  1  0  0  0
 20 21  2  0  0  0
 22 23  2  0  0  0
 22 27  1  0  0  0
 23 24  1  0  0  0
 24 25  2  0  0  0
 25 26  1  0  0  0
 26 27  2  0  0  0
 35 37  1  0  0  0
 31 32  1  0  0  0
 11 14  1  0  0  0
M  END
> <minimizedAffinity>
-5.52758

$$$$
3F7H_419_A_1


 41 44  0  0  0  0  0  0  0  0999 V2000
   79.6086   62.6658   13.8951 C   0  0  0  0  0  0  0  0  0  0  0  0
   79.8735   63.0576   15.0493 O   0  0  0  0  0  0  0  0  0  0  0  0
   78.4429   63.0424   13.2917 N   0  0  0  0  0  0  0  0  0  0  0  0
   77.3492   63.7026   14.0328 C   0  0  0  0  0  0  0  0  0  0  0  0
   78.0906   62.8554   11.8729 C   0  0  0  0  0  0  0  0  0  0  0  0
   77.0962   63.9813   11.6188 C   0  0  0  0  0  0  0  0  0  0  0  0
   76.3315   64.0988   12.9437 C   0  0  0  0  0  0  0  0  0  0  0  0
   75.1414   63.1323   13.1217 C   0  0  0  0  0  0  0  0  0  0  0  0
   75.6248   62.0258   14.0572 C   0  0  0  0  0  0  0  0  0  0  0  0
   76.6115   62.7359   14.9922 C   0  0  0  0  0  0  0  0  0  0  0  0
   75.8929   63.4594   16.0639 N   0  0  0  0  0  0  0  0  0  0  0  0
   76.4439   63.7496   17.2446 C   0  0  0  0  0  0  0  0  0  0  0  0
   77.5359   63.3109   17.6127 O   0  0  0  0  0  0  0  0  0  0  0  0
   74.9640   63.7402   15.8984 H   0  0  0  0  0  0  0  0  0  0  0  0
   75.6279   64.6823   18.1853 C   0  0  0  0  0  0  0  0  0  0  0  0
   74.7040   63.9529   19.2205 C   0  0  0  0  0  0  0  0  0  0  0  0
   73.7228   63.0870   18.7016 C   0  0  0  0  0  0  0  0  0  0  0  0
   72.8682   62.4014   19.5556 C   0  0  0  0  0  0  0  0  0  0  0  0
   72.9744   62.5603   20.9322 C   0  0  0  0  0  0  0  0  0  0  0  0
   73.9364   63.4039   21.4623 C   0  0  0  0  0  0  0  0  0  0  0  0
   74.8003   64.0992   20.6206 C   0  0  0  0  0  0  0  0  0  0  0  0
   74.8871   65.6851   17.2533 C   0  0  0  0  0  0  0  0  0  0  0  0
   73.5052   65.9464   17.3690 C   0  0  0  0  0  0  0  0  0  0  0  0
   72.8847   66.8525   16.5090 C   0  0  0  0  0  0  0  0  0  0  0  0
   73.6317   67.4999   15.5283 C   0  0  0  0  0  0  0  0  0  0  0  0
   74.9957   67.2512   15.4034 C   0  0  0  0  0  0  0  0  0  0  0  0
   75.6252   66.3457   16.2583 C   0  0  0  0  0  0  0  0  0  0  0  0
   80.6324   61.7074   13.1970 C   0  0  0  0  0  0  0  0  0  0  0  0
   79.9669   58.9959   13.7825 O   0  0  0  0  0  0  0  0  0  0  0  0
   79.5970   59.4873   12.7139 C   0  0  0  0  0  0  0  0  0  0  0  0
   79.8298   60.7625   12.3733 N   0  0  0  0  0  0  0  0  0  0  0  0
   79.4474   61.0937   11.5287 H   0  0  0  0  0  0  0  0  0  0  0  0
   78.8128   58.6168   11.6993 C   0  0  0  0  0  0  0  0  0  0  0  0
   79.4262   58.6739   10.2785 C   0  0  0  0  0  0  0  0  0  0  0  0
   77.3809   59.0263   11.7264 N   0  0  0  0  0  0  0  0  0  0  0  0
   76.5012   58.3960   12.7422 C   0  0  0  0  0  0  0  0  0  0  0  0
   76.9866   58.8158   10.8095 H   0  0  0  0  0  0  0  0  0  0  0  0
   81.7429   62.4645   12.3672 C   0  0  0  0  0  0  0  0  0  0  0  0
   81.4202   63.9871   12.3288 C   0  0  0  0  0  0  0  0  0  0  0  0
   83.1887   62.2850   12.9161 C   0  0  0  0  0  0  0  0  0  0  0  0
   81.7316   61.9664   10.8920 C   0  0  0  0  0  0  0  0  0  0  0  0
 29 30  2  0  0  0
 30 33  1  0  0  0
 30 31  1  0  0  0
 33 35  1  0  0  0
 33 34  1  0  0  0
 35 36  1  0  0  0
 31 28  1  0  0  0
 28 38  1  0  0  0
 28  1  1  0  0  0
 38 39  1  0  0  0
 38 40  1  0  0  0
 38 41  1  0  0  0
  1  2  2  0  0  0
  1  3  1  0  0  0
  3  4  1  0  0  0
  3  5  1  0  0  0
  4  7  1  0  0  0
  4 10  1  0  0  0
  5  6  1  0  0  0
  6  7  1  0  0  0
  7  8  1  0  0  0
  8  9  1  0  0  0
  9 10  1  0  0  0
 10 11  1  0  0  0
 11 12  1  0  0  0
 12 13  2  0  0  0
 12 15  1  0  0  0
 15 16  1  0  0  0
 15 22  1  0  0  0
 16 17  2  0  0  0
 16 21  1  0  0  0
 17 18  1  0  0  0
 18 19  2  0  0  0
 19 20  1  0  0  0
 20 21  2  0  0  0
 22 23  2  0  0  0
 22 27  1  0  0  0
 23 24  1  0  0  0
 24 25  2  0  0  0
 25 26  1  0  0  0
 26 27  2  0  0  0
 35 37  1  0  0  0
 31 32  1  0  0  0
 11 14  1  0  0  0
M  END
> <minimizedAffinity>
-5.31798

$$$$
3F7H_419_A_1


 41 44  0  0  0  0  0  0  0  0999 V2000
   80.0726   62.1338   12.8450 C   0  0  0  0  0  0  0  0  0  0  0  0
   79.4943   61.6621   13.8444 O   0  0  0  0  0  0  0  0  0  0  0  0
   80.0189   63.4740   12.5883 N   0  0  0  0  0  0  0  0  0  0  0  0
   79.0982   64.3779   13.3069 C   0  0  0  0  0  0  0  0  0  0  0  0
   80.8220   64.2085   11.5945 C   0  0  0  0  0  0  0  0  0  0  0  0
   80.8723   65.6170   12.1728 C   0  0  0  0  0  0  0  0  0  0  0  0
   79.4980   65.7900   12.8325 C   0  0  0  0  0  0  0  0  0  0  0  0
   78.3570   66.2490   11.9000 C   0  0  0  0  0  0  0  0  0  0  0  0
   77.5200   65.0060   11.6038 C   0  0  0  0  0  0  0  0  0  0  0  0
   77.6200   64.1768   12.8901 C   0  0  0  0  0  0  0  0  0  0  0  0
   76.6811   64.6815   13.9156 N   0  0  0  0  0  0  0  0  0  0  0  0
   75.8495   63.8896   14.5964 C   0  0  0  0  0  0  0  0  0  0  0  0
   75.6716   62.6991   14.3296 O   0  0  0  0  0  0  0  0  0  0  0  0
   76.6689   65.6475   14.1052 H   0  0  0  0  0  0  0  0  0  0  0  0
   75.0696   64.5436   15.7732 C   0  0  0  0  0  0  0  0  0  0  0  0
   75.6878   64.3212   17.1964 C   0  0  0  0  0  0  0  0  0  0  0  0
   76.7089   63.3582   17.3059 C   0  0  0  0  0  0  0  0  0  0  0  0
   77.3090   63.1068   18.5332 C   0  0  0  0  0  0  0  0  0  0  0  0
   76.9101   63.8055   19.6665 C   0  0  0  0  0  0  0  0  0  0  0  0
   75.9107   64.7602   19.5785 C   0  0  0  0  0  0  0  0  0  0  0  0
   75.2982   65.0239   18.3564 C   0  0  0  0  0  0  0  0  0  0  0  0
   73.5962   64.0633   15.6272 C   0  0  0  0  0  0  0  0  0  0  0  0
   73.0513   63.0387   16.4300 C   0  0  0  0  0  0  0  0  0  0  0  0
   71.7251   62.6408   16.2610 C   0  0  0  0  0  0  0  0  0  0  0  0
   70.9355   63.2548   15.2921 C   0  0  0  0  0  0  0  0  0  0  0  0
   71.4609   64.2668   14.4935 C   0  0  0  0  0  0  0  0  0  0  0  0
   72.7866   64.6711   14.6544 C   0  0  0  0  0  0  0  0  0  0  0  0
   80.8144   61.1355   11.8925 C   0  0  0  0  0  0  0  0  0  0  0  0
   83.3448   61.0130   10.5810 O   0  0  0  0  0  0  0  0  0  0  0  0
   83.2883   60.8121   11.7962 C   0  0  0  0  0  0  0  0  0  0  0  0
   82.1505   60.8884   12.5003 N   0  0  0  0  0  0  0  0  0  0  0  0
   82.2014   60.7743   13.4769 H   0  0  0  0  0  0  0  0  0  0  0  0
   84.5807   60.4636   12.5774 C   0  0  0  0  0  0  0  0  0  0  0  0
   84.7455   58.9385   12.7904 C   0  0  0  0  0  0  0  0  0  0  0  0
   84.5861   61.2284   13.8557 N   0  0  0  0  0  0  0  0  0  0  0  0
   85.6838   60.9587   14.8175 C   0  0  0  0  0  0  0  0  0  0  0  0
   83.7070   61.0294   14.3332 H   0  0  0  0  0  0  0  0  0  0  0  0
   80.0050   59.8081   11.6134 C   0  0  0  0  0  0  0  0  0  0  0  0
   78.4848   60.1318   11.5223 C   0  0  0  0  0  0  0  0  0  0  0  0
   80.4246   59.0617   10.3131 C   0  0  0  0  0  0  0  0  0  0  0  0
   80.1827   58.8207   12.8041 C   0  0  0  0  0  0  0  0  0  0  0  0
 29 30  2  0  0  0
 30 33  1  0  0  0
 30 31  1  0  0  0
 33 35  1  0  0  0
 33 34  1  0  0  0
 35 36  1  0  0  0
 31 28  1  0  0  0
 28 38  1  0  0  0
 28  1  1  0  0  0
 38 39  1  0  0  0
 38 40  1  0  0  0
 38 41  1  0  0  0
  1  2  2  0  0  0
  1  3  1  0  0  0
  3  4  1  0  0  0
  3  5  1  0  0  0
  4  7  1  0  0  0
  4 10  1  0  0  0
  5  6  1  0  0  0
  6  7  1  0  0  0
  7  8  1  0  0  0
  8  9  1  0  0  0
  9 10  1  0  0  0
 10 11  1  0  0  0
 11 12  1  0  0  0
 12 13  2  0  0  0
 12 15  1  0  0  0
 15 16  1  0  0  0
 15 22  1  0  0  0
 16 17  2  0  0  0
 16 21  1  0  0  0
 17 18  1  0  0  0
 18 19  2  0  0  0
 19 20  1  0  0  0
 20 21  2  0  0  0
 22 23  2  0  0  0
 22 27  1  0  0  0
 23 24  1  0  0  0
 24 25  2  0  0  0
 25 26  1  0  0  0
 26 27  2  0  0  0
 35 37  1  0  0  0
 31 32  1  0  0  0
 11 14  1  0  0  0
M  END
> <minimizedAffinity>
-5.25395

$$$$
3F7H_419_A_1


 41 44  0  0  0  0  0  0  0  0999 V2000
   77.2887   63.4414   12.0616 C   0  0  0  0  0  0  0  0  0  0  0  0
   77.7552   62.2872   12.1388 O   0  0  0  0  0  0  0  0  0  0  0  0
   78.0518   64.4597   11.5661 N   0  0  0  0  0  0  0  0  0  0  0  0
   79.5037   64.3170   11.3365 C   0  0  0  0  0  0  0  0  0  0  0  0
   77.5832   65.8092   11.2034 C   0  0  0  0  0  0  0  0  0  0  0  0
   78.5904   66.2456   10.1469 C   0  0  0  0  0  0  0  0  0  0  0  0
   79.9094   65.6212   10.6201 C   0  0  0  0  0  0  0  0  0  0  0  0
   80.7024   66.4348   11.6647 C   0  0  0  0  0  0  0  0  0  0  0  0
   80.4588   65.7556   13.0110 C   0  0  0  0  0  0  0  0  0  0  0  0
   80.3137   64.2706   12.6559 C   0  0  0  0  0  0  0  0  0  0  0  0
   81.6397   63.6419   12.4708 N   0  0  0  0  0  0  0  0  0  0  0  0
   82.0745   62.6229   13.2155 C   0  0  0  0  0  0  0  0  0  0  0  0
   81.4877   62.2147   14.2201 O   0  0  0  0  0  0  0  0  0  0  0  0
   82.2299   63.9917   11.7647 H   0  0  0  0  0  0  0  0  0  0  0  0
   83.4040   61.9493   12.7687 C   0  0  0  0  0  0  0  0  0  0  0  0
   83.2494   60.5606   12.0583 C   0  0  0  0  0  0  0  0  0  0  0  0
   82.6373   59.5300   12.7967 C   0  0  0  0  0  0  0  0  0  0  0  0
   82.4609   58.2721   12.2345 C   0  0  0  0  0  0  0  0  0  0  0  0
   82.8840   58.0177   10.9353 C   0  0  0  0  0  0  0  0  0  0  0  0
   83.4838   59.0197   10.1908 C   0  0  0  0  0  0  0  0  0  0  0  0
   83.6691   60.2858   10.7394 C   0  0  0  0  0  0  0  0  0  0  0  0
   84.3172   61.9313   14.0291 C   0  0  0  0  0  0  0  0  0  0  0  0
   85.1842   60.8566   14.3202 C   0  0  0  0  0  0  0  0  0  0  0  0
   85.9827   60.8848   15.4635 C   0  0  0  0  0  0  0  0  0  0  0  0
   85.9213   61.9773   16.3248 C   0  0  0  0  0  0  0  0  0  0  0  0
   85.0703   63.0439   16.0494 C   0  0  0  0  0  0  0  0  0  0  0  0
   84.2669   63.0245   14.9087 C   0  0  0  0  0  0  0  0  0  0  0  0
   75.8314   63.6760   12.5865 C   0  0  0  0  0  0  0  0  0  0  0  0
   73.7039   63.7222   10.6865 O   0  0  0  0  0  0  0  0  0  0  0  0
   74.0078   62.6536   11.2215 C   0  0  0  0  0  0  0  0  0  0  0  0
   75.0177   62.5310   12.0941 N   0  0  0  0  0  0  0  0  0  0  0  0
   75.2340   61.6309   12.4290 H   0  0  0  0  0  0  0  0  0  0  0  0
   73.2092   61.3699   10.8801 C   0  0  0  0  0  0  0  0  0  0  0  0
   72.5504   60.7376   12.1308 C   0  0  0  0  0  0  0  0  0  0  0  0
   74.1097   60.4249   10.1624 N   0  0  0  0  0  0  0  0  0  0  0  0
   74.6299   60.8393    8.8356 C   0  0  0  0  0  0  0  0  0  0  0  0
   73.5942   59.5550   10.0291 H   0  0  0  0  0  0  0  0  0  0  0  0
   75.7465   63.8694   14.1518 C   0  0  0  0  0  0  0  0  0  0  0  0
   74.7634   62.8238   14.7555 C   0  0  0  0  0  0  0  0  0  0  0  0
   77.1113   63.7400   14.8897 C   0  0  0  0  0  0  0  0  0  0  0  0
   75.1627   65.2751   14.4796 C   0  0  0  0  0  0  0  0  0  0  0  0
 29 30  2  0  0  0
 30 33  1  0  0  0
 30 31  1  0  0  0
 33 35  1  0  0  0
 33 34  1  0  0  0
 35 36  1  0  0  0
 31 28  1  0  0  0
 28 38  1  0  0  0
 28  1  1  0  0  0
 38 39  1  0  0  0
 38 40  1  0  0  0
 38 41  1  0  0  0
  1  2  2  0  0  0
  1  3  1  0  0  0
  3  4  1  0  0  0
  3  5  1  0  0  0
  4  7  1  0  0  0
  4 10  1  0  0  0
  5  6  1  0  0  0
  6  7  1  0  0  0
  7  8  1  0  0  0
  8  9  1  0  0  0
  9 10  1  0  0  0
 10 11  1  0  0  0
 11 12  1  0  0  0
 12 13  2  0  0  0
 12 15  1  0  0  0
 15 16  1  0  0  0
 15 22  1  0  0  0
 16 17  2  0  0  0
 16 21  1  0  0  0
 17 18  1  0  0  0
 18 19  2  0  0  0
 19 20  1  0  0  0
 20 21  2  0  0  0
 22 23  2  0  0  0
 22 27  1  0  0  0
 23 24  1  0  0  0
 24 25  2  0  0  0
 25 26  1  0  0  0
 26 27  2  0  0  0
 35 37  1  0  0  0
 31 32  1  0  0  0
 11 14  1  0  0  0
M  END
> <minimizedAffinity>
-5.24560

$$$$
