3LZS_017_A_200
  RCSB PDB12061709403D
Coordinates from PDB:3LZS:A:200 Model:1 without hydrogens
 38 41  0  0  0  0            999 V2000
   -8.1290   16.3510   -8.1130   N 0  0  0  0  0  0  0  0  0  0  0  0
   -8.2680   16.1010   -6.7880   C 0  0  0  0  0  0  0  0  0  0  0  0
   -7.1400   15.8180   -6.0340   C 0  0  0  0  0  0  0  0  0  0  0  0
   -7.2610   15.5480   -4.6770   C 0  0  0  0  0  0  0  0  0  0  0  0
   -8.5110   15.5830   -4.0740   C 0  0  0  0  0  0  0  0  0  0  0  0
   -9.6500   15.8580   -4.8300   C 0  0  0  0  0  0  0  0  0  0  0  0
   -9.5250   16.1250   -6.1910   C 0  0  0  0  0  0  0  0  0  0  0  0
   -8.6110   15.2710   -2.5100   S 0  0  0  0  0  0  0  0  0  0  0  0
   -9.9040   14.7120   -2.2320   O 0  0  0  0  0  0  0  0  0  0  0  0
   -7.5390   14.3820   -2.1810   O 0  0  0  0  0  0  0  0  0  0  0  0
   -8.4390   16.5670   -1.5710   N 0  0  0  0  0  0  0  0  0  0  0  0
   -7.2400   17.3720   -1.8690   C 0  0  0  0  0  0  0  0  0  0  0  0
   -6.7330   18.0570   -0.5970   C 0  0  0  0  0  0  0  0  0  0  0  0
   -6.0740   17.0800    0.3710   C 0  0  0  0  0  0  0  0  0  0  0  0
   -5.7300   19.1680   -0.9050   C 0  0  0  0  0  0  0  0  0  0  0  0
   -9.6900   17.3380   -1.5520   C 0  0  0  0  0  0  0  0  0  0  0  0
  -10.1370   17.4200   -0.1010   C 0  0  0  0  0  0  0  0  0  0  0  0
  -11.2110   18.3570    0.0170   O 0  0  0  0  0  0  0  0  0  0  0  0
  -10.5460   16.0490    0.4360   C 0  0  0  0  0  0  0  0  0  0  0  0
  -10.6740   16.1600    1.8750   N 0  0  0  0  0  0  0  0  0  0  0  0
   -9.9400   15.4960    2.7530   C 0  0  0  0  0  0  0  0  0  0  0  0
   -9.0530   14.7040    2.4690   O 0  0  0  0  0  0  0  0  0  0  0  0
  -10.3230   15.7450    4.1330   O 0  0  0  0  0  0  0  0  0  0  0  0
   -9.6380   14.9890    5.1210   C 0  0  0  0  0  0  0  0  0  0  0  0
   -9.2420   15.9870    6.1890   C 0  0  0  0  0  0  0  0  0  0  0  0
  -10.4790   16.2380    6.8460   O 0  0  0  0  0  0  0  0  0  0  0  0
  -11.2960   15.0530    6.8020   C 0  0  0  0  0  0  0  0  0  0  0  0
  -12.6240   15.2760    6.2910   O 0  0  0  0  0  0  0  0  0  0  0  0
  -12.9250   14.4300    5.1860   C 0  0  0  0  0  0  0  0  0  0  0  0
  -11.7370   13.4980    5.0000   C 0  0  0  0  0  0  0  0  0  0  0  0
  -10.6240   14.0930    5.8430   C 0  0  0  0  0  0  0  0  0  0  0  0
  -11.8590   15.5470   -0.1650   C 0  0  0  0  0  0  0  0  0  0  0  0
  -13.4160   14.1780    1.2660   C 0  0  0  0  0  0  0  0  0  0  0  0
  -13.8180   12.9810    1.8520   C 0  0  0  0  0  0  0  0  0  0  0  0
  -13.0830   11.8220    1.6350   C 0  0  0  0  0  0  0  0  0  0  0  0
  -11.9530   11.8740    0.8180   C 0  0  0  0  0  0  0  0  0  0  0  0
  -11.5530   13.0700    0.2320   C 0  0  0  0  0  0  0  0  0  0  0  0
  -12.2790   14.2330    0.4610   C 0  0  0  0  0  0  0  0  0  0  0  0
  1  2  1  0  0  0  0
  2  3  2  0  0  0  0
  2  7  1  0  0  0  0
  3  4  1  0  0  0  0
  4  5  2  0  0  0  0
  5  6  1  0  0  0  0
  5  8  1  0  0  0  0
  6  7  2  0  0  0  0
  8  9  2  0  0  0  0
  8 10  2  0  0  0  0
  8 11  1  0  0  0  0
 11 12  1  0  0  0  0
 11 16  1  0  0  0  0
 12 13  1  0  0  0  0
 13 14  1  0  0  0  0
 13 15  1  0  0  0  0
 16 17  1  0  0  0  0
 17 18  1  0  0  0  0
 17 19  1  0  0  0  0
 19 20  1  0  0  0  0
 19 32  1  0  0  0  0
 20 21  1  0  0  0  0
 21 22  2  0  0  0  0
 21 23  1  0  0  0  0
 23 24  1  0  0  0  0
 24 25  1  0  0  0  0
 24 31  1  0  0  0  0
 25 26  1  0  0  0  0
 26 27  1  0  0  0  0
 27 28  1  0  0  0  0
 27 31  1  0  0  0  0
 28 29  1  0  0  0  0
 29 30  1  0  0  0  0
 30 31  1  0  0  0  0
 32 38  1  0  0  0  0
 33 34  2  0  0  0  0
 33 38  1  0  0  0  0
 34 35  1  0  0  0  0
 35 36  2  0  0  0  0
 36 37  1  0  0  0  0
 37 38  2  0  0  0  0
A    1
N1
A    2
C2
A    3
C3
A    4
C4
A    5
C5
A    6
C6
A    7
C7
A    8
S8
A    9
O9
A   10
O10
A   11
N11
A   12
C12
A   13
C13
A   14
C14
A   15
C15
A   16
C16
A   17
C17
A   18
O18
A   19
C19
A   20
N20
A   21
C21
A   22
O22
A   23
O23
A   24
C24
A   25
C25
A   26
O26
A   27
C27
A   28
O28
A   29
C29
A   30
C30
A   31
C31
A   32
C32
A   33
C33
A   34
C34
A   35
C35
A   36
C36
A   37
C37
A   38
C38
M  END
>  <InstanceId>
3LZS_017_A_200

>  <ChemCompId>
017

>  <PdbId>
3LZS

>  <ChainId>
A

>  <ResidueNumber>
200

>  <InsertionCode>


>  <Model>
1

>  <AltIds>


>  <MissingHeavyAtoms>
0

>  <ObservedFormula>
C27 N3 O7 S

>  <Name>
(3R,3AS,6AR)-HEXAHYDROFURO[2,3-B]FURAN-3-YL(1S,2R)-3-[[(4-AMINOPHENYL)SULFONYL](ISOBUTYL)AMINO]-1-BENZYL-2-HYDROXYPROPYLCARBAMATE

>  <SystematicName>
[(3R,3aS,6aR)-2,3,3a,4,5,6a-hexahydrofuro[2,3-b]furan-3-yl] N-[(2S,3R)-4-[(4-aminophenyl)sulfonyl-(2-methylpropyl)amino]-3-hydroxy-1-phenyl-butan-2-yl]carbamate

>  <Synonyms>
Darunavir, TMC114, UIC-94017

>  <Type>
NON-POLYMER

>  <Formula>
C27 H37 N3 O7 S

>  <MolecularWeight>
547.664

>  <ModifiedDate>
2011-06-04

>  <Parent>


>  <OneLetterCode>


>  <SubcomponentList>


>  <AmbiguousFlag>
N

>  <InChI>
InChI=1S/C27H37N3O7S/c1-18(2)15-30(38(33,34)21-10-8-20(28)9-11-21)16-24(31)23(14-19-6-4-3-5-7-19)29-27(32)37-25-17-36-26-22(25)12-13-35-26/h3-11,18,22-26,31H,12-17,28H2,1-2H3,(H,29,32)/t22-,23-,24+,25-,26+/m0/s1

>  <InChIKey>
CJBJHOAVZSMMDJ-HEXNFIEUSA-N

>  <SMILES>
CC(C)C[N@@](C[C@H]([C@H](Cc1ccccc1)NC(=O)O[C@H]2CO[C@@H]3[C@H]2CCO3)O)S(=O)(=O)c4ccc(cc4)N

$$$$
