3LZS_017_A_200


 42 45  0  0  0  0  0  0  0  0999 V2000
   -9.3658   17.2818   -0.8559 C   0  0  0  0  0  0  0  0  0  0  0  0
   -9.9636   18.5808   -0.8357 O   0  0  0  0  0  0  0  0  0  0  0  0
   -9.8709   18.9930   -1.7088 H   0  0  0  0  0  0  0  0  0  0  0  0
   -7.8839   17.4081   -1.1719 C   0  0  0  0  0  0  0  0  0  0  0  0
   -7.1980   17.6848    0.0981 N   0  0  0  0  0  0  0  0  0  0  0  0
   -6.9177   16.3053    0.8787 S   0  0  0  0  0  0  0  0  0  0  0  0
   -5.7825   16.5211    1.7310 O   0  0  0  0  0  0  0  0  0  0  0  0
   -6.6801   15.3100   -0.1217 O   0  0  0  0  0  0  0  0  0  0  0  0
  -11.3557   14.6255    4.0841 N   0  0  0  0  0  0  0  0  0  0  0  0
  -10.2978   14.9987    3.3232 C   0  0  0  0  0  0  0  0  0  0  0  0
  -10.0466   16.3487    3.1347 C   0  0  0  0  0  0  0  0  0  0  0  0
   -8.9746   16.7530    2.3497 C   0  0  0  0  0  0  0  0  0  0  0  0
   -8.1435   15.8027    1.7721 C   0  0  0  0  0  0  0  0  0  0  0  0
   -8.3975   14.4433    1.9510 C   0  0  0  0  0  0  0  0  0  0  0  0
   -9.4752   14.0418    2.7361 C   0  0  0  0  0  0  0  0  0  0  0  0
  -11.9320   15.3096    4.4953 H   0  0  0  0  0  0  0  0  0  0  0  0
  -11.5478   13.6703    4.2254 H   0  0  0  0  0  0  0  0  0  0  0  0
   -6.0140   18.5537   -0.0339 C   0  0  0  0  0  0  0  0  0  0  0  0
   -5.2824   18.2557   -1.3455 C   0  0  0  0  0  0  0  0  0  0  0  0
   -4.9057   19.5224   -2.1065 C   0  0  0  0  0  0  0  0  0  0  0  0
   -4.0087   17.4422   -1.1195 C   0  0  0  0  0  0  0  0  0  0  0  0
  -10.0746   16.3692   -1.8560 C   0  0  0  0  0  0  0  0  0  0  0  0
   -9.5622   16.6797   -3.1753 N   0  0  0  0  0  0  0  0  0  0  0  0
  -10.0125   16.1564   -4.3039 C   0  0  0  0  0  0  0  0  0  0  0  0
  -10.9234   15.3450   -4.3861 O   0  0  0  0  0  0  0  0  0  0  0  0
   -8.8241   17.3283   -3.2364 H   0  0  0  0  0  0  0  0  0  0  0  0
   -9.2744   16.5915   -5.4782 O   0  0  0  0  0  0  0  0  0  0  0  0
   -8.4996   15.5997   -6.1360 C   0  0  0  0  0  0  0  0  0  0  0  0
   -8.8253   15.7448   -7.6079 C   0  0  0  0  0  0  0  0  0  0  0  0
   -8.1154   16.9259   -7.9627 O   0  0  0  0  0  0  0  0  0  0  0  0
   -6.9238   17.0298   -7.1609 C   0  0  0  0  0  0  0  0  0  0  0  0
   -6.7770   18.2967   -6.4916 O   0  0  0  0  0  0  0  0  0  0  0  0
   -6.6226   18.1475   -5.0840 C   0  0  0  0  0  0  0  0  0  0  0  0
   -6.5668   16.6546   -4.7963 C   0  0  0  0  0  0  0  0  0  0  0  0
   -7.0345   15.9817   -6.0737 C   0  0  0  0  0  0  0  0  0  0  0  0
   -9.8647   14.8855   -1.5533 C   0  0  0  0  0  0  0  0  0  0  0  0
  -11.0841   12.9695   -0.4631 C   0  0  0  0  0  0  0  0  0  0  0  0
  -12.1032   12.4498    0.3301 C   0  0  0  0  0  0  0  0  0  0  0  0
  -13.0316   13.3035    0.9129 C   0  0  0  0  0  0  0  0  0  0  0  0
  -12.9200   14.6784    0.7025 C   0  0  0  0  0  0  0  0  0  0  0  0
  -11.9008   15.1968   -0.0890 C   0  0  0  0  0  0  0  0  0  0  0  0
  -10.9808   14.3421   -0.6849 C   0  0  0  0  0  0  0  0  0  0  0  0
  9 10  1  0  0  0
 10 11  2  0  0  0
 10 15  1  0  0  0
 11 12  1  0  0  0
 12 13  2  0  0  0
 13 14  1  0  0  0
 13  6  1  0  0  0
 14 15  2  0  0  0
  6  7  2  0  0  0
  6  8  2  0  0  0
  6  5  1  0  0  0
  5 18  1  0  0  0
  5  4  1  0  0  0
 18 19  1  0  0  0
 19 20  1  0  0  0
 19 21  1  0  0  0
  4  1  1  0  0  0
  1  2  1  0  0  0
  1 22  1  0  0  0
 22 23  1  0  0  0
 22 36  1  0  0  0
 23 24  1  0  0  0
 24 25  2  0  0  0
 24 27  1  0  0  0
 27 28  1  0  0  0
 28 29  1  0  0  0
 28 35  1  0  0  0
 29 30  1  0  0  0
 30 31  1  0  0  0
 31 32  1  0  0  0
 31 35  1  0  0  0
 32 33  1  0  0  0
 33 34  1  0  0  0
 34 35  1  0  0  0
 36 42  1  0  0  0
 37 38  2  0  0  0
 37 42  1  0  0  0
 38 39  1  0  0  0
 39 40  2  0  0  0
 40 41  1  0  0  0
 41 42  2  0  0  0
  9 16  1  0  0  0
  9 17  1  0  0  0
  2  3  1  0  0  0
 23 26  1  0  0  0
M  END
> <minimizedAffinity>
-9.56309

$$$$
3LZS_017_A_200


 42 45  0  0  0  0  0  0  0  0999 V2000
  -10.0690   17.1365    0.1793 C   0  0  0  0  0  0  0  0  0  0  0  0
  -10.9289   18.2450    0.4573 O   0  0  0  0  0  0  0  0  0  0  0  0
  -11.8077   18.0740    0.0840 H   0  0  0  0  0  0  0  0  0  0  0  0
   -9.9267   16.9674   -1.3250 C   0  0  0  0  0  0  0  0  0  0  0  0
   -8.6442   16.2891   -1.5595 N   0  0  0  0  0  0  0  0  0  0  0  0
   -8.8755   14.9860   -2.4756 S   0  0  0  0  0  0  0  0  0  0  0  0
  -10.2069   14.5145   -2.2173 O   0  0  0  0  0  0  0  0  0  0  0  0
   -7.8689   14.0397   -2.1030 O   0  0  0  0  0  0  0  0  0  0  0  0
   -8.2097   15.8914   -8.0907 N   0  0  0  0  0  0  0  0  0  0  0  0
   -8.3903   15.6882   -6.7627 C   0  0  0  0  0  0  0  0  0  0  0  0
   -7.3497   15.1607   -6.0144 C   0  0  0  0  0  0  0  0  0  0  0  0
   -7.5171   14.9342   -4.6544 C   0  0  0  0  0  0  0  0  0  0  0  0
   -8.7209   15.2569   -4.0428 C   0  0  0  0  0  0  0  0  0  0  0  0
   -9.7740   15.7791   -4.7930 C   0  0  0  0  0  0  0  0  0  0  0  0
   -9.6035   16.0018   -6.1570 C   0  0  0  0  0  0  0  0  0  0  0  0
   -7.3480   15.6665   -8.5104 H   0  0  0  0  0  0  0  0  0  0  0  0
   -8.9402   16.2638   -8.6356 H   0  0  0  0  0  0  0  0  0  0  0  0
   -7.5708   17.1795   -2.0387 C   0  0  0  0  0  0  0  0  0  0  0  0
   -6.5162   17.3727   -0.9457 C   0  0  0  0  0  0  0  0  0  0  0  0
   -6.6693   18.7013   -0.2128 C   0  0  0  0  0  0  0  0  0  0  0  0
   -6.5543   16.2518    0.0923 C   0  0  0  0  0  0  0  0  0  0  0  0
  -10.5914   15.8605    0.8381 C   0  0  0  0  0  0  0  0  0  0  0  0
  -10.6491   16.0944    2.2669 N   0  0  0  0  0  0  0  0  0  0  0  0
   -9.6897   15.7838    3.1234 C   0  0  0  0  0  0  0  0  0  0  0  0
   -8.6249   15.2626    2.8247 O   0  0  0  0  0  0  0  0  0  0  0  0
  -11.4627   16.5158    2.6271 H   0  0  0  0  0  0  0  0  0  0  0  0
  -10.0357   16.0662    4.5067 O   0  0  0  0  0  0  0  0  0  0  0  0
   -9.3968   15.2650    5.4900 C   0  0  0  0  0  0  0  0  0  0  0  0
   -9.1573   16.1870    6.6673 C   0  0  0  0  0  0  0  0  0  0  0  0
  -10.4604   16.3157    7.2243 O   0  0  0  0  0  0  0  0  0  0  0  0
  -11.1980   15.0978    7.0088 C   0  0  0  0  0  0  0  0  0  0  0  0
  -12.4865   15.2942    6.3960 O   0  0  0  0  0  0  0  0  0  0  0  0
  -12.6373   14.5316    5.2030 C   0  0  0  0  0  0  0  0  0  0  0  0
  -11.3839   13.6823    5.0539 C   0  0  0  0  0  0  0  0  0  0  0  0
  -10.3875   14.2601    6.0423 C   0  0  0  0  0  0  0  0  0  0  0  0
  -11.9715   15.4521    0.3226 C   0  0  0  0  0  0  0  0  0  0  0  0
  -13.6531   14.1599    1.6823 C   0  0  0  0  0  0  0  0  0  0  0  0
  -14.1060   12.9973    2.2995 C   0  0  0  0  0  0  0  0  0  0  0  0
  -13.3519   11.8328    2.2224 C   0  0  0  0  0  0  0  0  0  0  0  0
  -12.1506   11.8440    1.5126 C   0  0  0  0  0  0  0  0  0  0  0  0
  -11.6996   13.0057    0.8953 C   0  0  0  0  0  0  0  0  0  0  0  0
  -12.4459   14.1749    0.9849 C   0  0  0  0  0  0  0  0  0  0  0  0
  9 10  1  0  0  0
 10 11  2  0  0  0
 10 15  1  0  0  0
 11 12  1  0  0  0
 12 13  2  0  0  0
 13 14  1  0  0  0
 13  6  1  0  0  0
 14 15  2  0  0  0
  6  7  2  0  0  0
  6  8  2  0  0  0
  6  5  1  0  0  0
  5 18  1  0  0  0
  5  4  1  0  0  0
 18 19  1  0  0  0
 19 20  1  0  0  0
 19 21  1  0  0  0
  4  1  1  0  0  0
  1  2  1  0  0  0
  1 22  1  0  0  0
 22 23  1  0  0  0
 22 36  1  0  0  0
 23 24  1  0  0  0
 24 25  2  0  0  0
 24 27  1  0  0  0
 27 28  1  0  0  0
 28 29  1  0  0  0
 28 35  1  0  0  0
 29 30  1  0  0  0
 30 31  1  0  0  0
 31 32  1  0  0  0
 31 35  1  0  0  0
 32 33  1  0  0  0
 33 34  1  0  0  0
 34 35  1  0  0  0
 36 42  1  0  0  0
 37 38  2  0  0  0
 37 42  1  0  0  0
 38 39  1  0  0  0
 39 40  2  0  0  0
 40 41  1  0  0  0
 41 42  2  0  0  0
  9 16  1  0  0  0
  9 17  1  0  0  0
  2  3  1  0  0  0
 23 26  1  0  0  0
M  END
> <minimizedAffinity>
-9.36197

$$$$
3LZS_017_A_200


 42 45  0  0  0  0  0  0  0  0999 V2000
   -8.6983   16.8519    1.4195 C   0  0  0  0  0  0  0  0  0  0  0  0
   -9.1451   17.8542    0.5023 O   0  0  0  0  0  0  0  0  0  0  0  0
   -9.1309   17.4968   -0.3993 H   0  0  0  0  0  0  0  0  0  0  0  0
   -7.2696   16.4548    1.0832 C   0  0  0  0  0  0  0  0  0  0  0  0
   -7.0428   16.8231   -0.3213 N   0  0  0  0  0  0  0  0  0  0  0  0
   -5.8429   17.8916   -0.4183 S   0  0  0  0  0  0  0  0  0  0  0  0
   -4.9721   17.6570    0.6990 O   0  0  0  0  0  0  0  0  0  0  0  0
   -6.4465   19.1887   -0.3894 O   0  0  0  0  0  0  0  0  0  0  0  0
   -2.7120   17.4385   -5.1916 N   0  0  0  0  0  0  0  0  0  0  0  0
   -3.4684   17.5624   -4.0736 C   0  0  0  0  0  0  0  0  0  0  0  0
   -3.0618   16.9263   -2.9113 C   0  0  0  0  0  0  0  0  0  0  0  0
   -3.8277   17.0309   -1.7575 C   0  0  0  0  0  0  0  0  0  0  0  0
   -4.9895   17.7909   -1.7655 C   0  0  0  0  0  0  0  0  0  0  0  0
   -5.4079   18.4251   -2.9347 C   0  0  0  0  0  0  0  0  0  0  0  0
   -4.6389   18.3152   -4.0906 C   0  0  0  0  0  0  0  0  0  0  0  0
   -1.8856   16.9039   -5.1701 H   0  0  0  0  0  0  0  0  0  0  0  0
   -2.9891   17.8831   -6.0252 H   0  0  0  0  0  0  0  0  0  0  0  0
   -6.8984   15.6709   -1.2302 C   0  0  0  0  0  0  0  0  0  0  0  0
   -8.1081   15.5788   -2.1642 C   0  0  0  0  0  0  0  0  0  0  0  0
   -8.7217   16.9426   -2.4633 C   0  0  0  0  0  0  0  0  0  0  0  0
   -7.7558   14.9156   -3.4950 C   0  0  0  0  0  0  0  0  0  0  0  0
   -9.6323   15.6425    1.4056 C   0  0  0  0  0  0  0  0  0  0  0  0
  -10.0532   15.3955    2.7699 N   0  0  0  0  0  0  0  0  0  0  0  0
   -9.4673   14.5487    3.6006 C   0  0  0  0  0  0  0  0  0  0  0  0
   -8.4904   13.8648    3.3310 O   0  0  0  0  0  0  0  0  0  0  0  0
  -10.8332   15.8950    3.1036 H   0  0  0  0  0  0  0  0  0  0  0  0
  -10.1349   14.4458    4.8878 O   0  0  0  0  0  0  0  0  0  0  0  0
   -9.3168   14.6217    6.0352 C   0  0  0  0  0  0  0  0  0  0  0  0
   -9.2599   16.1177    6.2638 C   0  0  0  0  0  0  0  0  0  0  0  0
  -10.5481   16.3936    6.8017 O   0  0  0  0  0  0  0  0  0  0  0  0
  -11.0068   15.2573    7.5580 C   0  0  0  0  0  0  0  0  0  0  0  0
  -12.3194   14.7967    7.1848 O   0  0  0  0  0  0  0  0  0  0  0  0
  -12.3248   13.4187    6.8262 C   0  0  0  0  0  0  0  0  0  0  0  0
  -10.9198   12.8881    7.0690 C   0  0  0  0  0  0  0  0  0  0  0  0
  -10.0532   14.1193    7.2606 C   0  0  0  0  0  0  0  0  0  0  0  0
  -10.8566   15.8520    0.5143 C   0  0  0  0  0  0  0  0  0  0  0  0
  -12.9721   14.5018    0.7323 C   0  0  0  0  0  0  0  0  0  0  0  0
  -13.7043   13.3270    0.5855 C   0  0  0  0  0  0  0  0  0  0  0  0
  -13.1020   12.1981    0.0437 C   0  0  0  0  0  0  0  0  0  0  0  0
  -11.7674   12.2638   -0.3584 C   0  0  0  0  0  0  0  0  0  0  0  0
  -11.0372   13.4383   -0.2125 C   0  0  0  0  0  0  0  0  0  0  0  0
  -11.6347   14.5635    0.3435 C   0  0  0  0  0  0  0  0  0  0  0  0
  9 10  1  0  0  0
 10 11  2  0  0  0
 10 15  1  0  0  0
 11 12  1  0  0  0
 12 13  2  0  0  0
 13 14  1  0  0  0
 13  6  1  0  0  0
 14 15  2  0  0  0
  6  7  2  0  0  0
  6  8  2  0  0  0
  6  5  1  0  0  0
  5 18  1  0  0  0
  5  4  1  0  0  0
 18 19  1  0  0  0
 19 20  1  0  0  0
 19 21  1  0  0  0
  4  1  1  0  0  0
  1  2  1  0  0  0
  1 22  1  0  0  0
 22 23  1  0  0  0
 22 36  1  0  0  0
 23 24  1  0  0  0
 24 25  2  0  0  0
 24 27  1  0  0  0
 27 28  1  0  0  0
 28 29  1  0  0  0
 28 35  1  0  0  0
 29 30  1  0  0  0
 30 31  1  0  0  0
 31 32  1  0  0  0
 31 35  1  0  0  0
 32 33  1  0  0  0
 33 34  1  0  0  0
 34 35  1  0  0  0
 36 42  1  0  0  0
 37 38  2  0  0  0
 37 42  1  0  0  0
 38 39  1  0  0  0
 39 40  2  0  0  0
 40 41  1  0  0  0
 41 42  2  0  0  0
  9 16  1  0  0  0
  9 17  1  0  0  0
  2  3  1  0  0  0
 23 26  1  0  0  0
M  END
> <minimizedAffinity>
-9.04233

$$$$
3LZS_017_A_200


 42 45  0  0  0  0  0  0  0  0999 V2000
  -10.6890   15.2637   -0.6040 C   0  0  0  0  0  0  0  0  0  0  0  0
  -11.5378   16.1836    0.0879 O   0  0  0  0  0  0  0  0  0  0  0  0
  -11.1626   16.3754    0.9616 H   0  0  0  0  0  0  0  0  0  0  0  0
  -10.6040   13.9624    0.1780 C   0  0  0  0  0  0  0  0  0  0  0  0
  -11.4501   14.1232    1.3688 N   0  0  0  0  0  0  0  0  0  0  0  0
  -12.7556   13.1903    1.2405 S   0  0  0  0  0  0  0  0  0  0  0  0
  -12.3082   11.8826    0.8513 O   0  0  0  0  0  0  0  0  0  0  0  0
  -13.6014   13.8022    0.2618 O   0  0  0  0  0  0  0  0  0  0  0  0
  -15.8608   12.8317    6.0386 N   0  0  0  0  0  0  0  0  0  0  0  0
  -15.1117   12.8966    4.9107 C   0  0  0  0  0  0  0  0  0  0  0  0
  -15.3196   13.9408    4.0233 C   0  0  0  0  0  0  0  0  0  0  0  0
  -14.5709   14.0204    2.8562 C   0  0  0  0  0  0  0  0  0  0  0  0
  -13.6001   13.0641    2.5912 C   0  0  0  0  0  0  0  0  0  0  0  0
  -13.3936   12.0064    3.4761 C   0  0  0  0  0  0  0  0  0  0  0  0
  -14.1485   11.9282    4.6437 C   0  0  0  0  0  0  0  0  0  0  0  0
  -16.5398   13.5213    6.2190 H   0  0  0  0  0  0  0  0  0  0  0  0
  -15.7257   12.0948    6.6774 H   0  0  0  0  0  0  0  0  0  0  0  0
  -10.7273   13.9756    2.6455 C   0  0  0  0  0  0  0  0  0  0  0  0
  -10.7419   15.2976    3.4178 C   0  0  0  0  0  0  0  0  0  0  0  0
  -11.4049   15.1693    4.7852 C   0  0  0  0  0  0  0  0  0  0  0  0
   -9.3348   15.8567    3.6240 C   0  0  0  0  0  0  0  0  0  0  0  0
   -9.3044   15.8668   -0.8374 C   0  0  0  0  0  0  0  0  0  0  0  0
   -9.2506   16.3276   -2.2100 N   0  0  0  0  0  0  0  0  0  0  0  0
   -8.6885   15.6660   -3.2084 C   0  0  0  0  0  0  0  0  0  0  0  0
   -8.1438   14.5760   -3.1085 O   0  0  0  0  0  0  0  0  0  0  0  0
   -9.6628   17.1978   -2.4150 H   0  0  0  0  0  0  0  0  0  0  0  0
   -8.7172   16.3882   -4.4696 O   0  0  0  0  0  0  0  0  0  0  0  0
   -8.2854   15.6686   -5.6153 C   0  0  0  0  0  0  0  0  0  0  0  0
   -9.2473   16.0546   -6.7195 C   0  0  0  0  0  0  0  0  0  0  0  0
   -8.8221   17.3721   -7.0481 O   0  0  0  0  0  0  0  0  0  0  0  0
   -7.4017   17.4851   -6.8393 C   0  0  0  0  0  0  0  0  0  0  0  0
   -7.0182   18.6016   -6.0142 O   0  0  0  0  0  0  0  0  0  0  0  0
   -6.2378   18.1997   -4.8931 C   0  0  0  0  0  0  0  0  0  0  0  0
   -5.9989   16.7033   -5.0281 C   0  0  0  0  0  0  0  0  0  0  0  0
   -6.9671   16.2372   -6.1000 C   0  0  0  0  0  0  0  0  0  0  0  0
   -8.9971   17.0251    0.1118 C   0  0  0  0  0  0  0  0  0  0  0  0
   -6.9892   18.4626   -0.3863 C   0  0  0  0  0  0  0  0  0  0  0  0
   -5.6241   18.7310   -0.3388 C   0  0  0  0  0  0  0  0  0  0  0  0
   -4.7621   17.8321    0.2774 C   0  0  0  0  0  0  0  0  0  0  0  0
   -5.2833   16.6729    0.8533 C   0  0  0  0  0  0  0  0  0  0  0  0
   -6.6474   16.4064    0.8065 C   0  0  0  0  0  0  0  0  0  0  0  0
   -7.5084   17.2976    0.1769 C   0  0  0  0  0  0  0  0  0  0  0  0
  9 10  1  0  0  0
 10 11  2  0  0  0
 10 15  1  0  0  0
 11 12  1  0  0  0
 12 13  2  0  0  0
 13 14  1  0  0  0
 13  6  1  0  0  0
 14 15  2  0  0  0
  6  7  2  0  0  0
  6  8  2  0  0  0
  6  5  1  0  0  0
  5 18  1  0  0  0
  5  4  1  0  0  0
 18 19  1  0  0  0
 19 20  1  0  0  0
 19 21  1  0  0  0
  4  1  1  0  0  0
  1  2  1  0  0  0
  1 22  1  0  0  0
 22 23  1  0  0  0
 22 36  1  0  0  0
 23 24  1  0  0  0
 24 25  2  0  0  0
 24 27  1  0  0  0
 27 28  1  0  0  0
 28 29  1  0  0  0
 28 35  1  0  0  0
 29 30  1  0  0  0
 30 31  1  0  0  0
 31 32  1  0  0  0
 31 35  1  0  0  0
 32 33  1  0  0  0
 33 34  1  0  0  0
 34 35  1  0  0  0
 36 42  1  0  0  0
 37 38  2  0  0  0
 37 42  1  0  0  0
 38 39  1  0  0  0
 39 40  2  0  0  0
 40 41  1  0  0  0
 41 42  2  0  0  0
  9 16  1  0  0  0
  9 17  1  0  0  0
  2  3  1  0  0  0
 23 26  1  0  0  0
M  END
> <minimizedAffinity>
-8.99139

$$$$
3LZS_017_A_200


 42 45  0  0  0  0  0  0  0  0999 V2000
  -10.1604   16.5024    0.9044 C   0  0  0  0  0  0  0  0  0  0  0  0
  -10.8425   17.7326    0.6465 O   0  0  0  0  0  0  0  0  0  0  0  0
  -11.2774   18.0376    1.4582 H   0  0  0  0  0  0  0  0  0  0  0  0
  -11.1636   15.4451    1.3375 C   0  0  0  0  0  0  0  0  0  0  0  0
  -11.6883   14.8262    0.1122 N   0  0  0  0  0  0  0  0  0  0  0  0
  -10.5664   13.8757   -0.5426 S   0  0  0  0  0  0  0  0  0  0  0  0
  -11.2425   12.7337   -1.0907 O   0  0  0  0  0  0  0  0  0  0  0  0
   -9.6575   13.5318    0.5079 O   0  0  0  0  0  0  0  0  0  0  0  0
   -7.6274   16.4440   -4.7328 N   0  0  0  0  0  0  0  0  0  0  0  0
   -8.3013   15.8257   -3.7323 C   0  0  0  0  0  0  0  0  0  0  0  0
   -9.6845   15.9083   -3.7005 C   0  0  0  0  0  0  0  0  0  0  0  0
  -10.3941   15.2916   -2.6781 C   0  0  0  0  0  0  0  0  0  0  0  0
   -9.7165   14.5752   -1.7009 C   0  0  0  0  0  0  0  0  0  0  0  0
   -8.3244   14.4969   -1.7232 C   0  0  0  0  0  0  0  0  0  0  0  0
   -7.6162   15.1194   -2.7481 C   0  0  0  0  0  0  0  0  0  0  0  0
   -8.1206   16.9413   -5.4246 H   0  0  0  0  0  0  0  0  0  0  0  0
   -6.6447   16.3957   -4.7676 H   0  0  0  0  0  0  0  0  0  0  0  0
  -13.0029   14.1795    0.2795 C   0  0  0  0  0  0  0  0  0  0  0  0
  -13.1706   13.6864    1.7193 C   0  0  0  0  0  0  0  0  0  0  0  0
  -14.5384   14.0297    2.3000 C   0  0  0  0  0  0  0  0  0  0  0  0
  -12.9726   12.1755    1.8345 C   0  0  0  0  0  0  0  0  0  0  0  0
   -9.0638   16.6943    1.9513 C   0  0  0  0  0  0  0  0  0  0  0  0
   -9.5687   16.1951    3.2144 N   0  0  0  0  0  0  0  0  0  0  0  0
   -9.2235   15.0424    3.7644 C   0  0  0  0  0  0  0  0  0  0  0  0
   -8.4296   14.2463    3.2841 O   0  0  0  0  0  0  0  0  0  0  0  0
  -10.2168   16.7554    3.6995 H   0  0  0  0  0  0  0  0  0  0  0  0
   -9.9315   14.7567    5.0014 O   0  0  0  0  0  0  0  0  0  0  0  0
   -9.1747   14.8668    6.1980 C   0  0  0  0  0  0  0  0  0  0  0  0
   -9.1996   16.3380    6.5563 C   0  0  0  0  0  0  0  0  0  0  0  0
  -10.5221   16.5090    7.0528 O   0  0  0  0  0  0  0  0  0  0  0  0
  -10.9592   15.2917    7.6859 C   0  0  0  0  0  0  0  0  0  0  0  0
  -12.2304   14.8086    7.2114 O   0  0  0  0  0  0  0  0  0  0  0  0
  -12.1540   13.4686    6.7363 C   0  0  0  0  0  0  0  0  0  0  0  0
  -10.7374   12.9807    7.0005 C   0  0  0  0  0  0  0  0  0  0  0  0
   -9.9400   14.2270    7.3387 C   0  0  0  0  0  0  0  0  0  0  0  0
   -7.7672   15.9706    1.5879 C   0  0  0  0  0  0  0  0  0  0  0  0
   -7.2513   17.9307    0.0919 C   0  0  0  0  0  0  0  0  0  0  0  0
   -6.3653   18.8049   -0.5315 C   0  0  0  0  0  0  0  0  0  0  0  0
   -4.9977   18.6676   -0.3278 C   0  0  0  0  0  0  0  0  0  0  0  0
   -4.5316   17.6566    0.5134 C   0  0  0  0  0  0  0  0  0  0  0  0
   -5.4176   16.7846    1.1367 C   0  0  0  0  0  0  0  0  0  0  0  0
   -6.7849   16.9117    0.9213 C   0  0  0  0  0  0  0  0  0  0  0  0
  9 10  1  0  0  0
 10 11  2  0  0  0
 10 15  1  0  0  0
 11 12  1  0  0  0
 12 13  2  0  0  0
 13 14  1  0  0  0
 13  6  1  0  0  0
 14 15  2  0  0  0
  6  7  2  0  0  0
  6  8  2  0  0  0
  6  5  1  0  0  0
  5 18  1  0  0  0
  5  4  1  0  0  0
 18 19  1  0  0  0
 19 20  1  0  0  0
 19 21  1  0  0  0
  4  1  1  0  0  0
  1  2  1  0  0  0
  1 22  1  0  0  0
 22 23  1  0  0  0
 22 36  1  0  0  0
 23 24  1  0  0  0
 24 25  2  0  0  0
 24 27  1  0  0  0
 27 28  1  0  0  0
 28 29  1  0  0  0
 28 35  1  0  0  0
 29 30  1  0  0  0
 30 31  1  0  0  0
 31 32  1  0  0  0
 31 35  1  0  0  0
 32 33  1  0  0  0
 33 34  1  0  0  0
 34 35  1  0  0  0
 36 42  1  0  0  0
 37 38  2  0  0  0
 37 42  1  0  0  0
 38 39  1  0  0  0
 39 40  2  0  0  0
 40 41  1  0  0  0
 41 42  2  0  0  0
  9 16  1  0  0  0
  9 17  1  0  0  0
  2  3  1  0  0  0
 23 26  1  0  0  0
M  END
> <minimizedAffinity>
-8.97730

$$$$
3LZS_017_A_200


 42 45  0  0  0  0  0  0  0  0999 V2000
   -9.3711   17.5153   -0.2131 C   0  0  0  0  0  0  0  0  0  0  0  0
  -10.3335   18.5637   -0.3543 O   0  0  0  0  0  0  0  0  0  0  0  0
  -10.9932   18.3097   -1.0186 H   0  0  0  0  0  0  0  0  0  0  0  0
   -8.6581   17.2967   -1.5382 C   0  0  0  0  0  0  0  0  0  0  0  0
   -7.2209   17.2157   -1.2421 N   0  0  0  0  0  0  0  0  0  0  0  0
   -6.3791   17.2390   -2.6138 S   0  0  0  0  0  0  0  0  0  0  0  0
   -5.3470   16.2476   -2.4972 O   0  0  0  0  0  0  0  0  0  0  0  0
   -5.8617   18.5658   -2.7541 O   0  0  0  0  0  0  0  0  0  0  0  0
   -9.4249   16.1953   -7.3494 N   0  0  0  0  0  0  0  0  0  0  0  0
   -8.7173   16.4243   -6.2162 C   0  0  0  0  0  0  0  0  0  0  0  0
   -7.8071   17.4693   -6.1900 C   0  0  0  0  0  0  0  0  0  0  0  0
   -7.0636   17.7146   -5.0429 C   0  0  0  0  0  0  0  0  0  0  0  0
   -7.2494   16.9245   -3.9166 C   0  0  0  0  0  0  0  0  0  0  0  0
   -8.1570   15.8662   -3.9408 C   0  0  0  0  0  0  0  0  0  0  0  0
   -8.8983   15.6213   -5.0939 C   0  0  0  0  0  0  0  0  0  0  0  0
   -9.2901   16.7687   -8.1383 H   0  0  0  0  0  0  0  0  0  0  0  0
  -10.0737   15.4556   -7.3836 H   0  0  0  0  0  0  0  0  0  0  0  0
   -6.7580   18.1878   -0.2346 C   0  0  0  0  0  0  0  0  0  0  0  0
   -5.9467   17.4775    0.8524 C   0  0  0  0  0  0  0  0  0  0  0  0
   -6.2570   15.9866    0.9342 C   0  0  0  0  0  0  0  0  0  0  0  0
   -4.4417   17.6373    0.6411 C   0  0  0  0  0  0  0  0  0  0  0  0
  -10.0314   16.2302    0.2847 C   0  0  0  0  0  0  0  0  0  0  0  0
  -10.2369   16.3653    1.7126 N   0  0  0  0  0  0  0  0  0  0  0  0
   -9.7200   15.5644    2.6302 C   0  0  0  0  0  0  0  0  0  0  0  0
   -8.9966   14.6067    2.3976 O   0  0  0  0  0  0  0  0  0  0  0  0
  -10.8033   17.1083    2.0232 H   0  0  0  0  0  0  0  0  0  0  0  0
  -10.1418   15.8871    3.9834 O   0  0  0  0  0  0  0  0  0  0  0  0
   -9.5864   15.0919    5.0207 C   0  0  0  0  0  0  0  0  0  0  0  0
   -9.3033   16.0524    6.1568 C   0  0  0  0  0  0  0  0  0  0  0  0
  -10.6046   16.3058    6.6738 O   0  0  0  0  0  0  0  0  0  0  0  0
  -11.4271   15.1366    6.5001 C   0  0  0  0  0  0  0  0  0  0  0  0
  -12.6837   15.3965    5.8461 O   0  0  0  0  0  0  0  0  0  0  0  0
  -12.8661   14.5873    4.6888 C   0  0  0  0  0  0  0  0  0  0  0  0
  -11.6773   13.6408    4.6134 C   0  0  0  0  0  0  0  0  0  0  0  0
  -10.6616   14.1928    5.5968 C   0  0  0  0  0  0  0  0  0  0  0  0
  -11.3645   15.9449   -0.4071 C   0  0  0  0  0  0  0  0  0  0  0  0
  -11.2912   13.4400   -0.1495 C   0  0  0  0  0  0  0  0  0  0  0  0
  -11.8248   12.2304    0.2860 C   0  0  0  0  0  0  0  0  0  0  0  0
  -13.0411   12.2112    0.9576 C   0  0  0  0  0  0  0  0  0  0  0  0
  -13.7069   13.4139    1.1971 C   0  0  0  0  0  0  0  0  0  0  0  0
  -13.1722   14.6220    0.7628 C   0  0  0  0  0  0  0  0  0  0  0  0
  -11.9631   14.6404    0.0774 C   0  0  0  0  0  0  0  0  0  0  0  0
  9 10  1  0  0  0
 10 11  2  0  0  0
 10 15  1  0  0  0
 11 12  1  0  0  0
 12 13  2  0  0  0
 13 14  1  0  0  0
 13  6  1  0  0  0
 14 15  2  0  0  0
  6  7  2  0  0  0
  6  8  2  0  0  0
  6  5  1  0  0  0
  5 18  1  0  0  0
  5  4  1  0  0  0
 18 19  1  0  0  0
 19 20  1  0  0  0
 19 21  1  0  0  0
  4  1  1  0  0  0
  1  2  1  0  0  0
  1 22  1  0  0  0
 22 23  1  0  0  0
 22 36  1  0  0  0
 23 24  1  0  0  0
 24 25  2  0  0  0
 24 27  1  0  0  0
 27 28  1  0  0  0
 28 29  1  0  0  0
 28 35  1  0  0  0
 29 30  1  0  0  0
 30 31  1  0  0  0
 31 32  1  0  0  0
 31 35  1  0  0  0
 32 33  1  0  0  0
 33 34  1  0  0  0
 34 35  1  0  0  0
 36 42  1  0  0  0
 37 38  2  0  0  0
 37 42  1  0  0  0
 38 39  1  0  0  0
 39 40  2  0  0  0
 40 41  1  0  0  0
 41 42  2  0  0  0
  9 16  1  0  0  0
  9 17  1  0  0  0
  2  3  1  0  0  0
 23 26  1  0  0  0
M  END
> <minimizedAffinity>
-8.96287

$$$$
3LZS_017_A_200


 42 45  0  0  0  0  0  0  0  0999 V2000
   -7.9682   14.6230   -0.1985 C   0  0  0  0  0  0  0  0  0  0  0  0
   -7.7169   13.2171   -0.2746 O   0  0  0  0  0  0  0  0  0  0  0  0
   -8.4615   12.7339    0.1164 H   0  0  0  0  0  0  0  0  0  0  0  0
   -8.0983   15.0389    1.2582 C   0  0  0  0  0  0  0  0  0  0  0  0
   -8.1379   16.5078    1.2815 N   0  0  0  0  0  0  0  0  0  0  0  0
   -9.2650   17.0069    2.3166 S   0  0  0  0  0  0  0  0  0  0  0  0
  -10.4260   17.3553    1.5470 O   0  0  0  0  0  0  0  0  0  0  0  0
   -8.7095   18.1224    3.0201 O   0  0  0  0  0  0  0  0  0  0  0  0
  -10.6560   13.1312    6.2962 N   0  0  0  0  0  0  0  0  0  0  0  0
  -10.3463   14.0406    5.3399 C   0  0  0  0  0  0  0  0  0  0  0  0
   -9.1962   14.8011    5.4808 C   0  0  0  0  0  0  0  0  0  0  0  0
   -8.8659   15.7464    4.5183 C   0  0  0  0  0  0  0  0  0  0  0  0
   -9.6788   15.9127    3.4052 C   0  0  0  0  0  0  0  0  0  0  0  0
  -10.8419   15.1566    3.2634 C   0  0  0  0  0  0  0  0  0  0  0  0
  -11.1714   14.2121    4.2322 C   0  0  0  0  0  0  0  0  0  0  0  0
  -10.0663   13.0170    7.0762 H   0  0  0  0  0  0  0  0  0  0  0  0
  -11.4706   12.5850    6.2108 H   0  0  0  0  0  0  0  0  0  0  0  0
   -6.8208   17.1427    1.4727 C   0  0  0  0  0  0  0  0  0  0  0  0
   -6.1544   17.3973    0.1180 C   0  0  0  0  0  0  0  0  0  0  0  0
   -6.2174   18.8628   -0.2991 C   0  0  0  0  0  0  0  0  0  0  0  0
   -4.6887   16.9648    0.1097 C   0  0  0  0  0  0  0  0  0  0  0  0
   -9.2132   15.0000   -1.0005 C   0  0  0  0  0  0  0  0  0  0  0  0
   -8.7734   15.6750   -2.2049 N   0  0  0  0  0  0  0  0  0  0  0  0
   -9.5778   16.1589   -3.1372 C   0  0  0  0  0  0  0  0  0  0  0  0
  -10.7989   16.1061   -3.1061 O   0  0  0  0  0  0  0  0  0  0  0  0
   -7.8040   15.7814   -2.3394 H   0  0  0  0  0  0  0  0  0  0  0  0
   -8.8707   16.7273   -4.2730 O   0  0  0  0  0  0  0  0  0  0  0  0
   -8.4483   15.8110   -5.2724 C   0  0  0  0  0  0  0  0  0  0  0  0
   -9.3461   16.0722   -6.4637 C   0  0  0  0  0  0  0  0  0  0  0  0
   -8.8261   17.2937   -6.9758 O   0  0  0  0  0  0  0  0  0  0  0  0
   -7.4092   17.3554   -6.7263 C   0  0  0  0  0  0  0  0  0  0  0  0
   -6.9822   18.5644   -6.0703 O   0  0  0  0  0  0  0  0  0  0  0  0
   -6.2670   18.3008   -4.8676 C   0  0  0  0  0  0  0  0  0  0  0  0
   -6.1207   16.7906   -4.7564 C   0  0  0  0  0  0  0  0  0  0  0  0
   -7.0806   16.2175   -5.7828 C   0  0  0  0  0  0  0  0  0  0  0  0
  -10.0688   13.7875   -1.3677 C   0  0  0  0  0  0  0  0  0  0  0  0
  -11.7642   12.4929   -0.0276 C   0  0  0  0  0  0  0  0  0  0  0  0
  -12.9103   12.4101    0.7582 C   0  0  0  0  0  0  0  0  0  0  0  0
  -13.6223   13.5622    1.0687 C   0  0  0  0  0  0  0  0  0  0  0  0
  -13.1676   14.7934    0.5950 C   0  0  0  0  0  0  0  0  0  0  0  0
  -12.0218   14.8751   -0.1888 C   0  0  0  0  0  0  0  0  0  0  0  0
  -11.3176   13.7213   -0.5127 C   0  0  0  0  0  0  0  0  0  0  0  0
  9 10  1  0  0  0
 10 11  2  0  0  0
 10 15  1  0  0  0
 11 12  1  0  0  0
 12 13  2  0  0  0
 13 14  1  0  0  0
 13  6  1  0  0  0
 14 15  2  0  0  0
  6  7  2  0  0  0
  6  8  2  0  0  0
  6  5  1  0  0  0
  5 18  1  0  0  0
  5  4  1  0  0  0
 18 19  1  0  0  0
 19 20  1  0  0  0
 19 21  1  0  0  0
  4  1  1  0  0  0
  1  2  1  0  0  0
  1 22  1  0  0  0
 22 23  1  0  0  0
 22 36  1  0  0  0
 23 24  1  0  0  0
 24 25  2  0  0  0
 24 27  1  0  0  0
 27 28  1  0  0  0
 28 29  1  0  0  0
 28 35  1  0  0  0
 29 30  1  0  0  0
 30 31  1  0  0  0
 31 32  1  0  0  0
 31 35  1  0  0  0
 32 33  1  0  0  0
 33 34  1  0  0  0
 34 35  1  0  0  0
 36 42  1  0  0  0
 37 38  2  0  0  0
 37 42  1  0  0  0
 38 39  1  0  0  0
 39 40  2  0  0  0
 40 41  1  0  0  0
 41 42  2  0  0  0
  9 16  1  0  0  0
  9 17  1  0  0  0
  2  3  1  0  0  0
 23 26  1  0  0  0
M  END
> <minimizedAffinity>
-8.84213

$$$$
3LZS_017_A_200


 42 45  0  0  0  0  0  0  0  0999 V2000
  -10.1405   15.5444   -0.7912 C   0  0  0  0  0  0  0  0  0  0  0  0
  -11.1418   15.8472   -1.7665 O   0  0  0  0  0  0  0  0  0  0  0  0
  -11.2686   16.8078   -1.8122 H   0  0  0  0  0  0  0  0  0  0  0  0
  -10.5956   16.0338    0.5745 C   0  0  0  0  0  0  0  0  0  0  0  0
  -10.2769   14.9706    1.5377 N   0  0  0  0  0  0  0  0  0  0  0  0
   -9.3730   15.5664    2.7289 S   0  0  0  0  0  0  0  0  0  0  0  0
   -9.5010   16.9959    2.6868 O   0  0  0  0  0  0  0  0  0  0  0  0
   -8.0344   15.1211    2.4890 O   0  0  0  0  0  0  0  0  0  0  0  0
  -10.7641   13.6817    7.9544 N   0  0  0  0  0  0  0  0  0  0  0  0
  -10.4574   14.1396    6.7159 C   0  0  0  0  0  0  0  0  0  0  0  0
   -9.2822   13.7184    6.1139 C   0  0  0  0  0  0  0  0  0  0  0  0
   -8.9433   14.1839    4.8501 C   0  0  0  0  0  0  0  0  0  0  0  0
   -9.7940   15.0549    4.1831 C   0  0  0  0  0  0  0  0  0  0  0  0
  -10.9729   15.4891    4.7883 C   0  0  0  0  0  0  0  0  0  0  0  0
  -11.3078   15.0226    6.0569 C   0  0  0  0  0  0  0  0  0  0  0  0
  -10.1564   13.0573    8.4127 H   0  0  0  0  0  0  0  0  0  0  0  0
  -11.5945   13.9734    8.3954 H   0  0  0  0  0  0  0  0  0  0  0  0
  -11.4492   14.2030    1.9970 C   0  0  0  0  0  0  0  0  0  0  0  0
  -12.3762   13.8966    0.8177 C   0  0  0  0  0  0  0  0  0  0  0  0
  -12.1907   12.4817    0.2796 C   0  0  0  0  0  0  0  0  0  0  0  0
  -13.8489   14.0746    1.1848 C   0  0  0  0  0  0  0  0  0  0  0  0
   -8.7943   16.1526   -1.1827 C   0  0  0  0  0  0  0  0  0  0  0  0
   -8.7897   16.3226   -2.6216 N   0  0  0  0  0  0  0  0  0  0  0  0
   -7.7215   16.2052   -3.3935 C   0  0  0  0  0  0  0  0  0  0  0  0
   -6.5971   15.9332   -2.9980 O   0  0  0  0  0  0  0  0  0  0  0  0
   -9.6449   16.5417   -3.0573 H   0  0  0  0  0  0  0  0  0  0  0  0
   -7.9854   16.4932   -4.7937 O   0  0  0  0  0  0  0  0  0  0  0  0
   -8.3245   15.3819   -5.6104 C   0  0  0  0  0  0  0  0  0  0  0  0
   -9.7720   15.5958   -6.0008 C   0  0  0  0  0  0  0  0  0  0  0  0
   -9.6763   16.6303   -6.9732 O   0  0  0  0  0  0  0  0  0  0  0  0
   -8.4297   16.5086   -7.6836 C   0  0  0  0  0  0  0  0  0  0  0  0
   -7.6545   17.7220   -7.7181 O   0  0  0  0  0  0  0  0  0  0  0  0
   -6.3396   17.5359   -7.2046 C   0  0  0  0  0  0  0  0  0  0  0  0
   -6.1891   16.0557   -6.8870 C   0  0  0  0  0  0  0  0  0  0  0  0
   -7.5965   15.4896   -6.9350 C   0  0  0  0  0  0  0  0  0  0  0  0
   -8.5320   17.4952   -0.5002 C   0  0  0  0  0  0  0  0  0  0  0  0
   -6.3793   16.6480    0.4970 C   0  0  0  0  0  0  0  0  0  0  0  0
   -5.0297   16.7829    0.8101 C   0  0  0  0  0  0  0  0  0  0  0  0
   -4.3479   17.9399    0.4535 C   0  0  0  0  0  0  0  0  0  0  0  0
   -5.0283   18.9498   -0.2280 C   0  0  0  0  0  0  0  0  0  0  0  0
   -6.3762   18.8134   -0.5414 C   0  0  0  0  0  0  0  0  0  0  0  0
   -7.0627   17.6628   -0.1714 C   0  0  0  0  0  0  0  0  0  0  0  0
  9 10  1  0  0  0
 10 11  2  0  0  0
 10 15  1  0  0  0
 11 12  1  0  0  0
 12 13  2  0  0  0
 13 14  1  0  0  0
 13  6  1  0  0  0
 14 15  2  0  0  0
  6  7  2  0  0  0
  6  8  2  0  0  0
  6  5  1  0  0  0
  5 18  1  0  0  0
  5  4  1  0  0  0
 18 19  1  0  0  0
 19 20  1  0  0  0
 19 21  1  0  0  0
  4  1  1  0  0  0
  1  2  1  0  0  0
  1 22  1  0  0  0
 22 23  1  0  0  0
 22 36  1  0  0  0
 23 24  1  0  0  0
 24 25  2  0  0  0
 24 27  1  0  0  0
 27 28  1  0  0  0
 28 29  1  0  0  0
 28 35  1  0  0  0
 29 30  1  0  0  0
 30 31  1  0  0  0
 31 32  1  0  0  0
 31 35  1  0  0  0
 32 33  1  0  0  0
 33 34  1  0  0  0
 34 35  1  0  0  0
 36 42  1  0  0  0
 37 38  2  0  0  0
 37 42  1  0  0  0
 38 39  1  0  0  0
 39 40  2  0  0  0
 40 41  1  0  0  0
 41 42  2  0  0  0
  9 16  1  0  0  0
  9 17  1  0  0  0
  2  3  1  0  0  0
 23 26  1  0  0  0
M  END
> <minimizedAffinity>
-8.81725

$$$$
3LZS_017_A_200


 42 45  0  0  0  0  0  0  0  0999 V2000
  -10.1508   15.9962    1.7704 C   0  0  0  0  0  0  0  0  0  0  0  0
  -10.8055   17.1675    2.2654 O   0  0  0  0  0  0  0  0  0  0  0  0
  -11.0307   17.0413    3.2004 H   0  0  0  0  0  0  0  0  0  0  0  0
  -11.0879   14.8039    1.8815 C   0  0  0  0  0  0  0  0  0  0  0  0
  -11.6211   14.5524    0.5353 N   0  0  0  0  0  0  0  0  0  0  0  0
  -10.5517   13.7139   -0.3274 S   0  0  0  0  0  0  0  0  0  0  0  0
  -11.2208   12.5384   -0.8092 O   0  0  0  0  0  0  0  0  0  0  0  0
   -9.4630   13.4128    0.5512 O   0  0  0  0  0  0  0  0  0  0  0  0
   -8.2937   16.5131   -4.7837 N   0  0  0  0  0  0  0  0  0  0  0  0
   -8.8507   15.8617   -3.7335 C   0  0  0  0  0  0  0  0  0  0  0  0
   -8.0422   15.0898   -2.9140 C   0  0  0  0  0  0  0  0  0  0  0  0
   -8.5941   14.4052   -1.8390 C   0  0  0  0  0  0  0  0  0  0  0  0
   -9.9528   14.5127   -1.5751 C   0  0  0  0  0  0  0  0  0  0  0  0
  -10.7721   15.2804   -2.4020 C   0  0  0  0  0  0  0  0  0  0  0  0
  -10.2156   15.9628   -3.4808 C   0  0  0  0  0  0  0  0  0  0  0  0
   -7.3272   16.4356   -4.9545 H   0  0  0  0  0  0  0  0  0  0  0  0
   -8.8556   17.0636   -5.3756 H   0  0  0  0  0  0  0  0  0  0  0  0
  -12.9823   13.9855    0.5230 C   0  0  0  0  0  0  0  0  0  0  0  0
  -13.3381   13.4336    1.9062 C   0  0  0  0  0  0  0  0  0  0  0  0
  -14.7211   13.8743    2.3741 C   0  0  0  0  0  0  0  0  0  0  0  0
  -13.2893   11.9067    1.9442 C   0  0  0  0  0  0  0  0  0  0  0  0
   -8.8393   15.7473    2.5141 C   0  0  0  0  0  0  0  0  0  0  0  0
   -7.7534   16.0043    1.5899 N   0  0  0  0  0  0  0  0  0  0  0  0
   -7.7147   17.0082    0.7289 C   0  0  0  0  0  0  0  0  0  0  0  0
   -8.5865   17.8556    0.6004 O   0  0  0  0  0  0  0  0  0  0  0  0
   -6.9874   15.3861    1.6036 H   0  0  0  0  0  0  0  0  0  0  0  0
   -6.5391   16.9919   -0.1260 O   0  0  0  0  0  0  0  0  0  0  0  0
   -5.3835   17.6419    0.3830 C   0  0  0  0  0  0  0  0  0  0  0  0
   -4.4329   16.5284    0.7704 C   0  0  0  0  0  0  0  0  0  0  0  0
   -3.9588   16.0783   -0.4934 O   0  0  0  0  0  0  0  0  0  0  0  0
   -3.9216   17.1843   -1.4149 C   0  0  0  0  0  0  0  0  0  0  0  0
   -4.6022   16.9329   -2.6591 O   0  0  0  0  0  0  0  0  0  0  0  0
   -5.6006   17.9102   -2.9339 C   0  0  0  0  0  0  0  0  0  0  0  0
   -5.5191   18.9548   -1.8309 C   0  0  0  0  0  0  0  0  0  0  0  0
   -4.6531   18.3320   -0.7512 C   0  0  0  0  0  0  0  0  0  0  0  0
   -8.6864   16.6295    3.7533 C   0  0  0  0  0  0  0  0  0  0  0  0
   -9.0013   14.4653    5.0036 C   0  0  0  0  0  0  0  0  0  0  0  0
   -9.3018   13.7389    6.1524 C   0  0  0  0  0  0  0  0  0  0  0  0
   -9.6183   14.4045    7.3302 C   0  0  0  0  0  0  0  0  0  0  0  0
   -9.6182   15.7998    7.3462 C   0  0  0  0  0  0  0  0  0  0  0  0
   -9.3166   16.5246    6.1984 C   0  0  0  0  0  0  0  0  0  0  0  0
   -9.0148   15.8594    5.0158 C   0  0  0  0  0  0  0  0  0  0  0  0
  9 10  1  0  0  0
 10 11  2  0  0  0
 10 15  1  0  0  0
 11 12  1  0  0  0
 12 13  2  0  0  0
 13 14  1  0  0  0
 13  6  1  0  0  0
 14 15  2  0  0  0
  6  7  2  0  0  0
  6  8  2  0  0  0
  6  5  1  0  0  0
  5 18  1  0  0  0
  5  4  1  0  0  0
 18 19  1  0  0  0
 19 20  1  0  0  0
 19 21  1  0  0  0
  4  1  1  0  0  0
  1  2  1  0  0  0
  1 22  1  0  0  0
 22 23  1  0  0  0
 22 36  1  0  0  0
 23 24  1  0  0  0
 24 25  2  0  0  0
 24 27  1  0  0  0
 27 28  1  0  0  0
 28 29  1  0  0  0
 28 35  1  0  0  0
 29 30  1  0  0  0
 30 31  1  0  0  0
 31 32  1  0  0  0
 31 35  1  0  0  0
 32 33  1  0  0  0
 33 34  1  0  0  0
 34 35  1  0  0  0
 36 42  1  0  0  0
 37 38  2  0  0  0
 37 42  1  0  0  0
 38 39  1  0  0  0
 39 40  2  0  0  0
 40 41  1  0  0  0
 41 42  2  0  0  0
  9 16  1  0  0  0
  9 17  1  0  0  0
  2  3  1  0  0  0
 23 26  1  0  0  0
M  END
> <minimizedAffinity>
-8.76571

$$$$
3LZS_017_A_200


 42 45  0  0  0  0  0  0  0  0999 V2000
   -9.9219   17.1896    0.1631 C   0  0  0  0  0  0  0  0  0  0  0  0
  -10.8503   18.2756    0.2268 O   0  0  0  0  0  0  0  0  0  0  0  0
  -11.6510   18.0461   -0.2703 H   0  0  0  0  0  0  0  0  0  0  0  0
   -9.5320   16.9375   -1.2848 C   0  0  0  0  0  0  0  0  0  0  0  0
   -8.0636   16.9598   -1.3421 N   0  0  0  0  0  0  0  0  0  0  0  0
   -7.5673   16.4917   -2.8000 S   0  0  0  0  0  0  0  0  0  0  0  0
   -8.4935   17.0272   -3.7577 O   0  0  0  0  0  0  0  0  0  0  0  0
   -7.5477   15.0609   -2.7859 O   0  0  0  0  0  0  0  0  0  0  0  0
   -2.2428   18.1692   -4.0760 N   0  0  0  0  0  0  0  0  0  0  0  0
   -3.5123   17.7900   -3.7898 C   0  0  0  0  0  0  0  0  0  0  0  0
   -3.7245   16.8306   -2.8123 C   0  0  0  0  0  0  0  0  0  0  0  0
   -5.0165   16.4195   -2.5110 C   0  0  0  0  0  0  0  0  0  0  0  0
   -6.0952   16.9867   -3.1760 C   0  0  0  0  0  0  0  0  0  0  0  0
   -5.8864   17.9455   -4.1667 C   0  0  0  0  0  0  0  0  0  0  0  0
   -4.5894   18.3527   -4.4683 C   0  0  0  0  0  0  0  0  0  0  0  0
   -1.4872   17.7656   -3.5907 H   0  0  0  0  0  0  0  0  0  0  0  0
   -2.0763   18.8483   -4.7691 H   0  0  0  0  0  0  0  0  0  0  0  0
   -7.4620   18.2235   -0.8779 C   0  0  0  0  0  0  0  0  0  0  0  0
   -6.5951   17.9738    0.3592 C   0  0  0  0  0  0  0  0  0  0  0  0
   -6.5462   16.5010    0.7521 C   0  0  0  0  0  0  0  0  0  0  0  0
   -5.1598   18.4592    0.1610 C   0  0  0  0  0  0  0  0  0  0  0  0
  -10.5036   15.9341    0.8117 C   0  0  0  0  0  0  0  0  0  0  0  0
  -10.5685   16.1664    2.2405 N   0  0  0  0  0  0  0  0  0  0  0  0
   -9.7947   15.5782    3.1382 C   0  0  0  0  0  0  0  0  0  0  0  0
   -8.9189   14.7641    2.8832 O   0  0  0  0  0  0  0  0  0  0  0  0
  -11.2380   16.8097    2.5676 H   0  0  0  0  0  0  0  0  0  0  0  0
  -10.1173   15.9432    4.5078 O   0  0  0  0  0  0  0  0  0  0  0  0
   -9.4513   15.2111    5.5263 C   0  0  0  0  0  0  0  0  0  0  0  0
   -9.2105   16.2039    6.6441 C   0  0  0  0  0  0  0  0  0  0  0  0
  -10.5075   16.3445    7.2123 O   0  0  0  0  0  0  0  0  0  0  0  0
  -11.2277   15.1046    7.0793 C   0  0  0  0  0  0  0  0  0  0  0  0
  -12.5279   15.2445    6.4756 O   0  0  0  0  0  0  0  0  0  0  0  0
  -12.6829   14.4112    5.3315 C   0  0  0  0  0  0  0  0  0  0  0  0
  -11.4178   13.5745    5.2132 C   0  0  0  0  0  0  0  0  0  0  0  0
  -10.4172   14.2246    6.1510 C   0  0  0  0  0  0  0  0  0  0  0  0
  -11.8931   15.5837    0.2790 C   0  0  0  0  0  0  0  0  0  0  0  0
  -11.6731   13.0857    0.5192 C   0  0  0  0  0  0  0  0  0  0  0  0
  -12.0947   11.8537    1.0112 C   0  0  0  0  0  0  0  0  0  0  0  0
  -13.2209   11.7796    1.8215 C   0  0  0  0  0  0  0  0  0  0  0  0
  -13.9092   12.9506    2.1413 C   0  0  0  0  0  0  0  0  0  0  0  0
  -13.4865   14.1811    1.6503 C   0  0  0  0  0  0  0  0  0  0  0  0
  -12.3688   14.2540    0.8271 C   0  0  0  0  0  0  0  0  0  0  0  0
  9 10  1  0  0  0
 10 11  2  0  0  0
 10 15  1  0  0  0
 11 12  1  0  0  0
 12 13  2  0  0  0
 13 14  1  0  0  0
 13  6  1  0  0  0
 14 15  2  0  0  0
  6  7  2  0  0  0
  6  8  2  0  0  0
  6  5  1  0  0  0
  5 18  1  0  0  0
  5  4  1  0  0  0
 18 19  1  0  0  0
 19 20  1  0  0  0
 19 21  1  0  0  0
  4  1  1  0  0  0
  1  2  1  0  0  0
  1 22  1  0  0  0
 22 23  1  0  0  0
 22 36  1  0  0  0
 23 24  1  0  0  0
 24 25  2  0  0  0
 24 27  1  0  0  0
 27 28  1  0  0  0
 28 29  1  0  0  0
 28 35  1  0  0  0
 29 30  1  0  0  0
 30 31  1  0  0  0
 31 32  1  0  0  0
 31 35  1  0  0  0
 32 33  1  0  0  0
 33 34  1  0  0  0
 34 35  1  0  0  0
 36 42  1  0  0  0
 37 38  2  0  0  0
 37 42  1  0  0  0
 38 39  1  0  0  0
 39 40  2  0  0  0
 40 41  1  0  0  0
 41 42  2  0  0  0
  9 16  1  0  0  0
  9 17  1  0  0  0
  2  3  1  0  0  0
 23 26  1  0  0  0
M  END
> <minimizedAffinity>
-8.39309

$$$$
