1RNM_C5P_E_200
  RCSB PDB12061703543D
Coordinates from PDB:1RNM:E:200 Model:1 without hydrogens
 21 22  0  0  0  0            999 V2000
   10.2400   15.6770   29.9640   O 0  0  0  0  0  0  0  0  0  0  0  0
   11.5520   15.5640   30.6960   P 0  0  0  0  0  0  0  0  0  0  0  0
   11.9070   16.7120   31.6240   O 0  0  0  0  0  0  0  0  0  0  0  0
   11.9620   14.1830   31.1670   O 0  0  0  0  0  0  0  0  0  0  0  0
   12.5920   15.7060   29.4410   O 0  0  0  0  0  0  0  0  0  0  0  0
   12.6450   14.7280   28.3950   C 0  0  0  0  0  0  0  0  0  0  0  0
   13.8620   14.9610   27.6230   C 0  0  0  0  0  0  0  0  0  0  0  0
   14.0130   16.3140   27.4070   O 0  0  0  0  0  0  0  0  0  0  0  0
   15.0040   14.5750   28.4140   C 0  0  0  0  0  0  0  0  0  0  0  0
   15.1580   13.2500   27.9370   O 0  0  0  0  0  0  0  0  0  0  0  0
   16.1130   15.5180   28.0870   C 0  0  0  0  0  0  0  0  0  0  0  0
   16.8880   15.0520   27.0150   O 0  0  0  0  0  0  0  0  0  0  0  0
   15.3650   16.6210   27.4730   C 0  0  0  0  0  0  0  0  0  0  0  0
   15.4640   17.8940   28.1530   N 0  0  0  0  0  0  0  0  0  0  0  0
   16.4650   18.7180   27.7080   C 0  0  0  0  0  0  0  0  0  0  0  0
   16.4940   19.9400   28.2440   N 0  0  0  0  0  0  0  0  0  0  0  0
   15.6020   20.3610   29.1860   C 0  0  0  0  0  0  0  0  0  0  0  0
   14.5780   19.5080   29.6630   C 0  0  0  0  0  0  0  0  0  0  0  0
   14.5480   18.2860   29.1140   C 0  0  0  0  0  0  0  0  0  0  0  0
   17.3410   18.3600   26.9170   O 0  0  0  0  0  0  0  0  0  0  0  0
   15.7100   21.5830   29.6960   N 0  0  0  0  0  0  0  0  0  0  0  0
  1  2  1  0  0  0  0
  2  3  2  0  0  0  0
  2  4  1  0  0  0  0
  2  5  1  0  0  0  0
  5  6  1  0  0  0  0
  6  7  1  0  0  0  0
  7  8  1  0  0  0  0
  7  9  1  0  0  0  0
  8 13  1  0  0  0  0
  9 10  1  0  0  0  0
  9 11  1  0  0  0  0
 11 12  1  0  0  0  0
 11 13  1  0  0  0  0
 13 14  1  0  0  0  0
 14 15  1  0  0  0  0
 14 19  1  0  0  0  0
 15 16  1  0  0  0  0
 15 20  2  0  0  0  0
 16 17  2  0  0  0  0
 17 18  1  0  0  0  0
 17 21  1  0  0  0  0
 18 19  2  0  0  0  0
A    1
O3P
A    2
P
A    3
O1P
A    4
O2P
A    5
O5'
A    6
C5'
A    7
C4'
A    8
O4'
A    9
C3'
A   10
O3'
A   11
C2'
A   12
O2'
A   13
C1'
A   14
N1
A   15
C2
A   16
N3
A   17
C4
A   18
C5
A   19
C6
A   20
O2
A   21
N4
M  END
>  <InstanceId>
1RNM_C5P_E_200

>  <ChemCompId>
C5P

>  <PdbId>
1RNM

>  <ChainId>
E

>  <ResidueNumber>
200

>  <InsertionCode>


>  <Model>
1

>  <AltIds>


>  <MissingHeavyAtoms>
0

>  <ObservedFormula>
C9 N3 O8 P

>  <Name>
CYTIDINE-5'-MONOPHOSPHATE

>  <SystematicName>
[(2R,3S,4R,5R)-5-(4-amino-2-oxo-pyrimidin-1-yl)-3,4-dihydroxy-oxolan-2-yl]methyl dihydrogen phosphate

>  <Synonyms>


>  <Type>
NON-POLYMER

>  <Formula>
C9 H14 N3 O8 P

>  <MolecularWeight>
323.197

>  <ModifiedDate>
2011-06-04

>  <Parent>


>  <OneLetterCode>


>  <SubcomponentList>


>  <AmbiguousFlag>
N

>  <InChI>
InChI=1S/C9H14N3O8P/c10-5-1-2-12(9(15)11-5)8-7(14)6(13)4(20-8)3-19-21(16,17)18/h1-2,4,6-8,13-14H,3H2,(H2,10,11,15)(H2,16,17,18)/t4-,6-,7-,8-/m1/s1

>  <InChIKey>
IERHLVCPSMICTF-XVFCMESISA-N

>  <SMILES>
C1=CN(C(=O)N=C1N)[C@H]2[C@@H]([C@@H]([C@H](O2)COP(=O)(O)O)O)O

$$$$
