4F9Y_LM3_A_403
  RCSB PDB12061712303D
Coordinates from PDB:4F9Y:A:403 Model:1 without hydrogens
 25 28  0  0  0  0            999 V2000
    0.2430    5.3280   21.5170   C 0  0  0  0  0  0  0  0  0  0  0  0
   -0.2050    4.0720   22.1340   N 0  0  0  0  0  0  0  0  0  0  0  0
    0.5200    3.7940   23.3790   C 0  0  0  0  0  0  0  0  0  0  0  0
   -1.2160    3.2600   21.5550   C 0  0  0  0  0  0  0  0  0  0  0  0
   -1.9120    3.8000   20.5110   N 0  0  0  0  0  0  0  0  0  0  0  0
   -2.8610    3.1610   19.9150   N 0  0  0  0  0  0  0  0  0  0  0  0
   -3.2060    1.8740   20.2530   C 0  0  0  0  0  0  0  0  0  0  0  0
   -2.5790    1.2630   21.3350   C 0  0  0  0  0  0  0  0  0  0  0  0
   -2.8760   -0.1360   21.7570   C 0  0  0  0  0  0  0  0  0  0  0  0
   -3.1130   -0.4700   23.0750   C 0  0  0  0  0  0  0  0  0  0  0  0
   -3.3350   -1.8000   23.4020   C 0  0  0  0  0  0  0  0  0  0  0  0
   -3.3100   -2.7890   22.4330   N 0  0  0  0  0  0  0  0  0  0  0  0
   -3.0640   -2.4590   21.1040   C 0  0  0  0  0  0  0  0  0  0  0  0
   -2.8380   -1.1330   20.7870   C 0  0  0  0  0  0  0  0  0  0  0  0
   -1.5530    1.9650   21.9730   C 0  0  0  0  0  0  0  0  0  0  0  0
   -4.3310    1.3010   19.4890   C 0  0  0  0  0  0  0  0  0  0  0  0
   -4.3270    1.1010   18.1350   C 0  0  0  0  0  0  0  0  0  0  0  0
   -3.2290    1.3990   17.3530   C 0  0  0  0  0  0  0  0  0  0  0  0
   -3.2770    1.1420   15.9890   C 0  0  0  0  0  0  0  0  0  0  0  0
   -4.4140    0.6240   15.4120   C 0  0  0  0  0  0  0  0  0  0  0  0
   -5.5320    0.3300   16.1770   C 0  0  0  0  0  0  0  0  0  0  0  0
   -5.4780    0.5770   17.5360   C 0  0  0  0  0  0  0  0  0  0  0  0
   -6.5810    0.2790   18.2800   C 0  0  0  0  0  0  0  0  0  0  0  0
   -6.5930    0.5070   19.6260   C 0  0  0  0  0  0  0  0  0  0  0  0
   -5.4720    1.0100   20.2180   C 0  0  0  0  0  0  0  0  0  0  0  0
 20 19  2  0  0  0  0
 20 21  1  0  0  0  0
 19 18  1  0  0  0  0
 21 22  2  0  0  0  0
 18 17  2  0  0  0  0
 22 17  1  0  0  0  0
 22 23  1  0  0  0  0
 17 16  1  0  0  0  0
 23 24  2  0  0  0  0
 16 25  2  0  0  0  0
 16  7  1  0  0  0  0
 24 25  1  0  0  0  0
  6  7  2  0  0  0  0
  6  5  1  0  0  0  0
  7  8  1  0  0  0  0
  5  4  2  0  0  0  0
 14 13  2  0  0  0  0
 14  9  1  0  0  0  0
 13 12  1  0  0  0  0
  8  9  1  0  0  0  0
  8 15  2  0  0  0  0
  1  2  1  0  0  0  0
  4 15  1  0  0  0  0
  4  2  1  0  0  0  0
  9 10  2  0  0  0  0
  2  3  1  0  0  0  0
 12 11  2  0  0  0  0
 10 11  1  0  0  0  0
A    1
C3
A    2
N2
A    3
C1
A    4
C4
A    5
N9
A    6
N8
A    7
C7
A    8
C6
A    9
C10
A   10
C21
A   11
C20
A   12
N19
A   13
C18
A   14
C17
A   15
C5
A   16
C11
A   17
C16
A   18
C25
A   19
C24
A   20
C23
A   21
C22
A   22
C15
A   23
C14
A   24
C13
A   25
C12
M  END
>  <InstanceId>
4F9Y_LM3_A_403

>  <ChemCompId>
LM3

>  <PdbId>
4F9Y

>  <ChainId>
A

>  <ResidueNumber>
403

>  <InsertionCode>


>  <Model>
1

>  <AltIds>


>  <MissingHeavyAtoms>
0

>  <ObservedFormula>
C21 N4

>  <Name>
N,N-dimethyl-6-(naphthalen-1-yl)-5-(pyridin-4-yl)pyridazin-3-amine

>  <SystematicName>
N,N-dimethyl-6-naphthalen-1-yl-5-pyridin-4-yl-pyridazin-3-amine

>  <Synonyms>


>  <Type>
NON-POLYMER

>  <Formula>
C21 H18 N4

>  <MolecularWeight>
326.394

>  <ModifiedDate>
2013-05-31

>  <Parent>


>  <OneLetterCode>


>  <SubcomponentList>


>  <AmbiguousFlag>
N

>  <InChI>
InChI=1S/C21H18N4/c1-25(2)20-14-19(16-10-12-22-13-11-16)21(24-23-20)18-9-5-7-15-6-3-4-8-17(15)18/h3-14H,1-2H3

>  <InChIKey>
GEAPHVHHVPDTKQ-UHFFFAOYSA-N

>  <SMILES>
CN(C)c1cc(c(nn1)c2cccc3c2cccc3)c4ccncc4

$$$$
