4F9Y_LM3_A_403


 25 28  0  0  0  0  0  0  0  0999 V2000
   -1.2708    3.4155   21.3789 C   0  0  0  0  0  0  0  0  0  0  0  0
   -2.0704    3.9800   20.4261 N   0  0  0  0  0  0  0  0  0  0  0  0
   -3.0036    3.3165   19.8320 N   0  0  0  0  0  0  0  0  0  0  0  0
   -3.2276    1.9826   20.0773 C   0  0  0  0  0  0  0  0  0  0  0  0
   -2.4889    1.3388   21.0658 C   0  0  0  0  0  0  0  0  0  0  0  0
   -1.4812    2.0678   21.7027 C   0  0  0  0  0  0  0  0  0  0  0  0
   -4.3516    1.3840   19.3317 C   0  0  0  0  0  0  0  0  0  0  0  0
   -4.3553    1.1609   17.9813 C   0  0  0  0  0  0  0  0  0  0  0  0
   -3.2666    1.4579   17.1861 C   0  0  0  0  0  0  0  0  0  0  0  0
   -3.3218    1.1771   15.8270 C   0  0  0  0  0  0  0  0  0  0  0  0
   -4.4570    0.6365   15.2676 C   0  0  0  0  0  0  0  0  0  0  0  0
   -5.5659    0.3430   16.0459 C   0  0  0  0  0  0  0  0  0  0  0  0
   -5.5047    0.6138   17.4001 C   0  0  0  0  0  0  0  0  0  0  0  0
   -6.5987    0.3162   18.1574 C   0  0  0  0  0  0  0  0  0  0  0  0
   -6.6033    0.5670   19.4994 C   0  0  0  0  0  0  0  0  0  0  0  0
   -5.4838    1.0927   20.0742 C   0  0  0  0  0  0  0  0  0  0  0  0
   -2.6513   -0.1092   21.3823 C   0  0  0  0  0  0  0  0  0  0  0  0
   -2.3687   -1.0976   20.4614 C   0  0  0  0  0  0  0  0  0  0  0  0
   -2.5891   -2.4228   20.8084 C   0  0  0  0  0  0  0  0  0  0  0  0
   -3.0958   -2.7622   22.0517 N   0  0  0  0  0  0  0  0  0  0  0  0
   -3.3896   -1.7695   22.9812 C   0  0  0  0  0  0  0  0  0  0  0  0
   -3.1730   -0.4516   22.6261 C   0  0  0  0  0  0  0  0  0  0  0  0
    0.4715    3.8614   23.1600 C   0  0  0  0  0  0  0  0  0  0  0  0
   -0.2901    4.2573   21.9674 N   0  0  0  0  0  0  0  0  0  0  0  0
    0.0947    5.5941   21.5008 C   0  0  0  0  0  0  0  0  0  0  0  0
 11 10  2  0  0  0
 11 12  1  0  0  0
 10  9  1  0  0  0
 12 13  2  0  0  0
  9  8  2  0  0  0
 13  8  1  0  0  0
 13 14  1  0  0  0
  8  7  1  0  0  0
 14 15  2  0  0  0
  7 16  2  0  0  0
  7  4  1  0  0  0
 15 16  1  0  0  0
  3  4  2  0  0  0
  3  2  1  0  0  0
  4  5  1  0  0  0
  2  1  2  0  0  0
 22 21  2  0  0  0
 22 17  1  0  0  0
 21 20  1  0  0  0
  5 17  1  0  0  0
  5  6  2  0  0  0
 23 24  1  0  0  0
  1  6  1  0  0  0
  1 24  1  0  0  0
 17 18  2  0  0  0
 24 25  1  0  0  0
 20 19  2  0  0  0
 18 19  1  0  0  0
M  END
> <minimizedAffinity>
-10.14191

$$$$
4F9Y_LM3_A_403


 25 28  0  0  0  0  0  0  0  0999 V2000
   -1.0073   -0.1111   22.8668 C   0  0  0  0  0  0  0  0  0  0  0  0
   -1.8092   -1.0407   22.2679 N   0  0  0  0  0  0  0  0  0  0  0  0
   -2.6316   -0.7313   21.3233 N   0  0  0  0  0  0  0  0  0  0  0  0
   -2.7970    0.5616   20.8867 C   0  0  0  0  0  0  0  0  0  0  0  0
   -1.9880    1.5657   21.4105 C   0  0  0  0  0  0  0  0  0  0  0  0
   -1.1008    1.2186   22.4328 C   0  0  0  0  0  0  0  0  0  0  0  0
   -3.7583    0.7360   19.7808 C   0  0  0  0  0  0  0  0  0  0  0  0
   -3.4127    1.0580   18.4962 C   0  0  0  0  0  0  0  0  0  0  0  0
   -2.0975    1.2219   18.1098 C   0  0  0  0  0  0  0  0  0  0  0  0
   -1.8112    1.5164   16.7831 C   0  0  0  0  0  0  0  0  0  0  0  0
   -2.8241    1.6739   15.8648 C   0  0  0  0  0  0  0  0  0  0  0  0
   -4.1519    1.5266   16.2347 C   0  0  0  0  0  0  0  0  0  0  0  0
   -4.4337    1.2233   17.5536 C   0  0  0  0  0  0  0  0  0  0  0  0
   -5.7425    1.0750   17.9055 C   0  0  0  0  0  0  0  0  0  0  0  0
   -6.0863    0.7829   19.1941 C   0  0  0  0  0  0  0  0  0  0  0  0
   -5.0962    0.6124   20.1165 C   0  0  0  0  0  0  0  0  0  0  0  0
   -2.1140    2.9966   21.0103 C   0  0  0  0  0  0  0  0  0  0  0  0
   -3.2001    3.7669   21.3734 C   0  0  0  0  0  0  0  0  0  0  0  0
   -3.2747    5.0778   20.9248 C   0  0  0  0  0  0  0  0  0  0  0  0
   -2.2878    5.6141   20.1147 N   0  0  0  0  0  0  0  0  0  0  0  0
   -1.1946    4.8398   19.7393 C   0  0  0  0  0  0  0  0  0  0  0  0
   -1.1304    3.5333   20.1853 C   0  0  0  0  0  0  0  0  0  0  0  0
    0.9544    0.2388   24.4277 C   0  0  0  0  0  0  0  0  0  0  0  0
   -0.1356   -0.5828   23.8839 N   0  0  0  0  0  0  0  0  0  0  0  0
   -0.1823   -1.9052   24.5180 C   0  0  0  0  0  0  0  0  0  0  0  0
 11 10  2  0  0  0
 11 12  1  0  0  0
 10  9  1  0  0  0
 12 13  2  0  0  0
  9  8  2  0  0  0
 13  8  1  0  0  0
 13 14  1  0  0  0
  8  7  1  0  0  0
 14 15  2  0  0  0
  7 16  2  0  0  0
  7  4  1  0  0  0
 15 16  1  0  0  0
  3  4  2  0  0  0
  3  2  1  0  0  0
  4  5  1  0  0  0
  2  1  2  0  0  0
 22 21  2  0  0  0
 22 17  1  0  0  0
 21 20  1  0  0  0
  5 17  1  0  0  0
  5  6  2  0  0  0
 23 24  1  0  0  0
  1  6  1  0  0  0
  1 24  1  0  0  0
 17 18  2  0  0  0
 24 25  1  0  0  0
 20 19  2  0  0  0
 18 19  1  0  0  0
M  END
> <minimizedAffinity>
-8.84047

$$$$
4F9Y_LM3_A_403


 25 28  0  0  0  0  0  0  0  0999 V2000
   -1.3094    0.5525   22.8346 C   0  0  0  0  0  0  0  0  0  0  0  0
   -1.7680   -0.4316   22.0057 N   0  0  0  0  0  0  0  0  0  0  0  0
   -2.2270   -0.1779   20.8271 N   0  0  0  0  0  0  0  0  0  0  0  0
   -2.3351    1.1031   20.3403 C   0  0  0  0  0  0  0  0  0  0  0  0
   -1.8496    2.1633   21.1003 C   0  0  0  0  0  0  0  0  0  0  0  0
   -1.3544    1.8762   22.3750 C   0  0  0  0  0  0  0  0  0  0  0  0
   -2.8555    1.2132   18.9638 C   0  0  0  0  0  0  0  0  0  0  0  0
   -4.1516    0.9626   18.6023 C   0  0  0  0  0  0  0  0  0  0  0  0
   -5.1141    0.6049   19.5250 C   0  0  0  0  0  0  0  0  0  0  0  0
   -6.4192    0.3960   19.0985 C   0  0  0  0  0  0  0  0  0  0  0  0
   -6.7499    0.5134   17.7677 C   0  0  0  0  0  0  0  0  0  0  0  0
   -5.7960    0.8588   16.8231 C   0  0  0  0  0  0  0  0  0  0  0  0
   -4.4999    1.0763   17.2518 C   0  0  0  0  0  0  0  0  0  0  0  0
   -3.5707    1.4210   16.3154 C   0  0  0  0  0  0  0  0  0  0  0  0
   -2.2721    1.6416   16.6743 C   0  0  0  0  0  0  0  0  0  0  0  0
   -1.9269    1.5405   17.9899 C   0  0  0  0  0  0  0  0  0  0  0  0
   -1.9453    3.5845   20.6593 C   0  0  0  0  0  0  0  0  0  0  0  0
   -0.9483    4.1933   19.9242 C   0  0  0  0  0  0  0  0  0  0  0  0
   -1.0825    5.5331   19.5896 C   0  0  0  0  0  0  0  0  0  0  0  0
   -2.1885    6.2636   19.9906 N   0  0  0  0  0  0  0  0  0  0  0  0
   -3.1929    5.6571   20.7382 C   0  0  0  0  0  0  0  0  0  0  0  0
   -3.0494    4.3239   21.0726 C   0  0  0  0  0  0  0  0  0  0  0  0
   -0.3260   -1.2230   24.3468 C   0  0  0  0  0  0  0  0  0  0  0  0
   -0.8165    0.1400   24.1009 N   0  0  0  0  0  0  0  0  0  0  0  0
   -0.7284    0.9708   25.3071 C   0  0  0  0  0  0  0  0  0  0  0  0
 11 10  2  0  0  0
 11 12  1  0  0  0
 10  9  1  0  0  0
 12 13  2  0  0  0
  9  8  2  0  0  0
 13  8  1  0  0  0
 13 14  1  0  0  0
  8  7  1  0  0  0
 14 15  2  0  0  0
  7 16  2  0  0  0
  7  4  1  0  0  0
 15 16  1  0  0  0
  3  4  2  0  0  0
  3  2  1  0  0  0
  4  5  1  0  0  0
  2  1  2  0  0  0
 22 21  2  0  0  0
 22 17  1  0  0  0
 21 20  1  0  0  0
  5 17  1  0  0  0
  5  6  2  0  0  0
 23 24  1  0  0  0
  1  6  1  0  0  0
  1 24  1  0  0  0
 17 18  2  0  0  0
 24 25  1  0  0  0
 20 19  2  0  0  0
 18 19  1  0  0  0
M  END
> <minimizedAffinity>
-8.83901

$$$$
4F9Y_LM3_A_403


 25 28  0  0  0  0  0  0  0  0999 V2000
   -2.7624    3.9460   23.6496 C   0  0  0  0  0  0  0  0  0  0  0  0
   -2.9056    4.6341   22.4784 N   0  0  0  0  0  0  0  0  0  0  0  0
   -3.0109    4.0368   21.3398 N   0  0  0  0  0  0  0  0  0  0  0  0
   -2.9359    2.6697   21.2171 C   0  0  0  0  0  0  0  0  0  0  0  0
   -2.8357    1.8878   22.3641 C   0  0  0  0  0  0  0  0  0  0  0  0
   -2.7228    2.5458   23.5916 C   0  0  0  0  0  0  0  0  0  0  0  0
   -3.1025    2.1492   19.8463 C   0  0  0  0  0  0  0  0  0  0  0  0
   -4.2384    1.5455   19.3787 C   0  0  0  0  0  0  0  0  0  0  0  0
   -5.3649    1.3954   20.1626 C   0  0  0  0  0  0  0  0  0  0  0  0
   -6.4969    0.8030   19.6181 C   0  0  0  0  0  0  0  0  0  0  0  0
   -6.4929    0.3414   18.3216 C   0  0  0  0  0  0  0  0  0  0  0  0
   -5.3680    0.4704   17.5217 C   0  0  0  0  0  0  0  0  0  0  0  0
   -4.2460    1.0697   18.0627 C   0  0  0  0  0  0  0  0  0  0  0  0
   -3.1471    1.1967   17.2657 C   0  0  0  0  0  0  0  0  0  0  0  0
   -2.0054    1.7727   17.7438 C   0  0  0  0  0  0  0  0  0  0  0  0
   -1.9932    2.2459   19.0229 C   0  0  0  0  0  0  0  0  0  0  0  0
   -2.7276    0.4012   22.3221 C   0  0  0  0  0  0  0  0  0  0  0  0
   -3.7357   -0.4210   22.7831 C   0  0  0  0  0  0  0  0  0  0  0  0
   -3.5468   -1.7953   22.7579 C   0  0  0  0  0  0  0  0  0  0  0  0
   -2.3653   -2.3469   22.2913 N   0  0  0  0  0  0  0  0  0  0  0  0
   -1.3428   -1.5225   21.8325 C   0  0  0  0  0  0  0  0  0  0  0  0
   -1.5361   -0.1546   21.8662 C   0  0  0  0  0  0  0  0  0  0  0  0
   -2.7894    6.1854   24.8290 C   0  0  0  0  0  0  0  0  0  0  0  0
   -2.6716    4.7208   24.8363 N   0  0  0  0  0  0  0  0  0  0  0  0
   -2.4514    4.2041   26.1918 C   0  0  0  0  0  0  0  0  0  0  0  0
 11 10  2  0  0  0
 11 12  1  0  0  0
 10  9  1  0  0  0
 12 13  2  0  0  0
  9  8  2  0  0  0
 13  8  1  0  0  0
 13 14  1  0  0  0
  8  7  1  0  0  0
 14 15  2  0  0  0
  7 16  2  0  0  0
  7  4  1  0  0  0
 15 16  1  0  0  0
  3  4  2  0  0  0
  3  2  1  0  0  0
  4  5  1  0  0  0
  2  1  2  0  0  0
 22 21  2  0  0  0
 22 17  1  0  0  0
 21 20  1  0  0  0
  5 17  1  0  0  0
  5  6  2  0  0  0
 23 24  1  0  0  0
  1  6  1  0  0  0
  1 24  1  0  0  0
 17 18  2  0  0  0
 24 25  1  0  0  0
 20 19  2  0  0  0
 18 19  1  0  0  0
M  END
> <minimizedAffinity>
-8.78116

$$$$
4F9Y_LM3_A_403


 25 28  0  0  0  0  0  0  0  0999 V2000
   -2.1561    3.6133   23.3975 C   0  0  0  0  0  0  0  0  0  0  0  0
   -2.5883    4.2892   22.2919 N   0  0  0  0  0  0  0  0  0  0  0  0
   -3.1133    3.6855   21.2799 N   0  0  0  0  0  0  0  0  0  0  0  0
   -3.2291    2.3171   21.2192 C   0  0  0  0  0  0  0  0  0  0  0  0
   -2.8552    1.5528   22.3207 C   0  0  0  0  0  0  0  0  0  0  0  0
   -2.2883    2.2177   23.4111 C   0  0  0  0  0  0  0  0  0  0  0  0
   -3.8772    1.7922   20.0018 C   0  0  0  0  0  0  0  0  0  0  0  0
   -3.3043    1.7871   18.7588 C   0  0  0  0  0  0  0  0  0  0  0  0
   -2.0254    2.2583   18.5389 C   0  0  0  0  0  0  0  0  0  0  0  0
   -1.4892    2.1953   17.2593 C   0  0  0  0  0  0  0  0  0  0  0  0
   -2.2299    1.6974   16.2118 C   0  0  0  0  0  0  0  0  0  0  0  0
   -3.5206    1.2313   16.4084 C   0  0  0  0  0  0  0  0  0  0  0  0
   -4.0482    1.2856   17.6849 C   0  0  0  0  0  0  0  0  0  0  0  0
   -5.3162    0.8195   17.8684 C   0  0  0  0  0  0  0  0  0  0  0  0
   -5.8963    0.8528   19.1038 C   0  0  0  0  0  0  0  0  0  0  0  0
   -5.1745    1.3328   20.1567 C   0  0  0  0  0  0  0  0  0  0  0  0
   -2.9271    0.0634   22.3331 C   0  0  0  0  0  0  0  0  0  0  0  0
   -3.6345   -0.6288   23.2950 C   0  0  0  0  0  0  0  0  0  0  0  0
   -3.6180   -2.0161   23.2733 C   0  0  0  0  0  0  0  0  0  0  0  0
   -2.8974   -2.7083   22.3145 N   0  0  0  0  0  0  0  0  0  0  0  0
   -2.1763   -2.0156   21.3471 C   0  0  0  0  0  0  0  0  0  0  0  0
   -2.1929   -0.6341   21.3788 C   0  0  0  0  0  0  0  0  0  0  0  0
   -1.2199    3.8138   25.7406 C   0  0  0  0  0  0  0  0  0  0  0  0
   -1.6104    4.3960   24.4493 N   0  0  0  0  0  0  0  0  0  0  0  0
   -1.3669    5.8425   24.4141 C   0  0  0  0  0  0  0  0  0  0  0  0
 11 10  2  0  0  0
 11 12  1  0  0  0
 10  9  1  0  0  0
 12 13  2  0  0  0
  9  8  2  0  0  0
 13  8  1  0  0  0
 13 14  1  0  0  0
  8  7  1  0  0  0
 14 15  2  0  0  0
  7 16  2  0  0  0
  7  4  1  0  0  0
 15 16  1  0  0  0
  3  4  2  0  0  0
  3  2  1  0  0  0
  4  5  1  0  0  0
  2  1  2  0  0  0
 22 21  2  0  0  0
 22 17  1  0  0  0
 21 20  1  0  0  0
  5 17  1  0  0  0
  5  6  2  0  0  0
 23 24  1  0  0  0
  1  6  1  0  0  0
  1 24  1  0  0  0
 17 18  2  0  0  0
 24 25  1  0  0  0
 20 19  2  0  0  0
 18 19  1  0  0  0
M  END
> <minimizedAffinity>
-8.73275

$$$$
4F9Y_LM3_A_403


 25 28  0  0  0  0  0  0  0  0999 V2000
   -1.8279    4.2200   20.6843 C   0  0  0  0  0  0  0  0  0  0  0  0
   -1.1386    3.4468   21.5747 N   0  0  0  0  0  0  0  0  0  0  0  0
   -1.4060    2.1969   21.7495 N   0  0  0  0  0  0  0  0  0  0  0  0
   -2.4348    1.5662   21.0912 C   0  0  0  0  0  0  0  0  0  0  0  0
   -3.1604    2.2670   20.1322 C   0  0  0  0  0  0  0  0  0  0  0  0
   -2.8615    3.6200   19.9514 C   0  0  0  0  0  0  0  0  0  0  0  0
   -2.5860    0.1285   21.3874 C   0  0  0  0  0  0  0  0  0  0  0  0
   -3.1063   -0.3734   22.5496 C   0  0  0  0  0  0  0  0  0  0  0  0
   -3.5736    0.4458   23.5577 C   0  0  0  0  0  0  0  0  0  0  0  0
   -4.1201   -0.1264   24.6991 C   0  0  0  0  0  0  0  0  0  0  0  0
   -4.1709   -1.4941   24.8431 C   0  0  0  0  0  0  0  0  0  0  0  0
   -3.6952   -2.3345   23.8486 C   0  0  0  0  0  0  0  0  0  0  0  0
   -3.1613   -1.7626   22.7091 C   0  0  0  0  0  0  0  0  0  0  0  0
   -2.7014   -2.5982   21.7348 C   0  0  0  0  0  0  0  0  0  0  0  0
   -2.1558   -2.0949   20.5890 C   0  0  0  0  0  0  0  0  0  0  0  0
   -2.1062   -0.7420   20.4230 C   0  0  0  0  0  0  0  0  0  0  0  0
   -4.3047    1.6681   19.3870 C   0  0  0  0  0  0  0  0  0  0  0  0
   -5.4400    1.2143   20.0273 C   0  0  0  0  0  0  0  0  0  0  0  0
   -6.4455    0.6240   19.2752 C   0  0  0  0  0  0  0  0  0  0  0  0
   -6.3200    0.4750   17.9042 N   0  0  0  0  0  0  0  0  0  0  0  0
   -5.1744    0.9237   17.2545 C   0  0  0  0  0  0  0  0  0  0  0  0
   -4.1748    1.5052   18.0112 C   0  0  0  0  0  0  0  0  0  0  0  0
   -2.1857    6.5613   19.7916 C   0  0  0  0  0  0  0  0  0  0  0  0
   -1.4262    5.5777   20.5756 N   0  0  0  0  0  0  0  0  0  0  0  0
   -0.2420    6.1816   21.1968 C   0  0  0  0  0  0  0  0  0  0  0  0
 11 10  2  0  0  0
 11 12  1  0  0  0
 10  9  1  0  0  0
 12 13  2  0  0  0
  9  8  2  0  0  0
 13  8  1  0  0  0
 13 14  1  0  0  0
  8  7  1  0  0  0
 14 15  2  0  0  0
  7 16  2  0  0  0
  7  4  1  0  0  0
 15 16  1  0  0  0
  3  4  2  0  0  0
  3  2  1  0  0  0
  4  5  1  0  0  0
  2  1  2  0  0  0
 22 21  2  0  0  0
 22 17  1  0  0  0
 21 20  1  0  0  0
  5 17  1  0  0  0
  5  6  2  0  0  0
 23 24  1  0  0  0
  1  6  1  0  0  0
  1 24  1  0  0  0
 17 18  2  0  0  0
 24 25  1  0  0  0
 20 19  2  0  0  0
 18 19  1  0  0  0
M  END
> <minimizedAffinity>
-8.32754

$$$$
4F9Y_LM3_A_403


 25 28  0  0  0  0  0  0  0  0999 V2000
   -4.5640    1.1367   19.3658 C   0  0  0  0  0  0  0  0  0  0  0  0
   -4.7910    0.2551   20.3843 N   0  0  0  0  0  0  0  0  0  0  0  0
   -4.2604    0.4025   21.5508 N   0  0  0  0  0  0  0  0  0  0  0  0
   -3.3897    1.4267   21.8383 C   0  0  0  0  0  0  0  0  0  0  0  0
   -3.1369    2.3965   20.8726 C   0  0  0  0  0  0  0  0  0  0  0  0
   -3.7176    2.2265   19.6130 C   0  0  0  0  0  0  0  0  0  0  0  0
   -2.8958    1.4635   23.2284 C   0  0  0  0  0  0  0  0  0  0  0  0
   -1.8404    0.7282   23.6962 C   0  0  0  0  0  0  0  0  0  0  0  0
   -1.1105   -0.1102   22.8774 C   0  0  0  0  0  0  0  0  0  0  0  0
   -0.0301   -0.8043   23.4064 C   0  0  0  0  0  0  0  0  0  0  0  0
    0.2965   -0.6854   24.7380 C   0  0  0  0  0  0  0  0  0  0  0  0
   -0.4313    0.1407   25.5803 C   0  0  0  0  0  0  0  0  0  0  0  0
   -1.4998    0.8385   25.0490 C   0  0  0  0  0  0  0  0  0  0  0  0
   -2.2054    1.6524   25.8848 C   0  0  0  0  0  0  0  0  0  0  0  0
   -3.2760    2.3622   25.4224 C   0  0  0  0  0  0  0  0  0  0  0  0
   -3.6089    2.2659   24.1033 C   0  0  0  0  0  0  0  0  0  0  0  0
   -2.1911    3.5283   21.0917 C   0  0  0  0  0  0  0  0  0  0  0  0
   -2.6185    4.7696   21.5176 C   0  0  0  0  0  0  0  0  0  0  0  0
   -1.6888    5.7904   21.6539 C   0  0  0  0  0  0  0  0  0  0  0  0
   -0.3515    5.5846   21.3591 N   0  0  0  0  0  0  0  0  0  0  0  0
    0.0837    4.3375   20.9220 C   0  0  0  0  0  0  0  0  0  0  0  0
   -0.8492    3.3274   20.7831 C   0  0  0  0  0  0  0  0  0  0  0  0
   -4.5813    1.1200   16.8348 C   0  0  0  0  0  0  0  0  0  0  0  0
   -5.2191    0.8694   18.1345 N   0  0  0  0  0  0  0  0  0  0  0  0
   -6.5744    0.3303   17.9753 C   0  0  0  0  0  0  0  0  0  0  0  0
 11 10  2  0  0  0
 11 12  1  0  0  0
 10  9  1  0  0  0
 12 13  2  0  0  0
  9  8  2  0  0  0
 13  8  1  0  0  0
 13 14  1  0  0  0
  8  7  1  0  0  0
 14 15  2  0  0  0
  7 16  2  0  0  0
  7  4  1  0  0  0
 15 16  1  0  0  0
  3  4  2  0  0  0
  3  2  1  0  0  0
  4  5  1  0  0  0
  2  1  2  0  0  0
 22 21  2  0  0  0
 22 17  1  0  0  0
 21 20  1  0  0  0
  5 17  1  0  0  0
  5  6  2  0  0  0
 23 24  1  0  0  0
  1  6  1  0  0  0
  1 24  1  0  0  0
 17 18  2  0  0  0
 24 25  1  0  0  0
 20 19  2  0  0  0
 18 19  1  0  0  0
M  END
> <minimizedAffinity>
-8.25764

$$$$
4F9Y_LM3_A_403


 25 28  0  0  0  0  0  0  0  0999 V2000
   -2.4934    1.3607   18.5670 C   0  0  0  0  0  0  0  0  0  0  0  0
   -2.8170    0.0826   18.9246 N   0  0  0  0  0  0  0  0  0  0  0  0
   -2.9021   -0.2844   20.1583 N   0  0  0  0  0  0  0  0  0  0  0  0
   -2.6244    0.5687   21.1999 C   0  0  0  0  0  0  0  0  0  0  0  0
   -2.3302    1.9016   20.9282 C   0  0  0  0  0  0  0  0  0  0  0  0
   -2.2413    2.2876   19.5881 C   0  0  0  0  0  0  0  0  0  0  0  0
   -2.7969   -0.0050   22.5485 C   0  0  0  0  0  0  0  0  0  0  0  0
   -1.7692   -0.4148   23.3543 C   0  0  0  0  0  0  0  0  0  0  0  0
   -0.4472   -0.2951   22.9748 C   0  0  0  0  0  0  0  0  0  0  0  0
    0.5504   -0.6998   23.8522 C   0  0  0  0  0  0  0  0  0  0  0  0
    0.2310   -1.2427   25.0758 C   0  0  0  0  0  0  0  0  0  0  0  0
   -1.0902   -1.3840   25.4709 C   0  0  0  0  0  0  0  0  0  0  0  0
   -2.0810   -0.9708   24.6000 C   0  0  0  0  0  0  0  0  0  0  0  0
   -3.3769   -1.1090   25.0008 C   0  0  0  0  0  0  0  0  0  0  0  0
   -4.4011   -0.7267   24.1830 C   0  0  0  0  0  0  0  0  0  0  0  0
   -4.1046   -0.1766   22.9707 C   0  0  0  0  0  0  0  0  0  0  0  0
   -1.9961    2.8893   21.9941 C   0  0  0  0  0  0  0  0  0  0  0  0
   -2.9586    3.4250   22.8257 C   0  0  0  0  0  0  0  0  0  0  0  0
   -2.5829    4.3756   23.7639 C   0  0  0  0  0  0  0  0  0  0  0  0
   -1.2684    4.7986   23.8674 N   0  0  0  0  0  0  0  0  0  0  0  0
   -0.2953    4.2676   23.0266 C   0  0  0  0  0  0  0  0  0  0  0  0
   -0.6782    3.3256   22.0907 C   0  0  0  0  0  0  0  0  0  0  0  0
   -1.2550    2.2032   16.5266 C   0  0  0  0  0  0  0  0  0  0  0  0
   -2.4470    1.6401   17.1755 N   0  0  0  0  0  0  0  0  0  0  0  0
   -3.5337    1.4244   16.2134 C   0  0  0  0  0  0  0  0  0  0  0  0
 11 10  2  0  0  0
 11 12  1  0  0  0
 10  9  1  0  0  0
 12 13  2  0  0  0
  9  8  2  0  0  0
 13  8  1  0  0  0
 13 14  1  0  0  0
  8  7  1  0  0  0
 14 15  2  0  0  0
  7 16  2  0  0  0
  7  4  1  0  0  0
 15 16  1  0  0  0
  3  4  2  0  0  0
  3  2  1  0  0  0
  4  5  1  0  0  0
  2  1  2  0  0  0
 22 21  2  0  0  0
 22 17  1  0  0  0
 21 20  1  0  0  0
  5 17  1  0  0  0
  5  6  2  0  0  0
 23 24  1  0  0  0
  1  6  1  0  0  0
  1 24  1  0  0  0
 17 18  2  0  0  0
 24 25  1  0  0  0
 20 19  2  0  0  0
 18 19  1  0  0  0
M  END
> <minimizedAffinity>
-8.06949

$$$$
4F9Y_LM3_A_403


 25 28  0  0  0  0  0  0  0  0999 V2000
   -4.4686    0.9623   19.2845 C   0  0  0  0  0  0  0  0  0  0  0  0
   -4.4232   -0.0934   20.1501 N   0  0  0  0  0  0  0  0  0  0  0  0
   -3.6847   -0.0826   21.2078 N   0  0  0  0  0  0  0  0  0  0  0  0
   -2.8533    0.9687   21.5132 C   0  0  0  0  0  0  0  0  0  0  0  0
   -2.8698    2.1052   20.7099 C   0  0  0  0  0  0  0  0  0  0  0  0
   -3.6739    2.0820   19.5673 C   0  0  0  0  0  0  0  0  0  0  0  0
   -2.0982    0.8305   22.7735 C   0  0  0  0  0  0  0  0  0  0  0  0
   -2.4428    1.4314   23.9540 C   0  0  0  0  0  0  0  0  0  0  0  0
   -3.5731    2.2147   24.0755 C   0  0  0  0  0  0  0  0  0  0  0  0
   -3.8849    2.7699   25.3098 C   0  0  0  0  0  0  0  0  0  0  0  0
   -3.0646    2.5702   26.3966 C   0  0  0  0  0  0  0  0  0  0  0  0
   -1.9181    1.7980   26.2929 C   0  0  0  0  0  0  0  0  0  0  0  0
   -1.6155    1.2379   25.0659 C   0  0  0  0  0  0  0  0  0  0  0  0
   -0.4886    0.4756   24.9762 C   0  0  0  0  0  0  0  0  0  0  0  0
   -0.1313   -0.0985   23.7903 C   0  0  0  0  0  0  0  0  0  0  0  0
   -0.9370    0.0790   22.7043 C   0  0  0  0  0  0  0  0  0  0  0  0
   -1.9866    3.2813   20.9551 C   0  0  0  0  0  0  0  0  0  0  0  0
   -2.4407    4.4203   21.5885 C   0  0  0  0  0  0  0  0  0  0  0  0
   -1.5765    5.4953   21.7398 C   0  0  0  0  0  0  0  0  0  0  0  0
   -0.2796    5.4444   21.2569 N   0  0  0  0  0  0  0  0  0  0  0  0
    0.1810    4.3016   20.6108 C   0  0  0  0  0  0  0  0  0  0  0  0
   -0.6873    3.2373   20.4587 C   0  0  0  0  0  0  0  0  0  0  0  0
   -6.6868    0.2724   18.2793 C   0  0  0  0  0  0  0  0  0  0  0  0
   -5.3326    0.8310   18.1652 N   0  0  0  0  0  0  0  0  0  0  0  0
   -5.0207    1.2110   16.7827 C   0  0  0  0  0  0  0  0  0  0  0  0
 11 10  2  0  0  0
 11 12  1  0  0  0
 10  9  1  0  0  0
 12 13  2  0  0  0
  9  8  2  0  0  0
 13  8  1  0  0  0
 13 14  1  0  0  0
  8  7  1  0  0  0
 14 15  2  0  0  0
  7 16  2  0  0  0
  7  4  1  0  0  0
 15 16  1  0  0  0
  3  4  2  0  0  0
  3  2  1  0  0  0
  4  5  1  0  0  0
  2  1  2  0  0  0
 22 21  2  0  0  0
 22 17  1  0  0  0
 21 20  1  0  0  0
  5 17  1  0  0  0
  5  6  2  0  0  0
 23 24  1  0  0  0
  1  6  1  0  0  0
  1 24  1  0  0  0
 17 18  2  0  0  0
 24 25  1  0  0  0
 20 19  2  0  0  0
 18 19  1  0  0  0
M  END
> <minimizedAffinity>
-7.89268

$$$$
4F9Y_LM3_A_403


 25 28  0  0  0  0  0  0  0  0999 V2000
   -2.5486    0.4186   23.6230 C   0  0  0  0  0  0  0  0  0  0  0  0
   -1.6783    1.4480   23.8442 N   0  0  0  0  0  0  0  0  0  0  0  0
   -1.4555    2.3604   22.9600 N   0  0  0  0  0  0  0  0  0  0  0  0
   -2.0375    2.3353   21.7149 C   0  0  0  0  0  0  0  0  0  0  0  0
   -2.9721    1.3471   21.4202 C   0  0  0  0  0  0  0  0  0  0  0  0
   -3.2056    0.3644   22.3858 C   0  0  0  0  0  0  0  0  0  0  0  0
   -1.6950    3.4697   20.8353 C   0  0  0  0  0  0  0  0  0  0  0  0
   -2.3058    4.6939   20.8750 C   0  0  0  0  0  0  0  0  0  0  0  0
   -3.3004    4.9879   21.7862 C   0  0  0  0  0  0  0  0  0  0  0  0
   -3.8576    6.2600   21.7963 C   0  0  0  0  0  0  0  0  0  0  0  0
   -3.4485    7.2126   20.8911 C   0  0  0  0  0  0  0  0  0  0  0  0
   -2.4607    6.9339   19.9594 C   0  0  0  0  0  0  0  0  0  0  0  0
   -1.9004    5.6703   19.9582 C   0  0  0  0  0  0  0  0  0  0  0  0
   -0.9258    5.4085   19.0414 C   0  0  0  0  0  0  0  0  0  0  0  0
   -0.3387    4.1772   18.9845 C   0  0  0  0  0  0  0  0  0  0  0  0
   -0.7230    3.2232   19.8801 C   0  0  0  0  0  0  0  0  0  0  0  0
   -3.6352    1.2324   20.0895 C   0  0  0  0  0  0  0  0  0  0  0  0
   -4.9698    1.5328   19.9065 C   0  0  0  0  0  0  0  0  0  0  0  0
   -5.5324    1.3568   18.6505 C   0  0  0  0  0  0  0  0  0  0  0  0
   -4.7814    0.8765   17.5908 N   0  0  0  0  0  0  0  0  0  0  0  0
   -3.4375    0.5649   17.7714 C   0  0  0  0  0  0  0  0  0  0  0  0
   -2.8858    0.7372   19.0266 C   0  0  0  0  0  0  0  0  0  0  0  0
   -3.8187   -1.4830   24.7082 C   0  0  0  0  0  0  0  0  0  0  0  0
   -2.7159   -0.5124   24.6823 N   0  0  0  0  0  0  0  0  0  0  0  0
   -1.8560   -0.6413   25.8642 C   0  0  0  0  0  0  0  0  0  0  0  0
 11 10  2  0  0  0
 11 12  1  0  0  0
 10  9  1  0  0  0
 12 13  2  0  0  0
  9  8  2  0  0  0
 13  8  1  0  0  0
 13 14  1  0  0  0
  8  7  1  0  0  0
 14 15  2  0  0  0
  7 16  2  0  0  0
  7  4  1  0  0  0
 15 16  1  0  0  0
  3  4  2  0  0  0
  3  2  1  0  0  0
  4  5  1  0  0  0
  2  1  2  0  0  0
 22 21  2  0  0  0
 22 17  1  0  0  0
 21 20  1  0  0  0
  5 17  1  0  0  0
  5  6  2  0  0  0
 23 24  1  0  0  0
  1  6  1  0  0  0
  1 24  1  0  0  0
 17 18  2  0  0  0
 24 25  1  0  0  0
 20 19  2  0  0  0
 18 19  1  0  0  0
M  END
> <minimizedAffinity>
-7.78357

$$$$
