5F61_5W0_A_203
  RCSB PDB12061717353D
Coordinates from PDB:5F61:A:203 Model:1 without hydrogens
 37 40  0  0  0  0            999 V2000
   -4.2140  -14.0560   -8.6910   C 0  0  0  0  0  0  0  0  0  0  0  0
   -4.0320  -12.5280   -6.8600   N 0  0  0  0  0  0  0  0  0  0  0  0
   -3.5050  -11.5180   -6.0310   C 0  0  0  0  0  0  0  0  0  0  0  0
   -4.0310  -10.0770   -4.2810   C 0  0  0  0  0  0  0  0  0  0  0  0
   -2.2520   -8.5650   -3.3420   C 0  0  0  0  0  0  0  0  0  0  0  0
    0.4620  -10.2800   -6.2830   C 0  0  0  0  0  0  0  0  0  0  0  0
    0.5950  -11.6370   -6.4990   C 0  0  0  0  0  0  0  0  0  0  0  0
    1.5460  -12.0850   -7.3910   C 0  0  0  0  0  0  0  0  0  0  0  0
    2.2460   -9.8350   -7.8370   C 0  0  0  0  0  0  0  0  0  0  0  0
   -0.7420  -16.7660  -14.8860   C 0  0  0  0  0  0  0  0  0  0  0  0
   -1.3190  -16.1250  -13.9530   N 0  0  0  0  0  0  0  0  0  0  0  0
   -0.5660  -15.0980  -13.3670   C 0  0  0  0  0  0  0  0  0  0  0  0
   -1.3320  -14.4330  -12.2430   C 0  0  0  0  0  0  0  0  0  0  0  0
   -1.8060  -15.2950  -11.2620   N 0  0  0  0  0  0  0  0  0  0  0  0
   -2.5480  -16.3040  -11.8670   C 0  0  0  0  0  0  0  0  0  0  0  0
   -1.7860  -16.9980  -12.9740   C 0  0  0  0  0  0  0  0  0  0  0  0
   -2.3720  -14.6280  -10.1320   C 0  0  0  0  0  0  0  0  0  0  0  0
   -3.7030  -14.7530   -9.7790   C 0  0  0  0  0  0  0  0  0  0  0  0
   -3.3990  -13.2150   -7.9400   C 0  0  0  0  0  0  0  0  0  0  0  0
   -4.3820  -11.0330   -5.1560   N 0  0  0  0  0  0  0  0  0  0  0  0
   -2.6970   -9.6330   -4.3230   C 0  0  0  0  0  0  0  0  0  0  0  0
   -1.8130  -10.1860   -5.2840   C 0  0  0  0  0  0  0  0  0  0  0  0
   -0.4800   -9.7500   -5.3580   N 0  0  0  0  0  0  0  0  0  0  0  0
    2.3650  -11.1950   -8.0600   C 0  0  0  0  0  0  0  0  0  0  0  0
    3.1580   -8.9890   -8.5440   N 0  0  0  0  0  0  0  0  0  0  0  0
    2.9490   -7.4080   -8.9020   S 0  0  0  0  0  0  0  0  0  0  0  0
    1.5800   -7.0270   -8.7710   O 0  0  0  0  0  0  0  0  0  0  0  0
    3.4580   -7.2360  -10.2220   O 0  0  0  0  0  0  0  0  0  0  0  0
    3.9520   -6.4220   -7.7990   C 0  0  0  0  0  0  0  0  0  0  0  0
    3.8800   -4.9670   -8.2330   C 0  0  0  0  0  0  0  0  0  0  0  0
    3.4630   -6.5710   -6.3700   C 0  0  0  0  0  0  0  0  0  0  0  0
    5.3730   -6.9470   -7.9370   C 0  0  0  0  0  0  0  0  0  0  0  0
    1.2990   -9.3740   -6.9440   C 0  0  0  0  0  0  0  0  0  0  0  0
   -2.2430  -11.1130   -6.1420   N 0  0  0  0  0  0  0  0  0  0  0  0
   -2.0680  -13.0860   -8.2850   C 0  0  0  0  0  0  0  0  0  0  0  0
   -1.5640  -13.7900   -9.3690   C 0  0  0  0  0  0  0  0  0  0  0  0
   -0.2670  -13.6620   -9.6510   F 0  0  0  0  0  0  0  0  0  0  0  0
  1 18  2  0  0  0  0
  1 19  1  0  0  0  0
  2  3  1  0  0  0  0
  2 19  1  0  0  0  0
  3 20  2  0  0  0  0
  3 34  1  0  0  0  0
  4 20  1  0  0  0  0
  4 21  2  0  0  0  0
  5 21  1  0  0  0  0
  6  7  2  0  0  0  0
  6 23  1  0  0  0  0
  6 33  1  0  0  0  0
  7  8  1  0  0  0  0
  8 24  2  0  0  0  0
  9 24  1  0  0  0  0
  9 25  1  0  0  0  0
  9 33  2  0  0  0  0
 10 11  1  0  0  0  0
 11 12  1  0  0  0  0
 11 16  1  0  0  0  0
 12 13  1  0  0  0  0
 13 14  1  0  0  0  0
 14 15  1  0  0  0  0
 14 17  1  0  0  0  0
 15 16  1  0  0  0  0
 17 18  1  0  0  0  0
 17 36  2  0  0  0  0
 19 35  2  0  0  0  0
 21 22  1  0  0  0  0
 22 23  1  0  0  0  0
 22 34  2  0  0  0  0
 25 26  1  0  0  0  0
 26 27  2  0  0  0  0
 26 28  2  0  0  0  0
 26 29  1  0  0  0  0
 29 30  1  0  0  0  0
 29 31  1  0  0  0  0
 29 32  1  0  0  0  0
 35 36  1  0  0  0  0
 36 37  1  0  0  0  0
A    1
C10
A    2
N12
A    3
C13
A    4
C15
A    5
C17
A    6
C20
A    7
C21
A    8
C22
A    9
C24
A   10
C01
A   11
N02
A   12
C03
A   13
C04
A   14
N05
A   15
C06
A   16
C07
A   17
C08
A   18
C09
A   19
C11
A   20
N14
A   21
C16
A   22
C18
A   23
N19
A   24
C23
A   25
N25
A   26
S26
A   27
O27
A   28
O28
A   29
C29
A   30
C30
A   31
C31
A   32
C32
A   33
C33
A   34
N34
A   35
C35
A   36
C36
A   37
F37
M  END
>  <InstanceId>
5F61_5W0_A_203

>  <ChemCompId>
5W0

>  <PdbId>
5F61

>  <ChainId>
A

>  <ResidueNumber>
203

>  <InsertionCode>


>  <Model>
1

>  <AltIds>


>  <MissingHeavyAtoms>
0

>  <ObservedFormula>
C26 N7 O2 S F

>  <Name>
~{N}-[3-[[2-[[3-fluoranyl-4-(4-methylpiperazin-1-yl)phenyl]amino]-5-methyl-pyrimidin-4-yl]amino]phenyl]-2-methyl-propane-2-sulfonamide

>  <SystematicName>
~{N}-[3-[[2-[[3-fluoranyl-4-(4-methylpiperazin-1-yl)phenyl]amino]-5-methyl-pyrimidin-4-yl]amino]phenyl]-2-methyl-propane-2-sulfonamide

>  <Synonyms>


>  <Type>
NON-POLYMER

>  <Formula>
C26 H34 F N7 O2 S

>  <MolecularWeight>
527.657

>  <ModifiedDate>
2017-02-03

>  <Parent>


>  <OneLetterCode>


>  <SubcomponentList>


>  <AmbiguousFlag>
N

>  <InChI>
InChI=1S/C26H34FN7O2S/c1-18-17-28-25(30-20-9-10-23(22(27)16-20)34-13-11-33(5)12-14-34)31-24(18)29-19-7-6-8-21(15-19)32-37(35,36)26(2,3)4/h6-10,15-17,32H,11-14H2,1-5H3,(H2,28,29,30,31)

>  <InChIKey>
OGJFKWUOCYNWAB-UHFFFAOYSA-N

>  <SMILES>
Cc1cnc(nc1Nc2cccc(c2)NS(=O)(=O)C(C)(C)C)Nc3ccc(c(c3)F)N4CCN(CC4)C

$$$$
