6E4A_HRY_A_201


 39 43  0  0  0  0  0  0  0  0999 V2000
   15.9558    0.5303   46.7982 N   0  0  0  0  0  0  0  0  0  0  0  0
   15.7435   -1.8051   46.9390 N   0  0  0  0  0  0  0  0  0  0  0  0
   13.3240    0.9453   49.9984 C   0  0  0  0  0  0  0  0  0  0  0  0
   13.9042    2.1053   49.4301 C   0  0  0  0  0  0  0  0  0  0  0  0
   14.7462    1.9369   48.3446 C   0  0  0  0  0  0  0  0  0  0  0  0
   13.6785   -0.2738   49.5577 C   0  0  0  0  0  0  0  0  0  0  0  0
   14.4918   -0.4271   48.4302 C   0  0  0  0  0  0  0  0  0  0  0  0
   15.0512    0.6789   47.8470 C   0  0  0  0  0  0  0  0  0  0  0  0
   16.3158   -0.6707   46.3786 C   0  0  0  0  0  0  0  0  0  0  0  0
   14.8543   -1.7114   47.9511 C   0  0  0  0  0  0  0  0  0  0  0  0
   11.0198    2.3827   52.6435 C   0  0  0  0  0  0  0  0  0  0  0  0
   11.9004    2.2768   51.5782 C   0  0  0  0  0  0  0  0  0  0  0  0
   12.4171    1.0785   51.1917 C   0  0  0  0  0  0  0  0  0  0  0  0
   11.9991   -0.0928   51.8095 C   0  0  0  0  0  0  0  0  0  0  0  0
   10.7728   -1.2812   53.4729 C   0  0  0  0  0  0  0  0  0  0  0  0
    9.7857    1.1906   54.2454 O   0  0  0  0  0  0  0  0  0  0  0  0
   10.6424    1.2045   53.2925 C   0  0  0  0  0  0  0  0  0  0  0  0
   11.1240   -0.0036   52.8430 N   0  0  0  0  0  0  0  0  0  0  0  0
   17.1530   -0.8719   45.2783 N   0  0  0  0  0  0  0  0  0  0  0  0
   17.6825    0.2451   44.4738 C   0  0  0  0  0  0  0  0  0  0  0  0
   16.5072    0.4014   43.4237 C   0  0  0  0  0  0  0  0  0  0  0  0
   16.2819   -0.8840   42.6297 N   0  0  0  0  0  0  0  0  0  0  0  0
   16.2223   -2.0458   43.5599 C   0  0  0  0  0  0  0  0  0  0  0  0
   17.3212   -2.1636   44.5940 C   0  0  0  0  0  0  0  0  0  0  0  0
   15.0749   -1.0445   41.7664 C   0  0  0  0  0  0  0  0  0  0  0  0
   13.9697   -1.7222   42.5199 C   0  0  0  0  0  0  0  0  0  0  0  0
   12.8510   -0.8859   43.0032 N   0  0  0  0  0  0  0  0  0  0  0  0
   11.4719   -1.2488   42.5411 C   0  0  0  0  0  0  0  0  0  0  0  0
   12.9063   -1.0865   44.4779 C   0  0  0  0  0  0  0  0  0  0  0  0
   14.3648   -2.8573   48.4725 N   0  0  0  0  0  0  0  0  0  0  0  0
   13.9135   -2.8626   49.3475 H   0  0  0  0  0  0  0  0  0  0  0  0
   14.5232   -4.0876   47.7031 C   0  0  0  0  0  0  0  0  0  0  0  0
   15.2975   -5.1641   48.4883 C   0  0  0  0  0  0  0  0  0  0  0  0
   15.9904   -4.8753   49.6664 C   0  0  0  0  0  0  0  0  0  0  0  0
   16.7040   -5.8236   50.4052 C   0  0  0  0  0  0  0  0  0  0  0  0
   17.5778   -5.3241   51.9311 Cl  0  0  0  0  0  0  0  0  0  0  0  0
   15.3395   -6.4718   48.0162 C   0  0  0  0  0  0  0  0  0  0  0  0
   16.0460   -7.4418   48.7383 C   0  0  0  0  0  0  0  0  0  0  0  0
   16.7145   -7.1199   49.9159 C   0  0  0  0  0  0  0  0  0  0  0  0
 29 27  1  0  0  0
 38 39  2  0  0  0
 38 37  1  0  0  0
 39 35  1  0  0  0
 37 33  2  0  0  0
 27 26  1  0  0  0
 27 28  1  0  0  0
 26 25  1  0  0  0
 35 34  2  0  0  0
 35 36  1  0  0  0
 33 34  1  0  0  0
 33 32  1  0  0  0
 21 22  1  0  0  0
 21 20  1  0  0  0
 32 30  1  0  0  0
 25 22  1  0  0  0
 22 23  1  0  0  0
 20 19  1  0  0  0
 30 10  1  0  0  0
  2 10  2  0  0  0
  2  9  1  0  0  0
 23 24  1  0  0  0
 19 24  1  0  0  0
 19  9  1  0  0  0
 10  7  1  0  0  0
  9  1  2  0  0  0
  7  6  2  0  0  0
  7  8  1  0  0  0
  1  8  1  0  0  0
  6  3  1  0  0  0
  8  5  2  0  0  0
  3 13  1  0  0  0
  3  4  2  0  0  0
 12 13  1  0  0  0
 12 11  2  0  0  0
  5  4  1  0  0  0
 13 14  2  0  0  0
 11 17  1  0  0  0
 14 18  1  0  0  0
 17 18  1  0  0  0
 17 16  2  0  0  0
 18 15  1  0  0  0
 30 31  1  0  0  0
M  END
> <minimizedAffinity>
-8.99381

$$$$
6E4A_HRY_A_201


 39 43  0  0  0  0  0  0  0  0999 V2000
   15.8911    0.2054   46.6845 N   0  0  0  0  0  0  0  0  0  0  0  0
   15.5528   -2.1087   46.9069 N   0  0  0  0  0  0  0  0  0  0  0  0
   13.3464    0.8704   49.9128 C   0  0  0  0  0  0  0  0  0  0  0  0
   13.9789    1.9771   49.2963 C   0  0  0  0  0  0  0  0  0  0  0  0
   14.7900    1.7268   48.2030 C   0  0  0  0  0  0  0  0  0  0  0  0
   13.6247   -0.3803   49.5072 C   0  0  0  0  0  0  0  0  0  0  0  0
   14.4071   -0.6153   48.3721 C   0  0  0  0  0  0  0  0  0  0  0  0
   15.0157    0.4382   47.7427 C   0  0  0  0  0  0  0  0  0  0  0  0
   16.1763   -1.0268   46.2993 C   0  0  0  0  0  0  0  0  0  0  0  0
   14.6892   -1.9327   47.9302 C   0  0  0  0  0  0  0  0  0  0  0  0
   11.2017    2.5248   52.5653 C   0  0  0  0  0  0  0  0  0  0  0  0
   12.0554    2.3337   51.4900 C   0  0  0  0  0  0  0  0  0  0  0  0
   12.4706    1.0927   51.1160 C   0  0  0  0  0  0  0  0  0  0  0  0
   11.9712   -0.0325   51.7585 C   0  0  0  0  0  0  0  0  0  0  0  0
   10.6804   -1.0952   53.4577 C   0  0  0  0  0  0  0  0  0  0  0  0
    9.9019    1.4581   54.2032 O   0  0  0  0  0  0  0  0  0  0  0  0
   10.7427    1.3900   53.2385 C   0  0  0  0  0  0  0  0  0  0  0  0
   11.1213    0.1410   52.8023 N   0  0  0  0  0  0  0  0  0  0  0  0
   16.9805   -1.3100   45.1925 N   0  0  0  0  0  0  0  0  0  0  0  0
   17.6130   -0.2512   44.3838 C   0  0  0  0  0  0  0  0  0  0  0  0
   16.4510    0.0229   43.3430 C   0  0  0  0  0  0  0  0  0  0  0  0
   16.0918   -1.2327   42.5508 N   0  0  0  0  0  0  0  0  0  0  0  0
   15.9233   -2.3835   43.4815 C   0  0  0  0  0  0  0  0  0  0  0  0
   17.0129   -2.6116   44.5069 C   0  0  0  0  0  0  0  0  0  0  0  0
   14.8680   -1.2708   41.6971 C   0  0  0  0  0  0  0  0  0  0  0  0
   15.0789   -0.4939   40.4320 C   0  0  0  0  0  0  0  0  0  0  0  0
   14.2482    0.7091   40.2152 N   0  0  0  0  0  0  0  0  0  0  0  0
   14.8865    2.0408   40.4731 C   0  0  0  0  0  0  0  0  0  0  0  0
   13.9297    0.6289   38.7625 C   0  0  0  0  0  0  0  0  0  0  0  0
   14.1470   -3.0319   48.4979 N   0  0  0  0  0  0  0  0  0  0  0  0
   13.3333   -2.9678   49.0484 H   0  0  0  0  0  0  0  0  0  0  0  0
   14.8005   -4.3176   48.2727 C   0  0  0  0  0  0  0  0  0  0  0  0
   15.6839   -4.7331   49.4652 C   0  0  0  0  0  0  0  0  0  0  0  0
   16.5855   -5.7976   49.3914 C   0  0  0  0  0  0  0  0  0  0  0  0
   17.4021   -6.2043   50.4506 C   0  0  0  0  0  0  0  0  0  0  0  0
   18.5407   -7.6181   50.2358 Cl  0  0  0  0  0  0  0  0  0  0  0  0
   15.5828   -4.0526   50.6741 C   0  0  0  0  0  0  0  0  0  0  0  0
   16.3909   -4.4387   51.7508 C   0  0  0  0  0  0  0  0  0  0  0  0
   17.2877   -5.4970   51.6366 C   0  0  0  0  0  0  0  0  0  0  0  0
 29 27  1  0  0  0
 38 39  2  0  0  0
 38 37  1  0  0  0
 39 35  1  0  0  0
 37 33  2  0  0  0
 27 26  1  0  0  0
 27 28  1  0  0  0
 26 25  1  0  0  0
 35 34  2  0  0  0
 35 36  1  0  0  0
 33 34  1  0  0  0
 33 32  1  0  0  0
 21 22  1  0  0  0
 21 20  1  0  0  0
 32 30  1  0  0  0
 25 22  1  0  0  0
 22 23  1  0  0  0
 20 19  1  0  0  0
 30 10  1  0  0  0
  2 10  2  0  0  0
  2  9  1  0  0  0
 23 24  1  0  0  0
 19 24  1  0  0  0
 19  9  1  0  0  0
 10  7  1  0  0  0
  9  1  2  0  0  0
  7  6  2  0  0  0
  7  8  1  0  0  0
  1  8  1  0  0  0
  6  3  1  0  0  0
  8  5  2  0  0  0
  3 13  1  0  0  0
  3  4  2  0  0  0
 12 13  1  0  0  0
 12 11  2  0  0  0
  5  4  1  0  0  0
 13 14  2  0  0  0
 11 17  1  0  0  0
 14 18  1  0  0  0
 17 18  1  0  0  0
 17 16  2  0  0  0
 18 15  1  0  0  0
 30 31  1  0  0  0
M  END
> <minimizedAffinity>
-8.36944

$$$$
6E4A_HRY_A_201


 39 43  0  0  0  0  0  0  0  0999 V2000
   15.8768    0.2760   46.7349 N   0  0  0  0  0  0  0  0  0  0  0  0
   15.5568   -2.0437   46.9228 N   0  0  0  0  0  0  0  0  0  0  0  0
   13.3054    0.8744   49.9550 C   0  0  0  0  0  0  0  0  0  0  0  0
   13.9326    1.9949   49.3583 C   0  0  0  0  0  0  0  0  0  0  0  0
   14.7529    1.7667   48.2670 C   0  0  0  0  0  0  0  0  0  0  0  0
   13.5971   -0.3681   49.5340 C   0  0  0  0  0  0  0  0  0  0  0  0
   14.3889   -0.5806   48.4009 C   0  0  0  0  0  0  0  0  0  0  0  0
   14.9926    0.4867   47.7904 C   0  0  0  0  0  0  0  0  0  0  0  0
   16.1751   -0.9482   46.3345 C   0  0  0  0  0  0  0  0  0  0  0  0
   14.6850   -1.8893   47.9426 C   0  0  0  0  0  0  0  0  0  0  0  0
   11.0888    2.4648   52.5874 C   0  0  0  0  0  0  0  0  0  0  0  0
   11.9508    2.2985   51.5147 C   0  0  0  0  0  0  0  0  0  0  0  0
   12.4199    1.0724   51.1554 C   0  0  0  0  0  0  0  0  0  0  0  0
   11.9695   -0.0658   51.8110 C   0  0  0  0  0  0  0  0  0  0  0  0
   10.7250   -1.1638   53.5224 C   0  0  0  0  0  0  0  0  0  0  0  0
    9.8355    1.3618   54.2375 O   0  0  0  0  0  0  0  0  0  0  0  0
   10.6792    1.3190   53.2739 C   0  0  0  0  0  0  0  0  0  0  0  0
   11.1121    0.0827   52.8525 N   0  0  0  0  0  0  0  0  0  0  0  0
   16.9888   -1.2092   45.2292 N   0  0  0  0  0  0  0  0  0  0  0  0
   18.1586   -0.3755   44.8950 C   0  0  0  0  0  0  0  0  0  0  0  0
   17.4581    0.7222   43.9935 C   0  0  0  0  0  0  0  0  0  0  0  0
   16.7693    0.1029   42.7788 N   0  0  0  0  0  0  0  0  0  0  0  0
   15.9459   -1.0621   43.2073 C   0  0  0  0  0  0  0  0  0  0  0  0
   16.6051   -2.0832   44.1093 C   0  0  0  0  0  0  0  0  0  0  0  0
   15.8444    0.9128   41.9322 C   0  0  0  0  0  0  0  0  0  0  0  0
   16.5067    2.1823   41.4871 C   0  0  0  0  0  0  0  0  0  0  0  0
   15.9569    3.4592   41.9885 N   0  0  0  0  0  0  0  0  0  0  0  0
   16.8194    4.2623   42.9150 C   0  0  0  0  0  0  0  0  0  0  0  0
   15.7707    4.2480   40.7390 C   0  0  0  0  0  0  0  0  0  0  0  0
   14.1485   -3.0009   48.4913 N   0  0  0  0  0  0  0  0  0  0  0  0
   13.3055   -3.3773   48.1494 H   0  0  0  0  0  0  0  0  0  0  0  0
   14.8529   -3.6288   49.6050 C   0  0  0  0  0  0  0  0  0  0  0  0
   15.5823   -4.9163   49.1747 C   0  0  0  0  0  0  0  0  0  0  0  0
   16.5914   -5.4965   49.9471 C   0  0  0  0  0  0  0  0  0  0  0  0
   17.2757   -6.6621   49.5901 C   0  0  0  0  0  0  0  0  0  0  0  0
   18.5838   -7.3242   50.6817 Cl  0  0  0  0  0  0  0  0  0  0  0  0
   15.2563   -5.5288   47.9692 C   0  0  0  0  0  0  0  0  0  0  0  0
   15.9255   -6.6988   47.5886 C   0  0  0  0  0  0  0  0  0  0  0  0
   16.9176   -7.2557   48.3904 C   0  0  0  0  0  0  0  0  0  0  0  0
 29 27  1  0  0  0
 38 39  2  0  0  0
 38 37  1  0  0  0
 39 35  1  0  0  0
 37 33  2  0  0  0
 27 26  1  0  0  0
 27 28  1  0  0  0
 26 25  1  0  0  0
 35 34  2  0  0  0
 35 36  1  0  0  0
 33 34  1  0  0  0
 33 32  1  0  0  0
 21 22  1  0  0  0
 21 20  1  0  0  0
 32 30  1  0  0  0
 25 22  1  0  0  0
 22 23  1  0  0  0
 20 19  1  0  0  0
 30 10  1  0  0  0
  2 10  2  0  0  0
  2  9  1  0  0  0
 23 24  1  0  0  0
 19 24  1  0  0  0
 19  9  1  0  0  0
 10  7  1  0  0  0
  9  1  2  0  0  0
  7  6  2  0  0  0
  7  8  1  0  0  0
  1  8  1  0  0  0
  6  3  1  0  0  0
  8  5  2  0  0  0
  3 13  1  0  0  0
  3  4  2  0  0  0
 12 13  1  0  0  0
 12 11  2  0  0  0
  5  4  1  0  0  0
 13 14  2  0  0  0
 11 17  1  0  0  0
 14 18  1  0  0  0
 17 18  1  0  0  0
 17 16  2  0  0  0
 18 15  1  0  0  0
 30 31  1  0  0  0
M  END
> <minimizedAffinity>
-8.31462

$$$$
6E4A_HRY_A_201


 39 43  0  0  0  0  0  0  0  0999 V2000
   15.4899   -5.7387   49.2178 N   0  0  0  0  0  0  0  0  0  0  0  0
   15.4847   -5.3850   46.8954 N   0  0  0  0  0  0  0  0  0  0  0  0
   14.5283   -1.7311   49.8130 C   0  0  0  0  0  0  0  0  0  0  0  0
   14.6422   -2.5853   50.9366 C   0  0  0  0  0  0  0  0  0  0  0  0
   14.9987   -3.9031   50.7086 C   0  0  0  0  0  0  0  0  0  0  0  0
   14.6551   -2.2271   48.5704 C   0  0  0  0  0  0  0  0  0  0  0  0
   15.0625   -3.5479   48.3569 C   0  0  0  0  0  0  0  0  0  0  0  0
   15.2003   -4.3923   49.4266 C   0  0  0  0  0  0  0  0  0  0  0  0
   15.5967   -6.2271   47.9939 C   0  0  0  0  0  0  0  0  0  0  0  0
   15.2145   -4.0706   47.0477 C   0  0  0  0  0  0  0  0  0  0  0  0
   14.4824    2.0581   49.7019 C   0  0  0  0  0  0  0  0  0  0  0  0
   14.8889    0.7397   49.5669 C   0  0  0  0  0  0  0  0  0  0  0  0
   14.1247   -0.2951   50.0113 C   0  0  0  0  0  0  0  0  0  0  0  0
   12.8628   -0.0538   50.5383 C   0  0  0  0  0  0  0  0  0  0  0  0
   11.1242    1.4027   51.2724 C   0  0  0  0  0  0  0  0  0  0  0  0
   12.7406    3.4736   50.3895 O   0  0  0  0  0  0  0  0  0  0  0  0
   13.2324    2.2954   50.2791 C   0  0  0  0  0  0  0  0  0  0  0  0
   12.4465    1.2321   50.6601 N   0  0  0  0  0  0  0  0  0  0  0  0
   15.9676   -7.5486   47.7327 N   0  0  0  0  0  0  0  0  0  0  0  0
   15.2087   -8.7002   48.2554 C   0  0  0  0  0  0  0  0  0  0  0  0
   15.9256   -8.8816   49.6560 C   0  0  0  0  0  0  0  0  0  0  0  0
   17.4219   -9.1444   49.4969 N   0  0  0  0  0  0  0  0  0  0  0  0
   18.0078   -8.1570   48.5479 C   0  0  0  0  0  0  0  0  0  0  0  0
   17.2910   -7.9509   47.2309 C   0  0  0  0  0  0  0  0  0  0  0  0
   18.3329   -9.1008   50.6785 C   0  0  0  0  0  0  0  0  0  0  0  0
   19.0647   -7.7932   50.7367 C   0  0  0  0  0  0  0  0  0  0  0  0
   18.9120   -6.9713   51.9555 N   0  0  0  0  0  0  0  0  0  0  0  0
   17.8661   -5.8976   51.9340 C   0  0  0  0  0  0  0  0  0  0  0  0
   18.5136   -7.9766   52.9797 C   0  0  0  0  0  0  0  0  0  0  0  0
   15.0835   -3.3175   45.9340 N   0  0  0  0  0  0  0  0  0  0  0  0
   14.1947   -3.1132   45.5633 H   0  0  0  0  0  0  0  0  0  0  0  0
   16.2960   -2.8148   45.2954 C   0  0  0  0  0  0  0  0  0  0  0  0
   16.4593   -1.2939   45.4826 C   0  0  0  0  0  0  0  0  0  0  0  0
   15.3715   -0.4177   45.4596 C   0  0  0  0  0  0  0  0  0  0  0  0
   15.4798    0.9663   45.6247 C   0  0  0  0  0  0  0  0  0  0  0  0
   13.9822    2.0129   45.5695 Cl  0  0  0  0  0  0  0  0  0  0  0  0
   17.7263   -0.7487   45.6616 C   0  0  0  0  0  0  0  0  0  0  0  0
   17.8626    0.6348   45.8312 C   0  0  0  0  0  0  0  0  0  0  0  0
   16.7540    1.4762   45.8153 C   0  0  0  0  0  0  0  0  0  0  0  0
 29 27  1  0  0  0
 38 39  2  0  0  0
 38 37  1  0  0  0
 39 35  1  0  0  0
 37 33  2  0  0  0
 27 26  1  0  0  0
 27 28  1  0  0  0
 26 25  1  0  0  0
 35 34  2  0  0  0
 35 36  1  0  0  0
 33 34  1  0  0  0
 33 32  1  0  0  0
 21 22  1  0  0  0
 21 20  1  0  0  0
 32 30  1  0  0  0
 25 22  1  0  0  0
 22 23  1  0  0  0
 20 19  1  0  0  0
 30 10  1  0  0  0
  2 10  2  0  0  0
  2  9  1  0  0  0
 23 24  1  0  0  0
 19 24  1  0  0  0
 19  9  1  0  0  0
 10  7  1  0  0  0
  9  1  2  0  0  0
  7  6  2  0  0  0
  7  8  1  0  0  0
  1  8  1  0  0  0
  6  3  1  0  0  0
  8  5  2  0  0  0
  3 13  1  0  0  0
  3  4  2  0  0  0
 12 13  1  0  0  0
 12 11  2  0  0  0
  5  4  1  0  0  0
 13 14  2  0  0  0
 11 17  1  0  0  0
 14 18  1  0  0  0
 17 18  1  0  0  0
 17 16  2  0  0  0
 18 15  1  0  0  0
 30 31  1  0  0  0
M  END
> <minimizedAffinity>
-8.24630

$$$$
6E4A_HRY_A_201


 39 43  0  0  0  0  0  0  0  0999 V2000
   15.5718   -5.0000   47.3454 N   0  0  0  0  0  0  0  0  0  0  0  0
   16.0081   -3.9132   45.3089 N   0  0  0  0  0  0  0  0  0  0  0  0
   14.4242   -1.3642   49.0200 C   0  0  0  0  0  0  0  0  0  0  0  0
   14.3375   -2.5403   49.8038 C   0  0  0  0  0  0  0  0  0  0  0  0
   14.7606   -3.7271   49.2309 C   0  0  0  0  0  0  0  0  0  0  0  0
   14.8000   -1.4359   47.7317 C   0  0  0  0  0  0  0  0  0  0  0  0
   15.2704   -2.6323   47.1810 C   0  0  0  0  0  0  0  0  0  0  0  0
   15.2174   -3.7828   47.9226 C   0  0  0  0  0  0  0  0  0  0  0  0
   15.9242   -5.0697   46.0731 C   0  0  0  0  0  0  0  0  0  0  0  0
   15.6844   -2.7088   45.8270 C   0  0  0  0  0  0  0  0  0  0  0  0
   14.1169    2.3314   49.8075 C   0  0  0  0  0  0  0  0  0  0  0  0
   14.5868    1.1214   49.3210 C   0  0  0  0  0  0  0  0  0  0  0  0
   13.9580   -0.0541   49.5949 C   0  0  0  0  0  0  0  0  0  0  0  0
   12.7649   -0.0575   50.3054 C   0  0  0  0  0  0  0  0  0  0  0  0
   11.0489    1.0263   51.5559 C   0  0  0  0  0  0  0  0  0  0  0  0
   12.3942    3.3856   51.0039 O   0  0  0  0  0  0  0  0  0  0  0  0
   12.9426    2.3141   50.5642 C   0  0  0  0  0  0  0  0  0  0  0  0
   12.2857    1.1231   50.7728 N   0  0  0  0  0  0  0  0  0  0  0  0
   16.3680   -6.2498   45.4711 N   0  0  0  0  0  0  0  0  0  0  0  0
   15.7410   -7.5576   45.7391 C   0  0  0  0  0  0  0  0  0  0  0  0
   16.5824   -8.0052   47.0041 C   0  0  0  0  0  0  0  0  0  0  0  0
   18.0757   -8.0844   46.6925 N   0  0  0  0  0  0  0  0  0  0  0  0
   18.5075   -6.8482   45.9823 C   0  0  0  0  0  0  0  0  0  0  0  0
   17.6713   -6.3970   44.8042 C   0  0  0  0  0  0  0  0  0  0  0  0
   19.0755   -8.2440   47.7893 C   0  0  0  0  0  0  0  0  0  0  0  0
   18.4636   -7.9124   49.1176 C   0  0  0  0  0  0  0  0  0  0  0  0
   18.4787   -6.4992   49.5500 N   0  0  0  0  0  0  0  0  0  0  0  0
   17.5136   -6.0989   50.6250 C   0  0  0  0  0  0  0  0  0  0  0  0
   19.8571   -6.3374   50.0903 C   0  0  0  0  0  0  0  0  0  0  0  0
   15.7546   -1.6307   45.0162 N   0  0  0  0  0  0  0  0  0  0  0  0
   15.8743   -0.7264   45.3865 H   0  0  0  0  0  0  0  0  0  0  0  0
   15.6483   -1.8433   43.5760 C   0  0  0  0  0  0  0  0  0  0  0  0
   14.1894   -1.7606   43.0863 C   0  0  0  0  0  0  0  0  0  0  0  0
   13.8052   -2.1799   41.8103 C   0  0  0  0  0  0  0  0  0  0  0  0
   12.4935   -2.1199   41.3305 C   0  0  0  0  0  0  0  0  0  0  0  0
   12.1130   -2.6938   39.6373 Cl  0  0  0  0  0  0  0  0  0  0  0  0
   13.2067   -1.2347   43.9184 C   0  0  0  0  0  0  0  0  0  0  0  0
   11.8842   -1.1649   43.4629 C   0  0  0  0  0  0  0  0  0  0  0  0
   11.5359   -1.6042   42.1889 C   0  0  0  0  0  0  0  0  0  0  0  0
 29 27  1  0  0  0
 38 39  2  0  0  0
 38 37  1  0  0  0
 39 35  1  0  0  0
 37 33  2  0  0  0
 27 26  1  0  0  0
 27 28  1  0  0  0
 26 25  1  0  0  0
 35 34  2  0  0  0
 35 36  1  0  0  0
 33 34  1  0  0  0
 33 32  1  0  0  0
 21 22  1  0  0  0
 21 20  1  0  0  0
 32 30  1  0  0  0
 25 22  1  0  0  0
 22 23  1  0  0  0
 20 19  1  0  0  0
 30 10  1  0  0  0
  2 10  2  0  0  0
  2  9  1  0  0  0
 23 24  1  0  0  0
 19 24  1  0  0  0
 19  9  1  0  0  0
 10  7  1  0  0  0
  9  1  2  0  0  0
  7  6  2  0  0  0
  7  8  1  0  0  0
  1  8  1  0  0  0
  6  3  1  0  0  0
  8  5  2  0  0  0
  3 13  1  0  0  0
  3  4  2  0  0  0
 12 13  1  0  0  0
 12 11  2  0  0  0
  5  4  1  0  0  0
 13 14  2  0  0  0
 11 17  1  0  0  0
 14 18  1  0  0  0
 17 18  1  0  0  0
 17 16  2  0  0  0
 18 15  1  0  0  0
 30 31  1  0  0  0
M  END
> <minimizedAffinity>
-8.16899

$$$$
6E4A_HRY_A_201


 39 43  0  0  0  0  0  0  0  0999 V2000
   15.2659   -1.8894   44.7419 N   0  0  0  0  0  0  0  0  0  0  0  0
   14.0049   -0.8670   46.4399 N   0  0  0  0  0  0  0  0  0  0  0  0
   15.8007   -5.2278   47.1727 C   0  0  0  0  0  0  0  0  0  0  0  0
   16.3370   -5.2382   45.8622 C   0  0  0  0  0  0  0  0  0  0  0  0
   16.1740   -4.0997   45.0920 C   0  0  0  0  0  0  0  0  0  0  0  0
   15.0661   -4.1846   47.5948 C   0  0  0  0  0  0  0  0  0  0  0  0
   14.9506   -3.0226   46.8251 C   0  0  0  0  0  0  0  0  0  0  0  0
   15.4769   -2.9963   45.5607 C   0  0  0  0  0  0  0  0  0  0  0  0
   14.5282   -0.8724   45.1536 C   0  0  0  0  0  0  0  0  0  0  0  0
   14.1909   -1.9127   47.2739 C   0  0  0  0  0  0  0  0  0  0  0  0
   17.0639   -7.7135   49.7413 C   0  0  0  0  0  0  0  0  0  0  0  0
   16.9756   -6.6119   48.9045 C   0  0  0  0  0  0  0  0  0  0  0  0
   15.9375   -6.4502   48.0394 C   0  0  0  0  0  0  0  0  0  0  0  0
   14.8835   -7.3543   48.0385 C   0  0  0  0  0  0  0  0  0  0  0  0
   13.8222   -9.3610   48.7666 C   0  0  0  0  0  0  0  0  0  0  0  0
   15.9817   -9.6621   50.4773 O   0  0  0  0  0  0  0  0  0  0  0  0
   16.0237   -8.6452   49.6988 C   0  0  0  0  0  0  0  0  0  0  0  0
   14.9504   -8.4283   48.8655 N   0  0  0  0  0  0  0  0  0  0  0  0
   14.3565    0.2943   44.4044 N   0  0  0  0  0  0  0  0  0  0  0  0
   14.6607    0.3594   42.9627 C   0  0  0  0  0  0  0  0  0  0  0  0
   16.1949    0.7474   43.0287 C   0  0  0  0  0  0  0  0  0  0  0  0
   16.4149    2.0647   43.7700 N   0  0  0  0  0  0  0  0  0  0  0  0
   15.6530    2.0548   45.0500 C   0  0  0  0  0  0  0  0  0  0  0  0
   14.2000    1.6355   44.9891 C   0  0  0  0  0  0  0  0  0  0  0  0
   17.7881    2.4963   44.1653 C   0  0  0  0  0  0  0  0  0  0  0  0
   18.7159    1.3201   44.2306 C   0  0  0  0  0  0  0  0  0  0  0  0
   19.8881    1.3159   43.3304 N   0  0  0  0  0  0  0  0  0  0  0  0
   19.6308    1.5089   41.8662 C   0  0  0  0  0  0  0  0  0  0  0  0
   20.6756    2.4838   43.8137 C   0  0  0  0  0  0  0  0  0  0  0  0
   13.6231   -1.8555   48.4983 N   0  0  0  0  0  0  0  0  0  0  0  0
   12.7181   -2.2107   48.6532 H   0  0  0  0  0  0  0  0  0  0  0  0
   14.3882   -1.2525   49.5854 C   0  0  0  0  0  0  0  0  0  0  0  0
   13.8314    0.1271   49.9874 C   0  0  0  0  0  0  0  0  0  0  0  0
   12.6263    0.2734   50.6787 C   0  0  0  0  0  0  0  0  0  0  0  0
   12.0891    1.5065   51.0595 C   0  0  0  0  0  0  0  0  0  0  0  0
   10.4982    1.5719   51.9573 Cl  0  0  0  0  0  0  0  0  0  0  0  0
   14.5247    1.2827   49.6428 C   0  0  0  0  0  0  0  0  0  0  0  0
   14.0093    2.5309   50.0138 C   0  0  0  0  0  0  0  0  0  0  0  0
   12.8110    2.6375   50.7138 C   0  0  0  0  0  0  0  0  0  0  0  0
 29 27  1  0  0  0
 38 39  2  0  0  0
 38 37  1  0  0  0
 39 35  1  0  0  0
 37 33  2  0  0  0
 27 26  1  0  0  0
 27 28  1  0  0  0
 26 25  1  0  0  0
 35 34  2  0  0  0
 35 36  1  0  0  0
 33 34  1  0  0  0
 33 32  1  0  0  0
 21 22  1  0  0  0
 21 20  1  0  0  0
 32 30  1  0  0  0
 25 22  1  0  0  0
 22 23  1  0  0  0
 20 19  1  0  0  0
 30 10  1  0  0  0
  2 10  2  0  0  0
  2  9  1  0  0  0
 23 24  1  0  0  0
 19 24  1  0  0  0
 19  9  1  0  0  0
 10  7  1  0  0  0
  9  1  2  0  0  0
  7  6  2  0  0  0
  7  8  1  0  0  0
  1  8  1  0  0  0
  6  3  1  0  0  0
  8  5  2  0  0  0
  3 13  1  0  0  0
  3  4  2  0  0  0
 12 13  1  0  0  0
 12 11  2  0  0  0
  5  4  1  0  0  0
 13 14  2  0  0  0
 11 17  1  0  0  0
 14 18  1  0  0  0
 17 18  1  0  0  0
 17 16  2  0  0  0
 18 15  1  0  0  0
 30 31  1  0  0  0
M  END
> <minimizedAffinity>
-8.15074

$$$$
6E4A_HRY_A_201


 39 43  0  0  0  0  0  0  0  0999 V2000
   15.5692   -5.7577   49.3130 N   0  0  0  0  0  0  0  0  0  0  0  0
   15.4332   -5.4388   46.9895 N   0  0  0  0  0  0  0  0  0  0  0  0
   14.4922   -1.7790   49.9049 C   0  0  0  0  0  0  0  0  0  0  0  0
   14.6943   -2.6118   51.0321 C   0  0  0  0  0  0  0  0  0  0  0  0
   15.0871   -3.9192   50.8031 C   0  0  0  0  0  0  0  0  0  0  0  0
   14.5739   -2.2885   48.6639 C   0  0  0  0  0  0  0  0  0  0  0  0
   15.0184   -3.5967   48.4469 C   0  0  0  0  0  0  0  0  0  0  0  0
   15.2413   -4.4196   49.5190 C   0  0  0  0  0  0  0  0  0  0  0  0
   15.6317   -6.2600   48.0916 C   0  0  0  0  0  0  0  0  0  0  0  0
   15.1228   -4.1329   47.1385 C   0  0  0  0  0  0  0  0  0  0  0  0
   14.3246    2.0063   49.7823 C   0  0  0  0  0  0  0  0  0  0  0  0
   14.7704    0.7010   49.6450 C   0  0  0  0  0  0  0  0  0  0  0  0
   14.0466   -0.3558   50.1050 C   0  0  0  0  0  0  0  0  0  0  0  0
   12.7863   -0.1525   50.6514 C   0  0  0  0  0  0  0  0  0  0  0  0
   11.0145    1.2511   51.4088 C   0  0  0  0  0  0  0  0  0  0  0  0
   12.5501    3.3687   50.4933 O   0  0  0  0  0  0  0  0  0  0  0  0
   13.0772    2.2062   50.3787 C   0  0  0  0  0  0  0  0  0  0  0  0
   12.3315    1.1201   50.7758 N   0  0  0  0  0  0  0  0  0  0  0  0
   16.0373   -7.5709   47.8289 N   0  0  0  0  0  0  0  0  0  0  0  0
   15.5874   -8.3131   46.6365 C   0  0  0  0  0  0  0  0  0  0  0  0
   14.2507   -8.9468   47.2023 C   0  0  0  0  0  0  0  0  0  0  0  0
   14.5135   -9.8296   48.4209 N   0  0  0  0  0  0  0  0  0  0  0  0
   15.3937   -9.1096   49.3830 C   0  0  0  0  0  0  0  0  0  0  0  0
   16.6450   -8.4632   48.8287 C   0  0  0  0  0  0  0  0  0  0  0  0
   13.3833  -10.3259   49.2601 C   0  0  0  0  0  0  0  0  0  0  0  0
   12.3791  -11.0565   48.4197 C   0  0  0  0  0  0  0  0  0  0  0  0
   12.1900  -12.5006   48.6712 N   0  0  0  0  0  0  0  0  0  0  0  0
   12.0696  -12.9397   50.0995 C   0  0  0  0  0  0  0  0  0  0  0  0
   10.8931  -12.7829   47.9956 C   0  0  0  0  0  0  0  0  0  0  0  0
   14.9079   -3.4015   46.0233 N   0  0  0  0  0  0  0  0  0  0  0  0
   14.0966   -3.5324   45.4812 H   0  0  0  0  0  0  0  0  0  0  0  0
   15.9115   -2.4118   45.6441 C   0  0  0  0  0  0  0  0  0  0  0  0
   15.2872   -1.0272   45.3828 C   0  0  0  0  0  0  0  0  0  0  0  0
   15.8560    0.1522   45.8696 C   0  0  0  0  0  0  0  0  0  0  0  0
   15.3193    1.4249   45.6544 C   0  0  0  0  0  0  0  0  0  0  0  0
   16.1520    2.8969   46.3480 Cl  0  0  0  0  0  0  0  0  0  0  0  0
   14.1051   -0.9247   44.6572 C   0  0  0  0  0  0  0  0  0  0  0  0
   13.5471    0.3388   44.4256 C   0  0  0  0  0  0  0  0  0  0  0  0
   14.1490    1.4941   44.9157 C   0  0  0  0  0  0  0  0  0  0  0  0
 29 27  1  0  0  0
 38 39  2  0  0  0
 38 37  1  0  0  0
 39 35  1  0  0  0
 37 33  2  0  0  0
 27 26  1  0  0  0
 27 28  1  0  0  0
 26 25  1  0  0  0
 35 34  2  0  0  0
 35 36  1  0  0  0
 33 34  1  0  0  0
 33 32  1  0  0  0
 21 22  1  0  0  0
 21 20  1  0  0  0
 32 30  1  0  0  0
 25 22  1  0  0  0
 22 23  1  0  0  0
 20 19  1  0  0  0
 30 10  1  0  0  0
  2 10  2  0  0  0
  2  9  1  0  0  0
 23 24  1  0  0  0
 19 24  1  0  0  0
 19  9  1  0  0  0
 10  7  1  0  0  0
  9  1  2  0  0  0
  7  6  2  0  0  0
  7  8  1  0  0  0
  1  8  1  0  0  0
  6  3  1  0  0  0
  8  5  2  0  0  0
  3 13  1  0  0  0
  3  4  2  0  0  0
 12 13  1  0  0  0
 12 11  2  0  0  0
  5  4  1  0  0  0
 13 14  2  0  0  0
 11 17  1  0  0  0
 14 18  1  0  0  0
 17 18  1  0  0  0
 17 16  2  0  0  0
 18 15  1  0  0  0
 30 31  1  0  0  0
M  END
> <minimizedAffinity>
-7.93601

$$$$
6E4A_HRY_A_201


 39 43  0  0  0  0  0  0  0  0999 V2000
   14.8336   -2.3808   45.0035 N   0  0  0  0  0  0  0  0  0  0  0  0
   13.9484   -1.0011   46.6862 N   0  0  0  0  0  0  0  0  0  0  0  0
   15.8526   -5.2106   47.8834 C   0  0  0  0  0  0  0  0  0  0  0  0
   16.1088   -5.4939   46.5199 C   0  0  0  0  0  0  0  0  0  0  0  0
   15.7924   -4.5184   45.5903 C   0  0  0  0  0  0  0  0  0  0  0  0
   15.2210   -4.0766   48.2317 C   0  0  0  0  0  0  0  0  0  0  0  0
   14.9511   -3.0799   47.2884 C   0  0  0  0  0  0  0  0  0  0  0  0
   15.2070   -3.3180   45.9640 C   0  0  0  0  0  0  0  0  0  0  0  0
   14.1968   -1.2745   45.3475 C   0  0  0  0  0  0  0  0  0  0  0  0
   14.3005   -1.8744   47.6543 C   0  0  0  0  0  0  0  0  0  0  0  0
   16.1733   -8.5191   49.7062 C   0  0  0  0  0  0  0  0  0  0  0  0
   15.8324   -7.5591   48.7662 C   0  0  0  0  0  0  0  0  0  0  0  0
   16.1631   -6.2488   48.9274 C   0  0  0  0  0  0  0  0  0  0  0  0
   16.9369   -5.8533   50.0104 C   0  0  0  0  0  0  0  0  0  0  0  0
   18.0643   -6.2782   52.0675 C   0  0  0  0  0  0  0  0  0  0  0  0
   17.3265   -8.9257   51.7099 O   0  0  0  0  0  0  0  0  0  0  0  0
   16.9093   -8.1045   50.8190 C   0  0  0  0  0  0  0  0  0  0  0  0
   17.2913   -6.7872   50.9291 N   0  0  0  0  0  0  0  0  0  0  0  0
   13.8761   -0.2669   44.4343 N   0  0  0  0  0  0  0  0  0  0  0  0
   13.6787   -0.5363   42.9978 C   0  0  0  0  0  0  0  0  0  0  0  0
   15.1706   -0.3847   42.4880 C   0  0  0  0  0  0  0  0  0  0  0  0
   15.7338    1.0032   42.7881 N   0  0  0  0  0  0  0  0  0  0  0  0
   15.4518    1.3647   44.2053 C   0  0  0  0  0  0  0  0  0  0  0  0
   14.0352    1.1712   44.7019 C   0  0  0  0  0  0  0  0  0  0  0  0
   17.1897    1.2870   42.6210 C   0  0  0  0  0  0  0  0  0  0  0  0
   17.7634    1.8739   43.8761 C   0  0  0  0  0  0  0  0  0  0  0  0
   18.7493    2.9662   43.7382 N   0  0  0  0  0  0  0  0  0  0  0  0
   20.1994    2.5862   43.7279 C   0  0  0  0  0  0  0  0  0  0  0  0
   18.4177    3.5393   42.4041 C   0  0  0  0  0  0  0  0  0  0  0  0
   13.9959   -1.5604   48.9323 N   0  0  0  0  0  0  0  0  0  0  0  0
   13.4955   -2.1884   49.5019 H   0  0  0  0  0  0  0  0  0  0  0  0
   14.4290   -0.2644   49.4456 C   0  0  0  0  0  0  0  0  0  0  0  0
   13.3003    0.4642   50.2006 C   0  0  0  0  0  0  0  0  0  0  0  0
   13.3447    1.8344   50.4690 C   0  0  0  0  0  0  0  0  0  0  0  0
   12.3418    2.5296   51.1510 C   0  0  0  0  0  0  0  0  0  0  0  0
   12.5150    4.3249   51.4483 Cl  0  0  0  0  0  0  0  0  0  0  0  0
   12.1982   -0.2500   50.6589 C   0  0  0  0  0  0  0  0  0  0  0  0
   11.1783    0.4226   51.3436 C   0  0  0  0  0  0  0  0  0  0  0  0
   11.2508    1.7920   51.5818 C   0  0  0  0  0  0  0  0  0  0  0  0
 29 27  1  0  0  0
 38 39  2  0  0  0
 38 37  1  0  0  0
 39 35  1  0  0  0
 37 33  2  0  0  0
 27 26  1  0  0  0
 27 28  1  0  0  0
 26 25  1  0  0  0
 35 34  2  0  0  0
 35 36  1  0  0  0
 33 34  1  0  0  0
 33 32  1  0  0  0
 21 22  1  0  0  0
 21 20  1  0  0  0
 32 30  1  0  0  0
 25 22  1  0  0  0
 22 23  1  0  0  0
 20 19  1  0  0  0
 30 10  1  0  0  0
  2 10  2  0  0  0
  2  9  1  0  0  0
 23 24  1  0  0  0
 19 24  1  0  0  0
 19  9  1  0  0  0
 10  7  1  0  0  0
  9  1  2  0  0  0
  7  6  2  0  0  0
  7  8  1  0  0  0
  1  8  1  0  0  0
  6  3  1  0  0  0
  8  5  2  0  0  0
  3 13  1  0  0  0
  3  4  2  0  0  0
 12 13  1  0  0  0
 12 11  2  0  0  0
  5  4  1  0  0  0
 13 14  2  0  0  0
 11 17  1  0  0  0
 14 18  1  0  0  0
 17 18  1  0  0  0
 17 16  2  0  0  0
 18 15  1  0  0  0
 30 31  1  0  0  0
M  END
> <minimizedAffinity>
-7.86824

$$$$
6E4A_HRY_A_201


 39 43  0  0  0  0  0  0  0  0999 V2000
   16.1734   -3.0917   44.9615 N   0  0  0  0  0  0  0  0  0  0  0  0
   15.8013   -4.9317   46.3737 N   0  0  0  0  0  0  0  0  0  0  0  0
   14.6144   -0.5603   47.8772 C   0  0  0  0  0  0  0  0  0  0  0  0
   15.1096   -0.0011   46.6743 C   0  0  0  0  0  0  0  0  0  0  0  0
   15.5877   -0.8714   45.7100 C   0  0  0  0  0  0  0  0  0  0  0  0
   14.7171   -1.8813   48.1018 C   0  0  0  0  0  0  0  0  0  0  0  0
   15.1570   -2.7532   47.1006 C   0  0  0  0  0  0  0  0  0  0  0  0
   15.6234   -2.2420   45.9185 C   0  0  0  0  0  0  0  0  0  0  0  0
   16.2890   -4.3883   45.1926 C   0  0  0  0  0  0  0  0  0  0  0  0
   15.2506   -4.1497   47.3272 C   0  0  0  0  0  0  0  0  0  0  0  0
   14.0053    2.4847   50.0519 C   0  0  0  0  0  0  0  0  0  0  0  0
   14.5247    1.6363   49.0864 C   0  0  0  0  0  0  0  0  0  0  0  0
   14.1021    0.3486   48.9615 C   0  0  0  0  0  0  0  0  0  0  0  0
   13.0638   -0.1243   49.7530 C   0  0  0  0  0  0  0  0  0  0  0  0
   11.4788    0.1099   51.5183 C   0  0  0  0  0  0  0  0  0  0  0  0
   12.4078    2.7101   51.7569 O   0  0  0  0  0  0  0  0  0  0  0  0
   12.9953    1.9858   50.8781 C   0  0  0  0  0  0  0  0  0  0  0  0
   12.5355    0.7024   50.6908 N   0  0  0  0  0  0  0  0  0  0  0  0
   16.7552   -5.2923   44.2347 N   0  0  0  0  0  0  0  0  0  0  0  0
   17.6907   -6.3829   44.5670 C   0  0  0  0  0  0  0  0  0  0  0  0
   19.0677   -5.6242   44.3751 C   0  0  0  0  0  0  0  0  0  0  0  0
   19.2236   -5.0832   42.9551 N   0  0  0  0  0  0  0  0  0  0  0  0
   17.9819   -4.3664   42.5509 C   0  0  0  0  0  0  0  0  0  0  0  0
   16.6650   -5.0757   42.7821 C   0  0  0  0  0  0  0  0  0  0  0  0
   20.3219   -4.1297   42.6193 C   0  0  0  0  0  0  0  0  0  0  0  0
   20.7545   -3.3685   43.8367 C   0  0  0  0  0  0  0  0  0  0  0  0
   20.6353   -1.8956   43.8072 N   0  0  0  0  0  0  0  0  0  0  0  0
   20.3892   -1.2525   42.4756 C   0  0  0  0  0  0  0  0  0  0  0  0
   19.4413   -1.6472   44.6621 C   0  0  0  0  0  0  0  0  0  0  0  0
   14.8296   -4.7410   48.4664 N   0  0  0  0  0  0  0  0  0  0  0  0
   14.1962   -4.2866   49.0678 H   0  0  0  0  0  0  0  0  0  0  0  0
   15.3396   -6.0719   48.7814 C   0  0  0  0  0  0  0  0  0  0  0  0
   16.6500   -6.0118   49.5902 C   0  0  0  0  0  0  0  0  0  0  0  0
   17.7986   -6.7067   49.2036 C   0  0  0  0  0  0  0  0  0  0  0  0
   19.0041   -6.6775   49.9108 C   0  0  0  0  0  0  0  0  0  0  0  0
   20.4401   -7.6349   49.3085 Cl  0  0  0  0  0  0  0  0  0  0  0  0
   16.7095   -5.2627   50.7606 C   0  0  0  0  0  0  0  0  0  0  0  0
   17.9058   -5.2150   51.4872 C   0  0  0  0  0  0  0  0  0  0  0  0
   19.0347   -5.9107   51.0645 C   0  0  0  0  0  0  0  0  0  0  0  0
 29 27  1  0  0  0
 38 39  2  0  0  0
 38 37  1  0  0  0
 39 35  1  0  0  0
 37 33  2  0  0  0
 27 26  1  0  0  0
 27 28  1  0  0  0
 26 25  1  0  0  0
 35 34  2  0  0  0
 35 36  1  0  0  0
 33 34  1  0  0  0
 33 32  1  0  0  0
 21 22  1  0  0  0
 21 20  1  0  0  0
 32 30  1  0  0  0
 25 22  1  0  0  0
 22 23  1  0  0  0
 20 19  1  0  0  0
 30 10  1  0  0  0
  2 10  2  0  0  0
  2  9  1  0  0  0
 23 24  1  0  0  0
 19 24  1  0  0  0
 19  9  1  0  0  0
 10  7  1  0  0  0
  9  1  2  0  0  0
  7  6  2  0  0  0
  7  8  1  0  0  0
  1  8  1  0  0  0
  6  3  1  0  0  0
  8  5  2  0  0  0
  3 13  1  0  0  0
  3  4  2  0  0  0
 12 13  1  0  0  0
 12 11  2  0  0  0
  5  4  1  0  0  0
 13 14  2  0  0  0
 11 17  1  0  0  0
 14 18  1  0  0  0
 17 18  1  0  0  0
 17 16  2  0  0  0
 18 15  1  0  0  0
 30 31  1  0  0  0
M  END
> <minimizedAffinity>
-7.85204

$$$$
6E4A_HRY_A_201


 39 43  0  0  0  0  0  0  0  0999 V2000
   15.8829   -5.2652   46.3630 N   0  0  0  0  0  0  0  0  0  0  0  0
   16.4623   -4.0204   44.4568 N   0  0  0  0  0  0  0  0  0  0  0  0
   14.7280   -1.7553   48.2831 C   0  0  0  0  0  0  0  0  0  0  0  0
   14.5679   -2.9915   48.9549 C   0  0  0  0  0  0  0  0  0  0  0  0
   14.9949   -4.1363   48.3047 C   0  0  0  0  0  0  0  0  0  0  0  0
   15.1759   -1.7268   47.0163 C   0  0  0  0  0  0  0  0  0  0  0  0
   15.6484   -2.8845   46.3899 C   0  0  0  0  0  0  0  0  0  0  0  0
   15.5251   -4.0924   47.0240 C   0  0  0  0  0  0  0  0  0  0  0  0
   16.3066   -5.2354   45.1110 C   0  0  0  0  0  0  0  0  0  0  0  0
   16.1381   -2.8562   45.0596 C   0  0  0  0  0  0  0  0  0  0  0  0
   14.2960    1.9011   49.1866 C   0  0  0  0  0  0  0  0  0  0  0  0
   14.7722    0.7313   48.6154 C   0  0  0  0  0  0  0  0  0  0  0  0
   14.2608   -0.4866   48.9436 C   0  0  0  0  0  0  0  0  0  0  0  0
   13.1756   -0.5778   49.8051 C   0  0  0  0  0  0  0  0  0  0  0  0
   11.5766    0.3740   51.2952 C   0  0  0  0  0  0  0  0  0  0  0  0
   12.6850    2.8237   50.6232 O   0  0  0  0  0  0  0  0  0  0  0  0
   13.2364    1.7965   50.0911 C   0  0  0  0  0  0  0  0  0  0  0  0
   12.6895    0.5623   50.3580 N   0  0  0  0  0  0  0  0  0  0  0  0
   16.7560   -6.3717   44.4336 N   0  0  0  0  0  0  0  0  0  0  0  0
   17.0389   -6.3683   42.9862 C   0  0  0  0  0  0  0  0  0  0  0  0
   15.6005   -6.7287   42.4299 C   0  0  0  0  0  0  0  0  0  0  0  0
   15.1069   -8.0724   42.9632 N   0  0  0  0  0  0  0  0  0  0  0  0
   15.3084   -8.1328   44.4378 C   0  0  0  0  0  0  0  0  0  0  0  0
   16.6702   -7.7398   44.9686 C   0  0  0  0  0  0  0  0  0  0  0  0
   13.6880   -8.4938   42.7705 C   0  0  0  0  0  0  0  0  0  0  0  0
   13.3098   -9.5537   43.7615 C   0  0  0  0  0  0  0  0  0  0  0  0
   12.3632  -10.6008   43.3234 N   0  0  0  0  0  0  0  0  0  0  0  0
   11.1478  -10.1558   42.5669 C   0  0  0  0  0  0  0  0  0  0  0  0
   13.1940  -11.4296   42.4064 C   0  0  0  0  0  0  0  0  0  0  0  0
   16.2810   -1.7148   44.3514 N   0  0  0  0  0  0  0  0  0  0  0  0
   16.6275   -0.8966   44.7753 H   0  0  0  0  0  0  0  0  0  0  0  0
   15.9075   -1.7278   42.9403 C   0  0  0  0  0  0  0  0  0  0  0  0
   14.3813   -1.6390   42.7461 C   0  0  0  0  0  0  0  0  0  0  0  0
   13.7358   -2.1960   41.6395 C   0  0  0  0  0  0  0  0  0  0  0  0
   12.3552   -2.1353   41.4284 C   0  0  0  0  0  0  0  0  0  0  0  0
   11.6247   -2.8980   39.9364 Cl  0  0  0  0  0  0  0  0  0  0  0  0
   13.6005   -0.9679   43.6813 C   0  0  0  0  0  0  0  0  0  0  0  0
   12.2145   -0.8939   43.4946 C   0  0  0  0  0  0  0  0  0  0  0  0
   11.6041   -1.4723   42.3855 C   0  0  0  0  0  0  0  0  0  0  0  0
 29 27  1  0  0  0
 38 39  2  0  0  0
 38 37  1  0  0  0
 39 35  1  0  0  0
 37 33  2  0  0  0
 27 26  1  0  0  0
 27 28  1  0  0  0
 26 25  1  0  0  0
 35 34  2  0  0  0
 35 36  1  0  0  0
 33 34  1  0  0  0
 33 32  1  0  0  0
 21 22  1  0  0  0
 21 20  1  0  0  0
 32 30  1  0  0  0
 25 22  1  0  0  0
 22 23  1  0  0  0
 20 19  1  0  0  0
 30 10  1  0  0  0
  2 10  2  0  0  0
  2  9  1  0  0  0
 23 24  1  0  0  0
 19 24  1  0  0  0
 19  9  1  0  0  0
 10  7  1  0  0  0
  9  1  2  0  0  0
  7  6  2  0  0  0
  7  8  1  0  0  0
  1  8  1  0  0  0
  6  3  1  0  0  0
  8  5  2  0  0  0
  3 13  1  0  0  0
  3  4  2  0  0  0
 12 13  1  0  0  0
 12 11  2  0  0  0
  5  4  1  0  0  0
 13 14  2  0  0  0
 11 17  1  0  0  0
 14 18  1  0  0  0
 17 18  1  0  0  0
 17 16  2  0  0  0
 18 15  1  0  0  0
 30 31  1  0  0  0
M  END
> <minimizedAffinity>
-7.68907

$$$$
