3UUG_BDP_A_331


 18 18  0  0  0  0  0  0  0  0999 V2000
  -62.8459   16.2065    6.0023 C   0  0  0  0  0  0  0  0  0  0  0  0
  -64.3030   15.7681    6.0489 C   0  0  0  0  0  0  0  0  0  0  0  0
  -64.5018   14.9383    7.3070 C   0  0  0  0  0  0  0  0  0  0  0  0
  -63.5421   13.7531    7.2697 C   0  0  0  0  0  0  0  0  0  0  0  0
  -62.1133   14.2156    6.9778 C   0  0  0  0  0  0  0  0  0  0  0  0
  -65.1766   16.8710    6.0605 O   0  0  0  0  0  0  0  0  0  0  0  0
  -65.8478   14.5198    7.3718 O   0  0  0  0  0  0  0  0  0  0  0  0
  -63.5434   13.0823    8.5126 O   0  0  0  0  0  0  0  0  0  0  0  0
  -62.0763   15.0386    5.8255 O   0  0  0  0  0  0  0  0  0  0  0  0
  -62.6391   17.0633    4.9095 O   0  0  0  0  0  0  0  0  0  0  0  0
  -65.0012   17.4142    6.8448 H   0  0  0  0  0  0  0  0  0  0  0  0
  -66.0618   13.9959    6.5840 H   0  0  0  0  0  0  0  0  0  0  0  0
  -63.2421   13.6884    9.2075 H   0  0  0  0  0  0  0  0  0  0  0  0
  -62.8808   16.6054    4.0893 H   0  0  0  0  0  0  0  0  0  0  0  0
  -61.2115   13.0026    6.7642 C   0  0  0  0  0  0  0  0  0  0  0  0
  -60.8415   12.3642    7.7627 O   0  0  0  0  0  0  0  0  0  0  0  0
  -60.8844   12.7033    5.5945 O   0  0  0  0  0  0  0  0  0  0  0  0
  -61.1918   13.2194    4.8754 H   0  0  0  0  0  0  0  0  0  0  0  0
  1  2  1  0  0  0
  1  9  1  0  0  0
  1 10  1  0  0  0
  2  3  1  0  0  0
  2  6  1  0  0  0
  3  4  1  0  0  0
  3  7  1  0  0  0
  4  5  1  0  0  0
  4  8  1  0  0  0
  5 15  1  0  0  0
  5  9  1  0  0  0
 15 16  2  0  0  0
 15 17  1  0  0  0
  6 11  1  0  0  0
  7 12  1  0  0  0
  8 13  1  0  0  0
 10 14  1  0  0  0
 17 18  1  0  0  0
M  END
> <minimizedAffinity>
-9.24442

$$$$
3UUG_BDP_A_331


 18 18  0  0  0  0  0  0  0  0999 V2000
  -61.9211   13.4986    6.3193 C   0  0  0  0  0  0  0  0  0  0  0  0
  -61.9182   13.5348    7.8412 C   0  0  0  0  0  0  0  0  0  0  0  0
  -63.3371   13.8220    8.3050 C   0  0  0  0  0  0  0  0  0  0  0  0
  -63.7944   15.1437    7.6957 C   0  0  0  0  0  0  0  0  0  0  0  0
  -63.5553   15.1609    6.1847 C   0  0  0  0  0  0  0  0  0  0  0  0
  -61.4735   12.3173    8.3884 O   0  0  0  0  0  0  0  0  0  0  0  0
  -63.3592   13.8606    9.7153 O   0  0  0  0  0  0  0  0  0  0  0  0
  -65.1742   15.3382    7.9262 O   0  0  0  0  0  0  0  0  0  0  0  0
  -62.2176   14.8059    5.8828 O   0  0  0  0  0  0  0  0  0  0  0  0
  -60.6504   13.1333    5.8473 O   0  0  0  0  0  0  0  0  0  0  0  0
  -62.0638   11.6012    8.1063 H   0  0  0  0  0  0  0  0  0  0  0  0
  -62.7546   14.5512   10.0294 H   0  0  0  0  0  0  0  0  0  0  0  0
  -65.6765   14.6247    7.5024 H   0  0  0  0  0  0  0  0  0  0  0  0
  -59.9912   13.7679    6.1691 H   0  0  0  0  0  0  0  0  0  0  0  0
  -63.8479   16.5532    5.6315 C   0  0  0  0  0  0  0  0  0  0  0  0
  -62.9615   17.1204    4.9727 O   0  0  0  0  0  0  0  0  0  0  0  0
  -64.9664   17.0628    5.8644 O   0  0  0  0  0  0  0  0  0  0  0  0
  -65.6004   16.5912    6.3679 H   0  0  0  0  0  0  0  0  0  0  0  0
  1  2  1  0  0  0
  1  9  1  0  0  0
  1 10  1  0  0  0
  2  3  1  0  0  0
  2  6  1  0  0  0
  3  4  1  0  0  0
  3  7  1  0  0  0
  4  5  1  0  0  0
  4  8  1  0  0  0
  5 15  1  0  0  0
  5  9  1  0  0  0
 15 16  2  0  0  0
 15 17  1  0  0  0
  6 11  1  0  0  0
  7 12  1  0  0  0
  8 13  1  0  0  0
 10 14  1  0  0  0
 17 18  1  0  0  0
M  END
> <minimizedAffinity>
-6.96675

$$$$
3UUG_BDP_A_331


 18 18  0  0  0  0  0  0  0  0999 V2000
  -64.7789   14.3738    6.3180 C   0  0  0  0  0  0  0  0  0  0  0  0
  -64.4697   15.8423    6.5736 C   0  0  0  0  0  0  0  0  0  0  0  0
  -63.1446   16.1651    5.9021 C   0  0  0  0  0  0  0  0  0  0  0  0
  -62.0704   15.2408    6.4668 C   0  0  0  0  0  0  0  0  0  0  0  0
  -62.5227   13.7803    6.4136 C   0  0  0  0  0  0  0  0  0  0  0  0
  -65.4794   16.6811    6.0671 O   0  0  0  0  0  0  0  0  0  0  0  0
  -62.8365   17.5238    6.1260 O   0  0  0  0  0  0  0  0  0  0  0  0
  -60.8782   15.3609    5.7190 O   0  0  0  0  0  0  0  0  0  0  0  0
  -63.8004   13.6274    7.0056 O   0  0  0  0  0  0  0  0  0  0  0  0
  -66.0459   14.0554    6.8323 O   0  0  0  0  0  0  0  0  0  0  0  0
  -65.5557   16.5527    5.1087 H   0  0  0  0  0  0  0  0  0  0  0  0
  -62.7811   17.6897    7.0801 H   0  0  0  0  0  0  0  0  0  0  0  0
  -61.0449   15.0982    4.8003 H   0  0  0  0  0  0  0  0  0  0  0  0
  -66.0655   14.2444    7.7835 H   0  0  0  0  0  0  0  0  0  0  0  0
  -61.5144   12.9006    7.1483 C   0  0  0  0  0  0  0  0  0  0  0  0
  -61.5806   12.8420    8.3867 O   0  0  0  0  0  0  0  0  0  0  0  0
  -60.6661   12.2767    6.4730 O   0  0  0  0  0  0  0  0  0  0  0  0
  -60.6600   12.3562    5.5394 H   0  0  0  0  0  0  0  0  0  0  0  0
  1  2  1  0  0  0
  1  9  1  0  0  0
  1 10  1  0  0  0
  2  3  1  0  0  0
  2  6  1  0  0  0
  3  4  1  0  0  0
  3  7  1  0  0  0
  4  5  1  0  0  0
  4  8  1  0  0  0
  5 15  1  0  0  0
  5  9  1  0  0  0
 15 16  2  0  0  0
 15 17  1  0  0  0
  6 11  1  0  0  0
  7 12  1  0  0  0
  8 13  1  0  0  0
 10 14  1  0  0  0
 17 18  1  0  0  0
M  END
> <minimizedAffinity>
-6.69251

$$$$
3UUG_BDP_A_331


 18 18  0  0  0  0  0  0  0  0999 V2000
  -64.0117   13.8502    8.2205 C   0  0  0  0  0  0  0  0  0  0  0  0
  -63.7920   15.3360    7.9722 C   0  0  0  0  0  0  0  0  0  0  0  0
  -63.3464   15.5083    6.5290 C   0  0  0  0  0  0  0  0  0  0  0  0
  -62.0779   14.6907    6.3064 C   0  0  0  0  0  0  0  0  0  0  0  0
  -62.2614   13.2527    6.7953 C   0  0  0  0  0  0  0  0  0  0  0  0
  -64.9640   16.0796    8.2028 O   0  0  0  0  0  0  0  0  0  0  0  0
  -63.1360   16.8803    6.2751 O   0  0  0  0  0  0  0  0  0  0  0  0
  -61.7552   14.6515    4.9319 O   0  0  0  0  0  0  0  0  0  0  0  0
  -62.7485   13.2318    8.1253 O   0  0  0  0  0  0  0  0  0  0  0  0
  -64.5247   13.6521    9.5122 O   0  0  0  0  0  0  0  0  0  0  0  0
  -65.6632   15.7752    7.6033 H   0  0  0  0  0  0  0  0  0  0  0  0
  -62.4593   17.2211    6.8808 H   0  0  0  0  0  0  0  0  0  0  0  0
  -62.4755   14.2238    4.4428 H   0  0  0  0  0  0  0  0  0  0  0  0
  -63.9064   14.0161   10.1650 H   0  0  0  0  0  0  0  0  0  0  0  0
  -60.9283   12.5117    6.7314 C   0  0  0  0  0  0  0  0  0  0  0  0
  -60.4676   12.0422    7.7845 O   0  0  0  0  0  0  0  0  0  0  0  0
  -60.3576   12.4085    5.6230 O   0  0  0  0  0  0  0  0  0  0  0  0
  -60.7492   12.7817    4.8580 H   0  0  0  0  0  0  0  0  0  0  0  0
  1  2  1  0  0  0
  1  9  1  0  0  0
  1 10  1  0  0  0
  2  3  1  0  0  0
  2  6  1  0  0  0
  3  4  1  0  0  0
  3  7  1  0  0  0
  4  5  1  0  0  0
  4  8  1  0  0  0
  5 15  1  0  0  0
  5  9  1  0  0  0
 15 16  2  0  0  0
 15 17  1  0  0  0
  6 11  1  0  0  0
  7 12  1  0  0  0
  8 13  1  0  0  0
 10 14  1  0  0  0
 17 18  1  0  0  0
M  END
> <minimizedAffinity>
-6.25858

$$$$
3UUG_BDP_A_331


 18 18  0  0  0  0  0  0  0  0999 V2000
  -63.4573   15.1573    6.1979 C   0  0  0  0  0  0  0  0  0  0  0  0
  -64.3707   14.6085    7.2851 C   0  0  0  0  0  0  0  0  0  0  0  0
  -63.5088   14.2575    8.4871 C   0  0  0  0  0  0  0  0  0  0  0  0
  -62.4520   13.2460    8.0543 C   0  0  0  0  0  0  0  0  0  0  0  0
  -61.7134   13.7280    6.8043 C   0  0  0  0  0  0  0  0  0  0  0  0
  -65.3535   15.5438    7.6581 O   0  0  0  0  0  0  0  0  0  0  0  0
  -64.3354   13.7456    9.5097 O   0  0  0  0  0  0  0  0  0  0  0  0
  -61.5026   13.0589    9.0831 O   0  0  0  0  0  0  0  0  0  0  0  0
  -62.6298   14.0923    5.7875 O   0  0  0  0  0  0  0  0  0  0  0  0
  -64.2231   15.5924    5.1046 O   0  0  0  0  0  0  0  0  0  0  0  0
  -64.9250   16.3435    8.0013 H   0  0  0  0  0  0  0  0  0  0  0  0
  -64.8005   12.9584    9.1859 H   0  0  0  0  0  0  0  0  0  0  0  0
  -61.0540   13.8993    9.2659 H   0  0  0  0  0  0  0  0  0  0  0  0
  -64.7486   14.8521    4.7629 H   0  0  0  0  0  0  0  0  0  0  0  0
  -60.7960   12.6224    6.2883 C   0  0  0  0  0  0  0  0  0  0  0  0
  -60.3181   11.8254    7.1116 O   0  0  0  0  0  0  0  0  0  0  0  0
  -60.5652   12.5658    5.0601 O   0  0  0  0  0  0  0  0  0  0  0  0
  -60.9519   13.1931    4.4814 H   0  0  0  0  0  0  0  0  0  0  0  0
  1  2  1  0  0  0
  1  9  1  0  0  0
  1 10  1  0  0  0
  2  3  1  0  0  0
  2  6  1  0  0  0
  3  4  1  0  0  0
  3  7  1  0  0  0
  4  5  1  0  0  0
  4  8  1  0  0  0
  5 15  1  0  0  0
  5  9  1  0  0  0
 15 16  2  0  0  0
 15 17  1  0  0  0
  6 11  1  0  0  0
  7 12  1  0  0  0
  8 13  1  0  0  0
 10 14  1  0  0  0
 17 18  1  0  0  0
M  END
> <minimizedAffinity>
-6.24688

$$$$
