1QB6_623_A_300


 36 38  0  0  0  0  0  0  0  0999 V2000
    8.1838   24.0320   19.1348 C   0  0  0  0  0  0  0  0  0  0  0  0
    7.0134   23.4507   18.9242 F   0  0  0  0  0  0  0  0  0  0  0  0
    8.7082   25.0468   18.2987 C   0  0  0  0  0  0  0  0  0  0  0  0
    9.9753   25.5858   18.6278 C   0  0  0  0  0  0  0  0  0  0  0  0
   10.5161   26.5395   17.8934 F   0  0  0  0  0  0  0  0  0  0  0  0
   10.6831   25.1099   19.7700 C   0  0  0  0  0  0  0  0  0  0  0  0
   10.1567   24.1288   20.5487 N   0  0  0  0  0  0  0  0  0  0  0  0
    8.9503   23.6076   20.2428 C   0  0  0  0  0  0  0  0  0  0  0  0
    7.9176   25.4971   17.1151 C   0  0  0  0  0  0  0  0  0  0  0  0
   10.6532   23.7998   21.3325 H   0  0  0  0  0  0  0  0  0  0  0  0
   11.8810   25.6005   20.0781 O   0  0  0  0  0  0  0  0  0  0  0  0
   13.1215   25.6038   19.5417 C   0  0  0  0  0  0  0  0  0  0  0  0
   13.3279   24.8122   18.4032 C   0  0  0  0  0  0  0  0  0  0  0  0
   14.5800   24.7919   17.7672 C   0  0  0  0  0  0  0  0  0  0  0  0
   15.6344   25.5791   18.2574 C   0  0  0  0  0  0  0  0  0  0  0  0
   15.4612   26.4066   19.3967 C   0  0  0  0  0  0  0  0  0  0  0  0
   14.1886   26.4056   20.0201 C   0  0  0  0  0  0  0  0  0  0  0  0
   16.5203   27.2081   19.8773 C   0  0  0  0  0  0  0  0  0  0  0  0
   16.6585   27.6494   21.1386 N   0  0  0  0  0  0  0  0  0  0  0  0
   17.5051   27.6418   19.0943 N   0  0  0  0  0  0  0  0  0  0  0  0
   15.9953   27.4008   21.8225 H   0  0  0  0  0  0  0  0  0  0  0  0
   17.5243   27.3905   18.1426 H   0  0  0  0  0  0  0  0  0  0  0  0
   18.2144   28.2139   19.4668 H   0  0  0  0  0  0  0  0  0  0  0  0
    8.4019   22.6447   21.0361 O   0  0  0  0  0  0  0  0  0  0  0  0
    9.0725   21.4613   21.2124 C   0  0  0  0  0  0  0  0  0  0  0  0
    8.7642   20.5032   20.2432 C   0  0  0  0  0  0  0  0  0  0  0  0
    9.3710   19.2418   20.2896 C   0  0  0  0  0  0  0  0  0  0  0  0
   10.3137   18.9450   21.2958 C   0  0  0  0  0  0  0  0  0  0  0  0
   10.6487   19.9169   22.2698 C   0  0  0  0  0  0  0  0  0  0  0  0
   10.0203   21.1841   22.1957 C   0  0  0  0  0  0  0  0  0  0  0  0
    9.0558   18.3213   19.2667 C   0  0  0  0  0  0  0  0  0  0  0  0
    8.2461   18.6071   18.2742 N   0  0  0  0  0  0  0  0  0  0  0  0
    9.4253   17.0699   19.2599 N   0  0  0  0  0  0  0  0  0  0  0  0
    7.8973   19.5220   18.1713 H   0  0  0  0  0  0  0  0  0  0  0  0
   10.0342   16.7326   19.9561 H   0  0  0  0  0  0  0  0  0  0  0  0
    9.0951   16.4630   18.5585 H   0  0  0  0  0  0  0  0  0  0  0  0
  1  2  1  0  0  0
  1  3  2  0  0  0
  1  8  1  0  0  0
  3  4  1  0  0  0
  3  9  1  0  0  0
  4  5  1  0  0  0
  4  6  2  0  0  0
  6  7  1  0  0  0
  6 11  1  0  0  0
  7  8  2  0  0  0
  8 24  1  0  0  0
 11 12  1  0  0  0
 24 25  1  0  0  0
 25 26  2  0  0  0
 25 30  1  0  0  0
 26 27  1  0  0  0
 27 28  2  0  0  0
 27 31  1  0  0  0
 28 29  1  0  0  0
 29 30  2  0  0  0
 31 32  2  0  0  0
 31 33  1  0  0  0
 12 13  2  0  0  0
 12 17  1  0  0  0
 13 14  1  0  0  0
 14 15  2  0  0  0
 15 16  1  0  0  0
 16 17  2  0  0  0
 16 18  1  0  0  0
 18 19  2  0  0  0
 18 20  1  0  0  0
  7 10  1  0  0  0
 32 34  1  0  0  0
 33 35  1  0  0  0
 33 36  1  0  0  0
 19 21  1  0  0  0
 20 22  1  0  0  0
 20 23  1  0  0  0
M  CHG 1   7   1
M  END
> <minimizedAffinity>
-9.26226

$$$$
1QB6_623_A_300


 36 38  0  0  0  0  0  0  0  0999 V2000
   10.4651   24.8201   21.4744 C   0  0  0  0  0  0  0  0  0  0  0  0
    9.2693   24.7268   22.0343 F   0  0  0  0  0  0  0  0  0  0  0  0
   11.4179   25.8018   21.8380 C   0  0  0  0  0  0  0  0  0  0  0  0
   12.6607   25.8004   21.1598 C   0  0  0  0  0  0  0  0  0  0  0  0
   13.5945   26.6841   21.4571 F   0  0  0  0  0  0  0  0  0  0  0  0
   12.9253   24.8316   20.1482 C   0  0  0  0  0  0  0  0  0  0  0  0
   11.9870   23.9068   19.8160 N   0  0  0  0  0  0  0  0  0  0  0  0
   10.7989   23.9006   20.4555 C   0  0  0  0  0  0  0  0  0  0  0  0
   11.0760   26.7905   22.9030 C   0  0  0  0  0  0  0  0  0  0  0  0
   12.1732   23.2443   19.1120 H   0  0  0  0  0  0  0  0  0  0  0  0
   14.0850   24.8323   19.4957 O   0  0  0  0  0  0  0  0  0  0  0  0
   14.5032   24.9032   18.2125 C   0  0  0  0  0  0  0  0  0  0  0  0
   13.5222   25.0996   17.2302 C   0  0  0  0  0  0  0  0  0  0  0  0
   13.8823   25.2204   15.8781 C   0  0  0  0  0  0  0  0  0  0  0  0
   15.2331   25.1619   15.4986 C   0  0  0  0  0  0  0  0  0  0  0  0
   16.2570   24.9813   16.4639 C   0  0  0  0  0  0  0  0  0  0  0  0
   15.8650   24.8597   17.8202 C   0  0  0  0  0  0  0  0  0  0  0  0
   17.6154   24.9382   16.0791 C   0  0  0  0  0  0  0  0  0  0  0  0
   18.3343   23.8232   15.8674 N   0  0  0  0  0  0  0  0  0  0  0  0
   18.3487   26.0355   15.9086 N   0  0  0  0  0  0  0  0  0  0  0  0
   17.9109   22.9394   15.9608 H   0  0  0  0  0  0  0  0  0  0  0  0
   17.9423   26.9235   16.0335 H   0  0  0  0  0  0  0  0  0  0  0  0
   19.2976   25.9593   15.6576 H   0  0  0  0  0  0  0  0  0  0  0  0
    9.8640   22.9573   20.1493 O   0  0  0  0  0  0  0  0  0  0  0  0
    9.9982   21.6919   20.6612 C   0  0  0  0  0  0  0  0  0  0  0  0
    9.4774   20.7009   19.8251 C   0  0  0  0  0  0  0  0  0  0  0  0
    9.5406   19.3562   20.2116 C   0  0  0  0  0  0  0  0  0  0  0  0
   10.1535   18.9966   21.4298 C   0  0  0  0  0  0  0  0  0  0  0  0
   10.7033   19.9920   22.2739 C   0  0  0  0  0  0  0  0  0  0  0  0
   10.6264   21.3429   21.8552 C   0  0  0  0  0  0  0  0  0  0  0  0
    9.0351   18.3890   19.3160 C   0  0  0  0  0  0  0  0  0  0  0  0
    8.0622   18.6384   18.4710 N   0  0  0  0  0  0  0  0  0  0  0  0
    9.3831   17.1315   19.3135 N   0  0  0  0  0  0  0  0  0  0  0  0
    7.7108   19.5536   18.3811 H   0  0  0  0  0  0  0  0  0  0  0  0
   10.1042   16.8192   19.9066 H   0  0  0  0  0  0  0  0  0  0  0  0
    8.9247   16.4950   18.7186 H   0  0  0  0  0  0  0  0  0  0  0  0
  1  2  1  0  0  0
  1  3  2  0  0  0
  1  8  1  0  0  0
  3  4  1  0  0  0
  3  9  1  0  0  0
  4  5  1  0  0  0
  4  6  2  0  0  0
  6  7  1  0  0  0
  6 11  1  0  0  0
  7  8  2  0  0  0
  8 24  1  0  0  0
 11 12  1  0  0  0
 24 25  1  0  0  0
 25 26  2  0  0  0
 25 30  1  0  0  0
 26 27  1  0  0  0
 27 28  2  0  0  0
 27 31  1  0  0  0
 28 29  1  0  0  0
 29 30  2  0  0  0
 31 32  2  0  0  0
 31 33  1  0  0  0
 12 13  2  0  0  0
 12 17  1  0  0  0
 13 14  1  0  0  0
 14 15  2  0  0  0
 15 16  1  0  0  0
 16 17  2  0  0  0
 16 18  1  0  0  0
 18 19  2  0  0  0
 18 20  1  0  0  0
  7 10  1  0  0  0
 32 34  1  0  0  0
 33 35  1  0  0  0
 33 36  1  0  0  0
 19 21  1  0  0  0
 20 22  1  0  0  0
 20 23  1  0  0  0
M  CHG 1   7   1
M  END
> <minimizedAffinity>
-9.10309

$$$$
1QB6_623_A_300


 36 38  0  0  0  0  0  0  0  0999 V2000
    8.5074   24.4078   19.2009 C   0  0  0  0  0  0  0  0  0  0  0  0
    7.1927   24.2735   19.2754 F   0  0  0  0  0  0  0  0  0  0  0  0
    9.1468   25.3087   18.3159 C   0  0  0  0  0  0  0  0  0  0  0  0
   10.5618   25.3549   18.3274 C   0  0  0  0  0  0  0  0  0  0  0  0
   11.2181   26.1787   17.5324 F   0  0  0  0  0  0  0  0  0  0  0  0
   11.3002   24.5148   19.2111 C   0  0  0  0  0  0  0  0  0  0  0  0
   10.6576   23.6544   20.0433 N   0  0  0  0  0  0  0  0  0  0  0  0
    9.3093   23.6018   20.0391 C   0  0  0  0  0  0  0  0  0  0  0  0
    8.3147   26.1578   17.4130 C   0  0  0  0  0  0  0  0  0  0  0  0
   11.1733   23.0720   20.6468 H   0  0  0  0  0  0  0  0  0  0  0  0
   12.6306   24.5412   19.2179 O   0  0  0  0  0  0  0  0  0  0  0  0
   13.6063   25.3271   19.7248 C   0  0  0  0  0  0  0  0  0  0  0  0
   13.5215   25.6545   21.0854 C   0  0  0  0  0  0  0  0  0  0  0  0
   14.5172   26.4366   21.6932 C   0  0  0  0  0  0  0  0  0  0  0  0
   15.6181   26.8850   20.9456 C   0  0  0  0  0  0  0  0  0  0  0  0
   15.7495   26.5611   19.5707 C   0  0  0  0  0  0  0  0  0  0  0  0
   14.7291   25.7730   18.9826 C   0  0  0  0  0  0  0  0  0  0  0  0
   16.8662   27.0017   18.8265 C   0  0  0  0  0  0  0  0  0  0  0  0
   17.4387   26.3397   17.8072 N   0  0  0  0  0  0  0  0  0  0  0  0
   17.4989   28.1428   19.0884 N   0  0  0  0  0  0  0  0  0  0  0  0
   17.0680   25.4774   17.5102 H   0  0  0  0  0  0  0  0  0  0  0  0
   17.1810   28.7264   19.8146 H   0  0  0  0  0  0  0  0  0  0  0  0
   18.2849   28.4033   18.5559 H   0  0  0  0  0  0  0  0  0  0  0  0
    8.6564   22.7633   20.8924 O   0  0  0  0  0  0  0  0  0  0  0  0
    9.1926   21.5293   21.1584 C   0  0  0  0  0  0  0  0  0  0  0  0
    8.8808   20.5722   20.1893 C   0  0  0  0  0  0  0  0  0  0  0  0
    9.3578   19.2620   20.3221 C   0  0  0  0  0  0  0  0  0  0  0  0
   10.1753   18.9126   21.4170 C   0  0  0  0  0  0  0  0  0  0  0  0
   10.5143   19.8812   22.3930 C   0  0  0  0  0  0  0  0  0  0  0  0
   10.0190   21.1981   22.2304 C   0  0  0  0  0  0  0  0  0  0  0  0
    9.0475   18.3412   19.2981 C   0  0  0  0  0  0  0  0  0  0  0  0
    8.2406   18.6258   18.3029 N   0  0  0  0  0  0  0  0  0  0  0  0
    9.4190   17.0904   19.2922 N   0  0  0  0  0  0  0  0  0  0  0  0
    7.8906   19.5401   18.1990 H   0  0  0  0  0  0  0  0  0  0  0  0
   10.0262   16.7540   19.9904 H   0  0  0  0  0  0  0  0  0  0  0  0
    9.0923   16.4830   18.5897 H   0  0  0  0  0  0  0  0  0  0  0  0
  1  2  1  0  0  0
  1  3  2  0  0  0
  1  8  1  0  0  0
  3  4  1  0  0  0
  3  9  1  0  0  0
  4  5  1  0  0  0
  4  6  2  0  0  0
  6  7  1  0  0  0
  6 11  1  0  0  0
  7  8  2  0  0  0
  8 24  1  0  0  0
 11 12  1  0  0  0
 24 25  1  0  0  0
 25 26  2  0  0  0
 25 30  1  0  0  0
 26 27  1  0  0  0
 27 28  2  0  0  0
 27 31  1  0  0  0
 28 29  1  0  0  0
 29 30  2  0  0  0
 31 32  2  0  0  0
 31 33  1  0  0  0
 12 13  2  0  0  0
 12 17  1  0  0  0
 13 14  1  0  0  0
 14 15  2  0  0  0
 15 16  1  0  0  0
 16 17  2  0  0  0
 16 18  1  0  0  0
 18 19  2  0  0  0
 18 20  1  0  0  0
  7 10  1  0  0  0
 32 34  1  0  0  0
 33 35  1  0  0  0
 33 36  1  0  0  0
 19 21  1  0  0  0
 20 22  1  0  0  0
 20 23  1  0  0  0
M  CHG 1   7   1
M  END
> <minimizedAffinity>
-9.07350

$$$$
1QB6_623_A_300


 36 38  0  0  0  0  0  0  0  0999 V2000
    9.1855   24.2696   18.9349 C   0  0  0  0  0  0  0  0  0  0  0  0
    7.9172   23.9797   18.6913 F   0  0  0  0  0  0  0  0  0  0  0  0
    9.9400   25.1733   18.1491 C   0  0  0  0  0  0  0  0  0  0  0  0
   11.2910   25.3949   18.5097 C   0  0  0  0  0  0  0  0  0  0  0  0
   12.0461   26.2311   17.8227 F   0  0  0  0  0  0  0  0  0  0  0  0
   11.8538   24.7216   19.6331 C   0  0  0  0  0  0  0  0  0  0  0  0
   11.1059   23.8535   20.3632 N   0  0  0  0  0  0  0  0  0  0  0  0
    9.8176   23.6344   20.0268 C   0  0  0  0  0  0  0  0  0  0  0  0
    9.2915   25.8424   16.9827 C   0  0  0  0  0  0  0  0  0  0  0  0
   11.5020   23.3866   21.1340 H   0  0  0  0  0  0  0  0  0  0  0  0
   13.1268   24.9128   19.9701 O   0  0  0  0  0  0  0  0  0  0  0  0
   14.2421   25.4155   19.3959 C   0  0  0  0  0  0  0  0  0  0  0  0
   14.8222   26.5391   20.0014 C   0  0  0  0  0  0  0  0  0  0  0  0
   16.0031   27.0968   19.4846 C   0  0  0  0  0  0  0  0  0  0  0  0
   16.6241   26.5225   18.3637 C   0  0  0  0  0  0  0  0  0  0  0  0
   16.0782   25.3752   17.7326 C   0  0  0  0  0  0  0  0  0  0  0  0
   14.8849   24.8351   18.2733 C   0  0  0  0  0  0  0  0  0  0  0  0
   16.7146   24.7920   16.6145 C   0  0  0  0  0  0  0  0  0  0  0  0
   16.2763   24.8490   15.3459 N   0  0  0  0  0  0  0  0  0  0  0  0
   17.8356   24.0819   16.7156 N   0  0  0  0  0  0  0  0  0  0  0  0
   15.4534   25.3450   15.1312 H   0  0  0  0  0  0  0  0  0  0  0  0
   18.2642   23.9611   17.5936 H   0  0  0  0  0  0  0  0  0  0  0  0
   18.2362   23.6774   15.9124 H   0  0  0  0  0  0  0  0  0  0  0  0
    9.0521   22.7884   20.7723 O   0  0  0  0  0  0  0  0  0  0  0  0
    9.5180   21.5269   21.0419 C   0  0  0  0  0  0  0  0  0  0  0  0
    9.0997   20.5737   20.1098 C   0  0  0  0  0  0  0  0  0  0  0  0
    9.4954   19.2376   20.2508 C   0  0  0  0  0  0  0  0  0  0  0  0
   10.3381   18.8563   21.3155 C   0  0  0  0  0  0  0  0  0  0  0  0
   10.7846   19.8192   22.2531 C   0  0  0  0  0  0  0  0  0  0  0  0
   10.3697   21.1627   22.0831 C   0  0  0  0  0  0  0  0  0  0  0  0
    9.0784   18.3195   19.2629 C   0  0  0  0  0  0  0  0  0  0  0  0
    8.1738   18.6080   18.3568 N   0  0  0  0  0  0  0  0  0  0  0  0
    9.4438   17.0677   19.2168 N   0  0  0  0  0  0  0  0  0  0  0  0
    7.8175   19.5235   18.2910 H   0  0  0  0  0  0  0  0  0  0  0  0
   10.1189   16.7284   19.8480 H   0  0  0  0  0  0  0  0  0  0  0  0
    9.0445   16.4625   18.5508 H   0  0  0  0  0  0  0  0  0  0  0  0
  1  2  1  0  0  0
  1  3  2  0  0  0
  1  8  1  0  0  0
  3  4  1  0  0  0
  3  9  1  0  0  0
  4  5  1  0  0  0
  4  6  2  0  0  0
  6  7  1  0  0  0
  6 11  1  0  0  0
  7  8  2  0  0  0
  8 24  1  0  0  0
 11 12  1  0  0  0
 24 25  1  0  0  0
 25 26  2  0  0  0
 25 30  1  0  0  0
 26 27  1  0  0  0
 27 28  2  0  0  0
 27 31  1  0  0  0
 28 29  1  0  0  0
 29 30  2  0  0  0
 31 32  2  0  0  0
 31 33  1  0  0  0
 12 13  2  0  0  0
 12 17  1  0  0  0
 13 14  1  0  0  0
 14 15  2  0  0  0
 15 16  1  0  0  0
 16 17  2  0  0  0
 16 18  1  0  0  0
 18 19  2  0  0  0
 18 20  1  0  0  0
  7 10  1  0  0  0
 32 34  1  0  0  0
 33 35  1  0  0  0
 33 36  1  0  0  0
 19 21  1  0  0  0
 20 22  1  0  0  0
 20 23  1  0  0  0
M  CHG 1   7   1
M  END
> <minimizedAffinity>
-9.06263

$$$$
1QB6_623_A_300


 36 38  0  0  0  0  0  0  0  0999 V2000
   11.0500   24.1623   23.4877 C   0  0  0  0  0  0  0  0  0  0  0  0
   10.1074   23.8017   24.3441 F   0  0  0  0  0  0  0  0  0  0  0  0
   11.5467   25.4844   23.3914 C   0  0  0  0  0  0  0  0  0  0  0  0
   12.5527   25.7445   22.4298 C   0  0  0  0  0  0  0  0  0  0  0  0
   13.0631   26.9539   22.2951 F   0  0  0  0  0  0  0  0  0  0  0  0
   13.0380   24.6946   21.5967 C   0  0  0  0  0  0  0  0  0  0  0  0
   12.5353   23.4372   21.7076 N   0  0  0  0  0  0  0  0  0  0  0  0
   11.5753   23.1793   22.6200 C   0  0  0  0  0  0  0  0  0  0  0  0
   10.9922   26.5388   24.2910 C   0  0  0  0  0  0  0  0  0  0  0  0
   12.8700   22.7177   21.1250 H   0  0  0  0  0  0  0  0  0  0  0  0
   13.9728   24.9335   20.6803 O   0  0  0  0  0  0  0  0  0  0  0  0
   14.0499   24.9973   19.3325 C   0  0  0  0  0  0  0  0  0  0  0  0
   12.8656   25.2791   18.6370 C   0  0  0  0  0  0  0  0  0  0  0  0
   12.8725   25.3979   17.2375 C   0  0  0  0  0  0  0  0  0  0  0  0
   14.0718   25.2515   16.5219 C   0  0  0  0  0  0  0  0  0  0  0  0
   15.2942   24.9827   17.1898 C   0  0  0  0  0  0  0  0  0  0  0  0
   15.2576   24.8653   18.6016 C   0  0  0  0  0  0  0  0  0  0  0  0
   16.5006   24.8511   16.4671 C   0  0  0  0  0  0  0  0  0  0  0  0
   16.6223   24.9033   15.1302 N   0  0  0  0  0  0  0  0  0  0  0  0
   17.6716   24.6283   17.0588 N   0  0  0  0  0  0  0  0  0  0  0  0
   15.8289   25.0628   14.5696 H   0  0  0  0  0  0  0  0  0  0  0  0
   17.7236   24.5670   18.0400 H   0  0  0  0  0  0  0  0  0  0  0  0
   18.4860   24.5248   16.5153 H   0  0  0  0  0  0  0  0  0  0  0  0
   11.0876   21.9142   22.7584 O   0  0  0  0  0  0  0  0  0  0  0  0
   10.1952   21.4365   21.8328 C   0  0  0  0  0  0  0  0  0  0  0  0
   10.4661   20.1259   21.4311 C   0  0  0  0  0  0  0  0  0  0  0  0
    9.6410   19.4991   20.4888 C   0  0  0  0  0  0  0  0  0  0  0  0
    8.5209   20.1772   19.9647 C   0  0  0  0  0  0  0  0  0  0  0  0
    8.2260   21.4980   20.3817 C   0  0  0  0  0  0  0  0  0  0  0  0
    9.0771   22.1047   21.3375 C   0  0  0  0  0  0  0  0  0  0  0  0
    9.9333   18.1619   20.1434 C   0  0  0  0  0  0  0  0  0  0  0  0
    9.1607   17.4406   19.3653 N   0  0  0  0  0  0  0  0  0  0  0  0
   10.9157   17.4668   20.6478 N   0  0  0  0  0  0  0  0  0  0  0  0
    8.3831   17.8533   18.9247 H   0  0  0  0  0  0  0  0  0  0  0  0
   11.5654   17.8974   21.2492 H   0  0  0  0  0  0  0  0  0  0  0  0
   11.0072   16.5118   20.4269 H   0  0  0  0  0  0  0  0  0  0  0  0
  1  2  1  0  0  0
  1  3  2  0  0  0
  1  8  1  0  0  0
  3  4  1  0  0  0
  3  9  1  0  0  0
  4  5  1  0  0  0
  4  6  2  0  0  0
  6  7  1  0  0  0
  6 11  1  0  0  0
  7  8  2  0  0  0
  8 24  1  0  0  0
 11 12  1  0  0  0
 24 25  1  0  0  0
 25 26  2  0  0  0
 25 30  1  0  0  0
 26 27  1  0  0  0
 27 28  2  0  0  0
 27 31  1  0  0  0
 28 29  1  0  0  0
 29 30  2  0  0  0
 31 32  2  0  0  0
 31 33  1  0  0  0
 12 13  2  0  0  0
 12 17  1  0  0  0
 13 14  1  0  0  0
 14 15  2  0  0  0
 15 16  1  0  0  0
 16 17  2  0  0  0
 16 18  1  0  0  0
 18 19  2  0  0  0
 18 20  1  0  0  0
  7 10  1  0  0  0
 32 34  1  0  0  0
 33 35  1  0  0  0
 33 36  1  0  0  0
 19 21  1  0  0  0
 20 22  1  0  0  0
 20 23  1  0  0  0
M  CHG 1   7   1
M  END
> <minimizedAffinity>
-9.02402

$$$$
1QB6_623_A_300


 36 38  0  0  0  0  0  0  0  0999 V2000
   10.2475   24.7160   21.4470 C   0  0  0  0  0  0  0  0  0  0  0  0
    9.5576   24.5105   22.5579 F   0  0  0  0  0  0  0  0  0  0  0  0
   11.1983   25.7550   21.3047 C   0  0  0  0  0  0  0  0  0  0  0  0
   11.8671   25.8739   20.0626 C   0  0  0  0  0  0  0  0  0  0  0  0
   12.7702   26.8161   19.8681 F   0  0  0  0  0  0  0  0  0  0  0  0
   11.5797   24.9650   19.0027 C   0  0  0  0  0  0  0  0  0  0  0  0
   10.6556   23.9827   19.1674 N   0  0  0  0  0  0  0  0  0  0  0  0
   10.0116   23.8618   20.3470 C   0  0  0  0  0  0  0  0  0  0  0  0
   11.4494   26.6758   22.4527 C   0  0  0  0  0  0  0  0  0  0  0  0
   10.4567   23.3621   18.4296 H   0  0  0  0  0  0  0  0  0  0  0  0
   12.1929   25.0786   17.8272 O   0  0  0  0  0  0  0  0  0  0  0  0
   13.4630   25.0859   17.3655 C   0  0  0  0  0  0  0  0  0  0  0  0
   14.4803   24.8031   18.2880 C   0  0  0  0  0  0  0  0  0  0  0  0
   15.8222   24.7559   17.8763 C   0  0  0  0  0  0  0  0  0  0  0  0
   16.1565   24.9758   16.5303 C   0  0  0  0  0  0  0  0  0  0  0  0
   15.1552   25.2481   15.5628 C   0  0  0  0  0  0  0  0  0  0  0  0
   13.8101   25.2924   16.0064 C   0  0  0  0  0  0  0  0  0  0  0  0
   15.4948   25.4537   14.2073 C   0  0  0  0  0  0  0  0  0  0  0  0
   14.7096   25.1781   13.1527 N   0  0  0  0  0  0  0  0  0  0  0  0
   16.6771   25.9324   13.8278 N   0  0  0  0  0  0  0  0  0  0  0  0
   13.8048   24.8165   13.2938 H   0  0  0  0  0  0  0  0  0  0  0  0
   17.3497   26.1759   14.5042 H   0  0  0  0  0  0  0  0  0  0  0  0
   16.8791   26.0431   12.8706 H   0  0  0  0  0  0  0  0  0  0  0  0
    9.1054   22.8605   20.5304 O   0  0  0  0  0  0  0  0  0  0  0  0
    9.5515   21.6086   20.8694 C   0  0  0  0  0  0  0  0  0  0  0  0
    9.1077   20.6105   19.9982 C   0  0  0  0  0  0  0  0  0  0  0  0
    9.4811   19.2779   20.2138 C   0  0  0  0  0  0  0  0  0  0  0  0
   10.3268   18.9441   21.2920 C   0  0  0  0  0  0  0  0  0  0  0  0
   10.7991   19.9517   22.1678 C   0  0  0  0  0  0  0  0  0  0  0  0
   10.4064   21.2903   21.9230 C   0  0  0  0  0  0  0  0  0  0  0  0
    9.0386   18.3114   19.2848 C   0  0  0  0  0  0  0  0  0  0  0  0
    9.4622   17.0692   19.2910 N   0  0  0  0  0  0  0  0  0  0  0  0
    8.2722   18.5682   18.2605 N   0  0  0  0  0  0  0  0  0  0  0  0
   10.0494   16.7530   20.0152 H   0  0  0  0  0  0  0  0  0  0  0  0
    7.8911   19.4685   18.1443 H   0  0  0  0  0  0  0  0  0  0  0  0
    8.0750   17.8617   17.6038 H   0  0  0  0  0  0  0  0  0  0  0  0
  1  2  1  0  0  0
  1  3  2  0  0  0
  1  8  1  0  0  0
  3  4  1  0  0  0
  3  9  1  0  0  0
  4  5  1  0  0  0
  4  6  2  0  0  0
  6  7  1  0  0  0
  6 11  1  0  0  0
  7  8  2  0  0  0
  8 24  1  0  0  0
 11 12  1  0  0  0
 24 25  1  0  0  0
 25 26  2  0  0  0
 25 30  1  0  0  0
 26 27  1  0  0  0
 27 28  2  0  0  0
 27 31  1  0  0  0
 28 29  1  0  0  0
 29 30  2  0  0  0
 31 32  2  0  0  0
 31 33  1  0  0  0
 12 13  2  0  0  0
 12 17  1  0  0  0
 13 14  1  0  0  0
 14 15  2  0  0  0
 15 16  1  0  0  0
 16 17  2  0  0  0
 16 18  1  0  0  0
 18 19  2  0  0  0
 18 20  1  0  0  0
  7 10  1  0  0  0
 32 34  1  0  0  0
 33 35  1  0  0  0
 33 36  1  0  0  0
 19 21  1  0  0  0
 20 22  1  0  0  0
 20 23  1  0  0  0
M  CHG 1   7   1
M  END
> <minimizedAffinity>
-9.00888

$$$$
1QB6_623_A_300


 36 38  0  0  0  0  0  0  0  0999 V2000
    9.9192   26.4239   19.4105 C   0  0  0  0  0  0  0  0  0  0  0  0
   10.3085   27.5724   18.8799 F   0  0  0  0  0  0  0  0  0  0  0  0
    8.6689   25.8229   19.1290 C   0  0  0  0  0  0  0  0  0  0  0  0
    8.3672   24.5947   19.7652 C   0  0  0  0  0  0  0  0  0  0  0  0
    7.2220   23.9793   19.5393 F   0  0  0  0  0  0  0  0  0  0  0  0
    9.3070   23.9975   20.6553 C   0  0  0  0  0  0  0  0  0  0  0  0
   10.4959   24.6031   20.9115 N   0  0  0  0  0  0  0  0  0  0  0  0
   10.7924   25.7746   20.3113 C   0  0  0  0  0  0  0  0  0  0  0  0
    7.7280   26.5029   18.1904 C   0  0  0  0  0  0  0  0  0  0  0  0
   11.1382   24.1890   21.5322 H   0  0  0  0  0  0  0  0  0  0  0  0
    9.0254   22.8508   21.2688 O   0  0  0  0  0  0  0  0  0  0  0  0
    9.4565   21.5705   21.2290 C   0  0  0  0  0  0  0  0  0  0  0  0
   10.3259   21.1566   22.2481 C   0  0  0  0  0  0  0  0  0  0  0  0
   10.7878   19.8311   22.2955 C   0  0  0  0  0  0  0  0  0  0  0  0
   10.3690   18.9018   21.3297 C   0  0  0  0  0  0  0  0  0  0  0  0
    9.4767   19.2766   20.2923 C   0  0  0  0  0  0  0  0  0  0  0  0
    9.0287   20.6208   20.2671 C   0  0  0  0  0  0  0  0  0  0  0  0
    9.0464   18.3347   19.3318 C   0  0  0  0  0  0  0  0  0  0  0  0
    9.4690   17.0630   19.2379 N   0  0  0  0  0  0  0  0  0  0  0  0
    8.1694   18.6329   18.3763 N   0  0  0  0  0  0  0  0  0  0  0  0
   10.1219   16.7121   19.8859 H   0  0  0  0  0  0  0  0  0  0  0  0
    7.7796   19.5357   18.3301 H   0  0  0  0  0  0  0  0  0  0  0  0
    7.9105   17.9506   17.7155 H   0  0  0  0  0  0  0  0  0  0  0  0
   11.9954   26.3731   20.5394 O   0  0  0  0  0  0  0  0  0  0  0  0
   13.0692   26.0367   19.7552 C   0  0  0  0  0  0  0  0  0  0  0  0
   14.2394   26.7172   20.1012 C   0  0  0  0  0  0  0  0  0  0  0  0
   15.4224   26.4796   19.3901 C   0  0  0  0  0  0  0  0  0  0  0  0
   15.4428   25.5346   18.3434 C   0  0  0  0  0  0  0  0  0  0  0  0
   14.2669   24.8243   17.9993 C   0  0  0  0  0  0  0  0  0  0  0  0
   13.0867   25.0844   18.7379 C   0  0  0  0  0  0  0  0  0  0  0  0
   16.5869   27.1632   19.8018 C   0  0  0  0  0  0  0  0  0  0  0  0
   17.6495   27.2848   19.0411 N   0  0  0  0  0  0  0  0  0  0  0  0
   16.7819   27.6322   21.0037 N   0  0  0  0  0  0  0  0  0  0  0  0
   17.6270   26.9669   18.1096 H   0  0  0  0  0  0  0  0  0  0  0  0
   16.0571   27.5980   21.6691 H   0  0  0  0  0  0  0  0  0  0  0  0
   17.6539   28.0202   21.2453 H   0  0  0  0  0  0  0  0  0  0  0  0
  1  2  1  0  0  0
  1  3  2  0  0  0
  1  8  1  0  0  0
  3  4  1  0  0  0
  3  9  1  0  0  0
  4  5  1  0  0  0
  4  6  2  0  0  0
  6  7  1  0  0  0
  6 11  1  0  0  0
  7  8  2  0  0  0
  8 24  1  0  0  0
 11 12  1  0  0  0
 24 25  1  0  0  0
 25 26  2  0  0  0
 25 30  1  0  0  0
 26 27  1  0  0  0
 27 28  2  0  0  0
 27 31  1  0  0  0
 28 29  1  0  0  0
 29 30  2  0  0  0
 31 32  2  0  0  0
 31 33  1  0  0  0
 12 13  2  0  0  0
 12 17  1  0  0  0
 13 14  1  0  0  0
 14 15  2  0  0  0
 15 16  1  0  0  0
 16 17  2  0  0  0
 16 18  1  0  0  0
 18 19  2  0  0  0
 18 20  1  0  0  0
  7 10  1  0  0  0
 32 34  1  0  0  0
 33 35  1  0  0  0
 33 36  1  0  0  0
 19 21  1  0  0  0
 20 22  1  0  0  0
 20 23  1  0  0  0
M  CHG 1   7   1
M  END
> <minimizedAffinity>
-8.89362

$$$$
1QB6_623_A_300


 36 38  0  0  0  0  0  0  0  0999 V2000
   11.2895   25.8833   17.9159 C   0  0  0  0  0  0  0  0  0  0  0  0
   11.8278   26.7061   17.0298 F   0  0  0  0  0  0  0  0  0  0  0  0
   10.0671   26.1480   18.5787 C   0  0  0  0  0  0  0  0  0  0  0  0
    9.5990   25.1902   19.5104 C   0  0  0  0  0  0  0  0  0  0  0  0
    8.4627   25.3736   20.1557 F   0  0  0  0  0  0  0  0  0  0  0  0
   10.3482   24.0029   19.7570 C   0  0  0  0  0  0  0  0  0  0  0  0
   11.5225   23.7811   19.1107 N   0  0  0  0  0  0  0  0  0  0  0  0
   11.9780   24.6884   18.2219 C   0  0  0  0  0  0  0  0  0  0  0  0
    9.3336   27.4130   18.2778 C   0  0  0  0  0  0  0  0  0  0  0  0
   12.0387   22.9622   19.2900 H   0  0  0  0  0  0  0  0  0  0  0  0
    9.9230   23.1045   20.6418 O   0  0  0  0  0  0  0  0  0  0  0  0
   10.0398   21.7729   20.8404 C   0  0  0  0  0  0  0  0  0  0  0  0
   10.7031   21.3555   22.0029 C   0  0  0  0  0  0  0  0  0  0  0  0
   10.8322   19.9883   22.2974 C   0  0  0  0  0  0  0  0  0  0  0  0
   10.2822   19.0250   21.4364 C   0  0  0  0  0  0  0  0  0  0  0  0
    9.5889   19.4068   20.2590 C   0  0  0  0  0  0  0  0  0  0  0  0
    9.4760   20.7926   19.9851 C   0  0  0  0  0  0  0  0  0  0  0  0
    9.0243   18.4347   19.4037 C   0  0  0  0  0  0  0  0  0  0  0  0
    9.4292   17.1585   19.2935 N   0  0  0  0  0  0  0  0  0  0  0  0
    8.0183   18.7044   18.5753 N   0  0  0  0  0  0  0  0  0  0  0  0
   10.1689   16.8268   19.8520 H   0  0  0  0  0  0  0  0  0  0  0  0
    7.6258   19.6070   18.5550 H   0  0  0  0  0  0  0  0  0  0  0  0
    7.6667   18.0012   17.9827 H   0  0  0  0  0  0  0  0  0  0  0  0
   13.1397   24.4590   17.5470 O   0  0  0  0  0  0  0  0  0  0  0  0
   14.2894   25.0794   17.9646 C   0  0  0  0  0  0  0  0  0  0  0  0
   15.3845   24.8280   17.1340 C   0  0  0  0  0  0  0  0  0  0  0  0
   16.6310   25.3937   17.4303 C   0  0  0  0  0  0  0  0  0  0  0  0
   16.7778   26.2392   18.5496 C   0  0  0  0  0  0  0  0  0  0  0  0
   15.6687   26.5171   19.3852 C   0  0  0  0  0  0  0  0  0  0  0  0
   14.4206   25.9325   19.0587 C   0  0  0  0  0  0  0  0  0  0  0  0
   17.6973   25.1410   16.5404 C   0  0  0  0  0  0  0  0  0  0  0  0
   18.1937   23.9421   16.3437 N   0  0  0  0  0  0  0  0  0  0  0  0
   18.3778   26.0665   15.9216 N   0  0  0  0  0  0  0  0  0  0  0  0
   17.7669   23.1583   16.7594 H   0  0  0  0  0  0  0  0  0  0  0  0
   18.1035   27.0094   15.9922 H   0  0  0  0  0  0  0  0  0  0  0  0
   19.1656   25.8219   15.3842 H   0  0  0  0  0  0  0  0  0  0  0  0
  1  2  1  0  0  0
  1  3  2  0  0  0
  1  8  1  0  0  0
  3  4  1  0  0  0
  3  9  1  0  0  0
  4  5  1  0  0  0
  4  6  2  0  0  0
  6  7  1  0  0  0
  6 11  1  0  0  0
  7  8  2  0  0  0
  8 24  1  0  0  0
 11 12  1  0  0  0
 24 25  1  0  0  0
 25 26  2  0  0  0
 25 30  1  0  0  0
 26 27  1  0  0  0
 27 28  2  0  0  0
 27 31  1  0  0  0
 28 29  1  0  0  0
 29 30  2  0  0  0
 31 32  2  0  0  0
 31 33  1  0  0  0
 12 13  2  0  0  0
 12 17  1  0  0  0
 13 14  1  0  0  0
 14 15  2  0  0  0
 15 16  1  0  0  0
 16 17  2  0  0  0
 16 18  1  0  0  0
 18 19  2  0  0  0
 18 20  1  0  0  0
  7 10  1  0  0  0
 32 34  1  0  0  0
 33 35  1  0  0  0
 33 36  1  0  0  0
 19 21  1  0  0  0
 20 22  1  0  0  0
 20 23  1  0  0  0
M  CHG 1   7   1
M  END
> <minimizedAffinity>
-8.78360

$$$$
1QB6_623_A_300


 36 38  0  0  0  0  0  0  0  0999 V2000
    8.8129   26.0079   18.5410 C   0  0  0  0  0  0  0  0  0  0  0  0
    8.8532   27.0624   17.7419 F   0  0  0  0  0  0  0  0  0  0  0  0
    7.6792   25.1692   18.6630 C   0  0  0  0  0  0  0  0  0  0  0  0
    7.7594   24.0746   19.5572 C   0  0  0  0  0  0  0  0  0  0  0  0
    6.7402   23.2506   19.7109 F   0  0  0  0  0  0  0  0  0  0  0  0
    8.9534   23.8404   20.2999 C   0  0  0  0  0  0  0  0  0  0  0  0
   10.0224   24.6684   20.1669 N   0  0  0  0  0  0  0  0  0  0  0  0
    9.9555   25.7152   19.3182 C   0  0  0  0  0  0  0  0  0  0  0  0
    6.4581   25.4725   17.8595 C   0  0  0  0  0  0  0  0  0  0  0  0
   10.8420   24.5052   20.6873 H   0  0  0  0  0  0  0  0  0  0  0  0
    9.0322   22.8226   21.1535 O   0  0  0  0  0  0  0  0  0  0  0  0
    9.4534   21.5386   21.1328 C   0  0  0  0  0  0  0  0  0  0  0  0
   10.3037   21.1279   22.1691 C   0  0  0  0  0  0  0  0  0  0  0  0
   10.7541   19.7993   22.2366 C   0  0  0  0  0  0  0  0  0  0  0  0
   10.3425   18.8638   21.2736 C   0  0  0  0  0  0  0  0  0  0  0  0
    9.4692   19.2355   20.2190 C   0  0  0  0  0  0  0  0  0  0  0  0
    9.0326   20.5829   20.1737 C   0  0  0  0  0  0  0  0  0  0  0  0
    9.0459   18.2876   19.2613 C   0  0  0  0  0  0  0  0  0  0  0  0
    8.1993   18.5250   18.2455 N   0  0  0  0  0  0  0  0  0  0  0  0
    9.4370   17.0159   19.2879 N   0  0  0  0  0  0  0  0  0  0  0  0
    7.8330   19.4288   18.1111 H   0  0  0  0  0  0  0  0  0  0  0  0
   10.0603   16.7070   19.9847 H   0  0  0  0  0  0  0  0  0  0  0  0
    9.1031   16.3839   18.6109 H   0  0  0  0  0  0  0  0  0  0  0  0
   11.0341   26.5326   19.1564 O   0  0  0  0  0  0  0  0  0  0  0  0
   12.2053   26.0068   18.6739 C   0  0  0  0  0  0  0  0  0  0  0  0
   12.1902   25.8035   17.2916 C   0  0  0  0  0  0  0  0  0  0  0  0
   13.3164   25.2715   16.6511 C   0  0  0  0  0  0  0  0  0  0  0  0
   14.4761   24.9661   17.3933 C   0  0  0  0  0  0  0  0  0  0  0  0
   14.5085   25.1887   18.7915 C   0  0  0  0  0  0  0  0  0  0  0  0
   13.3553   25.7299   19.4107 C   0  0  0  0  0  0  0  0  0  0  0  0
   13.2662   25.1201   15.2484 C   0  0  0  0  0  0  0  0  0  0  0  0
   13.5964   26.0787   14.4149 N   0  0  0  0  0  0  0  0  0  0  0  0
   12.7773   24.0772   14.6353 N   0  0  0  0  0  0  0  0  0  0  0  0
   13.9775   26.9192   14.7576 H   0  0  0  0  0  0  0  0  0  0  0  0
   12.4920   23.2903   15.1536 H   0  0  0  0  0  0  0  0  0  0  0  0
   12.6936   24.0773   13.6543 H   0  0  0  0  0  0  0  0  0  0  0  0
  1  2  1  0  0  0
  1  3  2  0  0  0
  1  8  1  0  0  0
  3  4  1  0  0  0
  3  9  1  0  0  0
  4  5  1  0  0  0
  4  6  2  0  0  0
  6  7  1  0  0  0
  6 11  1  0  0  0
  7  8  2  0  0  0
  8 24  1  0  0  0
 11 12  1  0  0  0
 24 25  1  0  0  0
 25 26  2  0  0  0
 25 30  1  0  0  0
 26 27  1  0  0  0
 27 28  2  0  0  0
 27 31  1  0  0  0
 28 29  1  0  0  0
 29 30  2  0  0  0
 31 32  2  0  0  0
 31 33  1  0  0  0
 12 13  2  0  0  0
 12 17  1  0  0  0
 13 14  1  0  0  0
 14 15  2  0  0  0
 15 16  1  0  0  0
 16 17  2  0  0  0
 16 18  1  0  0  0
 18 19  2  0  0  0
 18 20  1  0  0  0
  7 10  1  0  0  0
 32 34  1  0  0  0
 33 35  1  0  0  0
 33 36  1  0  0  0
 19 21  1  0  0  0
 20 22  1  0  0  0
 20 23  1  0  0  0
M  CHG 1   7   1
M  END
> <minimizedAffinity>
-8.55430

$$$$
1QB6_623_A_300


 36 38  0  0  0  0  0  0  0  0999 V2000
    8.9427   25.4178   20.2615 C   0  0  0  0  0  0  0  0  0  0  0  0
    7.7083   25.3913   19.7846 F   0  0  0  0  0  0  0  0  0  0  0  0
    9.5768   26.6016   20.7089 C   0  0  0  0  0  0  0  0  0  0  0  0
   10.9035   26.4991   21.1925 C   0  0  0  0  0  0  0  0  0  0  0  0
   11.5476   27.5639   21.6313 F   0  0  0  0  0  0  0  0  0  0  0  0
   11.5610   25.2347   21.2220 C   0  0  0  0  0  0  0  0  0  0  0  0
   10.9284   24.1173   20.7780 N   0  0  0  0  0  0  0  0  0  0  0  0
    9.6644   24.2046   20.3138 C   0  0  0  0  0  0  0  0  0  0  0  0
    8.8335   27.8948   20.6471 C   0  0  0  0  0  0  0  0  0  0  0  0
   11.3901   23.2479   20.7948 H   0  0  0  0  0  0  0  0  0  0  0  0
   12.8129   25.1318   21.6611 O   0  0  0  0  0  0  0  0  0  0  0  0
   13.9751   25.8065   21.5175 C   0  0  0  0  0  0  0  0  0  0  0  0
   14.4247   26.0344   20.2092 C   0  0  0  0  0  0  0  0  0  0  0  0
   15.6047   26.7599   19.9778 C   0  0  0  0  0  0  0  0  0  0  0  0
   16.3380   27.2792   21.0569 C   0  0  0  0  0  0  0  0  0  0  0  0
   15.9077   27.0852   22.3948 C   0  0  0  0  0  0  0  0  0  0  0  0
   14.7153   26.3472   22.5991 C   0  0  0  0  0  0  0  0  0  0  0  0
   16.6405   27.6223   23.4763 C   0  0  0  0  0  0  0  0  0  0  0  0
   17.9576   27.8869   23.4752 N   0  0  0  0  0  0  0  0  0  0  0  0
   16.0837   27.9037   24.6517 N   0  0  0  0  0  0  0  0  0  0  0  0
   18.4919   27.7231   22.6648 H   0  0  0  0  0  0  0  0  0  0  0  0
   15.1200   27.7554   24.7880 H   0  0  0  0  0  0  0  0  0  0  0  0
   16.6354   28.2601   25.3850 H   0  0  0  0  0  0  0  0  0  0  0  0
    9.0122   23.0836   19.8951 O   0  0  0  0  0  0  0  0  0  0  0  0
    9.2715   21.8880   20.5151 C   0  0  0  0  0  0  0  0  0  0  0  0
    9.0285   20.7798   19.6995 C   0  0  0  0  0  0  0  0  0  0  0  0
    9.2476   19.4874   20.1928 C   0  0  0  0  0  0  0  0  0  0  0  0
    9.7395   19.3020   21.5016 C   0  0  0  0  0  0  0  0  0  0  0  0
   10.0091   20.4198   22.3283 C   0  0  0  0  0  0  0  0  0  0  0  0
    9.7800   21.7141   21.8009 C   0  0  0  0  0  0  0  0  0  0  0  0
    9.0238   18.4020   19.3185 C   0  0  0  0  0  0  0  0  0  0  0  0
    9.5638   17.2191   19.4966 N   0  0  0  0  0  0  0  0  0  0  0  0
    8.3715   18.4840   18.1914 N   0  0  0  0  0  0  0  0  0  0  0  0
   10.0831   17.0328   20.3120 H   0  0  0  0  0  0  0  0  0  0  0  0
    7.9211   19.3235   17.9432 H   0  0  0  0  0  0  0  0  0  0  0  0
    8.3297   17.7063   17.5891 H   0  0  0  0  0  0  0  0  0  0  0  0
  1  2  1  0  0  0
  1  3  2  0  0  0
  1  8  1  0  0  0
  3  4  1  0  0  0
  3  9  1  0  0  0
  4  5  1  0  0  0
  4  6  2  0  0  0
  6  7  1  0  0  0
  6 11  1  0  0  0
  7  8  2  0  0  0
  8 24  1  0  0  0
 11 12  1  0  0  0
 24 25  1  0  0  0
 25 26  2  0  0  0
 25 30  1  0  0  0
 26 27  1  0  0  0
 27 28  2  0  0  0
 27 31  1  0  0  0
 28 29  1  0  0  0
 29 30  2  0  0  0
 31 32  2  0  0  0
 31 33  1  0  0  0
 12 13  2  0  0  0
 12 17  1  0  0  0
 13 14  1  0  0  0
 14 15  2  0  0  0
 15 16  1  0  0  0
 16 17  2  0  0  0
 16 18  1  0  0  0
 18 19  2  0  0  0
 18 20  1  0  0  0
  7 10  1  0  0  0
 32 34  1  0  0  0
 33 35  1  0  0  0
 33 36  1  0  0  0
 19 21  1  0  0  0
 20 22  1  0  0  0
 20 23  1  0  0  0
M  CHG 1   7   1
M  END
> <minimizedAffinity>
-7.99212

$$$$
