6EP4_DME_A_601
  RCSB PDB12111714393D
Coordinates from PDB:6EP4:A:601 Model:1 without hydrogens
 18 17  0  0  0  0            999 V2000
  -17.8865  -45.8647  -24.0385   N 0  3  0  0  0  0  0  0  0  0  0  0
  -19.0390  -45.6191  -23.1641   C 0  0  0  0  0  0  0  0  0  0  0  0
  -19.6539  -44.2477  -23.4233   C 0  0  0  0  0  0  0  0  0  0  0  0
  -20.9175  -44.0854  -22.5840   C 0  0  0  0  0  0  0  0  0  0  0  0
  -21.4698  -42.6995  -22.8358   C 0  0  0  0  0  0  0  0  0  0  0  0
  -22.8290  -42.4612  -22.1733   C 0  0  0  0  0  0  0  0  0  0  0  0
  -23.1059  -41.0162  -22.5470   C 0  0  0  0  0  0  0  0  0  0  0  0
  -22.0735  -40.1745  -21.7987   C 0  0  0  0  0  0  0  0  0  0  0  0
  -22.1347  -38.7242  -22.2477   C 0  0  0  0  0  0  0  0  0  0  0  0
  -21.6337  -38.7268  -23.6883   C 0  0  0  0  0  0  0  0  0  0  0  0
  -21.6466  -37.3246  -24.2811   C 0  0  0  0  0  0  0  0  0  0  0  0
  -21.0291  -37.3495  -25.6106   N 0  3  0  0  0  0  0  0  0  0  0  0
  -18.3855  -46.0043  -25.4134   C 0  0  0  0  0  0  0  0  0  0  0  0
  -17.0077  -44.6898  -24.0510   C 0  0  0  0  0  0  0  0  0  0  0  0
  -17.1536  -47.0629  -23.6065   C 0  0  0  0  0  0  0  0  0  0  0  0
  -21.1848  -36.0379  -26.2464   C 0  0  0  0  0  0  0  0  0  0  0  0
  -21.5101  -38.4511  -26.4527   C 0  0  0  0  0  0  0  0  0  0  0  0
  -19.5890  -37.5470  -25.3870   C 0  0  0  0  0  0  0  0  0  0  0  0
  1  2  1  0  0  0  0
  1 13  1  0  0  0  0
  1 14  1  0  0  0  0
  1 15  1  0  0  0  0
  2  3  1  0  0  0  0
  3  4  1  0  0  0  0
  4  5  1  0  0  0  0
  5  6  1  0  0  0  0
  6  7  1  0  0  0  0
  7  8  1  0  0  0  0
  8  9  1  0  0  0  0
  9 10  1  0  0  0  0
 10 11  1  0  0  0  0
 11 12  1  0  0  0  0
 12 16  1  0  0  0  0
 12 17  1  0  0  0  0
 12 18  1  0  0  0  0
M  CHG  2   1   1  12   1
A    1
N1
A    2
C2
A    3
C3
A    4
C4
A    5
C5
A    6
C6
A    7
C7
A    8
C8
A    9
C9
A   10
C10
A   11
C11
A   12
N12
A   13
C13
A   14
C14
A   15
C15
A   16
C16
A   17
C17
A   18
C18
M  END
>  <InstanceId>
6EP4_DME_A_601

>  <ChemCompId>
DME

>  <PdbId>
6EP4

>  <ChainId>
A

>  <ResidueNumber>
601

>  <InsertionCode>


>  <Model>
1

>  <AltIds>


>  <MissingHeavyAtoms>
0

>  <ObservedFormula>
C16 N2

>  <Name>
DECAMETHONIUM ION

>  <SystematicName>
trimethyl-(10-trimethylazaniumyldecyl)azanium

>  <Synonyms>


>  <Type>
NON-POLYMER

>  <Formula>
C16 H38 N2

>  <MolecularWeight>
258.486

>  <ModifiedDate>
2011-06-04

>  <Parent>


>  <OneLetterCode>


>  <SubcomponentList>


>  <AmbiguousFlag>
N

>  <InChI>
InChI=1S/C16H38N2/c1-17(2,3)15-13-11-9-7-8-10-12-14-16-18(4,5)6/h7-16H2,1-6H3/q+2

>  <InChIKey>
MTCUAOILFDZKCO-UHFFFAOYSA-N

>  <SMILES>
C[N+](C)(C)CCCCCCCCCC[N+](C)(C)C

$$$$
