4DAF_0J4_A_301
  RCSB PDB12061712103D
Coordinates from PDB:4DAF:A:301 Model:1 without hydrogens
 18 19  0  0  0  0            999 V2000
  -14.5690   27.7820    3.8590   O 0  0  0  0  0  0  0  0  0  0  0  0
  -14.7450   26.3930    4.0550   C 0  0  0  0  0  0  0  0  0  0  0  0
  -15.4440   25.6880    3.1510   N 0  0  0  0  0  0  0  0  0  0  0  0
  -15.6050   24.3670    3.2500   C 0  0  0  0  0  0  0  0  0  0  0  0
  -16.3480   23.6490    2.2580   N 0  0  0  0  0  0  0  0  0  0  0  0
  -15.0880   23.7030    4.2910   N 0  0  0  0  0  0  0  0  0  0  0  0
  -14.3810   24.3350    5.2430   C 0  0  0  0  0  0  0  0  0  0  0  0
  -14.1870   25.7100    5.1490   C 0  0  0  0  0  0  0  0  0  0  0  0
  -13.4260   26.3190    6.2000   C 0  0  0  0  0  0  0  0  0  0  0  0
  -13.2020   27.6970    6.2380   O 0  0  0  0  0  0  0  0  0  0  0  0
  -13.8790   23.6340    6.2350   N 0  0  0  0  0  0  0  0  0  0  0  0
  -13.1740   24.1900    7.2060   N 0  0  0  0  0  0  0  0  0  0  0  0
  -12.9330   25.4980    7.2220   C 0  0  0  0  0  0  0  0  0  0  0  0
  -12.1280   26.1040    8.3850   C 0  0  0  0  0  0  0  0  0  0  0  0
  -10.8450   26.7170    7.8530   C 0  0  0  0  0  0  0  0  0  0  0  0
  -12.7820   27.1840    9.1790   C 0  0  0  0  0  0  0  0  0  0  0  0
  -13.8790   26.9720    9.7510   O 0  0  0  0  0  0  0  0  0  0  0  0
  -12.3420   28.3310    9.1300   O 0  0  0  0  0  0  0  0  0  0  0  0
  5  4  1  0  0  0  0
  3  4  1  0  0  0  0
  3  2  1  0  0  0  0
  4  6  2  0  0  0  0
  1  2  2  0  0  0  0
  2  8  1  0  0  0  0
  6  7  1  0  0  0  0
  8  7  2  0  0  0  0
  8  9  1  0  0  0  0
  7 11  1  0  0  0  0
  9 10  2  0  0  0  0
  9 13  1  0  0  0  0
 11 12  1  0  0  0  0
 12 13  2  0  0  0  0
 13 14  1  0  0  0  0
 15 14  1  0  0  0  0
 14 16  1  0  0  0  0
 18 16  2  0  0  0  0
 16 17  1  0  0  0  0
A    1
O1
A    2
C4
A    3
N1
A    4
C1
A    5
N5
A    6
N2
A    7
C2
A    8
C3
A    9
C6
A   10
O2
A   11
N3
A   12
N4
A   13
C5
A   14
C7
A   15
C10
A   16
C8
A   17
O4
A   18
O3
M  END
>  <InstanceId>
4DAF_0J4_A_301

>  <ChemCompId>
0J4

>  <PdbId>
4DAF

>  <ChainId>
A

>  <ResidueNumber>
301

>  <InsertionCode>


>  <Model>
1

>  <AltIds>


>  <MissingHeavyAtoms>
0

>  <ObservedFormula>
C9 N5 O4

>  <Name>
(2R)-2-(7-amino-4,5-dioxo-1,4,5,6-tetrahydropyrimido[4,5-c]pyridazin-3-yl)propanoic acid

>  <SystematicName>
(2R)-2-[7-azanyl-4,5-bis(oxidanylidene)-1,6-dihydropyrimido[4,5-c]pyridazin-3-yl]propanoic acid

>  <Synonyms>


>  <Type>
NON-POLYMER

>  <Formula>
C9 H9 N5 O4

>  <MolecularWeight>
251.199

>  <ModifiedDate>
2012-03-30

>  <Parent>


>  <OneLetterCode>


>  <SubcomponentList>


>  <AmbiguousFlag>
N

>  <InChI>
InChI=1S/C9H9N5O4/c1-2(8(17)18)4-5(15)3-6(14-13-4)11-9(10)12-7(3)16/h2H,1H3,(H,17,18)(H4,10,11,12,14,15,16)/t2-/m1/s1

>  <InChIKey>
GMTZUGVMBRNPHI-UWTATZPHSA-N

>  <SMILES>
C[C@H](C1=NNC2=C(C1=O)C(=O)NC(=N2)N)C(=O)O

$$$$
