5OUH_L0B_A_306
  RCSB PDB12061719203D
Coordinates from PDB:5OUH:A:306 Model:1 without hydrogens
 25 27  0  0  0  0            999 V2000
   42.3180  -14.2290   -0.6750   O 0  0  0  0  0  0  0  0  0  0  0  0
   41.3460  -13.7160   -1.1980   C 0  0  0  0  0  0  0  0  0  0  0  0
   32.2400  -16.6650    0.8750   C 0  0  0  0  0  0  0  0  0  0  0  0
   32.4550  -17.9950    0.5190   C 0  0  0  0  0  0  0  0  0  0  0  0
   33.7020  -18.4270    0.1010   C 0  0  0  0  0  0  0  0  0  0  0  0
   34.7400  -17.5240    0.0360   C 0  0  0  0  0  0  0  0  0  0  0  0
   34.5180  -16.2140    0.3920   C 0  0  0  0  0  0  0  0  0  0  0  0
   33.2560  -15.7760    0.8200   C 0  0  0  0  0  0  0  0  0  0  0  0
   37.1460  -16.9960    0.1180   C 0  0  0  0  0  0  0  0  0  0  0  0
   38.5660  -17.3140   -0.3260   C 0  0  0  0  0  0  0  0  0  0  0  0
   39.4150  -17.4100    0.9410   C 0  0  0  0  0  0  0  0  0  0  0  0
   40.7680  -17.1480    0.6990   C 0  0  0  0  0  0  0  0  0  0  0  0
   40.9130  -15.8910    0.0650   C 0  0  0  0  0  0  0  0  0  0  0  0
   40.2550  -15.9630   -1.2990   C 0  0  0  0  0  0  0  0  0  0  0  0
   38.8960  -16.2400   -1.1610   N 0  0  0  0  0  0  0  0  0  0  0  0
   38.3730  -15.2420   -0.7240   C 0  0  0  0  0  0  0  0  0  0  0  0
   40.3650  -14.5950   -1.9660   C 0  0  0  0  0  0  0  0  0  0  0  0
   36.1310  -17.9720   -0.4160   C 0  0  0  0  0  0  0  0  0  0  0  0
   36.2120  -17.9750   -1.7900   O 0  0  0  0  0  0  0  0  0  0  0  0
   40.5380  -11.6820    0.0530   C 0  0  0  0  0  0  0  0  0  0  0  0
   41.1070  -12.2120   -1.0840   C 0  0  0  0  0  0  0  0  0  0  0  0
   41.4470  -11.3700   -2.1320   C 0  0  0  0  0  0  0  0  0  0  0  0
   41.2250  -10.0370   -2.0460   C 0  0  0  0  0  0  0  0  0  0  0  0
   40.6440   -9.4960   -0.8890   C 0  0  0  0  0  0  0  0  0  0  0  0
   40.3110  -10.3290    0.1400   C 0  0  0  0  0  0  0  0  0  0  0  0
  1  2  2  0  0  0  0
  2 21  1  0  0  0  0
  2 17  1  0  0  0  0
 21 22  2  0  0  0  0
 21 20  1  0  0  0  0
 22 23  1  0  0  0  0
 23 24  2  0  0  0  0
 24 25  1  0  0  0  0
 25 20  2  0  0  0  0
 17 14  1  0  0  0  0
 14 13  1  0  0  0  0
 14 15  1  0  0  0  0
 13 12  1  0  0  0  0
 12 11  1  0  0  0  0
 11 10  1  0  0  0  0
 10 15  1  0  0  0  0
 10  9  1  0  0  0  0
 15 16  1  0  0  0  0
  9 18  1  0  0  0  0
 18 19  1  0  0  0  0
 18  6  1  0  0  0  0
  6  7  2  0  0  0  0
  6  5  1  0  0  0  0
  7  8  1  0  0  0  0
  8  3  2  0  0  0  0
  3  4  1  0  0  0  0
  4  5  2  0  0  0  0
A    1
O1
A    2
C3
A    3
C21
A    4
C10
A    5
C19
A    6
C17
A    7
C18
A    8
C20
A    9
C14
A   10
C11
A   11
C13
A   12
C15
A   13
C12
A   14
C9
A   15
N1
A   16
C22
A   17
C8
A   18
C16
A   19
O2
A   20
C4
A   21
C1
A   22
C2
A   23
C5
A   24
C6
A   25
C7
M  END
>  <InstanceId>
5OUH_L0B_A_306

>  <ChemCompId>
L0B

>  <PdbId>
5OUH

>  <ChainId>
A

>  <ResidueNumber>
306

>  <InsertionCode>


>  <Model>
1

>  <AltIds>


>  <MissingHeavyAtoms>
0

>  <ObservedFormula>
C22 N O2

>  <Name>
Alpha-Lobeline

>  <SystematicName>
2-[(2R,6S)-1-methyl-6-[(2S)-2-oxidanyl-2-phenyl-ethyl]piperidin-2-yl]-1-phenyl-ethanone

>  <Synonyms>


>  <Type>
non-polymer

>  <Formula>
C22 H27 N O2

>  <MolecularWeight>
337.455

>  <ModifiedDate>
2014-04-28

>  <Parent>


>  <OneLetterCode>


>  <SubcomponentList>


>  <AmbiguousFlag>
N

>  <InChI>
InChI=1S/C22H27NO2/c1-23-19(15-21(24)17-9-4-2-5-10-17)13-8-14-20(23)16-22(25)18-11-6-3-7-12-18/h2-7,9-12,19-21,24H,8,13-16H2,1H3/t19-,20+,21-/m0/s1

>  <InChIKey>
MXYUKLILVYORSK-HBMCJLEFSA-N

>  <SMILES>
CN1[C@@H](CCC[C@@H]1CC(=O)c2ccccc2)C[C@@H](c3ccccc3)O

$$$$
