4FXQ_G9L_A_501
  RCSB PDB12061712373D
Coordinates from PDB:4FXQ:A:501 Model:1 without hydrogens
 26 29  0  0  0  0            999 V2000
  -32.2370  -75.8520   -2.3010   N 0  0  0  0  0  0  0  0  0  0  0  0
  -35.9510  -73.9580    0.5780   N 0  0  0  0  0  0  0  0  0  0  0  0
  -36.6510  -72.9760    4.5990   N 0  0  0  0  0  0  0  0  0  0  0  0
  -35.2180  -72.9950   -1.3420   O 0  0  0  0  0  0  0  0  0  0  0  0
  -36.7400  -73.4440    6.8820   O 0  0  0  0  0  0  0  0  0  0  0  0
  -35.6780  -78.4620    6.9810   F 0  0  0  0  0  0  0  0  0  0  0  0
  -35.5740  -77.9690    4.6840   C 0  0  0  0  0  0  0  0  0  0  0  0
  -35.6890  -77.0370    3.6750   C 0  0  0  0  0  0  0  0  0  0  0  0
  -36.1060  -76.2400    6.3620   C 0  0  0  0  0  0  0  0  0  0  0  0
  -30.3990  -77.3630   -3.0480   C 0  0  0  0  0  0  0  0  0  0  0  0
  -30.6050  -75.8440   -3.6080   C 0  0  0  0  0  0  0  0  0  0  0  0
  -31.5640  -77.7830   -1.9770   C 0  0  0  0  0  0  0  0  0  0  0  0
  -34.2320  -75.1080   -0.9480   C 0  0  0  0  0  0  0  0  0  0  0  0
  -36.5890  -72.3080    2.2280   C 0  0  0  0  0  0  0  0  0  0  0  0
  -30.8630  -75.3160   -3.0020   C 0  0  0  0  0  0  0  0  0  0  0  0
  -32.3140  -77.4730   -2.2050   C 0  0  0  0  0  0  0  0  0  0  0  0
  -33.2820  -74.8770   -2.1220   C 0  0  0  0  0  0  0  0  0  0  0  0
  -36.7810  -72.8300    0.8630   C 0  0  0  0  0  0  0  0  0  0  0  0
  -35.9210  -75.0430    1.5210   C 0  0  0  0  0  0  0  0  0  0  0  0
  -35.1380  -73.9540   -0.6040   C 0  0  0  0  0  0  0  0  0  0  0  0
  -35.7940  -77.5740    6.0180   C 0  0  0  0  0  0  0  0  0  0  0  0
  -36.4460  -73.3320    3.2950   C 0  0  0  0  0  0  0  0  0  0  0  0
  -36.1390  -74.6550    2.9670   C 0  0  0  0  0  0  0  0  0  0  0  0
  -36.5320  -73.8850    5.6180   C 0  0  0  0  0  0  0  0  0  0  0  0
  -36.0220  -75.6810    4.0180   C 0  0  0  0  0  0  0  0  0  0  0  0
  -36.2210  -75.2930    5.3350   C 0  0  0  0  0  0  0  0  0  0  0  0
 16  1  1  0  0  0  0
  1 15  1  0  0  0  0
  1 17  1  0  0  0  0
 20  2  1  0  0  0  0
  2 18  1  0  0  0  0
  2 19  1  0  0  0  0
 22  3  1  0  0  0  0
  3 24  1  0  0  0  0
  4 20  2  0  0  0  0
 24  5  2  0  0  0  0
 21  6  1  0  0  0  0
  8  7  2  0  0  0  0
  7 21  1  0  0  0  0
  8 25  1  0  0  0  0
 26  9  1  0  0  0  0
 21  9  2  0  0  0  0
 12 10  1  0  0  0  0
 10 11  1  0  0  0  0
 11 15  1  0  0  0  0
 12 16  1  0  0  0  0
 17 13  1  0  0  0  0
 13 20  1  0  0  0  0
 18 14  1  0  0  0  0
 14 22  1  0  0  0  0
 19 23  1  0  0  0  0
 23 22  2  0  0  0  0
 23 25  1  0  0  0  0
 26 24  1  0  0  0  0
 25 26  2  0  0  0  0
A    1
N11
A    2
N12
A    3
N13
A    4
OAA
A    5
OAB
A    6
FAC
A    7
CAD
A    8
CAE
A    9
CAF
A   10
CAG
A   11
CAH
A   12
CAI
A   13
CAJ
A   14
CAK
A   15
CAL
A   16
CAM
A   17
CAN
A   18
CAO
A   19
CAP
A   20
CAR
A   21
CAS
A   22
CAT
A   23
CAU
A   24
CAV
A   25
CAW
A   26
CAX
M  END
>  <InstanceId>
4FXQ_G9L_A_501

>  <ChemCompId>
G9L

>  <PdbId>
4FXQ

>  <ChainId>
A

>  <ResidueNumber>
501

>  <InsertionCode>


>  <Model>
1

>  <AltIds>


>  <MissingHeavyAtoms>
0

>  <ObservedFormula>
C20 N3 O2 F

>  <Name>
8-fluoro-2-(3-piperidin-1-ylpropanoyl)-1,3,4,5-tetrahydrobenzo[c][1,6]naphthyridin-6(2H)-one

>  <SystematicName>
8-fluoro-2-(3-piperidin-1-ylpropanoyl)-1,3,4,5-tetrahydrobenzo[c][1,6]naphthyridin-6-one

>  <Synonyms>


>  <Type>
NON-POLYMER

>  <Formula>
C20 H24 F N3 O2

>  <MolecularWeight>
357.422

>  <ModifiedDate>
2011-06-04

>  <Parent>


>  <OneLetterCode>


>  <SubcomponentList>


>  <AmbiguousFlag>
N

>  <InChI>
InChI=1S/C20H24FN3O2/c21-14-4-5-15-16(12-14)20(26)22-18-6-11-24(13-17(15)18)19(25)7-10-23-8-2-1-3-9-23/h4-5,12H,1-3,6-11,13H2,(H,22,26)

>  <InChIKey>
CTOQXIXQHAILCA-UHFFFAOYSA-N

>  <SMILES>
c1cc2c(cc1F)C(=O)NC3=C2CN(CC3)C(=O)CCN4CCCCC4

$$$$
