4HDF_G52_A_401


 44 48  0  0  0  0  0  0  0  0999 V2000
   14.7588  -20.7390  -17.1406 C   0  0  0  0  0  0  0  0  0  0  0  0
   15.5908  -21.7901  -17.6792 N   0  0  0  0  0  0  0  0  0  0  0  0
   15.2475  -23.0255  -18.0258 C   0  0  0  0  0  0  0  0  0  0  0  0
   14.0970  -23.5002  -17.9904 O   0  0  0  0  0  0  0  0  0  0  0  0
   16.5395  -21.5598  -17.8064 H   0  0  0  0  0  0  0  0  0  0  0  0
   16.3129  -23.7127  -18.5076 O   0  0  0  0  0  0  0  0  0  0  0  0
   16.0159  -24.7342  -19.4515 C   0  0  0  0  0  0  0  0  0  0  0  0
   16.3319  -24.1483  -20.8363 C   0  0  0  0  0  0  0  0  0  0  0  0
   17.7563  -24.2607  -21.0157 O   0  0  0  0  0  0  0  0  0  0  0  0
   18.2608  -25.2796  -20.1296 C   0  0  0  0  0  0  0  0  0  0  0  0
   19.1520  -24.7344  -19.1436 O   0  0  0  0  0  0  0  0  0  0  0  0
   18.8206  -25.1963  -17.8358 C   0  0  0  0  0  0  0  0  0  0  0  0
   17.6093  -26.1171  -17.9894 C   0  0  0  0  0  0  0  0  0  0  0  0
   17.0730  -25.8624  -19.3876 C   0  0  0  0  0  0  0  0  0  0  0  0
   19.8631  -26.0183  -17.2925 O   0  0  0  0  0  0  0  0  0  0  0  0
   19.6734  -27.2860  -17.9383 C   0  0  0  0  0  0  0  0  0  0  0  0
   18.1813  -27.5082  -17.7758 C   0  0  0  0  0  0  0  0  0  0  0  0
   14.3147  -19.7405  -18.2015 C   0  0  0  0  0  0  0  0  0  0  0  0
   15.3773  -18.9136  -18.6487 O   0  0  0  0  0  0  0  0  0  0  0  0
   15.6893  -18.3624  -17.9140 H   0  0  0  0  0  0  0  0  0  0  0  0
   13.1985  -18.8142  -17.7254 C   0  0  0  0  0  0  0  0  0  0  0  0
   11.9621  -19.5431  -17.5457 N   0  0  0  0  0  0  0  0  0  0  0  0
   11.2736  -19.4692  -16.0591 S   0  0  0  0  0  0  0  0  0  0  0  0
   12.3931  -19.4005  -15.0841 O   0  0  0  0  0  0  0  0  0  0  0  0
   10.3743  -20.6282  -15.9690 O   0  0  0  0  0  0  0  0  0  0  0  0
    8.9011  -15.6245  -15.8970 C   0  0  0  0  0  0  0  0  0  0  0  0
    9.8251  -15.9278  -14.9022 C   0  0  0  0  0  0  0  0  0  0  0  0
   10.5418  -17.1071  -14.9945 C   0  0  0  0  0  0  0  0  0  0  0  0
   10.3635  -17.9745  -16.0307 C   0  0  0  0  0  0  0  0  0  0  0  0
    9.3797  -17.7197  -16.9569 C   0  0  0  0  0  0  0  0  0  0  0  0
    8.6440  -16.5407  -16.9094 C   0  0  0  0  0  0  0  0  0  0  0  0
    8.2843  -14.4289  -15.7714 O   0  0  0  0  0  0  0  0  0  0  0  0
    6.8644  -14.5590  -15.8098 C   0  0  0  0  0  0  0  0  0  0  0  0
   11.0594  -19.5722  -18.6517 C   0  0  0  0  0  0  0  0  0  0  0  0
   10.6752  -20.9916  -19.0797 C   0  0  0  0  0  0  0  0  0  0  0  0
    9.4480  -20.9679  -19.9558 C   0  0  0  0  0  0  0  0  0  0  0  0
   11.8053  -21.6202  -19.8994 C   0  0  0  0  0  0  0  0  0  0  0  0
   15.5236  -20.1357  -15.9655 C   0  0  0  0  0  0  0  0  0  0  0  0
   17.1707  -21.5802  -14.7247 C   0  0  0  0  0  0  0  0  0  0  0  0
   17.4156  -22.5594  -13.7819 C   0  0  0  0  0  0  0  0  0  0  0  0
   16.3980  -23.1972  -13.0734 C   0  0  0  0  0  0  0  0  0  0  0  0
   15.1053  -22.7284  -13.2483 C   0  0  0  0  0  0  0  0  0  0  0  0
   14.8430  -21.7463  -14.1631 C   0  0  0  0  0  0  0  0  0  0  0  0
   15.8612  -21.1758  -14.9075 C   0  0  0  0  0  0  0  0  0  0  0  0
 27 26  2  0  0  0
 32 26  1  0  0  0
 26 31  1  0  0  0
 27 28  1  0  0  0
 28 29  2  0  0  0
 29 30  1  0  0  0
 29 23  1  0  0  0
 31 30  2  0  0  0
 24 23  2  0  0  0
 23 25  2  0  0  0
 23 22  1  0  0  0
 22 21  1  0  0  0
 22 34  1  0  0  0
 34 35  1  0  0  0
 36 35  1  0  0  0
 35 37  1  0  0  0
 21 18  1  0  0  0
  1 18  1  0  0  0
 18 19  1  0  0  0
 38  1  1  0  0  0
  1  2  1  0  0  0
  2  3  1  0  0  0
  4  3  2  0  0  0
  3  6  1  0  0  0
  6  7  1  0  0  0
 14  7  1  0  0  0
  7  8  1  0  0  0
  9  8  1  0  0  0
 10  9  1  0  0  0
 14 10  1  0  0  0
 11 10  1  0  0  0
 12 11  1  0  0  0
 15 12  1  0  0  0
 13 12  1  0  0  0
 17 13  1  0  0  0
 13 14  1  0  0  0
 44 38  1  0  0  0
 40 39  2  0  0  0
 39 44  1  0  0  0
 41 40  1  0  0  0
 41 42  2  0  0  0
 42 43  1  0  0  0
 43 44  2  0  0  0
 32 33  1  0  0  0
 16 15  1  0  0  0
 17 16  1  0  0  0
 19 20  1  0  0  0
  2  5  1  0  0  0
M  END
> <minimizedAffinity>
-10.48837

$$$$
4HDF_G52_A_401


 44 48  0  0  0  0  0  0  0  0999 V2000
   11.8795  -19.0467  -18.6610 C   0  0  0  0  0  0  0  0  0  0  0  0
   11.0128  -18.0152  -18.1396 N   0  0  0  0  0  0  0  0  0  0  0  0
   10.6702  -17.7775  -16.8786 C   0  0  0  0  0  0  0  0  0  0  0  0
   11.0868  -18.3946  -15.8805 O   0  0  0  0  0  0  0  0  0  0  0  0
   10.6238  -17.4069  -18.8089 H   0  0  0  0  0  0  0  0  0  0  0  0
    9.8451  -16.7048  -16.7892 O   0  0  0  0  0  0  0  0  0  0  0  0
    8.8628  -16.7624  -15.7624 C   0  0  0  0  0  0  0  0  0  0  0  0
    8.9905  -15.4534  -14.9681 C   0  0  0  0  0  0  0  0  0  0  0  0
    8.2875  -14.4457  -15.7192 O   0  0  0  0  0  0  0  0  0  0  0  0
    7.3474  -15.0902  -16.6017 C   0  0  0  0  0  0  0  0  0  0  0  0
    7.6747  -14.8681  -17.9827 O   0  0  0  0  0  0  0  0  0  0  0  0
    7.6491  -16.0870  -18.7223 C   0  0  0  0  0  0  0  0  0  0  0  0
    7.2760  -17.1926  -17.7337 C   0  0  0  0  0  0  0  0  0  0  0  0
    7.4435  -16.5835  -16.3524 C   0  0  0  0  0  0  0  0  0  0  0  0
    6.6041  -16.0799  -19.7050 O   0  0  0  0  0  0  0  0  0  0  0  0
    5.4169  -16.3544  -18.9465 C   0  0  0  0  0  0  0  0  0  0  0  0
    5.8436  -17.5403  -18.1016 C   0  0  0  0  0  0  0  0  0  0  0  0
   13.3403  -18.8288  -18.2893 C   0  0  0  0  0  0  0  0  0  0  0  0
   13.8738  -17.6414  -18.8537 O   0  0  0  0  0  0  0  0  0  0  0  0
   13.8796  -17.7173  -19.8207 H   0  0  0  0  0  0  0  0  0  0  0  0
   14.2488  -19.9764  -18.7233 C   0  0  0  0  0  0  0  0  0  0  0  0
   14.1769  -21.0763  -17.7867 N   0  0  0  0  0  0  0  0  0  0  0  0
   13.7739  -22.5420  -18.4022 S   0  0  0  0  0  0  0  0  0  0  0  0
   12.9005  -22.2759  -19.5748 O   0  0  0  0  0  0  0  0  0  0  0  0
   13.1908  -23.3045  -17.2893 O   0  0  0  0  0  0  0  0  0  0  0  0
   17.6104  -24.4796  -19.8040 C   0  0  0  0  0  0  0  0  0  0  0  0
   16.5572  -24.2740  -20.6895 C   0  0  0  0  0  0  0  0  0  0  0  0
   15.4050  -23.6652  -20.2261 C   0  0  0  0  0  0  0  0  0  0  0  0
   15.2778  -23.2658  -18.9291 C   0  0  0  0  0  0  0  0  0  0  0  0
   16.2801  -23.5607  -18.0352 C   0  0  0  0  0  0  0  0  0  0  0  0
   17.4605  -24.1605  -18.4600 C   0  0  0  0  0  0  0  0  0  0  0  0
   18.7239  -25.0233  -20.3425 O   0  0  0  0  0  0  0  0  0  0  0  0
   19.1876  -26.1395  -19.5852 C   0  0  0  0  0  0  0  0  0  0  0  0
   15.1290  -21.0857  -16.7226 C   0  0  0  0  0  0  0  0  0  0  0  0
   14.6981  -20.2412  -15.5198 C   0  0  0  0  0  0  0  0  0  0  0  0
   13.5001  -20.8563  -14.8414 C   0  0  0  0  0  0  0  0  0  0  0  0
   15.8248  -20.1825  -14.4848 C   0  0  0  0  0  0  0  0  0  0  0  0
   11.6004  -19.1354  -20.1590 C   0  0  0  0  0  0  0  0  0  0  0  0
    9.3289  -18.5338  -21.0629 C   0  0  0  0  0  0  0  0  0  0  0  0
    8.0046  -18.8706  -21.2646 C   0  0  0  0  0  0  0  0  0  0  0  0
    7.4530  -20.0691  -20.8135 C   0  0  0  0  0  0  0  0  0  0  0  0
    8.3141  -20.9986  -20.2513 C   0  0  0  0  0  0  0  0  0  0  0  0
    9.6332  -20.6929  -20.0596 C   0  0  0  0  0  0  0  0  0  0  0  0
   10.1447  -19.4678  -20.4515 C   0  0  0  0  0  0  0  0  0  0  0  0
 27 26  2  0  0  0
 32 26  1  0  0  0
 26 31  1  0  0  0
 27 28  1  0  0  0
 28 29  2  0  0  0
 29 30  1  0  0  0
 29 23  1  0  0  0
 31 30  2  0  0  0
 24 23  2  0  0  0
 23 25  2  0  0  0
 23 22  1  0  0  0
 22 21  1  0  0  0
 22 34  1  0  0  0
 34 35  1  0  0  0
 36 35  1  0  0  0
 35 37  1  0  0  0
 21 18  1  0  0  0
  1 18  1  0  0  0
 18 19  1  0  0  0
 38  1  1  0  0  0
  1  2  1  0  0  0
  2  3  1  0  0  0
  4  3  2  0  0  0
  3  6  1  0  0  0
  6  7  1  0  0  0
 14  7  1  0  0  0
  7  8  1  0  0  0
  9  8  1  0  0  0
 10  9  1  0  0  0
 14 10  1  0  0  0
 11 10  1  0  0  0
 12 11  1  0  0  0
 15 12  1  0  0  0
 13 12  1  0  0  0
 17 13  1  0  0  0
 13 14  1  0  0  0
 44 38  1  0  0  0
 40 39  2  0  0  0
 39 44  1  0  0  0
 41 40  1  0  0  0
 41 42  2  0  0  0
 42 43  1  0  0  0
 43 44  2  0  0  0
 32 33  1  0  0  0
 16 15  1  0  0  0
 17 16  1  0  0  0
 19 20  1  0  0  0
  2  5  1  0  0  0
M  END
> <minimizedAffinity>
-10.29109

$$$$
4HDF_G52_A_401


 44 48  0  0  0  0  0  0  0  0999 V2000
   14.0380  -21.1506  -19.1847 C   0  0  0  0  0  0  0  0  0  0  0  0
   15.0355  -22.1951  -19.1530 N   0  0  0  0  0  0  0  0  0  0  0  0
   14.9271  -23.4328  -18.6833 C   0  0  0  0  0  0  0  0  0  0  0  0
   13.8956  -23.9466  -18.2117 O   0  0  0  0  0  0  0  0  0  0  0  0
   15.9133  -21.9578  -19.5303 H   0  0  0  0  0  0  0  0  0  0  0  0
   16.0840  -24.1215  -18.8468 O   0  0  0  0  0  0  0  0  0  0  0  0
   16.0562  -25.1570  -19.8213 C   0  0  0  0  0  0  0  0  0  0  0  0
   16.4851  -24.5129  -21.1487 C   0  0  0  0  0  0  0  0  0  0  0  0
   17.9232  -24.4397  -21.1251 O   0  0  0  0  0  0  0  0  0  0  0  0
   18.4253  -25.4002  -20.1748 C   0  0  0  0  0  0  0  0  0  0  0  0
   19.0918  -24.7619  -19.0738 O   0  0  0  0  0  0  0  0  0  0  0  0
   18.6426  -25.2837  -17.8251 C   0  0  0  0  0  0  0  0  0  0  0  0
   17.5934  -26.3490  -18.1464 C   0  0  0  0  0  0  0  0  0  0  0  0
   17.2302  -26.1419  -19.6067 C   0  0  0  0  0  0  0  0  0  0  0  0
   19.6957  -25.9747  -17.1385 O   0  0  0  0  0  0  0  0  0  0  0  0
   19.7631  -27.2454  -17.8023 C   0  0  0  0  0  0  0  0  0  0  0  0
   18.3041  -27.6590  -17.8516 C   0  0  0  0  0  0  0  0  0  0  0  0
   14.1898  -20.1594  -18.0384 C   0  0  0  0  0  0  0  0  0  0  0  0
   14.6415  -18.8874  -18.4755 O   0  0  0  0  0  0  0  0  0  0  0  0
   15.5355  -18.9705  -18.8427 H   0  0  0  0  0  0  0  0  0  0  0  0
   15.1617  -20.6316  -16.9600 C   0  0  0  0  0  0  0  0  0  0  0  0
   14.6694  -20.3042  -15.6399 N   0  0  0  0  0  0  0  0  0  0  0  0
   13.1873  -20.8831  -15.2425 S   0  0  0  0  0  0  0  0  0  0  0  0
   13.1463  -20.9401  -13.7580 O   0  0  0  0  0  0  0  0  0  0  0  0
   13.0383  -22.1526  -15.9679 O   0  0  0  0  0  0  0  0  0  0  0  0
   10.2226  -17.7818  -16.6672 C   0  0  0  0  0  0  0  0  0  0  0  0
   11.3315  -17.4072  -15.9151 C   0  0  0  0  0  0  0  0  0  0  0  0
   12.2234  -18.3835  -15.5098 C   0  0  0  0  0  0  0  0  0  0  0  0
   12.0412  -19.6965  -15.8270 C   0  0  0  0  0  0  0  0  0  0  0  0
   10.8938  -20.0749  -16.4835 C   0  0  0  0  0  0  0  0  0  0  0  0
    9.9764  -19.1256  -16.9202 C   0  0  0  0  0  0  0  0  0  0  0  0
    9.4301  -16.7674  -17.0778 O   0  0  0  0  0  0  0  0  0  0  0  0
    8.9857  -15.9668  -15.9842 C   0  0  0  0  0  0  0  0  0  0  0  0
   15.6277  -20.2611  -14.5821 C   0  0  0  0  0  0  0  0  0  0  0  0
   16.6133  -21.4330  -14.6129 C   0  0  0  0  0  0  0  0  0  0  0  0
   17.9971  -20.9727  -14.2294 C   0  0  0  0  0  0  0  0  0  0  0  0
   16.1943  -22.5022  -13.6003 C   0  0  0  0  0  0  0  0  0  0  0  0
   12.6810  -21.8451  -19.2628 C   0  0  0  0  0  0  0  0  0  0  0  0
   11.7726  -19.6865  -20.1870 C   0  0  0  0  0  0  0  0  0  0  0  0
   10.8173  -19.0236  -20.9326 C   0  0  0  0  0  0  0  0  0  0  0  0
    9.7436  -19.6766  -21.5368 C   0  0  0  0  0  0  0  0  0  0  0  0
    9.7210  -21.0613  -21.4773 C   0  0  0  0  0  0  0  0  0  0  0  0
   10.6680  -21.7389  -20.7603 C   0  0  0  0  0  0  0  0  0  0  0  0
   11.6860  -21.0642  -20.1087 C   0  0  0  0  0  0  0  0  0  0  0  0
 27 26  2  0  0  0
 32 26  1  0  0  0
 26 31  1  0  0  0
 27 28  1  0  0  0
 28 29  2  0  0  0
 29 30  1  0  0  0
 29 23  1  0  0  0
 31 30  2  0  0  0
 24 23  2  0  0  0
 23 25  2  0  0  0
 23 22  1  0  0  0
 22 21  1  0  0  0
 22 34  1  0  0  0
 34 35  1  0  0  0
 36 35  1  0  0  0
 35 37  1  0  0  0
 21 18  1  0  0  0
  1 18  1  0  0  0
 18 19  1  0  0  0
 38  1  1  0  0  0
  1  2  1  0  0  0
  2  3  1  0  0  0
  4  3  2  0  0  0
  3  6  1  0  0  0
  6  7  1  0  0  0
 14  7  1  0  0  0
  7  8  1  0  0  0
  9  8  1  0  0  0
 10  9  1  0  0  0
 14 10  1  0  0  0
 11 10  1  0  0  0
 12 11  1  0  0  0
 15 12  1  0  0  0
 13 12  1  0  0  0
 17 13  1  0  0  0
 13 14  1  0  0  0
 44 38  1  0  0  0
 40 39  2  0  0  0
 39 44  1  0  0  0
 41 40  1  0  0  0
 41 42  2  0  0  0
 42 43  1  0  0  0
 43 44  2  0  0  0
 32 33  1  0  0  0
 16 15  1  0  0  0
 17 16  1  0  0  0
 19 20  1  0  0  0
  2  5  1  0  0  0
M  END
> <minimizedAffinity>
-10.24676

$$$$
4HDF_G52_A_401


 44 48  0  0  0  0  0  0  0  0999 V2000
   13.9819  -21.3433  -17.7147 C   0  0  0  0  0  0  0  0  0  0  0  0
   15.0312  -22.2688  -18.0749 N   0  0  0  0  0  0  0  0  0  0  0  0
   14.9681  -23.5901  -18.1944 C   0  0  0  0  0  0  0  0  0  0  0  0
   13.9454  -24.2871  -18.0574 O   0  0  0  0  0  0  0  0  0  0  0  0
   15.9110  -21.8660  -18.2563 H   0  0  0  0  0  0  0  0  0  0  0  0
   16.1660  -24.1058  -18.5663 O   0  0  0  0  0  0  0  0  0  0  0  0
   16.1248  -25.0940  -19.5884 C   0  0  0  0  0  0  0  0  0  0  0  0
   16.5414  -24.3887  -20.8884 C   0  0  0  0  0  0  0  0  0  0  0  0
   17.9798  -24.3201  -20.8769 O   0  0  0  0  0  0  0  0  0  0  0  0
   18.4893  -25.3257  -19.9786 C   0  0  0  0  0  0  0  0  0  0  0  0
   19.1694  -24.7418  -18.8560 O   0  0  0  0  0  0  0  0  0  0  0  0
   18.7321  -25.3211  -17.6285 C   0  0  0  0  0  0  0  0  0  0  0  0
   17.6765  -26.3675  -17.9885 C   0  0  0  0  0  0  0  0  0  0  0  0
   17.2983  -26.0907  -19.4334 C   0  0  0  0  0  0  0  0  0  0  0  0
   19.7905  -26.0463  -16.9869 O   0  0  0  0  0  0  0  0  0  0  0  0
   19.8472  -27.2843  -17.7108 C   0  0  0  0  0  0  0  0  0  0  0  0
   18.3865  -27.6916  -17.7638 C   0  0  0  0  0  0  0  0  0  0  0  0
   13.2735  -20.7578  -18.9291 C   0  0  0  0  0  0  0  0  0  0  0  0
   14.0728  -20.8057  -20.1004 O   0  0  0  0  0  0  0  0  0  0  0  0
   14.8539  -20.2429  -19.9820 H   0  0  0  0  0  0  0  0  0  0  0  0
   12.8519  -19.3034  -18.7358 C   0  0  0  0  0  0  0  0  0  0  0  0
   11.4254  -19.2023  -18.5184 N   0  0  0  0  0  0  0  0  0  0  0  0
   10.4588  -19.9301  -19.6255 S   0  0  0  0  0  0  0  0  0  0  0  0
   10.1650  -21.2867  -19.0946 O   0  0  0  0  0  0  0  0  0  0  0  0
   11.1751  -19.8505  -20.9063 O   0  0  0  0  0  0  0  0  0  0  0  0
    6.7188  -17.3927  -19.7319 C   0  0  0  0  0  0  0  0  0  0  0  0
    7.8686  -16.9862  -20.4014 C   0  0  0  0  0  0  0  0  0  0  0  0
    8.9883  -17.7968  -20.3570 C   0  0  0  0  0  0  0  0  0  0  0  0
    8.9917  -18.9769  -19.6751 C   0  0  0  0  0  0  0  0  0  0  0  0
    7.8879  -19.3261  -18.9332 C   0  0  0  0  0  0  0  0  0  0  0  0
    6.7363  -18.5471  -18.9588 C   0  0  0  0  0  0  0  0  0  0  0  0
    5.6481  -16.5803  -19.8709 O   0  0  0  0  0  0  0  0  0  0  0  0
    5.1142  -16.1873  -18.6080 C   0  0  0  0  0  0  0  0  0  0  0  0
   10.9704  -19.2474  -17.1657 C   0  0  0  0  0  0  0  0  0  0  0  0
   10.9078  -17.8677  -16.5039 C   0  0  0  0  0  0  0  0  0  0  0  0
    9.5672  -17.6546  -15.8471 C   0  0  0  0  0  0  0  0  0  0  0  0
   11.9718  -17.7586  -15.4084 C   0  0  0  0  0  0  0  0  0  0  0  0
   14.6090  -20.3167  -16.7752 C   0  0  0  0  0  0  0  0  0  0  0  0
   16.0787  -21.3506  -15.0118 C   0  0  0  0  0  0  0  0  0  0  0  0
   16.2149  -21.8915  -13.7481 C   0  0  0  0  0  0  0  0  0  0  0  0
   15.1407  -22.0450  -12.8724 C   0  0  0  0  0  0  0  0  0  0  0  0
   13.9196  -21.5143  -13.2580 C   0  0  0  0  0  0  0  0  0  0  0  0
   13.7674  -20.9571  -14.4976 C   0  0  0  0  0  0  0  0  0  0  0  0
   14.8319  -20.8791  -15.3791 C   0  0  0  0  0  0  0  0  0  0  0  0
 27 26  2  0  0  0
 32 26  1  0  0  0
 26 31  1  0  0  0
 27 28  1  0  0  0
 28 29  2  0  0  0
 29 30  1  0  0  0
 29 23  1  0  0  0
 31 30  2  0  0  0
 24 23  2  0  0  0
 23 25  2  0  0  0
 23 22  1  0  0  0
 22 21  1  0  0  0
 22 34  1  0  0  0
 34 35  1  0  0  0
 36 35  1  0  0  0
 35 37  1  0  0  0
 21 18  1  0  0  0
  1 18  1  0  0  0
 18 19  1  0  0  0
 38  1  1  0  0  0
  1  2  1  0  0  0
  2  3  1  0  0  0
  4  3  2  0  0  0
  3  6  1  0  0  0
  6  7  1  0  0  0
 14  7  1  0  0  0
  7  8  1  0  0  0
  9  8  1  0  0  0
 10  9  1  0  0  0
 14 10  1  0  0  0
 11 10  1  0  0  0
 12 11  1  0  0  0
 15 12  1  0  0  0
 13 12  1  0  0  0
 17 13  1  0  0  0
 13 14  1  0  0  0
 44 38  1  0  0  0
 40 39  2  0  0  0
 39 44  1  0  0  0
 41 40  1  0  0  0
 41 42  2  0  0  0
 42 43  1  0  0  0
 43 44  2  0  0  0
 32 33  1  0  0  0
 16 15  1  0  0  0
 17 16  1  0  0  0
 19 20  1  0  0  0
  2  5  1  0  0  0
M  END
> <minimizedAffinity>
-9.97092

$$$$
4HDF_G52_A_401


 44 48  0  0  0  0  0  0  0  0999 V2000
   11.6473  -19.2104  -18.6792 C   0  0  0  0  0  0  0  0  0  0  0  0
   10.8995  -18.1218  -18.0936 N   0  0  0  0  0  0  0  0  0  0  0  0
   10.6017  -17.9115  -16.8164 C   0  0  0  0  0  0  0  0  0  0  0  0
   10.9666  -18.6156  -15.8565 O   0  0  0  0  0  0  0  0  0  0  0  0
   10.5658  -17.4452  -18.7261 H   0  0  0  0  0  0  0  0  0  0  0  0
    9.8933  -16.7654  -16.6612 O   0  0  0  0  0  0  0  0  0  0  0  0
    8.8894  -16.7890  -15.6541 C   0  0  0  0  0  0  0  0  0  0  0  0
    9.0465  -15.4851  -14.8566 C   0  0  0  0  0  0  0  0  0  0  0  0
    8.3938  -14.4537  -15.6209 O   0  0  0  0  0  0  0  0  0  0  0  0
    7.4497  -15.0654  -16.5222 C   0  0  0  0  0  0  0  0  0  0  0  0
    7.8118  -14.8548  -17.8964 O   0  0  0  0  0  0  0  0  0  0  0  0
    7.7588  -16.0721  -18.6372 C   0  0  0  0  0  0  0  0  0  0  0  0
    7.3282  -17.1641  -17.6569 C   0  0  0  0  0  0  0  0  0  0  0  0
    7.4891  -16.5611  -16.2720 C   0  0  0  0  0  0  0  0  0  0  0  0
    6.7344  -16.0289  -19.6403 O   0  0  0  0  0  0  0  0  0  0  0  0
    5.5236  -16.2622  -18.9057 C   0  0  0  0  0  0  0  0  0  0  0  0
    5.8922  -17.4620  -18.0533 C   0  0  0  0  0  0  0  0  0  0  0  0
   13.1257  -19.1690  -18.3158 C   0  0  0  0  0  0  0  0  0  0  0  0
   13.7802  -18.0201  -18.8303 O   0  0  0  0  0  0  0  0  0  0  0  0
   13.7707  -18.0496  -19.7998 H   0  0  0  0  0  0  0  0  0  0  0  0
   13.9017  -20.3853  -18.8145 C   0  0  0  0  0  0  0  0  0  0  0  0
   14.8479  -20.8396  -17.8193 N   0  0  0  0  0  0  0  0  0  0  0  0
   14.3921  -20.6958  -16.2505 S   0  0  0  0  0  0  0  0  0  0  0  0
   13.1331  -21.4727  -16.1093 O   0  0  0  0  0  0  0  0  0  0  0  0
   14.3258  -19.2534  -15.9764 O   0  0  0  0  0  0  0  0  0  0  0  0
   17.6222  -22.6517  -13.7650 C   0  0  0  0  0  0  0  0  0  0  0  0
   16.3896  -23.2731  -13.9384 C   0  0  0  0  0  0  0  0  0  0  0  0
   15.4319  -22.6496  -14.7176 C   0  0  0  0  0  0  0  0  0  0  0  0
   15.6661  -21.4469  -15.3146 C   0  0  0  0  0  0  0  0  0  0  0  0
   16.8469  -20.7901  -15.0596 C   0  0  0  0  0  0  0  0  0  0  0  0
   17.8423  -21.3852  -14.2922 C   0  0  0  0  0  0  0  0  0  0  0  0
   18.5269  -23.3483  -13.0425 O   0  0  0  0  0  0  0  0  0  0  0  0
   19.8121  -22.7302  -13.0658 C   0  0  0  0  0  0  0  0  0  0  0  0
   15.6242  -21.9941  -18.1411 C   0  0  0  0  0  0  0  0  0  0  0  0
   14.8700  -23.0053  -19.0095 C   0  0  0  0  0  0  0  0  0  0  0  0
   15.8122  -23.6875  -19.9692 C   0  0  0  0  0  0  0  0  0  0  0  0
   14.2488  -24.0954  -18.1321 C   0  0  0  0  0  0  0  0  0  0  0  0
   11.3491  -19.1894  -20.1760 C   0  0  0  0  0  0  0  0  0  0  0  0
    9.1629  -18.4412  -21.1758 C   0  0  0  0  0  0  0  0  0  0  0  0
    7.8132  -18.6572  -21.3745 C   0  0  0  0  0  0  0  0  0  0  0  0
    7.1349  -19.7478  -20.8315 C   0  0  0  0  0  0  0  0  0  0  0  0
    7.8882  -20.7067  -20.1724 C   0  0  0  0  0  0  0  0  0  0  0  0
    9.2296  -20.5219  -19.9810 C   0  0  0  0  0  0  0  0  0  0  0  0
    9.8702  -19.3956  -20.4682 C   0  0  0  0  0  0  0  0  0  0  0  0
 27 26  2  0  0  0
 32 26  1  0  0  0
 26 31  1  0  0  0
 27 28  1  0  0  0
 28 29  2  0  0  0
 29 30  1  0  0  0
 29 23  1  0  0  0
 31 30  2  0  0  0
 24 23  2  0  0  0
 23 25  2  0  0  0
 23 22  1  0  0  0
 22 21  1  0  0  0
 22 34  1  0  0  0
 34 35  1  0  0  0
 36 35  1  0  0  0
 35 37  1  0  0  0
 21 18  1  0  0  0
  1 18  1  0  0  0
 18 19  1  0  0  0
 38  1  1  0  0  0
  1  2  1  0  0  0
  2  3  1  0  0  0
  4  3  2  0  0  0
  3  6  1  0  0  0
  6  7  1  0  0  0
 14  7  1  0  0  0
  7  8  1  0  0  0
  9  8  1  0  0  0
 10  9  1  0  0  0
 14 10  1  0  0  0
 11 10  1  0  0  0
 12 11  1  0  0  0
 15 12  1  0  0  0
 13 12  1  0  0  0
 17 13  1  0  0  0
 13 14  1  0  0  0
 44 38  1  0  0  0
 40 39  2  0  0  0
 39 44  1  0  0  0
 41 40  1  0  0  0
 41 42  2  0  0  0
 42 43  1  0  0  0
 43 44  2  0  0  0
 32 33  1  0  0  0
 16 15  1  0  0  0
 17 16  1  0  0  0
 19 20  1  0  0  0
  2  5  1  0  0  0
M  END
> <minimizedAffinity>
-9.90673

$$$$
4HDF_G52_A_401


 44 48  0  0  0  0  0  0  0  0999 V2000
   11.9292  -19.2552  -17.7454 C   0  0  0  0  0  0  0  0  0  0  0  0
   11.1199  -18.1955  -17.1895 N   0  0  0  0  0  0  0  0  0  0  0  0
    9.7967  -18.0806  -17.1770 C   0  0  0  0  0  0  0  0  0  0  0  0
    8.9874  -18.9184  -17.6169 O   0  0  0  0  0  0  0  0  0  0  0  0
   11.6157  -17.4598  -16.7626 H   0  0  0  0  0  0  0  0  0  0  0  0
    9.4099  -16.9448  -16.5448 O   0  0  0  0  0  0  0  0  0  0  0  0
    9.0981  -17.0797  -15.1638 C   0  0  0  0  0  0  0  0  0  0  0  0
   10.0693  -16.1585  -14.4095 C   0  0  0  0  0  0  0  0  0  0  0  0
    9.5293  -14.8267  -14.5018 O   0  0  0  0  0  0  0  0  0  0  0  0
    8.1193  -14.9121  -14.7890 C   0  0  0  0  0  0  0  0  0  0  0  0
    7.8028  -14.3554  -16.0749 O   0  0  0  0  0  0  0  0  0  0  0  0
    6.9727  -15.2359  -16.8291 C   0  0  0  0  0  0  0  0  0  0  0  0
    6.7344  -16.4693  -15.9568 C   0  0  0  0  0  0  0  0  0  0  0  0
    7.7554  -16.3841  -14.8355 C   0  0  0  0  0  0  0  0  0  0  0  0
    5.6754  -14.6664  -17.0539 O   0  0  0  0  0  0  0  0  0  0  0  0
    4.9916  -14.8661  -15.8079 C   0  0  0  0  0  0  0  0  0  0  0  0
    5.2901  -16.3233  -15.5087 C   0  0  0  0  0  0  0  0  0  0  0  0
   13.2258  -19.4689  -16.9755 C   0  0  0  0  0  0  0  0  0  0  0  0
   14.3750  -19.1685  -17.7515 O   0  0  0  0  0  0  0  0  0  0  0  0
   14.4323  -19.7865  -18.4969 H   0  0  0  0  0  0  0  0  0  0  0  0
   13.3933  -20.8977  -16.4648 C   0  0  0  0  0  0  0  0  0  0  0  0
   14.7917  -21.2264  -16.2952 N   0  0  0  0  0  0  0  0  0  0  0  0
   15.4969  -20.7432  -14.8956 S   0  0  0  0  0  0  0  0  0  0  0  0
   14.4678  -20.8991  -13.8349 O   0  0  0  0  0  0  0  0  0  0  0  0
   16.0063  -19.3871  -15.1435 O   0  0  0  0  0  0  0  0  0  0  0  0
   18.8822  -23.6283  -14.0877 C   0  0  0  0  0  0  0  0  0  0  0  0
   17.6105  -23.8695  -13.5776 C   0  0  0  0  0  0  0  0  0  0  0  0
   16.5975  -22.9707  -13.8585 C   0  0  0  0  0  0  0  0  0  0  0  0
   16.8156  -21.8599  -14.6178 C   0  0  0  0  0  0  0  0  0  0  0  0
   18.0939  -21.5734  -15.0355 C   0  0  0  0  0  0  0  0  0  0  0  0
   19.1398  -22.4552  -14.7860 C   0  0  0  0  0  0  0  0  0  0  0  0
   19.8040  -24.5800  -13.8227 O   0  0  0  0  0  0  0  0  0  0  0  0
   19.9701  -24.7804  -12.4203 C   0  0  0  0  0  0  0  0  0  0  0  0
   15.2310  -22.4815  -16.8155 C   0  0  0  0  0  0  0  0  0  0  0  0
   15.9403  -22.3593  -18.1674 C   0  0  0  0  0  0  0  0  0  0  0  0
   17.0023  -23.4206  -18.3074 C   0  0  0  0  0  0  0  0  0  0  0  0
   14.9407  -22.5648  -19.3088 C   0  0  0  0  0  0  0  0  0  0  0  0
   12.1032  -18.9394  -19.2286 C   0  0  0  0  0  0  0  0  0  0  0  0
   11.3887  -21.1818  -20.1229 C   0  0  0  0  0  0  0  0  0  0  0  0
   10.5876  -21.9204  -20.9718 C   0  0  0  0  0  0  0  0  0  0  0  0
    9.6796  -21.3349  -21.8532 C   0  0  0  0  0  0  0  0  0  0  0  0
    9.5013  -19.9628  -21.7708 C   0  0  0  0  0  0  0  0  0  0  0  0
   10.2707  -19.2145  -20.9234 C   0  0  0  0  0  0  0  0  0  0  0  0
   11.2170  -19.8100  -20.1072 C   0  0  0  0  0  0  0  0  0  0  0  0
 27 26  2  0  0  0
 32 26  1  0  0  0
 26 31  1  0  0  0
 27 28  1  0  0  0
 28 29  2  0  0  0
 29 30  1  0  0  0
 29 23  1  0  0  0
 31 30  2  0  0  0
 24 23  2  0  0  0
 23 25  2  0  0  0
 23 22  1  0  0  0
 22 21  1  0  0  0
 22 34  1  0  0  0
 34 35  1  0  0  0
 36 35  1  0  0  0
 35 37  1  0  0  0
 21 18  1  0  0  0
  1 18  1  0  0  0
 18 19  1  0  0  0
 38  1  1  0  0  0
  1  2  1  0  0  0
  2  3  1  0  0  0
  4  3  2  0  0  0
  3  6  1  0  0  0
  6  7  1  0  0  0
 14  7  1  0  0  0
  7  8  1  0  0  0
  9  8  1  0  0  0
 10  9  1  0  0  0
 14 10  1  0  0  0
 11 10  1  0  0  0
 12 11  1  0  0  0
 15 12  1  0  0  0
 13 12  1  0  0  0
 17 13  1  0  0  0
 13 14  1  0  0  0
 44 38  1  0  0  0
 40 39  2  0  0  0
 39 44  1  0  0  0
 41 40  1  0  0  0
 41 42  2  0  0  0
 42 43  1  0  0  0
 43 44  2  0  0  0
 32 33  1  0  0  0
 16 15  1  0  0  0
 17 16  1  0  0  0
 19 20  1  0  0  0
  2  5  1  0  0  0
M  END
> <minimizedAffinity>
-9.86816

$$$$
4HDF_G52_A_401


 44 48  0  0  0  0  0  0  0  0999 V2000
   14.9342  -21.2988  -16.1123 C   0  0  0  0  0  0  0  0  0  0  0  0
   15.6526  -21.9792  -17.1650 N   0  0  0  0  0  0  0  0  0  0  0  0
   15.2634  -23.0136  -17.9016 C   0  0  0  0  0  0  0  0  0  0  0  0
   14.1518  -23.5720  -17.8458 O   0  0  0  0  0  0  0  0  0  0  0  0
   16.5512  -21.6291  -17.3629 H   0  0  0  0  0  0  0  0  0  0  0  0
   16.2164  -23.3594  -18.8024 O   0  0  0  0  0  0  0  0  0  0  0  0
   15.9536  -24.5318  -19.5634 C   0  0  0  0  0  0  0  0  0  0  0  0
   16.3478  -24.2042  -21.0119 C   0  0  0  0  0  0  0  0  0  0  0  0
   17.7778  -24.3536  -21.0933 O   0  0  0  0  0  0  0  0  0  0  0  0
   18.2223  -25.2000  -20.0145 C   0  0  0  0  0  0  0  0  0  0  0  0
   19.0697  -24.4916  -19.0960 O   0  0  0  0  0  0  0  0  0  0  0  0
   18.6658  -24.7107  -17.7461 C   0  0  0  0  0  0  0  0  0  0  0  0
   17.4510  -25.6385  -17.7965 C   0  0  0  0  0  0  0  0  0  0  0  0
   16.9902  -25.6353  -19.2439 C   0  0  0  0  0  0  0  0  0  0  0  0
   19.6677  -25.4273  -17.0109 O   0  0  0  0  0  0  0  0  0  0  0  0
   19.4934  -26.7890  -17.4295 C   0  0  0  0  0  0  0  0  0  0  0  0
   17.9920  -26.9717  -17.3086 C   0  0  0  0  0  0  0  0  0  0  0  0
   13.9583  -20.2583  -16.6456 C   0  0  0  0  0  0  0  0  0  0  0  0
   14.1005  -19.0004  -16.0048 O   0  0  0  0  0  0  0  0  0  0  0  0
   13.8711  -19.0879  -15.0664 H   0  0  0  0  0  0  0  0  0  0  0  0
   12.4966  -20.6725  -16.4958 C   0  0  0  0  0  0  0  0  0  0  0  0
   11.6765  -20.0552  -17.5149 N   0  0  0  0  0  0  0  0  0  0  0  0
   11.5260  -20.8685  -18.9311 S   0  0  0  0  0  0  0  0  0  0  0  0
   11.1454  -22.2601  -18.5743 O   0  0  0  0  0  0  0  0  0  0  0  0
   12.7971  -20.6816  -19.6449 O   0  0  0  0  0  0  0  0  0  0  0  0
    8.1151  -18.9407  -21.1863 C   0  0  0  0  0  0  0  0  0  0  0  0
    7.9244  -20.1377  -20.5036 C   0  0  0  0  0  0  0  0  0  0  0  0
    8.9887  -20.6890  -19.8135 C   0  0  0  0  0  0  0  0  0  0  0  0
   10.2132  -20.0908  -19.7885 C   0  0  0  0  0  0  0  0  0  0  0  0
   10.4240  -18.9625  -20.5455 C   0  0  0  0  0  0  0  0  0  0  0  0
    9.3795  -18.3677  -21.2446 C   0  0  0  0  0  0  0  0  0  0  0  0
    7.0157  -18.4327  -21.7855 O   0  0  0  0  0  0  0  0  0  0  0  0
    7.1889  -17.0604  -22.1337 C   0  0  0  0  0  0  0  0  0  0  0  0
   10.5170  -19.3478  -17.0744 C   0  0  0  0  0  0  0  0  0  0  0  0
   10.7392  -17.8368  -16.9600 C   0  0  0  0  0  0  0  0  0  0  0  0
    9.5264  -17.0838  -17.4457 C   0  0  0  0  0  0  0  0  0  0  0  0
   10.9603  -17.4448  -15.4966 C   0  0  0  0  0  0  0  0  0  0  0  0
   15.9844  -20.7627  -15.1430 C   0  0  0  0  0  0  0  0  0  0  0  0
   18.0914  -22.0077  -14.5522 C   0  0  0  0  0  0  0  0  0  0  0  0
   18.7037  -23.0670  -13.9112 C   0  0  0  0  0  0  0  0  0  0  0  0
   17.9915  -24.0394  -13.2102 C   0  0  0  0  0  0  0  0  0  0  0  0
   16.6268  -23.8488  -13.0591 C   0  0  0  0  0  0  0  0  0  0  0  0
   16.0032  -22.7960  -13.6696 C   0  0  0  0  0  0  0  0  0  0  0  0
   16.7209  -21.8811  -14.4206 C   0  0  0  0  0  0  0  0  0  0  0  0
 27 26  2  0  0  0
 32 26  1  0  0  0
 26 31  1  0  0  0
 27 28  1  0  0  0
 28 29  2  0  0  0
 29 30  1  0  0  0
 29 23  1  0  0  0
 31 30  2  0  0  0
 24 23  2  0  0  0
 23 25  2  0  0  0
 23 22  1  0  0  0
 22 21  1  0  0  0
 22 34  1  0  0  0
 34 35  1  0  0  0
 36 35  1  0  0  0
 35 37  1  0  0  0
 21 18  1  0  0  0
  1 18  1  0  0  0
 18 19  1  0  0  0
 38  1  1  0  0  0
  1  2  1  0  0  0
  2  3  1  0  0  0
  4  3  2  0  0  0
  3  6  1  0  0  0
  6  7  1  0  0  0
 14  7  1  0  0  0
  7  8  1  0  0  0
  9  8  1  0  0  0
 10  9  1  0  0  0
 14 10  1  0  0  0
 11 10  1  0  0  0
 12 11  1  0  0  0
 15 12  1  0  0  0
 13 12  1  0  0  0
 17 13  1  0  0  0
 13 14  1  0  0  0
 44 38  1  0  0  0
 40 39  2  0  0  0
 39 44  1  0  0  0
 41 40  1  0  0  0
 41 42  2  0  0  0
 42 43  1  0  0  0
 43 44  2  0  0  0
 32 33  1  0  0  0
 16 15  1  0  0  0
 17 16  1  0  0  0
 19 20  1  0  0  0
  2  5  1  0  0  0
M  END
> <minimizedAffinity>
-9.76852

$$$$
4HDF_G52_A_401


 44 48  0  0  0  0  0  0  0  0999 V2000
   13.9297  -22.0756  -18.9495 C   0  0  0  0  0  0  0  0  0  0  0  0
   12.5758  -21.7753  -19.3542 N   0  0  0  0  0  0  0  0  0  0  0  0
   11.9770  -20.5927  -19.4378 C   0  0  0  0  0  0  0  0  0  0  0  0
   12.5090  -19.4884  -19.2190 O   0  0  0  0  0  0  0  0  0  0  0  0
   12.0227  -22.5515  -19.6012 H   0  0  0  0  0  0  0  0  0  0  0  0
   10.6991  -20.7206  -19.8735 O   0  0  0  0  0  0  0  0  0  0  0  0
   10.4494  -20.2756  -21.2010 C   0  0  0  0  0  0  0  0  0  0  0  0
    9.9494  -21.5014  -21.9809 C   0  0  0  0  0  0  0  0  0  0  0  0
    8.5526  -21.6498  -21.6634 O   0  0  0  0  0  0  0  0  0  0  0  0
    8.0444  -20.3882  -21.1861 C   0  0  0  0  0  0  0  0  0  0  0  0
    7.6264  -20.4671  -19.8139 O   0  0  0  0  0  0  0  0  0  0  0  0
    8.1538  -19.3847  -19.0500 C   0  0  0  0  0  0  0  0  0  0  0  0
    8.9867  -18.5344  -20.0104 C   0  0  0  0  0  0  0  0  0  0  0  0
    9.1830  -19.3879  -21.2515 C   0  0  0  0  0  0  0  0  0  0  0  0
    7.1101  -18.5215  -18.5774 O   0  0  0  0  0  0  0  0  0  0  0  0
    6.7733  -17.7286  -19.7254 C   0  0  0  0  0  0  0  0  0  0  0  0
    8.1381  -17.2928  -20.2252 C   0  0  0  0  0  0  0  0  0  0  0  0
   14.5618  -20.9532  -18.1370 C   0  0  0  0  0  0  0  0  0  0  0  0
   15.4011  -20.1203  -18.9211 O   0  0  0  0  0  0  0  0  0  0  0  0
   16.1550  -20.6362  -19.2472 H   0  0  0  0  0  0  0  0  0  0  0  0
   15.4020  -21.4579  -16.9665 C   0  0  0  0  0  0  0  0  0  0  0  0
   14.9576  -20.8736  -15.7202 N   0  0  0  0  0  0  0  0  0  0  0  0
   13.4735  -21.3215  -15.1852 S   0  0  0  0  0  0  0  0  0  0  0  0
   13.5569  -21.3520  -13.7017 O   0  0  0  0  0  0  0  0  0  0  0  0
   13.1594  -22.5853  -15.8665 O   0  0  0  0  0  0  0  0  0  0  0  0
   10.6784  -17.9947  -16.4330 C   0  0  0  0  0  0  0  0  0  0  0  0
   12.0011  -17.7198  -16.1005 C   0  0  0  0  0  0  0  0  0  0  0  0
   12.8291  -18.7664  -15.7374 C   0  0  0  0  0  0  0  0  0  0  0  0
   12.3813  -20.0531  -15.6966 C   0  0  0  0  0  0  0  0  0  0  0  0
   11.0501  -20.3076  -15.9284 C   0  0  0  0  0  0  0  0  0  0  0  0
   10.1849  -19.2875  -16.3083 C   0  0  0  0  0  0  0  0  0  0  0  0
    9.9481  -16.9316  -16.8356 O   0  0  0  0  0  0  0  0  0  0  0  0
    8.7750  -16.7640  -16.0418 C   0  0  0  0  0  0  0  0  0  0  0  0
   15.9476  -20.6627  -14.7130 C   0  0  0  0  0  0  0  0  0  0  0  0
   16.9906  -21.7823  -14.6484 C   0  0  0  0  0  0  0  0  0  0  0  0
   18.3450  -21.2257  -14.2879 C   0  0  0  0  0  0  0  0  0  0  0  0
   16.6128  -22.7941  -13.5632 C   0  0  0  0  0  0  0  0  0  0  0  0
   14.6883  -22.4624  -20.2163 C   0  0  0  0  0  0  0  0  0  0  0  0
   15.1969  -24.5858  -18.9628 C   0  0  0  0  0  0  0  0  0  0  0  0
   15.9430  -25.7417  -18.8400 C   0  0  0  0  0  0  0  0  0  0  0  0
   16.9715  -26.0740  -19.7210 C   0  0  0  0  0  0  0  0  0  0  0  0
   17.1542  -25.2598  -20.8279 C   0  0  0  0  0  0  0  0  0  0  0  0
   16.4133  -24.1204  -20.9789 C   0  0  0  0  0  0  0  0  0  0  0  0
   15.4446  -23.7726  -20.0532 C   0  0  0  0  0  0  0  0  0  0  0  0
 27 26  2  0  0  0
 32 26  1  0  0  0
 26 31  1  0  0  0
 27 28  1  0  0  0
 28 29  2  0  0  0
 29 30  1  0  0  0
 29 23  1  0  0  0
 31 30  2  0  0  0
 24 23  2  0  0  0
 23 25  2  0  0  0
 23 22  1  0  0  0
 22 21  1  0  0  0
 22 34  1  0  0  0
 34 35  1  0  0  0
 36 35  1  0  0  0
 35 37  1  0  0  0
 21 18  1  0  0  0
  1 18  1  0  0  0
 18 19  1  0  0  0
 38  1  1  0  0  0
  1  2  1  0  0  0
  2  3  1  0  0  0
  4  3  2  0  0  0
  3  6  1  0  0  0
  6  7  1  0  0  0
 14  7  1  0  0  0
  7  8  1  0  0  0
  9  8  1  0  0  0
 10  9  1  0  0  0
 14 10  1  0  0  0
 11 10  1  0  0  0
 12 11  1  0  0  0
 15 12  1  0  0  0
 13 12  1  0  0  0
 17 13  1  0  0  0
 13 14  1  0  0  0
 44 38  1  0  0  0
 40 39  2  0  0  0
 39 44  1  0  0  0
 41 40  1  0  0  0
 41 42  2  0  0  0
 42 43  1  0  0  0
 43 44  2  0  0  0
 32 33  1  0  0  0
 16 15  1  0  0  0
 17 16  1  0  0  0
 19 20  1  0  0  0
  2  5  1  0  0  0
M  END
> <minimizedAffinity>
-9.72905

$$$$
4HDF_G52_A_401


 44 48  0  0  0  0  0  0  0  0999 V2000
   15.6560  -22.1572  -18.6747 C   0  0  0  0  0  0  0  0  0  0  0  0
   16.3582  -22.3127  -17.4218 N   0  0  0  0  0  0  0  0  0  0  0  0
   17.6005  -22.7337  -17.2128 C   0  0  0  0  0  0  0  0  0  0  0  0
   18.4263  -23.0363  -18.0942 O   0  0  0  0  0  0  0  0  0  0  0  0
   15.8475  -22.0746  -16.6145 H   0  0  0  0  0  0  0  0  0  0  0  0
   17.9037  -22.7276  -15.8909 O   0  0  0  0  0  0  0  0  0  0  0  0
   19.2544  -23.0296  -15.5636 C   0  0  0  0  0  0  0  0  0  0  0  0
   19.8482  -21.7496  -14.9555 C   0  0  0  0  0  0  0  0  0  0  0  0
   19.4211  -21.7103  -13.5807 O   0  0  0  0  0  0  0  0  0  0  0  0
   19.0626  -23.0427  -13.1636 C   0  0  0  0  0  0  0  0  0  0  0  0
   17.6655  -23.1432  -12.8448 O   0  0  0  0  0  0  0  0  0  0  0  0
   17.0724  -24.2777  -13.4728 C   0  0  0  0  0  0  0  0  0  0  0  0
   18.1809  -24.9684  -14.2685 C   0  0  0  0  0  0  0  0  0  0  0  0
   19.3230  -23.9693  -14.3361 C   0  0  0  0  0  0  0  0  0  0  0  0
   16.6351  -25.2417  -12.5047 O   0  0  0  0  0  0  0  0  0  0  0  0
   17.8430  -25.9139  -12.1187 C   0  0  0  0  0  0  0  0  0  0  0  0
   18.4825  -26.2191  -13.4604 C   0  0  0  0  0  0  0  0  0  0  0  0
   14.7722  -20.9171  -18.7020 C   0  0  0  0  0  0  0  0  0  0  0  0
   15.4858  -19.7490  -19.0753 O   0  0  0  0  0  0  0  0  0  0  0  0
   16.1574  -19.5519  -18.4037 H   0  0  0  0  0  0  0  0  0  0  0  0
   14.1065  -20.6235  -17.3599 C   0  0  0  0  0  0  0  0  0  0  0  0
   12.6773  -20.8330  -17.4341 N   0  0  0  0  0  0  0  0  0  0  0  0
   11.8680  -20.8981  -16.0091 S   0  0  0  0  0  0  0  0  0  0  0  0
   12.8890  -21.1603  -14.9615 O   0  0  0  0  0  0  0  0  0  0  0  0
   10.8127  -21.9056  -16.1860 O   0  0  0  0  0  0  0  0  0  0  0  0
   10.1153  -16.7848  -15.3412 C   0  0  0  0  0  0  0  0  0  0  0  0
   11.4570  -17.0344  -15.0706 C   0  0  0  0  0  0  0  0  0  0  0  0
   11.9595  -18.3021  -15.3013 C   0  0  0  0  0  0  0  0  0  0  0  0
   11.1748  -19.3070  -15.7832 C   0  0  0  0  0  0  0  0  0  0  0  0
    9.8289  -19.0837  -15.9542 C   0  0  0  0  0  0  0  0  0  0  0  0
    9.2836  -17.8215  -15.7460 C   0  0  0  0  0  0  0  0  0  0  0  0
    9.7118  -15.5097  -15.1492 O   0  0  0  0  0  0  0  0  0  0  0  0
    8.3321  -15.3374  -15.4674 C   0  0  0  0  0  0  0  0  0  0  0  0
   11.9857  -20.2113  -18.5176 C   0  0  0  0  0  0  0  0  0  0  0  0
   10.9757  -21.1385  -19.2002 C   0  0  0  0  0  0  0  0  0  0  0  0
    9.6460  -20.4464  -19.3636 C   0  0  0  0  0  0  0  0  0  0  0  0
   11.4665  -21.5143  -20.6009 C   0  0  0  0  0  0  0  0  0  0  0  0
   14.9293  -23.4742  -18.9342 C   0  0  0  0  0  0  0  0  0  0  0  0
   16.2395  -25.6184  -18.7783 C   0  0  0  0  0  0  0  0  0  0  0  0
   17.1113  -26.5211  -19.3554 C   0  0  0  0  0  0  0  0  0  0  0  0
   17.6616  -26.3349  -20.6230 C   0  0  0  0  0  0  0  0  0  0  0  0
   17.2069  -25.2568  -21.3662 C   0  0  0  0  0  0  0  0  0  0  0  0
   16.3291  -24.3612  -20.8209 C   0  0  0  0  0  0  0  0  0  0  0  0
   15.8496  -24.5276  -19.5330 C   0  0  0  0  0  0  0  0  0  0  0  0
 27 26  2  0  0  0
 32 26  1  0  0  0
 26 31  1  0  0  0
 27 28  1  0  0  0
 28 29  2  0  0  0
 29 30  1  0  0  0
 29 23  1  0  0  0
 31 30  2  0  0  0
 24 23  2  0  0  0
 23 25  2  0  0  0
 23 22  1  0  0  0
 22 21  1  0  0  0
 22 34  1  0  0  0
 34 35  1  0  0  0
 36 35  1  0  0  0
 35 37  1  0  0  0
 21 18  1  0  0  0
  1 18  1  0  0  0
 18 19  1  0  0  0
 38  1  1  0  0  0
  1  2  1  0  0  0
  2  3  1  0  0  0
  4  3  2  0  0  0
  3  6  1  0  0  0
  6  7  1  0  0  0
 14  7  1  0  0  0
  7  8  1  0  0  0
  9  8  1  0  0  0
 10  9  1  0  0  0
 14 10  1  0  0  0
 11 10  1  0  0  0
 12 11  1  0  0  0
 15 12  1  0  0  0
 13 12  1  0  0  0
 17 13  1  0  0  0
 13 14  1  0  0  0
 44 38  1  0  0  0
 40 39  2  0  0  0
 39 44  1  0  0  0
 41 40  1  0  0  0
 41 42  2  0  0  0
 42 43  1  0  0  0
 43 44  2  0  0  0
 32 33  1  0  0  0
 16 15  1  0  0  0
 17 16  1  0  0  0
 19 20  1  0  0  0
  2  5  1  0  0  0
M  END
> <minimizedAffinity>
-9.69523

$$$$
4HDF_G52_A_401


 44 48  0  0  0  0  0  0  0  0999 V2000
   15.5312  -21.5531  -15.9105 C   0  0  0  0  0  0  0  0  0  0  0  0
   16.0968  -22.2677  -17.0315 N   0  0  0  0  0  0  0  0  0  0  0  0
   15.5410  -23.2154  -17.7779 C   0  0  0  0  0  0  0  0  0  0  0  0
   14.3752  -23.6393  -17.6701 O   0  0  0  0  0  0  0  0  0  0  0  0
   17.0178  -22.0189  -17.2747 H   0  0  0  0  0  0  0  0  0  0  0  0
   16.3890  -23.6327  -18.7507 O   0  0  0  0  0  0  0  0  0  0  0  0
   15.9534  -24.7502  -19.5149 C   0  0  0  0  0  0  0  0  0  0  0  0
   16.1892  -24.3844  -20.9885 C   0  0  0  0  0  0  0  0  0  0  0  0
   17.5844  -24.6227  -21.2538 O   0  0  0  0  0  0  0  0  0  0  0  0
   18.0972  -25.5437  -20.2706 C   0  0  0  0  0  0  0  0  0  0  0  0
   19.0983  -24.9338  -19.4403 O   0  0  0  0  0  0  0  0  0  0  0  0
   18.8484  -25.1865  -18.0593 C   0  0  0  0  0  0  0  0  0  0  0  0
   17.5746  -26.0301  -17.9910 C   0  0  0  0  0  0  0  0  0  0  0  0
   16.9414  -25.9320  -19.3682 C   0  0  0  0  0  0  0  0  0  0  0  0
   19.8801  -25.9989  -17.4819 O   0  0  0  0  0  0  0  0  0  0  0  0
   19.5608  -27.3263  -17.9247 C   0  0  0  0  0  0  0  0  0  0  0  0
   18.0764  -27.4162  -17.6235 C   0  0  0  0  0  0  0  0  0  0  0  0
   14.8533  -20.2537  -16.3248 C   0  0  0  0  0  0  0  0  0  0  0  0
   15.2681  -19.1488  -15.5373 O   0  0  0  0  0  0  0  0  0  0  0  0
   14.9893  -19.2841  -14.6181 H   0  0  0  0  0  0  0  0  0  0  0  0
   13.3304  -20.3161  -16.2388 C   0  0  0  0  0  0  0  0  0  0  0  0
   12.7206  -19.6897  -17.3911 N   0  0  0  0  0  0  0  0  0  0  0  0
   12.3927  -18.0873  -17.2703 S   0  0  0  0  0  0  0  0  0  0  0  0
   13.1339  -17.4256  -18.3754 O   0  0  0  0  0  0  0  0  0  0  0  0
   12.7480  -17.7015  -15.8973 O   0  0  0  0  0  0  0  0  0  0  0  0
    7.9258  -17.7087  -17.8538 C   0  0  0  0  0  0  0  0  0  0  0  0
    8.5631  -17.0351  -16.8167 C   0  0  0  0  0  0  0  0  0  0  0  0
    9.9332  -17.1649  -16.6795 C   0  0  0  0  0  0  0  0  0  0  0  0
   10.6688  -17.9341  -17.5310 C   0  0  0  0  0  0  0  0  0  0  0  0
   10.0232  -18.6763  -18.4917 C   0  0  0  0  0  0  0  0  0  0  0  0
    8.6488  -18.5671  -18.6728 C   0  0  0  0  0  0  0  0  0  0  0  0
    6.5975  -17.4855  -17.9611 O   0  0  0  0  0  0  0  0  0  0  0  0
    5.9642  -18.4516  -18.7979 C   0  0  0  0  0  0  0  0  0  0  0  0
   13.1420  -20.1460  -18.6768 C   0  0  0  0  0  0  0  0  0  0  0  0
   12.3777  -21.3828  -19.1584 C   0  0  0  0  0  0  0  0  0  0  0  0
   11.3627  -21.8132  -18.1297 C   0  0  0  0  0  0  0  0  0  0  0  0
   11.6117  -21.0625  -20.4448 C   0  0  0  0  0  0  0  0  0  0  0  0
   16.6486  -21.3995  -14.8821 C   0  0  0  0  0  0  0  0  0  0  0  0
   18.2355  -23.3493  -14.7465 C   0  0  0  0  0  0  0  0  0  0  0  0
   18.5559  -24.5841  -14.2167 C   0  0  0  0  0  0  0  0  0  0  0  0
   17.7293  -25.2580  -13.3185 C   0  0  0  0  0  0  0  0  0  0  0  0
   16.6057  -24.5899  -12.8574 C   0  0  0  0  0  0  0  0  0  0  0  0
   16.2801  -23.3583  -13.3547 C   0  0  0  0  0  0  0  0  0  0  0  0
   17.0788  -22.7378  -14.2998 C   0  0  0  0  0  0  0  0  0  0  0  0
 27 26  2  0  0  0
 32 26  1  0  0  0
 26 31  1  0  0  0
 27 28  1  0  0  0
 28 29  2  0  0  0
 29 30  1  0  0  0
 29 23  1  0  0  0
 31 30  2  0  0  0
 24 23  2  0  0  0
 23 25  2  0  0  0
 23 22  1  0  0  0
 22 21  1  0  0  0
 22 34  1  0  0  0
 34 35  1  0  0  0
 36 35  1  0  0  0
 35 37  1  0  0  0
 21 18  1  0  0  0
  1 18  1  0  0  0
 18 19  1  0  0  0
 38  1  1  0  0  0
  1  2  1  0  0  0
  2  3  1  0  0  0
  4  3  2  0  0  0
  3  6  1  0  0  0
  6  7  1  0  0  0
 14  7  1  0  0  0
  7  8  1  0  0  0
  9  8  1  0  0  0
 10  9  1  0  0  0
 14 10  1  0  0  0
 11 10  1  0  0  0
 12 11  1  0  0  0
 15 12  1  0  0  0
 13 12  1  0  0  0
 17 13  1  0  0  0
 13 14  1  0  0  0
 44 38  1  0  0  0
 40 39  2  0  0  0
 39 44  1  0  0  0
 41 40  1  0  0  0
 41 42  2  0  0  0
 42 43  1  0  0  0
 43 44  2  0  0  0
 32 33  1  0  0  0
 16 15  1  0  0  0
 17 16  1  0  0  0
 19 20  1  0  0  0
  2  5  1  0  0  0
M  END
> <minimizedAffinity>
-9.60412

$$$$
