4X5Z_3XY_A_605


 35 39  0  0  0  0  0  0  0  0999 V2000
   11.7016   12.0902   11.5098 C   0  0  0  0  0  0  0  0  0  0  0  0
   11.8181   13.2114   12.5275 C   0  0  0  0  0  0  0  0  0  0  0  0
   10.7120   14.2634   12.3472 C   0  0  0  0  0  0  0  0  0  0  0  0
   11.6914   12.6070   10.0494 C   0  0  0  0  0  0  0  0  0  0  0  0
   10.7382   13.7807    9.9200 C   0  0  0  0  0  0  0  0  0  0  0  0
   10.8831   14.8469   10.9837 N   0  0  0  0  0  0  0  0  0  0  0  0
   12.8867   11.2207   11.7508 N   0  0  0  0  0  0  0  0  0  0  0  0
   13.7850   11.6218   11.7901 H   0  0  0  0  0  0  0  0  0  0  0  0
   13.5613    7.7176   12.4242 C   0  0  0  0  0  0  0  0  0  0  0  0
   13.8099    9.0605   12.2770 C   0  0  0  0  0  0  0  0  0  0  0  0
   12.7411    9.8768   11.9175 C   0  0  0  0  0  0  0  0  0  0  0  0
   11.5119    9.3309   11.6448 N   0  0  0  0  0  0  0  0  0  0  0  0
   12.3394    7.1554   12.1957 N   0  0  0  0  0  0  0  0  0  0  0  0
   15.8942    8.2967   12.8988 C   0  0  0  0  0  0  0  0  0  0  0  0
   14.9867    6.8712   12.9547 S   0  0  0  0  0  0  0  0  0  0  0  0
   15.1072    9.3668   12.5533 C   0  0  0  0  0  0  0  0  0  0  0  0
   11.2835    7.9782   11.8362 C   0  0  0  0  0  0  0  0  0  0  0  0
   17.3681    8.3961   13.2478 C   0  0  0  0  0  0  0  0  0  0  0  0
   18.2882    6.3582   12.5102 F   0  0  0  0  0  0  0  0  0  0  0  0
   18.1978    7.6414   12.2120 C   0  0  0  0  0  0  0  0  0  0  0  0
   17.6160    7.7479   11.0141 F   0  0  0  0  0  0  0  0  0  0  0  0
   19.4057    8.1419   12.1453 F   0  0  0  0  0  0  0  0  0  0  0  0
    9.8407   15.8886   10.7009 C   0  0  0  0  0  0  0  0  0  0  0  0
    9.9668   17.0787   11.5620 C   0  0  0  0  0  0  0  0  0  0  0  0
    8.8411   17.8458   11.9492 C   0  0  0  0  0  0  0  0  0  0  0  0
    8.9882   18.9834   12.6938 C   0  0  0  0  0  0  0  0  0  0  0  0
    8.0735   19.8609   13.1978 C   0  0  0  0  0  0  0  0  0  0  0  0
    8.7561   20.7883   13.8947 C   0  0  0  0  0  0  0  0  0  0  0  0
   10.0297   20.5069   13.8675 N   0  0  0  0  0  0  0  0  0  0  0  0
   10.1867   19.3983   13.1218 C   0  0  0  0  0  0  0  0  0  0  0  0
   11.3158   18.7022   12.7899 C   0  0  0  0  0  0  0  0  0  0  0  0
   11.2358   17.5633   11.9815 C   0  0  0  0  0  0  0  0  0  0  0  0
   10.7466   21.0143   14.3124 H   0  0  0  0  0  0  0  0  0  0  0  0
    8.3169   21.9205   14.6069 C   0  0  0  0  0  0  0  0  0  0  0  0
    7.9947   22.8143   15.1919 N   0  0  0  0  0  0  0  0  0  0  0  0
  5  4  1  0  0  0
  5  6  1  0  0  0
  4  1  1  0  0  0
 23  6  1  0  0  0
 23 24  1  0  0  0
  6  3  1  0  0  0
 22 20  1  0  0  0
 24 32  2  0  0  0
 24 25  1  0  0  0
 32 31  1  0  0  0
  1  7  1  0  0  0
  1  2  1  0  0  0
 12 17  2  0  0  0
 12 11  1  0  0  0
 25 26  2  0  0  0
  7 11  1  0  0  0
 21 20  1  0  0  0
 17 13  1  0  0  0
 11 10  2  0  0  0
 31 30  2  0  0  0
  3  2  1  0  0  0
 20 19  1  0  0  0
 20 18  1  0  0  0
 13  9  2  0  0  0
 10  9  1  0  0  0
 10 16  1  0  0  0
  9 15  1  0  0  0
 26 30  1  0  0  0
 26 27  1  0  0  0
 16 14  2  0  0  0
 30 29  1  0  0  0
 14 15  1  0  0  0
 14 18  1  0  0  0
 27 28  2  0  0  0
 29 28  1  0  0  0
 28 34  1  0  0  0
 34 35  3  0  0  0
  7  8  1  0  0  0
 29 33  1  0  0  0
M  END
> <minimizedAffinity>
-8.95965

$$$$
4X5Z_3XY_A_605


 35 39  0  0  0  0  0  0  0  0999 V2000
   15.8408   12.4116   11.3219 C   0  0  0  0  0  0  0  0  0  0  0  0
   14.5696   12.2017   12.1258 C   0  0  0  0  0  0  0  0  0  0  0  0
   13.3252   12.6825   11.3622 C   0  0  0  0  0  0  0  0  0  0  0  0
   16.0276   13.8821   10.8717 C   0  0  0  0  0  0  0  0  0  0  0  0
   14.7303   14.4180   10.2951 C   0  0  0  0  0  0  0  0  0  0  0  0
   13.4963   14.1470   11.1275 N   0  0  0  0  0  0  0  0  0  0  0  0
   16.9476   11.9950   12.2274 N   0  0  0  0  0  0  0  0  0  0  0  0
   17.0805   12.4651   13.0821 H   0  0  0  0  0  0  0  0  0  0  0  0
   18.3860    8.6865   11.8211 C   0  0  0  0  0  0  0  0  0  0  0  0
   17.4876    9.6490   12.2129 C   0  0  0  0  0  0  0  0  0  0  0  0
   17.7777   10.9706   11.8859 C   0  0  0  0  0  0  0  0  0  0  0  0
   18.9608   11.2891   11.2677 N   0  0  0  0  0  0  0  0  0  0  0  0
   19.5512    8.9731   11.1722 N   0  0  0  0  0  0  0  0  0  0  0  0
   16.4486    7.7419   12.9863 C   0  0  0  0  0  0  0  0  0  0  0  0
   17.8206    7.0945   12.2399 S   0  0  0  0  0  0  0  0  0  0  0  0
   16.4134    9.1073   12.8499 C   0  0  0  0  0  0  0  0  0  0  0  0
   19.8300   10.2931   10.8539 C   0  0  0  0  0  0  0  0  0  0  0  0
   15.3642    6.9214   13.6605 C   0  0  0  0  0  0  0  0  0  0  0  0
   13.6339    8.3099   12.8721 F   0  0  0  0  0  0  0  0  0  0  0  0
   14.0548    7.0584   12.8876 C   0  0  0  0  0  0  0  0  0  0  0  0
   14.2427    6.6693   11.6234 F   0  0  0  0  0  0  0  0  0  0  0  0
   13.1266    6.3112   13.4301 F   0  0  0  0  0  0  0  0  0  0  0  0
   12.3301   14.7195   10.3766 C   0  0  0  0  0  0  0  0  0  0  0  0
   11.4631   15.5657   11.2167 C   0  0  0  0  0  0  0  0  0  0  0  0
   11.6779   16.9593   11.3493 C   0  0  0  0  0  0  0  0  0  0  0  0
   10.9021   17.7136   12.1855 C   0  0  0  0  0  0  0  0  0  0  0  0
   10.9009   19.0496   12.4608 C   0  0  0  0  0  0  0  0  0  0  0  0
    9.8979   19.2744   13.3297 C   0  0  0  0  0  0  0  0  0  0  0  0
    9.2715   18.1563   13.5742 N   0  0  0  0  0  0  0  0  0  0  0  0
    9.8876   17.1832   12.8793 C   0  0  0  0  0  0  0  0  0  0  0  0
    9.6199   15.8450   12.7941 C   0  0  0  0  0  0  0  0  0  0  0  0
   10.4150   15.0109   12.0009 C   0  0  0  0  0  0  0  0  0  0  0  0
    8.4891   18.0449   14.1613 H   0  0  0  0  0  0  0  0  0  0  0  0
    9.4564   20.4596   13.9481 C   0  0  0  0  0  0  0  0  0  0  0  0
    9.1244   21.4164   14.4163 N   0  0  0  0  0  0  0  0  0  0  0  0
  5  4  1  0  0  0
  5  6  1  0  0  0
  4  1  1  0  0  0
 23  6  1  0  0  0
 23 24  1  0  0  0
  6  3  1  0  0  0
 22 20  1  0  0  0
 24 32  2  0  0  0
 24 25  1  0  0  0
 32 31  1  0  0  0
  1  7  1  0  0  0
  1  2  1  0  0  0
 12 17  2  0  0  0
 12 11  1  0  0  0
 25 26  2  0  0  0
  7 11  1  0  0  0
 21 20  1  0  0  0
 17 13  1  0  0  0
 11 10  2  0  0  0
 31 30  2  0  0  0
  3  2  1  0  0  0
 20 19  1  0  0  0
 20 18  1  0  0  0
 13  9  2  0  0  0
 10  9  1  0  0  0
 10 16  1  0  0  0
  9 15  1  0  0  0
 26 30  1  0  0  0
 26 27  1  0  0  0
 16 14  2  0  0  0
 30 29  1  0  0  0
 14 15  1  0  0  0
 14 18  1  0  0  0
 27 28  2  0  0  0
 29 28  1  0  0  0
 28 34  1  0  0  0
 34 35  3  0  0  0
  7  8  1  0  0  0
 29 33  1  0  0  0
M  END
> <minimizedAffinity>
-8.23799

$$$$
4X5Z_3XY_A_605


 35 39  0  0  0  0  0  0  0  0999 V2000
   12.6415   12.1416   11.5235 C   0  0  0  0  0  0  0  0  0  0  0  0
   12.5649   13.2598   10.4986 C   0  0  0  0  0  0  0  0  0  0  0  0
   12.3008   14.6225   11.1591 C   0  0  0  0  0  0  0  0  0  0  0  0
   11.3797   12.0638   12.4189 C   0  0  0  0  0  0  0  0  0  0  0  0
   11.0056   13.4494   12.9115 C   0  0  0  0  0  0  0  0  0  0  0  0
   10.9797   14.5248   11.8476 N   0  0  0  0  0  0  0  0  0  0  0  0
   12.7979   10.8930   10.7266 N   0  0  0  0  0  0  0  0  0  0  0  0
   13.0378   10.9505    9.7735 H   0  0  0  0  0  0  0  0  0  0  0  0
   13.3637    7.7653   12.4809 C   0  0  0  0  0  0  0  0  0  0  0  0
   13.6517    8.9888   11.9268 C   0  0  0  0  0  0  0  0  0  0  0  0
   12.6124    9.6726   11.3021 C   0  0  0  0  0  0  0  0  0  0  0  0
   11.3738    9.0939   11.1824 N   0  0  0  0  0  0  0  0  0  0  0  0
   12.1312    7.1848   12.4084 N   0  0  0  0  0  0  0  0  0  0  0  0
   15.7026    8.4165   12.8104 C   0  0  0  0  0  0  0  0  0  0  0  0
   14.7554    7.0994   13.2866 S   0  0  0  0  0  0  0  0  0  0  0  0
   14.9516    9.3399   12.1267 C   0  0  0  0  0  0  0  0  0  0  0  0
   11.1049    7.8745   11.7820 C   0  0  0  0  0  0  0  0  0  0  0  0
   17.1720    8.5904   13.1487 C   0  0  0  0  0  0  0  0  0  0  0  0
   19.2710    8.2176   12.1493 F   0  0  0  0  0  0  0  0  0  0  0  0
   18.0265    7.7772   12.1795 C   0  0  0  0  0  0  0  0  0  0  0  0
   18.0488    6.5001   12.5714 F   0  0  0  0  0  0  0  0  0  0  0  0
   17.5295    7.8433   10.9701 F   0  0  0  0  0  0  0  0  0  0  0  0
   10.6266   15.8104   12.5364 C   0  0  0  0  0  0  0  0  0  0  0  0
    9.4044   16.4355   11.9986 C   0  0  0  0  0  0  0  0  0  0  0  0
    9.1320   16.4743   10.6094 C   0  0  0  0  0  0  0  0  0  0  0  0
    8.0250   17.1171   10.1280 C   0  0  0  0  0  0  0  0  0  0  0  0
    7.5459   17.2698    8.8600 C   0  0  0  0  0  0  0  0  0  0  0  0
    6.3930   17.9581    8.9522 C   0  0  0  0  0  0  0  0  0  0  0  0
    6.1298   18.2058   10.2058 N   0  0  0  0  0  0  0  0  0  0  0  0
    7.1349   17.6981   10.9416 C   0  0  0  0  0  0  0  0  0  0  0  0
    7.3323   17.6932   12.2946 C   0  0  0  0  0  0  0  0  0  0  0  0
    8.4757   17.1028   12.8432 C   0  0  0  0  0  0  0  0  0  0  0  0
    5.3384   18.6788   10.5510 H   0  0  0  0  0  0  0  0  0  0  0  0
    5.4948   18.3974    7.9610 C   0  0  0  0  0  0  0  0  0  0  0  0
    4.7679   18.7646    7.1983 N   0  0  0  0  0  0  0  0  0  0  0  0
  5  4  1  0  0  0
  5  6  1  0  0  0
  4  1  1  0  0  0
 23  6  1  0  0  0
 23 24  1  0  0  0
  6  3  1  0  0  0
 22 20  1  0  0  0
 24 32  2  0  0  0
 24 25  1  0  0  0
 32 31  1  0  0  0
  1  7  1  0  0  0
  1  2  1  0  0  0
 12 17  2  0  0  0
 12 11  1  0  0  0
 25 26  2  0  0  0
  7 11  1  0  0  0
 21 20  1  0  0  0
 17 13  1  0  0  0
 11 10  2  0  0  0
 31 30  2  0  0  0
  3  2  1  0  0  0
 20 19  1  0  0  0
 20 18  1  0  0  0
 13  9  2  0  0  0
 10  9  1  0  0  0
 10 16  1  0  0  0
  9 15  1  0  0  0
 26 30  1  0  0  0
 26 27  1  0  0  0
 16 14  2  0  0  0
 30 29  1  0  0  0
 14 15  1  0  0  0
 14 18  1  0  0  0
 27 28  2  0  0  0
 29 28  1  0  0  0
 28 34  1  0  0  0
 34 35  3  0  0  0
  7  8  1  0  0  0
 29 33  1  0  0  0
M  END
> <minimizedAffinity>
-8.19124

$$$$
4X5Z_3XY_A_605


 35 39  0  0  0  0  0  0  0  0999 V2000
   14.2017   13.2295   11.5514 C   0  0  0  0  0  0  0  0  0  0  0  0
   13.0710   12.6805   12.4040 C   0  0  0  0  0  0  0  0  0  0  0  0
   11.6933   13.0264   11.8166 C   0  0  0  0  0  0  0  0  0  0  0  0
   14.0893   14.7573   11.3212 C   0  0  0  0  0  0  0  0  0  0  0  0
   12.6689   15.1212   10.9305 C   0  0  0  0  0  0  0  0  0  0  0  0
   11.5881   14.5156   11.7989 N   0  0  0  0  0  0  0  0  0  0  0  0
   15.4476   12.9012   12.2986 N   0  0  0  0  0  0  0  0  0  0  0  0
   15.5237   13.1448   13.2495 H   0  0  0  0  0  0  0  0  0  0  0  0
   17.7658   10.3522   11.1546 C   0  0  0  0  0  0  0  0  0  0  0  0
   16.6962   10.8992   11.8206 C   0  0  0  0  0  0  0  0  0  0  0  0
   16.4829   12.2677   11.6807 C   0  0  0  0  0  0  0  0  0  0  0  0
   17.3659   13.0384   10.9667 N   0  0  0  0  0  0  0  0  0  0  0  0
   18.6367   11.0905   10.4077 N   0  0  0  0  0  0  0  0  0  0  0  0
   16.4834    8.6787   12.4027 C   0  0  0  0  0  0  0  0  0  0  0  0
   17.8267    8.6271   11.3773 S   0  0  0  0  0  0  0  0  0  0  0  0
   15.9893    9.9555   12.5009 C   0  0  0  0  0  0  0  0  0  0  0  0
   18.4150   12.4526   10.2775 C   0  0  0  0  0  0  0  0  0  0  0  0
   15.8629    7.4673   13.0745 C   0  0  0  0  0  0  0  0  0  0  0  0
   13.5919    8.0197   12.7906 F   0  0  0  0  0  0  0  0  0  0  0  0
   14.5167    7.1495   12.4285 C   0  0  0  0  0  0  0  0  0  0  0  0
   14.6382    7.2039   11.0991 F   0  0  0  0  0  0  0  0  0  0  0  0
   14.1200    5.9498   12.7715 F   0  0  0  0  0  0  0  0  0  0  0  0
   10.2725   14.9632   11.2325 C   0  0  0  0  0  0  0  0  0  0  0  0
    9.7247   16.1494   11.9156 C   0  0  0  0  0  0  0  0  0  0  0  0
    9.7201   17.4284   11.3076 C   0  0  0  0  0  0  0  0  0  0  0  0
    9.2675   18.5269   11.9849 C   0  0  0  0  0  0  0  0  0  0  0  0
    9.1457   19.8337   11.6132 C   0  0  0  0  0  0  0  0  0  0  0  0
    8.6030   20.4928   12.6537 C   0  0  0  0  0  0  0  0  0  0  0  0
    8.3608   19.6553   13.6244 N   0  0  0  0  0  0  0  0  0  0  0  0
    8.7744   18.4388   13.2262 C   0  0  0  0  0  0  0  0  0  0  0  0
    8.7432   17.2336   13.8712 C   0  0  0  0  0  0  0  0  0  0  0  0
    9.2461   16.0840   13.2527 C   0  0  0  0  0  0  0  0  0  0  0  0
    7.9496   19.8742   14.4917 H   0  0  0  0  0  0  0  0  0  0  0  0
    8.2713   21.8511   12.8184 C   0  0  0  0  0  0  0  0  0  0  0  0
    7.9764   22.9189   12.9511 N   0  0  0  0  0  0  0  0  0  0  0  0
  5  4  1  0  0  0
  5  6  1  0  0  0
  4  1  1  0  0  0
 23  6  1  0  0  0
 23 24  1  0  0  0
  6  3  1  0  0  0
 22 20  1  0  0  0
 24 32  2  0  0  0
 24 25  1  0  0  0
 32 31  1  0  0  0
  1  7  1  0  0  0
  1  2  1  0  0  0
 12 17  2  0  0  0
 12 11  1  0  0  0
 25 26  2  0  0  0
  7 11  1  0  0  0
 21 20  1  0  0  0
 17 13  1  0  0  0
 11 10  2  0  0  0
 31 30  2  0  0  0
  3  2  1  0  0  0
 20 19  1  0  0  0
 20 18  1  0  0  0
 13  9  2  0  0  0
 10  9  1  0  0  0
 10 16  1  0  0  0
  9 15  1  0  0  0
 26 30  1  0  0  0
 26 27  1  0  0  0
 16 14  2  0  0  0
 30 29  1  0  0  0
 14 15  1  0  0  0
 14 18  1  0  0  0
 27 28  2  0  0  0
 29 28  1  0  0  0
 28 34  1  0  0  0
 34 35  3  0  0  0
  7  8  1  0  0  0
 29 33  1  0  0  0
M  END
> <minimizedAffinity>
-8.14294

$$$$
4X5Z_3XY_A_605


 35 39  0  0  0  0  0  0  0  0999 V2000
   11.4040   12.2058   10.6534 C   0  0  0  0  0  0  0  0  0  0  0  0
   12.8432   12.1866   10.1688 C   0  0  0  0  0  0  0  0  0  0  0  0
   13.3013   10.7675    9.7959 C   0  0  0  0  0  0  0  0  0  0  0  0
   11.1593   11.2387   11.8387 C   0  0  0  0  0  0  0  0  0  0  0  0
   11.7888    9.8891   11.5470 C   0  0  0  0  0  0  0  0  0  0  0  0
   13.2119    9.9405   11.0358 N   0  0  0  0  0  0  0  0  0  0  0  0
   11.1501   13.6148   11.0642 N   0  0  0  0  0  0  0  0  0  0  0  0
   11.6785   14.0121   11.7937 H   0  0  0  0  0  0  0  0  0  0  0  0
    8.6853   16.1761   10.3262 C   0  0  0  0  0  0  0  0  0  0  0  0
    9.6400   15.4895   11.0361 C   0  0  0  0  0  0  0  0  0  0  0  0
   10.1948   14.3596   10.4416 C   0  0  0  0  0  0  0  0  0  0  0  0
    9.7338   13.9171    9.2270 N   0  0  0  0  0  0  0  0  0  0  0  0
    8.2368   15.7784    9.1007 N   0  0  0  0  0  0  0  0  0  0  0  0
    9.1706   17.2144   12.4917 C   0  0  0  0  0  0  0  0  0  0  0  0
    8.1687   17.5990   11.1852 S   0  0  0  0  0  0  0  0  0  0  0  0
    9.9047   16.0841   12.2316 C   0  0  0  0  0  0  0  0  0  0  0  0
    8.7953   14.6505    8.5199 C   0  0  0  0  0  0  0  0  0  0  0  0
    9.2941   18.0421   13.7580 C   0  0  0  0  0  0  0  0  0  0  0  0
   11.0904   18.8958   12.4977 F   0  0  0  0  0  0  0  0  0  0  0  0
   10.3499   19.1281   13.5660 C   0  0  0  0  0  0  0  0  0  0  0  0
    9.7473   20.3093   13.4030 F   0  0  0  0  0  0  0  0  0  0  0  0
   11.1335   19.1902   14.6131 F   0  0  0  0  0  0  0  0  0  0  0  0
   13.6336    8.5236   10.7784 C   0  0  0  0  0  0  0  0  0  0  0  0
   15.0158    8.2462   11.2100 C   0  0  0  0  0  0  0  0  0  0  0  0
   16.1226    8.9507   10.6768 C   0  0  0  0  0  0  0  0  0  0  0  0
   17.4011    8.6318   11.0428 C   0  0  0  0  0  0  0  0  0  0  0  0
   18.6048    9.1685   10.6909 C   0  0  0  0  0  0  0  0  0  0  0  0
   19.5517    8.5019   11.3767 C   0  0  0  0  0  0  0  0  0  0  0  0
   18.9895    7.6116   12.1471 N   0  0  0  0  0  0  0  0  0  0  0  0
   17.6614    7.6767   11.9438 C   0  0  0  0  0  0  0  0  0  0  0  0
   16.6398    6.9607   12.5035 C   0  0  0  0  0  0  0  0  0  0  0  0
   15.3144    7.2005   12.1256 C   0  0  0  0  0  0  0  0  0  0  0  0
   19.4535    7.0022   12.7655 H   0  0  0  0  0  0  0  0  0  0  0  0
   20.9533    8.6350   11.3884 C   0  0  0  0  0  0  0  0  0  0  0  0
   22.0603    8.7733   11.4022 N   0  0  0  0  0  0  0  0  0  0  0  0
  5  4  1  0  0  0
  5  6  1  0  0  0
  4  1  1  0  0  0
 23  6  1  0  0  0
 23 24  1  0  0  0
  6  3  1  0  0  0
 22 20  1  0  0  0
 24 32  2  0  0  0
 24 25  1  0  0  0
 32 31  1  0  0  0
  1  7  1  0  0  0
  1  2  1  0  0  0
 12 17  2  0  0  0
 12 11  1  0  0  0
 25 26  2  0  0  0
  7 11  1  0  0  0
 21 20  1  0  0  0
 17 13  1  0  0  0
 11 10  2  0  0  0
 31 30  2  0  0  0
  3  2  1  0  0  0
 20 19  1  0  0  0
 20 18  1  0  0  0
 13  9  2  0  0  0
 10  9  1  0  0  0
 10 16  1  0  0  0
  9 15  1  0  0  0
 26 30  1  0  0  0
 26 27  1  0  0  0
 16 14  2  0  0  0
 30 29  1  0  0  0
 14 15  1  0  0  0
 14 18  1  0  0  0
 27 28  2  0  0  0
 29 28  1  0  0  0
 28 34  1  0  0  0
 34 35  3  0  0  0
  7  8  1  0  0  0
 29 33  1  0  0  0
M  END
> <minimizedAffinity>
-8.06430

$$$$
4X5Z_3XY_A_605


 35 39  0  0  0  0  0  0  0  0999 V2000
   11.2033   11.5465    9.7771 C   0  0  0  0  0  0  0  0  0  0  0  0
   12.0989   10.5715    9.0328 C   0  0  0  0  0  0  0  0  0  0  0  0
   12.2939    9.2633    9.8161 C   0  0  0  0  0  0  0  0  0  0  0  0
   11.7124   11.8533   11.2076 C   0  0  0  0  0  0  0  0  0  0  0  0
   12.0924   10.5640   11.9120 C   0  0  0  0  0  0  0  0  0  0  0  0
   12.9576    9.6213   11.1046 N   0  0  0  0  0  0  0  0  0  0  0  0
   11.1971   12.7822    8.9455 N   0  0  0  0  0  0  0  0  0  0  0  0
   12.0491   13.1598    8.6282 H   0  0  0  0  0  0  0  0  0  0  0  0
    8.3817   15.0736    8.8893 C   0  0  0  0  0  0  0  0  0  0  0  0
    9.5743   14.5257    9.2950 C   0  0  0  0  0  0  0  0  0  0  0  0
   10.0255   13.3953    8.6193 C   0  0  0  0  0  0  0  0  0  0  0  0
    9.2546   12.8167    7.6424 N   0  0  0  0  0  0  0  0  0  0  0  0
    7.6147   14.5395    7.8956 N   0  0  0  0  0  0  0  0  0  0  0  0
    9.4133   16.3271   10.7245 C   0  0  0  0  0  0  0  0  0  0  0  0
    8.0199   16.5205    9.7865 S   0  0  0  0  0  0  0  0  0  0  0  0
   10.1386   15.2387   10.3080 C   0  0  0  0  0  0  0  0  0  0  0  0
    8.0736   13.4126    7.2315 C   0  0  0  0  0  0  0  0  0  0  0  0
    9.8431   17.2668   11.8362 C   0  0  0  0  0  0  0  0  0  0  0  0
    9.5690   17.6078   14.1497 F   0  0  0  0  0  0  0  0  0  0  0  0
    9.1035   16.9170   13.1252 C   0  0  0  0  0  0  0  0  0  0  0  0
    7.8068   17.2067   12.9857 F   0  0  0  0  0  0  0  0  0  0  0  0
    9.2291   15.6407   13.3891 F   0  0  0  0  0  0  0  0  0  0  0  0
   13.1896    8.4070   11.9551 C   0  0  0  0  0  0  0  0  0  0  0  0
   14.6193    8.1063   12.1527 C   0  0  0  0  0  0  0  0  0  0  0  0
   15.6371    8.8476   11.5045 C   0  0  0  0  0  0  0  0  0  0  0  0
   16.9542    8.5096   11.6505 C   0  0  0  0  0  0  0  0  0  0  0  0
   18.0941    9.0719   11.1554 C   0  0  0  0  0  0  0  0  0  0  0  0
   19.1297    8.3648   11.6444 C   0  0  0  0  0  0  0  0  0  0  0  0
   18.6849    7.4243   12.4317 N   0  0  0  0  0  0  0  0  0  0  0  0
   17.3417    7.4984   12.4373 C   0  0  0  0  0  0  0  0  0  0  0  0
   16.4121    6.7440   13.0979 C   0  0  0  0  0  0  0  0  0  0  0  0
   15.0464    7.0039   12.9422 C   0  0  0  0  0  0  0  0  0  0  0  0
   19.2332    6.7772   12.9314 H   0  0  0  0  0  0  0  0  0  0  0  0
   20.5176    8.5013   11.4517 C   0  0  0  0  0  0  0  0  0  0  0  0
   21.6155    8.5888   11.2729 N   0  0  0  0  0  0  0  0  0  0  0  0
  5  4  1  0  0  0
  5  6  1  0  0  0
  4  1  1  0  0  0
 23  6  1  0  0  0
 23 24  1  0  0  0
  6  3  1  0  0  0
 22 20  1  0  0  0
 24 32  2  0  0  0
 24 25  1  0  0  0
 32 31  1  0  0  0
  1  7  1  0  0  0
  1  2  1  0  0  0
 12 17  2  0  0  0
 12 11  1  0  0  0
 25 26  2  0  0  0
  7 11  1  0  0  0
 21 20  1  0  0  0
 17 13  1  0  0  0
 11 10  2  0  0  0
 31 30  2  0  0  0
  3  2  1  0  0  0
 20 19  1  0  0  0
 20 18  1  0  0  0
 13  9  2  0  0  0
 10  9  1  0  0  0
 10 16  1  0  0  0
  9 15  1  0  0  0
 26 30  1  0  0  0
 26 27  1  0  0  0
 16 14  2  0  0  0
 30 29  1  0  0  0
 14 15  1  0  0  0
 14 18  1  0  0  0
 27 28  2  0  0  0
 29 28  1  0  0  0
 28 34  1  0  0  0
 34 35  3  0  0  0
  7  8  1  0  0  0
 29 33  1  0  0  0
M  END
> <minimizedAffinity>
-8.05161

$$$$
4X5Z_3XY_A_605


 35 39  0  0  0  0  0  0  0  0999 V2000
   11.7616   12.8096   10.6799 C   0  0  0  0  0  0  0  0  0  0  0  0
   12.1471   13.1453   12.1100 C   0  0  0  0  0  0  0  0  0  0  0  0
   10.9800   13.7822   12.8814 C   0  0  0  0  0  0  0  0  0  0  0  0
   11.2163   14.0347    9.9043 C   0  0  0  0  0  0  0  0  0  0  0  0
   10.2020   14.7783   10.7536 C   0  0  0  0  0  0  0  0  0  0  0  0
   10.6335   15.0524   12.1776 N   0  0  0  0  0  0  0  0  0  0  0  0
   13.0116   12.3022   10.0485 N   0  0  0  0  0  0  0  0  0  0  0  0
   13.8665   12.7563   10.2275 H   0  0  0  0  0  0  0  0  0  0  0  0
   13.0364    8.8896    8.8100 C   0  0  0  0  0  0  0  0  0  0  0  0
   13.0765    9.9182    9.7195 C   0  0  0  0  0  0  0  0  0  0  0  0
   12.9846   11.2167    9.2263 C   0  0  0  0  0  0  0  0  0  0  0  0
   12.9389   11.4438    7.8735 N   0  0  0  0  0  0  0  0  0  0  0  0
   12.9534    9.0874    7.4628 N   0  0  0  0  0  0  0  0  0  0  0  0
   13.2230    8.0924   11.1193 C   0  0  0  0  0  0  0  0  0  0  0  0
   13.0794    7.3443    9.6099 S   0  0  0  0  0  0  0  0  0  0  0  0
   13.1706    9.4586   10.9974 C   0  0  0  0  0  0  0  0  0  0  0  0
   12.8646   10.3850    6.9835 C   0  0  0  0  0  0  0  0  0  0  0  0
   13.3291    7.3551   12.4418 C   0  0  0  0  0  0  0  0  0  0  0  0
   15.5922    7.1086   11.8407 F   0  0  0  0  0  0  0  0  0  0  0  0
   14.7906    7.2782   12.8763 C   0  0  0  0  0  0  0  0  0  0  0  0
   15.1340    8.4179   13.4831 F   0  0  0  0  0  0  0  0  0  0  0  0
   14.9655    6.2827   13.7086 F   0  0  0  0  0  0  0  0  0  0  0  0
    9.4915   15.7557   12.8508 C   0  0  0  0  0  0  0  0  0  0  0  0
    9.6237   17.2238   12.8259 C   0  0  0  0  0  0  0  0  0  0  0  0
    8.5051   18.0793   12.9766 C   0  0  0  0  0  0  0  0  0  0  0  0
    8.6412   19.4369   12.8844 C   0  0  0  0  0  0  0  0  0  0  0  0
    7.7355   20.4489   13.0125 C   0  0  0  0  0  0  0  0  0  0  0  0
    8.4099   21.6048   12.8688 C   0  0  0  0  0  0  0  0  0  0  0  0
    9.6776   21.3530   12.6907 N   0  0  0  0  0  0  0  0  0  0  0  0
    9.8319   20.0167   12.6903 C   0  0  0  0  0  0  0  0  0  0  0  0
   10.9551   19.2512   12.5423 C   0  0  0  0  0  0  0  0  0  0  0  0
   10.8713   17.8550   12.5684 C   0  0  0  0  0  0  0  0  0  0  0  0
   10.3922   22.0206   12.5771 H   0  0  0  0  0  0  0  0  0  0  0  0
    7.9719   22.9425   12.8993 C   0  0  0  0  0  0  0  0  0  0  0  0
    7.5972   23.9934   12.9073 N   0  0  0  0  0  0  0  0  0  0  0  0
  5  4  1  0  0  0
  5  6  1  0  0  0
  4  1  1  0  0  0
 23  6  1  0  0  0
 23 24  1  0  0  0
  6  3  1  0  0  0
 22 20  1  0  0  0
 24 32  2  0  0  0
 24 25  1  0  0  0
 32 31  1  0  0  0
  1  7  1  0  0  0
  1  2  1  0  0  0
 12 17  2  0  0  0
 12 11  1  0  0  0
 25 26  2  0  0  0
  7 11  1  0  0  0
 21 20  1  0  0  0
 17 13  1  0  0  0
 11 10  2  0  0  0
 31 30  2  0  0  0
  3  2  1  0  0  0
 20 19  1  0  0  0
 20 18  1  0  0  0
 13  9  2  0  0  0
 10  9  1  0  0  0
 10 16  1  0  0  0
  9 15  1  0  0  0
 26 30  1  0  0  0
 26 27  1  0  0  0
 16 14  2  0  0  0
 30 29  1  0  0  0
 14 15  1  0  0  0
 14 18  1  0  0  0
 27 28  2  0  0  0
 29 28  1  0  0  0
 28 34  1  0  0  0
 34 35  3  0  0  0
  7  8  1  0  0  0
 29 33  1  0  0  0
M  END
> <minimizedAffinity>
-7.96774

$$$$
4X5Z_3XY_A_605


 35 39  0  0  0  0  0  0  0  0999 V2000
   10.2408   17.0662   12.5951 C   0  0  0  0  0  0  0  0  0  0  0  0
    9.9145   15.5953   12.7865 C   0  0  0  0  0  0  0  0  0  0  0  0
   10.9818   14.6869   12.1554 C   0  0  0  0  0  0  0  0  0  0  0  0
   10.4491   17.4437   11.1072 C   0  0  0  0  0  0  0  0  0  0  0  0
   11.3516   16.4263   10.4341 C   0  0  0  0  0  0  0  0  0  0  0  0
   10.9930   14.9791   10.6913 N   0  0  0  0  0  0  0  0  0  0  0  0
    9.0772   17.8006   13.1654 N   0  0  0  0  0  0  0  0  0  0  0  0
    8.9874   17.8877   14.1419 H   0  0  0  0  0  0  0  0  0  0  0  0
    7.0412   20.1911   11.3431 C   0  0  0  0  0  0  0  0  0  0  0  0
    8.0200   19.7310   12.1899 C   0  0  0  0  0  0  0  0  0  0  0  0
    8.1361   18.3532   12.3505 C   0  0  0  0  0  0  0  0  0  0  0  0
    7.2446   17.5059   11.7415 N   0  0  0  0  0  0  0  0  0  0  0  0
    6.1665   19.3678   10.6964 N   0  0  0  0  0  0  0  0  0  0  0  0
    8.3648   22.0067   12.3201 C   0  0  0  0  0  0  0  0  0  0  0  0
    7.0989   21.9250   11.2023 S   0  0  0  0  0  0  0  0  0  0  0  0
    8.7519   20.7509   12.7166 C   0  0  0  0  0  0  0  0  0  0  0  0
    6.2907   17.9977   10.8658 C   0  0  0  0  0  0  0  0  0  0  0  0
    9.0317   23.2915   12.7768 C   0  0  0  0  0  0  0  0  0  0  0  0
    7.1607   23.5042   14.1901 F   0  0  0  0  0  0  0  0  0  0  0  0
    8.4620   23.7193   14.1270 C   0  0  0  0  0  0  0  0  0  0  0  0
    9.0459   23.0130   15.0992 F   0  0  0  0  0  0  0  0  0  0  0  0
    8.6862   24.9929   14.3318 F   0  0  0  0  0  0  0  0  0  0  0  0
   12.0136   14.1437    9.9757 C   0  0  0  0  0  0  0  0  0  0  0  0
   11.8966   12.7057   10.2791 C   0  0  0  0  0  0  0  0  0  0  0  0
   12.8644   12.0228   11.0553 C   0  0  0  0  0  0  0  0  0  0  0  0
   12.7706   10.6753   11.2691 C   0  0  0  0  0  0  0  0  0  0  0  0
   13.5507    9.8150   11.9847 C   0  0  0  0  0  0  0  0  0  0  0  0
   12.9820    8.5982   11.8974 C   0  0  0  0  0  0  0  0  0  0  0  0
   11.8855    8.6767   11.1947 N   0  0  0  0  0  0  0  0  0  0  0  0
   11.7482    9.9535   10.7941 C   0  0  0  0  0  0  0  0  0  0  0  0
   10.7748   10.5497   10.0414 C   0  0  0  0  0  0  0  0  0  0  0  0
   10.8466   11.9137    9.7392 C   0  0  0  0  0  0  0  0  0  0  0  0
   11.2697    7.9352   10.9939 H   0  0  0  0  0  0  0  0  0  0  0  0
   13.3686    7.3547   12.4324 C   0  0  0  0  0  0  0  0  0  0  0  0
   13.6742    6.3563   12.8257 N   0  0  0  0  0  0  0  0  0  0  0  0
  5  4  1  0  0  0
  5  6  1  0  0  0
  4  1  1  0  0  0
 23  6  1  0  0  0
 23 24  1  0  0  0
  6  3  1  0  0  0
 22 20  1  0  0  0
 24 32  2  0  0  0
 24 25  1  0  0  0
 32 31  1  0  0  0
  1  7  1  0  0  0
  1  2  1  0  0  0
 12 17  2  0  0  0
 12 11  1  0  0  0
 25 26  2  0  0  0
  7 11  1  0  0  0
 21 20  1  0  0  0
 17 13  1  0  0  0
 11 10  2  0  0  0
 31 30  2  0  0  0
  3  2  1  0  0  0
 20 19  1  0  0  0
 20 18  1  0  0  0
 13  9  2  0  0  0
 10  9  1  0  0  0
 10 16  1  0  0  0
  9 15  1  0  0  0
 26 30  1  0  0  0
 26 27  1  0  0  0
 16 14  2  0  0  0
 30 29  1  0  0  0
 14 15  1  0  0  0
 14 18  1  0  0  0
 27 28  2  0  0  0
 29 28  1  0  0  0
 28 34  1  0  0  0
 34 35  3  0  0  0
  7  8  1  0  0  0
 29 33  1  0  0  0
M  END
> <minimizedAffinity>
-7.70080

$$$$
4X5Z_3XY_A_605


 35 39  0  0  0  0  0  0  0  0999 V2000
   17.0924   11.6061    9.5131 C   0  0  0  0  0  0  0  0  0  0  0  0
   15.6610   11.8452    9.0653 C   0  0  0  0  0  0  0  0  0  0  0  0
   15.2190   13.2958    9.3162 C   0  0  0  0  0  0  0  0  0  0  0  0
   17.3259   11.9847   10.9970 C   0  0  0  0  0  0  0  0  0  0  0  0
   16.7107   13.3405   11.2906 C   0  0  0  0  0  0  0  0  0  0  0  0
   15.2954   13.5265   10.7893 N   0  0  0  0  0  0  0  0  0  0  0  0
   17.3297   10.1514    9.2986 N   0  0  0  0  0  0  0  0  0  0  0  0
   17.0499    9.7318    8.4531 H   0  0  0  0  0  0  0  0  0  0  0  0
   17.8973    7.8281   12.0300 C   0  0  0  0  0  0  0  0  0  0  0  0
   17.2005    8.5527   11.0939 C   0  0  0  0  0  0  0  0  0  0  0  0
   17.9296    9.3953   10.2596 C   0  0  0  0  0  0  0  0  0  0  0  0
   19.2825    9.5450   10.4351 N   0  0  0  0  0  0  0  0  0  0  0  0
   19.2471    7.9306   12.1997 N   0  0  0  0  0  0  0  0  0  0  0  0
   15.4916    7.3671   12.0883 C   0  0  0  0  0  0  0  0  0  0  0  0
   16.8378    6.7735   12.9215 S   0  0  0  0  0  0  0  0  0  0  0  0
   15.8678    8.2781   11.1330 C   0  0  0  0  0  0  0  0  0  0  0  0
   19.9620    8.7746   11.3643 C   0  0  0  0  0  0  0  0  0  0  0  0
   14.0631    6.9079   12.3172 C   0  0  0  0  0  0  0  0  0  0  0  0
   13.6256    9.2037   12.6030 F   0  0  0  0  0  0  0  0  0  0  0  0
   13.1058    8.0833   12.1359 C   0  0  0  0  0  0  0  0  0  0  0  0
   12.8545    8.2546   10.8350 F   0  0  0  0  0  0  0  0  0  0  0  0
   11.9789    7.8520   12.7610 F   0  0  0  0  0  0  0  0  0  0  0  0
   14.8880   14.9263   11.1446 C   0  0  0  0  0  0  0  0  0  0  0  0
   13.4620   15.0384   11.5018 C   0  0  0  0  0  0  0  0  0  0  0  0
   12.7550   16.2603   11.3877 C   0  0  0  0  0  0  0  0  0  0  0  0
   11.4506   16.3574   11.7869 C   0  0  0  0  0  0  0  0  0  0  0  0
   10.5692   17.3981   11.7572 C   0  0  0  0  0  0  0  0  0  0  0  0
    9.3980   16.9393   12.2359 C   0  0  0  0  0  0  0  0  0  0  0  0
    9.5097   15.6723   12.5263 N   0  0  0  0  0  0  0  0  0  0  0  0
   10.7757   15.3031   12.2607 C   0  0  0  0  0  0  0  0  0  0  0  0
   11.3948   14.0910   12.3922 C   0  0  0  0  0  0  0  0  0  0  0  0
   12.7447   13.9431   12.0558 C   0  0  0  0  0  0  0  0  0  0  0  0
    8.7963   15.0912   12.8765 H   0  0  0  0  0  0  0  0  0  0  0  0
    8.1622   17.5840   12.4341 C   0  0  0  0  0  0  0  0  0  0  0  0
    7.1796   18.0788   12.6202 N   0  0  0  0  0  0  0  0  0  0  0  0
  5  4  1  0  0  0
  5  6  1  0  0  0
  4  1  1  0  0  0
 23  6  1  0  0  0
 23 24  1  0  0  0
  6  3  1  0  0  0
 22 20  1  0  0  0
 24 32  2  0  0  0
 24 25  1  0  0  0
 32 31  1  0  0  0
  1  7  1  0  0  0
  1  2  1  0  0  0
 12 17  2  0  0  0
 12 11  1  0  0  0
 25 26  2  0  0  0
  7 11  1  0  0  0
 21 20  1  0  0  0
 17 13  1  0  0  0
 11 10  2  0  0  0
 31 30  2  0  0  0
  3  2  1  0  0  0
 20 19  1  0  0  0
 20 18  1  0  0  0
 13  9  2  0  0  0
 10  9  1  0  0  0
 10 16  1  0  0  0
  9 15  1  0  0  0
 26 30  1  0  0  0
 26 27  1  0  0  0
 16 14  2  0  0  0
 30 29  1  0  0  0
 14 15  1  0  0  0
 14 18  1  0  0  0
 27 28  2  0  0  0
 29 28  1  0  0  0
 28 34  1  0  0  0
 34 35  3  0  0  0
  7  8  1  0  0  0
 29 33  1  0  0  0
M  END
> <minimizedAffinity>
-7.42496

$$$$
4X5Z_3XY_A_605


 35 39  0  0  0  0  0  0  0  0999 V2000
   11.7905   12.6963   10.6890 C   0  0  0  0  0  0  0  0  0  0  0  0
   12.1856   12.9986   12.1239 C   0  0  0  0  0  0  0  0  0  0  0  0
   11.0329   13.6438   12.9098 C   0  0  0  0  0  0  0  0  0  0  0  0
   11.2671   13.9455    9.9371 C   0  0  0  0  0  0  0  0  0  0  0  0
   10.2694   14.6930   10.8023 C   0  0  0  0  0  0  0  0  0  0  0  0
   10.7094   14.9331   12.2298 N   0  0  0  0  0  0  0  0  0  0  0  0
   13.0289   12.1763   10.0453 N   0  0  0  0  0  0  0  0  0  0  0  0
   12.9706   11.7207    9.1745 H   0  0  0  0  0  0  0  0  0  0  0  0
   16.1997   11.4831   11.6719 C   0  0  0  0  0  0  0  0  0  0  0  0
   14.9871   11.2305   11.0780 C   0  0  0  0  0  0  0  0  0  0  0  0
   14.2412   12.3245   10.6482 C   0  0  0  0  0  0  0  0  0  0  0  0
   14.6794   13.6021   10.8913 N   0  0  0  0  0  0  0  0  0  0  0  0
   16.6752   12.7429   11.8913 N   0  0  0  0  0  0  0  0  0  0  0  0
   15.7185    9.0865   11.5055 C   0  0  0  0  0  0  0  0  0  0  0  0
   17.0245   10.0021   12.0665 S   0  0  0  0  0  0  0  0  0  0  0  0
   14.7394    9.8953   10.9847 C   0  0  0  0  0  0  0  0  0  0  0  0
   15.9224   13.8242   11.4607 C   0  0  0  0  0  0  0  0  0  0  0  0
   15.6605    7.5698   11.5138 C   0  0  0  0  0  0  0  0  0  0  0  0
   14.6128    5.9967   12.9179 F   0  0  0  0  0  0  0  0  0  0  0  0
   15.3823    7.0698   12.9292 C   0  0  0  0  0  0  0  0  0  0  0  0
   16.5358    6.7456   13.5203 F   0  0  0  0  0  0  0  0  0  0  0  0
   14.7904    8.0021   13.6324 F   0  0  0  0  0  0  0  0  0  0  0  0
    9.5828   15.6459   12.9187 C   0  0  0  0  0  0  0  0  0  0  0  0
    9.7084   17.1137   12.8605 C   0  0  0  0  0  0  0  0  0  0  0  0
    8.5988   17.9692   13.0673 C   0  0  0  0  0  0  0  0  0  0  0  0
    8.7244   19.3253   12.9435 C   0  0  0  0  0  0  0  0  0  0  0  0
    7.8254   20.3375   13.1116 C   0  0  0  0  0  0  0  0  0  0  0  0
    8.4855   21.4922   12.9058 C   0  0  0  0  0  0  0  0  0  0  0  0
    9.7402   21.2401   12.6520 N   0  0  0  0  0  0  0  0  0  0  0  0
    9.8985   19.9043   12.6646 C   0  0  0  0  0  0  0  0  0  0  0  0
   11.0126   19.1388   12.4586 C   0  0  0  0  0  0  0  0  0  0  0  0
   10.9351   17.7430   12.5137 C   0  0  0  0  0  0  0  0  0  0  0  0
   10.4441   21.9071   12.4820 H   0  0  0  0  0  0  0  0  0  0  0  0
    8.0461   22.8292   12.9413 C   0  0  0  0  0  0  0  0  0  0  0  0
    7.7265   23.8981   12.9551 N   0  0  0  0  0  0  0  0  0  0  0  0
  5  4  1  0  0  0
  5  6  1  0  0  0
  4  1  1  0  0  0
 23  6  1  0  0  0
 23 24  1  0  0  0
  6  3  1  0  0  0
 22 20  1  0  0  0
 24 32  2  0  0  0
 24 25  1  0  0  0
 32 31  1  0  0  0
  1  7  1  0  0  0
  1  2  1  0  0  0
 12 17  2  0  0  0
 12 11  1  0  0  0
 25 26  2  0  0  0
  7 11  1  0  0  0
 21 20  1  0  0  0
 17 13  1  0  0  0
 11 10  2  0  0  0
 31 30  2  0  0  0
  3  2  1  0  0  0
 20 19  1  0  0  0
 20 18  1  0  0  0
 13  9  2  0  0  0
 10  9  1  0  0  0
 10 16  1  0  0  0
  9 15  1  0  0  0
 26 30  1  0  0  0
 26 27  1  0  0  0
 16 14  2  0  0  0
 30 29  1  0  0  0
 14 15  1  0  0  0
 14 18  1  0  0  0
 27 28  2  0  0  0
 29 28  1  0  0  0
 28 34  1  0  0  0
 34 35  3  0  0  0
  7  8  1  0  0  0
 29 33  1  0  0  0
M  END
> <minimizedAffinity>
-7.34992

$$$$
