4CP7_9MW_A_1101


 60 62  0  0  0  0  0  0  0  0999 V2000
   13.3062   23.8467    5.6110 C   0  0  0  0  0  0  0  0  0  0  0  0
   12.4012   23.0935    4.7166 C   0  0  0  0  0  0  0  0  0  0  0  0
   11.7987   25.1633    3.7084 O   0  0  0  0  0  0  0  0  0  0  0  0
   11.2782   23.9663    4.2606 C   0  0  0  0  0  0  0  0  0  0  0  0
   12.3869   24.9486    2.9677 H   0  0  0  0  0  0  0  0  0  0  0  0
   10.3073   24.3134    5.4825 C   0  0  0  0  0  0  0  0  0  0  0  0
    9.9538   23.4442    6.2875 O   0  0  0  0  0  0  0  0  0  0  0  0
    9.9197   25.5975    5.5530 N   0  0  0  0  0  0  0  0  0  0  0  0
   10.2489   26.2395    4.8831 H   0  0  0  0  0  0  0  0  0  0  0  0
    8.9885   26.0737    6.6408 C   0  0  0  0  0  0  0  0  0  0  0  0
    7.8264   26.9310    5.9476 C   0  0  0  0  0  0  0  0  0  0  0  0
    8.0789   27.9726    5.2993 O   0  0  0  0  0  0  0  0  0  0  0  0
    6.6511   26.4634    6.0983 N   0  0  0  0  0  0  0  0  0  0  0  0
    6.5270   25.6338    6.6137 H   0  0  0  0  0  0  0  0  0  0  0  0
    5.5058   27.1142    5.5365 C   0  0  0  0  0  0  0  0  0  0  0  0
    4.3007   26.3888    5.9504 C   0  0  0  0  0  0  0  0  0  0  0  0
    3.8544   25.1773    5.1706 C   0  0  0  0  0  0  0  0  0  0  0  0
    9.7685   26.9592    7.7922 C   0  0  0  0  0  0  0  0  0  0  0  0
    8.7479   27.7304    8.6607 C   0  0  0  0  0  0  0  0  0  0  0  0
   10.6413   26.0357    8.6904 C   0  0  0  0  0  0  0  0  0  0  0  0
   10.4492   23.1789    3.1401 C   0  0  0  0  0  0  0  0  0  0  0  0
    6.8647   25.2631    2.2643 C   0  0  0  0  0  0  0  0  0  0  0  0
    8.0806   25.6952    1.7234 C   0  0  0  0  0  0  0  0  0  0  0  0
    9.2713   24.9963    2.0182 C   0  0  0  0  0  0  0  0  0  0  0  0
    6.8384   24.1357    3.0993 C   0  0  0  0  0  0  0  0  0  0  0  0
    8.0201   23.4480    3.3880 C   0  0  0  0  0  0  0  0  0  0  0  0
    9.2391   23.8827    2.8443 C   0  0  0  0  0  0  0  0  0  0  0  0
    5.6460   25.9663    1.9722 C   0  0  0  0  0  0  0  0  0  0  0  0
    3.4362   24.6892    1.4818 C   0  0  0  0  0  0  0  0  0  0  0  0
    4.8051   25.1750    1.0378 C   0  0  0  0  0  0  0  0  0  0  0  0
   14.7077   23.4456    5.3143 C   0  0  0  0  0  0  0  0  0  0  0  0
   15.0672   22.2100    6.0258 N   0  0  0  0  0  0  0  0  0  0  0  0
   15.7082   21.5275    5.3373 N   0  0  0  0  0  0  0  0  0  0  0  0
   15.1529   20.3652    4.8809 C   0  0  0  0  0  0  0  0  0  0  0  0
   13.9915   19.9799    5.1505 O   0  0  0  0  0  0  0  0  0  0  0  0
   16.6270   21.7800    5.0894 H   0  0  0  0  0  0  0  0  0  0  0  0
   16.1011   19.5342    3.9952 C   0  0  0  0  0  0  0  0  0  0  0  0
   16.7474   18.5418    4.8549 N   0  0  0  0  0  0  0  0  0  0  0  0
   17.9215   18.7324    5.3292 C   0  0  0  0  0  0  0  0  0  0  0  0
   18.5405   19.7787    5.0572 O   0  0  0  0  0  0  0  0  0  0  0  0
   16.2691   17.7095    5.0734 H   0  0  0  0  0  0  0  0  0  0  0  0
   18.5030   17.7522    6.1562 O   0  0  0  0  0  0  0  0  0  0  0  0
   18.4819   16.4874    5.5237 C   0  0  0  0  0  0  0  0  0  0  0  0
   15.3457   18.8088    2.8340 C   0  0  0  0  0  0  0  0  0  0  0  0
   14.4665   19.8198    2.0644 C   0  0  0  0  0  0  0  0  0  0  0  0
   14.4521   17.6698    3.4130 C   0  0  0  0  0  0  0  0  0  0  0  0
   16.4161   18.1828    1.8484 C   0  0  0  0  0  0  0  0  0  0  0  0
   15.8903   22.5969    7.0768 C   0  0  0  0  0  0  0  0  0  0  0  0
   16.1687   21.5078    8.0568 C   0  0  0  0  0  0  0  0  0  0  0  0
   17.4479   21.0824    8.2664 C   0  0  0  0  0  0  0  0  0  0  0  0
   17.7108   20.0509    9.1871 C   0  0  0  0  0  0  0  0  0  0  0  0
   15.1026   20.9037    8.7688 C   0  0  0  0  0  0  0  0  0  0  0  0
   15.3689   19.8739    9.6870 C   0  0  0  0  0  0  0  0  0  0  0  0
   16.6824   19.4549    9.8923 C   0  0  0  0  0  0  0  0  0  0  0  0
   16.9719   18.4054   10.8141 C   0  0  0  0  0  0  0  0  0  0  0  0
   16.2657   17.1760   10.6841 C   0  0  0  0  0  0  0  0  0  0  0  0
   16.5122   16.1179   11.5486 C   0  0  0  0  0  0  0  0  0  0  0  0
   17.4510   16.2462   12.5454 N   0  0  0  0  0  0  0  0  0  0  0  0
   18.1648   17.4559   12.6883 C   0  0  0  0  0  0  0  0  0  0  0  0
   17.9119   18.5465   11.7970 C   0  0  0  0  0  0  0  0  0  0  0  0
 56 57  1  0  0  0
 56 55  2  0  0  0
 57 58  2  0  0  0
 58 59  1  0  0  0
 59 60  2  0  0  0
 60 55  1  0  0  0
 55 54  1  0  0  0
 54 53  1  0  0  0
 54 51  2  0  0  0
 53 52  2  0  0  0
 52 49  1  0  0  0
 51 50  1  0  0  0
 50 49  2  0  0  0
 49 48  1  0  0  0
 48 32  1  0  0  0
 32 33  1  0  0  0
 32 31  1  0  0  0
 33 34  1  0  0  0
 34 35  2  0  0  0
 34 37  1  0  0  0
 37 44  1  0  0  0
 37 38  1  0  0  0
 44 45  1  0  0  0
 44 46  1  0  0  0
 44 47  1  0  0  0
 38 39  1  0  0  0
 39 40  2  0  0  0
 39 42  1  0  0  0
 42 43  1  0  0  0
 31  1  1  0  0  0
  1  2  1  0  0  0
  2  4  1  0  0  0
  4 21  1  0  0  0
  4  3  1  0  0  0
  4  6  1  0  0  0
 21 27  1  0  0  0
 27 26  1  0  0  0
 27 24  2  0  0  0
 26 25  2  0  0  0
 25 22  1  0  0  0
 24 23  1  0  0  0
 23 22  2  0  0  0
 22 28  1  0  0  0
 28 30  1  0  0  0
 30 29  2  0  0  0
  6  7  2  0  0  0
  6  8  1  0  0  0
  8 10  1  0  0  0
 10 18  1  0  0  0
 10 11  1  0  0  0
 18 19  1  0  0  0
 18 20  1  0  0  0
 11 12  2  0  0  0
 11 13  1  0  0  0
 13 15  1  0  0  0
 15 16  1  0  0  0
 16 17  2  0  0  0
  8  9  1  0  0  0
 13 14  1  0  0  0
  3  5  1  0  0  0
 33 36  1  0  0  0
 38 41  1  0  0  0
M  END
> <minimizedAffinity>
-9.65286

$$$$
4CP7_9MW_A_1101


 60 62  0  0  0  0  0  0  0  0999 V2000
   11.8874   23.1568    3.4316 C   0  0  0  0  0  0  0  0  0  0  0  0
   11.8957   22.2786    4.6212 C   0  0  0  0  0  0  0  0  0  0  0  0
   12.9682   20.2418    5.2252 O   0  0  0  0  0  0  0  0  0  0  0  0
   13.1932   21.5447    4.7150 C   0  0  0  0  0  0  0  0  0  0  0  0
   12.3499   19.7699    4.6456 H   0  0  0  0  0  0  0  0  0  0  0  0
   14.2119   22.3281    5.6661 C   0  0  0  0  0  0  0  0  0  0  0  0
   14.7725   23.3639    5.2903 O   0  0  0  0  0  0  0  0  0  0  0  0
   14.3999   21.7746    6.8754 N   0  0  0  0  0  0  0  0  0  0  0  0
   13.9115   20.9533    7.1125 H   0  0  0  0  0  0  0  0  0  0  0  0
   15.3465   22.3891    7.8771 C   0  0  0  0  0  0  0  0  0  0  0  0
   16.5215   21.3348    8.1488 C   0  0  0  0  0  0  0  0  0  0  0  0
   16.2956   20.1044    8.2114 O   0  0  0  0  0  0  0  0  0  0  0  0
   17.6815   21.8449    8.2787 N   0  0  0  0  0  0  0  0  0  0  0  0
   17.7871   22.8212    8.2090 H   0  0  0  0  0  0  0  0  0  0  0  0
   18.8359   21.0335    8.5235 C   0  0  0  0  0  0  0  0  0  0  0  0
   19.5053   20.7679    7.2464 C   0  0  0  0  0  0  0  0  0  0  0  0
   19.5044   19.3699    6.6802 C   0  0  0  0  0  0  0  0  0  0  0  0
   14.5908   22.8057    9.2819 C   0  0  0  0  0  0  0  0  0  0  0  0
   13.2585   23.5305    8.9817 C   0  0  0  0  0  0  0  0  0  0  0  0
   14.3255   21.5433   10.1522 C   0  0  0  0  0  0  0  0  0  0  0  0
   13.8221   21.4407    3.2465 C   0  0  0  0  0  0  0  0  0  0  0  0
   16.4015   18.0863    3.0140 C   0  0  0  0  0  0  0  0  0  0  0  0
   16.6809   19.1291    3.9041 C   0  0  0  0  0  0  0  0  0  0  0  0
   15.8175   20.2436    3.9776 C   0  0  0  0  0  0  0  0  0  0  0  0
   15.2623   18.1574    2.1977 C   0  0  0  0  0  0  0  0  0  0  0  0
   14.4114   19.2632    2.2744 C   0  0  0  0  0  0  0  0  0  0  0  0
   14.6930   20.3083    3.1682 C   0  0  0  0  0  0  0  0  0  0  0  0
   17.2729   16.9467    2.9295 C   0  0  0  0  0  0  0  0  0  0  0  0
   18.4131   15.9231    5.0287 C   0  0  0  0  0  0  0  0  0  0  0  0
   18.3198   17.0186    3.9808 C   0  0  0  0  0  0  0  0  0  0  0  0
   11.4548   24.5173    3.8499 C   0  0  0  0  0  0  0  0  0  0  0  0
    9.9929   24.5888    3.9900 N   0  0  0  0  0  0  0  0  0  0  0  0
    9.6981   25.5341    4.5986 N   0  0  0  0  0  0  0  0  0  0  0  0
    9.4419   25.3900    5.9332 C   0  0  0  0  0  0  0  0  0  0  0  0
    9.5053   24.3039    6.5547 O   0  0  0  0  0  0  0  0  0  0  0  0
    9.6347   26.4153    4.1641 H   0  0  0  0  0  0  0  0  0  0  0  0
    9.0421   26.7046    6.6304 C   0  0  0  0  0  0  0  0  0  0  0  0
    7.6281   26.9436    6.3389 N   0  0  0  0  0  0  0  0  0  0  0  0
    7.2612   27.5945    5.2989 C   0  0  0  0  0  0  0  0  0  0  0  0
    8.1162   28.0441    4.5122 O   0  0  0  0  0  0  0  0  0  0  0  0
    6.9439   26.5962    6.9557 H   0  0  0  0  0  0  0  0  0  0  0  0
    5.8891   27.7968    5.0555 O   0  0  0  0  0  0  0  0  0  0  0  0
    5.1128   26.8274    5.7322 C   0  0  0  0  0  0  0  0  0  0  0  0
    9.2549   26.6443    8.1784 C   0  0  0  0  0  0  0  0  0  0  0  0
    9.1016   28.0562    8.7871 C   0  0  0  0  0  0  0  0  0  0  0  0
   10.6755   26.0864    8.4969 C   0  0  0  0  0  0  0  0  0  0  0  0
    8.1635   25.6798    8.8011 C   0  0  0  0  0  0  0  0  0  0  0  0
    9.4919   24.7721    2.7066 C   0  0  0  0  0  0  0  0  0  0  0  0
    8.0023   24.7974    2.6389 C   0  0  0  0  0  0  0  0  0  0  0  0
    7.3640   25.7501    1.8999 C   0  0  0  0  0  0  0  0  0  0  0  0
    5.9582   25.7779    1.8399 C   0  0  0  0  0  0  0  0  0  0  0  0
    7.2428   23.8354    3.3504 C   0  0  0  0  0  0  0  0  0  0  0  0
    5.8394   23.8665    3.2884 C   0  0  0  0  0  0  0  0  0  0  0  0
    5.2037   24.8440    2.5246 C   0  0  0  0  0  0  0  0  0  0  0  0
    3.7798   24.8969    2.4559 C   0  0  0  0  0  0  0  0  0  0  0  0
    3.0649   23.6793    2.2729 C   0  0  0  0  0  0  0  0  0  0  0  0
    1.6782   23.6704    2.2064 C   0  0  0  0  0  0  0  0  0  0  0  0
    0.9748   24.8466    2.3209 N   0  0  0  0  0  0  0  0  0  0  0  0
    1.6650   26.0641    2.5069 C   0  0  0  0  0  0  0  0  0  0  0  0
    3.0943   26.0738    2.5765 C   0  0  0  0  0  0  0  0  0  0  0  0
 56 57  1  0  0  0
 56 55  2  0  0  0
 57 58  2  0  0  0
 58 59  1  0  0  0
 59 60  2  0  0  0
 60 55  1  0  0  0
 55 54  1  0  0  0
 54 53  1  0  0  0
 54 51  2  0  0  0
 53 52  2  0  0  0
 52 49  1  0  0  0
 51 50  1  0  0  0
 50 49  2  0  0  0
 49 48  1  0  0  0
 48 32  1  0  0  0
 32 33  1  0  0  0
 32 31  1  0  0  0
 33 34  1  0  0  0
 34 35  2  0  0  0
 34 37  1  0  0  0
 37 44  1  0  0  0
 37 38  1  0  0  0
 44 45  1  0  0  0
 44 46  1  0  0  0
 44 47  1  0  0  0
 38 39  1  0  0  0
 39 40  2  0  0  0
 39 42  1  0  0  0
 42 43  1  0  0  0
 31  1  1  0  0  0
  1  2  1  0  0  0
  2  4  1  0  0  0
  4 21  1  0  0  0
  4  3  1  0  0  0
  4  6  1  0  0  0
 21 27  1  0  0  0
 27 26  1  0  0  0
 27 24  2  0  0  0
 26 25  2  0  0  0
 25 22  1  0  0  0
 24 23  1  0  0  0
 23 22  2  0  0  0
 22 28  1  0  0  0
 28 30  1  0  0  0
 30 29  2  0  0  0
  6  7  2  0  0  0
  6  8  1  0  0  0
  8 10  1  0  0  0
 10 18  1  0  0  0
 10 11  1  0  0  0
 18 19  1  0  0  0
 18 20  1  0  0  0
 11 12  2  0  0  0
 11 13  1  0  0  0
 13 15  1  0  0  0
 15 16  1  0  0  0
 16 17  2  0  0  0
  8  9  1  0  0  0
 13 14  1  0  0  0
  3  5  1  0  0  0
 33 36  1  0  0  0
 38 41  1  0  0  0
M  END
> <minimizedAffinity>
-9.34391

$$$$
4CP7_9MW_A_1101


 60 62  0  0  0  0  0  0  0  0999 V2000
   16.0701   20.7875    9.2923 C   0  0  0  0  0  0  0  0  0  0  0  0
   17.3590   20.1950    9.7095 C   0  0  0  0  0  0  0  0  0  0  0  0
   16.8171   18.9362    7.7639 O   0  0  0  0  0  0  0  0  0  0  0  0
   17.6460   18.9644    8.9130 C   0  0  0  0  0  0  0  0  0  0  0  0
   16.9746   19.7319    7.2320 H   0  0  0  0  0  0  0  0  0  0  0  0
   17.3911   17.6551    9.7944 C   0  0  0  0  0  0  0  0  0  0  0  0
   16.3106   17.4664   10.3646 O   0  0  0  0  0  0  0  0  0  0  0  0
   18.4277   16.8035    9.8594 N   0  0  0  0  0  0  0  0  0  0  0  0
   19.2564   17.0123    9.3707 H   0  0  0  0  0  0  0  0  0  0  0  0
   18.3447   15.5323   10.6683 C   0  0  0  0  0  0  0  0  0  0  0  0
   18.6682   15.9020   12.1930 C   0  0  0  0  0  0  0  0  0  0  0  0
   17.9066   15.5577   13.1260 O   0  0  0  0  0  0  0  0  0  0  0  0
   19.7505   16.5498   12.3707 N   0  0  0  0  0  0  0  0  0  0  0  0
   20.3058   16.7797   11.5909 H   0  0  0  0  0  0  0  0  0  0  0  0
   20.1796   16.9520   13.6764 C   0  0  0  0  0  0  0  0  0  0  0  0
   19.8915   18.3793   13.8489 C   0  0  0  0  0  0  0  0  0  0  0  0
   20.6698   19.1803   14.8627 C   0  0  0  0  0  0  0  0  0  0  0  0
   19.3701   14.3666   10.1134 C   0  0  0  0  0  0  0  0  0  0  0  0
   19.3166   13.1225   11.0299 C   0  0  0  0  0  0  0  0  0  0  0  0
   19.0033   13.9689    8.6543 C   0  0  0  0  0  0  0  0  0  0  0  0
   19.1815   19.0014    8.4617 C   0  0  0  0  0  0  0  0  0  0  0  0
   21.2331   22.0524   10.5693 C   0  0  0  0  0  0  0  0  0  0  0  0
   20.7745   22.2819    9.2675 C   0  0  0  0  0  0  0  0  0  0  0  0
   20.0911   21.2619    8.5707 C   0  0  0  0  0  0  0  0  0  0  0  0
   21.0104   20.8056   11.1736 C   0  0  0  0  0  0  0  0  0  0  0  0
   20.3336   19.7995   10.4790 C   0  0  0  0  0  0  0  0  0  0  0  0
   19.8741   20.0316    9.1732 C   0  0  0  0  0  0  0  0  0  0  0  0
   21.9305   23.0824   11.2888 C   0  0  0  0  0  0  0  0  0  0  0  0
   23.2452   22.7423   13.5048 C   0  0  0  0  0  0  0  0  0  0  0  0
   23.0948   22.5092   12.0115 C   0  0  0  0  0  0  0  0  0  0  0  0
   16.3461   21.9171    8.3643 C   0  0  0  0  0  0  0  0  0  0  0  0
   15.3268   21.9958    7.3075 N   0  0  0  0  0  0  0  0  0  0  0  0
   15.5122   21.1666    6.5145 N   0  0  0  0  0  0  0  0  0  0  0  0
   15.4313   21.5060    5.1931 C   0  0  0  0  0  0  0  0  0  0  0  0
   15.1726   22.6569    4.7706 O   0  0  0  0  0  0  0  0  0  0  0  0
   15.7219   20.2442    6.7874 H   0  0  0  0  0  0  0  0  0  0  0  0
   15.6753   20.3233    4.2360 C   0  0  0  0  0  0  0  0  0  0  0  0
   16.3783   19.2855    4.9911 N   0  0  0  0  0  0  0  0  0  0  0  0
   17.4507   18.7459    4.5455 C   0  0  0  0  0  0  0  0  0  0  0  0
   17.9142   19.0990    3.4444 O   0  0  0  0  0  0  0  0  0  0  0  0
   16.0190   18.9958    5.8607 H   0  0  0  0  0  0  0  0  0  0  0  0
   18.0967   17.7540    5.3081 O   0  0  0  0  0  0  0  0  0  0  0  0
   18.0124   16.4960    4.6673 C   0  0  0  0  0  0  0  0  0  0  0  0
   14.3432   19.7408    3.6604 C   0  0  0  0  0  0  0  0  0  0  0  0
   14.1601   20.1930    2.1943 C   0  0  0  0  0  0  0  0  0  0  0  0
   13.1361   20.2322    4.5162 C   0  0  0  0  0  0  0  0  0  0  0  0
   14.4160   18.1596    3.7197 C   0  0  0  0  0  0  0  0  0  0  0  0
   14.1151   21.6952    7.9185 C   0  0  0  0  0  0  0  0  0  0  0  0
   13.1444   22.8274    7.9218 C   0  0  0  0  0  0  0  0  0  0  0  0
   12.0706   22.8144    7.0804 C   0  0  0  0  0  0  0  0  0  0  0  0
   11.1571   23.8850    7.0791 C   0  0  0  0  0  0  0  0  0  0  0  0
   13.3391   23.9270    8.7944 C   0  0  0  0  0  0  0  0  0  0  0  0
   12.4252   24.9943    8.7901 C   0  0  0  0  0  0  0  0  0  0  0  0
   11.3308   24.9624    7.9273 C   0  0  0  0  0  0  0  0  0  0  0  0
   10.3967   26.0402    7.9024 C   0  0  0  0  0  0  0  0  0  0  0  0
    9.6213   26.2374    6.7248 C   0  0  0  0  0  0  0  0  0  0  0  0
    8.6918   27.2657    6.6476 C   0  0  0  0  0  0  0  0  0  0  0  0
    8.5064   28.1095    7.7177 N   0  0  0  0  0  0  0  0  0  0  0  0
    9.2627   27.9281    8.8961 C   0  0  0  0  0  0  0  0  0  0  0  0
   10.2203   26.8677    8.9765 C   0  0  0  0  0  0  0  0  0  0  0  0
 56 57  1  0  0  0
 56 55  2  0  0  0
 57 58  2  0  0  0
 58 59  1  0  0  0
 59 60  2  0  0  0
 60 55  1  0  0  0
 55 54  1  0  0  0
 54 53  1  0  0  0
 54 51  2  0  0  0
 53 52  2  0  0  0
 52 49  1  0  0  0
 51 50  1  0  0  0
 50 49  2  0  0  0
 49 48  1  0  0  0
 48 32  1  0  0  0
 32 33  1  0  0  0
 32 31  1  0  0  0
 33 34  1  0  0  0
 34 35  2  0  0  0
 34 37  1  0  0  0
 37 44  1  0  0  0
 37 38  1  0  0  0
 44 45  1  0  0  0
 44 46  1  0  0  0
 44 47  1  0  0  0
 38 39  1  0  0  0
 39 40  2  0  0  0
 39 42  1  0  0  0
 42 43  1  0  0  0
 31  1  1  0  0  0
  1  2  1  0  0  0
  2  4  1  0  0  0
  4 21  1  0  0  0
  4  3  1  0  0  0
  4  6  1  0  0  0
 21 27  1  0  0  0
 27 26  1  0  0  0
 27 24  2  0  0  0
 26 25  2  0  0  0
 25 22  1  0  0  0
 24 23  1  0  0  0
 23 22  2  0  0  0
 22 28  1  0  0  0
 28 30  1  0  0  0
 30 29  2  0  0  0
  6  7  2  0  0  0
  6  8  1  0  0  0
  8 10  1  0  0  0
 10 18  1  0  0  0
 10 11  1  0  0  0
 18 19  1  0  0  0
 18 20  1  0  0  0
 11 12  2  0  0  0
 11 13  1  0  0  0
 13 15  1  0  0  0
 15 16  1  0  0  0
 16 17  2  0  0  0
  8  9  1  0  0  0
 13 14  1  0  0  0
  3  5  1  0  0  0
 33 36  1  0  0  0
 38 41  1  0  0  0
M  END
> <minimizedAffinity>
-9.33970

$$$$
4CP7_9MW_A_1101


 60 62  0  0  0  0  0  0  0  0999 V2000
   13.4420   23.2384    4.2485 C   0  0  0  0  0  0  0  0  0  0  0  0
   12.3497   24.1276    4.6985 C   0  0  0  0  0  0  0  0  0  0  0  0
   11.2111   22.3729    3.5636 O   0  0  0  0  0  0  0  0  0  0  0  0
   11.0346   23.6292    4.1952 C   0  0  0  0  0  0  0  0  0  0  0  0
   11.5956   21.7448    4.1949 H   0  0  0  0  0  0  0  0  0  0  0  0
   10.4010   24.6695    3.1595 C   0  0  0  0  0  0  0  0  0  0  0  0
   10.9724   24.9470    2.0989 O   0  0  0  0  0  0  0  0  0  0  0  0
    9.2262   25.2012    3.5355 N   0  0  0  0  0  0  0  0  0  0  0  0
    8.8225   24.9262    4.3902 H   0  0  0  0  0  0  0  0  0  0  0  0
    8.5143   26.2125    2.6710 C   0  0  0  0  0  0  0  0  0  0  0  0
    7.5915   27.1078    3.6264 C   0  0  0  0  0  0  0  0  0  0  0  0
    6.9094   28.0569    3.1760 O   0  0  0  0  0  0  0  0  0  0  0  0
    7.6012   26.7687    4.8542 N   0  0  0  0  0  0  0  0  0  0  0  0
    8.1551   26.0055    5.1370 H   0  0  0  0  0  0  0  0  0  0  0  0
    6.8264   27.4698    5.8335 C   0  0  0  0  0  0  0  0  0  0  0  0
    7.3333   27.1312    7.1670 C   0  0  0  0  0  0  0  0  0  0  0  0
    8.3976   27.9915    7.8012 C   0  0  0  0  0  0  0  0  0  0  0  0
    7.6193   25.5032    1.4818 C   0  0  0  0  0  0  0  0  0  0  0  0
    6.3387   24.8726    2.0759 C   0  0  0  0  0  0  0  0  0  0  0  0
    7.2419   26.5455    0.3897 C   0  0  0  0  0  0  0  0  0  0  0  0
   10.0457   23.4641    5.4432 C   0  0  0  0  0  0  0  0  0  0  0  0
   12.1451   24.1799    9.0542 C   0  0  0  0  0  0  0  0  0  0  0  0
   12.3582   22.9967    8.3385 C   0  0  0  0  0  0  0  0  0  0  0  0
   11.6564   22.7642    7.1358 C   0  0  0  0  0  0  0  0  0  0  0  0
   11.2316   25.1287    8.5700 C   0  0  0  0  0  0  0  0  0  0  0  0
   10.5395   24.8932    7.3792 C   0  0  0  0  0  0  0  0  0  0  0  0
   10.7546   23.7057    6.6623 C   0  0  0  0  0  0  0  0  0  0  0  0
   12.8530   24.4280   10.2800 C   0  0  0  0  0  0  0  0  0  0  0  0
   13.8499   22.2948   11.3800 C   0  0  0  0  0  0  0  0  0  0  0  0
   13.9794   23.4712   10.4280 C   0  0  0  0  0  0  0  0  0  0  0  0
   14.6310   23.4746    5.1107 C   0  0  0  0  0  0  0  0  0  0  0  0
   15.0115   22.2530    5.8351 N   0  0  0  0  0  0  0  0  0  0  0  0
   15.6820   21.5843    5.1612 N   0  0  0  0  0  0  0  0  0  0  0  0
   15.2152   20.3497    4.8067 C   0  0  0  0  0  0  0  0  0  0  0  0
   14.1059   19.8833    5.1559 O   0  0  0  0  0  0  0  0  0  0  0  0
   16.5627   21.8989    4.8538 H   0  0  0  0  0  0  0  0  0  0  0  0
   16.1964   19.5469    3.9309 C   0  0  0  0  0  0  0  0  0  0  0  0
   16.8652   18.5761    4.7980 N   0  0  0  0  0  0  0  0  0  0  0  0
   17.9972   18.8325    5.3391 C   0  0  0  0  0  0  0  0  0  0  0  0
   18.5549   19.9262    5.1275 O   0  0  0  0  0  0  0  0  0  0  0  0
   16.4356   17.7070    4.9691 H   0  0  0  0  0  0  0  0  0  0  0  0
   18.6023   17.8703    6.1703 O   0  0  0  0  0  0  0  0  0  0  0  0
   19.1949   16.8440    5.3984 C   0  0  0  0  0  0  0  0  0  0  0  0
   15.4739   18.7969    2.7644 C   0  0  0  0  0  0  0  0  0  0  0  0
   14.5918   19.7850    1.9687 C   0  0  0  0  0  0  0  0  0  0  0  0
   14.5894   17.6490    3.3395 C   0  0  0  0  0  0  0  0  0  0  0  0
   16.5720   18.1790    1.8044 C   0  0  0  0  0  0  0  0  0  0  0  0
   15.8064   22.6673    6.8973 C   0  0  0  0  0  0  0  0  0  0  0  0
   16.1309   21.5815    7.8668 C   0  0  0  0  0  0  0  0  0  0  0  0
   15.1340   20.8263    8.4118 C   0  0  0  0  0  0  0  0  0  0  0  0
   15.4390   19.8050    9.3309 C   0  0  0  0  0  0  0  0  0  0  0  0
   17.4778   21.3357    8.2328 C   0  0  0  0  0  0  0  0  0  0  0  0
   17.7785   20.3154    9.1511 C   0  0  0  0  0  0  0  0  0  0  0  0
   16.7479   19.5502    9.6945 C   0  0  0  0  0  0  0  0  0  0  0  0
   17.0324   18.5156   10.6344 C   0  0  0  0  0  0  0  0  0  0  0  0
   16.3927   17.2546   10.4679 C   0  0  0  0  0  0  0  0  0  0  0  0
   16.6381   16.2094   11.3481 C   0  0  0  0  0  0  0  0  0  0  0  0
   17.5112   16.3815   12.3967 N   0  0  0  0  0  0  0  0  0  0  0  0
   18.1588   17.6231   12.5767 C   0  0  0  0  0  0  0  0  0  0  0  0
   17.9070   18.7005   11.6690 C   0  0  0  0  0  0  0  0  0  0  0  0
 56 57  1  0  0  0
 56 55  2  0  0  0
 57 58  2  0  0  0
 58 59  1  0  0  0
 59 60  2  0  0  0
 60 55  1  0  0  0
 55 54  1  0  0  0
 54 53  1  0  0  0
 54 51  2  0  0  0
 53 52  2  0  0  0
 52 49  1  0  0  0
 51 50  1  0  0  0
 50 49  2  0  0  0
 49 48  1  0  0  0
 48 32  1  0  0  0
 32 33  1  0  0  0
 32 31  1  0  0  0
 33 34  1  0  0  0
 34 35  2  0  0  0
 34 37  1  0  0  0
 37 44  1  0  0  0
 37 38  1  0  0  0
 44 45  1  0  0  0
 44 46  1  0  0  0
 44 47  1  0  0  0
 38 39  1  0  0  0
 39 40  2  0  0  0
 39 42  1  0  0  0
 42 43  1  0  0  0
 31  1  1  0  0  0
  1  2  1  0  0  0
  2  4  1  0  0  0
  4 21  1  0  0  0
  4  3  1  0  0  0
  4  6  1  0  0  0
 21 27  1  0  0  0
 27 26  1  0  0  0
 27 24  2  0  0  0
 26 25  2  0  0  0
 25 22  1  0  0  0
 24 23  1  0  0  0
 23 22  2  0  0  0
 22 28  1  0  0  0
 28 30  1  0  0  0
 30 29  2  0  0  0
  6  7  2  0  0  0
  6  8  1  0  0  0
  8 10  1  0  0  0
 10 18  1  0  0  0
 10 11  1  0  0  0
 18 19  1  0  0  0
 18 20  1  0  0  0
 11 12  2  0  0  0
 11 13  1  0  0  0
 13 15  1  0  0  0
 15 16  1  0  0  0
 16 17  2  0  0  0
  8  9  1  0  0  0
 13 14  1  0  0  0
  3  5  1  0  0  0
 33 36  1  0  0  0
 38 41  1  0  0  0
M  END
> <minimizedAffinity>
-9.32432

$$$$
4CP7_9MW_A_1101


 60 62  0  0  0  0  0  0  0  0999 V2000
   12.8396   23.5357    4.6742 C   0  0  0  0  0  0  0  0  0  0  0  0
   13.0426   23.4671    6.1372 C   0  0  0  0  0  0  0  0  0  0  0  0
   15.4193   23.4990    6.0189 O   0  0  0  0  0  0  0  0  0  0  0  0
   14.3064   22.7357    6.4516 C   0  0  0  0  0  0  0  0  0  0  0  0
   15.4075   24.3646    6.4566 H   0  0  0  0  0  0  0  0  0  0  0  0
   14.3199   21.3073    5.7335 C   0  0  0  0  0  0  0  0  0  0  0  0
   13.4453   20.4649    5.9653 O   0  0  0  0  0  0  0  0  0  0  0  0
   15.3391   21.1096    4.8812 N   0  0  0  0  0  0  0  0  0  0  0  0
   15.9948   21.8295    4.7365 H   0  0  0  0  0  0  0  0  0  0  0  0
   15.4967   19.8038    4.1417 C   0  0  0  0  0  0  0  0  0  0  0  0
   17.0386   19.3779    4.2267 C   0  0  0  0  0  0  0  0  0  0  0  0
   17.6846   19.0501    3.2048 O   0  0  0  0  0  0  0  0  0  0  0  0
   17.5424   19.4145    5.3961 N   0  0  0  0  0  0  0  0  0  0  0  0
   16.9775   19.6905    6.1536 H   0  0  0  0  0  0  0  0  0  0  0  0
   18.9100   19.0643    5.6362 C   0  0  0  0  0  0  0  0  0  0  0  0
   18.9626   17.6916    6.1488 C   0  0  0  0  0  0  0  0  0  0  0  0
   19.4585   16.5808    5.2571 C   0  0  0  0  0  0  0  0  0  0  0  0
   14.9982   19.9058    2.5735 C   0  0  0  0  0  0  0  0  0  0  0  0
   14.3795   18.5643    2.1173 C   0  0  0  0  0  0  0  0  0  0  0  0
   13.9617   21.0543    2.4056 C   0  0  0  0  0  0  0  0  0  0  0  0
   14.3878   22.5260    8.0366 C   0  0  0  0  0  0  0  0  0  0  0  0
   17.8323   20.2609    9.0185 C   0  0  0  0  0  0  0  0  0  0  0  0
   17.9628   21.5684    8.5379 C   0  0  0  0  0  0  0  0  0  0  0  0
   16.8116   22.3183    8.2132 C   0  0  0  0  0  0  0  0  0  0  0  0
   16.5541   19.7029    9.1733 C   0  0  0  0  0  0  0  0  0  0  0  0
   15.4181   20.4497    8.8500 C   0  0  0  0  0  0  0  0  0  0  0  0
   15.5508   21.7614    8.3681 C   0  0  0  0  0  0  0  0  0  0  0  0
   18.9964   19.4871    9.3521 C   0  0  0  0  0  0  0  0  0  0  0  0
   20.6782   20.7743   10.8586 C   0  0  0  0  0  0  0  0  0  0  0  0
   20.1837   20.3705    9.4804 C   0  0  0  0  0  0  0  0  0  0  0  0
   12.2084   24.8418    4.3440 C   0  0  0  0  0  0  0  0  0  0  0  0
   10.7428   24.7285    4.3100 N   0  0  0  0  0  0  0  0  0  0  0  0
   10.2620   25.6269    4.8689 N   0  0  0  0  0  0  0  0  0  0  0  0
    9.6790   25.3960    6.0831 C   0  0  0  0  0  0  0  0  0  0  0  0
    9.6274   24.2768    6.6441 O   0  0  0  0  0  0  0  0  0  0  0  0
   10.2744   26.5304    4.4779 H   0  0  0  0  0  0  0  0  0  0  0  0
    9.0583   26.6547    6.7192 C   0  0  0  0  0  0  0  0  0  0  0  0
    7.6475   26.6919    6.3320 N   0  0  0  0  0  0  0  0  0  0  0  0
    7.2567   27.3299    5.2927 C   0  0  0  0  0  0  0  0  0  0  0  0
    8.0841   27.9406    4.5895 O   0  0  0  0  0  0  0  0  0  0  0  0
    6.9844   26.2160    6.8825 H   0  0  0  0  0  0  0  0  0  0  0  0
    5.8897   27.3348    4.9552 O   0  0  0  0  0  0  0  0  0  0  0  0
    5.0986   27.6747    6.0772 C   0  0  0  0  0  0  0  0  0  0  0  0
    9.1736   26.6504    8.2786 C   0  0  0  0  0  0  0  0  0  0  0  0
    8.9914   28.0842    8.8248 C   0  0  0  0  0  0  0  0  0  0  0  0
   10.5680   26.0988    8.7056 C   0  0  0  0  0  0  0  0  0  0  0  0
    8.0393   25.7138    8.8664 C   0  0  0  0  0  0  0  0  0  0  0  0
   10.3784   24.8522    2.9744 C   0  0  0  0  0  0  0  0  0  0  0  0
    8.9059   24.7977    2.7438 C   0  0  0  0  0  0  0  0  0  0  0  0
    8.1461   23.8559    3.3737 C   0  0  0  0  0  0  0  0  0  0  0  0
    6.7573   23.8004    3.1524 C   0  0  0  0  0  0  0  0  0  0  0  0
    8.2909   25.7203    1.8611 C   0  0  0  0  0  0  0  0  0  0  0  0
    6.9041   25.6616    1.6424 C   0  0  0  0  0  0  0  0  0  0  0  0
    6.1422   24.6958    2.2980 C   0  0  0  0  0  0  0  0  0  0  0  0
    4.7344   24.6152    2.0825 C   0  0  0  0  0  0  0  0  0  0  0  0
    3.8640   25.0101    3.1377 C   0  0  0  0  0  0  0  0  0  0  0  0
    2.4855   24.9595    2.9809 C   0  0  0  0  0  0  0  0  0  0  0  0
    1.9419   24.5270    1.7939 N   0  0  0  0  0  0  0  0  0  0  0  0
    2.7880   24.1349    0.7339 C   0  0  0  0  0  0  0  0  0  0  0  0
    4.2091   24.1878    0.8947 C   0  0  0  0  0  0  0  0  0  0  0  0
 56 57  1  0  0  0
 56 55  2  0  0  0
 57 58  2  0  0  0
 58 59  1  0  0  0
 59 60  2  0  0  0
 60 55  1  0  0  0
 55 54  1  0  0  0
 54 53  1  0  0  0
 54 51  2  0  0  0
 53 52  2  0  0  0
 52 49  1  0  0  0
 51 50  1  0  0  0
 50 49  2  0  0  0
 49 48  1  0  0  0
 48 32  1  0  0  0
 32 33  1  0  0  0
 32 31  1  0  0  0
 33 34  1  0  0  0
 34 35  2  0  0  0
 34 37  1  0  0  0
 37 44  1  0  0  0
 37 38  1  0  0  0
 44 45  1  0  0  0
 44 46  1  0  0  0
 44 47  1  0  0  0
 38 39  1  0  0  0
 39 40  2  0  0  0
 39 42  1  0  0  0
 42 43  1  0  0  0
 31  1  1  0  0  0
  1  2  1  0  0  0
  2  4  1  0  0  0
  4 21  1  0  0  0
  4  3  1  0  0  0
  4  6  1  0  0  0
 21 27  1  0  0  0
 27 26  1  0  0  0
 27 24  2  0  0  0
 26 25  2  0  0  0
 25 22  1  0  0  0
 24 23  1  0  0  0
 23 22  2  0  0  0
 22 28  1  0  0  0
 28 30  1  0  0  0
 30 29  2  0  0  0
  6  7  2  0  0  0
  6  8  1  0  0  0
  8 10  1  0  0  0
 10 18  1  0  0  0
 10 11  1  0  0  0
 18 19  1  0  0  0
 18 20  1  0  0  0
 11 12  2  0  0  0
 11 13  1  0  0  0
 13 15  1  0  0  0
 15 16  1  0  0  0
 16 17  2  0  0  0
  8  9  1  0  0  0
 13 14  1  0  0  0
  3  5  1  0  0  0
 33 36  1  0  0  0
 38 41  1  0  0  0
M  END
> <minimizedAffinity>
-9.27884

$$$$
4CP7_9MW_A_1101


 60 62  0  0  0  0  0  0  0  0999 V2000
   16.7904   20.2805    8.9059 C   0  0  0  0  0  0  0  0  0  0  0  0
   18.2157   19.8892    8.9484 C   0  0  0  0  0  0  0  0  0  0  0  0
   17.5827   19.3984   11.1894 O   0  0  0  0  0  0  0  0  0  0  0  0
   18.4879   19.0524   10.1553 C   0  0  0  0  0  0  0  0  0  0  0  0
   16.6728   19.2664   10.8802 H   0  0  0  0  0  0  0  0  0  0  0  0
   19.9900   19.2678   10.6586 C   0  0  0  0  0  0  0  0  0  0  0  0
   20.8928   18.4878   10.3348 O   0  0  0  0  0  0  0  0  0  0  0  0
   20.1774   20.3411   11.4441 N   0  0  0  0  0  0  0  0  0  0  0  0
   19.4140   20.9265   11.6532 H   0  0  0  0  0  0  0  0  0  0  0  0
   21.5373   20.6656   12.0119 C   0  0  0  0  0  0  0  0  0  0  0  0
   21.5162   20.2965   13.5705 C   0  0  0  0  0  0  0  0  0  0  0  0
   21.5141   21.1847   14.4537 O   0  0  0  0  0  0  0  0  0  0  0  0
   21.4882   19.0490   13.8268 N   0  0  0  0  0  0  0  0  0  0  0  0
   21.4828   18.4059   13.0815 H   0  0  0  0  0  0  0  0  0  0  0  0
   21.4644   18.5588   15.1721 C   0  0  0  0  0  0  0  0  0  0  0  0
   20.7144   17.2993   15.2021 C   0  0  0  0  0  0  0  0  0  0  0  0
   19.5115   17.1685   16.1027 C   0  0  0  0  0  0  0  0  0  0  0  0
   21.9522   22.2450   11.7849 C   0  0  0  0  0  0  0  0  0  0  0  0
   23.4897   22.4061   11.8086 C   0  0  0  0  0  0  0  0  0  0  0  0
   21.3830   22.7686   10.4346 C   0  0  0  0  0  0  0  0  0  0  0  0
   18.2832   17.5145    9.7603 C   0  0  0  0  0  0  0  0  0  0  0  0
   16.1311   15.5138   12.8141 C   0  0  0  0  0  0  0  0  0  0  0  0
   15.4748   15.9422   11.6550 C   0  0  0  0  0  0  0  0  0  0  0  0
   16.1972   16.6075   10.6408 C   0  0  0  0  0  0  0  0  0  0  0  0
   17.5064   15.7508   12.9604 C   0  0  0  0  0  0  0  0  0  0  0  0
   18.2164   16.4101   11.9535 C   0  0  0  0  0  0  0  0  0  0  0  0
   17.5565   16.8390   10.7912 C   0  0  0  0  0  0  0  0  0  0  0  0
   15.4068   14.8360   13.8537 C   0  0  0  0  0  0  0  0  0  0  0  0
   13.0678   15.4976   14.7735 C   0  0  0  0  0  0  0  0  0  0  0  0
   13.9437   14.9838   13.6440 C   0  0  0  0  0  0  0  0  0  0  0  0
   16.6903   21.6432    8.3176 C   0  0  0  0  0  0  0  0  0  0  0  0
   15.6046   21.7150    7.3286 N   0  0  0  0  0  0  0  0  0  0  0  0
   15.7259   20.8666    6.5435 N   0  0  0  0  0  0  0  0  0  0  0  0
   15.6330   21.1927    5.2196 C   0  0  0  0  0  0  0  0  0  0  0  0
   15.4278   22.3505    4.7866 O   0  0  0  0  0  0  0  0  0  0  0  0
   15.8912   19.9378    6.8247 H   0  0  0  0  0  0  0  0  0  0  0  0
   15.7896   19.9860    4.2742 C   0  0  0  0  0  0  0  0  0  0  0  0
   16.4466   18.9189    5.0299 N   0  0  0  0  0  0  0  0  0  0  0  0
   17.5872   18.4555    4.6774 C   0  0  0  0  0  0  0  0  0  0  0  0
   18.1591   18.9105    3.6685 O   0  0  0  0  0  0  0  0  0  0  0  0
   16.0020   18.5491    5.8267 H   0  0  0  0  0  0  0  0  0  0  0  0
   18.1846   17.4315    5.4371 O   0  0  0  0  0  0  0  0  0  0  0  0
   19.2868   17.9300    6.1699 C   0  0  0  0  0  0  0  0  0  0  0  0
   14.4151   19.4743    3.7320 C   0  0  0  0  0  0  0  0  0  0  0  0
   14.1936   19.9850    2.2907 C   0  0  0  0  0  0  0  0  0  0  0  0
   13.2614   19.9790    4.6513 C   0  0  0  0  0  0  0  0  0  0  0  0
   14.4294   17.8903    3.7341 C   0  0  0  0  0  0  0  0  0  0  0  0
   14.4320   21.4456    8.0244 C   0  0  0  0  0  0  0  0  0  0  0  0
   13.4530   22.5707    8.0141 C   0  0  0  0  0  0  0  0  0  0  0  0
   12.5409   22.6788    7.0054 C   0  0  0  0  0  0  0  0  0  0  0  0
   11.6202   23.7432    6.9922 C   0  0  0  0  0  0  0  0  0  0  0  0
   13.4725   23.5382    9.0495 C   0  0  0  0  0  0  0  0  0  0  0  0
   12.5520   24.5998    9.0328 C   0  0  0  0  0  0  0  0  0  0  0  0
   11.6237   24.6922    7.9970 C   0  0  0  0  0  0  0  0  0  0  0  0
   10.6867   25.7671    7.9582 C   0  0  0  0  0  0  0  0  0  0  0  0
    9.9395   25.9714    6.7637 C   0  0  0  0  0  0  0  0  0  0  0  0
    9.0085   26.9973    6.6723 C   0  0  0  0  0  0  0  0  0  0  0  0
    8.7942   27.8315    7.7445 N   0  0  0  0  0  0  0  0  0  0  0  0
    9.5222   27.6429    8.9394 C   0  0  0  0  0  0  0  0  0  0  0  0
   10.4812   26.5850    9.0345 C   0  0  0  0  0  0  0  0  0  0  0  0
 56 57  1  0  0  0
 56 55  2  0  0  0
 57 58  2  0  0  0
 58 59  1  0  0  0
 59 60  2  0  0  0
 60 55  1  0  0  0
 55 54  1  0  0  0
 54 53  1  0  0  0
 54 51  2  0  0  0
 53 52  2  0  0  0
 52 49  1  0  0  0
 51 50  1  0  0  0
 50 49  2  0  0  0
 49 48  1  0  0  0
 48 32  1  0  0  0
 32 33  1  0  0  0
 32 31  1  0  0  0
 33 34  1  0  0  0
 34 35  2  0  0  0
 34 37  1  0  0  0
 37 44  1  0  0  0
 37 38  1  0  0  0
 44 45  1  0  0  0
 44 46  1  0  0  0
 44 47  1  0  0  0
 38 39  1  0  0  0
 39 40  2  0  0  0
 39 42  1  0  0  0
 42 43  1  0  0  0
 31  1  1  0  0  0
  1  2  1  0  0  0
  2  4  1  0  0  0
  4 21  1  0  0  0
  4  3  1  0  0  0
  4  6  1  0  0  0
 21 27  1  0  0  0
 27 26  1  0  0  0
 27 24  2  0  0  0
 26 25  2  0  0  0
 25 22  1  0  0  0
 24 23  1  0  0  0
 23 22  2  0  0  0
 22 28  1  0  0  0
 28 30  1  0  0  0
 30 29  2  0  0  0
  6  7  2  0  0  0
  6  8  1  0  0  0
  8 10  1  0  0  0
 10 18  1  0  0  0
 10 11  1  0  0  0
 18 19  1  0  0  0
 18 20  1  0  0  0
 11 12  2  0  0  0
 11 13  1  0  0  0
 13 15  1  0  0  0
 15 16  1  0  0  0
 16 17  2  0  0  0
  8  9  1  0  0  0
 13 14  1  0  0  0
  3  5  1  0  0  0
 33 36  1  0  0  0
 38 41  1  0  0  0
M  END
> <minimizedAffinity>
-9.19143

$$$$
4CP7_9MW_A_1101


 60 62  0  0  0  0  0  0  0  0999 V2000
   13.7052   23.4740    4.3558 C   0  0  0  0  0  0  0  0  0  0  0  0
   12.3758   23.9167    4.8281 C   0  0  0  0  0  0  0  0  0  0  0  0
   11.9447   21.7146    4.0355 O   0  0  0  0  0  0  0  0  0  0  0  0
   11.4126   22.7753    4.8103 C   0  0  0  0  0  0  0  0  0  0  0  0
   12.7961   21.4373    4.4085 H   0  0  0  0  0  0  0  0  0  0  0  0
   10.0087   23.2371    4.2006 C   0  0  0  0  0  0  0  0  0  0  0  0
    9.2087   22.4154    3.7390 O   0  0  0  0  0  0  0  0  0  0  0  0
    9.7835   24.5609    4.2325 N   0  0  0  0  0  0  0  0  0  0  0  0
   10.4611   25.1574    4.6252 H   0  0  0  0  0  0  0  0  0  0  0  0
    8.5103   25.1502    3.6769 C   0  0  0  0  0  0  0  0  0  0  0  0
    8.7905   25.5732    2.1575 C   0  0  0  0  0  0  0  0  0  0  0  0
    9.3968   24.8134    1.3675 O   0  0  0  0  0  0  0  0  0  0  0  0
    8.3405   26.7181    1.8269 N   0  0  0  0  0  0  0  0  0  0  0  0
    7.8652   27.2591    2.4981 H   0  0  0  0  0  0  0  0  0  0  0  0
    8.5089   27.2379    0.5032 C   0  0  0  0  0  0  0  0  0  0  0  0
    7.3042   26.9397   -0.2776 C   0  0  0  0  0  0  0  0  0  0  0  0
    7.2393   27.3384   -1.7308 C   0  0  0  0  0  0  0  0  0  0  0  0
    7.9765   26.4369    4.5588 C   0  0  0  0  0  0  0  0  0  0  0  0
    6.6411   26.0930    5.2581 C   0  0  0  0  0  0  0  0  0  0  0  0
    9.0402   26.8503    5.6168 C   0  0  0  0  0  0  0  0  0  0  0  0
   11.1917   22.2771    6.3155 C   0  0  0  0  0  0  0  0  0  0  0  0
   10.6515   25.6111    8.8752 C   0  0  0  0  0  0  0  0  0  0  0  0
    9.5493   25.0164    8.2513 C   0  0  0  0  0  0  0  0  0  0  0  0
    9.7355   23.9056    7.4003 C   0  0  0  0  0  0  0  0  0  0  0  0
   11.9376   25.0978    8.6483 C   0  0  0  0  0  0  0  0  0  0  0  0
   12.1161   23.9982    7.8046 C   0  0  0  0  0  0  0  0  0  0  0  0
   11.0091   23.4027    7.1798 C   0  0  0  0  0  0  0  0  0  0  0  0
   10.4752   26.7426    9.7433 C   0  0  0  0  0  0  0  0  0  0  0  0
    8.1135   27.7709    9.3971 C   0  0  0  0  0  0  0  0  0  0  0  0
    9.6026   27.7569    9.0981 C   0  0  0  0  0  0  0  0  0  0  0  0
   14.6921   23.6894    5.4479 C   0  0  0  0  0  0  0  0  0  0  0  0
   15.0068   22.4277    6.1343 N   0  0  0  0  0  0  0  0  0  0  0  0
   15.6585   21.7538    5.4474 N   0  0  0  0  0  0  0  0  0  0  0  0
   15.1647   20.5328    5.0828 C   0  0  0  0  0  0  0  0  0  0  0  0
   14.0493   20.0843    5.4359 O   0  0  0  0  0  0  0  0  0  0  0  0
   16.5428   22.0546    5.1363 H   0  0  0  0  0  0  0  0  0  0  0  0
   16.1227   19.7210    4.1899 C   0  0  0  0  0  0  0  0  0  0  0  0
   16.7332   18.6876    5.0271 N   0  0  0  0  0  0  0  0  0  0  0  0
   17.9586   18.7609    5.3917 C   0  0  0  0  0  0  0  0  0  0  0  0
   18.6593   19.7250    5.0291 O   0  0  0  0  0  0  0  0  0  0  0  0
   16.1900   17.9192    5.3164 H   0  0  0  0  0  0  0  0  0  0  0  0
   18.5032   17.7458    6.2014 O   0  0  0  0  0  0  0  0  0  0  0  0
   19.6428   18.2160    6.8946 C   0  0  0  0  0  0  0  0  0  0  0  0
   15.3862   19.0510    2.9842 C   0  0  0  0  0  0  0  0  0  0  0  0
   14.4706   20.0819    2.2868 C   0  0  0  0  0  0  0  0  0  0  0  0
   14.5335   17.8464    3.4869 C   0  0  0  0  0  0  0  0  0  0  0  0
   16.4721   18.5289    1.9558 C   0  0  0  0  0  0  0  0  0  0  0  0
   15.8013   22.7695    7.2223 C   0  0  0  0  0  0  0  0  0  0  0  0
   16.0879   21.6301    8.1410 C   0  0  0  0  0  0  0  0  0  0  0  0
   15.0710   21.0148    8.8107 C   0  0  0  0  0  0  0  0  0  0  0  0
   15.3413   19.9431    9.6820 C   0  0  0  0  0  0  0  0  0  0  0  0
   17.4210   21.1874    8.3286 C   0  0  0  0  0  0  0  0  0  0  0  0
   17.6871   20.1173    9.1995 C   0  0  0  0  0  0  0  0  0  0  0  0
   16.6356   19.4969    9.8721 C   0  0  0  0  0  0  0  0  0  0  0  0
   16.8866   18.4144   10.7666 C   0  0  0  0  0  0  0  0  0  0  0  0
   16.1420   17.2123   10.6008 C   0  0  0  0  0  0  0  0  0  0  0  0
   16.3501   16.1242   11.4376 C   0  0  0  0  0  0  0  0  0  0  0  0
   17.2874   16.1956   12.4415 N   0  0  0  0  0  0  0  0  0  0  0  0
   18.0389   17.3774   12.6198 C   0  0  0  0  0  0  0  0  0  0  0  0
   17.8256   18.4989   11.7569 C   0  0  0  0  0  0  0  0  0  0  0  0
 56 57  1  0  0  0
 56 55  2  0  0  0
 57 58  2  0  0  0
 58 59  1  0  0  0
 59 60  2  0  0  0
 60 55  1  0  0  0
 55 54  1  0  0  0
 54 53  1  0  0  0
 54 51  2  0  0  0
 53 52  2  0  0  0
 52 49  1  0  0  0
 51 50  1  0  0  0
 50 49  2  0  0  0
 49 48  1  0  0  0
 48 32  1  0  0  0
 32 33  1  0  0  0
 32 31  1  0  0  0
 33 34  1  0  0  0
 34 35  2  0  0  0
 34 37  1  0  0  0
 37 44  1  0  0  0
 37 38  1  0  0  0
 44 45  1  0  0  0
 44 46  1  0  0  0
 44 47  1  0  0  0
 38 39  1  0  0  0
 39 40  2  0  0  0
 39 42  1  0  0  0
 42 43  1  0  0  0
 31  1  1  0  0  0
  1  2  1  0  0  0
  2  4  1  0  0  0
  4 21  1  0  0  0
  4  3  1  0  0  0
  4  6  1  0  0  0
 21 27  1  0  0  0
 27 26  1  0  0  0
 27 24  2  0  0  0
 26 25  2  0  0  0
 25 22  1  0  0  0
 24 23  1  0  0  0
 23 22  2  0  0  0
 22 28  1  0  0  0
 28 30  1  0  0  0
 30 29  2  0  0  0
  6  7  2  0  0  0
  6  8  1  0  0  0
  8 10  1  0  0  0
 10 18  1  0  0  0
 10 11  1  0  0  0
 18 19  1  0  0  0
 18 20  1  0  0  0
 11 12  2  0  0  0
 11 13  1  0  0  0
 13 15  1  0  0  0
 15 16  1  0  0  0
 16 17  2  0  0  0
  8  9  1  0  0  0
 13 14  1  0  0  0
  3  5  1  0  0  0
 33 36  1  0  0  0
 38 41  1  0  0  0
M  END
> <minimizedAffinity>
-9.14550

$$$$
4CP7_9MW_A_1101


 60 62  0  0  0  0  0  0  0  0999 V2000
   17.1756   20.3856    8.6776 C   0  0  0  0  0  0  0  0  0  0  0  0
   18.3030   19.6793    8.0322 C   0  0  0  0  0  0  0  0  0  0  0  0
   20.6246   20.0594    8.3917 O   0  0  0  0  0  0  0  0  0  0  0  0
   19.4450   19.5454    8.9856 C   0  0  0  0  0  0  0  0  0  0  0  0
   20.4871   20.9891    8.1517 H   0  0  0  0  0  0  0  0  0  0  0  0
   19.6650   18.0127    9.3836 C   0  0  0  0  0  0  0  0  0  0  0  0
   20.7753   17.4779    9.2857 O   0  0  0  0  0  0  0  0  0  0  0  0
   18.5659   17.3756    9.8198 N   0  0  0  0  0  0  0  0  0  0  0  0
   17.7152   17.8670    9.8826 H   0  0  0  0  0  0  0  0  0  0  0  0
   18.6120   15.9201   10.2152 C   0  0  0  0  0  0  0  0  0  0  0  0
   18.8150   15.0579    8.8806 C   0  0  0  0  0  0  0  0  0  0  0  0
   17.9212   14.9845    8.0062 O   0  0  0  0  0  0  0  0  0  0  0  0
   19.9450   14.4783    8.7822 N   0  0  0  0  0  0  0  0  0  0  0  0
   20.6048   14.5870    9.5048 H   0  0  0  0  0  0  0  0  0  0  0  0
   20.2797   13.6724    7.6467 C   0  0  0  0  0  0  0  0  0  0  0  0
   21.1145   14.4628    6.7368 C   0  0  0  0  0  0  0  0  0  0  0  0
   22.5498   14.7500    7.1008 C   0  0  0  0  0  0  0  0  0  0  0  0
   17.2557   15.4457   11.0237 C   0  0  0  0  0  0  0  0  0  0  0  0
   17.5461   15.3254   12.5375 C   0  0  0  0  0  0  0  0  0  0  0  0
   16.0970   16.4561   10.7827 C   0  0  0  0  0  0  0  0  0  0  0  0
   19.1029   20.3853   10.3048 C   0  0  0  0  0  0  0  0  0  0  0  0
   22.6685   21.9217   12.0034 C   0  0  0  0  0  0  0  0  0  0  0  0
   22.0231   22.6154   10.9739 C   0  0  0  0  0  0  0  0  0  0  0  0
   20.8352   22.0990   10.4125 C   0  0  0  0  0  0  0  0  0  0  0  0
   22.1289   20.7135   12.4704 C   0  0  0  0  0  0  0  0  0  0  0  0
   20.9530   20.2068   11.9108 C   0  0  0  0  0  0  0  0  0  0  0  0
   20.3067   20.9042   10.8782 C   0  0  0  0  0  0  0  0  0  0  0  0
   23.8785   22.4368   12.5827 C   0  0  0  0  0  0  0  0  0  0  0  0
   22.6523   23.9656   14.2896 C   0  0  0  0  0  0  0  0  0  0  0  0
   23.6411   22.8526   13.9888 C   0  0  0  0  0  0  0  0  0  0  0  0
   16.9514   21.6717    7.9641 C   0  0  0  0  0  0  0  0  0  0  0  0
   15.7534   21.6043    7.1143 N   0  0  0  0  0  0  0  0  0  0  0  0
   15.8682   20.7513    6.3332 N   0  0  0  0  0  0  0  0  0  0  0  0
   15.7058   21.0587    5.0115 C   0  0  0  0  0  0  0  0  0  0  0  0
   15.4430   22.2039    4.5764 O   0  0  0  0  0  0  0  0  0  0  0  0
   16.0768   19.8317    6.6162 H   0  0  0  0  0  0  0  0  0  0  0  0
   15.8607   19.8470    4.0724 C   0  0  0  0  0  0  0  0  0  0  0  0
   16.6058   18.8196    4.8009 N   0  0  0  0  0  0  0  0  0  0  0  0
   17.7556   18.4200    4.4032 C   0  0  0  0  0  0  0  0  0  0  0  0
   18.2607   18.9044    3.3725 O   0  0  0  0  0  0  0  0  0  0  0  0
   16.2146   18.4270    5.6146 H   0  0  0  0  0  0  0  0  0  0  0  0
   18.4391   17.4323    5.1381 O   0  0  0  0  0  0  0  0  0  0  0  0
   18.2301   16.1532    4.5720 C   0  0  0  0  0  0  0  0  0  0  0  0
   14.4811   19.2691    3.6162 C   0  0  0  0  0  0  0  0  0  0  0  0
   13.3520   19.8355    4.5061 C   0  0  0  0  0  0  0  0  0  0  0  0
   14.4987   17.7133    3.7166 C   0  0  0  0  0  0  0  0  0  0  0  0
   14.2291   19.6925    2.1107 C   0  0  0  0  0  0  0  0  0  0  0  0
   14.7076   21.2356    7.9521 C   0  0  0  0  0  0  0  0  0  0  0  0
   13.6631   22.2882    8.1117 C   0  0  0  0  0  0  0  0  0  0  0  0
   12.6675   22.4140    7.1875 C   0  0  0  0  0  0  0  0  0  0  0  0
   11.6847   23.4106    7.3345 C   0  0  0  0  0  0  0  0  0  0  0  0
   13.7064   23.1689    9.2212 C   0  0  0  0  0  0  0  0  0  0  0  0
   12.7236   24.1629    9.3645 C   0  0  0  0  0  0  0  0  0  0  0  0
   11.7106   24.2742    8.4133 C   0  0  0  0  0  0  0  0  0  0  0  0
   10.7088   25.2821    8.5371 C   0  0  0  0  0  0  0  0  0  0  0  0
    9.4114   25.0151    8.0151 C   0  0  0  0  0  0  0  0  0  0  0  0
    8.3959   25.9565    8.1143 C   0  0  0  0  0  0  0  0  0  0  0  0
    8.6335   27.1653    8.7257 N   0  0  0  0  0  0  0  0  0  0  0  0
    9.9122   27.4477    9.2534 C   0  0  0  0  0  0  0  0  0  0  0  0
   10.9591   26.4773    9.1522 C   0  0  0  0  0  0  0  0  0  0  0  0
 56 57  1  0  0  0
 56 55  2  0  0  0
 57 58  2  0  0  0
 58 59  1  0  0  0
 59 60  2  0  0  0
 60 55  1  0  0  0
 55 54  1  0  0  0
 54 53  1  0  0  0
 54 51  2  0  0  0
 53 52  2  0  0  0
 52 49  1  0  0  0
 51 50  1  0  0  0
 50 49  2  0  0  0
 49 48  1  0  0  0
 48 32  1  0  0  0
 32 33  1  0  0  0
 32 31  1  0  0  0
 33 34  1  0  0  0
 34 35  2  0  0  0
 34 37  1  0  0  0
 37 44  1  0  0  0
 37 38  1  0  0  0
 44 45  1  0  0  0
 44 46  1  0  0  0
 44 47  1  0  0  0
 38 39  1  0  0  0
 39 40  2  0  0  0
 39 42  1  0  0  0
 42 43  1  0  0  0
 31  1  1  0  0  0
  1  2  1  0  0  0
  2  4  1  0  0  0
  4 21  1  0  0  0
  4  3  1  0  0  0
  4  6  1  0  0  0
 21 27  1  0  0  0
 27 26  1  0  0  0
 27 24  2  0  0  0
 26 25  2  0  0  0
 25 22  1  0  0  0
 24 23  1  0  0  0
 23 22  2  0  0  0
 22 28  1  0  0  0
 28 30  1  0  0  0
 30 29  2  0  0  0
  6  7  2  0  0  0
  6  8  1  0  0  0
  8 10  1  0  0  0
 10 18  1  0  0  0
 10 11  1  0  0  0
 18 19  1  0  0  0
 18 20  1  0  0  0
 11 12  2  0  0  0
 11 13  1  0  0  0
 13 15  1  0  0  0
 15 16  1  0  0  0
 16 17  2  0  0  0
  8  9  1  0  0  0
 13 14  1  0  0  0
  3  5  1  0  0  0
 33 36  1  0  0  0
 38 41  1  0  0  0
M  END
> <minimizedAffinity>
-9.10441

$$$$
4CP7_9MW_A_1101


 60 62  0  0  0  0  0  0  0  0999 V2000
   12.6711   21.5976    6.9705 C   0  0  0  0  0  0  0  0  0  0  0  0
   13.6269   22.7090    6.7767 C   0  0  0  0  0  0  0  0  0  0  0  0
   15.4244   23.9037    7.7794 O   0  0  0  0  0  0  0  0  0  0  0  0
   14.6066   22.7529    7.9033 C   0  0  0  0  0  0  0  0  0  0  0  0
   14.8673   24.6978    7.7799 H   0  0  0  0  0  0  0  0  0  0  0  0
   15.5190   21.4401    7.9031 C   0  0  0  0  0  0  0  0  0  0  0  0
   15.2280   20.4570    7.2122 O   0  0  0  0  0  0  0  0  0  0  0  0
   16.5988   21.4986    8.6998 N   0  0  0  0  0  0  0  0  0  0  0  0
   16.7757   22.3188    9.2149 H   0  0  0  0  0  0  0  0  0  0  0  0
   17.5456   20.3298    8.8194 C   0  0  0  0  0  0  0  0  0  0  0  0
   16.9576   19.3371    9.9307 C   0  0  0  0  0  0  0  0  0  0  0  0
   16.6892   19.7348   11.0878 O   0  0  0  0  0  0  0  0  0  0  0  0
   16.7777   18.1384    9.5391 N   0  0  0  0  0  0  0  0  0  0  0  0
   17.0028   17.8976    8.6114 H   0  0  0  0  0  0  0  0  0  0  0  0
   16.2561   17.1323   10.4146 C   0  0  0  0  0  0  0  0  0  0  0  0
   17.1949   16.0066   10.4519 C   0  0  0  0  0  0  0  0  0  0  0  0
   17.9604   15.6320    9.2075 C   0  0  0  0  0  0  0  0  0  0  0  0
   19.0792   20.8000    9.2003 C   0  0  0  0  0  0  0  0  0  0  0  0
   19.8742   19.6136    9.7927 C   0  0  0  0  0  0  0  0  0  0  0  0
   19.8075   21.3528    7.9411 C   0  0  0  0  0  0  0  0  0  0  0  0
   13.7913   22.8240    9.2792 C   0  0  0  0  0  0  0  0  0  0  0  0
   11.0816   26.0810    9.1849 C   0  0  0  0  0  0  0  0  0  0  0  0
   11.5314   25.5744   10.4091 C   0  0  0  0  0  0  0  0  0  0  0  0
   12.4346   24.4897   10.4342 C   0  0  0  0  0  0  0  0  0  0  0  0
   11.5324   25.5042    7.9877 C   0  0  0  0  0  0  0  0  0  0  0  0
   12.4262   24.4305    8.0184 C   0  0  0  0  0  0  0  0  0  0  0  0
   12.8765   23.9237    9.2476 C   0  0  0  0  0  0  0  0  0  0  0  0
   10.1618   27.1844    9.1462 C   0  0  0  0  0  0  0  0  0  0  0  0
    7.6067   27.6112    8.9368 C   0  0  0  0  0  0  0  0  0  0  0  0
    8.7662   26.6984    9.2962 C   0  0  0  0  0  0  0  0  0  0  0  0
   12.2112   21.1298    5.6353 C   0  0  0  0  0  0  0  0  0  0  0  0
   13.1364   21.5584    4.5760 N   0  0  0  0  0  0  0  0  0  0  0  0
   13.8617   20.6909    4.3073 N   0  0  0  0  0  0  0  0  0  0  0  0
   15.1612   21.0004    4.0190 C   0  0  0  0  0  0  0  0  0  0  0  0
   15.6326   22.1613    4.0263 O   0  0  0  0  0  0  0  0  0  0  0  0
   13.5483   19.7578    4.2880 H   0  0  0  0  0  0  0  0  0  0  0  0
   16.0224   19.7745    3.6585 C   0  0  0  0  0  0  0  0  0  0  0  0
   16.3997   19.1195    4.9116 N   0  0  0  0  0  0  0  0  0  0  0  0
   17.6274   18.9380    5.2272 C   0  0  0  0  0  0  0  0  0  0  0  0
   18.5306   19.3180    4.4579 O   0  0  0  0  0  0  0  0  0  0  0  0
   15.6942   18.8116    5.5254 H   0  0  0  0  0  0  0  0  0  0  0  0
   17.9444   18.3071    6.4455 O   0  0  0  0  0  0  0  0  0  0  0  0
   19.3081   17.9332    6.4754 C   0  0  0  0  0  0  0  0  0  0  0  0
   15.2586   18.7599    2.7463 C   0  0  0  0  0  0  0  0  0  0  0  0
   14.3400   17.8645    3.6075 C   0  0  0  0  0  0  0  0  0  0  0  0
   16.2790   17.8728    1.9699 C   0  0  0  0  0  0  0  0  0  0  0  0
   14.3804   19.5745    1.7098 C   0  0  0  0  0  0  0  0  0  0  0  0
   12.3539   21.7832    3.4495 C   0  0  0  0  0  0  0  0  0  0  0  0
   11.2908   22.8099    3.6491 C   0  0  0  0  0  0  0  0  0  0  0  0
   11.5987   24.0203    4.1980 C   0  0  0  0  0  0  0  0  0  0  0  0
   10.5950   24.9876    4.3917 C   0  0  0  0  0  0  0  0  0  0  0  0
    9.9527   22.5280    3.2768 C   0  0  0  0  0  0  0  0  0  0  0  0
    8.9532   23.4962    3.4721 C   0  0  0  0  0  0  0  0  0  0  0  0
    9.2864   24.7295    4.0297 C   0  0  0  0  0  0  0  0  0  0  0  0
    8.2842   25.7219    4.2433 C   0  0  0  0  0  0  0  0  0  0  0  0
    7.0945   25.6618    3.4637 C   0  0  0  0  0  0  0  0  0  0  0  0
    6.0827   26.5969    3.6346 C   0  0  0  0  0  0  0  0  0  0  0  0
    6.2187   27.5973    4.5684 N   0  0  0  0  0  0  0  0  0  0  0  0
    7.3892   27.6718    5.3544 C   0  0  0  0  0  0  0  0  0  0  0  0
    8.4321   26.7076    5.1794 C   0  0  0  0  0  0  0  0  0  0  0  0
 56 57  1  0  0  0
 56 55  2  0  0  0
 57 58  2  0  0  0
 58 59  1  0  0  0
 59 60  2  0  0  0
 60 55  1  0  0  0
 55 54  1  0  0  0
 54 53  1  0  0  0
 54 51  2  0  0  0
 53 52  2  0  0  0
 52 49  1  0  0  0
 51 50  1  0  0  0
 50 49  2  0  0  0
 49 48  1  0  0  0
 48 32  1  0  0  0
 32 33  1  0  0  0
 32 31  1  0  0  0
 33 34  1  0  0  0
 34 35  2  0  0  0
 34 37  1  0  0  0
 37 44  1  0  0  0
 37 38  1  0  0  0
 44 45  1  0  0  0
 44 46  1  0  0  0
 44 47  1  0  0  0
 38 39  1  0  0  0
 39 40  2  0  0  0
 39 42  1  0  0  0
 42 43  1  0  0  0
 31  1  1  0  0  0
  1  2  1  0  0  0
  2  4  1  0  0  0
  4 21  1  0  0  0
  4  3  1  0  0  0
  4  6  1  0  0  0
 21 27  1  0  0  0
 27 26  1  0  0  0
 27 24  2  0  0  0
 26 25  2  0  0  0
 25 22  1  0  0  0
 24 23  1  0  0  0
 23 22  2  0  0  0
 22 28  1  0  0  0
 28 30  1  0  0  0
 30 29  2  0  0  0
  6  7  2  0  0  0
  6  8  1  0  0  0
  8 10  1  0  0  0
 10 18  1  0  0  0
 10 11  1  0  0  0
 18 19  1  0  0  0
 18 20  1  0  0  0
 11 12  2  0  0  0
 11 13  1  0  0  0
 13 15  1  0  0  0
 15 16  1  0  0  0
 16 17  2  0  0  0
  8  9  1  0  0  0
 13 14  1  0  0  0
  3  5  1  0  0  0
 33 36  1  0  0  0
 38 41  1  0  0  0
M  END
> <minimizedAffinity>
-8.82629

$$$$
4CP7_9MW_A_1101


 60 62  0  0  0  0  0  0  0  0999 V2000
    9.8821   24.3871    3.3863 C   0  0  0  0  0  0  0  0  0  0  0  0
    8.6266   24.9811    3.8935 C   0  0  0  0  0  0  0  0  0  0  0  0
    9.0353   26.6000    2.1978 O   0  0  0  0  0  0  0  0  0  0  0  0
    8.0170   25.8679    2.8577 C   0  0  0  0  0  0  0  0  0  0  0  0
    9.6653   25.9840    1.7923 H   0  0  0  0  0  0  0  0  0  0  0  0
    6.9748   26.8778    3.5286 C   0  0  0  0  0  0  0  0  0  0  0  0
    6.6266   27.9154    2.9537 O   0  0  0  0  0  0  0  0  0  0  0  0
    6.5256   26.5090    4.7395 N   0  0  0  0  0  0  0  0  0  0  0  0
    6.8377   25.6627    5.1339 H   0  0  0  0  0  0  0  0  0  0  0  0
    5.5511   27.3689    5.5063 C   0  0  0  0  0  0  0  0  0  0  0  0
    5.9401   27.2830    7.0578 C   0  0  0  0  0  0  0  0  0  0  0  0
    5.3004   27.9155    7.9293 O   0  0  0  0  0  0  0  0  0  0  0  0
    6.9260   26.5210    7.3230 N   0  0  0  0  0  0  0  0  0  0  0  0
    7.3774   26.0468    6.5878 H   0  0  0  0  0  0  0  0  0  0  0  0
    7.3939   26.3371    8.6639 C   0  0  0  0  0  0  0  0  0  0  0  0
    8.0290   27.5786    9.1165 C   0  0  0  0  0  0  0  0  0  0  0  0
    9.3652   27.9840    8.5462 C   0  0  0  0  0  0  0  0  0  0  0  0
    3.9854   26.9125    5.2643 C   0  0  0  0  0  0  0  0  0  0  0  0
    3.5427   25.9096    6.3546 C   0  0  0  0  0  0  0  0  0  0  0  0
    3.0488   28.1552    5.2725 C   0  0  0  0  0  0  0  0  0  0  0  0
    7.2474   24.9497    1.7959 C   0  0  0  0  0  0  0  0  0  0  0  0
    3.4434   23.8635    3.3157 C   0  0  0  0  0  0  0  0  0  0  0  0
    3.5462   24.7859    2.2687 C   0  0  0  0  0  0  0  0  0  0  0  0
    4.8162   25.1433    1.7661 C   0  0  0  0  0  0  0  0  0  0  0  0
    4.6073   23.3000    3.8606 C   0  0  0  0  0  0  0  0  0  0  0  0
    5.8618   23.6576    3.3595 C   0  0  0  0  0  0  0  0  0  0  0  0
    5.9630   24.5830    2.3089 C   0  0  0  0  0  0  0  0  0  0  0  0
    2.1566   23.4920    3.8363 C   0  0  0  0  0  0  0  0  0  0  0  0
    1.8189   21.6347    2.0499 C   0  0  0  0  0  0  0  0  0  0  0  0
    1.8541   22.0765    3.5027 C   0  0  0  0  0  0  0  0  0  0  0  0
   11.0145   24.9069    4.1991 C   0  0  0  0  0  0  0  0  0  0  0  0
   11.9424   23.8272    4.5668 N   0  0  0  0  0  0  0  0  0  0  0  0
   11.8782   23.6201    5.7086 N   0  0  0  0  0  0  0  0  0  0  0  0
   13.0054   23.7933    6.4616 C   0  0  0  0  0  0  0  0  0  0  0  0
   14.1122   24.1655    6.0070 O   0  0  0  0  0  0  0  0  0  0  0  0
   11.0341   23.3277    6.1225 H   0  0  0  0  0  0  0  0  0  0  0  0
   12.8059   23.4704    7.9549 C   0  0  0  0  0  0  0  0  0  0  0  0
   14.1297   23.2397    8.5346 N   0  0  0  0  0  0  0  0  0  0  0  0
   14.6443   22.0679    8.5794 C   0  0  0  0  0  0  0  0  0  0  0  0
   14.0134   21.0933    8.1277 O   0  0  0  0  0  0  0  0  0  0  0  0
   14.6357   24.0020    8.8981 H   0  0  0  0  0  0  0  0  0  0  0  0
   15.9231   21.8931    9.1423 O   0  0  0  0  0  0  0  0  0  0  0  0
   16.8775   21.6097    8.1377 C   0  0  0  0  0  0  0  0  0  0  0  0
   12.0925   24.6305    8.7232 C   0  0  0  0  0  0  0  0  0  0  0  0
   10.5643   24.5395    8.5146 C   0  0  0  0  0  0  0  0  0  0  0  0
   12.6122   26.0067    8.2066 C   0  0  0  0  0  0  0  0  0  0  0  0
   12.4236   24.4931   10.2662 C   0  0  0  0  0  0  0  0  0  0  0  0
   11.4738   22.6839    3.9302 C   0  0  0  0  0  0  0  0  0  0  0  0
   12.5290   21.6619    3.6728 C   0  0  0  0  0  0  0  0  0  0  0  0
   13.1315   21.5889    2.4510 C   0  0  0  0  0  0  0  0  0  0  0  0
   14.1235   20.6212    2.2056 C   0  0  0  0  0  0  0  0  0  0  0  0
   12.9042   20.7556    4.6957 C   0  0  0  0  0  0  0  0  0  0  0  0
   13.8948   19.7905    4.4469 C   0  0  0  0  0  0  0  0  0  0  0  0
   14.5034   19.7332    3.1942 C   0  0  0  0  0  0  0  0  0  0  0  0
   15.5051   18.7553    2.9200 C   0  0  0  0  0  0  0  0  0  0  0  0
   16.1178   18.0871    4.0178 C   0  0  0  0  0  0  0  0  0  0  0  0
   17.0930   17.1211    3.8096 C   0  0  0  0  0  0  0  0  0  0  0  0
   17.4781   16.7945    2.5304 N   0  0  0  0  0  0  0  0  0  0  0  0
   16.8797   17.4428    1.4282 C   0  0  0  0  0  0  0  0  0  0  0  0
   15.8737   18.4379    1.6421 C   0  0  0  0  0  0  0  0  0  0  0  0
 56 57  1  0  0  0
 56 55  2  0  0  0
 57 58  2  0  0  0
 58 59  1  0  0  0
 59 60  2  0  0  0
 60 55  1  0  0  0
 55 54  1  0  0  0
 54 53  1  0  0  0
 54 51  2  0  0  0
 53 52  2  0  0  0
 52 49  1  0  0  0
 51 50  1  0  0  0
 50 49  2  0  0  0
 49 48  1  0  0  0
 48 32  1  0  0  0
 32 33  1  0  0  0
 32 31  1  0  0  0
 33 34  1  0  0  0
 34 35  2  0  0  0
 34 37  1  0  0  0
 37 44  1  0  0  0
 37 38  1  0  0  0
 44 45  1  0  0  0
 44 46  1  0  0  0
 44 47  1  0  0  0
 38 39  1  0  0  0
 39 40  2  0  0  0
 39 42  1  0  0  0
 42 43  1  0  0  0
 31  1  1  0  0  0
  1  2  1  0  0  0
  2  4  1  0  0  0
  4 21  1  0  0  0
  4  3  1  0  0  0
  4  6  1  0  0  0
 21 27  1  0  0  0
 27 26  1  0  0  0
 27 24  2  0  0  0
 26 25  2  0  0  0
 25 22  1  0  0  0
 24 23  1  0  0  0
 23 22  2  0  0  0
 22 28  1  0  0  0
 28 30  1  0  0  0
 30 29  2  0  0  0
  6  7  2  0  0  0
  6  8  1  0  0  0
  8 10  1  0  0  0
 10 18  1  0  0  0
 10 11  1  0  0  0
 18 19  1  0  0  0
 18 20  1  0  0  0
 11 12  2  0  0  0
 11 13  1  0  0  0
 13 15  1  0  0  0
 15 16  1  0  0  0
 16 17  2  0  0  0
  8  9  1  0  0  0
 13 14  1  0  0  0
  3  5  1  0  0  0
 33 36  1  0  0  0
 38 41  1  0  0  0
M  END
> <minimizedAffinity>
-8.82447

$$$$
