1N4H_REA_A_500


 23 23  0  0  0  0  0  0  0  0999 V2000
   26.3043   28.6080    8.4560 C   0  0  0  0  0  0  0  0  0  0  0  0
   26.2168   27.2482    8.2671 C   0  0  0  0  0  0  0  0  0  0  0  0
   27.3429   29.2528    9.4265 C   0  0  0  0  0  0  0  0  0  0  0  0
   25.5610   30.7931    7.4777 C   0  0  0  0  0  0  0  0  0  0  0  0
   25.3885   29.4616    7.7075 C   0  0  0  0  0  0  0  0  0  0  0  0
   23.7854   32.6811    7.8964 C   0  0  0  0  0  0  0  0  0  0  0  0
   23.2737   34.0154    7.2137 C   0  0  0  0  0  0  0  0  0  0  0  0
   22.8139   33.9416    5.7568 C   0  0  0  0  0  0  0  0  0  0  0  0
   23.6840   33.1112    4.7997 C   0  0  0  0  0  0  0  0  0  0  0  0
   24.6104   32.0360    5.4689 C   0  0  0  0  0  0  0  0  0  0  0  0
   24.6725   31.8192    6.8585 C   0  0  0  0  0  0  0  0  0  0  0  0
   22.5427   31.8647    8.3601 C   0  0  0  0  0  0  0  0  0  0  0  0
   24.6289   33.1430    9.1245 C   0  0  0  0  0  0  0  0  0  0  0  0
   25.3928   31.3089    4.3658 C   0  0  0  0  0  0  0  0  0  0  0  0
   27.0826   26.3153    8.9649 C   0  0  0  0  0  0  0  0  0  0  0  0
   26.6180   25.3820    9.7888 C   0  0  0  0  0  0  0  0  0  0  0  0
   27.4834   24.4417   10.4946 C   0  0  0  0  0  0  0  0  0  0  0  0
   27.4419   23.1634   10.0463 C   0  0  0  0  0  0  0  0  0  0  0  0
   28.3953   24.9423   11.6831 C   0  0  0  0  0  0  0  0  0  0  0  0
   28.1200   21.9456   10.4596 C   0  0  0  0  0  0  0  0  0  0  0  0
   27.9953   20.9732    9.7485 O   0  0  0  0  0  0  0  0  0  0  0  0
   28.8009   21.8748   11.4736 O   0  0  0  0  0  0  0  0  0  0  0  0
   28.8990   22.6256   12.0255 H   0  0  0  0  0  0  0  0  0  0  0  0
  6  7  1  0  0  0
  6 11  1  0  0  0
  6 12  1  0  0  0
  6 13  1  0  0  0
  7  8  1  0  0  0
  8  9  1  0  0  0
  9 10  1  0  0  0
 10 11  2  0  0  0
 10 14  1  0  0  0
 11  4  1  0  0  0
  4  5  2  0  0  0
  5  1  1  0  0  0
  1  2  2  0  0  0
  1  3  1  0  0  0
  2 15  1  0  0  0
 15 16  2  0  0  0
 16 17  1  0  0  0
 17 18  2  0  0  0
 17 19  1  0  0  0
 18 20  1  0  0  0
 20 21  2  0  0  0
 20 22  1  0  0  0
 22 23  1  0  0  0
M  END
> <minimizedAffinity>
-10.26288

$$$$
1N4H_REA_A_500


 23 23  0  0  0  0  0  0  0  0999 V2000
   25.5483   27.8651    7.6969 C   0  0  0  0  0  0  0  0  0  0  0  0
   26.0734   27.4996    8.9147 C   0  0  0  0  0  0  0  0  0  0  0  0
   25.9190   27.1293    6.3711 C   0  0  0  0  0  0  0  0  0  0  0  0
   24.0486   29.5085    6.5419 C   0  0  0  0  0  0  0  0  0  0  0  0
   24.6073   28.9791    7.6658 C   0  0  0  0  0  0  0  0  0  0  0  0
   23.9794   32.1125    6.2153 C   0  0  0  0  0  0  0  0  0  0  0  0
   23.0674   33.2084    5.5257 C   0  0  0  0  0  0  0  0  0  0  0  0
   21.5845   33.2416    5.8989 C   0  0  0  0  0  0  0  0  0  0  0  0
   20.8672   31.8858    5.9980 C   0  0  0  0  0  0  0  0  0  0  0  0
   21.7872   30.6349    6.2237 C   0  0  0  0  0  0  0  0  0  0  0  0
   23.1890   30.7092    6.3290 C   0  0  0  0  0  0  0  0  0  0  0  0
   24.3767   32.6305    7.6294 C   0  0  0  0  0  0  0  0  0  0  0  0
   25.2378   31.9886    5.3020 C   0  0  0  0  0  0  0  0  0  0  0  0
   20.9014   29.3831    6.3016 C   0  0  0  0  0  0  0  0  0  0  0  0
   27.0171   26.4051    9.0506 C   0  0  0  0  0  0  0  0  0  0  0  0
   26.7773   25.3388    9.8062 C   0  0  0  0  0  0  0  0  0  0  0  0
   27.7227   24.2354    9.9482 C   0  0  0  0  0  0  0  0  0  0  0  0
   27.1962   22.9953    9.8011 C   0  0  0  0  0  0  0  0  0  0  0  0
   29.2469   24.5300   10.2386 C   0  0  0  0  0  0  0  0  0  0  0  0
   27.7690   21.6608    9.8697 C   0  0  0  0  0  0  0  0  0  0  0  0
   28.4439   21.3966   10.8400 O   0  0  0  0  0  0  0  0  0  0  0  0
   27.5903   20.8149    9.0041 O   0  0  0  0  0  0  0  0  0  0  0  0
   27.0685   21.0167    8.2524 H   0  0  0  0  0  0  0  0  0  0  0  0
  6  7  1  0  0  0
  6 11  1  0  0  0
  6 12  1  0  0  0
  6 13  1  0  0  0
  7  8  1  0  0  0
  8  9  1  0  0  0
  9 10  1  0  0  0
 10 11  2  0  0  0
 10 14  1  0  0  0
 11  4  1  0  0  0
  4  5  2  0  0  0
  5  1  1  0  0  0
  1  2  2  0  0  0
  1  3  1  0  0  0
  2 15  1  0  0  0
 15 16  2  0  0  0
 16 17  1  0  0  0
 17 18  2  0  0  0
 17 19  1  0  0  0
 18 20  1  0  0  0
 20 21  2  0  0  0
 20 22  1  0  0  0
 22 23  1  0  0  0
M  END
> <minimizedAffinity>
-10.00795

$$$$
1N4H_REA_A_500


 23 23  0  0  0  0  0  0  0  0999 V2000
   25.7115   28.5538    7.5437 C   0  0  0  0  0  0  0  0  0  0  0  0
   26.2843   28.2247    8.7503 C   0  0  0  0  0  0  0  0  0  0  0  0
   25.4173   27.4906    6.4394 C   0  0  0  0  0  0  0  0  0  0  0  0
   24.1131   30.4780    7.3799 C   0  0  0  0  0  0  0  0  0  0  0  0
   25.3676   29.9519    7.3100 C   0  0  0  0  0  0  0  0  0  0  0  0
   22.6987   31.9126    5.6965 C   0  0  0  0  0  0  0  0  0  0  0  0
   21.8084   33.2224    5.6943 C   0  0  0  0  0  0  0  0  0  0  0  0
   22.4336   34.5122    6.2283 C   0  0  0  0  0  0  0  0  0  0  0  0
   23.2675   34.3941    7.5141 C   0  0  0  0  0  0  0  0  0  0  0  0
   23.8193   32.9636    7.8480 C   0  0  0  0  0  0  0  0  0  0  0  0
   23.5818   31.8315    7.0458 C   0  0  0  0  0  0  0  0  0  0  0  0
   23.6217   31.9501    4.4425 C   0  0  0  0  0  0  0  0  0  0  0  0
   21.6893   30.7273    5.6006 C   0  0  0  0  0  0  0  0  0  0  0  0
   24.6247   33.0418    9.1530 C   0  0  0  0  0  0  0  0  0  0  0  0
   26.6626   26.8623    9.0784 C   0  0  0  0  0  0  0  0  0  0  0  0
   27.1877   26.5247   10.2514 C   0  0  0  0  0  0  0  0  0  0  0  0
   27.5716   25.1567   10.5871 C   0  0  0  0  0  0  0  0  0  0  0  0
   28.5373   25.0382   11.5306 C   0  0  0  0  0  0  0  0  0  0  0  0
   26.8629   23.9375    9.8761 C   0  0  0  0  0  0  0  0  0  0  0  0
   29.1977   23.8923   12.1343 C   0  0  0  0  0  0  0  0  0  0  0  0
   30.1425   23.4211   11.5410 O   0  0  0  0  0  0  0  0  0  0  0  0
   28.8430   23.4048   13.1989 O   0  0  0  0  0  0  0  0  0  0  0  0
   28.1123   23.7675   13.6599 H   0  0  0  0  0  0  0  0  0  0  0  0
  6  7  1  0  0  0
  6 11  1  0  0  0
  6 12  1  0  0  0
  6 13  1  0  0  0
  7  8  1  0  0  0
  8  9  1  0  0  0
  9 10  1  0  0  0
 10 11  2  0  0  0
 10 14  1  0  0  0
 11  4  1  0  0  0
  4  5  2  0  0  0
  5  1  1  0  0  0
  1  2  2  0  0  0
  1  3  1  0  0  0
  2 15  1  0  0  0
 15 16  2  0  0  0
 16 17  1  0  0  0
 17 18  2  0  0  0
 17 19  1  0  0  0
 18 20  1  0  0  0
 20 21  2  0  0  0
 20 22  1  0  0  0
 22 23  1  0  0  0
M  END
> <minimizedAffinity>
-9.79295

$$$$
1N4H_REA_A_500


 23 23  0  0  0  0  0  0  0  0999 V2000
   25.6801   27.9393    7.6365 C   0  0  0  0  0  0  0  0  0  0  0  0
   26.2368   27.6089    8.8502 C   0  0  0  0  0  0  0  0  0  0  0  0
   25.9502   27.1138    6.3395 C   0  0  0  0  0  0  0  0  0  0  0  0
   23.7813   29.2804    6.6982 C   0  0  0  0  0  0  0  0  0  0  0  0
   24.8026   29.1032    7.5819 C   0  0  0  0  0  0  0  0  0  0  0  0
   21.3780   30.3016    6.9701 C   0  0  0  0  0  0  0  0  0  0  0  0
   20.6856   31.7226    7.0691 C   0  0  0  0  0  0  0  0  0  0  0  0
   20.9594   32.7301    5.9514 C   0  0  0  0  0  0  0  0  0  0  0  0
   22.4120   32.8388    5.4607 C   0  0  0  0  0  0  0  0  0  0  0  0
   23.3321   31.6019    5.7535 C   0  0  0  0  0  0  0  0  0  0  0  0
   22.8915   30.4468    6.4268 C   0  0  0  0  0  0  0  0  0  0  0  0
   20.5350   29.4163    6.0050 C   0  0  0  0  0  0  0  0  0  0  0  0
   21.3425   29.7234    8.4183 C   0  0  0  0  0  0  0  0  0  0  0  0
   24.7316   31.8884    5.1905 C   0  0  0  0  0  0  0  0  0  0  0  0
   27.1226   26.4700    9.0081 C   0  0  0  0  0  0  0  0  0  0  0  0
   26.8554   25.4598    9.8290 C   0  0  0  0  0  0  0  0  0  0  0  0
   27.7428   24.3122    9.9933 C   0  0  0  0  0  0  0  0  0  0  0  0
   27.1733   23.1010    9.7801 C   0  0  0  0  0  0  0  0  0  0  0  0
   29.2584   24.5311   10.3798 C   0  0  0  0  0  0  0  0  0  0  0  0
   27.6834   21.7411    9.8430 C   0  0  0  0  0  0  0  0  0  0  0  0
   28.3774   21.4528   10.7928 O   0  0  0  0  0  0  0  0  0  0  0  0
   27.4351   20.8975    8.9924 O   0  0  0  0  0  0  0  0  0  0  0  0
   26.8985   21.1179    8.2566 H   0  0  0  0  0  0  0  0  0  0  0  0
  6  7  1  0  0  0
  6 11  1  0  0  0
  6 12  1  0  0  0
  6 13  1  0  0  0
  7  8  1  0  0  0
  8  9  1  0  0  0
  9 10  1  0  0  0
 10 11  2  0  0  0
 10 14  1  0  0  0
 11  4  1  0  0  0
  4  5  2  0  0  0
  5  1  1  0  0  0
  1  2  2  0  0  0
  1  3  1  0  0  0
  2 15  1  0  0  0
 15 16  2  0  0  0
 16 17  1  0  0  0
 17 18  2  0  0  0
 17 19  1  0  0  0
 18 20  1  0  0  0
 20 21  2  0  0  0
 20 22  1  0  0  0
 22 23  1  0  0  0
M  END
> <minimizedAffinity>
-9.74470

$$$$
1N4H_REA_A_500


 23 23  0  0  0  0  0  0  0  0999 V2000
   25.7209   27.8903    7.7174 C   0  0  0  0  0  0  0  0  0  0  0  0
   26.1171   27.5466    8.9891 C   0  0  0  0  0  0  0  0  0  0  0  0
   26.0458   27.0067    6.4723 C   0  0  0  0  0  0  0  0  0  0  0  0
   24.0012   29.3391    6.6094 C   0  0  0  0  0  0  0  0  0  0  0  0
   24.9647   29.1261    7.5484 C   0  0  0  0  0  0  0  0  0  0  0  0
   24.1415   31.8749    5.9443 C   0  0  0  0  0  0  0  0  0  0  0  0
   23.3264   32.9372    5.0985 C   0  0  0  0  0  0  0  0  0  0  0  0
   21.8468   33.1332    5.4328 C   0  0  0  0  0  0  0  0  0  0  0  0
   21.0236   31.8615    5.6929 C   0  0  0  0  0  0  0  0  0  0  0  0
   21.8395   30.5843    6.0993 C   0  0  0  0  0  0  0  0  0  0  0  0
   23.2415   30.5638    6.2235 C   0  0  0  0  0  0  0  0  0  0  0  0
   24.5631   32.5426    7.2868 C   0  0  0  0  0  0  0  0  0  0  0  0
   25.3959   31.5354    5.0818 C   0  0  0  0  0  0  0  0  0  0  0  0
   20.8567   29.4255    6.3212 C   0  0  0  0  0  0  0  0  0  0  0  0
   26.8733   26.3379    9.2612 C   0  0  0  0  0  0  0  0  0  0  0  0
   26.4825   25.4301   10.1493 C   0  0  0  0  0  0  0  0  0  0  0  0
   27.2391   24.2131   10.4286 C   0  0  0  0  0  0  0  0  0  0  0  0
   28.1858   24.3246   11.3920 C   0  0  0  0  0  0  0  0  0  0  0  0
   26.9204   22.8829    9.6391 C   0  0  0  0  0  0  0  0  0  0  0  0
   29.1398   23.3846   11.9576 C   0  0  0  0  0  0  0  0  0  0  0  0
   28.8007   22.7810   12.9512 O   0  0  0  0  0  0  0  0  0  0  0  0
   30.2441   23.1836   11.4706 O   0  0  0  0  0  0  0  0  0  0  0  0
   30.5089   23.6493   10.7019 H   0  0  0  0  0  0  0  0  0  0  0  0
  6  7  1  0  0  0
  6 11  1  0  0  0
  6 12  1  0  0  0
  6 13  1  0  0  0
  7  8  1  0  0  0
  8  9  1  0  0  0
  9 10  1  0  0  0
 10 11  2  0  0  0
 10 14  1  0  0  0
 11  4  1  0  0  0
  4  5  2  0  0  0
  5  1  1  0  0  0
  1  2  2  0  0  0
  1  3  1  0  0  0
  2 15  1  0  0  0
 15 16  2  0  0  0
 16 17  1  0  0  0
 17 18  2  0  0  0
 17 19  1  0  0  0
 18 20  1  0  0  0
 20 21  2  0  0  0
 20 22  1  0  0  0
 22 23  1  0  0  0
M  END
> <minimizedAffinity>
-9.56160

$$$$
1N4H_REA_A_500


 23 23  0  0  0  0  0  0  0  0999 V2000
   25.7288   27.6136    7.5742 C   0  0  0  0  0  0  0  0  0  0  0  0
   24.7342   28.0586    8.4139 C   0  0  0  0  0  0  0  0  0  0  0  0
   25.7413   27.9367    6.0471 C   0  0  0  0  0  0  0  0  0  0  0  0
   26.6984   26.0320    9.2602 C   0  0  0  0  0  0  0  0  0  0  0  0
   26.8056   26.8178    8.1528 C   0  0  0  0  0  0  0  0  0  0  0  0
   28.9316   26.1576   10.6348 C   0  0  0  0  0  0  0  0  0  0  0  0
   29.6567   25.3865   11.8129 C   0  0  0  0  0  0  0  0  0  0  0  0
   29.8672   23.8795   11.6575 C   0  0  0  0  0  0  0  0  0  0  0  0
   28.6876   23.0727   11.0916 C   0  0  0  0  0  0  0  0  0  0  0  0
   27.6285   23.8867   10.2683 C   0  0  0  0  0  0  0  0  0  0  0  0
   27.7162   25.2737   10.0444 C   0  0  0  0  0  0  0  0  0  0  0  0
   29.9839   26.4483    9.5239 C   0  0  0  0  0  0  0  0  0  0  0  0
   28.4179   27.4879   11.2668 C   0  0  0  0  0  0  0  0  0  0  0  0
   26.5377   22.9209    9.7834 C   0  0  0  0  0  0  0  0  0  0  0  0
   23.6201   28.8562    7.9352 C   0  0  0  0  0  0  0  0  0  0  0  0
   22.3756   28.3936    7.8812 C   0  0  0  0  0  0  0  0  0  0  0  0
   21.2509   29.1901    7.3995 C   0  0  0  0  0  0  0  0  0  0  0  0
   21.5828   30.2988    6.6942 C   0  0  0  0  0  0  0  0  0  0  0  0
   19.7694   28.7320    7.6986 C   0  0  0  0  0  0  0  0  0  0  0  0
   20.7945   31.3422    6.0589 C   0  0  0  0  0  0  0  0  0  0  0  0
   20.4427   31.1525    4.9157 O   0  0  0  0  0  0  0  0  0  0  0  0
   20.4773   32.3769    6.6296 O   0  0  0  0  0  0  0  0  0  0  0  0
   20.7482   32.5261    7.5141 H   0  0  0  0  0  0  0  0  0  0  0  0
  6  7  1  0  0  0
  6 11  1  0  0  0
  6 12  1  0  0  0
  6 13  1  0  0  0
  7  8  1  0  0  0
  8  9  1  0  0  0
  9 10  1  0  0  0
 10 11  2  0  0  0
 10 14  1  0  0  0
 11  4  1  0  0  0
  4  5  2  0  0  0
  5  1  1  0  0  0
  1  2  2  0  0  0
  1  3  1  0  0  0
  2 15  1  0  0  0
 15 16  2  0  0  0
 16 17  1  0  0  0
 17 18  2  0  0  0
 17 19  1  0  0  0
 18 20  1  0  0  0
 20 21  2  0  0  0
 20 22  1  0  0  0
 22 23  1  0  0  0
M  END
> <minimizedAffinity>
-9.23959

$$$$
1N4H_REA_A_500


 23 23  0  0  0  0  0  0  0  0999 V2000
   25.8517   27.9466    7.5374 C   0  0  0  0  0  0  0  0  0  0  0  0
   25.8621   29.2250    8.0454 C   0  0  0  0  0  0  0  0  0  0  0  0
   24.8689   27.5026    6.4090 C   0  0  0  0  0  0  0  0  0  0  0  0
   26.7587   26.4505    9.3327 C   0  0  0  0  0  0  0  0  0  0  0  0
   26.8066   26.9878    8.0819 C   0  0  0  0  0  0  0  0  0  0  0  0
   29.0225   26.3203   10.6560 C   0  0  0  0  0  0  0  0  0  0  0  0
   29.6914   25.4542   11.8009 C   0  0  0  0  0  0  0  0  0  0  0  0
   29.7450   23.9375   11.6106 C   0  0  0  0  0  0  0  0  0  0  0  0
   28.4780   23.2662   11.0569 C   0  0  0  0  0  0  0  0  0  0  0  0
   27.4890   24.2007   10.2755 C   0  0  0  0  0  0  0  0  0  0  0  0
   27.7114   25.5765   10.0772 C   0  0  0  0  0  0  0  0  0  0  0  0
   30.0744   26.5284    9.5263 C   0  0  0  0  0  0  0  0  0  0  0  0
   28.6597   27.6811   11.3264 C   0  0  0  0  0  0  0  0  0  0  0  0
   26.2958   23.3606    9.7976 C   0  0  0  0  0  0  0  0  0  0  0  0
   24.9520   30.2511    7.5705 C   0  0  0  0  0  0  0  0  0  0  0  0
   25.2579   31.0798    6.5778 C   0  0  0  0  0  0  0  0  0  0  0  0
   24.3476   32.1147    6.0964 C   0  0  0  0  0  0  0  0  0  0  0  0
   23.9832   33.0424    7.0148 C   0  0  0  0  0  0  0  0  0  0  0  0
   23.8664   32.1099    4.5921 C   0  0  0  0  0  0  0  0  0  0  0  0
   23.1129   34.2056    6.9572 C   0  0  0  0  0  0  0  0  0  0  0  0
   22.6069   34.5711    7.9950 O   0  0  0  0  0  0  0  0  0  0  0  0
   22.8861   34.8159    5.9214 O   0  0  0  0  0  0  0  0  0  0  0  0
   23.2764   34.5352    5.1171 H   0  0  0  0  0  0  0  0  0  0  0  0
  6  7  1  0  0  0
  6 11  1  0  0  0
  6 12  1  0  0  0
  6 13  1  0  0  0
  7  8  1  0  0  0
  8  9  1  0  0  0
  9 10  1  0  0  0
 10 11  2  0  0  0
 10 14  1  0  0  0
 11  4  1  0  0  0
  4  5  2  0  0  0
  5  1  1  0  0  0
  1  2  2  0  0  0
  1  3  1  0  0  0
  2 15  1  0  0  0
 15 16  2  0  0  0
 16 17  1  0  0  0
 17 18  2  0  0  0
 17 19  1  0  0  0
 18 20  1  0  0  0
 20 21  2  0  0  0
 20 22  1  0  0  0
 22 23  1  0  0  0
M  END
> <minimizedAffinity>
-9.16126

$$$$
1N4H_REA_A_500


 23 23  0  0  0  0  0  0  0  0999 V2000
   25.5981   28.1891    7.3127 C   0  0  0  0  0  0  0  0  0  0  0  0
   26.2340   28.5319    8.4833 C   0  0  0  0  0  0  0  0  0  0  0  0
   26.0514   26.9785    6.4377 C   0  0  0  0  0  0  0  0  0  0  0  0
   24.0893   30.1869    7.4420 C   0  0  0  0  0  0  0  0  0  0  0  0
   24.4562   28.9947    6.8947 C   0  0  0  0  0  0  0  0  0  0  0  0
   23.2161   32.5500    6.7033 C   0  0  0  0  0  0  0  0  0  0  0  0
   21.9242   33.2006    6.0583 C   0  0  0  0  0  0  0  0  0  0  0  0
   20.5792   32.9451    6.7403 C   0  0  0  0  0  0  0  0  0  0  0  0
   20.3120   31.5108    7.2240 C   0  0  0  0  0  0  0  0  0  0  0  0
   21.5789   30.6124    7.4480 C   0  0  0  0  0  0  0  0  0  0  0  0
   22.8962   31.0559    7.2253 C   0  0  0  0  0  0  0  0  0  0  0  0
   23.6768   33.4534    7.8855 C   0  0  0  0  0  0  0  0  0  0  0  0
   24.2855   32.5431    5.5679 C   0  0  0  0  0  0  0  0  0  0  0  0
   21.1192   29.2293    7.9312 C   0  0  0  0  0  0  0  0  0  0  0  0
   27.3789   27.7935    8.9840 C   0  0  0  0  0  0  0  0  0  0  0  0
   27.3392   27.0775   10.1027 C   0  0  0  0  0  0  0  0  0  0  0  0
   28.4875   26.3337   10.6123 C   0  0  0  0  0  0  0  0  0  0  0  0
   28.1940   25.1714   11.2445 C   0  0  0  0  0  0  0  0  0  0  0  0
   29.9503   26.8892   10.3978 C   0  0  0  0  0  0  0  0  0  0  0  0
   29.0147   24.1586   11.8881 C   0  0  0  0  0  0  0  0  0  0  0  0
   29.8966   23.6573   11.2265 O   0  0  0  0  0  0  0  0  0  0  0  0
   28.8518   23.8096   13.0494 O   0  0  0  0  0  0  0  0  0  0  0  0
   28.1702   24.1959   13.5634 H   0  0  0  0  0  0  0  0  0  0  0  0
  6  7  1  0  0  0
  6 11  1  0  0  0
  6 12  1  0  0  0
  6 13  1  0  0  0
  7  8  1  0  0  0
  8  9  1  0  0  0
  9 10  1  0  0  0
 10 11  2  0  0  0
 10 14  1  0  0  0
 11  4  1  0  0  0
  4  5  2  0  0  0
  5  1  1  0  0  0
  1  2  2  0  0  0
  1  3  1  0  0  0
  2 15  1  0  0  0
 15 16  2  0  0  0
 16 17  1  0  0  0
 17 18  2  0  0  0
 17 19  1  0  0  0
 18 20  1  0  0  0
 20 21  2  0  0  0
 20 22  1  0  0  0
 22 23  1  0  0  0
M  END
> <minimizedAffinity>
-9.12736

$$$$
1N4H_REA_A_500


 23 23  0  0  0  0  0  0  0  0999 V2000
   25.6797   28.1793    6.9159 C   0  0  0  0  0  0  0  0  0  0  0  0
   26.3185   28.5092    8.0887 C   0  0  0  0  0  0  0  0  0  0  0  0
   25.8497   26.7855    6.2339 C   0  0  0  0  0  0  0  0  0  0  0  0
   24.0339   30.0688    6.9866 C   0  0  0  0  0  0  0  0  0  0  0  0
   24.8107   29.1800    6.3069 C   0  0  0  0  0  0  0  0  0  0  0  0
   21.5036   30.7668    7.0413 C   0  0  0  0  0  0  0  0  0  0  0  0
   20.6201   32.0753    6.9164 C   0  0  0  0  0  0  0  0  0  0  0  0
   20.8075   32.9481    5.6743 C   0  0  0  0  0  0  0  0  0  0  0  0
   22.2537   33.1929    5.2146 C   0  0  0  0  0  0  0  0  0  0  0  0
   23.3185   32.1510    5.7073 C   0  0  0  0  0  0  0  0  0  0  0  0
   23.0076   31.0489    6.5260 C   0  0  0  0  0  0  0  0  0  0  0  0
   20.8366   29.6467    6.1891 C   0  0  0  0  0  0  0  0  0  0  0  0
   21.4776   30.3942    8.5557 C   0  0  0  0  0  0  0  0  0  0  0  0
   24.6914   32.5527    5.1492 C   0  0  0  0  0  0  0  0  0  0  0  0
   27.2035   27.5834    8.7718 C   0  0  0  0  0  0  0  0  0  0  0  0
   27.8235   27.8868    9.9072 C   0  0  0  0  0  0  0  0  0  0  0  0
   28.7158   26.9608   10.5984 C   0  0  0  0  0  0  0  0  0  0  0  0
   28.1188   25.8694   11.1361 C   0  0  0  0  0  0  0  0  0  0  0  0
   30.2655   27.2571   10.6689 C   0  0  0  0  0  0  0  0  0  0  0  0
   28.6238   24.7349   11.8922 C   0  0  0  0  0  0  0  0  0  0  0  0
   29.3104   24.9756   12.8604 O   0  0  0  0  0  0  0  0  0  0  0  0
   28.3783   23.5741   11.5936 O   0  0  0  0  0  0  0  0  0  0  0  0
   27.8473   23.3852   10.8451 H   0  0  0  0  0  0  0  0  0  0  0  0
  6  7  1  0  0  0
  6 11  1  0  0  0
  6 12  1  0  0  0
  6 13  1  0  0  0
  7  8  1  0  0  0
  8  9  1  0  0  0
  9 10  1  0  0  0
 10 11  2  0  0  0
 10 14  1  0  0  0
 11  4  1  0  0  0
  4  5  2  0  0  0
  5  1  1  0  0  0
  1  2  2  0  0  0
  1  3  1  0  0  0
  2 15  1  0  0  0
 15 16  2  0  0  0
 16 17  1  0  0  0
 17 18  2  0  0  0
 17 19  1  0  0  0
 18 20  1  0  0  0
 20 21  2  0  0  0
 20 22  1  0  0  0
 22 23  1  0  0  0
M  END
> <minimizedAffinity>
-8.42229

$$$$
1N4H_REA_A_500


 23 23  0  0  0  0  0  0  0  0999 V2000
   25.8150   27.5332    7.9575 C   0  0  0  0  0  0  0  0  0  0  0  0
   24.7328   28.3139    8.2917 C   0  0  0  0  0  0  0  0  0  0  0  0
   26.1166   27.1063    6.4867 C   0  0  0  0  0  0  0  0  0  0  0  0
   27.5540   26.0408    8.9740 C   0  0  0  0  0  0  0  0  0  0  0  0
   26.7051   27.1045    9.0307 C   0  0  0  0  0  0  0  0  0  0  0  0
   28.1260   23.8347   10.2772 C   0  0  0  0  0  0  0  0  0  0  0  0
   29.3631   23.1563   10.9967 C   0  0  0  0  0  0  0  0  0  0  0  0
   30.0833   23.9551   12.0843 C   0  0  0  0  0  0  0  0  0  0  0  0
   30.3412   25.4420   11.7920 C   0  0  0  0  0  0  0  0  0  0  0  0
   29.4230   26.0989   10.7023 C   0  0  0  0  0  0  0  0  0  0  0  0
   28.4168   25.4001   10.0088 C   0  0  0  0  0  0  0  0  0  0  0  0
   26.8769   23.6613   11.1913 C   0  0  0  0  0  0  0  0  0  0  0  0
   27.9433   23.0491    8.9422 C   0  0  0  0  0  0  0  0  0  0  0  0
   29.8205   27.5743   10.5517 C   0  0  0  0  0  0  0  0  0  0  0  0
   23.7892   28.7906    7.2971 C   0  0  0  0  0  0  0  0  0  0  0  0
   23.3811   30.0539    7.2408 C   0  0  0  0  0  0  0  0  0  0  0  0
   22.4313   30.5394    6.2439 C   0  0  0  0  0  0  0  0  0  0  0  0
   22.8312   31.6261    5.5398 C   0  0  0  0  0  0  0  0  0  0  0  0
   21.0527   29.7975    6.0353 C   0  0  0  0  0  0  0  0  0  0  0  0
   22.2054   32.4111    4.4883 C   0  0  0  0  0  0  0  0  0  0  0  0
   22.5531   32.1894    3.3496 O   0  0  0  0  0  0  0  0  0  0  0  0
   21.3553   33.2626    4.7102 O   0  0  0  0  0  0  0  0  0  0  0  0
   21.0845   33.4361    5.5902 H   0  0  0  0  0  0  0  0  0  0  0  0
  6  7  1  0  0  0
  6 11  1  0  0  0
  6 12  1  0  0  0
  6 13  1  0  0  0
  7  8  1  0  0  0
  8  9  1  0  0  0
  9 10  1  0  0  0
 10 11  2  0  0  0
 10 14  1  0  0  0
 11  4  1  0  0  0
  4  5  2  0  0  0
  5  1  1  0  0  0
  1  2  2  0  0  0
  1  3  1  0  0  0
  2 15  1  0  0  0
 15 16  2  0  0  0
 16 17  1  0  0  0
 17 18  2  0  0  0
 17 19  1  0  0  0
 18 20  1  0  0  0
 20 21  2  0  0  0
 20 22  1  0  0  0
 22 23  1  0  0  0
M  END
> <minimizedAffinity>
-7.43636

$$$$
