6G9I_CXX_B_707
  RCSB PDB05261800323D
Coordinates from PDB:6G9I:B:707 Model:1 without hydrogens
 22 24  0  0  0  0            999 V2000
  -46.0460   13.5580   -5.7700   C 0  0  0  0  0  0  0  0  0  0  0  0
  -45.8490   14.0080   -7.0720   C 0  0  0  0  0  0  0  0  0  0  0  0
  -46.4530   13.3390   -8.1260   C 0  0  0  0  0  0  0  0  0  0  0  0
  -47.2500   12.2320   -7.8610   C 0  0  0  0  0  0  0  0  0  0  0  0
  -48.3360   10.5510   -6.4100   C 0  0  0  0  0  0  0  0  0  0  0  0
  -48.1290    9.7710   -5.1190   C 0  0  0  0  0  0  0  0  0  0  0  0
  -50.6370   10.8920   -2.4990   C 0  0  0  0  0  0  0  0  0  0  0  0
  -50.0230   12.0510   -2.0350   C 0  0  0  0  0  0  0  0  0  0  0  0
  -48.8050   12.4510   -2.5760   C 0  0  0  0  0  0  0  0  0  0  0  0
  -48.2020   11.6980   -3.5820   C 0  0  0  0  0  0  0  0  0  0  0  0
  -47.4470   11.7720   -6.5590   C 0  0  0  0  0  0  0  0  0  0  0  0
  -46.8430   12.4480   -5.4950   C 0  0  0  0  0  0  0  0  0  0  0  0
  -45.1790   11.2010   -1.0670   C 0  0  0  0  0  0  0  0  0  0  0  0
  -44.4840   10.1950    0.9890   C 0  0  0  0  0  0  0  0  0  0  0  0
  -50.0310   10.1390   -3.5000   C 0  0  0  0  0  0  0  0  0  0  0  0
  -48.8130   10.5500   -4.0300   C 0  0  0  0  0  0  0  0  0  0  0  0
  -45.7910   12.1730   -3.2880   C 0  0  0  0  0  0  0  0  0  0  0  0
  -45.7340   10.8970   -2.4530   C 0  0  0  0  0  0  0  0  0  0  0  0
  -43.3590    9.6390   -1.0610   C 0  0  0  0  0  0  0  0  0  0  0  0
  -46.9720   12.0860   -4.1390   N 0  0  0  0  0  0  0  0  0  0  0  0
  -44.6560    9.9730   -0.4540   N 0  0  0  0  0  0  0  0  0  0  0  0
  -44.8170   15.4460   -7.3890  Cl 0  0  0  0  0  0  0  0  0  0  0  0
  1 12  2  0  0  0  0
  1  2  1  0  0  0  0
  2 22  1  0  0  0  0
  2  3  2  0  0  0  0
  3  4  1  0  0  0  0
  4 11  2  0  0  0  0
  5 11  1  0  0  0  0
  5  6  1  0  0  0  0
  6 16  1  0  0  0  0
  7  8  2  0  0  0  0
  7 15  1  0  0  0  0
  8  9  1  0  0  0  0
  9 10  2  0  0  0  0
 10 20  1  0  0  0  0
 10 16  1  0  0  0  0
 11 12  1  0  0  0  0
 12 20  1  0  0  0  0
 13 21  1  0  0  0  0
 13 18  1  0  0  0  0
 14 21  1  0  0  0  0
 15 16  2  0  0  0  0
 17 18  1  0  0  0  0
 17 20  1  0  0  0  0
 19 21  1  0  0  0  0
A    1
C1
A    2
C2
A    3
C3
A    4
C4
A    5
C5
A    6
C6
A    7
C8
A    8
C9
A    9
C10
A   10
C11
A   11
C13
A   12
C14
A   13
C17
A   14
C18
A   15
C7
A   16
C12
A   17
C15
A   18
C16
A   19
C19
A   20
N1
A   21
N2
A   22
CL2
M  END
>  <InstanceId>
6G9I_CXX_B_707

>  <ChemCompId>
CXX

>  <PdbId>
6G9I

>  <ChainId>
B

>  <ResidueNumber>
707

>  <InsertionCode>


>  <Model>
1

>  <AltIds>


>  <MissingHeavyAtoms>
0

>  <ObservedFormula>
C19 N2 Cl

>  <Name>
3-(3-CHLORO-5H-DIBENZO[B,F]AZEPIN-5-YL)-N,N-DIMETHYLPROPAN-1-AMINE

>  <SystematicName>
3-(9-chloro-5,6-dihydrobenzo[b][1]benzazepin-11-yl)-N,N-dimethyl-propan-1-amine

>  <Synonyms>
3-chloro-5-(3-(dimethylamino)propyl)-10,11-dihydro-5H-dibenz[b,f]azepine

>  <Type>
NON-POLYMER

>  <Formula>
C19 H23 Cl N2

>  <MolecularWeight>
314.852

>  <ModifiedDate>
2011-06-04

>  <Parent>


>  <OneLetterCode>


>  <SubcomponentList>


>  <AmbiguousFlag>


>  <InChI>
InChI=1S/C19H23ClN2/c1-21(2)12-5-13-22-18-7-4-3-6-15(18)8-9-16-10-11-17(20)14-19(16)22/h3-4,6-7,10-11,14H,5,8-9,12-13H2,1-2H3

>  <InChIKey>
GDLIGKIOYRNHDA-UHFFFAOYSA-N

>  <SMILES>
CN(C)CCCN1c2ccccc2CCc3c1cc(cc3)Cl

$$$$
