3VF7_031_A_201


 45 49  0  0  0  0  0  0  0  0999 V2000
   13.8912   19.3831   17.9918 C   0  0  0  0  0  0  0  0  0  0  0  0
   14.9528   18.5106   18.3585 O   0  0  0  0  0  0  0  0  0  0  0  0
   15.3086   18.0826   17.5642 H   0  0  0  0  0  0  0  0  0  0  0  0
   12.8702   18.4642   17.2644 C   0  0  0  0  0  0  0  0  0  0  0  0
   11.5367   19.0213   17.3610 N   0  0  0  0  0  0  0  0  0  0  0  0
   10.7916   19.6036   16.0129 S   0  0  0  0  0  0  0  0  0  0  0  0
   11.8751   19.9719   15.0302 O   0  0  0  0  0  0  0  0  0  0  0  0
    9.8344   20.6221   16.4153 O   0  0  0  0  0  0  0  0  0  0  0  0
    8.3484   16.1079   14.4625 C   0  0  0  0  0  0  0  0  0  0  0  0
    7.7020   17.2843   14.8304 C   0  0  0  0  0  0  0  0  0  0  0  0
    8.5065   18.3741   15.1707 C   0  0  0  0  0  0  0  0  0  0  0  0
    9.8815   18.2563   15.3106 C   0  0  0  0  0  0  0  0  0  0  0  0
   10.4999   17.0934   14.9302 C   0  0  0  0  0  0  0  0  0  0  0  0
    9.7325   16.0341   14.4415 C   0  0  0  0  0  0  0  0  0  0  0  0
    7.7246   14.9806   14.0564 O   0  0  0  0  0  0  0  0  0  0  0  0
    6.5901   14.6530   14.8555 C   0  0  0  0  0  0  0  0  0  0  0  0
   10.6894   18.3780   18.3130 C   0  0  0  0  0  0  0  0  0  0  0  0
   10.9308   18.8142   19.7724 C   0  0  0  0  0  0  0  0  0  0  0  0
   10.7581   20.3151   20.0003 C   0  0  0  0  0  0  0  0  0  0  0  0
    9.8539   18.1747   20.5353 N   0  0  0  0  0  0  0  0  0  0  0  0
    8.8827   19.0273   20.7540 C   0  0  0  0  0  0  0  0  0  0  0  0
    7.8203   18.6813   21.2668 O   0  0  0  0  0  0  0  0  0  0  0  0
    9.2627   20.4232   20.3057 C   0  0  0  0  0  0  0  0  0  0  0  0
    9.8596   17.2385   20.8399 H   0  0  0  0  0  0  0  0  0  0  0  0
   14.3589   20.5113   17.0770 C   0  0  0  0  0  0  0  0  0  0  0  0
   15.0891   21.4765   17.8725 N   0  0  0  0  0  0  0  0  0  0  0  0
   14.5409   22.3340   18.7382 C   0  0  0  0  0  0  0  0  0  0  0  0
   13.3687   22.5030   18.9648 O   0  0  0  0  0  0  0  0  0  0  0  0
   16.0675   21.5029   17.7670 H   0  0  0  0  0  0  0  0  0  0  0  0
   15.4985   23.0960   19.3542 O   0  0  0  0  0  0  0  0  0  0  0  0
   15.0531   25.2856   18.3839 C   0  0  0  0  0  0  0  0  0  0  0  0
   15.0967   24.4357   19.6493 C   0  0  0  0  0  0  0  0  0  0  0  0
   16.2180   25.0592   20.5108 C   0  0  0  0  0  0  0  0  0  0  0  0
   17.2472   25.5287   19.5045 C   0  0  0  0  0  0  0  0  0  0  0  0
   18.1543   24.4784   19.1446 O   0  0  0  0  0  0  0  0  0  0  0  0
   18.0783   24.1087   17.8051 C   0  0  0  0  0  0  0  0  0  0  0  0
   17.2969   25.2697   17.1314 C   0  0  0  0  0  0  0  0  0  0  0  0
   16.4590   25.8470   18.2605 C   0  0  0  0  0  0  0  0  0  0  0  0
   15.2437   20.1034   15.8830 C   0  0  0  0  0  0  0  0  0  0  0  0
   14.6647   21.9869   14.3015 C   0  0  0  0  0  0  0  0  0  0  0  0
   15.0548   22.9951   13.4120 C   0  0  0  0  0  0  0  0  0  0  0  0
   16.4122   23.2985   13.2427 C   0  0  0  0  0  0  0  0  0  0  0  0
   17.3763   22.6441   14.0068 C   0  0  0  0  0  0  0  0  0  0  0  0
   16.9830   21.6201   14.8671 C   0  0  0  0  0  0  0  0  0  0  0  0
   15.6466   21.2699   15.0009 C   0  0  0  0  0  0  0  0  0  0  0  0
 16 15  1  0  0  0
  9 15  1  0  0  0
 10  9  2  0  0  0
  9 14  1  0  0  0
 11 10  1  0  0  0
 11 12  2  0  0  0
  6 12  1  0  0  0
 12 13  1  0  0  0
 13 14  2  0  0  0
  8  6  2  0  0  0
  5  6  1  0  0  0
  6  7  2  0  0  0
 17  5  1  0  0  0
  5  4  1  0  0  0
 18 17  1  0  0  0
 20 18  1  0  0  0
 19 18  1  0  0  0
 23 19  1  0  0  0
 21 20  1  0  0  0
 22 21  2  0  0  0
 21 23  1  0  0  0
  1  4  1  0  0  0
  1 25  1  0  0  0
  1  2  1  0  0  0
 26 25  1  0  0  0
 25 39  1  0  0  0
 27 26  1  0  0  0
 28 27  2  0  0  0
 30 27  1  0  0  0
 32 30  1  0  0  0
 32 31  1  0  0  0
 31 38  1  0  0  0
 33 32  1  0  0  0
 33 34  1  0  0  0
 34 38  1  0  0  0
 34 35  1  0  0  0
 35 36  1  0  0  0
 37 36  1  0  0  0
 38 37  1  0  0  0
 39 45  1  0  0  0
 45 40  2  0  0  0
 40 41  1  0  0  0
 42 41  2  0  0  0
 43 42  1  0  0  0
 44 43  2  0  0  0
 44 45  1  0  0  0
 20 24  1  0  0  0
  2  3  1  0  0  0
 26 29  1  0  0  0
M  END
> <minimizedAffinity>
-10.84029

$$$$
3VF7_031_A_201


 45 49  0  0  0  0  0  0  0  0999 V2000
   11.4775   21.2869   17.1048 C   0  0  0  0  0  0  0  0  0  0  0  0
   10.7998   22.4939   16.7786 O   0  0  0  0  0  0  0  0  0  0  0  0
    9.9988   22.5715   17.3201 H   0  0  0  0  0  0  0  0  0  0  0  0
   10.4293   20.1711   16.8364 C   0  0  0  0  0  0  0  0  0  0  0  0
   10.8972   19.2844   15.7910 N   0  0  0  0  0  0  0  0  0  0  0  0
   12.3707   18.5620   15.9271 S   0  0  0  0  0  0  0  0  0  0  0  0
   12.3347   17.3156   15.0784 O   0  0  0  0  0  0  0  0  0  0  0  0
   12.6986   18.4395   17.3390 O   0  0  0  0  0  0  0  0  0  0  0  0
   15.4099   21.5092   14.2933 C   0  0  0  0  0  0  0  0  0  0  0  0
   15.8161   20.5480   15.2142 C   0  0  0  0  0  0  0  0  0  0  0  0
   14.8776   19.5813   15.5825 C   0  0  0  0  0  0  0  0  0  0  0  0
   13.5486   19.6628   15.1940 C   0  0  0  0  0  0  0  0  0  0  0  0
   13.1721   20.6089   14.2760 C   0  0  0  0  0  0  0  0  0  0  0  0
   14.1249   21.4974   13.7735 C   0  0  0  0  0  0  0  0  0  0  0  0
   16.2040   22.4806   13.7927 O   0  0  0  0  0  0  0  0  0  0  0  0
   17.0670   23.0545   14.7720 C   0  0  0  0  0  0  0  0  0  0  0  0
    9.8758   18.5049   15.1688 C   0  0  0  0  0  0  0  0  0  0  0  0
    9.0012   17.7040   16.1549 C   0  0  0  0  0  0  0  0  0  0  0  0
    7.5389   17.5920   15.7260 C   0  0  0  0  0  0  0  0  0  0  0  0
    9.5325   16.3382   16.0993 N   0  0  0  0  0  0  0  0  0  0  0  0
    8.7976   15.5960   15.3076 C   0  0  0  0  0  0  0  0  0  0  0  0
    9.1227   14.4484   15.0096 O   0  0  0  0  0  0  0  0  0  0  0  0
    7.5559   16.3350   14.8537 C   0  0  0  0  0  0  0  0  0  0  0  0
   10.3277   16.0238   16.5872 H   0  0  0  0  0  0  0  0  0  0  0  0
   11.9446   21.2596   18.5571 C   0  0  0  0  0  0  0  0  0  0  0  0
   13.0969   22.1272   18.6867 N   0  0  0  0  0  0  0  0  0  0  0  0
   14.3563   21.7152   18.8587 C   0  0  0  0  0  0  0  0  0  0  0  0
   14.7481   20.5834   18.9975 O   0  0  0  0  0  0  0  0  0  0  0  0
   12.9397   23.0982   18.6448 H   0  0  0  0  0  0  0  0  0  0  0  0
   15.2208   22.7765   18.9184 O   0  0  0  0  0  0  0  0  0  0  0  0
   14.7523   25.1648   18.8162 C   0  0  0  0  0  0  0  0  0  0  0  0
   14.7396   23.8972   19.6638 C   0  0  0  0  0  0  0  0  0  0  0  0
   15.7655   24.1591   20.7894 C   0  0  0  0  0  0  0  0  0  0  0  0
   16.8447   24.9898   20.1278 C   0  0  0  0  0  0  0  0  0  0  0  0
   17.8213   24.1676   19.4754 O   0  0  0  0  0  0  0  0  0  0  0  0
   17.8610   24.3358   18.0945 C   0  0  0  0  0  0  0  0  0  0  0  0
   17.0811   25.6561   17.8472 C   0  0  0  0  0  0  0  0  0  0  0  0
   16.1374   25.7485   19.0351 C   0  0  0  0  0  0  0  0  0  0  0  0
   10.9074   21.6746   19.6186 C   0  0  0  0  0  0  0  0  0  0  0  0
   10.9375   19.2790   20.4209 C   0  0  0  0  0  0  0  0  0  0  0  0
   10.2864   18.1715   20.9775 C   0  0  0  0  0  0  0  0  0  0  0  0
    8.9721   18.2906   21.4485 C   0  0  0  0  0  0  0  0  0  0  0  0
    8.3297   19.5269   21.4259 C   0  0  0  0  0  0  0  0  0  0  0  0
    8.9727   20.6173   20.8419 C   0  0  0  0  0  0  0  0  0  0  0  0
   10.2527   20.4988   20.3186 C   0  0  0  0  0  0  0  0  0  0  0  0
 16 15  1  0  0  0
  9 15  1  0  0  0
 10  9  2  0  0  0
  9 14  1  0  0  0
 11 10  1  0  0  0
 11 12  2  0  0  0
  6 12  1  0  0  0
 12 13  1  0  0  0
 13 14  2  0  0  0
  8  6  2  0  0  0
  5  6  1  0  0  0
  6  7  2  0  0  0
 17  5  1  0  0  0
  5  4  1  0  0  0
 18 17  1  0  0  0
 20 18  1  0  0  0
 19 18  1  0  0  0
 23 19  1  0  0  0
 21 20  1  0  0  0
 22 21  2  0  0  0
 21 23  1  0  0  0
  1  4  1  0  0  0
  1 25  1  0  0  0
  1  2  1  0  0  0
 26 25  1  0  0  0
 25 39  1  0  0  0
 27 26  1  0  0  0
 28 27  2  0  0  0
 30 27  1  0  0  0
 32 30  1  0  0  0
 32 31  1  0  0  0
 31 38  1  0  0  0
 33 32  1  0  0  0
 33 34  1  0  0  0
 34 38  1  0  0  0
 34 35  1  0  0  0
 35 36  1  0  0  0
 37 36  1  0  0  0
 38 37  1  0  0  0
 39 45  1  0  0  0
 45 40  2  0  0  0
 40 41  1  0  0  0
 42 41  2  0  0  0
 43 42  1  0  0  0
 44 43  2  0  0  0
 44 45  1  0  0  0
 20 24  1  0  0  0
  2  3  1  0  0  0
 26 29  1  0  0  0
M  END
> <minimizedAffinity>
-10.23438

$$$$
3VF7_031_A_201


 45 49  0  0  0  0  0  0  0  0999 V2000
   13.5183   19.7157   17.8596 C   0  0  0  0  0  0  0  0  0  0  0  0
   14.4253   18.7213   18.3190 O   0  0  0  0  0  0  0  0  0  0  0  0
   14.8168   18.2645   17.5581 H   0  0  0  0  0  0  0  0  0  0  0  0
   12.4871   18.9307   17.0014 C   0  0  0  0  0  0  0  0  0  0  0  0
   11.3356   18.5732   17.8039 N   0  0  0  0  0  0  0  0  0  0  0  0
   10.7804   19.6154   18.9517 S   0  0  0  0  0  0  0  0  0  0  0  0
   10.3060   20.8547   18.2346 O   0  0  0  0  0  0  0  0  0  0  0  0
   11.7941   19.7488   19.9863 O   0  0  0  0  0  0  0  0  0  0  0  0
    7.0641   17.9190   20.9275 C   0  0  0  0  0  0  0  0  0  0  0  0
    6.9301   18.7569   19.8243 C   0  0  0  0  0  0  0  0  0  0  0  0
    8.1026   19.1421   19.1703 C   0  0  0  0  0  0  0  0  0  0  0  0
    9.3584   18.8563   19.6853 C   0  0  0  0  0  0  0  0  0  0  0  0
    9.4688   18.0183   20.7648 C   0  0  0  0  0  0  0  0  0  0  0  0
    8.3142   17.4944   21.3499 C   0  0  0  0  0  0  0  0  0  0  0  0
    6.0341   17.4128   21.6400 O   0  0  0  0  0  0  0  0  0  0  0  0
    6.4572   16.5623   22.7034 C   0  0  0  0  0  0  0  0  0  0  0  0
   10.3400   17.8170   17.1145 C   0  0  0  0  0  0  0  0  0  0  0  0
   10.1619   18.2065   15.6330 C   0  0  0  0  0  0  0  0  0  0  0  0
   10.3932   17.0492   14.6626 C   0  0  0  0  0  0  0  0  0  0  0  0
    8.7412   18.5477   15.5057 N   0  0  0  0  0  0  0  0  0  0  0  0
    8.0724   17.5345   15.0117 C   0  0  0  0  0  0  0  0  0  0  0  0
    6.8456   17.5454   14.9319 O   0  0  0  0  0  0  0  0  0  0  0  0
    9.0011   16.4203   14.5757 C   0  0  0  0  0  0  0  0  0  0  0  0
    8.3462   19.4141   15.7557 H   0  0  0  0  0  0  0  0  0  0  0  0
   14.2115   20.7928   17.0305 C   0  0  0  0  0  0  0  0  0  0  0  0
   14.9634   21.6493   17.9242 N   0  0  0  0  0  0  0  0  0  0  0  0
   14.4333   22.4351   18.8659 C   0  0  0  0  0  0  0  0  0  0  0  0
   13.2647   22.6205   19.0979 O   0  0  0  0  0  0  0  0  0  0  0  0
   15.9434   21.6527   17.8303 H   0  0  0  0  0  0  0  0  0  0  0  0
   15.4080   23.0994   19.5629 O   0  0  0  0  0  0  0  0  0  0  0  0
   15.0601   25.2681   18.5093 C   0  0  0  0  0  0  0  0  0  0  0  0
   15.1285   24.4789   19.8123 C   0  0  0  0  0  0  0  0  0  0  0  0
   16.3504   25.0538   20.5638 C   0  0  0  0  0  0  0  0  0  0  0  0
   17.3390   25.3931   19.4684 C   0  0  0  0  0  0  0  0  0  0  0  0
   18.1382   24.2594   19.1057 O   0  0  0  0  0  0  0  0  0  0  0  0
   17.9417   23.8331   17.7956 C   0  0  0  0  0  0  0  0  0  0  0  0
   17.2037   25.0178   17.1143 C   0  0  0  0  0  0  0  0  0  0  0  0
   16.4919   25.7119   18.2640 C   0  0  0  0  0  0  0  0  0  0  0  0
   15.1625   20.2993   15.9229 C   0  0  0  0  0  0  0  0  0  0  0  0
   14.6889   22.1113   14.2270 C   0  0  0  0  0  0  0  0  0  0  0  0
   15.1358   23.0543   13.2936 C   0  0  0  0  0  0  0  0  0  0  0  0
   16.5069   23.2997   13.1416 C   0  0  0  0  0  0  0  0  0  0  0  0
   17.4288   22.6551   13.9639 C   0  0  0  0  0  0  0  0  0  0  0  0
   16.9788   21.6949   14.8689 C   0  0  0  0  0  0  0  0  0  0  0  0
   15.6278   21.4001   14.9886 C   0  0  0  0  0  0  0  0  0  0  0  0
 16 15  1  0  0  0
  9 15  1  0  0  0
 10  9  2  0  0  0
  9 14  1  0  0  0
 11 10  1  0  0  0
 11 12  2  0  0  0
  6 12  1  0  0  0
 12 13  1  0  0  0
 13 14  2  0  0  0
  8  6  2  0  0  0
  5  6  1  0  0  0
  6  7  2  0  0  0
 17  5  1  0  0  0
  5  4  1  0  0  0
 18 17  1  0  0  0
 20 18  1  0  0  0
 19 18  1  0  0  0
 23 19  1  0  0  0
 21 20  1  0  0  0
 22 21  2  0  0  0
 21 23  1  0  0  0
  1  4  1  0  0  0
  1 25  1  0  0  0
  1  2  1  0  0  0
 26 25  1  0  0  0
 25 39  1  0  0  0
 27 26  1  0  0  0
 28 27  2  0  0  0
 30 27  1  0  0  0
 32 30  1  0  0  0
 32 31  1  0  0  0
 31 38  1  0  0  0
 33 32  1  0  0  0
 33 34  1  0  0  0
 34 38  1  0  0  0
 34 35  1  0  0  0
 35 36  1  0  0  0
 37 36  1  0  0  0
 38 37  1  0  0  0
 39 45  1  0  0  0
 45 40  2  0  0  0
 40 41  1  0  0  0
 42 41  2  0  0  0
 43 42  1  0  0  0
 44 43  2  0  0  0
 44 45  1  0  0  0
 20 24  1  0  0  0
  2  3  1  0  0  0
 26 29  1  0  0  0
M  END
> <minimizedAffinity>
-10.22768

$$$$
3VF7_031_A_201


 45 49  0  0  0  0  0  0  0  0999 V2000
   12.0272   21.4796   16.3239 C   0  0  0  0  0  0  0  0  0  0  0  0
   11.2438   22.5416   16.8540 O   0  0  0  0  0  0  0  0  0  0  0  0
   11.6186   22.8280   17.7016 H   0  0  0  0  0  0  0  0  0  0  0  0
   11.9906   20.3852   17.4269 C   0  0  0  0  0  0  0  0  0  0  0  0
   10.8518   19.5123   17.2296 N   0  0  0  0  0  0  0  0  0  0  0  0
   11.0300   18.1101   16.3847 S   0  0  0  0  0  0  0  0  0  0  0  0
   11.7894   17.1522   17.2683 O   0  0  0  0  0  0  0  0  0  0  0  0
   11.5657   18.4259   15.0698 O   0  0  0  0  0  0  0  0  0  0  0  0
    6.9866   16.1633   15.7112 C   0  0  0  0  0  0  0  0  0  0  0  0
    7.8129   15.6900   16.7262 C   0  0  0  0  0  0  0  0  0  0  0  0
    8.9838   16.4073   16.9816 C   0  0  0  0  0  0  0  0  0  0  0  0
    9.4060   17.4408   16.1583 C   0  0  0  0  0  0  0  0  0  0  0  0
    8.5712   17.9005   15.1726 C   0  0  0  0  0  0  0  0  0  0  0  0
    7.3247   17.2981   14.9905 C   0  0  0  0  0  0  0  0  0  0  0  0
    5.7971   15.6213   15.3704 O   0  0  0  0  0  0  0  0  0  0  0  0
    5.8122   14.1955   15.3772 C   0  0  0  0  0  0  0  0  0  0  0  0
    9.9375   19.4680   18.3252 C   0  0  0  0  0  0  0  0  0  0  0  0
   10.6074   19.2834   19.7020 C   0  0  0  0  0  0  0  0  0  0  0  0
   10.2660   20.3863   20.7029 C   0  0  0  0  0  0  0  0  0  0  0  0
   10.0090   18.0601   20.2464 N   0  0  0  0  0  0  0  0  0  0  0  0
    9.0476   18.3583   21.0857 C   0  0  0  0  0  0  0  0  0  0  0  0
    8.3204   17.4940   21.5712 O   0  0  0  0  0  0  0  0  0  0  0  0
    8.9873   19.8486   21.3487 C   0  0  0  0  0  0  0  0  0  0  0  0
   10.2896   17.1453   20.0144 H   0  0  0  0  0  0  0  0  0  0  0  0
   13.4611   21.9096   16.0286 C   0  0  0  0  0  0  0  0  0  0  0  0
   14.1575   22.0853   17.2862 N   0  0  0  0  0  0  0  0  0  0  0  0
   15.1234   22.9802   17.5138 C   0  0  0  0  0  0  0  0  0  0  0  0
   15.6238   23.7404   16.7229 O   0  0  0  0  0  0  0  0  0  0  0  0
   13.8985   21.4986   18.0332 H   0  0  0  0  0  0  0  0  0  0  0  0
   15.5620   22.9166   18.8102 O   0  0  0  0  0  0  0  0  0  0  0  0
   14.7971   25.2004   19.1751 C   0  0  0  0  0  0  0  0  0  0  0  0
   14.8695   23.7771   19.7175 C   0  0  0  0  0  0  0  0  0  0  0  0
   15.7401   23.8784   20.9902 C   0  0  0  0  0  0  0  0  0  0  0  0
   16.7595   24.9490   20.6632 C   0  0  0  0  0  0  0  0  0  0  0  0
   17.8931   24.4082   19.9718 O   0  0  0  0  0  0  0  0  0  0  0  0
   18.0420   24.8946   18.6764 C   0  0  0  0  0  0  0  0  0  0  0  0
   17.1234   26.1461   18.6295 C   0  0  0  0  0  0  0  0  0  0  0  0
   16.0667   25.8608   19.6841 C   0  0  0  0  0  0  0  0  0  0  0  0
   14.2936   20.9595   15.1458 C   0  0  0  0  0  0  0  0  0  0  0  0
   16.7616   21.2442   14.6859 C   0  0  0  0  0  0  0  0  0  0  0  0
   17.8190   21.9509   14.1003 C   0  0  0  0  0  0  0  0  0  0  0  0
   17.5572   23.0336   13.2503 C   0  0  0  0  0  0  0  0  0  0  0  0
   16.2435   23.3714   12.9313 C   0  0  0  0  0  0  0  0  0  0  0  0
   15.1963   22.6834   13.5425 C   0  0  0  0  0  0  0  0  0  0  0  0
   15.4422   21.6465   14.4317 C   0  0  0  0  0  0  0  0  0  0  0  0
 16 15  1  0  0  0
  9 15  1  0  0  0
 10  9  2  0  0  0
  9 14  1  0  0  0
 11 10  1  0  0  0
 11 12  2  0  0  0
  6 12  1  0  0  0
 12 13  1  0  0  0
 13 14  2  0  0  0
  8  6  2  0  0  0
  5  6  1  0  0  0
  6  7  2  0  0  0
 17  5  1  0  0  0
  5  4  1  0  0  0
 18 17  1  0  0  0
 20 18  1  0  0  0
 19 18  1  0  0  0
 23 19  1  0  0  0
 21 20  1  0  0  0
 22 21  2  0  0  0
 21 23  1  0  0  0
  1  4  1  0  0  0
  1 25  1  0  0  0
  1  2  1  0  0  0
 26 25  1  0  0  0
 25 39  1  0  0  0
 27 26  1  0  0  0
 28 27  2  0  0  0
 30 27  1  0  0  0
 32 30  1  0  0  0
 32 31  1  0  0  0
 31 38  1  0  0  0
 33 32  1  0  0  0
 33 34  1  0  0  0
 34 38  1  0  0  0
 34 35  1  0  0  0
 35 36  1  0  0  0
 37 36  1  0  0  0
 38 37  1  0  0  0
 39 45  1  0  0  0
 45 40  2  0  0  0
 40 41  1  0  0  0
 42 41  2  0  0  0
 43 42  1  0  0  0
 44 43  2  0  0  0
 44 45  1  0  0  0
 20 24  1  0  0  0
  2  3  1  0  0  0
 26 29  1  0  0  0
M  END
> <minimizedAffinity>
-9.97501

$$$$
3VF7_031_A_201


 45 49  0  0  0  0  0  0  0  0999 V2000
   11.6334   20.9844   18.1757 C   0  0  0  0  0  0  0  0  0  0  0  0
   10.6506   21.8466   18.7355 O   0  0  0  0  0  0  0  0  0  0  0  0
   10.0821   22.1908   18.0289 H   0  0  0  0  0  0  0  0  0  0  0  0
   12.3838   21.8727   17.1444 C   0  0  0  0  0  0  0  0  0  0  0  0
   13.6883   21.3133   16.8560 N   0  0  0  0  0  0  0  0  0  0  0  0
   14.0088   20.7098   15.3578 S   0  0  0  0  0  0  0  0  0  0  0  0
   12.7989   20.9842   14.5000 O   0  0  0  0  0  0  0  0  0  0  0  0
   14.4712   19.3380   15.4995 O   0  0  0  0  0  0  0  0  0  0  0  0
   17.3775   23.0527   13.4199 C   0  0  0  0  0  0  0  0  0  0  0  0
   16.0577   23.4015   13.1487 C   0  0  0  0  0  0  0  0  0  0  0  0
   15.0623   22.7413   13.8727 C   0  0  0  0  0  0  0  0  0  0  0  0
   15.3473   21.6641   14.6988 C   0  0  0  0  0  0  0  0  0  0  0  0
   16.6543   21.3455   14.9630 C   0  0  0  0  0  0  0  0  0  0  0  0
   17.6770   22.0877   14.3688 C   0  0  0  0  0  0  0  0  0  0  0  0
   18.4589   23.6275   12.8498 O   0  0  0  0  0  0  0  0  0  0  0  0
   18.2833   23.8877   11.4590 C   0  0  0  0  0  0  0  0  0  0  0  0
   14.7756   21.9675   17.5103 C   0  0  0  0  0  0  0  0  0  0  0  0
   14.4653   23.4072   17.9682 C   0  0  0  0  0  0  0  0  0  0  0  0
   14.7694   23.6601   19.4441 C   0  0  0  0  0  0  0  0  0  0  0  0
   15.4092   24.2467   17.2232 N   0  0  0  0  0  0  0  0  0  0  0  0
   16.4410   24.5474   17.9736 C   0  0  0  0  0  0  0  0  0  0  0  0
   17.4197   25.1388   17.5221 O   0  0  0  0  0  0  0  0  0  0  0  0
   16.2395   24.0823   19.4008 C   0  0  0  0  0  0  0  0  0  0  0  0
   15.2856   24.5422   16.2923 H   0  0  0  0  0  0  0  0  0  0  0  0
   11.0153   19.7648   17.4984 C   0  0  0  0  0  0  0  0  0  0  0  0
    9.9985   19.2183   18.3730 N   0  0  0  0  0  0  0  0  0  0  0  0
   10.2293   18.6328   19.5517 C   0  0  0  0  0  0  0  0  0  0  0  0
   11.2969   18.4004   20.0617 O   0  0  0  0  0  0  0  0  0  0  0  0
    9.0623   19.2833   18.0752 H   0  0  0  0  0  0  0  0  0  0  0  0
    9.0591   18.2459   20.1501 O   0  0  0  0  0  0  0  0  0  0  0  0
    6.6419   18.5153   20.0136 C   0  0  0  0  0  0  0  0  0  0  0  0
    7.9325   18.1823   19.2727 C   0  0  0  0  0  0  0  0  0  0  0  0
    7.7794   16.7043   18.8483 C   0  0  0  0  0  0  0  0  0  0  0  0
    7.0046   16.0666   19.9822 C   0  0  0  0  0  0  0  0  0  0  0  0
    7.8711   15.6376   21.0408 O   0  0  0  0  0  0  0  0  0  0  0  0
    7.6612   16.3088   22.2416 C   0  0  0  0  0  0  0  0  0  0  0  0
    6.2826   17.0002   22.0578 C   0  0  0  0  0  0  0  0  0  0  0  0
    6.1634   17.1786   20.5531 C   0  0  0  0  0  0  0  0  0  0  0  0
   10.3838   19.9971   16.1120 C   0  0  0  0  0  0  0  0  0  0  0  0
    8.5722   18.5118   15.1655 C   0  0  0  0  0  0  0  0  0  0  0  0
    8.1565   17.2876   14.6283 C   0  0  0  0  0  0  0  0  0  0  0  0
    9.0971   16.2912   14.3356 C   0  0  0  0  0  0  0  0  0  0  0  0
   10.4567   16.5373   14.5160 C   0  0  0  0  0  0  0  0  0  0  0  0
   10.8604   17.7463   15.0804 C   0  0  0  0  0  0  0  0  0  0  0  0
    9.9341   18.7194   15.4290 C   0  0  0  0  0  0  0  0  0  0  0  0
 16 15  1  0  0  0
  9 15  1  0  0  0
 10  9  2  0  0  0
  9 14  1  0  0  0
 11 10  1  0  0  0
 11 12  2  0  0  0
  6 12  1  0  0  0
 12 13  1  0  0  0
 13 14  2  0  0  0
  8  6  2  0  0  0
  5  6  1  0  0  0
  6  7  2  0  0  0
 17  5  1  0  0  0
  5  4  1  0  0  0
 18 17  1  0  0  0
 20 18  1  0  0  0
 19 18  1  0  0  0
 23 19  1  0  0  0
 21 20  1  0  0  0
 22 21  2  0  0  0
 21 23  1  0  0  0
  1  4  1  0  0  0
  1 25  1  0  0  0
  1  2  1  0  0  0
 26 25  1  0  0  0
 25 39  1  0  0  0
 27 26  1  0  0  0
 28 27  2  0  0  0
 30 27  1  0  0  0
 32 30  1  0  0  0
 32 31  1  0  0  0
 31 38  1  0  0  0
 33 32  1  0  0  0
 33 34  1  0  0  0
 34 38  1  0  0  0
 34 35  1  0  0  0
 35 36  1  0  0  0
 37 36  1  0  0  0
 38 37  1  0  0  0
 39 45  1  0  0  0
 45 40  2  0  0  0
 40 41  1  0  0  0
 42 41  2  0  0  0
 43 42  1  0  0  0
 44 43  2  0  0  0
 44 45  1  0  0  0
 20 24  1  0  0  0
  2  3  1  0  0  0
 26 29  1  0  0  0
M  END
> <minimizedAffinity>
-9.96774

$$$$
3VF7_031_A_201


 45 49  0  0  0  0  0  0  0  0999 V2000
   13.1398   19.1138   17.6472 C   0  0  0  0  0  0  0  0  0  0  0  0
   14.1915   18.3881   18.2717 O   0  0  0  0  0  0  0  0  0  0  0  0
   14.2259   18.6154   19.2141 H   0  0  0  0  0  0  0  0  0  0  0  0
   13.4846   20.6046   17.9200 C   0  0  0  0  0  0  0  0  0  0  0  0
   14.4788   21.0704   16.9753 N   0  0  0  0  0  0  0  0  0  0  0  0
   14.2539   20.8284   15.3621 S   0  0  0  0  0  0  0  0  0  0  0  0
   12.9423   21.4760   14.9941 O   0  0  0  0  0  0  0  0  0  0  0  0
   14.4431   19.4152   15.0742 O   0  0  0  0  0  0  0  0  0  0  0  0
   17.6123   23.2238   13.4711 C   0  0  0  0  0  0  0  0  0  0  0  0
   17.9209   22.1307   14.2755 C   0  0  0  0  0  0  0  0  0  0  0  0
   16.8547   21.3466   14.7218 C   0  0  0  0  0  0  0  0  0  0  0  0
   15.5341   21.7242   14.5283 C   0  0  0  0  0  0  0  0  0  0  0  0
   15.2516   22.7962   13.7217 C   0  0  0  0  0  0  0  0  0  0  0  0
   16.2983   23.5119   13.1367 C   0  0  0  0  0  0  0  0  0  0  0  0
   18.5228   24.0520   12.9144 O   0  0  0  0  0  0  0  0  0  0  0  0
   18.1162   25.4186   12.9310 C   0  0  0  0  0  0  0  0  0  0  0  0
   15.1202   22.2929   17.3389 C   0  0  0  0  0  0  0  0  0  0  0  0
   14.2826   23.1958   18.2672 C   0  0  0  0  0  0  0  0  0  0  0  0
   14.8076   23.2560   19.7009 C   0  0  0  0  0  0  0  0  0  0  0  0
   14.4572   24.5484   17.7280 N   0  0  0  0  0  0  0  0  0  0  0  0
   15.3686   25.1966   18.4114 C   0  0  0  0  0  0  0  0  0  0  0  0
   15.7718   26.3050   18.0645 O   0  0  0  0  0  0  0  0  0  0  0  0
   15.8110   24.4087   19.6269 C   0  0  0  0  0  0  0  0  0  0  0  0
   13.9607   24.9169   16.9619 H   0  0  0  0  0  0  0  0  0  0  0  0
   11.7710   18.7564   18.2188 C   0  0  0  0  0  0  0  0  0  0  0  0
   11.2255   17.6547   17.4531 N   0  0  0  0  0  0  0  0  0  0  0  0
    9.9267   17.4504   17.2147 C   0  0  0  0  0  0  0  0  0  0  0  0
    8.9924   18.0882   17.6320 O   0  0  0  0  0  0  0  0  0  0  0  0
   11.8626   17.0043   17.0784 H   0  0  0  0  0  0  0  0  0  0  0  0
    9.7348   16.3387   16.4371 O   0  0  0  0  0  0  0  0  0  0  0  0
    8.3186   17.3488   14.7318 C   0  0  0  0  0  0  0  0  0  0  0  0
    9.6130   16.6029   15.0376 C   0  0  0  0  0  0  0  0  0  0  0  0
    9.4608   15.2345   14.3360 C   0  0  0  0  0  0  0  0  0  0  0  0
    7.9871   14.9105   14.4613 C   0  0  0  0  0  0  0  0  0  0  0  0
    7.6900   14.2665   15.7073 O   0  0  0  0  0  0  0  0  0  0  0  0
    6.8532   15.0093   16.5348 C   0  0  0  0  0  0  0  0  0  0  0  0
    6.2513   16.0921   15.5979 C   0  0  0  0  0  0  0  0  0  0  0  0
    7.2962   16.2486   14.5053 C   0  0  0  0  0  0  0  0  0  0  0  0
   11.7300   18.3728   19.7108 C   0  0  0  0  0  0  0  0  0  0  0  0
    9.6518   18.5367   21.1383 C   0  0  0  0  0  0  0  0  0  0  0  0
    8.6807   19.3028   21.7941 C   0  0  0  0  0  0  0  0  0  0  0  0
    8.8023   20.6977   21.8482 C   0  0  0  0  0  0  0  0  0  0  0  0
    9.9232   21.3241   21.3071 C   0  0  0  0  0  0  0  0  0  0  0  0
   10.8698   20.5579   20.6286 C   0  0  0  0  0  0  0  0  0  0  0  0
   10.7316   19.1814   20.5173 C   0  0  0  0  0  0  0  0  0  0  0  0
 16 15  1  0  0  0
  9 15  1  0  0  0
 10  9  2  0  0  0
  9 14  1  0  0  0
 11 10  1  0  0  0
 11 12  2  0  0  0
  6 12  1  0  0  0
 12 13  1  0  0  0
 13 14  2  0  0  0
  8  6  2  0  0  0
  5  6  1  0  0  0
  6  7  2  0  0  0
 17  5  1  0  0  0
  5  4  1  0  0  0
 18 17  1  0  0  0
 20 18  1  0  0  0
 19 18  1  0  0  0
 23 19  1  0  0  0
 21 20  1  0  0  0
 22 21  2  0  0  0
 21 23  1  0  0  0
  1  4  1  0  0  0
  1 25  1  0  0  0
  1  2  1  0  0  0
 26 25  1  0  0  0
 25 39  1  0  0  0
 27 26  1  0  0  0
 28 27  2  0  0  0
 30 27  1  0  0  0
 32 30  1  0  0  0
 32 31  1  0  0  0
 31 38  1  0  0  0
 33 32  1  0  0  0
 33 34  1  0  0  0
 34 38  1  0  0  0
 34 35  1  0  0  0
 35 36  1  0  0  0
 37 36  1  0  0  0
 38 37  1  0  0  0
 39 45  1  0  0  0
 45 40  2  0  0  0
 40 41  1  0  0  0
 42 41  2  0  0  0
 43 42  1  0  0  0
 44 43  2  0  0  0
 44 45  1  0  0  0
 20 24  1  0  0  0
  2  3  1  0  0  0
 26 29  1  0  0  0
M  END
> <minimizedAffinity>
-9.80517

$$$$
3VF7_031_A_201


 45 49  0  0  0  0  0  0  0  0999 V2000
   12.5591   18.8005   16.6396 C   0  0  0  0  0  0  0  0  0  0  0  0
   13.1345   18.5108   17.9075 O   0  0  0  0  0  0  0  0  0  0  0  0
   12.5623   18.8585   18.6093 H   0  0  0  0  0  0  0  0  0  0  0  0
   12.4187   20.3484   16.6241 C   0  0  0  0  0  0  0  0  0  0  0  0
   13.6604   20.9603   16.1980 N   0  0  0  0  0  0  0  0  0  0  0  0
   14.3477   20.5126   14.7702 S   0  0  0  0  0  0  0  0  0  0  0  0
   13.2744   20.5994   13.7139 O   0  0  0  0  0  0  0  0  0  0  0  0
   15.0393   19.2479   14.9646 O   0  0  0  0  0  0  0  0  0  0  0  0
   17.4892   23.5423   13.5274 C   0  0  0  0  0  0  0  0  0  0  0  0
   16.2227   23.5956   12.9528 C   0  0  0  0  0  0  0  0  0  0  0  0
   15.2531   22.7311   13.4658 C   0  0  0  0  0  0  0  0  0  0  0  0
   15.5656   21.7389   14.3833 C   0  0  0  0  0  0  0  0  0  0  0  0
   16.8151   21.7122   14.9470 C   0  0  0  0  0  0  0  0  0  0  0  0
   17.7636   22.6622   14.5626 C   0  0  0  0  0  0  0  0  0  0  0  0
   18.5238   24.3416   13.1873 O   0  0  0  0  0  0  0  0  0  0  0  0
   18.1608   25.7181   13.1057 C   0  0  0  0  0  0  0  0  0  0  0  0
   13.7995   22.3362   16.5526 C   0  0  0  0  0  0  0  0  0  0  0  0
   14.1538   22.5758   18.0343 C   0  0  0  0  0  0  0  0  0  0  0  0
   15.6568   22.6211   18.3058 C   0  0  0  0  0  0  0  0  0  0  0  0
   13.6620   23.9273   18.3211 N   0  0  0  0  0  0  0  0  0  0  0  0
   14.6442   24.7927   18.2544 C   0  0  0  0  0  0  0  0  0  0  0  0
   14.4472   26.0035   18.3359 O   0  0  0  0  0  0  0  0  0  0  0  0
   15.9793   24.0995   18.0786 C   0  0  0  0  0  0  0  0  0  0  0  0
   12.7274   24.1525   18.5334 H   0  0  0  0  0  0  0  0  0  0  0  0
   11.2028   18.1273   16.4519 C   0  0  0  0  0  0  0  0  0  0  0  0
   10.2803   18.6699   17.4276 N   0  0  0  0  0  0  0  0  0  0  0  0
    9.4119   17.9545   18.1484 C   0  0  0  0  0  0  0  0  0  0  0  0
    9.1964   16.7702   18.0780 O   0  0  0  0  0  0  0  0  0  0  0  0
   10.2940   19.6438   17.5712 H   0  0  0  0  0  0  0  0  0  0  0  0
    8.6997   18.7546   19.0026 O   0  0  0  0  0  0  0  0  0  0  0  0
    8.3353   19.5208   21.2861 C   0  0  0  0  0  0  0  0  0  0  0  0
    8.7794   18.3781   20.3792 C   0  0  0  0  0  0  0  0  0  0  0  0
   10.2769   18.1721   20.7004 C   0  0  0  0  0  0  0  0  0  0  0  0
   10.7931   19.5653   20.9924 C   0  0  0  0  0  0  0  0  0  0  0  0
   11.1792   20.2497   19.7932 O   0  0  0  0  0  0  0  0  0  0  0  0
   10.4112   21.3780   19.5216 C   0  0  0  0  0  0  0  0  0  0  0  0
    9.6757   21.6711   20.8578 C   0  0  0  0  0  0  0  0  0  0  0  0
    9.6056   20.3142   21.5391 C   0  0  0  0  0  0  0  0  0  0  0  0
   10.5601   18.2572   15.0573 C   0  0  0  0  0  0  0  0  0  0  0  0
    8.1226   17.6368   14.8179 C   0  0  0  0  0  0  0  0  0  0  0  0
    7.1186   16.6712   14.6772 C   0  0  0  0  0  0  0  0  0  0  0  0
    7.4578   15.3242   14.4928 C   0  0  0  0  0  0  0  0  0  0  0  0
    8.7948   14.9478   14.3826 C   0  0  0  0  0  0  0  0  0  0  0  0
    9.7890   15.9097   14.5549 C   0  0  0  0  0  0  0  0  0  0  0  0
    9.4672   17.2381   14.7963 C   0  0  0  0  0  0  0  0  0  0  0  0
 16 15  1  0  0  0
  9 15  1  0  0  0
 10  9  2  0  0  0
  9 14  1  0  0  0
 11 10  1  0  0  0
 11 12  2  0  0  0
  6 12  1  0  0  0
 12 13  1  0  0  0
 13 14  2  0  0  0
  8  6  2  0  0  0
  5  6  1  0  0  0
  6  7  2  0  0  0
 17  5  1  0  0  0
  5  4  1  0  0  0
 18 17  1  0  0  0
 20 18  1  0  0  0
 19 18  1  0  0  0
 23 19  1  0  0  0
 21 20  1  0  0  0
 22 21  2  0  0  0
 21 23  1  0  0  0
  1  4  1  0  0  0
  1 25  1  0  0  0
  1  2  1  0  0  0
 26 25  1  0  0  0
 25 39  1  0  0  0
 27 26  1  0  0  0
 28 27  2  0  0  0
 30 27  1  0  0  0
 32 30  1  0  0  0
 32 31  1  0  0  0
 31 38  1  0  0  0
 33 32  1  0  0  0
 33 34  1  0  0  0
 34 38  1  0  0  0
 34 35  1  0  0  0
 35 36  1  0  0  0
 37 36  1  0  0  0
 38 37  1  0  0  0
 39 45  1  0  0  0
 45 40  2  0  0  0
 40 41  1  0  0  0
 42 41  2  0  0  0
 43 42  1  0  0  0
 44 43  2  0  0  0
 44 45  1  0  0  0
 20 24  1  0  0  0
  2  3  1  0  0  0
 26 29  1  0  0  0
M  END
> <minimizedAffinity>
-9.67245

$$$$
3VF7_031_A_201


 45 49  0  0  0  0  0  0  0  0999 V2000
   12.2861   18.6259   17.6140 C   0  0  0  0  0  0  0  0  0  0  0  0
   12.0559   18.8300   19.0025 O   0  0  0  0  0  0  0  0  0  0  0  0
   11.1938   19.2566   19.1280 H   0  0  0  0  0  0  0  0  0  0  0  0
   12.1948   20.0485   16.9944 C   0  0  0  0  0  0  0  0  0  0  0  0
   13.3884   20.8081   17.3046 N   0  0  0  0  0  0  0  0  0  0  0  0
   13.5473   21.5190   18.7814 S   0  0  0  0  0  0  0  0  0  0  0  0
   14.3572   20.5811   19.6414 O   0  0  0  0  0  0  0  0  0  0  0  0
   12.2305   21.9314   19.2417 O   0  0  0  0  0  0  0  0  0  0  0  0
   16.0976   25.2565   18.4364 C   0  0  0  0  0  0  0  0  0  0  0  0
   16.7120   24.0274   18.6576 C   0  0  0  0  0  0  0  0  0  0  0  0
   15.8989   22.8924   18.6201 C   0  0  0  0  0  0  0  0  0  0  0  0
   14.5169   22.9816   18.5421 C   0  0  0  0  0  0  0  0  0  0  0  0
   13.9327   24.2001   18.3109 C   0  0  0  0  0  0  0  0  0  0  0  0
   14.7354   25.3366   18.1928 C   0  0  0  0  0  0  0  0  0  0  0  0
   16.7426   26.4425   18.3872 O   0  0  0  0  0  0  0  0  0  0  0  0
   17.6690   26.5283   17.3067 C   0  0  0  0  0  0  0  0  0  0  0  0
   14.5889   20.2942   16.7277 C   0  0  0  0  0  0  0  0  0  0  0  0
   14.7386   20.5778   15.2192 C   0  0  0  0  0  0  0  0  0  0  0  0
   14.4401   22.0262   14.8350 C   0  0  0  0  0  0  0  0  0  0  0  0
   16.1660   20.3846   14.9436 N   0  0  0  0  0  0  0  0  0  0  0  0
   16.7852   21.5396   14.9196 C   0  0  0  0  0  0  0  0  0  0  0  0
   18.0089   21.6167   14.8294 O   0  0  0  0  0  0  0  0  0  0  0  0
   15.8066   22.6922   15.0084 C   0  0  0  0  0  0  0  0  0  0  0  0
   16.5976   19.5119   14.7975 H   0  0  0  0  0  0  0  0  0  0  0  0
   11.2561   17.6904   16.9878 C   0  0  0  0  0  0  0  0  0  0  0  0
   10.2589   17.3681   17.9873 N   0  0  0  0  0  0  0  0  0  0  0  0
    9.2946   18.1921   18.4075 C   0  0  0  0  0  0  0  0  0  0  0  0
    9.1189   19.3420   18.0902 O   0  0  0  0  0  0  0  0  0  0  0  0
   10.2943   16.4701   18.3893 H   0  0  0  0  0  0  0  0  0  0  0  0
    8.4942   17.5839   19.3385 O   0  0  0  0  0  0  0  0  0  0  0  0
    6.9537   16.1381   18.1258 C   0  0  0  0  0  0  0  0  0  0  0  0
    8.1664   16.2236   19.0464 C   0  0  0  0  0  0  0  0  0  0  0  0
    7.7064   15.5797   20.3737 C   0  0  0  0  0  0  0  0  0  0  0  0
    6.2471   15.9659   20.4922 C   0  0  0  0  0  0  0  0  0  0  0  0
    6.0874   17.2540   21.1010 O   0  0  0  0  0  0  0  0  0  0  0  0
    5.5192   18.2043   20.2578 C   0  0  0  0  0  0  0  0  0  0  0  0
    4.9173   17.3713   19.0932 C   0  0  0  0  0  0  0  0  0  0  0  0
    5.7658   16.1104   19.0719 C   0  0  0  0  0  0  0  0  0  0  0  0
   10.5293   18.2124   15.7332 C   0  0  0  0  0  0  0  0  0  0  0  0
    8.1582   17.6779   15.0433 C   0  0  0  0  0  0  0  0  0  0  0  0
    7.1839   16.7561   14.6417 C   0  0  0  0  0  0  0  0  0  0  0  0
    7.5398   15.4284   14.3702 C   0  0  0  0  0  0  0  0  0  0  0  0
    8.8748   15.0344   14.4347 C   0  0  0  0  0  0  0  0  0  0  0  0
    9.8344   15.9494   14.8654 C   0  0  0  0  0  0  0  0  0  0  0  0
    9.4862   17.2522   15.1936 C   0  0  0  0  0  0  0  0  0  0  0  0
 16 15  1  0  0  0
  9 15  1  0  0  0
 10  9  2  0  0  0
  9 14  1  0  0  0
 11 10  1  0  0  0
 11 12  2  0  0  0
  6 12  1  0  0  0
 12 13  1  0  0  0
 13 14  2  0  0  0
  8  6  2  0  0  0
  5  6  1  0  0  0
  6  7  2  0  0  0
 17  5  1  0  0  0
  5  4  1  0  0  0
 18 17  1  0  0  0
 20 18  1  0  0  0
 19 18  1  0  0  0
 23 19  1  0  0  0
 21 20  1  0  0  0
 22 21  2  0  0  0
 21 23  1  0  0  0
  1  4  1  0  0  0
  1 25  1  0  0  0
  1  2  1  0  0  0
 26 25  1  0  0  0
 25 39  1  0  0  0
 27 26  1  0  0  0
 28 27  2  0  0  0
 30 27  1  0  0  0
 32 30  1  0  0  0
 32 31  1  0  0  0
 31 38  1  0  0  0
 33 32  1  0  0  0
 33 34  1  0  0  0
 34 38  1  0  0  0
 34 35  1  0  0  0
 35 36  1  0  0  0
 37 36  1  0  0  0
 38 37  1  0  0  0
 39 45  1  0  0  0
 45 40  2  0  0  0
 40 41  1  0  0  0
 42 41  2  0  0  0
 43 42  1  0  0  0
 44 43  2  0  0  0
 44 45  1  0  0  0
 20 24  1  0  0  0
  2  3  1  0  0  0
 26 29  1  0  0  0
M  END
> <minimizedAffinity>
-9.54922

$$$$
3VF7_031_A_201


 45 49  0  0  0  0  0  0  0  0999 V2000
   12.0206   19.6947   16.2593 C   0  0  0  0  0  0  0  0  0  0  0  0
   11.7504   20.1785   14.9495 O   0  0  0  0  0  0  0  0  0  0  0  0
   12.3500   19.7523   14.3173 H   0  0  0  0  0  0  0  0  0  0  0  0
   13.5199   20.0310   16.4933 C   0  0  0  0  0  0  0  0  0  0  0  0
   13.6655   21.4111   16.9081 N   0  0  0  0  0  0  0  0  0  0  0  0
   13.8312   21.7741   18.5057 S   0  0  0  0  0  0  0  0  0  0  0  0
   14.5990   20.6421   19.1413 O   0  0  0  0  0  0  0  0  0  0  0  0
   12.5240   22.1218   19.0404 O   0  0  0  0  0  0  0  0  0  0  0  0
   16.3787   25.5294   18.4796 C   0  0  0  0  0  0  0  0  0  0  0  0
   14.9921   25.6434   18.4416 C   0  0  0  0  0  0  0  0  0  0  0  0
   14.2516   24.4684   18.5889 C   0  0  0  0  0  0  0  0  0  0  0  0
   14.8524   23.2182   18.5976 C   0  0  0  0  0  0  0  0  0  0  0  0
   16.2196   23.1284   18.6481 C   0  0  0  0  0  0  0  0  0  0  0  0
   16.9859   24.2957   18.6543 C   0  0  0  0  0  0  0  0  0  0  0  0
   17.2394   26.5679   18.4048 O   0  0  0  0  0  0  0  0  0  0  0  0
   18.0627   26.5263   17.2413 C   0  0  0  0  0  0  0  0  0  0  0  0
   14.4042   22.2311   16.0025 C   0  0  0  0  0  0  0  0  0  0  0  0
   14.9466   21.4821   14.7683 C   0  0  0  0  0  0  0  0  0  0  0  0
   14.5864   22.1467   13.4404 C   0  0  0  0  0  0  0  0  0  0  0  0
   16.4051   21.5898   14.8784 N   0  0  0  0  0  0  0  0  0  0  0  0
   16.8487   22.5588   14.1155 C   0  0  0  0  0  0  0  0  0  0  0  0
   18.0250   22.9154   14.1398 O   0  0  0  0  0  0  0  0  0  0  0  0
   15.7451   23.1273   13.2478 C   0  0  0  0  0  0  0  0  0  0  0  0
   16.9703   21.0161   15.4447 H   0  0  0  0  0  0  0  0  0  0  0  0
   11.7714   18.1946   16.3852 C   0  0  0  0  0  0  0  0  0  0  0  0
   10.6812   17.9854   17.3154 N   0  0  0  0  0  0  0  0  0  0  0  0
   10.7386   18.2054   18.6321 C   0  0  0  0  0  0  0  0  0  0  0  0
   11.6962   18.5472   19.2803 O   0  0  0  0  0  0  0  0  0  0  0  0
    9.8297   17.6546   16.9482 H   0  0  0  0  0  0  0  0  0  0  0  0
    9.5358   17.9392   19.2317 O   0  0  0  0  0  0  0  0  0  0  0  0
    8.9020   18.6002   21.4890 C   0  0  0  0  0  0  0  0  0  0  0  0
    9.0142   19.0085   20.0240 C   0  0  0  0  0  0  0  0  0  0  0  0
    7.5579   19.2387   19.5610 C   0  0  0  0  0  0  0  0  0  0  0  0
    6.7542   18.2061   20.3227 C   0  0  0  0  0  0  0  0  0  0  0  0
    6.7346   16.9434   19.6439 O   0  0  0  0  0  0  0  0  0  0  0  0
    7.3571   15.9189   20.3508 C   0  0  0  0  0  0  0  0  0  0  0  0
    7.4891   16.4757   21.7947 C   0  0  0  0  0  0  0  0  0  0  0  0
    7.5188   17.9830   21.6016 C   0  0  0  0  0  0  0  0  0  0  0  0
   11.4426   17.4425   15.0810 C   0  0  0  0  0  0  0  0  0  0  0  0
    9.0088   18.0627   14.8055 C   0  0  0  0  0  0  0  0  0  0  0  0
    7.6545   17.7079   14.7911 C   0  0  0  0  0  0  0  0  0  0  0  0
    7.2777   16.3627   14.8992 C   0  0  0  0  0  0  0  0  0  0  0  0
    8.2496   15.3658   14.9555 C   0  0  0  0  0  0  0  0  0  0  0  0
    9.5949   15.7287   15.0010 C   0  0  0  0  0  0  0  0  0  0  0  0
    9.9798   17.0614   14.9534 C   0  0  0  0  0  0  0  0  0  0  0  0
 16 15  1  0  0  0
  9 15  1  0  0  0
 10  9  2  0  0  0
  9 14  1  0  0  0
 11 10  1  0  0  0
 11 12  2  0  0  0
  6 12  1  0  0  0
 12 13  1  0  0  0
 13 14  2  0  0  0
  8  6  2  0  0  0
  5  6  1  0  0  0
  6  7  2  0  0  0
 17  5  1  0  0  0
  5  4  1  0  0  0
 18 17  1  0  0  0
 20 18  1  0  0  0
 19 18  1  0  0  0
 23 19  1  0  0  0
 21 20  1  0  0  0
 22 21  2  0  0  0
 21 23  1  0  0  0
  1  4  1  0  0  0
  1 25  1  0  0  0
  1  2  1  0  0  0
 26 25  1  0  0  0
 25 39  1  0  0  0
 27 26  1  0  0  0
 28 27  2  0  0  0
 30 27  1  0  0  0
 32 30  1  0  0  0
 32 31  1  0  0  0
 31 38  1  0  0  0
 33 32  1  0  0  0
 33 34  1  0  0  0
 34 38  1  0  0  0
 34 35  1  0  0  0
 35 36  1  0  0  0
 37 36  1  0  0  0
 38 37  1  0  0  0
 39 45  1  0  0  0
 45 40  2  0  0  0
 40 41  1  0  0  0
 42 41  2  0  0  0
 43 42  1  0  0  0
 44 43  2  0  0  0
 44 45  1  0  0  0
 20 24  1  0  0  0
  2  3  1  0  0  0
 26 29  1  0  0  0
M  END
> <minimizedAffinity>
-9.54303

$$$$
3VF7_031_A_201


 45 49  0  0  0  0  0  0  0  0999 V2000
   10.5660   17.6709   15.4391 C   0  0  0  0  0  0  0  0  0  0  0  0
   11.1426   17.0048   14.3226 O   0  0  0  0  0  0  0  0  0  0  0  0
   11.3699   16.0951   14.5709 H   0  0  0  0  0  0  0  0  0  0  0  0
   11.6516   17.5767   16.5474 C   0  0  0  0  0  0  0  0  0  0  0  0
   12.1334   18.8987   16.8911 N   0  0  0  0  0  0  0  0  0  0  0  0
   11.5921   19.6389   18.2588 S   0  0  0  0  0  0  0  0  0  0  0  0
   11.8113   18.6781   19.4007 O   0  0  0  0  0  0  0  0  0  0  0  0
   10.2494   20.1419   18.0137 O   0  0  0  0  0  0  0  0  0  0  0  0
   14.3344   23.2279   18.6961 C   0  0  0  0  0  0  0  0  0  0  0  0
   13.0778   23.3935   18.1212 C   0  0  0  0  0  0  0  0  0  0  0  0
   12.2210   22.2906   18.1332 C   0  0  0  0  0  0  0  0  0  0  0  0
   12.6477   21.0337   18.5361 C   0  0  0  0  0  0  0  0  0  0  0  0
   13.8841   20.8949   19.1119 C   0  0  0  0  0  0  0  0  0  0  0  0
   14.7077   22.0139   19.2513 C   0  0  0  0  0  0  0  0  0  0  0  0
   15.2621   24.2028   18.8142 O   0  0  0  0  0  0  0  0  0  0  0  0
   15.2819   24.7989   20.1094 C   0  0  0  0  0  0  0  0  0  0  0  0
   13.4971   19.1443   16.5473 C   0  0  0  0  0  0  0  0  0  0  0  0
   13.7170   19.5414   15.0734 C   0  0  0  0  0  0  0  0  0  0  0  0
   13.0852   20.8812   14.6985 C   0  0  0  0  0  0  0  0  0  0  0  0
   15.1647   19.7428   14.9539 N   0  0  0  0  0  0  0  0  0  0  0  0
   15.4546   21.0187   15.0312 C   0  0  0  0  0  0  0  0  0  0  0  0
   16.6166   21.4171   15.0806 O   0  0  0  0  0  0  0  0  0  0  0  0
   14.2016   21.8695   15.0419 C   0  0  0  0  0  0  0  0  0  0  0  0
   15.8248   19.0224   14.8328 H   0  0  0  0  0  0  0  0  0  0  0  0
    9.2637   17.0184   15.8933 C   0  0  0  0  0  0  0  0  0  0  0  0
    9.0357   17.3629   17.2814 N   0  0  0  0  0  0  0  0  0  0  0  0
    8.6576   16.5073   18.2356 C   0  0  0  0  0  0  0  0  0  0  0  0
    8.3828   15.3399   18.1109 O   0  0  0  0  0  0  0  0  0  0  0  0
    9.1699   18.3025   17.5428 H   0  0  0  0  0  0  0  0  0  0  0  0
    8.5535   17.1339   19.4496 O   0  0  0  0  0  0  0  0  0  0  0  0
    7.3209   18.5624   20.9904 C   0  0  0  0  0  0  0  0  0  0  0  0
    7.4405   18.0227   19.5692 C   0  0  0  0  0  0  0  0  0  0  0  0
    6.1664   17.1747   19.3555 C   0  0  0  0  0  0  0  0  0  0  0  0
    5.8935   16.5590   20.7116 C   0  0  0  0  0  0  0  0  0  0  0  0
    6.6300   15.3434   20.8997 O   0  0  0  0  0  0  0  0  0  0  0  0
    7.5666   15.4105   21.9269 C   0  0  0  0  0  0  0  0  0  0  0  0
    7.1637   16.6775   22.7299 C   0  0  0  0  0  0  0  0  0  0  0  0
    6.4496   17.5447   21.7061 C   0  0  0  0  0  0  0  0  0  0  0  0
    7.9985   17.3831   15.0925 C   0  0  0  0  0  0  0  0  0  0  0  0
    7.0825   15.0369   14.8927 C   0  0  0  0  0  0  0  0  0  0  0  0
    6.0095   14.1389   14.9419 C   0  0  0  0  0  0  0  0  0  0  0  0
    4.7461   14.5736   15.3642 C   0  0  0  0  0  0  0  0  0  0  0  0
    4.5665   15.8850   15.7996 C   0  0  0  0  0  0  0  0  0  0  0  0
    5.6313   16.7810   15.7180 C   0  0  0  0  0  0  0  0  0  0  0  0
    6.8730   16.3779   15.2466 C   0  0  0  0  0  0  0  0  0  0  0  0
 16 15  1  0  0  0
  9 15  1  0  0  0
 10  9  2  0  0  0
  9 14  1  0  0  0
 11 10  1  0  0  0
 11 12  2  0  0  0
  6 12  1  0  0  0
 12 13  1  0  0  0
 13 14  2  0  0  0
  8  6  2  0  0  0
  5  6  1  0  0  0
  6  7  2  0  0  0
 17  5  1  0  0  0
  5  4  1  0  0  0
 18 17  1  0  0  0
 20 18  1  0  0  0
 19 18  1  0  0  0
 23 19  1  0  0  0
 21 20  1  0  0  0
 22 21  2  0  0  0
 21 23  1  0  0  0
  1  4  1  0  0  0
  1 25  1  0  0  0
  1  2  1  0  0  0
 26 25  1  0  0  0
 25 39  1  0  0  0
 27 26  1  0  0  0
 28 27  2  0  0  0
 30 27  1  0  0  0
 32 30  1  0  0  0
 32 31  1  0  0  0
 31 38  1  0  0  0
 33 32  1  0  0  0
 33 34  1  0  0  0
 34 38  1  0  0  0
 34 35  1  0  0  0
 35 36  1  0  0  0
 37 36  1  0  0  0
 38 37  1  0  0  0
 39 45  1  0  0  0
 45 40  2  0  0  0
 40 41  1  0  0  0
 42 41  2  0  0  0
 43 42  1  0  0  0
 44 43  2  0  0  0
 44 45  1  0  0  0
 20 24  1  0  0  0
  2  3  1  0  0  0
 26 29  1  0  0  0
M  END
> <minimizedAffinity>
-9.50416

$$$$
