5L9I_SNW_A_401
  RCSB PDB12061718453D
Coordinates from PDB:5L9I:A:401 Model:1 without hydrogens
 21 21  0  0  0  0            999 V2000
   10.0890   47.8890   -1.8740   O 0  0  0  0  0  0  0  0  0  0  0  0
   10.8970   46.7360   -1.6690   C 0  0  0  0  0  0  0  0  0  0  0  0
   10.5220   45.6070   -2.4950   C 0  0  0  0  0  0  0  0  0  0  0  0
    9.2140   45.0220   -2.1740   O 0  0  0  0  0  0  0  0  0  0  0  0
   11.4580   44.5540   -2.6160   C 0  0  0  0  0  0  0  0  0  0  0  0
   11.4510   43.8020   -1.4120   O 0  0  0  0  0  0  0  0  0  0  0  0
   12.8950   44.9940   -2.7360   C 0  0  0  0  0  0  0  0  0  0  0  0
   13.1960   46.0140   -1.8150   O 0  0  0  0  0  0  0  0  0  0  0  0
   12.3640   47.1220   -1.8080   C 0  0  0  0  0  0  0  0  0  0  0  0
   12.4610   47.7200   -2.9850   O 0  0  0  0  0  0  0  0  0  0  0  0
   12.8460   48.0690   -0.6970   C 0  0  0  0  0  0  0  0  0  0  0  0
   12.4110   49.4620   -0.7290   N 0  0  0  0  0  0  0  0  0  0  0  0
   12.6310   50.2240    0.4840   C 0  0  0  0  0  0  0  0  0  0  0  0
   11.3320   50.4550    1.2220   C 0  0  0  0  0  0  0  0  0  0  0  0
   10.3000   49.9270    0.7870   O 0  0  0  0  0  0  0  0  0  0  0  0
   13.3690   51.5240    0.2550   C 0  0  0  0  0  0  0  0  0  0  0  0
   12.5890   52.7020   -0.2190   C 0  0  0  0  0  0  0  0  0  0  0  0
   13.3200   53.7690   -0.9140   C 0  0  0  0  0  0  0  0  0  0  0  0
   13.6330   54.7380   -0.3580   O 0  0  0  0  0  0  0  0  0  0  0  0
   13.6390   53.6080   -2.2460   N 0  0  0  0  0  0  0  0  0  0  0  0
   11.3110   51.1410    2.2590   O 0  0  0  0  0  0  0  0  0  0  0  0
  7  5  1  0  0  0  0
  7  8  1  0  0  0  0
  5  3  1  0  0  0  0
  5  6  1  0  0  0  0
  3  4  1  0  0  0  0
  3  2  1  0  0  0  0
 10  9  1  0  0  0  0
  8  9  1  0  0  0  0
 20 18  1  0  0  0  0
  9  2  1  0  0  0  0
  9 11  1  0  0  0  0
  2  1  1  0  0  0  0
 18 17  1  0  0  0  0
 18 19  2  0  0  0  0
 17 16  1  0  0  0  0
 15 14  2  0  0  0  0
 12 11  1  0  0  0  0
 12 13  1  0  0  0  0
 14 13  1  0  0  0  0
 14 21  1  0  0  0  0
 13 16  1  0  0  0  0
A    1
OAB
A    2
CAF
A    3
CAG
A    4
OAC
A    5
CAH
A    6
OAI
A    7
CAO
A    8
OAN
A    9
CAM
A   10
OAQ
A   11
CAL
A   12
N
A   13
CA
A   14
C
A   15
O
A   16
CB
A   17
CG
A   18
CD
A   19
OE1
A   20
NE2
A   21
OXT
M  END
>  <InstanceId>
5L9I_SNW_A_401

>  <ChemCompId>
SNW

>  <PdbId>
5L9I

>  <ChainId>
A

>  <ResidueNumber>
401

>  <InsertionCode>


>  <Model>
1

>  <AltIds>


>  <MissingHeavyAtoms>
0

>  <ObservedFormula>
C11 N2 O8

>  <Name>
Deoxyfructosylglutamine

>  <SystematicName>
(2~{S})-5-azanyl-5-oxidanylidene-2-[[(2~{R},3~{S},4~{R},5~{R})-2,3,4,5-tetrakis(oxidanyl)oxan-2-yl]methylamino]pentanoic acid

>  <Synonyms>
santhopine

>  <Type>
NON-POLYMER

>  <Formula>
C11 H20 N2 O8

>  <MolecularWeight>
308.285

>  <ModifiedDate>
2016-09-16

>  <Parent>


>  <OneLetterCode>


>  <SubcomponentList>


>  <AmbiguousFlag>
N

>  <InChI>
InChI=1S/C11H20N2O8/c12-7(15)2-1-5(10(18)19)13-4-11(20)9(17)8(16)6(14)3-21-11/h5-6,8-9,13-14,16-17,20H,1-4H2,(H2,12,15)(H,18,19)/t5-,6+,8+,9-,11+/m0/s1

>  <InChIKey>
SNIATPDKUZZXAT-VISRLPHGSA-N

>  <SMILES>
C1[C@H]([C@H]([C@@H]([C@](O1)(CN[C@@H](CCC(=O)N)C(=O)O)O)O)O)O

$$$$
