3B2Q_ATP_A_461
  RCSB PDB12061707583D
Coordinates from PDB:3B2Q:A:461 Model:1 without hydrogens
 31 33  0  0  0  0            999 V2000
  -25.3330  -18.1210   18.1580   P 0  0  0  0  0  0  0  0  0  0  0  0
  -23.9650  -17.8060   17.6030   O 0  0  0  0  0  0  0  0  0  0  0  0
  -26.4230  -18.2120   17.1170   O 0  0  0  0  0  0  0  0  0  0  0  0
  -25.3510  -19.2350   19.1780   O 0  0  0  0  0  0  0  0  0  0  0  0
  -24.6620  -15.6060   19.1770   P 0  0  0  0  0  0  0  0  0  0  0  0
  -23.6320  -16.0200   20.2010   O 0  0  0  0  0  0  0  0  0  0  0  0
  -24.2220  -15.1690   17.8010   O 0  0  0  0  0  0  0  0  0  0  0  0
  -25.7170  -16.8100   19.0100   O 0  0  0  0  0  0  0  0  0  0  0  0
  -25.1000  -12.8960   19.7040   P 0  0  0  0  0  0  0  0  0  0  0  0
  -25.7940  -12.2780   18.5140   O 0  0  0  0  0  0  0  0  0  0  0  0
  -23.5940  -12.8470   19.8070   O 0  0  0  0  0  0  0  0  0  0  0  0
  -25.5630  -14.4340   19.8140   O 0  0  0  0  0  0  0  0  0  0  0  0
  -25.7180  -12.2460   21.0410   O 0  0  0  0  0  0  0  0  0  0  0  0
  -24.8890  -11.5070   21.9370   C 0  0  0  0  0  0  0  0  0  0  0  0
  -25.0810  -10.0150   21.6920   C 0  0  0  0  0  0  0  0  0  0  0  0
  -26.1820   -9.5410   22.4740   O 0  0  0  0  0  0  0  0  0  0  0  0
  -23.8440   -9.2300   22.1060   C 0  0  0  0  0  0  0  0  0  0  0  0
  -23.3440   -8.5000   20.9800   O 0  0  0  0  0  0  0  0  0  0  0  0
  -24.2970   -8.2580   23.1800   C 0  0  0  0  0  0  0  0  0  0  0  0
  -24.0810   -6.9150   22.7300   O 0  0  0  0  0  0  0  0  0  0  0  0
  -25.7890   -8.4960   23.3680   C 0  0  0  0  0  0  0  0  0  0  0  0
  -26.0510   -8.9170   24.7680   N 0  0  0  0  0  0  0  0  0  0  0  0
  -25.4520   -8.4160   25.8650   C 0  0  0  0  0  0  0  0  0  0  0  0
  -25.9140   -9.0150   26.9920   N 0  0  0  0  0  0  0  0  0  0  0  0
  -26.8330   -9.9240   26.6190   C 0  0  0  0  0  0  0  0  0  0  0  0
  -27.7090  -10.9030   27.3060   C 0  0  0  0  0  0  0  0  0  0  0  0
  -27.6930  -11.0310   28.6550   N 0  0  0  0  0  0  0  0  0  0  0  0
  -28.5240  -11.6630   26.5410   N 0  0  0  0  0  0  0  0  0  0  0  0
  -28.5490  -11.5450   25.2010   C 0  0  0  0  0  0  0  0  0  0  0  0
  -27.7830  -10.6800   24.5120   N 0  0  0  0  0  0  0  0  0  0  0  0
  -26.9190   -9.8560   25.1520   C 0  0  0  0  0  0  0  0  0  0  0  0
  1  2  2  0  0  0  0
  1  3  1  0  0  0  0
  1  4  1  0  0  0  0
  1  8  1  0  0  0  0
  5  6  2  0  0  0  0
  5  7  1  0  0  0  0
  5  8  1  0  0  0  0
  5 12  1  0  0  0  0
  9 10  2  0  0  0  0
  9 11  1  0  0  0  0
  9 12  1  0  0  0  0
  9 13  1  0  0  0  0
 13 14  1  0  0  0  0
 14 15  1  0  0  0  0
 15 16  1  0  0  0  0
 15 17  1  0  0  0  0
 16 21  1  0  0  0  0
 17 18  1  0  0  0  0
 17 19  1  0  0  0  0
 19 20  1  0  0  0  0
 19 21  1  0  0  0  0
 21 22  1  0  0  0  0
 22 23  1  0  0  0  0
 22 31  1  0  0  0  0
 23 24  2  0  0  0  0
 24 25  1  0  0  0  0
 25 26  1  0  0  0  0
 25 31  2  0  0  0  0
 26 27  1  0  0  0  0
 26 28  2  0  0  0  0
 28 29  1  0  0  0  0
 29 30  2  0  0  0  0
 30 31  1  0  0  0  0
A    1
PG
A    2
O1G
A    3
O2G
A    4
O3G
A    5
PB
A    6
O1B
A    7
O2B
A    8
O3B
A    9
PA
A   10
O1A
A   11
O2A
A   12
O3A
A   13
O5'
A   14
C5'
A   15
C4'
A   16
O4'
A   17
C3'
A   18
O3'
A   19
C2'
A   20
O2'
A   21
C1'
A   22
N9
A   23
C8
A   24
N7
A   25
C5
A   26
C6
A   27
N6
A   28
N1
A   29
C2
A   30
N3
A   31
C4
M  END
>  <InstanceId>
3B2Q_ATP_A_461

>  <ChemCompId>
ATP

>  <PdbId>
3B2Q

>  <ChainId>
A

>  <ResidueNumber>
461

>  <InsertionCode>


>  <Model>
1

>  <AltIds>


>  <MissingHeavyAtoms>
0

>  <ObservedFormula>
C10 N5 O13 P3

>  <Name>
ADENOSINE-5'-TRIPHOSPHATE

>  <SystematicName>
[[(2R,3S,4R,5R)-5-(6-aminopurin-9-yl)-3,4-dihydroxy-oxolan-2-yl]methoxy-hydroxy-phosphoryl] phosphono hydrogen phosphate

>  <Synonyms>


>  <Type>
NON-POLYMER

>  <Formula>
C10 H16 N5 O13 P3

>  <MolecularWeight>
507.181

>  <ModifiedDate>
2011-06-04

>  <Parent>


>  <OneLetterCode>


>  <SubcomponentList>


>  <AmbiguousFlag>
N

>  <InChI>
InChI=1S/C10H16N5O13P3/c11-8-5-9(13-2-12-8)15(3-14-5)10-7(17)6(16)4(26-10)1-25-30(21,22)28-31(23,24)27-29(18,19)20/h2-4,6-7,10,16-17H,1H2,(H,21,22)(H,23,24)(H2,11,12,13)(H2,18,19,20)/t4-,6-,7-,10-/m1/s1

>  <InChIKey>
ZKHQWZAMYRWXGA-KQYNXXCUSA-N

>  <SMILES>
c1nc(c2c(n1)n(cn2)[C@H]3[C@@H]([C@@H]([C@H](O3)CO[P@@](=O)(O)O[P@](=O)(O)OP(=O)(O)O)O)O)N

$$$$
