5UK8_8DV_A_1101


 32 37  0  0  0  0  0  0  0  0999 V2000
   -2.2220   -7.5480   19.5631 C   0  0  0  0  0  0  0  0  0  0  0  0
   -2.1521   -8.3466   18.4161 C   0  0  0  0  0  0  0  0  0  0  0  0
   -2.7503   -7.9542   20.7313 N   0  0  0  0  0  0  0  0  0  0  0  0
   -3.2624   -9.1930   20.7448 C   0  0  0  0  0  0  0  0  0  0  0  0
   -3.2940  -10.0257   19.6948 N   0  0  0  0  0  0  0  0  0  0  0  0
   -2.7413   -9.6180   18.5398 C   0  0  0  0  0  0  0  0  0  0  0  0
   -4.1345   -9.4137   24.4332 C   0  0  0  0  0  0  0  0  0  0  0  0
   -5.0074  -10.4928   24.4836 C   0  0  0  0  0  0  0  0  0  0  0  0
   -5.2980  -11.1666   23.2981 C   0  0  0  0  0  0  0  0  0  0  0  0
   -6.1870  -12.4476   21.6988 C   0  0  0  0  0  0  0  0  0  0  0  0
   -5.3222  -11.6269   21.0545 C   0  0  0  0  0  0  0  0  0  0  0  0
   -4.7275  -10.7929   22.0746 C   0  0  0  0  0  0  0  0  0  0  0  0
   -3.8400   -9.6934   22.0366 C   0  0  0  0  0  0  0  0  0  0  0  0
   -6.1866  -12.1936   23.0451 N   0  0  0  0  0  0  0  0  0  0  0  0
   -3.5531   -9.0260   23.2326 C   0  0  0  0  0  0  0  0  0  0  0  0
   -6.7285  -12.6641   23.7191 H   0  0  0  0  0  0  0  0  0  0  0  0
   -2.9786  -11.9478   17.7733 C   0  0  0  0  0  0  0  0  0  0  0  0
   -3.7464  -12.5188   16.5920 C   0  0  0  0  0  0  0  0  0  0  0  0
   -2.9738  -10.8458   15.1016 C   0  0  0  0  0  0  0  0  0  0  0  0
   -2.7651  -10.5111   17.5028 N   0  0  0  0  0  0  0  0  0  0  0  0
   -1.6710  -12.6730   18.0897 C   0  0  0  0  0  0  0  0  0  0  0  0
   -2.2086  -10.1425   16.1951 C   0  0  0  0  0  0  0  0  0  0  0  0
   -3.0693  -12.2479   15.3401 O   0  0  0  0  0  0  0  0  0  0  0  0
   -1.7630   -6.1304   19.4565 C   0  0  0  0  0  0  0  0  0  0  0  0
   -2.7198   -4.9882   19.7734 C   0  0  0  0  0  0  0  0  0  0  0  0
   -2.3166   -5.2436   18.3477 C   0  0  0  0  0  0  0  0  0  0  0  0
    0.8160   -6.3937   18.9586 O   0  0  0  0  0  0  0  0  0  0  0  0
    0.0813   -4.5377   20.4513 O   0  0  0  0  0  0  0  0  0  0  0  0
   -0.0323   -5.8892   19.9959 S   0  0  0  0  0  0  0  0  0  0  0  0
    0.1304   -6.9732   21.4278 C   0  0  0  0  0  0  0  0  0  0  0  0
    1.2253   -6.8020   22.4292 C   0  0  0  0  0  0  0  0  0  0  0  0
   -0.1709   -6.4479   22.7903 C   0  0  0  0  0  0  0  0  0  0  0  0
 19 23  1  0  0  0
 19 22  1  0  0  0
 23 18  1  0  0  0
 22 20  1  0  0  0
 18 17  1  0  0  0
 20 17  1  0  0  0
 20  6  1  0  0  0
 17 21  1  0  0  0
  2  6  2  0  0  0
  2  1  1  0  0  0
  6  5  1  0  0  0
 26 24  1  0  0  0
 26 25  1  0  0  0
 27 29  2  0  0  0
  5  4  2  0  0  0
  1 24  1  0  0  0
  1  3  2  0  0  0
 24 29  1  0  0  0
 24 25  1  0  0  0
 28 29  2  0  0  0
 29 30  1  0  0  0
  4  3  1  0  0  0
  4 13  1  0  0  0
 11 10  2  0  0  0
 11 12  1  0  0  0
 10 14  1  0  0  0
 30 31  1  0  0  0
 30 32  1  0  0  0
 12 13  2  0  0  0
 12  9  1  0  0  0
 13 15  1  0  0  0
 31 32  1  0  0  0
 14  9  1  0  0  0
  9  8  2  0  0  0
 15  7  2  0  0  0
  8  7  1  0  0  0
 14 16  1  0  0  0
M  END
> <minimizedAffinity>
-9.79025

$$$$
5UK8_8DV_A_1101


 32 37  0  0  0  0  0  0  0  0999 V2000
   -2.1351   -7.6119   19.5745 C   0  0  0  0  0  0  0  0  0  0  0  0
   -2.0847   -8.4100   18.4261 C   0  0  0  0  0  0  0  0  0  0  0  0
   -2.6792   -8.0048   20.7400 N   0  0  0  0  0  0  0  0  0  0  0  0
   -3.2275   -9.2280   20.7492 C   0  0  0  0  0  0  0  0  0  0  0  0
   -3.2799  -10.0573   19.6974 N   0  0  0  0  0  0  0  0  0  0  0  0
   -2.7114   -9.6637   18.5452 C   0  0  0  0  0  0  0  0  0  0  0  0
   -4.1482   -9.4105   24.4279 C   0  0  0  0  0  0  0  0  0  0  0  0
   -5.0268  -10.4850   24.4769 C   0  0  0  0  0  0  0  0  0  0  0  0
   -5.3052  -11.1684   23.2940 C   0  0  0  0  0  0  0  0  0  0  0  0
   -6.1795  -12.4601   21.6952 C   0  0  0  0  0  0  0  0  0  0  0  0
   -5.3026  -11.6494   21.0546 C   0  0  0  0  0  0  0  0  0  0  0  0
   -4.7172  -10.8087   22.0746 C   0  0  0  0  0  0  0  0  0  0  0  0
   -3.8242   -9.7138   22.0380 C   0  0  0  0  0  0  0  0  0  0  0  0
   -6.1953  -12.1937   23.0390 N   0  0  0  0  0  0  0  0  0  0  0  0
   -3.5496   -9.0366   23.2315 C   0  0  0  0  0  0  0  0  0  0  0  0
   -6.7481  -12.6554   23.7102 H   0  0  0  0  0  0  0  0  0  0  0  0
   -2.9892  -11.9879   17.7753 C   0  0  0  0  0  0  0  0  0  0  0  0
   -3.7763  -12.5449   16.5999 C   0  0  0  0  0  0  0  0  0  0  0  0
   -2.9940  -10.8791   15.1064 C   0  0  0  0  0  0  0  0  0  0  0  0
   -2.7578  -10.5537   17.5062 N   0  0  0  0  0  0  0  0  0  0  0  0
   -1.6892  -12.7326   18.0774 C   0  0  0  0  0  0  0  0  0  0  0  0
   -2.2086  -10.1897   16.1943 C   0  0  0  0  0  0  0  0  0  0  0  0
   -3.1073  -12.2804   15.3423 O   0  0  0  0  0  0  0  0  0  0  0  0
   -1.6342   -6.2082   19.4725 C   0  0  0  0  0  0  0  0  0  0  0  0
   -2.4298   -5.0632   20.0862 C   0  0  0  0  0  0  0  0  0  0  0  0
   -2.3743   -5.2095   18.5909 C   0  0  0  0  0  0  0  0  0  0  0  0
    0.4769   -4.8351   20.2636 O   0  0  0  0  0  0  0  0  0  0  0  0
    0.6532   -7.3188   20.1520 O   0  0  0  0  0  0  0  0  0  0  0  0
    0.1842   -6.0781   19.6160 S   0  0  0  0  0  0  0  0  0  0  0  0
    0.7468   -5.9638   17.9064 C   0  0  0  0  0  0  0  0  0  0  0  0
    1.0730   -4.6541   17.2669 C   0  0  0  0  0  0  0  0  0  0  0  0
    2.1634   -5.5992   17.6176 C   0  0  0  0  0  0  0  0  0  0  0  0
 19 23  1  0  0  0
 19 22  1  0  0  0
 23 18  1  0  0  0
 22 20  1  0  0  0
 18 17  1  0  0  0
 20 17  1  0  0  0
 20  6  1  0  0  0
 17 21  1  0  0  0
  2  6  2  0  0  0
  2  1  1  0  0  0
  6  5  1  0  0  0
 26 24  1  0  0  0
 26 25  1  0  0  0
 27 29  2  0  0  0
  5  4  2  0  0  0
  1 24  1  0  0  0
  1  3  2  0  0  0
 24 29  1  0  0  0
 24 25  1  0  0  0
 28 29  2  0  0  0
 29 30  1  0  0  0
  4  3  1  0  0  0
  4 13  1  0  0  0
 11 10  2  0  0  0
 11 12  1  0  0  0
 10 14  1  0  0  0
 30 31  1  0  0  0
 30 32  1  0  0  0
 12 13  2  0  0  0
 12  9  1  0  0  0
 13 15  1  0  0  0
 31 32  1  0  0  0
 14  9  1  0  0  0
  9  8  2  0  0  0
 15  7  2  0  0  0
  8  7  1  0  0  0
 14 16  1  0  0  0
M  END
> <minimizedAffinity>
-9.64690

$$$$
5UK8_8DV_A_1101


 32 37  0  0  0  0  0  0  0  0999 V2000
   -1.5455   -7.5939   19.2547 C   0  0  0  0  0  0  0  0  0  0  0  0
   -1.6510   -8.4406   18.1455 C   0  0  0  0  0  0  0  0  0  0  0  0
   -2.0804   -7.8622   20.4591 N   0  0  0  0  0  0  0  0  0  0  0  0
   -2.7794   -9.0025   20.5503 C   0  0  0  0  0  0  0  0  0  0  0  0
   -2.9862   -9.8626   19.5432 N   0  0  0  0  0  0  0  0  0  0  0  0
   -2.4264   -9.5962   18.3510 C   0  0  0  0  0  0  0  0  0  0  0  0
   -3.6504   -8.8246   24.2413 C   0  0  0  0  0  0  0  0  0  0  0  0
   -4.5633   -9.8596   24.3968 C   0  0  0  0  0  0  0  0  0  0  0  0
   -4.8819  -10.6358   23.2833 C   0  0  0  0  0  0  0  0  0  0  0  0
   -5.8225  -12.0339   21.8172 C   0  0  0  0  0  0  0  0  0  0  0  0
   -4.9289  -11.3142   21.0961 C   0  0  0  0  0  0  0  0  0  0  0  0
   -4.3007  -10.4066   22.0297 C   0  0  0  0  0  0  0  0  0  0  0  0
   -3.3724   -9.3506   21.8845 C   0  0  0  0  0  0  0  0  0  0  0  0
   -5.8093  -11.6485   23.1319 N   0  0  0  0  0  0  0  0  0  0  0  0
   -3.0577   -8.5797   23.0091 C   0  0  0  0  0  0  0  0  0  0  0  0
   -6.3670  -12.0292   23.8483 H   0  0  0  0  0  0  0  0  0  0  0  0
   -2.9489  -11.9172   17.7093 C   0  0  0  0  0  0  0  0  0  0  0  0
   -3.8795  -12.4519   16.6327 C   0  0  0  0  0  0  0  0  0  0  0  0
   -3.1117  -10.9087   15.0058 C   0  0  0  0  0  0  0  0  0  0  0  0
   -2.6346  -10.5166   17.3595 N   0  0  0  0  0  0  0  0  0  0  0  0
   -1.6872  -12.7515   17.9281 C   0  0  0  0  0  0  0  0  0  0  0  0
   -2.1806  -10.2451   15.9899 C   0  0  0  0  0  0  0  0  0  0  0  0
   -3.3093  -12.2871   15.3110 O   0  0  0  0  0  0  0  0  0  0  0  0
   -0.8748   -6.2728   19.0639 C   0  0  0  0  0  0  0  0  0  0  0  0
    0.4095   -6.1747   18.2506 C   0  0  0  0  0  0  0  0  0  0  0  0
    0.4627   -6.0051   19.7435 C   0  0  0  0  0  0  0  0  0  0  0  0
   -1.3847   -3.8625   18.1160 O   0  0  0  0  0  0  0  0  0  0  0  0
   -3.2853   -5.4495   18.4014 O   0  0  0  0  0  0  0  0  0  0  0  0
   -2.0517   -4.8882   18.8597 S   0  0  0  0  0  0  0  0  0  0  0  0
   -2.3066   -4.2845   20.5398 C   0  0  0  0  0  0  0  0  0  0  0  0
   -3.3090   -3.2232   20.8554 C   0  0  0  0  0  0  0  0  0  0  0  0
   -3.5631   -4.6277   21.2656 C   0  0  0  0  0  0  0  0  0  0  0  0
 19 23  1  0  0  0
 19 22  1  0  0  0
 23 18  1  0  0  0
 22 20  1  0  0  0
 18 17  1  0  0  0
 20 17  1  0  0  0
 20  6  1  0  0  0
 17 21  1  0  0  0
  2  6  2  0  0  0
  2  1  1  0  0  0
  6  5  1  0  0  0
 26 24  1  0  0  0
 26 25  1  0  0  0
 27 29  2  0  0  0
  5  4  2  0  0  0
  1 24  1  0  0  0
  1  3  2  0  0  0
 24 29  1  0  0  0
 24 25  1  0  0  0
 28 29  2  0  0  0
 29 30  1  0  0  0
  4  3  1  0  0  0
  4 13  1  0  0  0
 11 10  2  0  0  0
 11 12  1  0  0  0
 10 14  1  0  0  0
 30 31  1  0  0  0
 30 32  1  0  0  0
 12 13  2  0  0  0
 12  9  1  0  0  0
 13 15  1  0  0  0
 31 32  1  0  0  0
 14  9  1  0  0  0
  9  8  2  0  0  0
 15  7  2  0  0  0
  8  7  1  0  0  0
 14 16  1  0  0  0
M  END
> <minimizedAffinity>
-9.34246

$$$$
5UK8_8DV_A_1101


 32 37  0  0  0  0  0  0  0  0999 V2000
   -2.1049   -7.5581   19.4544 C   0  0  0  0  0  0  0  0  0  0  0  0
   -2.0677   -8.3955   18.3338 C   0  0  0  0  0  0  0  0  0  0  0  0
   -2.6675   -7.8969   20.6281 N   0  0  0  0  0  0  0  0  0  0  0  0
   -3.2484   -9.1042   20.6739 C   0  0  0  0  0  0  0  0  0  0  0  0
   -3.3155   -9.9668   19.6500 N   0  0  0  0  0  0  0  0  0  0  0  0
   -2.7285   -9.6275   18.4899 C   0  0  0  0  0  0  0  0  0  0  0  0
   -5.1853  -11.1466   23.2215 C   0  0  0  0  0  0  0  0  0  0  0  0
   -4.9445  -10.4714   24.4111 C   0  0  0  0  0  0  0  0  0  0  0  0
   -4.1541   -9.3235   24.3738 C   0  0  0  0  0  0  0  0  0  0  0  0
   -2.8596   -7.5704   24.8634 C   0  0  0  0  0  0  0  0  0  0  0  0
   -2.7745   -7.7079   23.5179 C   0  0  0  0  0  0  0  0  0  0  0  0
   -3.6140   -8.8345   23.1775 C   0  0  0  0  0  0  0  0  0  0  0  0
   -3.8669   -9.5302   21.9734 C   0  0  0  0  0  0  0  0  0  0  0  0
   -3.6845   -8.5246   25.3983 N   0  0  0  0  0  0  0  0  0  0  0  0
   -4.6637  -10.6796   22.0217 C   0  0  0  0  0  0  0  0  0  0  0  0
   -3.9054   -8.6242   26.3525 H   0  0  0  0  0  0  0  0  0  0  0  0
   -3.0169  -11.9753   17.7998 C   0  0  0  0  0  0  0  0  0  0  0  0
   -3.8229  -12.5702   16.6563 C   0  0  0  0  0  0  0  0  0  0  0  0
   -3.0673  -10.9529   15.0971 C   0  0  0  0  0  0  0  0  0  0  0  0
   -2.7915  -10.5504   17.4810 N   0  0  0  0  0  0  0  0  0  0  0  0
   -1.7113  -12.7093   18.1039 C   0  0  0  0  0  0  0  0  0  0  0  0
   -2.2645  -10.2286   16.1490 C   0  0  0  0  0  0  0  0  0  0  0  0
   -3.1753  -12.3459   15.3798 O   0  0  0  0  0  0  0  0  0  0  0  0
   -1.5659   -6.1724   19.3094 C   0  0  0  0  0  0  0  0  0  0  0  0
   -2.2240   -5.0123   20.0454 C   0  0  0  0  0  0  0  0  0  0  0  0
   -2.3774   -5.1267   18.5542 C   0  0  0  0  0  0  0  0  0  0  0  0
    0.7697   -7.1817   20.0123 O   0  0  0  0  0  0  0  0  0  0  0  0
    0.5981   -6.0079   17.8203 O   0  0  0  0  0  0  0  0  0  0  0  0
    0.2589   -6.1144   19.2061 S   0  0  0  0  0  0  0  0  0  0  0  0
    0.6889   -4.5556   20.0044 C   0  0  0  0  0  0  0  0  0  0  0  0
    2.0818   -4.0167   19.9887 C   0  0  0  0  0  0  0  0  0  0  0  0
    1.0268   -3.3668   19.1703 C   0  0  0  0  0  0  0  0  0  0  0  0
 19 23  1  0  0  0
 19 22  1  0  0  0
 23 18  1  0  0  0
 22 20  1  0  0  0
 18 17  1  0  0  0
 20 17  1  0  0  0
 20  6  1  0  0  0
 17 21  1  0  0  0
  2  6  2  0  0  0
  2  1  1  0  0  0
  6  5  1  0  0  0
 26 24  1  0  0  0
 26 25  1  0  0  0
 27 29  2  0  0  0
  5  4  2  0  0  0
  1 24  1  0  0  0
  1  3  2  0  0  0
 24 29  1  0  0  0
 24 25  1  0  0  0
 28 29  2  0  0  0
 29 30  1  0  0  0
  4  3  1  0  0  0
  4 13  1  0  0  0
 11 10  2  0  0  0
 11 12  1  0  0  0
 10 14  1  0  0  0
 30 31  1  0  0  0
 30 32  1  0  0  0
 12 13  2  0  0  0
 12  9  1  0  0  0
 13 15  1  0  0  0
 31 32  1  0  0  0
 14  9  1  0  0  0
  9  8  2  0  0  0
 15  7  2  0  0  0
  8  7  1  0  0  0
 14 16  1  0  0  0
M  END
> <minimizedAffinity>
-9.01389

$$$$
5UK8_8DV_A_1101


 32 37  0  0  0  0  0  0  0  0999 V2000
   -1.1790   -7.2871   21.5001 C   0  0  0  0  0  0  0  0  0  0  0  0
   -0.6189   -6.2799   20.7063 C   0  0  0  0  0  0  0  0  0  0  0  0
   -1.7049   -8.4245   21.0117 N   0  0  0  0  0  0  0  0  0  0  0  0
   -1.7054   -8.5451   19.6766 C   0  0  0  0  0  0  0  0  0  0  0  0
   -1.2415   -7.6251   18.8192 N   0  0  0  0  0  0  0  0  0  0  0  0
   -0.6961   -6.5036   19.3197 C   0  0  0  0  0  0  0  0  0  0  0  0
   -2.0815  -11.6096   17.4673 C   0  0  0  0  0  0  0  0  0  0  0  0
   -3.1676  -12.2682   18.0292 C   0  0  0  0  0  0  0  0  0  0  0  0
   -3.7946  -11.6911   19.1327 C   0  0  0  0  0  0  0  0  0  0  0  0
   -5.0156  -11.2765   20.9565 C   0  0  0  0  0  0  0  0  0  0  0  0
   -4.1637  -10.2274   20.8554 C   0  0  0  0  0  0  0  0  0  0  0  0
   -3.3678  -10.4716   19.6735 C   0  0  0  0  0  0  0  0  0  0  0  0
   -2.2617   -9.8108   19.0922 C   0  0  0  0  0  0  0  0  0  0  0  0
   -4.8165  -12.1648   19.9326 N   0  0  0  0  0  0  0  0  0  0  0  0
   -1.6415  -10.3973   17.9833 C   0  0  0  0  0  0  0  0  0  0  0  0
   -5.3176  -13.0003   19.7907 H   0  0  0  0  0  0  0  0  0  0  0  0
    0.0795   -4.2170   18.8279 C   0  0  0  0  0  0  0  0  0  0  0  0
    1.2729   -3.7388   18.0166 C   0  0  0  0  0  0  0  0  0  0  0  0
    0.8609   -5.2642   16.2501 C   0  0  0  0  0  0  0  0  0  0  0  0
   -0.2044   -5.6057   18.4110 N   0  0  0  0  0  0  0  0  0  0  0  0
   -1.1557   -3.3228   18.7257 C   0  0  0  0  0  0  0  0  0  0  0  0
   -0.3161   -5.8723   16.9716 C   0  0  0  0  0  0  0  0  0  0  0  0
    1.0419   -3.8929   16.5946 O   0  0  0  0  0  0  0  0  0  0  0  0
   -1.2784   -7.0436   22.9707 C   0  0  0  0  0  0  0  0  0  0  0  0
   -0.2031   -6.2389   23.6895 C   0  0  0  0  0  0  0  0  0  0  0  0
   -0.2915   -7.7231   23.9123 C   0  0  0  0  0  0  0  0  0  0  0  0
   -3.6487   -8.0389   23.5699 O   0  0  0  0  0  0  0  0  0  0  0  0
   -2.9183   -5.9485   24.7139 O   0  0  0  0  0  0  0  0  0  0  0  0
   -2.9931   -6.7664   23.5425 S   0  0  0  0  0  0  0  0  0  0  0  0
   -3.7356   -5.7833   22.2255 C   0  0  0  0  0  0  0  0  0  0  0  0
   -4.8205   -4.7924   22.4936 C   0  0  0  0  0  0  0  0  0  0  0  0
   -3.4556   -4.3209   22.1474 C   0  0  0  0  0  0  0  0  0  0  0  0
 19 23  1  0  0  0
 19 22  1  0  0  0
 23 18  1  0  0  0
 22 20  1  0  0  0
 18 17  1  0  0  0
 20 17  1  0  0  0
 20  6  1  0  0  0
 17 21  1  0  0  0
  2  6  2  0  0  0
  2  1  1  0  0  0
  6  5  1  0  0  0
 26 24  1  0  0  0
 26 25  1  0  0  0
 27 29  2  0  0  0
  5  4  2  0  0  0
  1 24  1  0  0  0
  1  3  2  0  0  0
 24 29  1  0  0  0
 24 25  1  0  0  0
 28 29  2  0  0  0
 29 30  1  0  0  0
  4  3  1  0  0  0
  4 13  1  0  0  0
 11 10  2  0  0  0
 11 12  1  0  0  0
 10 14  1  0  0  0
 30 31  1  0  0  0
 30 32  1  0  0  0
 12 13  2  0  0  0
 12  9  1  0  0  0
 13 15  1  0  0  0
 31 32  1  0  0  0
 14  9  1  0  0  0
  9  8  2  0  0  0
 15  7  2  0  0  0
  8  7  1  0  0  0
 14 16  1  0  0  0
M  END
> <minimizedAffinity>
-8.43410

$$$$
5UK8_8DV_A_1101


 32 37  0  0  0  0  0  0  0  0999 V2000
   -2.1080   -5.8781   20.7185 C   0  0  0  0  0  0  0  0  0  0  0  0
   -2.1173   -5.8758   22.1178 C   0  0  0  0  0  0  0  0  0  0  0  0
   -2.2576   -6.9835   19.9672 N   0  0  0  0  0  0  0  0  0  0  0  0
   -2.3846   -8.1369   20.6386 C   0  0  0  0  0  0  0  0  0  0  0  0
   -2.3587   -8.2590   21.9732 N   0  0  0  0  0  0  0  0  0  0  0  0
   -2.2332   -7.1448   22.7138 C   0  0  0  0  0  0  0  0  0  0  0  0
   -1.7788  -10.9031   18.1098 C   0  0  0  0  0  0  0  0  0  0  0  0
   -2.7976  -11.8061   18.3848 C   0  0  0  0  0  0  0  0  0  0  0  0
   -3.7038  -11.4951   19.3977 C   0  0  0  0  0  0  0  0  0  0  0  0
   -5.2760  -11.5393   20.9836 C   0  0  0  0  0  0  0  0  0  0  0  0
   -4.6377  -10.3557   21.1515 C   0  0  0  0  0  0  0  0  0  0  0  0
   -3.6190  -10.3024   20.1270 C   0  0  0  0  0  0  0  0  0  0  0  0
   -2.5780   -9.3912   19.8372 C   0  0  0  0  0  0  0  0  0  0  0  0
   -4.7370  -12.2379   19.9355 N   0  0  0  0  0  0  0  0  0  0  0  0
   -1.6757   -9.7118   18.8168 C   0  0  0  0  0  0  0  0  0  0  0  0
   -5.0358  -13.1209   19.6188 H   0  0  0  0  0  0  0  0  0  0  0  0
   -1.2564   -6.5993   24.9093 C   0  0  0  0  0  0  0  0  0  0  0  0
   -1.9333   -6.2809   26.2328 C   0  0  0  0  0  0  0  0  0  0  0  0
   -3.4859   -8.0598   26.0269 C   0  0  0  0  0  0  0  0  0  0  0  0
   -2.2449   -7.3103   24.0726 N   0  0  0  0  0  0  0  0  0  0  0  0
    0.0527   -7.3774   25.0381 C   0  0  0  0  0  0  0  0  0  0  0  0
   -2.9466   -8.4514   24.6735 C   0  0  0  0  0  0  0  0  0  0  0  0
   -2.4791   -7.4735   26.8483 O   0  0  0  0  0  0  0  0  0  0  0  0
   -1.8260   -4.5883   20.0195 C   0  0  0  0  0  0  0  0  0  0  0  0
   -2.2594   -3.2674   20.6425 C   0  0  0  0  0  0  0  0  0  0  0  0
   -2.9799   -3.7867   19.4293 C   0  0  0  0  0  0  0  0  0  0  0  0
    0.2711   -3.2217   19.1813 O   0  0  0  0  0  0  0  0  0  0  0  0
    0.5662   -5.6402   19.7064 O   0  0  0  0  0  0  0  0  0  0  0  0
   -0.2111   -4.5697   19.1618 S   0  0  0  0  0  0  0  0  0  0  0  0
   -0.6208   -4.9922   17.4572 C   0  0  0  0  0  0  0  0  0  0  0  0
    0.4286   -5.3543   16.4579 C   0  0  0  0  0  0  0  0  0  0  0  0
   -0.4796   -6.4014   16.9908 C   0  0  0  0  0  0  0  0  0  0  0  0
 19 23  1  0  0  0
 19 22  1  0  0  0
 23 18  1  0  0  0
 22 20  1  0  0  0
 18 17  1  0  0  0
 20 17  1  0  0  0
 20  6  1  0  0  0
 17 21  1  0  0  0
  2  6  2  0  0  0
  2  1  1  0  0  0
  6  5  1  0  0  0
 26 24  1  0  0  0
 26 25  1  0  0  0
 27 29  2  0  0  0
  5  4  2  0  0  0
  1 24  1  0  0  0
  1  3  2  0  0  0
 24 29  1  0  0  0
 24 25  1  0  0  0
 28 29  2  0  0  0
 29 30  1  0  0  0
  4  3  1  0  0  0
  4 13  1  0  0  0
 11 10  2  0  0  0
 11 12  1  0  0  0
 10 14  1  0  0  0
 30 31  1  0  0  0
 30 32  1  0  0  0
 12 13  2  0  0  0
 12  9  1  0  0  0
 13 15  1  0  0  0
 31 32  1  0  0  0
 14  9  1  0  0  0
  9  8  2  0  0  0
 15  7  2  0  0  0
  8  7  1  0  0  0
 14 16  1  0  0  0
M  END
> <minimizedAffinity>
-8.37832

$$$$
5UK8_8DV_A_1101


 32 37  0  0  0  0  0  0  0  0999 V2000
   -1.3750   -7.8198   21.3581 C   0  0  0  0  0  0  0  0  0  0  0  0
   -0.8078   -6.7754   20.6193 C   0  0  0  0  0  0  0  0  0  0  0  0
   -1.9540   -8.9020   20.8083 N   0  0  0  0  0  0  0  0  0  0  0  0
   -2.0019   -8.9255   19.4688 C   0  0  0  0  0  0  0  0  0  0  0  0
   -1.5357   -7.9605   18.6637 N   0  0  0  0  0  0  0  0  0  0  0  0
   -0.9374   -6.8955   19.2237 C   0  0  0  0  0  0  0  0  0  0  0  0
   -4.0484  -12.0863   18.9842 C   0  0  0  0  0  0  0  0  0  0  0  0
   -3.9278  -12.3305   17.6223 C   0  0  0  0  0  0  0  0  0  0  0  0
   -3.1516  -11.4598   16.8586 C   0  0  0  0  0  0  0  0  0  0  0  0
   -2.1780  -10.3062   15.2123 C   0  0  0  0  0  0  0  0  0  0  0  0
   -1.8742   -9.6290   16.3461 C   0  0  0  0  0  0  0  0  0  0  0  0
   -2.4887  -10.3651   17.4280 C   0  0  0  0  0  0  0  0  0  0  0  0
   -2.6187  -10.1277   18.8153 C   0  0  0  0  0  0  0  0  0  0  0  0
   -2.9392  -11.4099   15.4945 N   0  0  0  0  0  0  0  0  0  0  0  0
   -3.3978  -11.0093   19.5729 C   0  0  0  0  0  0  0  0  0  0  0  0
   -3.2778  -12.0584   14.8358 H   0  0  0  0  0  0  0  0  0  0  0  0
   -0.2881   -4.5530   18.8200 C   0  0  0  0  0  0  0  0  0  0  0  0
    0.9236   -3.9802   18.1028 C   0  0  0  0  0  0  0  0  0  0  0  0
    0.7429   -5.4969   16.2906 C   0  0  0  0  0  0  0  0  0  0  0  0
   -0.4459   -5.9497   18.3649 N   0  0  0  0  0  0  0  0  0  0  0  0
   -1.5717   -3.7426   18.6421 C   0  0  0  0  0  0  0  0  0  0  0  0
   -0.4374   -6.1965   16.9177 C   0  0  0  0  0  0  0  0  0  0  0  0
    0.8045   -4.1231   16.6659 O   0  0  0  0  0  0  0  0  0  0  0  0
   -1.4184   -7.6806   22.8449 C   0  0  0  0  0  0  0  0  0  0  0  0
   -0.4640   -6.7287   23.5545 C   0  0  0  0  0  0  0  0  0  0  0  0
   -0.2621   -8.2130   23.6826 C   0  0  0  0  0  0  0  0  0  0  0  0
   -3.0717   -7.2062   24.8473 O   0  0  0  0  0  0  0  0  0  0  0  0
   -3.9938   -7.2369   22.5319 O   0  0  0  0  0  0  0  0  0  0  0  0
   -3.1125   -7.7626   23.5287 S   0  0  0  0  0  0  0  0  0  0  0  0
   -3.4345   -9.5308   23.6779 C   0  0  0  0  0  0  0  0  0  0  0  0
   -4.6451  -10.0582   24.3757 C   0  0  0  0  0  0  0  0  0  0  0  0
   -4.5445  -10.1481   22.8969 C   0  0  0  0  0  0  0  0  0  0  0  0
 19 23  1  0  0  0
 19 22  1  0  0  0
 23 18  1  0  0  0
 22 20  1  0  0  0
 18 17  1  0  0  0
 20 17  1  0  0  0
 20  6  1  0  0  0
 17 21  1  0  0  0
  2  6  2  0  0  0
  2  1  1  0  0  0
  6  5  1  0  0  0
 26 24  1  0  0  0
 26 25  1  0  0  0
 27 29  2  0  0  0
  5  4  2  0  0  0
  1 24  1  0  0  0
  1  3  2  0  0  0
 24 29  1  0  0  0
 24 25  1  0  0  0
 28 29  2  0  0  0
 29 30  1  0  0  0
  4  3  1  0  0  0
  4 13  1  0  0  0
 11 10  2  0  0  0
 11 12  1  0  0  0
 10 14  1  0  0  0
 30 31  1  0  0  0
 30 32  1  0  0  0
 12 13  2  0  0  0
 12  9  1  0  0  0
 13 15  1  0  0  0
 31 32  1  0  0  0
 14  9  1  0  0  0
  9  8  2  0  0  0
 15  7  2  0  0  0
  8  7  1  0  0  0
 14 16  1  0  0  0
M  END
> <minimizedAffinity>
-8.36305

$$$$
5UK8_8DV_A_1101


 32 37  0  0  0  0  0  0  0  0999 V2000
   -1.3413   -7.6321   21.3969 C   0  0  0  0  0  0  0  0  0  0  0  0
   -0.7665   -6.6254   20.6131 C   0  0  0  0  0  0  0  0  0  0  0  0
   -1.9378   -8.7279   20.8948 N   0  0  0  0  0  0  0  0  0  0  0  0
   -1.9957   -8.8042   19.5577 C   0  0  0  0  0  0  0  0  0  0  0  0
   -1.5232   -7.8782   18.7114 N   0  0  0  0  0  0  0  0  0  0  0  0
   -0.9076   -6.7995   19.2243 C   0  0  0  0  0  0  0  0  0  0  0  0
   -4.0971  -11.9469   19.2092 C   0  0  0  0  0  0  0  0  0  0  0  0
   -3.9774  -12.2544   17.8601 C   0  0  0  0  0  0  0  0  0  0  0  0
   -3.1838  -11.4330   17.0605 C   0  0  0  0  0  0  0  0  0  0  0  0
   -2.1855  -10.3724   15.3672 C   0  0  0  0  0  0  0  0  0  0  0  0
   -1.8725   -9.6502   16.4703 C   0  0  0  0  0  0  0  0  0  0  0  0
   -2.5029  -10.3257   17.5822 C   0  0  0  0  0  0  0  0  0  0  0  0
   -2.6322  -10.0236   18.9569 C   0  0  0  0  0  0  0  0  0  0  0  0
   -2.9670  -11.4485   15.6963 N   0  0  0  0  0  0  0  0  0  0  0  0
   -3.4289  -10.8562   19.7509 C   0  0  0  0  0  0  0  0  0  0  0  0
   -3.3155  -12.1200   15.0663 H   0  0  0  0  0  0  0  0  0  0  0  0
   -0.1815   -4.4954   18.7388 C   0  0  0  0  0  0  0  0  0  0  0  0
    1.0253   -3.9892   17.9651 C   0  0  0  0  0  0  0  0  0  0  0  0
    0.7196   -5.5405   16.1995 C   0  0  0  0  0  0  0  0  0  0  0  0
   -0.4105   -5.8951   18.3251 N   0  0  0  0  0  0  0  0  0  0  0  0
   -1.4376   -3.6384   18.5856 C   0  0  0  0  0  0  0  0  0  0  0  0
   -0.4640   -6.1767   16.8851 C   0  0  0  0  0  0  0  0  0  0  0  0
    0.8488   -4.1617   16.5375 O   0  0  0  0  0  0  0  0  0  0  0  0
   -1.3723   -7.4331   22.8772 C   0  0  0  0  0  0  0  0  0  0  0  0
   -0.1847   -6.8004   23.5912 C   0  0  0  0  0  0  0  0  0  0  0  0
   -0.4586   -8.2683   23.7660 C   0  0  0  0  0  0  0  0  0  0  0  0
   -3.8335   -8.1394   23.5188 O   0  0  0  0  0  0  0  0  0  0  0  0
   -2.8132   -6.1957   24.6992 O   0  0  0  0  0  0  0  0  0  0  0  0
   -3.0222   -6.9597   23.5079 S   0  0  0  0  0  0  0  0  0  0  0  0
   -3.6677   -5.8491   22.2421 C   0  0  0  0  0  0  0  0  0  0  0  0
   -4.7825   -4.8949   22.5209 C   0  0  0  0  0  0  0  0  0  0  0  0
   -3.3998   -4.3854   22.3370 C   0  0  0  0  0  0  0  0  0  0  0  0
 19 23  1  0  0  0
 19 22  1  0  0  0
 23 18  1  0  0  0
 22 20  1  0  0  0
 18 17  1  0  0  0
 20 17  1  0  0  0
 20  6  1  0  0  0
 17 21  1  0  0  0
  2  6  2  0  0  0
  2  1  1  0  0  0
  6  5  1  0  0  0
 26 24  1  0  0  0
 26 25  1  0  0  0
 27 29  2  0  0  0
  5  4  2  0  0  0
  1 24  1  0  0  0
  1  3  2  0  0  0
 24 29  1  0  0  0
 24 25  1  0  0  0
 28 29  2  0  0  0
 29 30  1  0  0  0
  4  3  1  0  0  0
  4 13  1  0  0  0
 11 10  2  0  0  0
 11 12  1  0  0  0
 10 14  1  0  0  0
 30 31  1  0  0  0
 30 32  1  0  0  0
 12 13  2  0  0  0
 12  9  1  0  0  0
 13 15  1  0  0  0
 31 32  1  0  0  0
 14  9  1  0  0  0
  9  8  2  0  0  0
 15  7  2  0  0  0
  8  7  1  0  0  0
 14 16  1  0  0  0
M  END
> <minimizedAffinity>
-8.32865

$$$$
5UK8_8DV_A_1101


 32 37  0  0  0  0  0  0  0  0999 V2000
   -1.5666   -6.6529   20.8006 C   0  0  0  0  0  0  0  0  0  0  0  0
   -0.6897   -5.9228   19.9905 C   0  0  0  0  0  0  0  0  0  0  0  0
   -2.0743   -7.8532   20.4685 N   0  0  0  0  0  0  0  0  0  0  0  0
   -1.7224   -8.3267   19.2647 C   0  0  0  0  0  0  0  0  0  0  0  0
   -0.9304   -7.6930   18.3883 N   0  0  0  0  0  0  0  0  0  0  0  0
   -0.4095   -6.5056   18.7412 C   0  0  0  0  0  0  0  0  0  0  0  0
   -2.0810  -11.6381   17.4429 C   0  0  0  0  0  0  0  0  0  0  0  0
   -3.0917  -12.2759   18.1504 C   0  0  0  0  0  0  0  0  0  0  0  0
   -3.6744  -11.6048   19.2246 C   0  0  0  0  0  0  0  0  0  0  0  0
   -4.7931  -11.0388   21.0732 C   0  0  0  0  0  0  0  0  0  0  0  0
   -4.0060   -9.9712   20.7955 C   0  0  0  0  0  0  0  0  0  0  0  0
   -3.2777  -10.3134   19.5945 C   0  0  0  0  0  0  0  0  0  0  0  0
   -2.2485   -9.6747   18.8660 C   0  0  0  0  0  0  0  0  0  0  0  0
   -4.6152  -12.0289   20.1430 N   0  0  0  0  0  0  0  0  0  0  0  0
   -1.6725  -10.3561   17.7880 C   0  0  0  0  0  0  0  0  0  0  0  0
   -5.0799  -12.8968   20.1311 H   0  0  0  0  0  0  0  0  0  0  0  0
    1.8077   -5.5707   18.2105 C   0  0  0  0  0  0  0  0  0  0  0  0
    2.6649   -5.7245   16.9644 C   0  0  0  0  0  0  0  0  0  0  0  0
    0.8391   -5.3724   15.4948 C   0  0  0  0  0  0  0  0  0  0  0  0
    0.4203   -5.9082   17.8311 N   0  0  0  0  0  0  0  0  0  0  0  0
    1.9028   -4.2001   18.8799 C   0  0  0  0  0  0  0  0  0  0  0  0
   -0.1355   -5.2539   16.6401 C   0  0  0  0  0  0  0  0  0  0  0  0
    2.1454   -4.9376   15.8644 O   0  0  0  0  0  0  0  0  0  0  0  0
   -2.0358   -6.0201   22.0699 C   0  0  0  0  0  0  0  0  0  0  0  0
   -3.5032   -6.1010   22.4708 C   0  0  0  0  0  0  0  0  0  0  0  0
   -2.9322   -4.7893   22.0083 C   0  0  0  0  0  0  0  0  0  0  0  0
    0.3905   -5.5562   23.0005 O   0  0  0  0  0  0  0  0  0  0  0  0
   -1.4902   -5.7233   24.6276 O   0  0  0  0  0  0  0  0  0  0  0  0
   -0.8300   -6.1640   23.4373 S   0  0  0  0  0  0  0  0  0  0  0  0
   -0.5495   -7.9395   23.5828 C   0  0  0  0  0  0  0  0  0  0  0  0
   -0.3371   -8.6010   24.9049 C   0  0  0  0  0  0  0  0  0  0  0  0
   -1.6095   -8.8095   24.1682 C   0  0  0  0  0  0  0  0  0  0  0  0
 19 23  1  0  0  0
 19 22  1  0  0  0
 23 18  1  0  0  0
 22 20  1  0  0  0
 18 17  1  0  0  0
 20 17  1  0  0  0
 20  6  1  0  0  0
 17 21  1  0  0  0
  2  6  2  0  0  0
  2  1  1  0  0  0
  6  5  1  0  0  0
 26 24  1  0  0  0
 26 25  1  0  0  0
 27 29  2  0  0  0
  5  4  2  0  0  0
  1 24  1  0  0  0
  1  3  2  0  0  0
 24 29  1  0  0  0
 24 25  1  0  0  0
 28 29  2  0  0  0
 29 30  1  0  0  0
  4  3  1  0  0  0
  4 13  1  0  0  0
 11 10  2  0  0  0
 11 12  1  0  0  0
 10 14  1  0  0  0
 30 31  1  0  0  0
 30 32  1  0  0  0
 12 13  2  0  0  0
 12  9  1  0  0  0
 13 15  1  0  0  0
 31 32  1  0  0  0
 14  9  1  0  0  0
  9  8  2  0  0  0
 15  7  2  0  0  0
  8  7  1  0  0  0
 14 16  1  0  0  0
M  END
> <minimizedAffinity>
-8.16653

$$$$
5UK8_8DV_A_1101


 32 37  0  0  0  0  0  0  0  0999 V2000
   -1.6659   -5.9791   20.6613 C   0  0  0  0  0  0  0  0  0  0  0  0
   -1.7438   -5.9624   22.0584 C   0  0  0  0  0  0  0  0  0  0  0  0
   -1.9012   -7.0681   19.9079 N   0  0  0  0  0  0  0  0  0  0  0  0
   -2.1892   -8.1936   20.5768 C   0  0  0  0  0  0  0  0  0  0  0  0
   -2.2429   -8.3050   21.9115 N   0  0  0  0  0  0  0  0  0  0  0  0
   -2.0302   -7.2047   22.6530 C   0  0  0  0  0  0  0  0  0  0  0  0
   -1.8381  -10.9553   17.9954 C   0  0  0  0  0  0  0  0  0  0  0  0
   -2.8895  -11.8081   18.3056 C   0  0  0  0  0  0  0  0  0  0  0  0
   -3.7336  -11.4637   19.3605 C   0  0  0  0  0  0  0  0  0  0  0  0
   -5.2357  -11.4469   21.0134 C   0  0  0  0  0  0  0  0  0  0  0  0
   -4.5301  -10.2999   21.1653 C   0  0  0  0  0  0  0  0  0  0  0  0
   -3.5554  -10.2861   20.0977 C   0  0  0  0  0  0  0  0  0  0  0  0
   -2.4821   -9.4261   19.7718 C   0  0  0  0  0  0  0  0  0  0  0  0
   -4.7796  -12.1591   19.9355 N   0  0  0  0  0  0  0  0  0  0  0  0
   -1.6427   -9.7799   18.7094 C   0  0  0  0  0  0  0  0  0  0  0  0
   -5.1373  -13.0215   19.6232 H   0  0  0  0  0  0  0  0  0  0  0  0
   -1.1869   -6.6415   24.8988 C   0  0  0  0  0  0  0  0  0  0  0  0
   -1.9419   -6.3034   26.1742 C   0  0  0  0  0  0  0  0  0  0  0  0
   -3.4926   -8.0734   25.8917 C   0  0  0  0  0  0  0  0  0  0  0  0
   -2.1272   -7.3548   24.0101 N   0  0  0  0  0  0  0  0  0  0  0  0
    0.1056   -7.4275   25.1168 C   0  0  0  0  0  0  0  0  0  0  0  0
   -2.8737   -8.4840   24.5787 C   0  0  0  0  0  0  0  0  0  0  0  0
   -2.5341   -7.4851   26.7675 O   0  0  0  0  0  0  0  0  0  0  0  0
   -1.2074   -4.7356   19.9721 C   0  0  0  0  0  0  0  0  0  0  0  0
   -0.6895   -4.7981   18.5408 C   0  0  0  0  0  0  0  0  0  0  0  0
    0.2741   -4.5490   19.6677 C   0  0  0  0  0  0  0  0  0  0  0  0
   -3.5674   -3.7020   20.5465 O   0  0  0  0  0  0  0  0  0  0  0  0
   -1.5318   -2.5761   21.4414 O   0  0  0  0  0  0  0  0  0  0  0  0
   -2.2127   -3.2661   20.3893 S   0  0  0  0  0  0  0  0  0  0  0  0
   -2.1229   -2.2442   18.9061 C   0  0  0  0  0  0  0  0  0  0  0  0
   -2.9473   -1.0092   18.7453 C   0  0  0  0  0  0  0  0  0  0  0  0
   -1.4841   -0.8986   18.9734 C   0  0  0  0  0  0  0  0  0  0  0  0
 19 23  1  0  0  0
 19 22  1  0  0  0
 23 18  1  0  0  0
 22 20  1  0  0  0
 18 17  1  0  0  0
 20 17  1  0  0  0
 20  6  1  0  0  0
 17 21  1  0  0  0
  2  6  2  0  0  0
  2  1  1  0  0  0
  6  5  1  0  0  0
 26 24  1  0  0  0
 26 25  1  0  0  0
 27 29  2  0  0  0
  5  4  2  0  0  0
  1 24  1  0  0  0
  1  3  2  0  0  0
 24 29  1  0  0  0
 24 25  1  0  0  0
 28 29  2  0  0  0
 29 30  1  0  0  0
  4  3  1  0  0  0
  4 13  1  0  0  0
 11 10  2  0  0  0
 11 12  1  0  0  0
 10 14  1  0  0  0
 30 31  1  0  0  0
 30 32  1  0  0  0
 12 13  2  0  0  0
 12  9  1  0  0  0
 13 15  1  0  0  0
 31 32  1  0  0  0
 14  9  1  0  0  0
  9  8  2  0  0  0
 15  7  2  0  0  0
  8  7  1  0  0  0
 14 16  1  0  0  0
M  END
> <minimizedAffinity>
-8.10792

$$$$
