2WOS_6AN_A_1098


 22 24  0  0  0  0  0  0  0  0999 V2000
   21.4591   19.9344    3.6611 C   0  0  0  0  0  0  0  0  0  0  0  0
   22.7866   20.3304    3.3110 C   0  0  0  0  0  0  0  0  0  0  0  0
   23.2227   20.6692    1.9588 C   0  0  0  0  0  0  0  0  0  0  0  0
   24.5337   20.9830    1.6609 C   0  0  0  0  0  0  0  0  0  0  0  0
   25.4318   21.0028    2.7846 C   0  0  0  0  0  0  0  0  0  0  0  0
   25.0103   20.7505    4.1156 C   0  0  0  0  0  0  0  0  0  0  0  0
   23.6954   20.3908    4.3748 C   0  0  0  0  0  0  0  0  0  0  0  0
   23.2541   20.1464    5.7118 C   0  0  0  0  0  0  0  0  0  0  0  0
   21.9488   19.8184    6.0702 C   0  0  0  0  0  0  0  0  0  0  0  0
   21.0283   19.6667    5.0105 C   0  0  0  0  0  0  0  0  0  0  0  0
   19.8239   19.3655    5.3714 N   0  0  0  0  0  0  0  0  0  0  0  0
   18.7903   18.9159    4.4750 C   0  0  0  0  0  0  0  0  0  0  0  0
   17.4001   19.0573    4.7454 C   0  0  0  0  0  0  0  0  0  0  0  0
   16.3261   18.6472    3.9596 C   0  0  0  0  0  0  0  0  0  0  0  0
   16.5835   18.0029    2.7621 C   0  0  0  0  0  0  0  0  0  0  0  0
   17.9524   17.8281    2.3992 C   0  0  0  0  0  0  0  0  0  0  0  0
   19.0367   18.2334    3.2603 C   0  0  0  0  0  0  0  0  0  0  0  0
   27.1112   21.3871    2.4849 S   0  0  0  0  0  0  0  0  0  0  0  0
   27.5455   22.5556    3.3881 O   0  0  0  0  0  0  0  0  0  0  0  0
   27.1705   21.9951    1.0779 O   0  0  0  0  0  0  0  0  0  0  0  0
   28.0041   20.1376    2.5525 O   0  0  0  0  0  0  0  0  0  0  0  0
   26.9272   23.2951    3.2797 H   0  0  0  0  0  0  0  0  0  0  0  0
  1  2  1  0  0  0
  1 10  2  0  0  0
  2  3  1  0  0  0
  2  7  2  0  0  0
  3  4  2  0  0  0
  4  5  1  0  0  0
  5 18  1  0  0  0
  5  6  2  0  0  0
 18 19  1  0  0  0
 18 20  2  0  0  0
 18 21  2  0  0  0
  6  7  1  0  0  0
  7  8  1  0  0  0
  8  9  2  0  0  0
  9 10  1  0  0  0
 10 11  1  0  0  0
 11 12  2  0  0  0
 12 13  1  0  0  0
 12 17  1  0  0  0
 13 14  2  0  0  0
 14 15  1  0  0  0
 15 16  1  0  0  0
 16 17  2  0  0  0
 19 22  1  0  0  0
M  END
> <minimizedAffinity>
-8.35640

$$$$
2WOS_6AN_A_1098


 22 24  0  0  0  0  0  0  0  0999 V2000
   23.1599   21.2981    2.3469 C   0  0  0  0  0  0  0  0  0  0  0  0
   23.3470   20.8234    3.6815 C   0  0  0  0  0  0  0  0  0  0  0  0
   22.2745   20.6422    4.6563 C   0  0  0  0  0  0  0  0  0  0  0  0
   22.5153   20.2424    5.9557 C   0  0  0  0  0  0  0  0  0  0  0  0
   23.8922   19.9671    6.2691 C   0  0  0  0  0  0  0  0  0  0  0  0
   24.9368   20.0647    5.3142 C   0  0  0  0  0  0  0  0  0  0  0  0
   24.6681   20.5157    4.0297 C   0  0  0  0  0  0  0  0  0  0  0  0
   25.7083   20.6068    3.0541 C   0  0  0  0  0  0  0  0  0  0  0  0
   25.5261   21.0112    1.7338 C   0  0  0  0  0  0  0  0  0  0  0  0
   24.2197   21.4092    1.3759 C   0  0  0  0  0  0  0  0  0  0  0  0
   24.0781   21.7765    0.1444 N   0  0  0  0  0  0  0  0  0  0  0  0
   23.5267   23.0396   -0.2736 C   0  0  0  0  0  0  0  0  0  0  0  0
   22.9240   23.2509   -1.5456 C   0  0  0  0  0  0  0  0  0  0  0  0
   22.3772   24.4271   -2.0523 C   0  0  0  0  0  0  0  0  0  0  0  0
   22.4096   25.5687   -1.2704 C   0  0  0  0  0  0  0  0  0  0  0  0
   22.9839   25.4494    0.0304 C   0  0  0  0  0  0  0  0  0  0  0  0
   23.5749   24.2211    0.5033 C   0  0  0  0  0  0  0  0  0  0  0  0
   24.2764   19.4604    7.8981 S   0  0  0  0  0  0  0  0  0  0  0  0
   23.8789   17.9857    8.0903 O   0  0  0  0  0  0  0  0  0  0  0  0
   23.3048   20.2051    8.8224 O   0  0  0  0  0  0  0  0  0  0  0  0
   25.7258   19.8048    8.2768 O   0  0  0  0  0  0  0  0  0  0  0  0
   22.9533   17.8634    7.8276 H   0  0  0  0  0  0  0  0  0  0  0  0
  1  2  1  0  0  0
  1 10  2  0  0  0
  2  3  1  0  0  0
  2  7  2  0  0  0
  3  4  2  0  0  0
  4  5  1  0  0  0
  5 18  1  0  0  0
  5  6  2  0  0  0
 18 19  1  0  0  0
 18 20  2  0  0  0
 18 21  2  0  0  0
  6  7  1  0  0  0
  7  8  1  0  0  0
  8  9  2  0  0  0
  9 10  1  0  0  0
 10 11  1  0  0  0
 11 12  2  0  0  0
 12 13  1  0  0  0
 12 17  1  0  0  0
 13 14  2  0  0  0
 14 15  1  0  0  0
 15 16  1  0  0  0
 16 17  2  0  0  0
 19 22  1  0  0  0
M  END
> <minimizedAffinity>
-7.92251

$$$$
2WOS_6AN_A_1098


 22 24  0  0  0  0  0  0  0  0999 V2000
   21.8168   19.5760    6.2048 C   0  0  0  0  0  0  0  0  0  0  0  0
   23.1696   19.8854    5.8646 C   0  0  0  0  0  0  0  0  0  0  0  0
   24.3157   19.6778    6.7457 C   0  0  0  0  0  0  0  0  0  0  0  0
   25.5968   20.0543    6.3947 C   0  0  0  0  0  0  0  0  0  0  0  0
   25.7328   20.6196    5.0788 C   0  0  0  0  0  0  0  0  0  0  0  0
   24.6432   20.7588    4.1810 C   0  0  0  0  0  0  0  0  0  0  0  0
   23.3600   20.4153    4.5823 C   0  0  0  0  0  0  0  0  0  0  0  0
   22.2553   20.5385    3.6841 C   0  0  0  0  0  0  0  0  0  0  0  0
   20.9428   20.1834    3.9857 C   0  0  0  0  0  0  0  0  0  0  0  0
   20.7046   19.7256    5.2999 C   0  0  0  0  0  0  0  0  0  0  0  0
   19.4789   19.4000    5.5518 N   0  0  0  0  0  0  0  0  0  0  0  0
   18.5443   18.9132    4.5702 C   0  0  0  0  0  0  0  0  0  0  0  0
   17.1320   19.0243    4.7076 C   0  0  0  0  0  0  0  0  0  0  0  0
   16.1459   18.5775    3.8318 C   0  0  0  0  0  0  0  0  0  0  0  0
   16.5290   17.9234    2.6737 C   0  0  0  0  0  0  0  0  0  0  0  0
   17.9295   17.7772    2.4428 C   0  0  0  0  0  0  0  0  0  0  0  0
   18.9189   18.2204    3.3947 C   0  0  0  0  0  0  0  0  0  0  0  0
   27.3258   21.1255    4.5647 S   0  0  0  0  0  0  0  0  0  0  0  0
   27.8548   22.2170    5.5126 O   0  0  0  0  0  0  0  0  0  0  0  0
   27.1338   21.8778    3.2418 O   0  0  0  0  0  0  0  0  0  0  0  0
   28.2652   19.9273    4.3531 O   0  0  0  0  0  0  0  0  0  0  0  0
   27.1992   22.9282    5.5847 H   0  0  0  0  0  0  0  0  0  0  0  0
  1  2  1  0  0  0
  1 10  2  0  0  0
  2  3  1  0  0  0
  2  7  2  0  0  0
  3  4  2  0  0  0
  4  5  1  0  0  0
  5 18  1  0  0  0
  5  6  2  0  0  0
 18 19  1  0  0  0
 18 20  2  0  0  0
 18 21  2  0  0  0
  6  7  1  0  0  0
  7  8  1  0  0  0
  8  9  2  0  0  0
  9 10  1  0  0  0
 10 11  1  0  0  0
 11 12  2  0  0  0
 12 13  1  0  0  0
 12 17  1  0  0  0
 13 14  2  0  0  0
 14 15  1  0  0  0
 15 16  1  0  0  0
 16 17  2  0  0  0
 19 22  1  0  0  0
M  END
> <minimizedAffinity>
-7.69003

$$$$
2WOS_6AN_A_1098


 22 24  0  0  0  0  0  0  0  0999 V2000
   22.7315   22.0399    3.1804 C   0  0  0  0  0  0  0  0  0  0  0  0
   23.5036   22.7974    2.2468 C   0  0  0  0  0  0  0  0  0  0  0  0
   23.0853   24.0682    1.6610 C   0  0  0  0  0  0  0  0  0  0  0  0
   23.8394   24.7297    0.7124 C   0  0  0  0  0  0  0  0  0  0  0  0
   25.0916   24.1055    0.3776 C   0  0  0  0  0  0  0  0  0  0  0  0
   25.5485   22.9111    0.9920 C   0  0  0  0  0  0  0  0  0  0  0  0
   24.7449   22.2453    1.9065 C   0  0  0  0  0  0  0  0  0  0  0  0
   25.1977   21.0483    2.5424 C   0  0  0  0  0  0  0  0  0  0  0  0
   24.4779   20.3352    3.4981 C   0  0  0  0  0  0  0  0  0  0  0  0
   23.1867   20.8202    3.7995 C   0  0  0  0  0  0  0  0  0  0  0  0
   22.5422   20.1417    4.6916 N   0  0  0  0  0  0  0  0  0  0  0  0
   21.2404   19.5589    4.4924 C   0  0  0  0  0  0  0  0  0  0  0  0
   20.3423   19.2612    5.5557 C   0  0  0  0  0  0  0  0  0  0  0  0
   19.0758   18.6880    5.4753 C   0  0  0  0  0  0  0  0  0  0  0  0
   18.5837   18.3292    4.2324 C   0  0  0  0  0  0  0  0  0  0  0  0
   19.4106   18.6032    3.1022 C   0  0  0  0  0  0  0  0  0  0  0  0
   20.7338   19.1634    3.2319 C   0  0  0  0  0  0  0  0  0  0  0  0
   26.1001   24.8826   -0.8211 S   0  0  0  0  0  0  0  0  0  0  0  0
   25.5894   24.5376   -2.2317 O   0  0  0  0  0  0  0  0  0  0  0  0
   27.4612   24.1777   -0.7626 O   0  0  0  0  0  0  0  0  0  0  0  0
   26.2756   26.3826   -0.5345 O   0  0  0  0  0  0  0  0  0  0  0  0
   25.5101   23.5749   -2.3204 H   0  0  0  0  0  0  0  0  0  0  0  0
  1  2  1  0  0  0
  1 10  2  0  0  0
  2  3  1  0  0  0
  2  7  2  0  0  0
  3  4  2  0  0  0
  4  5  1  0  0  0
  5 18  1  0  0  0
  5  6  2  0  0  0
 18 19  1  0  0  0
 18 20  2  0  0  0
 18 21  2  0  0  0
  6  7  1  0  0  0
  7  8  1  0  0  0
  8  9  2  0  0  0
  9 10  1  0  0  0
 10 11  1  0  0  0
 11 12  2  0  0  0
 12 13  1  0  0  0
 12 17  1  0  0  0
 13 14  2  0  0  0
 14 15  1  0  0  0
 15 16  1  0  0  0
 16 17  2  0  0  0
 19 22  1  0  0  0
M  END
> <minimizedAffinity>
-7.49427

$$$$
2WOS_6AN_A_1098


 22 24  0  0  0  0  0  0  0  0999 V2000
   26.9639   19.8749    4.2132 C   0  0  0  0  0  0  0  0  0  0  0  0
   25.6093   20.0219    4.6430 C   0  0  0  0  0  0  0  0  0  0  0  0
   25.1326   19.7453    5.9956 C   0  0  0  0  0  0  0  0  0  0  0  0
   23.8002   19.8402    6.3446 C   0  0  0  0  0  0  0  0  0  0  0  0
   22.9196   20.2801    5.2953 C   0  0  0  0  0  0  0  0  0  0  0  0
   23.3760   20.6257    3.9973 C   0  0  0  0  0  0  0  0  0  0  0  0
   24.7145   20.4732    3.6647 C   0  0  0  0  0  0  0  0  0  0  0  0
   25.1903   20.8294    2.3651 C   0  0  0  0  0  0  0  0  0  0  0  0
   26.5188   20.7465    1.9550 C   0  0  0  0  0  0  0  0  0  0  0  0
   27.4309   20.2146    2.8923 C   0  0  0  0  0  0  0  0  0  0  0  0
   28.6571   20.1520    2.4871 N   0  0  0  0  0  0  0  0  0  0  0  0
   29.3448   18.9327    2.1488 C   0  0  0  0  0  0  0  0  0  0  0  0
   30.7608   18.7932    2.1871 C   0  0  0  0  0  0  0  0  0  0  0  0
   31.5224   17.6720    1.8680 C   0  0  0  0  0  0  0  0  0  0  0  0
   30.8753   16.5258    1.4399 C   0  0  0  0  0  0  0  0  0  0  0  0
   29.4501   16.5669    1.3830 C   0  0  0  0  0  0  0  0  0  0  0  0
   28.6999   17.7616    1.6854 C   0  0  0  0  0  0  0  0  0  0  0  0
   21.2152   20.4198    5.6605 S   0  0  0  0  0  0  0  0  0  0  0  0
   20.6295   19.0250    5.9457 O   0  0  0  0  0  0  0  0  0  0  0  0
   20.5251   20.8252    4.3519 O   0  0  0  0  0  0  0  0  0  0  0  0
   20.9475   21.4785    6.7424 O   0  0  0  0  0  0  0  0  0  0  0  0
   20.8471   18.4271    5.2136 H   0  0  0  0  0  0  0  0  0  0  0  0
  1  2  1  0  0  0
  1 10  2  0  0  0
  2  3  1  0  0  0
  2  7  2  0  0  0
  3  4  2  0  0  0
  4  5  1  0  0  0
  5 18  1  0  0  0
  5  6  2  0  0  0
 18 19  1  0  0  0
 18 20  2  0  0  0
 18 21  2  0  0  0
  6  7  1  0  0  0
  7  8  1  0  0  0
  8  9  2  0  0  0
  9 10  1  0  0  0
 10 11  1  0  0  0
 11 12  2  0  0  0
 12 13  1  0  0  0
 12 17  1  0  0  0
 13 14  2  0  0  0
 14 15  1  0  0  0
 15 16  1  0  0  0
 16 17  2  0  0  0
 19 22  1  0  0  0
M  END
> <minimizedAffinity>
-7.38396

$$$$
2WOS_6AN_A_1098


 22 24  0  0  0  0  0  0  0  0999 V2000
   23.5002   20.2706    5.3259 C   0  0  0  0  0  0  0  0  0  0  0  0
   22.1650   19.8858    4.9929 C   0  0  0  0  0  0  0  0  0  0  0  0
   21.0955   19.6728    5.9644 C   0  0  0  0  0  0  0  0  0  0  0  0
   19.8379   19.2375    5.5969 C   0  0  0  0  0  0  0  0  0  0  0  0
   19.6383   19.0568    4.1836 C   0  0  0  0  0  0  0  0  0  0  0  0
   20.6425   19.3316    3.2199 C   0  0  0  0  0  0  0  0  0  0  0  0
   21.9109   19.7216    3.6255 C   0  0  0  0  0  0  0  0  0  0  0  0
   22.9281   20.0140    2.6652 C   0  0  0  0  0  0  0  0  0  0  0  0
   24.2144   20.4473    2.9774 C   0  0  0  0  0  0  0  0  0  0  0  0
   24.5272   20.5408    4.3510 C   0  0  0  0  0  0  0  0  0  0  0  0
   25.7260   20.9483    4.6123 N   0  0  0  0  0  0  0  0  0  0  0  0
   26.8238   20.0856    4.9653 C   0  0  0  0  0  0  0  0  0  0  0  0
   27.9563   20.5203    5.7098 C   0  0  0  0  0  0  0  0  0  0  0  0
   29.0714   19.7777    6.0894 C   0  0  0  0  0  0  0  0  0  0  0  0
   29.1485   18.4489    5.7101 C   0  0  0  0  0  0  0  0  0  0  0  0
   28.0492   17.9193    4.9705 C   0  0  0  0  0  0  0  0  0  0  0  0
   26.9293   18.7330    4.5637 C   0  0  0  0  0  0  0  0  0  0  0  0
   18.0712   18.5018    3.6415 S   0  0  0  0  0  0  0  0  0  0  0  0
   17.1035   19.6948    3.5430 O   0  0  0  0  0  0  0  0  0  0  0  0
   17.4850   17.6733    4.7917 O   0  0  0  0  0  0  0  0  0  0  0  0
   18.1781   17.6363    2.3755 O   0  0  0  0  0  0  0  0  0  0  0  0
   17.1016   20.1799    4.3830 H   0  0  0  0  0  0  0  0  0  0  0  0
  1  2  1  0  0  0
  1 10  2  0  0  0
  2  3  1  0  0  0
  2  7  2  0  0  0
  3  4  2  0  0  0
  4  5  1  0  0  0
  5 18  1  0  0  0
  5  6  2  0  0  0
 18 19  1  0  0  0
 18 20  2  0  0  0
 18 21  2  0  0  0
  6  7  1  0  0  0
  7  8  1  0  0  0
  8  9  2  0  0  0
  9 10  1  0  0  0
 10 11  1  0  0  0
 11 12  2  0  0  0
 12 13  1  0  0  0
 12 17  1  0  0  0
 13 14  2  0  0  0
 14 15  1  0  0  0
 15 16  1  0  0  0
 16 17  2  0  0  0
 19 22  1  0  0  0
M  END
> <minimizedAffinity>
-7.37917

$$$$
2WOS_6AN_A_1098


 22 24  0  0  0  0  0  0  0  0999 V2000
   26.9264   21.1513    2.2805 C   0  0  0  0  0  0  0  0  0  0  0  0
   25.8402   21.8349    1.6523 C   0  0  0  0  0  0  0  0  0  0  0  0
   25.9392   22.5732    0.3960 C   0  0  0  0  0  0  0  0  0  0  0  0
   24.8748   23.2725   -0.1372 C   0  0  0  0  0  0  0  0  0  0  0  0
   23.6458   23.1817    0.6051 C   0  0  0  0  0  0  0  0  0  0  0  0
   23.5115   22.4076    1.7864 C   0  0  0  0  0  0  0  0  0  0  0  0
   24.6130   21.7556    2.3223 C   0  0  0  0  0  0  0  0  0  0  0  0
   24.4894   20.9622    3.5044 C   0  0  0  0  0  0  0  0  0  0  0  0
   25.5282   20.2435    4.0911 C   0  0  0  0  0  0  0  0  0  0  0  0
   26.7976   20.3721    3.4865 C   0  0  0  0  0  0  0  0  0  0  0  0
   27.7426   19.6923    4.0492 N   0  0  0  0  0  0  0  0  0  0  0  0
   28.3983   18.5566    3.4540 C   0  0  0  0  0  0  0  0  0  0  0  0
   29.0470   17.5395    4.2093 C   0  0  0  0  0  0  0  0  0  0  0  0
   29.7190   16.4152    3.7368 C   0  0  0  0  0  0  0  0  0  0  0  0
   29.8116   16.2189    2.3698 C   0  0  0  0  0  0  0  0  0  0  0  0
   29.1770   17.1826    1.5304 C   0  0  0  0  0  0  0  0  0  0  0  0
   28.5234   18.3553    2.0591 C   0  0  0  0  0  0  0  0  0  0  0  0
   22.2537   24.0459   -0.0058 S   0  0  0  0  0  0  0  0  0  0  0  0
   21.2196   24.2265    1.1202 O   0  0  0  0  0  0  0  0  0  0  0  0
   21.5461   23.0929   -0.9774 O   0  0  0  0  0  0  0  0  0  0  0  0
   22.6580   25.3349   -0.7394 O   0  0  0  0  0  0  0  0  0  0  0  0
   21.0268   23.3655    1.5232 H   0  0  0  0  0  0  0  0  0  0  0  0
  1  2  1  0  0  0
  1 10  2  0  0  0
  2  3  1  0  0  0
  2  7  2  0  0  0
  3  4  2  0  0  0
  4  5  1  0  0  0
  5 18  1  0  0  0
  5  6  2  0  0  0
 18 19  1  0  0  0
 18 20  2  0  0  0
 18 21  2  0  0  0
  6  7  1  0  0  0
  7  8  1  0  0  0
  8  9  2  0  0  0
  9 10  1  0  0  0
 10 11  1  0  0  0
 11 12  2  0  0  0
 12 13  1  0  0  0
 12 17  1  0  0  0
 13 14  2  0  0  0
 14 15  1  0  0  0
 15 16  1  0  0  0
 16 17  2  0  0  0
 19 22  1  0  0  0
M  END
> <minimizedAffinity>
-6.95286

$$$$
2WOS_6AN_A_1098


 22 24  0  0  0  0  0  0  0  0999 V2000
   24.8567   20.2628    2.5912 C   0  0  0  0  0  0  0  0  0  0  0  0
   26.1475   20.7840    2.2692 C   0  0  0  0  0  0  0  0  0  0  0  0
   27.4114   20.1183    2.5737 C   0  0  0  0  0  0  0  0  0  0  0  0
   28.6359   20.6944    2.3001 C   0  0  0  0  0  0  0  0  0  0  0  0
   28.5807   21.9752    1.6473 C   0  0  0  0  0  0  0  0  0  0  0  0
   27.3632   22.6018    1.2760 C   0  0  0  0  0  0  0  0  0  0  0  0
   26.1487   22.0189    1.6085 C   0  0  0  0  0  0  0  0  0  0  0  0
   24.9149   22.6325    1.2297 C   0  0  0  0  0  0  0  0  0  0  0  0
   23.6526   22.1029    1.4860 C   0  0  0  0  0  0  0  0  0  0  0  0
   23.6167   20.9007    2.2256 C   0  0  0  0  0  0  0  0  0  0  0  0
   22.4330   20.4298    2.4464 N   0  0  0  0  0  0  0  0  0  0  0  0
   21.8520   20.2588    3.7530 C   0  0  0  0  0  0  0  0  0  0  0  0
   20.8148   19.3259    4.0353 C   0  0  0  0  0  0  0  0  0  0  0  0
   20.1770   19.0923    5.2509 C   0  0  0  0  0  0  0  0  0  0  0  0
   20.5473   19.8426    6.3534 C   0  0  0  0  0  0  0  0  0  0  0  0
   21.5925   20.7963    6.1693 C   0  0  0  0  0  0  0  0  0  0  0  0
   22.2016   21.0349    4.8833 C   0  0  0  0  0  0  0  0  0  0  0  0
   30.0927   22.7702    1.2730 S   0  0  0  0  0  0  0  0  0  0  0  0
   30.0019   23.4315   -0.1141 O   0  0  0  0  0  0  0  0  0  0  0  0
   31.1250   21.6559    1.0595 O   0  0  0  0  0  0  0  0  0  0  0  0
   30.5496   23.6947    2.4130 O   0  0  0  0  0  0  0  0  0  0  0  0
   29.7076   22.7763   -0.7661 H   0  0  0  0  0  0  0  0  0  0  0  0
  1  2  1  0  0  0
  1 10  2  0  0  0
  2  3  1  0  0  0
  2  7  2  0  0  0
  3  4  2  0  0  0
  4  5  1  0  0  0
  5 18  1  0  0  0
  5  6  2  0  0  0
 18 19  1  0  0  0
 18 20  2  0  0  0
 18 21  2  0  0  0
  6  7  1  0  0  0
  7  8  1  0  0  0
  8  9  2  0  0  0
  9 10  1  0  0  0
 10 11  1  0  0  0
 11 12  2  0  0  0
 12 13  1  0  0  0
 12 17  1  0  0  0
 13 14  2  0  0  0
 14 15  1  0  0  0
 15 16  1  0  0  0
 16 17  2  0  0  0
 19 22  1  0  0  0
M  END
> <minimizedAffinity>
-6.79690

$$$$
2WOS_6AN_A_1098


 22 24  0  0  0  0  0  0  0  0999 V2000
   22.3118   20.2936    4.2087 C   0  0  0  0  0  0  0  0  0  0  0  0
   23.4514   20.1811    5.0633 C   0  0  0  0  0  0  0  0  0  0  0  0
   24.8373   20.3074    4.6201 C   0  0  0  0  0  0  0  0  0  0  0  0
   25.9068   20.1253    5.4741 C   0  0  0  0  0  0  0  0  0  0  0  0
   25.5606   19.8522    6.8435 C   0  0  0  0  0  0  0  0  0  0  0  0
   24.2206   19.8010    7.3066 C   0  0  0  0  0  0  0  0  0  0  0  0
   23.1678   19.9406    6.4135 C   0  0  0  0  0  0  0  0  0  0  0  0
   21.8135   19.9039    6.8680 C   0  0  0  0  0  0  0  0  0  0  0  0
   20.6969   20.0723    6.0527 C   0  0  0  0  0  0  0  0  0  0  0  0
   20.9483   20.2318    4.6725 C   0  0  0  0  0  0  0  0  0  0  0  0
   19.8949   20.3893    3.9396 N   0  0  0  0  0  0  0  0  0  0  0  0
   18.7870   19.4704    3.8926 C   0  0  0  0  0  0  0  0  0  0  0  0
   17.9010   19.3645    2.7838 C   0  0  0  0  0  0  0  0  0  0  0  0
   16.7979   18.5264    2.6425 C   0  0  0  0  0  0  0  0  0  0  0  0
   16.4660   17.6794    3.6856 C   0  0  0  0  0  0  0  0  0  0  0  0
   17.3081   17.7054    4.8372 C   0  0  0  0  0  0  0  0  0  0  0  0
   18.4197   18.6170    4.9598 C   0  0  0  0  0  0  0  0  0  0  0  0
   26.8626   19.6046    7.9843 S   0  0  0  0  0  0  0  0  0  0  0  0
   26.5534   18.3824    8.8677 O   0  0  0  0  0  0  0  0  0  0  0  0
   26.7973   20.7742    8.9746 O   0  0  0  0  0  0  0  0  0  0  0  0
   28.2341   19.5834    7.2903 O   0  0  0  0  0  0  0  0  0  0  0  0
   25.6728   18.4829    9.2618 H   0  0  0  0  0  0  0  0  0  0  0  0
  1  2  1  0  0  0
  1 10  2  0  0  0
  2  3  1  0  0  0
  2  7  2  0  0  0
  3  4  2  0  0  0
  4  5  1  0  0  0
  5 18  1  0  0  0
  5  6  2  0  0  0
 18 19  1  0  0  0
 18 20  2  0  0  0
 18 21  2  0  0  0
  6  7  1  0  0  0
  7  8  1  0  0  0
  8  9  2  0  0  0
  9 10  1  0  0  0
 10 11  1  0  0  0
 11 12  2  0  0  0
 12 13  1  0  0  0
 12 17  1  0  0  0
 13 14  2  0  0  0
 14 15  1  0  0  0
 15 16  1  0  0  0
 16 17  2  0  0  0
 19 22  1  0  0  0
M  END
> <minimizedAffinity>
-6.60767

$$$$
2WOS_6AN_A_1098


 22 24  0  0  0  0  0  0  0  0999 V2000
   23.4330   20.1972    5.5186 C   0  0  0  0  0  0  0  0  0  0  0  0
   22.1070   19.8303    5.1329 C   0  0  0  0  0  0  0  0  0  0  0  0
   21.0000   19.6207    6.0623 C   0  0  0  0  0  0  0  0  0  0  0  0
   19.7522   19.2026    5.6447 C   0  0  0  0  0  0  0  0  0  0  0  0
   19.6032   19.0364    4.2235 C   0  0  0  0  0  0  0  0  0  0  0  0
   20.6453   19.3084    3.3000 C   0  0  0  0  0  0  0  0  0  0  0  0
   21.9019   19.6807    3.7556 C   0  0  0  0  0  0  0  0  0  0  0  0
   22.9571   19.9700    2.8363 C   0  0  0  0  0  0  0  0  0  0  0  0
   24.2356   20.3863    3.1997 C   0  0  0  0  0  0  0  0  0  0  0  0
   24.4982   20.4644    4.5847 C   0  0  0  0  0  0  0  0  0  0  0  0
   25.6909   20.8563    4.8938 N   0  0  0  0  0  0  0  0  0  0  0  0
   26.7714   21.0061    3.9535 C   0  0  0  0  0  0  0  0  0  0  0  0
   28.1454   20.9481    4.3203 C   0  0  0  0  0  0  0  0  0  0  0  0
   29.2606   21.0939    3.4993 C   0  0  0  0  0  0  0  0  0  0  0  0
   29.0685   21.3427    2.1514 C   0  0  0  0  0  0  0  0  0  0  0  0
   27.7206   21.4041    1.6874 C   0  0  0  0  0  0  0  0  0  0  0  0
   26.5918   21.2860    2.5782 C   0  0  0  0  0  0  0  0  0  0  0  0
   18.0513   18.5035    3.6188 S   0  0  0  0  0  0  0  0  0  0  0  0
   17.1039   19.7095    3.4862 O   0  0  0  0  0  0  0  0  0  0  0  0
   17.4098   17.6799    4.7427 O   0  0  0  0  0  0  0  0  0  0  0  0
   18.1963   17.6400    2.3553 O   0  0  0  0  0  0  0  0  0  0  0  0
   17.0756   20.1924    4.3270 H   0  0  0  0  0  0  0  0  0  0  0  0
  1  2  1  0  0  0
  1 10  2  0  0  0
  2  3  1  0  0  0
  2  7  2  0  0  0
  3  4  2  0  0  0
  4  5  1  0  0  0
  5 18  1  0  0  0
  5  6  2  0  0  0
 18 19  1  0  0  0
 18 20  2  0  0  0
 18 21  2  0  0  0
  6  7  1  0  0  0
  7  8  1  0  0  0
  8  9  2  0  0  0
  9 10  1  0  0  0
 10 11  1  0  0  0
 11 12  2  0  0  0
 12 13  1  0  0  0
 12 17  1  0  0  0
 13 14  2  0  0  0
 14 15  1  0  0  0
 15 16  1  0  0  0
 16 17  2  0  0  0
 19 22  1  0  0  0
M  END
> <minimizedAffinity>
-6.46190

$$$$
