3W5N_RAM_A_1202
  RCSB PDB12061711193D
Coordinates from PDB:3W5N:A:1202 Model:1 without hydrogens
 11 11  0  0  0  0            999 V2000
   25.4300    2.7100   28.9030   C 0  0  0  0  0  0  0  0  0  0  0  0
   25.1360    3.9610   28.0560   C 0  0  0  0  0  0  0  0  0  0  0  0
   25.2620    5.2630   28.8810   C 0  0  0  0  0  0  0  0  0  0  0  0
   24.9700    5.1290   30.3860   C 0  0  0  0  0  0  0  0  0  0  0  0
   24.1040    3.9190   30.5960   C 0  0  0  0  0  0  0  0  0  0  0  0
   23.7670    3.8290   32.0890   C 0  0  0  0  0  0  0  0  0  0  0  0
   24.8900    1.5310   28.2960   O 0  0  0  0  0  0  0  0  0  0  0  0
   25.9900    3.9280   26.8820   O 0  0  0  0  0  0  0  0  0  0  0  0
   26.5950    5.7530   28.8540   O 0  0  0  0  0  0  0  0  0  0  0  0
   24.2930    6.2800   30.9380   O 0  0  0  0  0  0  0  0  0  0  0  0
   24.8520    2.7710   30.2000   O 0  0  0  0  0  0  0  0  0  0  0  0
  1  2  1  0  0  0  0
  1  7  1  0  0  0  0
  1 11  1  0  0  0  0
  2  3  1  0  0  0  0
  2  8  1  0  0  0  0
  3  4  1  0  0  0  0
  3  9  1  0  0  0  0
  4  5  1  0  0  0  0
  4 10  1  0  0  0  0
  5  6  1  0  0  0  0
  5 11  1  0  0  0  0
A    1
C1
A    2
C2
A    3
C3
A    4
C4
A    5
C5
A    6
C6
A    7
O1
A    8
O2
A    9
O3
A   10
O4
A   11
O5
M  END
>  <InstanceId>
3W5N_RAM_A_1202

>  <ChemCompId>
RAM

>  <PdbId>
3W5N

>  <ChainId>
A

>  <ResidueNumber>
1202

>  <InsertionCode>


>  <Model>
1

>  <AltIds>


>  <MissingHeavyAtoms>
0

>  <ObservedFormula>
C6 O5

>  <Name>
ALPHA-L-RHAMNOSE

>  <SystematicName>
(2R,3R,4R,5R,6S)-6-methyloxane-2,3,4,5-tetrol

>  <Synonyms>


>  <Type>
SACCHARIDE

>  <Formula>
C6 H12 O5

>  <MolecularWeight>
164.156

>  <ModifiedDate>
2011-06-04

>  <Parent>


>  <OneLetterCode>


>  <SubcomponentList>


>  <AmbiguousFlag>
N

>  <InChI>
InChI=1S/C6H12O5/c1-2-3(7)4(8)5(9)6(10)11-2/h2-10H,1H3/t2-,3-,4+,5+,6+/m0/s1

>  <InChIKey>
SHZGCJCMOBCMKK-HGVZOGFYSA-N

>  <SMILES>
C[C@H]1[C@@H]([C@H]([C@H]([C@@H](O1)O)O)O)O

$$$$
