4BB9_F1P_A_702


 22 22  0  0  0  0  0  0  0  0999 V2000
   49.5930   31.4476   15.2278 C   0  0  0  0  0  0  0  0  0  0  0  0
   48.9070   32.1394   16.3973 C   0  0  0  0  0  0  0  0  0  0  0  0
   47.4295   32.3318   16.1215 C   0  0  0  0  0  0  0  0  0  0  0  0
   46.7807   30.9734   15.9289 C   0  0  0  0  0  0  0  0  0  0  0  0
   47.4778   30.3182   14.6854 C   0  0  0  0  0  0  0  0  0  0  0  0
   49.5265   32.2669   14.0684 O   0  0  0  0  0  0  0  0  0  0  0  0
   49.5201   33.3892   16.7192 O   0  0  0  0  0  0  0  0  0  0  0  0
   46.7874   32.9220   17.2954 O   0  0  0  0  0  0  0  0  0  0  0  0
   46.9450   30.0954   17.0820 O   0  0  0  0  0  0  0  0  0  0  0  0
   48.9262   30.1940   15.0113 O   0  0  0  0  0  0  0  0  0  0  0  0
   49.9825   33.1059   14.2388 H   0  0  0  0  0  0  0  0  0  0  0  0
   49.4353   33.9945   15.9660 H   0  0  0  0  0  0  0  0  0  0  0  0
   46.9048   32.3341   18.0580 H   0  0  0  0  0  0  0  0  0  0  0  0
   47.8899   29.9455   17.2422 H   0  0  0  0  0  0  0  0  0  0  0  0
   51.0678   31.2183   15.5779 C   0  0  0  0  0  0  0  0  0  0  0  0
   51.1597   30.1435   16.5116 O   0  0  0  0  0  0  0  0  0  0  0  0
   51.6847   30.4773   17.9809 P   0  0  0  0  0  0  0  0  0  0  0  0
   52.8761   29.5314   18.1641 O   0  0  0  0  0  0  0  0  0  0  0  0
   50.5678   30.2033   19.0218 O   0  0  0  0  0  0  0  0  0  0  0  0
   52.0186   31.9917   18.0304 O   0  0  0  0  0  0  0  0  0  0  0  0
   50.3398   29.2606   19.0109 H   0  0  0  0  0  0  0  0  0  0  0  0
   52.7166   32.1901   17.3868 H   0  0  0  0  0  0  0  0  0  0  0  0
 15  1  1  0  0  0
 15 16  1  0  0  0
  1  2  1  0  0  0
  1  6  1  0  0  0
  1 10  1  0  0  0
  2  3  1  0  0  0
  2  7  1  0  0  0
  3  4  1  0  0  0
  3  8  1  0  0  0
  4  5  1  0  0  0
  4  9  1  0  0  0
  5 10  1  0  0  0
 16 17  1  0  0  0
 17 18  2  0  0  0
 17 19  1  0  0  0
 17 20  1  0  0  0
  6 11  1  0  0  0
  7 12  1  0  0  0
  8 13  1  0  0  0
  9 14  1  0  0  0
 19 21  1  0  0  0
 20 22  1  0  0  0
M  END
> <minimizedAffinity>
-9.14938

$$$$
4BB9_F1P_A_702


 22 22  0  0  0  0  0  0  0  0999 V2000
   49.2446   31.3252   15.1156 C   0  0  0  0  0  0  0  0  0  0  0  0
   48.6835   32.0519   16.3297 C   0  0  0  0  0  0  0  0  0  0  0  0
   47.2025   32.3243   16.1609 C   0  0  0  0  0  0  0  0  0  0  0  0
   46.4689   31.0032   16.0196 C   0  0  0  0  0  0  0  0  0  0  0  0
   47.0378   30.3126   14.7308 C   0  0  0  0  0  0  0  0  0  0  0  0
   49.1388   32.1482   13.9618 O   0  0  0  0  0  0  0  0  0  0  0  0
   49.3850   33.2663   16.6029 O   0  0  0  0  0  0  0  0  0  0  0  0
   46.6798   32.9471   17.3765 O   0  0  0  0  0  0  0  0  0  0  0  0
   46.6685   30.1163   17.1603 O   0  0  0  0  0  0  0  0  0  0  0  0
   48.4971   30.1098   14.9514 O   0  0  0  0  0  0  0  0  0  0  0  0
   49.6507   32.9611   14.0964 H   0  0  0  0  0  0  0  0  0  0  0  0
   49.2787   33.8761   15.8560 H   0  0  0  0  0  0  0  0  0  0  0  0
   46.8201   32.3529   18.1302 H   0  0  0  0  0  0  0  0  0  0  0  0
   47.6130   29.9153   17.2521 H   0  0  0  0  0  0  0  0  0  0  0  0
   50.7263   31.0161   15.3588 C   0  0  0  0  0  0  0  0  0  0  0  0
   50.8764   30.4732   16.6696 O   0  0  0  0  0  0  0  0  0  0  0  0
   52.1290   30.9519   17.5343 P   0  0  0  0  0  0  0  0  0  0  0  0
   51.5476   32.0392   18.4440 O   0  0  0  0  0  0  0  0  0  0  0  0
   53.2367   31.5122   16.6042 O   0  0  0  0  0  0  0  0  0  0  0  0
   52.7041   29.7078   18.2615 O   0  0  0  0  0  0  0  0  0  0  0  0
   52.9017   32.2931   16.1364 H   0  0  0  0  0  0  0  0  0  0  0  0
   52.0291   29.3372   18.8513 H   0  0  0  0  0  0  0  0  0  0  0  0
 15  1  1  0  0  0
 15 16  1  0  0  0
  1  2  1  0  0  0
  1  6  1  0  0  0
  1 10  1  0  0  0
  2  3  1  0  0  0
  2  7  1  0  0  0
  3  4  1  0  0  0
  3  8  1  0  0  0
  4  5  1  0  0  0
  4  9  1  0  0  0
  5 10  1  0  0  0
 16 17  1  0  0  0
 17 18  2  0  0  0
 17 19  1  0  0  0
 17 20  1  0  0  0
  6 11  1  0  0  0
  7 12  1  0  0  0
  8 13  1  0  0  0
  9 14  1  0  0  0
 19 21  1  0  0  0
 20 22  1  0  0  0
M  END
> <minimizedAffinity>
-9.05798

$$$$
4BB9_F1P_A_702


 22 22  0  0  0  0  0  0  0  0999 V2000
   49.5688   32.2155   16.8111 C   0  0  0  0  0  0  0  0  0  0  0  0
   50.4088   31.5991   15.7014 C   0  0  0  0  0  0  0  0  0  0  0  0
   51.8826   31.6416   16.0508 C   0  0  0  0  0  0  0  0  0  0  0  0
   52.1141   30.8414   17.3194 C   0  0  0  0  0  0  0  0  0  0  0  0
   51.2751   31.5393   18.4465 C   0  0  0  0  0  0  0  0  0  0  0  0
   49.8855   33.5935   16.9552 O   0  0  0  0  0  0  0  0  0  0  0  0
   50.1783   32.2269   14.4387 O   0  0  0  0  0  0  0  0  0  0  0  0
   52.6512   30.9687   15.0044 O   0  0  0  0  0  0  0  0  0  0  0  0
   51.6869   29.4517   17.2018 O   0  0  0  0  0  0  0  0  0  0  0  0
   49.8481   31.4938   18.0210 O   0  0  0  0  0  0  0  0  0  0  0  0
   49.6888   34.0588   16.1271 H   0  0  0  0  0  0  0  0  0  0  0  0
   50.4450   33.1582   14.4872 H   0  0  0  0  0  0  0  0  0  0  0  0
   52.3583   30.0470   14.9301 H   0  0  0  0  0  0  0  0  0  0  0  0
   50.7368   29.4207   17.0086 H   0  0  0  0  0  0  0  0  0  0  0  0
   48.0858   32.0929   16.4423 C   0  0  0  0  0  0  0  0  0  0  0  0
   47.8362   30.7725   15.9629 O   0  0  0  0  0  0  0  0  0  0  0  0
   46.9694   30.6156   14.6325 P   0  0  0  0  0  0  0  0  0  0  0  0
   46.1076   29.3783   14.9048 O   0  0  0  0  0  0  0  0  0  0  0  0
   47.9012   30.4094   13.4096 O   0  0  0  0  0  0  0  0  0  0  0  0
   46.1902   31.9400   14.4175 O   0  0  0  0  0  0  0  0  0  0  0  0
   48.4013   29.5855   13.5195 H   0  0  0  0  0  0  0  0  0  0  0  0
   45.5984   32.0928   15.1707 H   0  0  0  0  0  0  0  0  0  0  0  0
 15  1  1  0  0  0
 15 16  1  0  0  0
  1  2  1  0  0  0
  1  6  1  0  0  0
  1 10  1  0  0  0
  2  3  1  0  0  0
  2  7  1  0  0  0
  3  4  1  0  0  0
  3  8  1  0  0  0
  4  5  1  0  0  0
  4  9  1  0  0  0
  5 10  1  0  0  0
 16 17  1  0  0  0
 17 18  2  0  0  0
 17 19  1  0  0  0
 17 20  1  0  0  0
  6 11  1  0  0  0
  7 12  1  0  0  0
  8 13  1  0  0  0
  9 14  1  0  0  0
 19 21  1  0  0  0
 20 22  1  0  0  0
M  END
> <minimizedAffinity>
-8.54912

$$$$
4BB9_F1P_A_702


 22 22  0  0  0  0  0  0  0  0999 V2000
   49.5791   32.1689   16.8124 C   0  0  0  0  0  0  0  0  0  0  0  0
   50.4629   31.6110   15.7058 C   0  0  0  0  0  0  0  0  0  0  0  0
   51.9279   31.7154   16.0784 C   0  0  0  0  0  0  0  0  0  0  0  0
   52.1778   30.9051   17.3370 C   0  0  0  0  0  0  0  0  0  0  0  0
   51.2910   31.5442   18.4625 C   0  0  0  0  0  0  0  0  0  0  0  0
   49.8294   33.5574   16.9840 O   0  0  0  0  0  0  0  0  0  0  0  0
   50.2219   32.2490   14.4502 O   0  0  0  0  0  0  0  0  0  0  0  0
   52.7420   31.0967   15.0329 O   0  0  0  0  0  0  0  0  0  0  0  0
   51.8173   29.4994   17.1900 O   0  0  0  0  0  0  0  0  0  0  0  0
   49.8740   31.4402   18.0145 O   0  0  0  0  0  0  0  0  0  0  0  0
   49.6234   34.0272   16.1608 H   0  0  0  0  0  0  0  0  0  0  0  0
   50.4443   33.1907   14.5181 H   0  0  0  0  0  0  0  0  0  0  0  0
   52.4932   30.1639   14.9390 H   0  0  0  0  0  0  0  0  0  0  0  0
   50.8726   29.4280   16.9819 H   0  0  0  0  0  0  0  0  0  0  0  0
   48.1090   31.9843   16.4190 C   0  0  0  0  0  0  0  0  0  0  0  0
   47.8001   30.5915   16.4249 O   0  0  0  0  0  0  0  0  0  0  0  0
   46.2655   30.1702   16.5410 P   0  0  0  0  0  0  0  0  0  0  0  0
   45.9811   29.4656   15.2104 O   0  0  0  0  0  0  0  0  0  0  0  0
   45.3789   31.4294   16.7258 O   0  0  0  0  0  0  0  0  0  0  0  0
   46.1118   29.2910   17.8102 O   0  0  0  0  0  0  0  0  0  0  0  0
   45.4572   31.9977   15.9436 H   0  0  0  0  0  0  0  0  0  0  0  0
   46.6580   28.4945   17.7198 H   0  0  0  0  0  0  0  0  0  0  0  0
 15  1  1  0  0  0
 15 16  1  0  0  0
  1  2  1  0  0  0
  1  6  1  0  0  0
  1 10  1  0  0  0
  2  3  1  0  0  0
  2  7  1  0  0  0
  3  4  1  0  0  0
  3  8  1  0  0  0
  4  5  1  0  0  0
  4  9  1  0  0  0
  5 10  1  0  0  0
 16 17  1  0  0  0
 17 18  2  0  0  0
 17 19  1  0  0  0
 17 20  1  0  0  0
  6 11  1  0  0  0
  7 12  1  0  0  0
  8 13  1  0  0  0
  9 14  1  0  0  0
 19 21  1  0  0  0
 20 22  1  0  0  0
M  END
> <minimizedAffinity>
-8.15320

$$$$
4BB9_F1P_A_702


 22 22  0  0  0  0  0  0  0  0999 V2000
   48.9049   31.9138   16.1248 C   0  0  0  0  0  0  0  0  0  0  0  0
   48.6871   31.1523   14.8249 C   0  0  0  0  0  0  0  0  0  0  0  0
   47.3987   30.3564   14.8731 C   0  0  0  0  0  0  0  0  0  0  0  0
   46.2339   31.3106   15.0631 C   0  0  0  0  0  0  0  0  0  0  0  0
   46.4692   32.0342   16.4351 C   0  0  0  0  0  0  0  0  0  0  0  0
   49.0614   31.0026   17.2042 O   0  0  0  0  0  0  0  0  0  0  0  0
   49.7884   30.2982   14.5095 O   0  0  0  0  0  0  0  0  0  0  0  0
   47.1794   29.7053   13.5820 O   0  0  0  0  0  0  0  0  0  0  0  0
   46.1414   32.3132   14.0078 O   0  0  0  0  0  0  0  0  0  0  0  0
   47.7643   32.7626   16.3288 O   0  0  0  0  0  0  0  0  0  0  0  0
   49.8362   30.4415   17.0440 H   0  0  0  0  0  0  0  0  0  0  0  0
   49.8822   29.6233   15.1999 H   0  0  0  0  0  0  0  0  0  0  0  0
   47.1232   30.3785   12.8859 H   0  0  0  0  0  0  0  0  0  0  0  0
   46.9527   32.8448   13.9949 H   0  0  0  0  0  0  0  0  0  0  0  0
   50.1835   32.7511   16.0054 C   0  0  0  0  0  0  0  0  0  0  0  0
   51.0779   32.3814   17.0537 O   0  0  0  0  0  0  0  0  0  0  0  0
   52.4485   31.6729   16.6469 P   0  0  0  0  0  0  0  0  0  0  0  0
   52.6627   30.6349   17.7534 O   0  0  0  0  0  0  0  0  0  0  0  0
   53.5965   32.7152   16.6062 O   0  0  0  0  0  0  0  0  0  0  0  0
   52.2770   31.0996   15.2153 O   0  0  0  0  0  0  0  0  0  0  0  0
   53.7245   33.0899   17.4917 H   0  0  0  0  0  0  0  0  0  0  0  0
   51.5628   30.4432   15.2133 H   0  0  0  0  0  0  0  0  0  0  0  0
 15  1  1  0  0  0
 15 16  1  0  0  0
  1  2  1  0  0  0
  1  6  1  0  0  0
  1 10  1  0  0  0
  2  3  1  0  0  0
  2  7  1  0  0  0
  3  4  1  0  0  0
  3  8  1  0  0  0
  4  5  1  0  0  0
  4  9  1  0  0  0
  5 10  1  0  0  0
 16 17  1  0  0  0
 17 18  2  0  0  0
 17 19  1  0  0  0
 17 20  1  0  0  0
  6 11  1  0  0  0
  7 12  1  0  0  0
  8 13  1  0  0  0
  9 14  1  0  0  0
 19 21  1  0  0  0
 20 22  1  0  0  0
M  END
> <minimizedAffinity>
-7.51616

$$$$
4BB9_F1P_A_702


 22 22  0  0  0  0  0  0  0  0999 V2000
   48.2011   32.3277   15.8730 C   0  0  0  0  0  0  0  0  0  0  0  0
   47.4433   31.0310   16.1203 C   0  0  0  0  0  0  0  0  0  0  0  0
   46.8192   30.5159   14.8393 C   0  0  0  0  0  0  0  0  0  0  0  0
   47.9181   30.2365   13.8305 C   0  0  0  0  0  0  0  0  0  0  0  0
   48.6378   31.6049   13.5642 C   0  0  0  0  0  0  0  0  0  0  0  0
   47.3030   33.3456   15.4519 O   0  0  0  0  0  0  0  0  0  0  0  0
   46.4489   31.1732   17.1364 O   0  0  0  0  0  0  0  0  0  0  0  0
   46.1713   29.2301   15.0955 O   0  0  0  0  0  0  0  0  0  0  0  0
   48.8994   29.2700   14.3107 O   0  0  0  0  0  0  0  0  0  0  0  0
   49.1928   32.0677   14.8670 O   0  0  0  0  0  0  0  0  0  0  0  0
   46.6442   33.5030   16.1463 H   0  0  0  0  0  0  0  0  0  0  0  0
   45.7839   31.8187   16.8499 H   0  0  0  0  0  0  0  0  0  0  0  0
   46.8297   28.5949   15.4180 H   0  0  0  0  0  0  0  0  0  0  0  0
   49.3229   29.6112   15.1139 H   0  0  0  0  0  0  0  0  0  0  0  0
   48.8659   32.7753   17.1798 C   0  0  0  0  0  0  0  0  0  0  0  0
   50.2811   32.7839   16.9994 O   0  0  0  0  0  0  0  0  0  0  0  0
   51.0924   31.4752   17.4179 P   0  0  0  0  0  0  0  0  0  0  0  0
   52.5114   31.9940   17.6729 O   0  0  0  0  0  0  0  0  0  0  0  0
   51.0584   30.4355   16.2673 O   0  0  0  0  0  0  0  0  0  0  0  0
   50.3781   30.8489   18.6447 O   0  0  0  0  0  0  0  0  0  0  0  0
   51.5000   30.8034   15.4859 H   0  0  0  0  0  0  0  0  0  0  0  0
   50.3856   31.4809   19.3806 H   0  0  0  0  0  0  0  0  0  0  0  0
 15  1  1  0  0  0
 15 16  1  0  0  0
  1  2  1  0  0  0
  1  6  1  0  0  0
  1 10  1  0  0  0
  2  3  1  0  0  0
  2  7  1  0  0  0
  3  4  1  0  0  0
  3  8  1  0  0  0
  4  5  1  0  0  0
  4  9  1  0  0  0
  5 10  1  0  0  0
 16 17  1  0  0  0
 17 18  2  0  0  0
 17 19  1  0  0  0
 17 20  1  0  0  0
  6 11  1  0  0  0
  7 12  1  0  0  0
  8 13  1  0  0  0
  9 14  1  0  0  0
 19 21  1  0  0  0
 20 22  1  0  0  0
M  END
> <minimizedAffinity>
-7.43752

$$$$
4BB9_F1P_A_702


 22 22  0  0  0  0  0  0  0  0999 V2000
   47.5319   32.0874   16.2747 C   0  0  0  0  0  0  0  0  0  0  0  0
   47.5184   31.8051   14.7790 C   0  0  0  0  0  0  0  0  0  0  0  0
   48.8898   32.0267   14.1738 C   0  0  0  0  0  0  0  0  0  0  0  0
   49.8780   31.0770   14.8255 C   0  0  0  0  0  0  0  0  0  0  0  0
   49.9011   31.4360   16.3526 C   0  0  0  0  0  0  0  0  0  0  0  0
   47.8347   33.4558   16.5107 O   0  0  0  0  0  0  0  0  0  0  0  0
   46.5389   32.5861   14.0919 O   0  0  0  0  0  0  0  0  0  0  0  0
   48.8608   31.6676   12.7565 O   0  0  0  0  0  0  0  0  0  0  0  0
   49.5054   29.6751   14.6734 O   0  0  0  0  0  0  0  0  0  0  0  0
   48.5194   31.2314   16.8707 O   0  0  0  0  0  0  0  0  0  0  0  0
   47.1552   34.0129   16.0996 H   0  0  0  0  0  0  0  0  0  0  0  0
   46.7545   33.5275   14.1823 H   0  0  0  0  0  0  0  0  0  0  0  0
   48.6084   30.7356   12.6642 H   0  0  0  0  0  0  0  0  0  0  0  0
   48.6413   29.5235   15.0873 H   0  0  0  0  0  0  0  0  0  0  0  0
   46.1434   31.7895   16.8522 C   0  0  0  0  0  0  0  0  0  0  0  0
   45.7956   30.4398   16.5472 O   0  0  0  0  0  0  0  0  0  0  0  0
   45.2809   29.5160   17.7420 P   0  0  0  0  0  0  0  0  0  0  0  0
   44.6894   30.5137   18.7431 O   0  0  0  0  0  0  0  0  0  0  0  0
   46.4662   28.7232   18.3524 O   0  0  0  0  0  0  0  0  0  0  0  0
   44.2796   28.4902   17.1481 O   0  0  0  0  0  0  0  0  0  0  0  0
   47.1086   29.3432   18.7317 H   0  0  0  0  0  0  0  0  0  0  0  0
   43.5265   28.9616   16.7588 H   0  0  0  0  0  0  0  0  0  0  0  0
 15  1  1  0  0  0
 15 16  1  0  0  0
  1  2  1  0  0  0
  1  6  1  0  0  0
  1 10  1  0  0  0
  2  3  1  0  0  0
  2  7  1  0  0  0
  3  4  1  0  0  0
  3  8  1  0  0  0
  4  5  1  0  0  0
  4  9  1  0  0  0
  5 10  1  0  0  0
 16 17  1  0  0  0
 17 18  2  0  0  0
 17 19  1  0  0  0
 17 20  1  0  0  0
  6 11  1  0  0  0
  7 12  1  0  0  0
  8 13  1  0  0  0
  9 14  1  0  0  0
 19 21  1  0  0  0
 20 22  1  0  0  0
M  END
> <minimizedAffinity>
-7.35387

$$$$
4BB9_F1P_A_702


 22 22  0  0  0  0  0  0  0  0999 V2000
   49.0415   30.7587   15.1657 C   0  0  0  0  0  0  0  0  0  0  0  0
   48.4130   31.9770   14.5042 C   0  0  0  0  0  0  0  0  0  0  0  0
   46.9072   31.8307   14.4196 C   0  0  0  0  0  0  0  0  0  0  0  0
   46.3418   31.7100   15.8228 C   0  0  0  0  0  0  0  0  0  0  0  0
   46.9723   30.4167   16.4482 C   0  0  0  0  0  0  0  0  0  0  0  0
   48.8163   29.6014   14.3721 O   0  0  0  0  0  0  0  0  0  0  0  0
   48.9620   32.2308   13.2096 O   0  0  0  0  0  0  0  0  0  0  0  0
   46.3299   33.0505   13.8563 O   0  0  0  0  0  0  0  0  0  0  0  0
   46.6678   32.8531   16.6682 O   0  0  0  0  0  0  0  0  0  0  0  0
   48.4487   30.6147   16.4661 O   0  0  0  0  0  0  0  0  0  0  0  0
   49.2250   29.7223   13.5008 H   0  0  0  0  0  0  0  0  0  0  0  0
   48.7691   31.4818   12.6242 H   0  0  0  0  0  0  0  0  0  0  0  0
   46.5546   33.8058   14.4220 H   0  0  0  0  0  0  0  0  0  0  0  0
   47.6313   32.9308   16.7494 H   0  0  0  0  0  0  0  0  0  0  0  0
   50.5538   30.9797   15.2861 C   0  0  0  0  0  0  0  0  0  0  0  0
   51.0461   30.2181   16.3875 O   0  0  0  0  0  0  0  0  0  0  0  0
   52.0441   30.9383   17.4031 P   0  0  0  0  0  0  0  0  0  0  0  0
   51.1702   32.0001   18.0789 O   0  0  0  0  0  0  0  0  0  0  0  0
   53.2267   31.5756   16.6276 O   0  0  0  0  0  0  0  0  0  0  0  0
   52.6252   29.8510   18.3451 O   0  0  0  0  0  0  0  0  0  0  0  0
   52.8894   32.2608   16.0296 H   0  0  0  0  0  0  0  0  0  0  0  0
   51.9039   29.4357   18.8432 H   0  0  0  0  0  0  0  0  0  0  0  0
 15  1  1  0  0  0
 15 16  1  0  0  0
  1  2  1  0  0  0
  1  6  1  0  0  0
  1 10  1  0  0  0
  2  3  1  0  0  0
  2  7  1  0  0  0
  3  4  1  0  0  0
  3  8  1  0  0  0
  4  5  1  0  0  0
  4  9  1  0  0  0
  5 10  1  0  0  0
 16 17  1  0  0  0
 17 18  2  0  0  0
 17 19  1  0  0  0
 17 20  1  0  0  0
  6 11  1  0  0  0
  7 12  1  0  0  0
  8 13  1  0  0  0
  9 14  1  0  0  0
 19 21  1  0  0  0
 20 22  1  0  0  0
M  END
> <minimizedAffinity>
-7.25728

$$$$
4BB9_F1P_A_702


 22 22  0  0  0  0  0  0  0  0999 V2000
   49.2207   31.9814   15.3433 C   0  0  0  0  0  0  0  0  0  0  0  0
   48.4819   30.8758   16.0842 C   0  0  0  0  0  0  0  0  0  0  0  0
   46.9922   30.9465   15.8165 C   0  0  0  0  0  0  0  0  0  0  0  0
   46.7470   30.7652   14.3297 C   0  0  0  0  0  0  0  0  0  0  0  0
   47.4786   31.9513   13.6090 C   0  0  0  0  0  0  0  0  0  0  0  0
   48.8079   33.2529   15.8258 O   0  0  0  0  0  0  0  0  0  0  0  0
   48.7370   30.9051   17.4898 O   0  0  0  0  0  0  0  0  0  0  0  0
   46.3249   29.8237   16.4744 O   0  0  0  0  0  0  0  0  0  0  0  0
   47.2693   29.5038   13.8163 O   0  0  0  0  0  0  0  0  0  0  0  0
   48.9259   31.8409   13.9446 O   0  0  0  0  0  0  0  0  0  0  0  0
   49.0170   33.3238   16.7703 H   0  0  0  0  0  0  0  0  0  0  0  0
   48.4081   31.7388   17.8608 H   0  0  0  0  0  0  0  0  0  0  0  0
   46.6807   28.9895   16.1303 H   0  0  0  0  0  0  0  0  0  0  0  0
   48.2282   29.4691   13.9585 H   0  0  0  0  0  0  0  0  0  0  0  0
   50.7257   31.8312   15.5930 C   0  0  0  0  0  0  0  0  0  0  0  0
   50.9887   30.5054   16.0499 O   0  0  0  0  0  0  0  0  0  0  0  0
   52.4694   30.1668   16.5383 P   0  0  0  0  0  0  0  0  0  0  0  0
   52.8666   28.9595   15.6825 O   0  0  0  0  0  0  0  0  0  0  0  0
   52.4671   29.8235   18.0509 O   0  0  0  0  0  0  0  0  0  0  0  0
   53.3343   31.4400   16.3419 O   0  0  0  0  0  0  0  0  0  0  0  0
   51.9316   29.0288   18.2013 H   0  0  0  0  0  0  0  0  0  0  0  0
   53.3522   31.6768   15.4014 H   0  0  0  0  0  0  0  0  0  0  0  0
 15  1  1  0  0  0
 15 16  1  0  0  0
  1  2  1  0  0  0
  1  6  1  0  0  0
  1 10  1  0  0  0
  2  3  1  0  0  0
  2  7  1  0  0  0
  3  4  1  0  0  0
  3  8  1  0  0  0
  4  5  1  0  0  0
  4  9  1  0  0  0
  5 10  1  0  0  0
 16 17  1  0  0  0
 17 18  2  0  0  0
 17 19  1  0  0  0
 17 20  1  0  0  0
  6 11  1  0  0  0
  7 12  1  0  0  0
  8 13  1  0  0  0
  9 14  1  0  0  0
 19 21  1  0  0  0
 20 22  1  0  0  0
M  END
> <minimizedAffinity>
-6.82025

$$$$
4BB9_F1P_A_702


 22 22  0  0  0  0  0  0  0  0999 V2000
   50.1419   32.0700   16.7707 C   0  0  0  0  0  0  0  0  0  0  0  0
   51.2246   31.3390   15.9894 C   0  0  0  0  0  0  0  0  0  0  0  0
   52.4962   31.2232   16.8053 C   0  0  0  0  0  0  0  0  0  0  0  0
   52.2052   30.4299   18.0660 C   0  0  0  0  0  0  0  0  0  0  0  0
   51.1269   31.2421   18.8653 C   0  0  0  0  0  0  0  0  0  0  0  0
   50.5474   33.4065   17.0338 O   0  0  0  0  0  0  0  0  0  0  0  0
   51.4949   31.9610   14.7318 O   0  0  0  0  0  0  0  0  0  0  0  0
   53.4848   30.4455   16.0593 O   0  0  0  0  0  0  0  0  0  0  0  0
   51.6860   29.0948   17.7913 O   0  0  0  0  0  0  0  0  0  0  0  0
   49.9239   31.3480   17.9930 O   0  0  0  0  0  0  0  0  0  0  0  0
   50.6881   33.8727   16.1949 H   0  0  0  0  0  0  0  0  0  0  0  0
   51.8345   32.8573   14.8808 H   0  0  0  0  0  0  0  0  0  0  0  0
   53.1302   29.5611   15.8775 H   0  0  0  0  0  0  0  0  0  0  0  0
   50.8553   29.1666   17.2956 H   0  0  0  0  0  0  0  0  0  0  0  0
   48.8589   32.1068   15.9322 C   0  0  0  0  0  0  0  0  0  0  0  0
   47.7600   31.7099   16.7509 O   0  0  0  0  0  0  0  0  0  0  0  0
   46.4543   31.1510   16.0238 P   0  0  0  0  0  0  0  0  0  0  0  0
   45.3019   31.7419   16.8427 O   0  0  0  0  0  0  0  0  0  0  0  0
   46.4472   29.6002   16.0572 O   0  0  0  0  0  0  0  0  0  0  0  0
   46.5152   31.5935   14.5379 O   0  0  0  0  0  0  0  0  0  0  0  0
   46.4093   29.2968   16.9778 H   0  0  0  0  0  0  0  0  0  0  0  0
   46.5208   32.5622   14.4890 H   0  0  0  0  0  0  0  0  0  0  0  0
 15  1  1  0  0  0
 15 16  1  0  0  0
  1  2  1  0  0  0
  1  6  1  0  0  0
  1 10  1  0  0  0
  2  3  1  0  0  0
  2  7  1  0  0  0
  3  4  1  0  0  0
  3  8  1  0  0  0
  4  5  1  0  0  0
  4  9  1  0  0  0
  5 10  1  0  0  0
 16 17  1  0  0  0
 17 18  2  0  0  0
 17 19  1  0  0  0
 17 20  1  0  0  0
  6 11  1  0  0  0
  7 12  1  0  0  0
  8 13  1  0  0  0
  9 14  1  0  0  0
 19 21  1  0  0  0
 20 22  1  0  0  0
M  END
> <minimizedAffinity>
-6.68118

$$$$
