4QXO_1YE_A_401


 22 24  0  0  0  0  0  0  0  0999 V2000
  -17.0780   52.0064   -3.7094 O   0  0  0  0  0  0  0  0  0  0  0  0
  -18.2439   52.0818   -3.2490 C   0  0  0  0  0  0  0  0  0  0  0  0
  -19.3288   51.9814   -4.1036 C   0  0  0  0  0  0  0  0  0  0  0  0
  -19.1659   51.8098   -5.4771 C   0  0  0  0  0  0  0  0  0  0  0  0
  -20.3024   51.6898   -6.3119 C   0  0  0  0  0  0  0  0  0  0  0  0
  -21.5989   51.7476   -5.7812 C   0  0  0  0  0  0  0  0  0  0  0  0
  -22.7393   51.6325   -6.6149 C   0  0  0  0  0  0  0  0  0  0  0  0
  -21.7707   51.9371   -4.4033 C   0  0  0  0  0  0  0  0  0  0  0  0
  -23.0328   52.0015   -3.7451 C   0  0  0  0  0  0  0  0  0  0  0  0
  -20.6293   52.0756   -3.6164 C   0  0  0  0  0  0  0  0  0  0  0  0
  -20.8464   52.2208   -2.3152 O   0  0  0  0  0  0  0  0  0  0  0  0
  -19.8158   52.2657   -1.4462 C   0  0  0  0  0  0  0  0  0  0  0  0
  -18.4848   52.2101   -1.8925 C   0  0  0  0  0  0  0  0  0  0  0  0
  -17.4475   52.2580   -0.9336 C   0  0  0  0  0  0  0  0  0  0  0  0
  -17.8006   52.3867    0.4140 C   0  0  0  0  0  0  0  0  0  0  0  0
  -19.1356   52.4727    0.8218 C   0  0  0  0  0  0  0  0  0  0  0  0
  -20.1654   52.4076   -0.1155 C   0  0  0  0  0  0  0  0  0  0  0  0
  -21.5260   52.4859    0.2577 C   0  0  0  0  0  0  0  0  0  0  0  0
  -22.4258   51.2072    0.0792 C   0  0  0  0  0  0  0  0  0  0  0  0
  -21.7926   50.1271   -0.1141 O   0  0  0  0  0  0  0  0  0  0  0  0
  -23.6823   51.3273    0.0788 O   0  0  0  0  0  0  0  0  0  0  0  0
  -20.8558   50.1238   -0.0975 H   0  0  0  0  0  0  0  0  0  0  0  0
 16 15  2  0  0  0
 16 17  1  0  0  0
 18 19  1  0  0  0
 18 17  1  0  0  0
 15 14  1  0  0  0
 19 21  2  0  0  0
 19 20  1  0  0  0
 17 12  2  0  0  0
 14 13  2  0  0  0
 12 13  1  0  0  0
 12 11  1  0  0  0
 13  2  1  0  0  0
 11 10  1  0  0  0
  2  1  2  0  0  0
  2  3  1  0  0  0
 10  3  2  0  0  0
 10  8  1  0  0  0
  9  8  1  0  0  0
  3  4  1  0  0  0
  8  6  2  0  0  0
  4  5  2  0  0  0
  6  5  1  0  0  0
  6  7  1  0  0  0
 20 22  1  0  0  0
M  END
> <minimizedAffinity>
-9.86062

$$$$
4QXO_1YE_A_401


 22 24  0  0  0  0  0  0  0  0999 V2000
  -16.7364   54.3517    0.0003 O   0  0  0  0  0  0  0  0  0  0  0  0
  -17.9708   54.2208   -0.1899 C   0  0  0  0  0  0  0  0  0  0  0  0
  -18.8680   54.8159    0.6810 C   0  0  0  0  0  0  0  0  0  0  0  0
  -18.4394   55.5542    1.7827 C   0  0  0  0  0  0  0  0  0  0  0  0
  -19.3902   56.1642    2.6352 C   0  0  0  0  0  0  0  0  0  0  0  0
  -20.7654   56.0335    2.3954 C   0  0  0  0  0  0  0  0  0  0  0  0
  -21.7205   56.6390    3.2498 C   0  0  0  0  0  0  0  0  0  0  0  0
  -21.2043   55.2784    1.2994 C   0  0  0  0  0  0  0  0  0  0  0  0
  -22.5704   55.0815    0.9456 C   0  0  0  0  0  0  0  0  0  0  0  0
  -20.2402   54.6724    0.4966 C   0  0  0  0  0  0  0  0  0  0  0  0
  -20.7071   53.9959   -0.5454 O   0  0  0  0  0  0  0  0  0  0  0  0
  -19.8640   53.4503   -1.4457 C   0  0  0  0  0  0  0  0  0  0  0  0
  -18.4710   53.5377   -1.2843 C   0  0  0  0  0  0  0  0  0  0  0  0
  -17.6386   52.9491   -2.2632 C   0  0  0  0  0  0  0  0  0  0  0  0
  -18.2473   52.2830   -3.3324 C   0  0  0  0  0  0  0  0  0  0  0  0
  -19.6378   52.1859   -3.4456 C   0  0  0  0  0  0  0  0  0  0  0  0
  -20.4664   52.7794   -2.4947 C   0  0  0  0  0  0  0  0  0  0  0  0
  -21.8752   52.7076   -2.5770 C   0  0  0  0  0  0  0  0  0  0  0  0
  -22.6003   51.4679   -1.9337 C   0  0  0  0  0  0  0  0  0  0  0  0
  -22.0716   51.0285   -0.8695 O   0  0  0  0  0  0  0  0  0  0  0  0
  -23.5963   50.9588   -2.5185 O   0  0  0  0  0  0  0  0  0  0  0  0
  -21.3313   51.4670   -0.4986 H   0  0  0  0  0  0  0  0  0  0  0  0
 16 15  2  0  0  0
 16 17  1  0  0  0
 18 19  1  0  0  0
 18 17  1  0  0  0
 15 14  1  0  0  0
 19 21  2  0  0  0
 19 20  1  0  0  0
 17 12  2  0  0  0
 14 13  2  0  0  0
 12 13  1  0  0  0
 12 11  1  0  0  0
 13  2  1  0  0  0
 11 10  1  0  0  0
  2  1  2  0  0  0
  2  3  1  0  0  0
 10  3  2  0  0  0
 10  8  1  0  0  0
  9  8  1  0  0  0
  3  4  1  0  0  0
  8  6  2  0  0  0
  4  5  2  0  0  0
  6  5  1  0  0  0
  6  7  1  0  0  0
 20 22  1  0  0  0
M  END
> <minimizedAffinity>
-8.86337

$$$$
4QXO_1YE_A_401


 22 24  0  0  0  0  0  0  0  0999 V2000
  -24.0245   54.1177   -1.0567 O   0  0  0  0  0  0  0  0  0  0  0  0
  -22.8381   53.7992   -1.3172 C   0  0  0  0  0  0  0  0  0  0  0  0
  -22.5465   53.1393   -2.4991 C   0  0  0  0  0  0  0  0  0  0  0  0
  -23.5420   52.8020   -3.4145 C   0  0  0  0  0  0  0  0  0  0  0  0
  -23.1974   52.1470   -4.6207 C   0  0  0  0  0  0  0  0  0  0  0  0
  -21.8650   51.8221   -4.9121 C   0  0  0  0  0  0  0  0  0  0  0  0
  -21.5169   51.1618   -6.1170 C   0  0  0  0  0  0  0  0  0  0  0  0
  -20.8606   52.1427   -3.9889 C   0  0  0  0  0  0  0  0  0  0  0  0
  -19.4735   51.8754   -4.1747 C   0  0  0  0  0  0  0  0  0  0  0  0
  -21.2403   52.7651   -2.8016 C   0  0  0  0  0  0  0  0  0  0  0  0
  -20.2484   53.0757   -1.9765 O   0  0  0  0  0  0  0  0  0  0  0  0
  -20.4865   53.7675   -0.8434 C   0  0  0  0  0  0  0  0  0  0  0  0
  -21.7917   54.1368   -0.4771 C   0  0  0  0  0  0  0  0  0  0  0  0
  -21.9777   54.8641    0.7205 C   0  0  0  0  0  0  0  0  0  0  0  0
  -20.8509   55.1558    1.4967 C   0  0  0  0  0  0  0  0  0  0  0  0
  -19.5686   54.7442    1.1194 C   0  0  0  0  0  0  0  0  0  0  0  0
  -19.3738   54.0428   -0.0693 C   0  0  0  0  0  0  0  0  0  0  0  0
  -18.0937   53.6144   -0.4869 C   0  0  0  0  0  0  0  0  0  0  0  0
  -17.6622   52.1330   -0.1771 C   0  0  0  0  0  0  0  0  0  0  0  0
  -18.4381   51.2408   -0.6318 O   0  0  0  0  0  0  0  0  0  0  0  0
  -16.6386   51.9194    0.5300 O   0  0  0  0  0  0  0  0  0  0  0  0
  -19.1793   51.4847   -1.1507 H   0  0  0  0  0  0  0  0  0  0  0  0
 16 15  2  0  0  0
 16 17  1  0  0  0
 18 19  1  0  0  0
 18 17  1  0  0  0
 15 14  1  0  0  0
 19 21  2  0  0  0
 19 20  1  0  0  0
 17 12  2  0  0  0
 14 13  2  0  0  0
 12 13  1  0  0  0
 12 11  1  0  0  0
 13  2  1  0  0  0
 11 10  1  0  0  0
  2  1  2  0  0  0
  2  3  1  0  0  0
 10  3  2  0  0  0
 10  8  1  0  0  0
  9  8  1  0  0  0
  3  4  1  0  0  0
  8  6  2  0  0  0
  4  5  2  0  0  0
  6  5  1  0  0  0
  6  7  1  0  0  0
 20 22  1  0  0  0
M  END
> <minimizedAffinity>
-8.63833

$$$$
4QXO_1YE_A_401


 22 24  0  0  0  0  0  0  0  0999 V2000
  -16.7309   53.6983   -0.2491 O   0  0  0  0  0  0  0  0  0  0  0  0
  -17.9613   53.7772   -0.4877 C   0  0  0  0  0  0  0  0  0  0  0  0
  -18.4788   53.1948   -1.6324 C   0  0  0  0  0  0  0  0  0  0  0  0
  -17.6658   52.5263   -2.5460 C   0  0  0  0  0  0  0  0  0  0  0  0
  -18.2391   51.9264   -3.6923 C   0  0  0  0  0  0  0  0  0  0  0  0
  -19.6186   51.9977   -3.9324 C   0  0  0  0  0  0  0  0  0  0  0  0
  -20.1956   51.4021   -5.0819 C   0  0  0  0  0  0  0  0  0  0  0  0
  -20.4403   52.6828   -3.0272 C   0  0  0  0  0  0  0  0  0  0  0  0
  -21.8533   52.8149   -3.1548 C   0  0  0  0  0  0  0  0  0  0  0  0
  -19.8374   53.2817   -1.9231 C   0  0  0  0  0  0  0  0  0  0  0  0
  -20.6632   53.8899   -1.0808 O   0  0  0  0  0  0  0  0  0  0  0  0
  -20.2040   54.4196    0.0715 C   0  0  0  0  0  0  0  0  0  0  0  0
  -18.8366   54.3883    0.3927 C   0  0  0  0  0  0  0  0  0  0  0  0
  -18.4163   54.9567    1.6166 C   0  0  0  0  0  0  0  0  0  0  0  0
  -19.3840   55.5484    2.4357 C   0  0  0  0  0  0  0  0  0  0  0  0
  -20.7333   55.5918    2.0703 C   0  0  0  0  0  0  0  0  0  0  0  0
  -21.1592   55.0173    0.8738 C   0  0  0  0  0  0  0  0  0  0  0  0
  -22.5138   55.0364    0.4724 C   0  0  0  0  0  0  0  0  0  0  0  0
  -23.4231   53.8080    0.8477 C   0  0  0  0  0  0  0  0  0  0  0  0
  -22.7974   52.7557    1.1733 O   0  0  0  0  0  0  0  0  0  0  0  0
  -24.6774   53.9119    0.7523 O   0  0  0  0  0  0  0  0  0  0  0  0
  -21.8617   52.7628    1.2210 H   0  0  0  0  0  0  0  0  0  0  0  0
 16 15  2  0  0  0
 16 17  1  0  0  0
 18 19  1  0  0  0
 18 17  1  0  0  0
 15 14  1  0  0  0
 19 21  2  0  0  0
 19 20  1  0  0  0
 17 12  2  0  0  0
 14 13  2  0  0  0
 12 13  1  0  0  0
 12 11  1  0  0  0
 13  2  1  0  0  0
 11 10  1  0  0  0
  2  1  2  0  0  0
  2  3  1  0  0  0
 10  3  2  0  0  0
 10  8  1  0  0  0
  9  8  1  0  0  0
  3  4  1  0  0  0
  8  6  2  0  0  0
  4  5  2  0  0  0
  6  5  1  0  0  0
  6  7  1  0  0  0
 20 22  1  0  0  0
M  END
> <minimizedAffinity>
-8.58899

$$$$
4QXO_1YE_A_401


 22 24  0  0  0  0  0  0  0  0999 V2000
  -23.4340   54.3360    0.7272 O   0  0  0  0  0  0  0  0  0  0  0  0
  -22.2669   54.3349    0.2636 C   0  0  0  0  0  0  0  0  0  0  0  0
  -21.2446   54.9433    0.9723 C   0  0  0  0  0  0  0  0  0  0  0  0
  -21.4748   55.5757    2.1928 C   0  0  0  0  0  0  0  0  0  0  0  0
  -20.3972   56.1662    2.8948 C   0  0  0  0  0  0  0  0  0  0  0  0
  -19.0937   56.1333    2.3793 C   0  0  0  0  0  0  0  0  0  0  0  0
  -18.0129   56.7278    3.0773 C   0  0  0  0  0  0  0  0  0  0  0  0
  -18.8573   55.5142    1.1444 C   0  0  0  0  0  0  0  0  0  0  0  0
  -17.5796   55.4065    0.5231 C   0  0  0  0  0  0  0  0  0  0  0  0
  -19.9464   54.9654    0.4706 C   0  0  0  0  0  0  0  0  0  0  0  0
  -19.6636   54.3636   -0.6779 O   0  0  0  0  0  0  0  0  0  0  0  0
  -20.6222   53.7123   -1.3680 C   0  0  0  0  0  0  0  0  0  0  0  0
  -21.9540   53.6918   -0.9209 C   0  0  0  0  0  0  0  0  0  0  0  0
  -22.9132   52.9895   -1.6853 C   0  0  0  0  0  0  0  0  0  0  0  0
  -22.4906   52.3718   -2.8674 C   0  0  0  0  0  0  0  0  0  0  0  0
  -21.1628   52.4395   -3.3012 C   0  0  0  0  0  0  0  0  0  0  0  0
  -20.2066   53.1143   -2.5439 C   0  0  0  0  0  0  0  0  0  0  0  0
  -18.8547   53.2005   -2.9461 C   0  0  0  0  0  0  0  0  0  0  0  0
  -17.9317   51.9421   -2.7433 C   0  0  0  0  0  0  0  0  0  0  0  0
  -18.2616   51.1824   -1.7847 O   0  0  0  0  0  0  0  0  0  0  0  0
  -16.9170   51.7914   -3.4787 O   0  0  0  0  0  0  0  0  0  0  0  0
  -19.0335   51.3655   -1.2861 H   0  0  0  0  0  0  0  0  0  0  0  0
 16 15  2  0  0  0
 16 17  1  0  0  0
 18 19  1  0  0  0
 18 17  1  0  0  0
 15 14  1  0  0  0
 19 21  2  0  0  0
 19 20  1  0  0  0
 17 12  2  0  0  0
 14 13  2  0  0  0
 12 13  1  0  0  0
 12 11  1  0  0  0
 13  2  1  0  0  0
 11 10  1  0  0  0
  2  1  2  0  0  0
  2  3  1  0  0  0
 10  3  2  0  0  0
 10  8  1  0  0  0
  9  8  1  0  0  0
  3  4  1  0  0  0
  8  6  2  0  0  0
  4  5  2  0  0  0
  6  5  1  0  0  0
  6  7  1  0  0  0
 20 22  1  0  0  0
M  END
> <minimizedAffinity>
-8.23891

$$$$
4QXO_1YE_A_401


 22 24  0  0  0  0  0  0  0  0999 V2000
  -23.7785   54.6733    0.0043 O   0  0  0  0  0  0  0  0  0  0  0  0
  -22.5344   54.5386   -0.1012 C   0  0  0  0  0  0  0  0  0  0  0  0
  -22.0073   53.8265   -1.1654 C   0  0  0  0  0  0  0  0  0  0  0  0
  -22.8242   53.2365   -2.1283 C   0  0  0  0  0  0  0  0  0  0  0  0
  -22.2431   52.5359   -3.2120 C   0  0  0  0  0  0  0  0  0  0  0  0
  -20.8513   52.4169   -3.3331 C   0  0  0  0  0  0  0  0  0  0  0  0
  -20.2660   51.7119   -4.4145 C   0  0  0  0  0  0  0  0  0  0  0  0
  -20.0239   52.9929   -2.3596 C   0  0  0  0  0  0  0  0  0  0  0  0
  -18.5999   52.9500   -2.3776 C   0  0  0  0  0  0  0  0  0  0  0  0
  -20.6321   53.6536   -1.2943 C   0  0  0  0  0  0  0  0  0  0  0  0
  -19.8040   54.2081   -0.4179 O   0  0  0  0  0  0  0  0  0  0  0  0
  -20.2783   54.9558    0.5995 C   0  0  0  0  0  0  0  0  0  0  0  0
  -21.6591   55.1303    0.7922 C   0  0  0  0  0  0  0  0  0  0  0  0
  -22.0953   55.9281    1.8743 C   0  0  0  0  0  0  0  0  0  0  0  0
  -21.1263   56.4823    2.7177 C   0  0  0  0  0  0  0  0  0  0  0  0
  -19.7600   56.2614    2.5168 C   0  0  0  0  0  0  0  0  0  0  0  0
  -19.3203   55.4914    1.4413 C   0  0  0  0  0  0  0  0  0  0  0  0
  -17.9488   55.2497    1.2022 C   0  0  0  0  0  0  0  0  0  0  0  0
  -17.1619   56.2527    0.2795 C   0  0  0  0  0  0  0  0  0  0  0  0
  -17.6905   56.4709   -0.8509 O   0  0  0  0  0  0  0  0  0  0  0  0
  -16.0589   56.7237    0.6731 O   0  0  0  0  0  0  0  0  0  0  0  0
  -18.5151   56.0812   -1.0656 H   0  0  0  0  0  0  0  0  0  0  0  0
 16 15  2  0  0  0
 16 17  1  0  0  0
 18 19  1  0  0  0
 18 17  1  0  0  0
 15 14  1  0  0  0
 19 21  2  0  0  0
 19 20  1  0  0  0
 17 12  2  0  0  0
 14 13  2  0  0  0
 12 13  1  0  0  0
 12 11  1  0  0  0
 13  2  1  0  0  0
 11 10  1  0  0  0
  2  1  2  0  0  0
  2  3  1  0  0  0
 10  3  2  0  0  0
 10  8  1  0  0  0
  9  8  1  0  0  0
  3  4  1  0  0  0
  8  6  2  0  0  0
  4  5  2  0  0  0
  6  5  1  0  0  0
  6  7  1  0  0  0
 20 22  1  0  0  0
M  END
> <minimizedAffinity>
-8.17806

$$$$
4QXO_1YE_A_401


 22 24  0  0  0  0  0  0  0  0999 V2000
  -24.0227   54.3542   -0.7422 O   0  0  0  0  0  0  0  0  0  0  0  0
  -22.7688   54.2952   -0.7070 C   0  0  0  0  0  0  0  0  0  0  0  0
  -22.0801   54.9052    0.3279 C   0  0  0  0  0  0  0  0  0  0  0  0
  -22.7417   55.6021    1.3375 C   0  0  0  0  0  0  0  0  0  0  0  0
  -22.0005   56.1923    2.3887 C   0  0  0  0  0  0  0  0  0  0  0  0
  -20.6024   56.0949    2.4311 C   0  0  0  0  0  0  0  0  0  0  0  0
  -19.8565   56.6888    3.4797 C   0  0  0  0  0  0  0  0  0  0  0  0
  -19.9289   55.4104    1.4103 C   0  0  0  0  0  0  0  0  0  0  0  0
  -18.5164   55.2341    1.3477 C   0  0  0  0  0  0  0  0  0  0  0  0
  -20.6897   54.8636    0.3792 C   0  0  0  0  0  0  0  0  0  0  0  0
  -20.0067   54.1991   -0.5446 O   0  0  0  0  0  0  0  0  0  0  0  0
  -20.6462   53.5452   -1.5359 C   0  0  0  0  0  0  0  0  0  0  0  0
  -22.0459   53.5869   -1.6505 C   0  0  0  0  0  0  0  0  0  0  0  0
  -22.6591   52.8784   -2.7088 C   0  0  0  0  0  0  0  0  0  0  0  0
  -21.8353   52.1922   -3.6075 C   0  0  0  0  0  0  0  0  0  0  0  0
  -20.4422   52.1984   -3.4837 C   0  0  0  0  0  0  0  0  0  0  0  0
  -19.8302   52.8791   -2.4324 C   0  0  0  0  0  0  0  0  0  0  0  0
  -18.4267   52.9046   -2.2707 C   0  0  0  0  0  0  0  0  0  0  0  0
  -17.8056   52.1967   -1.0099 C   0  0  0  0  0  0  0  0  0  0  0  0
  -18.5098   51.2681   -0.5134 O   0  0  0  0  0  0  0  0  0  0  0  0
  -16.7098   52.6125   -0.5414 O   0  0  0  0  0  0  0  0  0  0  0  0
  -19.3140   51.0189   -0.9247 H   0  0  0  0  0  0  0  0  0  0  0  0
 16 15  2  0  0  0
 16 17  1  0  0  0
 18 19  1  0  0  0
 18 17  1  0  0  0
 15 14  1  0  0  0
 19 21  2  0  0  0
 19 20  1  0  0  0
 17 12  2  0  0  0
 14 13  2  0  0  0
 12 13  1  0  0  0
 12 11  1  0  0  0
 13  2  1  0  0  0
 11 10  1  0  0  0
  2  1  2  0  0  0
  2  3  1  0  0  0
 10  3  2  0  0  0
 10  8  1  0  0  0
  9  8  1  0  0  0
  3  4  1  0  0  0
  8  6  2  0  0  0
  4  5  2  0  0  0
  6  5  1  0  0  0
  6  7  1  0  0  0
 20 22  1  0  0  0
M  END
> <minimizedAffinity>
-8.10068

$$$$
4QXO_1YE_A_401


 22 24  0  0  0  0  0  0  0  0999 V2000
  -18.1411   52.8214   -2.4229 O   0  0  0  0  0  0  0  0  0  0  0  0
  -19.0433   53.3452   -1.7238 C   0  0  0  0  0  0  0  0  0  0  0  0
  -18.7016   54.1610   -0.6583 C   0  0  0  0  0  0  0  0  0  0  0  0
  -17.3718   54.4122   -0.3252 C   0  0  0  0  0  0  0  0  0  0  0  0
  -17.0667   55.2698    0.7584 C   0  0  0  0  0  0  0  0  0  0  0  0
  -18.0838   55.8708    1.5136 C   0  0  0  0  0  0  0  0  0  0  0  0
  -17.7820   56.7264    2.6024 C   0  0  0  0  0  0  0  0  0  0  0  0
  -19.4234   55.6094    1.1953 C   0  0  0  0  0  0  0  0  0  0  0  0
  -20.5425   56.1668    1.8786 C   0  0  0  0  0  0  0  0  0  0  0  0
  -19.6852   54.7409    0.1378 C   0  0  0  0  0  0  0  0  0  0  0  0
  -20.9687   54.5523   -0.1425 O   0  0  0  0  0  0  0  0  0  0  0  0
  -21.3391   53.8101   -1.2061 C   0  0  0  0  0  0  0  0  0  0  0  0
  -20.3845   53.1755   -2.0185 C   0  0  0  0  0  0  0  0  0  0  0  0
  -20.8340   52.4140   -3.1211 C   0  0  0  0  0  0  0  0  0  0  0  0
  -22.2131   52.3081   -3.3312 C   0  0  0  0  0  0  0  0  0  0  0  0
  -23.1380   52.9258   -2.4832 C   0  0  0  0  0  0  0  0  0  0  0  0
  -22.7030   53.6939   -1.4045 C   0  0  0  0  0  0  0  0  0  0  0  0
  -23.6062   54.3374   -0.5287 C   0  0  0  0  0  0  0  0  0  0  0  0
  -23.8943   53.6742    0.8690 C   0  0  0  0  0  0  0  0  0  0  0  0
  -23.9640   54.4814    1.8429 O   0  0  0  0  0  0  0  0  0  0  0  0
  -23.9792   52.4177    0.9544 O   0  0  0  0  0  0  0  0  0  0  0  0
  -23.8912   55.4035    1.6933 H   0  0  0  0  0  0  0  0  0  0  0  0
 16 15  2  0  0  0
 16 17  1  0  0  0
 18 19  1  0  0  0
 18 17  1  0  0  0
 15 14  1  0  0  0
 19 21  2  0  0  0
 19 20  1  0  0  0
 17 12  2  0  0  0
 14 13  2  0  0  0
 12 13  1  0  0  0
 12 11  1  0  0  0
 13  2  1  0  0  0
 11 10  1  0  0  0
  2  1  2  0  0  0
  2  3  1  0  0  0
 10  3  2  0  0  0
 10  8  1  0  0  0
  9  8  1  0  0  0
  3  4  1  0  0  0
  8  6  2  0  0  0
  4  5  2  0  0  0
  6  5  1  0  0  0
  6  7  1  0  0  0
 20 22  1  0  0  0
M  END
> <minimizedAffinity>
-7.99399

$$$$
4QXO_1YE_A_401


 22 24  0  0  0  0  0  0  0  0999 V2000
  -16.8569   52.1317   -3.4405 O   0  0  0  0  0  0  0  0  0  0  0  0
  -18.0544   52.3193   -3.1125 C   0  0  0  0  0  0  0  0  0  0  0  0
  -18.3529   52.8294   -1.8602 C   0  0  0  0  0  0  0  0  0  0  0  0
  -17.3547   53.1331   -0.9361 C   0  0  0  0  0  0  0  0  0  0  0  0
  -17.7026   53.6733    0.3249 C   0  0  0  0  0  0  0  0  0  0  0  0
  -19.0423   53.9042    0.6680 C   0  0  0  0  0  0  0  0  0  0  0  0
  -19.3947   54.4406    1.9317 C   0  0  0  0  0  0  0  0  0  0  0  0
  -20.0526   53.5853   -0.2495 C   0  0  0  0  0  0  0  0  0  0  0  0
  -21.4453   53.7831   -0.0228 C   0  0  0  0  0  0  0  0  0  0  0  0
  -19.6738   53.0325   -1.4710 C   0  0  0  0  0  0  0  0  0  0  0  0
  -20.6657   52.7786   -2.3155 O   0  0  0  0  0  0  0  0  0  0  0  0
  -20.4106   52.3345   -3.5633 C   0  0  0  0  0  0  0  0  0  0  0  0
  -19.0966   52.0806   -3.9908 C   0  0  0  0  0  0  0  0  0  0  0  0
  -18.8923   51.6196   -5.3112 C   0  0  0  0  0  0  0  0  0  0  0  0
  -20.0159   51.4126   -6.1187 C   0  0  0  0  0  0  0  0  0  0  0  0
  -21.3134   51.6438   -5.6507 C   0  0  0  0  0  0  0  0  0  0  0  0
  -21.5228   52.1162   -4.3561 C   0  0  0  0  0  0  0  0  0  0  0  0
  -22.8177   52.3665   -3.8487 C   0  0  0  0  0  0  0  0  0  0  0  0
  -23.4647   51.3000   -2.8893 C   0  0  0  0  0  0  0  0  0  0  0  0
  -23.0656   51.3455   -1.6878 O   0  0  0  0  0  0  0  0  0  0  0  0
  -24.2713   50.4504   -3.3593 O   0  0  0  0  0  0  0  0  0  0  0  0
  -22.4637   52.0113   -1.4190 H   0  0  0  0  0  0  0  0  0  0  0  0
 16 15  2  0  0  0
 16 17  1  0  0  0
 18 19  1  0  0  0
 18 17  1  0  0  0
 15 14  1  0  0  0
 19 21  2  0  0  0
 19 20  1  0  0  0
 17 12  2  0  0  0
 14 13  2  0  0  0
 12 13  1  0  0  0
 12 11  1  0  0  0
 13  2  1  0  0  0
 11 10  1  0  0  0
  2  1  2  0  0  0
  2  3  1  0  0  0
 10  3  2  0  0  0
 10  8  1  0  0  0
  9  8  1  0  0  0
  3  4  1  0  0  0
  8  6  2  0  0  0
  4  5  2  0  0  0
  6  5  1  0  0  0
  6  7  1  0  0  0
 20 22  1  0  0  0
M  END
> <minimizedAffinity>
-7.93715

$$$$
4QXO_1YE_A_401


 22 24  0  0  0  0  0  0  0  0999 V2000
  -24.0829   54.5080   -0.8946 O   0  0  0  0  0  0  0  0  0  0  0  0
  -22.8934   54.1662   -1.1071 C   0  0  0  0  0  0  0  0  0  0  0  0
  -21.9051   54.5155   -0.2024 C   0  0  0  0  0  0  0  0  0  0  0  0
  -22.1899   55.2544    0.9445 C   0  0  0  0  0  0  0  0  0  0  0  0
  -21.1532   55.5713    1.8542 C   0  0  0  0  0  0  0  0  0  0  0  0
  -19.8338   55.1593    1.6191 C   0  0  0  0  0  0  0  0  0  0  0  0
  -18.7921   55.4789    2.5255 C   0  0  0  0  0  0  0  0  0  0  0  0
  -19.5366   54.4306    0.4594 C   0  0  0  0  0  0  0  0  0  0  0  0
  -18.2410   53.9476    0.1153 C   0  0  0  0  0  0  0  0  0  0  0  0
  -20.5782   54.1585   -0.4250 C   0  0  0  0  0  0  0  0  0  0  0  0
  -20.2498   53.4388   -1.4907 O   0  0  0  0  0  0  0  0  0  0  0  0
  -21.1937   53.0322   -2.3641 C   0  0  0  0  0  0  0  0  0  0  0  0
  -22.5408   53.3967   -2.2017 C   0  0  0  0  0  0  0  0  0  0  0  0
  -23.4845   52.9369   -3.1481 C   0  0  0  0  0  0  0  0  0  0  0  0
  -23.0224   52.1623   -4.2176 C   0  0  0  0  0  0  0  0  0  0  0  0
  -21.6686   51.8451   -4.3678 C   0  0  0  0  0  0  0  0  0  0  0  0
  -20.7338   52.2788   -3.4291 C   0  0  0  0  0  0  0  0  0  0  0  0
  -19.3587   51.9746   -3.5434 C   0  0  0  0  0  0  0  0  0  0  0  0
  -18.5975   52.4276   -4.8441 C   0  0  0  0  0  0  0  0  0  0  0  0
  -17.9683   53.5227   -4.7450 O   0  0  0  0  0  0  0  0  0  0  0  0
  -18.6969   51.7350   -5.8947 O   0  0  0  0  0  0  0  0  0  0  0  0
  -17.9432   53.9760   -3.9253 H   0  0  0  0  0  0  0  0  0  0  0  0
 16 15  2  0  0  0
 16 17  1  0  0  0
 18 19  1  0  0  0
 18 17  1  0  0  0
 15 14  1  0  0  0
 19 21  2  0  0  0
 19 20  1  0  0  0
 17 12  2  0  0  0
 14 13  2  0  0  0
 12 13  1  0  0  0
 12 11  1  0  0  0
 13  2  1  0  0  0
 11 10  1  0  0  0
  2  1  2  0  0  0
  2  3  1  0  0  0
 10  3  2  0  0  0
 10  8  1  0  0  0
  9  8  1  0  0  0
  3  4  1  0  0  0
  8  6  2  0  0  0
  4  5  2  0  0  0
  6  5  1  0  0  0
  6  7  1  0  0  0
 20 22  1  0  0  0
M  END
> <minimizedAffinity>
-7.78590

$$$$
