4N9A_2J2_A_404


 19 21  0  0  0  0  0  0  0  0999 V2000
    9.6114   -4.1514   -9.9963 C   0  0  0  0  0  0  0  0  0  0  0  0
    9.6862   -5.3837  -10.8089 C   0  0  0  0  0  0  0  0  0  0  0  0
    8.9879   -5.5613  -12.1253 C   0  0  0  0  0  0  0  0  0  0  0  0
    7.8722   -4.5202  -12.2334 C   0  0  0  0  0  0  0  0  0  0  0  0
    8.3015   -3.1004  -11.8331 C   0  0  0  0  0  0  0  0  0  0  0  0
    8.8368   -2.9574  -10.4025 C   0  0  0  0  0  0  0  0  0  0  0  0
   10.5514   -6.2794  -10.0260 C   0  0  0  0  0  0  0  0  0  0  0  0
   11.0129   -7.5708  -10.2197 C   0  0  0  0  0  0  0  0  0  0  0  0
   10.3423   -4.2939   -8.8640 N   0  0  0  0  0  0  0  0  0  0  0  0
   10.9183   -5.5089   -8.8134 C   0  0  0  0  0  0  0  0  0  0  0  0
   11.7510   -6.1172   -7.8786 C   0  0  0  0  0  0  0  0  0  0  0  0
   12.1952   -7.4177   -8.0976 C   0  0  0  0  0  0  0  0  0  0  0  0
   11.8324   -8.1314   -9.2375 C   0  0  0  0  0  0  0  0  0  0  0  0
   12.4821   -9.7873   -9.3873 Cl  0  0  0  0  0  0  0  0  0  0  0  0
   10.4388   -3.6012   -8.1712 H   0  0  0  0  0  0  0  0  0  0  0  0
    7.7103   -2.7614   -9.4314 C   0  0  0  0  0  0  0  0  0  0  0  0
    7.7458   -3.2324   -8.3084 O   0  0  0  0  0  0  0  0  0  0  0  0
    6.6417   -2.0626   -9.7874 O   0  0  0  0  0  0  0  0  0  0  0  0
    8.4901   -3.7304   -8.0326 H   0  0  0  0  0  0  0  0  0  0  0  0
 11 10  2  0  0  0
 11 12  1  0  0  0
  9 10  1  0  0  0
  9  1  1  0  0  0
 18 16  2  0  0  0
 10  7  1  0  0  0
 12 13  2  0  0  0
 16 17  1  0  0  0
 16  6  1  0  0  0
  6  1  1  0  0  0
  6  5  1  0  0  0
  1  2  2  0  0  0
 13  8  1  0  0  0
 13 14  1  0  0  0
  7  2  1  0  0  0
  7  8  2  0  0  0
  5  4  1  0  0  0
  2  3  1  0  0  0
  4  3  1  0  0  0
 17 19  1  0  0  0
  9 15  1  0  0  0
M  END
> <minimizedAffinity>
-6.75432

$$$$
4N9A_2J2_A_404


 19 21  0  0  0  0  0  0  0  0999 V2000
   11.0902   -6.3277  -10.6194 C   0  0  0  0  0  0  0  0  0  0  0  0
   10.6925   -5.5027   -9.4593 C   0  0  0  0  0  0  0  0  0  0  0  0
   11.2238   -5.7015   -8.0700 C   0  0  0  0  0  0  0  0  0  0  0  0
   11.8186   -7.1073   -7.9685 C   0  0  0  0  0  0  0  0  0  0  0  0
   12.7276   -7.4879   -9.1473 C   0  0  0  0  0  0  0  0  0  0  0  0
   12.0623   -7.4401  -10.5288 C   0  0  0  0  0  0  0  0  0  0  0  0
    9.7288   -4.5404  -10.0152 C   0  0  0  0  0  0  0  0  0  0  0  0
    8.9878   -3.5066   -9.4672 C   0  0  0  0  0  0  0  0  0  0  0  0
   10.4416   -5.9098  -11.7335 N   0  0  0  0  0  0  0  0  0  0  0  0
    9.6310   -4.8719  -11.4572 C   0  0  0  0  0  0  0  0  0  0  0  0
    8.7803   -4.1058  -12.2486 C   0  0  0  0  0  0  0  0  0  0  0  0
    8.0443   -3.0765  -11.6694 C   0  0  0  0  0  0  0  0  0  0  0  0
    8.1401   -2.7849  -10.3106 C   0  0  0  0  0  0  0  0  0  0  0  0
    7.1414   -1.4336   -9.7082 Cl  0  0  0  0  0  0  0  0  0  0  0  0
   10.5491   -6.3119  -12.6257 H   0  0  0  0  0  0  0  0  0  0  0  0
   11.3487   -8.7274  -10.8191 C   0  0  0  0  0  0  0  0  0  0  0  0
   10.4766   -8.7972  -11.6668 O   0  0  0  0  0  0  0  0  0  0  0  0
   11.6611   -9.8254  -10.1454 O   0  0  0  0  0  0  0  0  0  0  0  0
   10.2373   -8.0351  -12.1567 H   0  0  0  0  0  0  0  0  0  0  0  0
 11 10  2  0  0  0
 11 12  1  0  0  0
  9 10  1  0  0  0
  9  1  1  0  0  0
 18 16  2  0  0  0
 10  7  1  0  0  0
 12 13  2  0  0  0
 16 17  1  0  0  0
 16  6  1  0  0  0
  6  1  1  0  0  0
  6  5  1  0  0  0
  1  2  2  0  0  0
 13  8  1  0  0  0
 13 14  1  0  0  0
  7  2  1  0  0  0
  7  8  2  0  0  0
  5  4  1  0  0  0
  2  3  1  0  0  0
  4  3  1  0  0  0
 17 19  1  0  0  0
  9 15  1  0  0  0
M  END
> <minimizedAffinity>
-5.94949

$$$$
4N9A_2J2_A_404


 19 21  0  0  0  0  0  0  0  0999 V2000
    9.3696   -5.0417  -11.4416 C   0  0  0  0  0  0  0  0  0  0  0  0
    9.8781   -4.9105  -10.0600 C   0  0  0  0  0  0  0  0  0  0  0  0
    9.4341   -3.8431   -9.1030 C   0  0  0  0  0  0  0  0  0  0  0  0
    8.7907   -2.7065   -9.8996 C   0  0  0  0  0  0  0  0  0  0  0  0
    7.7894   -3.1789  -10.9649 C   0  0  0  0  0  0  0  0  0  0  0  0
    8.3612   -4.1289  -12.0252 C   0  0  0  0  0  0  0  0  0  0  0  0
   10.8405   -6.0146   -9.9241 C   0  0  0  0  0  0  0  0  0  0  0  0
   11.6585   -6.4466   -8.8933 C   0  0  0  0  0  0  0  0  0  0  0  0
    9.9580   -6.0958  -12.0573 N   0  0  0  0  0  0  0  0  0  0  0  0
   10.8270   -6.7099  -11.2337 C   0  0  0  0  0  0  0  0  0  0  0  0
   11.6529   -7.8185  -11.3945 C   0  0  0  0  0  0  0  0  0  0  0  0
   12.4678   -8.2266  -10.3428 C   0  0  0  0  0  0  0  0  0  0  0  0
   12.4759   -7.5556   -9.1221 C   0  0  0  0  0  0  0  0  0  0  0  0
   13.5674   -8.1954   -7.8628 Cl  0  0  0  0  0  0  0  0  0  0  0  0
    9.7741   -6.3750  -12.9833 H   0  0  0  0  0  0  0  0  0  0  0  0
    9.0004   -3.3560  -13.1408 C   0  0  0  0  0  0  0  0  0  0  0  0
    8.5094   -2.3259  -13.5674 O   0  0  0  0  0  0  0  0  0  0  0  0
   10.1266   -3.7905  -13.6885 O   0  0  0  0  0  0  0  0  0  0  0  0
    7.7137   -1.9978  -13.1971 H   0  0  0  0  0  0  0  0  0  0  0  0
 11 10  2  0  0  0
 11 12  1  0  0  0
  9 10  1  0  0  0
  9  1  1  0  0  0
 18 16  2  0  0  0
 10  7  1  0  0  0
 12 13  2  0  0  0
 16 17  1  0  0  0
 16  6  1  0  0  0
  6  1  1  0  0  0
  6  5  1  0  0  0
  1  2  2  0  0  0
 13  8  1  0  0  0
 13 14  1  0  0  0
  7  2  1  0  0  0
  7  8  2  0  0  0
  5  4  1  0  0  0
  2  3  1  0  0  0
  4  3  1  0  0  0
 17 19  1  0  0  0
  9 15  1  0  0  0
M  END
> <minimizedAffinity>
-5.40876

$$$$
4N9A_2J2_A_404


 19 21  0  0  0  0  0  0  0  0999 V2000
   13.8600   -8.3500  -10.2656 C   0  0  0  0  0  0  0  0  0  0  0  0
   13.4100   -7.2595  -11.1562 C   0  0  0  0  0  0  0  0  0  0  0  0
   13.8985   -7.0729  -12.5628 C   0  0  0  0  0  0  0  0  0  0  0  0
   15.2081   -7.8449  -12.7340 C   0  0  0  0  0  0  0  0  0  0  0  0
   15.1698   -9.2734  -12.1698 C   0  0  0  0  0  0  0  0  0  0  0  0
   14.8431   -9.3780  -10.6745 C   0  0  0  0  0  0  0  0  0  0  0  0
   12.4505   -6.5004  -10.3395 C   0  0  0  0  0  0  0  0  0  0  0  0
   11.6811   -5.3725  -10.5724 C   0  0  0  0  0  0  0  0  0  0  0  0
   13.2449   -8.2533   -9.0619 N   0  0  0  0  0  0  0  0  0  0  0  0
   12.4095   -7.1989   -9.0322 C   0  0  0  0  0  0  0  0  0  0  0  0
   11.5653   -6.6948   -8.0471 C   0  0  0  0  0  0  0  0  0  0  0  0
   10.8077   -5.5569   -8.3078 C   0  0  0  0  0  0  0  0  0  0  0  0
   10.8660   -4.9066   -9.5384 C   0  0  0  0  0  0  0  0  0  0  0  0
    9.8343   -3.4628   -9.7318 Cl  0  0  0  0  0  0  0  0  0  0  0  0
   13.3899   -8.8718   -8.3099 H   0  0  0  0  0  0  0  0  0  0  0  0
   16.0838   -9.2130   -9.8474 C   0  0  0  0  0  0  0  0  0  0  0  0
   16.4334   -8.1229   -9.4307 O   0  0  0  0  0  0  0  0  0  0  0  0
   16.8307  -10.2681   -9.5542 O   0  0  0  0  0  0  0  0  0  0  0  0
   15.9227   -7.3615   -9.6242 H   0  0  0  0  0  0  0  0  0  0  0  0
 11 10  2  0  0  0
 11 12  1  0  0  0
  9 10  1  0  0  0
  9  1  1  0  0  0
 18 16  2  0  0  0
 10  7  1  0  0  0
 12 13  2  0  0  0
 16 17  1  0  0  0
 16  6  1  0  0  0
  6  1  1  0  0  0
  6  5  1  0  0  0
  1  2  2  0  0  0
 13  8  1  0  0  0
 13 14  1  0  0  0
  7  2  1  0  0  0
  7  8  2  0  0  0
  5  4  1  0  0  0
  2  3  1  0  0  0
  4  3  1  0  0  0
 17 19  1  0  0  0
  9 15  1  0  0  0
M  END
> <minimizedAffinity>
-5.11828

$$$$
4N9A_2J2_A_404


 19 21  0  0  0  0  0  0  0  0999 V2000
   10.3297   -5.9046  -10.6572 C   0  0  0  0  0  0  0  0  0  0  0  0
   11.0161   -5.6298  -11.9371 C   0  0  0  0  0  0  0  0  0  0  0  0
   12.2641   -6.3327  -12.3848 C   0  0  0  0  0  0  0  0  0  0  0  0
   12.9306   -6.9734  -11.1659 C   0  0  0  0  0  0  0  0  0  0  0  0
   11.9605   -7.7411  -10.2547 C   0  0  0  0  0  0  0  0  0  0  0  0
   10.8053   -6.9104   -9.6811 C   0  0  0  0  0  0  0  0  0  0  0  0
   10.2000   -4.5794  -12.5651 C   0  0  0  0  0  0  0  0  0  0  0  0
   10.2939   -3.8832  -13.7587 C   0  0  0  0  0  0  0  0  0  0  0  0
    9.2365   -5.1131  -10.5346 N   0  0  0  0  0  0  0  0  0  0  0  0
    9.0982   -4.3146  -11.6088 C   0  0  0  0  0  0  0  0  0  0  0  0
    8.1521   -3.3527  -11.9505 C   0  0  0  0  0  0  0  0  0  0  0  0
    8.2748   -2.6654  -13.1543 C   0  0  0  0  0  0  0  0  0  0  0  0
    9.3223   -2.9192  -14.0369 C   0  0  0  0  0  0  0  0  0  0  0  0
    9.3485   -1.9654  -15.5455 Cl  0  0  0  0  0  0  0  0  0  0  0  0
    8.6254   -5.1213   -9.7629 H   0  0  0  0  0  0  0  0  0  0  0  0
   11.2315   -6.2020   -8.4293 C   0  0  0  0  0  0  0  0  0  0  0  0
   11.9289   -6.7475   -7.5926 O   0  0  0  0  0  0  0  0  0  0  0  0
   10.8481   -4.9520   -8.2113 O   0  0  0  0  0  0  0  0  0  0  0  0
   12.2131   -7.6307   -7.7232 H   0  0  0  0  0  0  0  0  0  0  0  0
 11 10  2  0  0  0
 11 12  1  0  0  0
  9 10  1  0  0  0
  9  1  1  0  0  0
 18 16  2  0  0  0
 10  7  1  0  0  0
 12 13  2  0  0  0
 16 17  1  0  0  0
 16  6  1  0  0  0
  6  1  1  0  0  0
  6  5  1  0  0  0
  1  2  2  0  0  0
 13  8  1  0  0  0
 13 14  1  0  0  0
  7  2  1  0  0  0
  7  8  2  0  0  0
  5  4  1  0  0  0
  2  3  1  0  0  0
  4  3  1  0  0  0
 17 19  1  0  0  0
  9 15  1  0  0  0
M  END
> <minimizedAffinity>
-4.97528

$$$$
4N9A_2J2_A_404


 19 21  0  0  0  0  0  0  0  0999 V2000
   12.2683   -6.6868  -10.3717 C   0  0  0  0  0  0  0  0  0  0  0  0
   13.6327   -7.2015  -10.6127 C   0  0  0  0  0  0  0  0  0  0  0  0
   14.3236   -8.1901   -9.7198 C   0  0  0  0  0  0  0  0  0  0  0  0
   13.6258   -8.1932   -8.3584 C   0  0  0  0  0  0  0  0  0  0  0  0
   12.0927   -8.2489   -8.4421 C   0  0  0  0  0  0  0  0  0  0  0  0
   11.4374   -7.0992   -9.2184 C   0  0  0  0  0  0  0  0  0  0  0  0
   14.0585   -6.5278  -11.8490 C   0  0  0  0  0  0  0  0  0  0  0  0
   15.2185   -6.5639  -12.6050 C   0  0  0  0  0  0  0  0  0  0  0  0
   11.9213   -5.8104  -11.3454 N   0  0  0  0  0  0  0  0  0  0  0  0
   12.9157   -5.6680  -12.2407 C   0  0  0  0  0  0  0  0  0  0  0  0
   13.0374   -4.9051  -13.3984 C   0  0  0  0  0  0  0  0  0  0  0  0
   14.2168   -4.9578  -14.1352 C   0  0  0  0  0  0  0  0  0  0  0  0
   15.2851   -5.7632  -13.7474 C   0  0  0  0  0  0  0  0  0  0  0  0
   16.7319   -5.7341  -14.7926 Cl  0  0  0  0  0  0  0  0  0  0  0  0
   11.0573   -5.3408  -11.3916 H   0  0  0  0  0  0  0  0  0  0  0  0
   11.2260   -5.9104   -8.3281 C   0  0  0  0  0  0  0  0  0  0  0  0
   11.1698   -4.7789   -8.7761 O   0  0  0  0  0  0  0  0  0  0  0  0
   11.0965   -6.0764   -7.0194 O   0  0  0  0  0  0  0  0  0  0  0  0
   11.2585   -4.6350   -9.6977 H   0  0  0  0  0  0  0  0  0  0  0  0
 11 10  2  0  0  0
 11 12  1  0  0  0
  9 10  1  0  0  0
  9  1  1  0  0  0
 18 16  2  0  0  0
 10  7  1  0  0  0
 12 13  2  0  0  0
 16 17  1  0  0  0
 16  6  1  0  0  0
  6  1  1  0  0  0
  6  5  1  0  0  0
  1  2  2  0  0  0
 13  8  1  0  0  0
 13 14  1  0  0  0
  7  2  1  0  0  0
  7  8  2  0  0  0
  5  4  1  0  0  0
  2  3  1  0  0  0
  4  3  1  0  0  0
 17 19  1  0  0  0
  9 15  1  0  0  0
M  END
> <minimizedAffinity>
-4.93019

$$$$
4N9A_2J2_A_404


 19 21  0  0  0  0  0  0  0  0999 V2000
   10.5025   -4.8751  -12.0412 C   0  0  0  0  0  0  0  0  0  0  0  0
   11.4565   -6.0020  -12.1101 C   0  0  0  0  0  0  0  0  0  0  0  0
   11.9861   -6.5724  -13.3932 C   0  0  0  0  0  0  0  0  0  0  0  0
   11.0610   -6.1510  -14.5364 C   0  0  0  0  0  0  0  0  0  0  0  0
   10.6787   -4.6630  -14.5147 C   0  0  0  0  0  0  0  0  0  0  0  0
    9.9709   -4.1877  -13.2393 C   0  0  0  0  0  0  0  0  0  0  0  0
   11.6997   -6.3545  -10.7029 C   0  0  0  0  0  0  0  0  0  0  0  0
   12.4804   -7.3143  -10.0803 C   0  0  0  0  0  0  0  0  0  0  0  0
   10.2101   -4.5897  -10.7492 N   0  0  0  0  0  0  0  0  0  0  0  0
   10.8711   -5.4115   -9.9136 C   0  0  0  0  0  0  0  0  0  0  0  0
   10.9090   -5.5107   -8.5259 C   0  0  0  0  0  0  0  0  0  0  0  0
   11.6988   -6.4883   -7.9282 C   0  0  0  0  0  0  0  0  0  0  0  0
   12.4634   -7.3733   -8.6850 C   0  0  0  0  0  0  0  0  0  0  0  0
   13.4319   -8.5706   -7.7823 Cl  0  0  0  0  0  0  0  0  0  0  0  0
    9.5960   -3.8763  -10.4604 H   0  0  0  0  0  0  0  0  0  0  0  0
    8.4950   -4.4424  -13.3249 C   0  0  0  0  0  0  0  0  0  0  0  0
    7.9228   -4.5278  -14.3970 O   0  0  0  0  0  0  0  0  0  0  0  0
    7.7802   -4.5793  -12.2171 O   0  0  0  0  0  0  0  0  0  0  0  0
    8.4056   -4.4347  -15.1946 H   0  0  0  0  0  0  0  0  0  0  0  0
 11 10  2  0  0  0
 11 12  1  0  0  0
  9 10  1  0  0  0
  9  1  1  0  0  0
 18 16  2  0  0  0
 10  7  1  0  0  0
 12 13  2  0  0  0
 16 17  1  0  0  0
 16  6  1  0  0  0
  6  1  1  0  0  0
  6  5  1  0  0  0
  1  2  2  0  0  0
 13  8  1  0  0  0
 13 14  1  0  0  0
  7  2  1  0  0  0
  7  8  2  0  0  0
  5  4  1  0  0  0
  2  3  1  0  0  0
  4  3  1  0  0  0
 17 19  1  0  0  0
  9 15  1  0  0  0
M  END
> <minimizedAffinity>
-4.86008

$$$$
4N9A_2J2_A_404


 19 21  0  0  0  0  0  0  0  0999 V2000
   10.8894   -5.6144  -10.9803 C   0  0  0  0  0  0  0  0  0  0  0  0
   12.1073   -6.0533  -11.6937 C   0  0  0  0  0  0  0  0  0  0  0  0
   12.4146   -5.7001  -13.1194 C   0  0  0  0  0  0  0  0  0  0  0  0
   11.1198   -5.2627  -13.8067 C   0  0  0  0  0  0  0  0  0  0  0  0
   10.2803   -4.2720  -12.9856 C   0  0  0  0  0  0  0  0  0  0  0  0
    9.8429   -4.7735  -11.6032 C   0  0  0  0  0  0  0  0  0  0  0  0
   12.8406   -6.8498  -10.6979 C   0  0  0  0  0  0  0  0  0  0  0  0
   14.0409   -7.5403  -10.7239 C   0  0  0  0  0  0  0  0  0  0  0  0
   10.8938   -6.0921   -9.7121 N   0  0  0  0  0  0  0  0  0  0  0  0
   12.0000   -6.8210   -9.4766 C   0  0  0  0  0  0  0  0  0  0  0  0
   12.4579   -7.4994   -8.3509 C   0  0  0  0  0  0  0  0  0  0  0  0
   13.6654   -8.1888   -8.4080 C   0  0  0  0  0  0  0  0  0  0  0  0
   14.4380   -8.2143   -9.5668 C   0  0  0  0  0  0  0  0  0  0  0  0
   15.9660   -9.1341   -9.4917 Cl  0  0  0  0  0  0  0  0  0  0  0  0
   10.1827   -5.9277   -9.0514 H   0  0  0  0  0  0  0  0  0  0  0  0
    8.5789   -5.5751  -11.7050 C   0  0  0  0  0  0  0  0  0  0  0  0
    8.5109   -6.7166  -11.2849 O   0  0  0  0  0  0  0  0  0  0  0  0
    7.5003   -5.0447  -12.2638 O   0  0  0  0  0  0  0  0  0  0  0  0
    9.2595   -7.1142  -10.8856 H   0  0  0  0  0  0  0  0  0  0  0  0
 11 10  2  0  0  0
 11 12  1  0  0  0
  9 10  1  0  0  0
  9  1  1  0  0  0
 18 16  2  0  0  0
 10  7  1  0  0  0
 12 13  2  0  0  0
 16 17  1  0  0  0
 16  6  1  0  0  0
  6  1  1  0  0  0
  6  5  1  0  0  0
  1  2  2  0  0  0
 13  8  1  0  0  0
 13 14  1  0  0  0
  7  2  1  0  0  0
  7  8  2  0  0  0
  5  4  1  0  0  0
  2  3  1  0  0  0
  4  3  1  0  0  0
 17 19  1  0  0  0
  9 15  1  0  0  0
M  END
> <minimizedAffinity>
-4.81092

$$$$
4N9A_2J2_A_404


 19 21  0  0  0  0  0  0  0  0999 V2000
   12.5353   -5.0548  -12.3598 C   0  0  0  0  0  0  0  0  0  0  0  0
   11.3087   -4.5185  -12.9862 C   0  0  0  0  0  0  0  0  0  0  0  0
   11.1195   -4.3767  -14.4681 C   0  0  0  0  0  0  0  0  0  0  0  0
   12.4918   -4.4112  -15.1435 C   0  0  0  0  0  0  0  0  0  0  0  0
   13.4079   -5.5372  -14.6401 C   0  0  0  0  0  0  0  0  0  0  0  0
   13.7093   -5.5126  -13.1361 C   0  0  0  0  0  0  0  0  0  0  0  0
   10.4321   -4.2017  -11.8482 C   0  0  0  0  0  0  0  0  0  0  0  0
    9.1569   -3.6712  -11.7441 C   0  0  0  0  0  0  0  0  0  0  0  0
   12.4077   -5.0569  -11.0106 N   0  0  0  0  0  0  0  0  0  0  0  0
   11.2079   -4.5731  -10.6404 C   0  0  0  0  0  0  0  0  0  0  0  0
   10.6127   -4.3840   -9.3966 C   0  0  0  0  0  0  0  0  0  0  0  0
    9.3321   -3.8444   -9.3225 C   0  0  0  0  0  0  0  0  0  0  0  0
    8.6210   -3.4911  -10.4670 C   0  0  0  0  0  0  0  0  0  0  0  0
    6.9872   -2.8160  -10.2193 Cl  0  0  0  0  0  0  0  0  0  0  0  0
   13.1002   -5.3704  -10.3850 H   0  0  0  0  0  0  0  0  0  0  0  0
   14.8654   -4.6031  -12.8413 C   0  0  0  0  0  0  0  0  0  0  0  0
   14.6965   -3.4516  -12.4812 O   0  0  0  0  0  0  0  0  0  0  0  0
   16.1078   -5.0461  -12.9718 O   0  0  0  0  0  0  0  0  0  0  0  0
   13.8280   -3.1145  -12.3814 H   0  0  0  0  0  0  0  0  0  0  0  0
 11 10  2  0  0  0
 11 12  1  0  0  0
  9 10  1  0  0  0
  9  1  1  0  0  0
 18 16  2  0  0  0
 10  7  1  0  0  0
 12 13  2  0  0  0
 16 17  1  0  0  0
 16  6  1  0  0  0
  6  1  1  0  0  0
  6  5  1  0  0  0
  1  2  2  0  0  0
 13  8  1  0  0  0
 13 14  1  0  0  0
  7  2  1  0  0  0
  7  8  2  0  0  0
  5  4  1  0  0  0
  2  3  1  0  0  0
  4  3  1  0  0  0
 17 19  1  0  0  0
  9 15  1  0  0  0
M  END
> <minimizedAffinity>
-4.80236

$$$$
4N9A_2J2_A_404


 19 21  0  0  0  0  0  0  0  0999 V2000
    9.6541   -5.8062  -10.8611 C   0  0  0  0  0  0  0  0  0  0  0  0
   10.7187   -6.0482   -9.8647 C   0  0  0  0  0  0  0  0  0  0  0  0
   11.1552   -5.0375   -8.8448 C   0  0  0  0  0  0  0  0  0  0  0  0
   10.6943   -3.6513   -9.2991 C   0  0  0  0  0  0  0  0  0  0  0  0
    9.2357   -3.6041   -9.7795 C   0  0  0  0  0  0  0  0  0  0  0  0
    8.9027   -4.5344  -10.9531 C   0  0  0  0  0  0  0  0  0  0  0  0
   11.1688   -7.4203  -10.1447 C   0  0  0  0  0  0  0  0  0  0  0  0
   12.1318   -8.2424   -9.5832 C   0  0  0  0  0  0  0  0  0  0  0  0
    9.4890   -6.9009  -11.6428 N   0  0  0  0  0  0  0  0  0  0  0  0
   10.3381   -7.8809  -11.2833 C   0  0  0  0  0  0  0  0  0  0  0  0
   10.5458   -9.1698  -11.7657 C   0  0  0  0  0  0  0  0  0  0  0  0
   11.5239   -9.9715  -11.1850 C   0  0  0  0  0  0  0  0  0  0  0  0
   12.3029   -9.5194  -10.1223 C   0  0  0  0  0  0  0  0  0  0  0  0
   13.5145  -10.6591   -9.4746 Cl  0  0  0  0  0  0  0  0  0  0  0  0
    8.8353   -6.9698  -12.3756 H   0  0  0  0  0  0  0  0  0  0  0  0
    9.2291   -3.8763  -12.2611 C   0  0  0  0  0  0  0  0  0  0  0  0
    8.5847   -2.9306  -12.6787 O   0  0  0  0  0  0  0  0  0  0  0  0
   10.2394   -4.3224  -12.9941 O   0  0  0  0  0  0  0  0  0  0  0  0
    7.8657   -2.5966  -12.1793 H   0  0  0  0  0  0  0  0  0  0  0  0
 11 10  2  0  0  0
 11 12  1  0  0  0
  9 10  1  0  0  0
  9  1  1  0  0  0
 18 16  2  0  0  0
 10  7  1  0  0  0
 12 13  2  0  0  0
 16 17  1  0  0  0
 16  6  1  0  0  0
  6  1  1  0  0  0
  6  5  1  0  0  0
  1  2  2  0  0  0
 13  8  1  0  0  0
 13 14  1  0  0  0
  7  2  1  0  0  0
  7  8  2  0  0  0
  5  4  1  0  0  0
  2  3  1  0  0  0
  4  3  1  0  0  0
 17 19  1  0  0  0
  9 15  1  0  0  0
M  END
> <minimizedAffinity>
-4.69871

$$$$
