2UWO_701_A_1245


 30 32  0  0  0  0  0  0  0  0999 V2000
    5.5687    6.8592   22.6962 C   0  0  0  0  0  0  0  0  0  0  0  0
    4.3172    6.5229   21.8673 C   0  0  0  0  0  0  0  0  0  0  0  0
    4.7106    5.2519   21.1102 C   0  0  0  0  0  0  0  0  0  0  0  0
    6.7064    6.2319   21.8907 C   0  0  0  0  0  0  0  0  0  0  0  0
    7.9030    6.5383   21.9465 O   0  0  0  0  0  0  0  0  0  0  0  0
    6.1798    5.2525   21.1281 N   0  0  0  0  0  0  0  0  0  0  0  0
    5.7230    8.2654   23.0332 N   0  0  0  0  0  0  0  0  0  0  0  0
    6.5950    8.5936   22.6181 H   0  0  0  0  0  0  0  0  0  0  0  0
    5.7687    8.6291   24.7228 S   0  0  0  0  0  0  0  0  0  0  0  0
    4.7960    7.7622   25.3263 O   0  0  0  0  0  0  0  0  0  0  0  0
    5.6029   10.0281   24.7562 O   0  0  0  0  0  0  0  0  0  0  0  0
    8.5057    8.7055   24.9790 C   0  0  0  0  0  0  0  0  0  0  0  0
    8.7039    9.7702   23.9254 C   0  0  0  0  0  0  0  0  0  0  0  0
    7.3250    8.1246   25.3170 C   0  0  0  0  0  0  0  0  0  0  0  0
   13.7861    7.6580   26.3686 Cl  0  0  0  0  0  0  0  0  0  0  0  0
   12.0852    7.7494   26.2678 C   0  0  0  0  0  0  0  0  0  0  0  0
   11.1878    7.0928   27.1401 C   0  0  0  0  0  0  0  0  0  0  0  0
    9.8549    7.3759   26.7752 C   0  0  0  0  0  0  0  0  0  0  0  0
    9.7587    8.2082   25.6497 C   0  0  0  0  0  0  0  0  0  0  0  0
   11.3008    8.6784   25.0834 S   0  0  0  0  0  0  0  0  0  0  0  0
    7.0176    4.2628   20.4310 C   0  0  0  0  0  0  0  0  0  0  0  0
    6.8145    2.8451   20.9850 C   0  0  0  0  0  0  0  0  0  0  0  0
    6.7720    4.2763   18.9095 C   0  0  0  0  0  0  0  0  0  0  0  0
    5.6407    4.5239   18.5421 O   0  0  0  0  0  0  0  0  0  0  0  0
    7.7797    4.0289   18.0128 N   0  0  0  0  0  0  0  0  0  0  0  0
    7.4981    4.2527   16.5848 C   0  0  0  0  0  0  0  0  0  0  0  0
    8.0073    3.0975   15.7222 C   0  0  0  0  0  0  0  0  0  0  0  0
    9.3433    2.8178   16.0714 O   0  0  0  0  0  0  0  0  0  0  0  0
    9.5620    2.3998   17.4008 C   0  0  0  0  0  0  0  0  0  0  0  0
    9.1444    3.5419   18.3239 C   0  0  0  0  0  0  0  0  0  0  0  0
 15 16  1  0  0  0
 16 17  2  0  0  0
 17 18  1  0  0  0
 18 19  2  0  0  0
 19 12  1  0  0  0
 12 13  1  0  0  0
  9 10  2  0  0  0
  9 11  2  0  0  0
  9  7  1  0  0  0
  7  1  1  0  0  0
  1  2  1  0  0  0
  2  3  1  0  0  0
  1  4  1  0  0  0
  4  5  2  0  0  0
  3  6  1  0  0  0
  4  6  1  0  0  0
  6 21  1  0  0  0
 21 22  1  0  0  0
 21 23  1  0  0  0
 23 24  2  0  0  0
 23 25  1  0  0  0
 25 26  1  0  0  0
 26 27  1  0  0  0
 27 28  1  0  0  0
 28 29  1  0  0  0
 25 30  1  0  0  0
 29 30  1  0  0  0
 16 20  1  0  0  0
 19 20  1  0  0  0
 12 14  2  0  0  0
  9 14  1  0  0  0
  7  8  1  0  0  0
M  END
> <minimizedAffinity>
-8.58941

$$$$
2UWO_701_A_1245


 30 32  0  0  0  0  0  0  0  0999 V2000
    7.2680    8.4687   20.7544 C   0  0  0  0  0  0  0  0  0  0  0  0
    7.0285    8.4884   19.2350 C   0  0  0  0  0  0  0  0  0  0  0  0
    6.3905    7.1269   18.9475 C   0  0  0  0  0  0  0  0  0  0  0  0
    7.3956    6.9792   21.0738 C   0  0  0  0  0  0  0  0  0  0  0  0
    7.9450    6.4839   22.0645 O   0  0  0  0  0  0  0  0  0  0  0  0
    6.7677    6.2934   20.0973 N   0  0  0  0  0  0  0  0  0  0  0  0
    8.3547    9.3175   21.2164 N   0  0  0  0  0  0  0  0  0  0  0  0
    9.1902    8.7387   21.3019 H   0  0  0  0  0  0  0  0  0  0  0  0
    8.0958   10.1048   22.7336 S   0  0  0  0  0  0  0  0  0  0  0  0
    6.8223    9.6305   23.1975 O   0  0  0  0  0  0  0  0  0  0  0  0
    8.2867   11.4669   22.4269 O   0  0  0  0  0  0  0  0  0  0  0  0
    9.0376    8.6038   24.8366 C   0  0  0  0  0  0  0  0  0  0  0  0
    7.6749    8.1088   25.2619 C   0  0  0  0  0  0  0  0  0  0  0  0
    9.2907    9.4940   23.8421 C   0  0  0  0  0  0  0  0  0  0  0  0
   14.1121    7.4750   26.8079 Cl  0  0  0  0  0  0  0  0  0  0  0  0
   12.4341    7.6106   26.5293 C   0  0  0  0  0  0  0  0  0  0  0  0
   11.4315    7.0253   27.3351 C   0  0  0  0  0  0  0  0  0  0  0  0
   10.1526    7.3282   26.8226 C   0  0  0  0  0  0  0  0  0  0  0  0
   10.1989    8.1049   25.6549 C   0  0  0  0  0  0  0  0  0  0  0  0
   11.8053    8.5009   25.2280 S   0  0  0  0  0  0  0  0  0  0  0  0
    6.4589    4.8590   20.2180 C   0  0  0  0  0  0  0  0  0  0  0  0
    5.2089    4.6100   21.0745 C   0  0  0  0  0  0  0  0  0  0  0  0
    6.2964    4.1912   18.8385 C   0  0  0  0  0  0  0  0  0  0  0  0
    5.1645    3.9090   18.4993 O   0  0  0  0  0  0  0  0  0  0  0  0
    7.3732    3.9341   18.0290 N   0  0  0  0  0  0  0  0  0  0  0  0
    7.1055    3.4740   16.6560 C   0  0  0  0  0  0  0  0  0  0  0  0
    7.9964    2.2914   16.2742 C   0  0  0  0  0  0  0  0  0  0  0  0
    9.3333    2.6022   16.5921 O   0  0  0  0  0  0  0  0  0  0  0  0
    9.6079    2.8359   17.9559 C   0  0  0  0  0  0  0  0  0  0  0  0
    8.8050    4.0595   18.3907 C   0  0  0  0  0  0  0  0  0  0  0  0
 15 16  1  0  0  0
 16 17  2  0  0  0
 17 18  1  0  0  0
 18 19  2  0  0  0
 19 12  1  0  0  0
 12 13  1  0  0  0
  9 10  2  0  0  0
  9 11  2  0  0  0
  9  7  1  0  0  0
  7  1  1  0  0  0
  1  2  1  0  0  0
  2  3  1  0  0  0
  1  4  1  0  0  0
  4  5  2  0  0  0
  3  6  1  0  0  0
  4  6  1  0  0  0
  6 21  1  0  0  0
 21 22  1  0  0  0
 21 23  1  0  0  0
 23 24  2  0  0  0
 23 25  1  0  0  0
 25 26  1  0  0  0
 26 27  1  0  0  0
 27 28  1  0  0  0
 28 29  1  0  0  0
 25 30  1  0  0  0
 29 30  1  0  0  0
 16 20  1  0  0  0
 19 20  1  0  0  0
 12 14  2  0  0  0
  9 14  1  0  0  0
  7  8  1  0  0  0
M  END
> <minimizedAffinity>
-8.47668

$$$$
2UWO_701_A_1245


 30 32  0  0  0  0  0  0  0  0999 V2000
    5.8905    7.1196   21.9424 C   0  0  0  0  0  0  0  0  0  0  0  0
    7.3599    7.2308   21.5008 C   0  0  0  0  0  0  0  0  0  0  0  0
    7.3174    6.9095   20.0046 C   0  0  0  0  0  0  0  0  0  0  0  0
    5.2884    6.1467   20.9287 C   0  0  0  0  0  0  0  0  0  0  0  0
    4.2632    5.4715   21.0767 O   0  0  0  0  0  0  0  0  0  0  0  0
    6.0556    6.1795   19.8204 N   0  0  0  0  0  0  0  0  0  0  0  0
    5.6937    6.7863   23.3442 N   0  0  0  0  0  0  0  0  0  0  0  0
    4.7134    6.5352   23.4722 H   0  0  0  0  0  0  0  0  0  0  0  0
    6.0728    8.0408   24.4718 S   0  0  0  0  0  0  0  0  0  0  0  0
    5.1246    7.8933   25.5400 O   0  0  0  0  0  0  0  0  0  0  0  0
    6.0797    9.2015   23.6727 O   0  0  0  0  0  0  0  0  0  0  0  0
    8.7403    8.4593   24.9928 C   0  0  0  0  0  0  0  0  0  0  0  0
    8.8540    9.6800   24.1097 C   0  0  0  0  0  0  0  0  0  0  0  0
    7.6386    7.6780   25.1396 C   0  0  0  0  0  0  0  0  0  0  0  0
   14.0329    7.7199   26.5266 Cl  0  0  0  0  0  0  0  0  0  0  0  0
   12.3320    7.7278   26.3900 C   0  0  0  0  0  0  0  0  0  0  0  0
   11.4476    7.0691   27.2738 C   0  0  0  0  0  0  0  0  0  0  0  0
   10.1110    7.2738   26.8717 C   0  0  0  0  0  0  0  0  0  0  0  0
   10.0005    8.0506   25.7084 C   0  0  0  0  0  0  0  0  0  0  0  0
   11.5310    8.5666   25.1506 S   0  0  0  0  0  0  0  0  0  0  0  0
    5.6251    5.5763   18.5483 C   0  0  0  0  0  0  0  0  0  0  0  0
    4.8596    6.5751   17.6682 C   0  0  0  0  0  0  0  0  0  0  0  0
    6.8133    4.9840   17.7655 C   0  0  0  0  0  0  0  0  0  0  0  0
    6.9670    5.3786   16.6268 O   0  0  0  0  0  0  0  0  0  0  0  0
    7.6608    4.0631   18.3263 N   0  0  0  0  0  0  0  0  0  0  0  0
    8.8743    3.7001   17.5752 C   0  0  0  0  0  0  0  0  0  0  0  0
    9.0961    2.1874   17.5597 C   0  0  0  0  0  0  0  0  0  0  0  0
    8.9904    1.6942   18.8752 O   0  0  0  0  0  0  0  0  0  0  0  0
    7.7401    1.8697   19.5043 C   0  0  0  0  0  0  0  0  0  0  0  0
    7.4844    3.3700   19.6244 C   0  0  0  0  0  0  0  0  0  0  0  0
 15 16  1  0  0  0
 16 17  2  0  0  0
 17 18  1  0  0  0
 18 19  2  0  0  0
 19 12  1  0  0  0
 12 13  1  0  0  0
  9 10  2  0  0  0
  9 11  2  0  0  0
  9  7  1  0  0  0
  7  1  1  0  0  0
  1  2  1  0  0  0
  2  3  1  0  0  0
  1  4  1  0  0  0
  4  5  2  0  0  0
  3  6  1  0  0  0
  4  6  1  0  0  0
  6 21  1  0  0  0
 21 22  1  0  0  0
 21 23  1  0  0  0
 23 24  2  0  0  0
 23 25  1  0  0  0
 25 26  1  0  0  0
 26 27  1  0  0  0
 27 28  1  0  0  0
 28 29  1  0  0  0
 25 30  1  0  0  0
 29 30  1  0  0  0
 16 20  1  0  0  0
 19 20  1  0  0  0
 12 14  2  0  0  0
  9 14  1  0  0  0
  7  8  1  0  0  0
M  END
> <minimizedAffinity>
-8.14840

$$$$
2UWO_701_A_1245


 30 32  0  0  0  0  0  0  0  0999 V2000
    6.7646    7.5791   21.1013 C   0  0  0  0  0  0  0  0  0  0  0  0
    5.9235    6.7975   22.1252 C   0  0  0  0  0  0  0  0  0  0  0  0
    5.5090    5.5328   21.3689 C   0  0  0  0  0  0  0  0  0  0  0  0
    6.2255    7.0939   19.7557 C   0  0  0  0  0  0  0  0  0  0  0  0
    6.3181    7.6811   18.6715 O   0  0  0  0  0  0  0  0  0  0  0  0
    5.6579    5.8865   19.9505 N   0  0  0  0  0  0  0  0  0  0  0  0
    6.7902    9.0196   21.2986 N   0  0  0  0  0  0  0  0  0  0  0  0
    6.2369    9.4477   20.5564 H   0  0  0  0  0  0  0  0  0  0  0  0
    8.3575    9.7492   21.2816 S   0  0  0  0  0  0  0  0  0  0  0  0
    8.1272   11.1532   21.4758 O   0  0  0  0  0  0  0  0  0  0  0  0
    8.9219    9.2733   20.0813 O   0  0  0  0  0  0  0  0  0  0  0  0
    8.6421    9.0147   23.9164 C   0  0  0  0  0  0  0  0  0  0  0  0
    7.2461    9.4309   24.3175 C   0  0  0  0  0  0  0  0  0  0  0  0
    9.2058    9.1820   22.6917 C   0  0  0  0  0  0  0  0  0  0  0  0
   12.8745    7.4903   27.1834 Cl  0  0  0  0  0  0  0  0  0  0  0  0
   11.3535    7.7614   26.4590 C   0  0  0  0  0  0  0  0  0  0  0  0
   10.1242    7.2693   26.9531 C   0  0  0  0  0  0  0  0  0  0  0  0
    9.0633    7.6716   26.1148 C   0  0  0  0  0  0  0  0  0  0  0  0
    9.4906    8.4299   25.0141 C   0  0  0  0  0  0  0  0  0  0  0  0
   11.1795    8.6873   25.0470 S   0  0  0  0  0  0  0  0  0  0  0  0
    5.2783    5.0069   18.8327 C   0  0  0  0  0  0  0  0  0  0  0  0
    4.1209    5.5904   18.0091 C   0  0  0  0  0  0  0  0  0  0  0  0
    6.4776    4.6987   17.9151 C   0  0  0  0  0  0  0  0  0  0  0  0
    6.4479    5.1786   16.7994 O   0  0  0  0  0  0  0  0  0  0  0  0
    7.5305    3.9278   18.3368 N   0  0  0  0  0  0  0  0  0  0  0  0
    8.7149    3.8473   17.4654 C   0  0  0  0  0  0  0  0  0  0  0  0
    9.2123    2.4087   17.3219 C   0  0  0  0  0  0  0  0  0  0  0  0
    9.3238    1.8315   18.6023 O   0  0  0  0  0  0  0  0  0  0  0  0
    8.1271    1.7280   19.3419 C   0  0  0  0  0  0  0  0  0  0  0  0
    7.6085    3.1421   19.5911 C   0  0  0  0  0  0  0  0  0  0  0  0
 15 16  1  0  0  0
 16 17  2  0  0  0
 17 18  1  0  0  0
 18 19  2  0  0  0
 19 12  1  0  0  0
 12 13  1  0  0  0
  9 10  2  0  0  0
  9 11  2  0  0  0
  9  7  1  0  0  0
  7  1  1  0  0  0
  1  2  1  0  0  0
  2  3  1  0  0  0
  1  4  1  0  0  0
  4  5  2  0  0  0
  3  6  1  0  0  0
  4  6  1  0  0  0
  6 21  1  0  0  0
 21 22  1  0  0  0
 21 23  1  0  0  0
 23 24  2  0  0  0
 23 25  1  0  0  0
 25 26  1  0  0  0
 26 27  1  0  0  0
 27 28  1  0  0  0
 28 29  1  0  0  0
 25 30  1  0  0  0
 29 30  1  0  0  0
 16 20  1  0  0  0
 19 20  1  0  0  0
 12 14  2  0  0  0
  9 14  1  0  0  0
  7  8  1  0  0  0
M  END
> <minimizedAffinity>
-8.12533

$$$$
2UWO_701_A_1245


 30 32  0  0  0  0  0  0  0  0999 V2000
    7.4636    5.8193   19.9091 C   0  0  0  0  0  0  0  0  0  0  0  0
    7.6244    4.4118   20.5088 C   0  0  0  0  0  0  0  0  0  0  0  0
    8.0461    3.5515   19.3148 C   0  0  0  0  0  0  0  0  0  0  0  0
    7.1419    5.5441   18.4402 C   0  0  0  0  0  0  0  0  0  0  0  0
    6.5796    6.3147   17.6536 O   0  0  0  0  0  0  0  0  0  0  0  0
    7.6142    4.3179   18.1379 N   0  0  0  0  0  0  0  0  0  0  0  0
    6.5343    6.6861   20.6161 N   0  0  0  0  0  0  0  0  0  0  0  0
    5.7508    6.8808   19.9927 H   0  0  0  0  0  0  0  0  0  0  0  0
    7.1795    8.1994   21.1476 S   0  0  0  0  0  0  0  0  0  0  0  0
    6.0450    8.9700   21.5729 O   0  0  0  0  0  0  0  0  0  0  0  0
    7.9629    8.6181   20.0536 O   0  0  0  0  0  0  0  0  0  0  0  0
    8.6011    8.8397   23.4130 C   0  0  0  0  0  0  0  0  0  0  0  0
    8.5266   10.3328   23.1940 C   0  0  0  0  0  0  0  0  0  0  0  0
    8.1308    7.8832   22.5705 C   0  0  0  0  0  0  0  0  0  0  0  0
   12.4832    7.7439   27.2391 Cl  0  0  0  0  0  0  0  0  0  0  0  0
   11.0422    7.9174   26.3418 C   0  0  0  0  0  0  0  0  0  0  0  0
    9.7673    7.4822   26.7689 C   0  0  0  0  0  0  0  0  0  0  0  0
    8.7963    7.7746   25.7883 C   0  0  0  0  0  0  0  0  0  0  0  0
    9.3342    8.3964   24.6512 C   0  0  0  0  0  0  0  0  0  0  0  0
   11.0135    8.6647   24.8180 S   0  0  0  0  0  0  0  0  0  0  0  0
    7.7214    3.8369   16.7506 C   0  0  0  0  0  0  0  0  0  0  0  0
    8.9794    2.9835   16.5335 C   0  0  0  0  0  0  0  0  0  0  0  0
    6.4679    3.0506   16.3198 C   0  0  0  0  0  0  0  0  0  0  0  0
    6.3622    1.9174   16.7451 O   0  0  0  0  0  0  0  0  0  0  0  0
    5.5140    3.6024   15.5033 N   0  0  0  0  0  0  0  0  0  0  0  0
    4.2638    2.8506   15.3028 C   0  0  0  0  0  0  0  0  0  0  0  0
    3.8568    2.8166   13.8293 C   0  0  0  0  0  0  0  0  0  0  0  0
    3.9030    4.1254   13.3099 O   0  0  0  0  0  0  0  0  0  0  0  0
    5.1664    4.7527   13.3214 C   0  0  0  0  0  0  0  0  0  0  0  0
    5.6056    4.8910   14.7769 C   0  0  0  0  0  0  0  0  0  0  0  0
 15 16  1  0  0  0
 16 17  2  0  0  0
 17 18  1  0  0  0
 18 19  2  0  0  0
 19 12  1  0  0  0
 12 13  1  0  0  0
  9 10  2  0  0  0
  9 11  2  0  0  0
  9  7  1  0  0  0
  7  1  1  0  0  0
  1  2  1  0  0  0
  2  3  1  0  0  0
  1  4  1  0  0  0
  4  5  2  0  0  0
  3  6  1  0  0  0
  4  6  1  0  0  0
  6 21  1  0  0  0
 21 22  1  0  0  0
 21 23  1  0  0  0
 23 24  2  0  0  0
 23 25  1  0  0  0
 25 26  1  0  0  0
 26 27  1  0  0  0
 27 28  1  0  0  0
 28 29  1  0  0  0
 25 30  1  0  0  0
 29 30  1  0  0  0
 16 20  1  0  0  0
 19 20  1  0  0  0
 12 14  2  0  0  0
  9 14  1  0  0  0
  7  8  1  0  0  0
M  END
> <minimizedAffinity>
-7.86688

$$$$
2UWO_701_A_1245


 30 32  0  0  0  0  0  0  0  0999 V2000
    6.6231    7.8793   20.6752 C   0  0  0  0  0  0  0  0  0  0  0  0
    7.2290    6.6090   21.2962 C   0  0  0  0  0  0  0  0  0  0  0  0
    7.5013    7.0064   22.7493 C   0  0  0  0  0  0  0  0  0  0  0  0
    7.1980    9.0038   21.5364 C   0  0  0  0  0  0  0  0  0  0  0  0
    7.3016   10.1942   21.2183 O   0  0  0  0  0  0  0  0  0  0  0  0
    7.5426    8.4750   22.7279 N   0  0  0  0  0  0  0  0  0  0  0  0
    6.8126    8.0121   19.2395 N   0  0  0  0  0  0  0  0  0  0  0  0
    6.4755    8.9341   18.9625 H   0  0  0  0  0  0  0  0  0  0  0  0
    6.0024    6.8353   18.2660 S   0  0  0  0  0  0  0  0  0  0  0  0
    6.0411    7.3548   16.9278 O   0  0  0  0  0  0  0  0  0  0  0  0
    4.7734    6.6567   18.9318 O   0  0  0  0  0  0  0  0  0  0  0  0
    7.2413    4.6341   17.1787 C   0  0  0  0  0  0  0  0  0  0  0  0
    6.6123    4.7933   15.8141 C   0  0  0  0  0  0  0  0  0  0  0  0
    6.9829    5.3972   18.2725 C   0  0  0  0  0  0  0  0  0  0  0  0
    9.7371   -0.3218   16.8302 Cl  0  0  0  0  0  0  0  0  0  0  0  0
    9.2881    1.2877   17.1763 C   0  0  0  0  0  0  0  0  0  0  0  0
   10.0012    2.1595   18.0299 C   0  0  0  0  0  0  0  0  0  0  0  0
    9.3562    3.4121   18.1000 C   0  0  0  0  0  0  0  0  0  0  0  0
    8.1828    3.4691   17.3325 C   0  0  0  0  0  0  0  0  0  0  0  0
    7.9114    2.0068   16.4914 S   0  0  0  0  0  0  0  0  0  0  0  0
    7.8761    9.3118   23.8923 C   0  0  0  0  0  0  0  0  0  0  0  0
    7.1123    8.8762   25.1513 C   0  0  0  0  0  0  0  0  0  0  0  0
    9.3918    9.3252   24.1713 C   0  0  0  0  0  0  0  0  0  0  0  0
   10.1065    9.7396   23.2805 O   0  0  0  0  0  0  0  0  0  0  0  0
    9.9101    8.8981   25.3671 N   0  0  0  0  0  0  0  0  0  0  0  0
   11.3435    9.1271   25.6149 C   0  0  0  0  0  0  0  0  0  0  0  0
   12.0211    7.8840   26.1922 C   0  0  0  0  0  0  0  0  0  0  0  0
   11.2567    7.4050   27.2743 O   0  0  0  0  0  0  0  0  0  0  0  0
    9.9426    6.9918   26.9701 C   0  0  0  0  0  0  0  0  0  0  0  0
    9.1779    8.2089   26.4558 C   0  0  0  0  0  0  0  0  0  0  0  0
 15 16  1  0  0  0
 16 17  2  0  0  0
 17 18  1  0  0  0
 18 19  2  0  0  0
 19 12  1  0  0  0
 12 13  1  0  0  0
  9 10  2  0  0  0
  9 11  2  0  0  0
  9  7  1  0  0  0
  7  1  1  0  0  0
  1  2  1  0  0  0
  2  3  1  0  0  0
  1  4  1  0  0  0
  4  5  2  0  0  0
  3  6  1  0  0  0
  4  6  1  0  0  0
  6 21  1  0  0  0
 21 22  1  0  0  0
 21 23  1  0  0  0
 23 24  2  0  0  0
 23 25  1  0  0  0
 25 26  1  0  0  0
 26 27  1  0  0  0
 27 28  1  0  0  0
 28 29  1  0  0  0
 25 30  1  0  0  0
 29 30  1  0  0  0
 16 20  1  0  0  0
 19 20  1  0  0  0
 12 14  2  0  0  0
  9 14  1  0  0  0
  7  8  1  0  0  0
M  END
> <minimizedAffinity>
-7.73649

$$$$
2UWO_701_A_1245


 30 32  0  0  0  0  0  0  0  0999 V2000
    6.6413    7.1662   19.6644 C   0  0  0  0  0  0  0  0  0  0  0  0
    5.9775    6.9347   18.2961 C   0  0  0  0  0  0  0  0  0  0  0  0
    5.2551    5.5952   18.4620 C   0  0  0  0  0  0  0  0  0  0  0  0
    6.8231    5.7514   20.2141 C   0  0  0  0  0  0  0  0  0  0  0  0
    7.6224    5.3996   21.0894 O   0  0  0  0  0  0  0  0  0  0  0  0
    5.9277    4.9525   19.5994 N   0  0  0  0  0  0  0  0  0  0  0  0
    7.8326    7.9998   19.6364 N   0  0  0  0  0  0  0  0  0  0  0  0
    8.6372    7.4037   19.8306 H   0  0  0  0  0  0  0  0  0  0  0  0
    7.8562    9.3090   20.7652 S   0  0  0  0  0  0  0  0  0  0  0  0
    6.4789    9.5685   21.0779 O   0  0  0  0  0  0  0  0  0  0  0  0
    8.6406   10.2821   20.1143 O   0  0  0  0  0  0  0  0  0  0  0  0
    8.8351    9.4718   23.3300 C   0  0  0  0  0  0  0  0  0  0  0  0
    8.6528   10.9675   23.4426 C   0  0  0  0  0  0  0  0  0  0  0  0
    8.5975    8.7181   22.2250 C   0  0  0  0  0  0  0  0  0  0  0  0
   12.2226    7.4253   27.2347 Cl  0  0  0  0  0  0  0  0  0  0  0  0
   10.8934    7.8909   26.2714 C   0  0  0  0  0  0  0  0  0  0  0  0
    9.5444    7.5731   26.5481 C   0  0  0  0  0  0  0  0  0  0  0  0
    8.7013    8.1060   25.5505 C   0  0  0  0  0  0  0  0  0  0  0  0
    9.4032    8.7892   24.5458 C   0  0  0  0  0  0  0  0  0  0  0  0
   11.0822    8.8179   24.8620 S   0  0  0  0  0  0  0  0  0  0  0  0
    5.6358    3.5893   20.0723 C   0  0  0  0  0  0  0  0  0  0  0  0
    4.4764    2.9473   19.2965 C   0  0  0  0  0  0  0  0  0  0  0  0
    6.8808    2.6832   20.0083 C   0  0  0  0  0  0  0  0  0  0  0  0
    7.2539    2.1945   21.0562 O   0  0  0  0  0  0  0  0  0  0  0  0
    7.5326    2.4333   18.8278 N   0  0  0  0  0  0  0  0  0  0  0  0
    8.5893    1.4077   18.8308 C   0  0  0  0  0  0  0  0  0  0  0  0
    9.8381    1.8831   18.0876 C   0  0  0  0  0  0  0  0  0  0  0  0
    9.4572    2.4009   16.8340 O   0  0  0  0  0  0  0  0  0  0  0  0
    8.6032    3.5234   16.8605 C   0  0  0  0  0  0  0  0  0  0  0  0
    7.2959    3.0997   17.5254 C   0  0  0  0  0  0  0  0  0  0  0  0
 15 16  1  0  0  0
 16 17  2  0  0  0
 17 18  1  0  0  0
 18 19  2  0  0  0
 19 12  1  0  0  0
 12 13  1  0  0  0
  9 10  2  0  0  0
  9 11  2  0  0  0
  9  7  1  0  0  0
  7  1  1  0  0  0
  1  2  1  0  0  0
  2  3  1  0  0  0
  1  4  1  0  0  0
  4  5  2  0  0  0
  3  6  1  0  0  0
  4  6  1  0  0  0
  6 21  1  0  0  0
 21 22  1  0  0  0
 21 23  1  0  0  0
 23 24  2  0  0  0
 23 25  1  0  0  0
 25 26  1  0  0  0
 26 27  1  0  0  0
 27 28  1  0  0  0
 28 29  1  0  0  0
 25 30  1  0  0  0
 29 30  1  0  0  0
 16 20  1  0  0  0
 19 20  1  0  0  0
 12 14  2  0  0  0
  9 14  1  0  0  0
  7  8  1  0  0  0
M  END
> <minimizedAffinity>
-7.69577

$$$$
2UWO_701_A_1245


 30 32  0  0  0  0  0  0  0  0999 V2000
    6.1971    7.3456   22.2805 C   0  0  0  0  0  0  0  0  0  0  0  0
    4.9143    6.5692   21.9365 C   0  0  0  0  0  0  0  0  0  0  0  0
    5.3061    5.7406   20.7104 C   0  0  0  0  0  0  0  0  0  0  0  0
    6.9273    7.4352   20.9406 C   0  0  0  0  0  0  0  0  0  0  0  0
    7.7962    8.2582   20.6302 O   0  0  0  0  0  0  0  0  0  0  0  0
    6.4818    6.4295   20.1608 N   0  0  0  0  0  0  0  0  0  0  0  0
    5.9854    8.6033   22.9793 N   0  0  0  0  0  0  0  0  0  0  0  0
    6.7725    9.2164   22.7669 H   0  0  0  0  0  0  0  0  0  0  0  0
    5.8488    8.4899   24.6990 S   0  0  0  0  0  0  0  0  0  0  0  0
    4.9475    7.3981   24.9392 O   0  0  0  0  0  0  0  0  0  0  0  0
    5.5060    9.8018   25.0826 O   0  0  0  0  0  0  0  0  0  0  0  0
    8.5748    8.6291   25.0340 C   0  0  0  0  0  0  0  0  0  0  0  0
    8.7689    9.7533   24.0434 C   0  0  0  0  0  0  0  0  0  0  0  0
    7.4032    7.9983   25.3085 C   0  0  0  0  0  0  0  0  0  0  0  0
   13.8468    7.6277   26.4879 Cl  0  0  0  0  0  0  0  0  0  0  0  0
   12.1466    7.6935   26.3585 C   0  0  0  0  0  0  0  0  0  0  0  0
   11.2453    6.9945   27.1930 C   0  0  0  0  0  0  0  0  0  0  0  0
    9.9144    7.2665   26.8125 C   0  0  0  0  0  0  0  0  0  0  0  0
    9.8240    8.1322   25.7119 C   0  0  0  0  0  0  0  0  0  0  0  0
   11.3676    8.6461   25.1893 S   0  0  0  0  0  0  0  0  0  0  0  0
    7.1560    6.0478   18.9089 C   0  0  0  0  0  0  0  0  0  0  0  0
    8.0630    4.8226   19.0945 C   0  0  0  0  0  0  0  0  0  0  0  0
    6.1477    5.7920   17.7717 C   0  0  0  0  0  0  0  0  0  0  0  0
    6.1704    4.6901   17.2605 O   0  0  0  0  0  0  0  0  0  0  0  0
    5.2629    6.7557   17.3603 N   0  0  0  0  0  0  0  0  0  0  0  0
    4.2132    6.3614   16.4057 C   0  0  0  0  0  0  0  0  0  0  0  0
    4.0706    7.3786   15.2730 C   0  0  0  0  0  0  0  0  0  0  0  0
    3.9755    8.6710   15.8257 O   0  0  0  0  0  0  0  0  0  0  0  0
    5.0911    9.1112   16.5684 C   0  0  0  0  0  0  0  0  0  0  0  0
    5.2500    8.1805   17.7681 C   0  0  0  0  0  0  0  0  0  0  0  0
 15 16  1  0  0  0
 16 17  2  0  0  0
 17 18  1  0  0  0
 18 19  2  0  0  0
 19 12  1  0  0  0
 12 13  1  0  0  0
  9 10  2  0  0  0
  9 11  2  0  0  0
  9  7  1  0  0  0
  7  1  1  0  0  0
  1  2  1  0  0  0
  2  3  1  0  0  0
  1  4  1  0  0  0
  4  5  2  0  0  0
  3  6  1  0  0  0
  4  6  1  0  0  0
  6 21  1  0  0  0
 21 22  1  0  0  0
 21 23  1  0  0  0
 23 24  2  0  0  0
 23 25  1  0  0  0
 25 26  1  0  0  0
 26 27  1  0  0  0
 27 28  1  0  0  0
 28 29  1  0  0  0
 25 30  1  0  0  0
 29 30  1  0  0  0
 16 20  1  0  0  0
 19 20  1  0  0  0
 12 14  2  0  0  0
  9 14  1  0  0  0
  7  8  1  0  0  0
M  END
> <minimizedAffinity>
-7.65929

$$$$
2UWO_701_A_1245


 30 32  0  0  0  0  0  0  0  0999 V2000
    2.8987    4.7696   22.7833 C   0  0  0  0  0  0  0  0  0  0  0  0
    2.3862    4.9706   24.2198 C   0  0  0  0  0  0  0  0  0  0  0  0
    2.7064    6.4372   24.5205 C   0  0  0  0  0  0  0  0  0  0  0  0
    3.9998    5.8215   22.6494 C   0  0  0  0  0  0  0  0  0  0  0  0
    4.9318    5.8112   21.8369 O   0  0  0  0  0  0  0  0  0  0  0  0
    3.7563    6.7902   23.5551 N   0  0  0  0  0  0  0  0  0  0  0  0
    3.2738    3.4047   22.4501 N   0  0  0  0  0  0  0  0  0  0  0  0
    4.2852    3.3232   22.5534 H   0  0  0  0  0  0  0  0  0  0  0  0
    2.8586    2.8831   20.8549 S   0  0  0  0  0  0  0  0  0  0  0  0
    2.0466    3.9340   20.3088 O   0  0  0  0  0  0  0  0  0  0  0  0
    2.3226    1.5969   21.0654 O   0  0  0  0  0  0  0  0  0  0  0  0
    5.5485    2.5151   20.4176 C   0  0  0  0  0  0  0  0  0  0  0  0
    5.8820    2.2649   21.8699 C   0  0  0  0  0  0  0  0  0  0  0  0
    4.3286    2.8519   19.9235 C   0  0  0  0  0  0  0  0  0  0  0  0
    8.8643    2.9656   15.9776 Cl  0  0  0  0  0  0  0  0  0  0  0  0
    8.1743    2.6526   17.5066 C   0  0  0  0  0  0  0  0  0  0  0  0
    8.8316    1.9934   18.5698 C   0  0  0  0  0  0  0  0  0  0  0  0
    7.9769    1.8947   19.6878 C   0  0  0  0  0  0  0  0  0  0  0  0
    6.7087    2.4504   19.4600 C   0  0  0  0  0  0  0  0  0  0  0  0
    6.5948    3.1352   17.8987 S   0  0  0  0  0  0  0  0  0  0  0  0
    4.4545    8.0860   23.5269 C   0  0  0  0  0  0  0  0  0  0  0  0
    3.6432    9.1916   24.2180 C   0  0  0  0  0  0  0  0  0  0  0  0
    5.8600    7.9917   24.1524 C   0  0  0  0  0  0  0  0  0  0  0  0
    5.9119    7.7637   25.3446 O   0  0  0  0  0  0  0  0  0  0  0  0
    6.9969    8.1494   23.4018 N   0  0  0  0  0  0  0  0  0  0  0  0
    8.2891    7.8521   24.0423 C   0  0  0  0  0  0  0  0  0  0  0  0
    9.3269    8.9354   23.7470 C   0  0  0  0  0  0  0  0  0  0  0  0
    9.3465    9.1870   22.3609 O   0  0  0  0  0  0  0  0  0  0  0  0
    8.1463    9.6745   21.8024 C   0  0  0  0  0  0  0  0  0  0  0  0
    7.0742    8.6046   21.9935 C   0  0  0  0  0  0  0  0  0  0  0  0
 15 16  1  0  0  0
 16 17  2  0  0  0
 17 18  1  0  0  0
 18 19  2  0  0  0
 19 12  1  0  0  0
 12 13  1  0  0  0
  9 10  2  0  0  0
  9 11  2  0  0  0
  9  7  1  0  0  0
  7  1  1  0  0  0
  1  2  1  0  0  0
  2  3  1  0  0  0
  1  4  1  0  0  0
  4  5  2  0  0  0
  3  6  1  0  0  0
  4  6  1  0  0  0
  6 21  1  0  0  0
 21 22  1  0  0  0
 21 23  1  0  0  0
 23 24  2  0  0  0
 23 25  1  0  0  0
 25 26  1  0  0  0
 26 27  1  0  0  0
 27 28  1  0  0  0
 28 29  1  0  0  0
 25 30  1  0  0  0
 29 30  1  0  0  0
 16 20  1  0  0  0
 19 20  1  0  0  0
 12 14  2  0  0  0
  9 14  1  0  0  0
  7  8  1  0  0  0
M  END
> <minimizedAffinity>
-7.49744

$$$$
2UWO_701_A_1245


 30 32  0  0  0  0  0  0  0  0999 V2000
    6.8214    6.5417   20.6967 C   0  0  0  0  0  0  0  0  0  0  0  0
    5.2952    6.6917   20.8174 C   0  0  0  0  0  0  0  0  0  0  0  0
    4.8025    5.2582   21.0318 C   0  0  0  0  0  0  0  0  0  0  0  0
    6.9978    5.1111   20.1879 C   0  0  0  0  0  0  0  0  0  0  0  0
    7.9856    4.6564   19.5994 O   0  0  0  0  0  0  0  0  0  0  0  0
    5.8944    4.4143   20.5271 N   0  0  0  0  0  0  0  0  0  0  0  0
    7.4820    7.5816   19.9241 N   0  0  0  0  0  0  0  0  0  0  0  0
    8.3353    7.1855   19.5300 H   0  0  0  0  0  0  0  0  0  0  0  0
    7.9139    9.0064   20.8030 S   0  0  0  0  0  0  0  0  0  0  0  0
    6.6691    9.6277   21.1586 O   0  0  0  0  0  0  0  0  0  0  0  0
    8.8199    9.6552   19.9405 O   0  0  0  0  0  0  0  0  0  0  0  0
    8.8906    9.2966   23.3573 C   0  0  0  0  0  0  0  0  0  0  0  0
    8.7007   10.7950   23.3982 C   0  0  0  0  0  0  0  0  0  0  0  0
    8.6574    8.4897   22.2896 C   0  0  0  0  0  0  0  0  0  0  0  0
   12.2824    7.4907   27.3754 Cl  0  0  0  0  0  0  0  0  0  0  0  0
   10.9534    7.8837   26.3799 C   0  0  0  0  0  0  0  0  0  0  0  0
    9.6100    7.5402   26.6531 C   0  0  0  0  0  0  0  0  0  0  0  0
    8.7655    8.0122   25.6264 C   0  0  0  0  0  0  0  0  0  0  0  0
    9.4615    8.6758   24.6046 C   0  0  0  0  0  0  0  0  0  0  0  0
   11.1350    8.7617   24.9386 S   0  0  0  0  0  0  0  0  0  0  0  0
    5.8332    2.9462   20.4367 C   0  0  0  0  0  0  0  0  0  0  0  0
    5.6517    2.2923   21.8143 C   0  0  0  0  0  0  0  0  0  0  0  0
    4.7205    2.4783   19.4784 C   0  0  0  0  0  0  0  0  0  0  0  0
    3.6766    2.1219   19.9877 O   0  0  0  0  0  0  0  0  0  0  0  0
    4.8946    2.4707   18.1181 N   0  0  0  0  0  0  0  0  0  0  0  0
    3.7180    2.1937   17.2770 C   0  0  0  0  0  0  0  0  0  0  0  0
    4.0413    1.1919   16.1681 C   0  0  0  0  0  0  0  0  0  0  0  0
    5.2147    1.6030   15.5056 O   0  0  0  0  0  0  0  0  0  0  0  0
    6.3836    1.6598   16.2932 C   0  0  0  0  0  0  0  0  0  0  0  0
    6.1610    2.7040   17.3844 C   0  0  0  0  0  0  0  0  0  0  0  0
 15 16  1  0  0  0
 16 17  2  0  0  0
 17 18  1  0  0  0
 18 19  2  0  0  0
 19 12  1  0  0  0
 12 13  1  0  0  0
  9 10  2  0  0  0
  9 11  2  0  0  0
  9  7  1  0  0  0
  7  1  1  0  0  0
  1  2  1  0  0  0
  2  3  1  0  0  0
  1  4  1  0  0  0
  4  5  2  0  0  0
  3  6  1  0  0  0
  4  6  1  0  0  0
  6 21  1  0  0  0
 21 22  1  0  0  0
 21 23  1  0  0  0
 23 24  2  0  0  0
 23 25  1  0  0  0
 25 26  1  0  0  0
 26 27  1  0  0  0
 27 28  1  0  0  0
 28 29  1  0  0  0
 25 30  1  0  0  0
 29 30  1  0  0  0
 16 20  1  0  0  0
 19 20  1  0  0  0
 12 14  2  0  0  0
  9 14  1  0  0  0
  7  8  1  0  0  0
M  END
> <minimizedAffinity>
-7.37375

$$$$
