2UWO_701_A_1245
  RCSB PDB12061707003D
Coordinates from PDB:2UWO:A:1245 Model:1 without hydrogens
 29 31  0  0  0  0            999 V2000
   13.9370    7.3900   26.4430  Cl 0  0  0  0  0  0  0  0  0  0  0  0
   12.2450    7.5730   26.3190   C 0  0  0  0  0  0  0  0  0  0  0  0
   11.3060    7.0420   27.2320   C 0  0  0  0  0  0  0  0  0  0  0  0
    9.9940    7.3730   26.8330   C 0  0  0  0  0  0  0  0  0  0  0  0
    9.9530    8.1170   25.6440   C 0  0  0  0  0  0  0  0  0  0  0  0
    8.7350    8.6320   24.9240   C 0  0  0  0  0  0  0  0  0  0  0  0
    8.9900    9.6960   23.8820   C 0  0  0  0  0  0  0  0  0  0  0  0
    6.0100    8.5920   24.5560   S 0  0  0  0  0  0  0  0  0  0  0  0
    4.9870    7.8720   25.2610   O 0  0  0  0  0  0  0  0  0  0  0  0
    5.9350    9.9920   24.4140   O 0  0  0  0  0  0  0  0  0  0  0  0
    5.9310    8.0240   22.9250   N 0  0  0  0  0  0  0  0  0  0  0  0
    5.8320    6.5820   22.7650   C 0  0  0  0  0  0  0  0  0  0  0  0
    4.5110    6.0850   22.1530   C 0  0  0  0  0  0  0  0  0  0  0  0
    4.8910    4.7580   21.4910   C 0  0  0  0  0  0  0  0  0  0  0  0
    6.8980    5.9280   21.8860   C 0  0  0  0  0  0  0  0  0  0  0  0
    8.0680    6.3030   21.7470   O 0  0  0  0  0  0  0  0  0  0  0  0
    6.3470    4.8400   21.3110   N 0  0  0  0  0  0  0  0  0  0  0  0
    7.1550    3.8230   20.6180   C 0  0  0  0  0  0  0  0  0  0  0  0
    6.8170    2.4010   21.0890   C 0  0  0  0  0  0  0  0  0  0  0  0
    7.0080    3.9220   19.0870   C 0  0  0  0  0  0  0  0  0  0  0  0
    5.9470    4.3390   18.6670   O 0  0  0  0  0  0  0  0  0  0  0  0
    8.0250    3.5650   18.2390   N 0  0  0  0  0  0  0  0  0  0  0  0
    7.8660    3.8740   16.8080   C 0  0  0  0  0  0  0  0  0  0  0  0
    8.2620    2.6880   15.9280   C 0  0  0  0  0  0  0  0  0  0  0  0
    9.5220    2.2110   16.3400   O 0  0  0  0  0  0  0  0  0  0  0  0
    9.5980    1.7220   17.6610   C 0  0  0  0  0  0  0  0  0  0  0  0
    9.2870    2.8800   18.6060   C 0  0  0  0  0  0  0  0  0  0  0  0
   11.5230    8.4490   25.0570   S 0  0  0  0  0  0  0  0  0  0  0  0
    7.5340    8.0660   25.2120   C 0  0  0  0  0  0  0  0  0  0  0  0
  1  2  1  0  0  0  0
  2  3  2  0  0  0  0
  3  4  1  0  0  0  0
  4  5  2  0  0  0  0
  5  6  1  0  0  0  0
  6  7  1  0  0  0  0
  8  9  2  0  0  0  0
  8 10  2  0  0  0  0
  8 11  1  0  0  0  0
 11 12  1  0  0  0  0
 12 13  1  0  0  0  0
 13 14  1  0  0  0  0
 12 15  1  0  0  0  0
 15 16  2  0  0  0  0
 14 17  1  0  0  0  0
 15 17  1  0  0  0  0
 17 18  1  0  0  0  0
 18 19  1  0  0  0  0
 18 20  1  0  0  0  0
 20 21  2  0  0  0  0
 20 22  1  0  0  0  0
 22 23  1  0  0  0  0
 23 24  1  0  0  0  0
 24 25  1  0  0  0  0
 25 26  1  0  0  0  0
 22 27  1  0  0  0  0
 26 27  1  0  0  0  0
  2 28  1  0  0  0  0
  5 28  1  0  0  0  0
  6 29  2  0  0  0  0
  8 29  1  0  0  0  0
A    1
CL1
A    2
C1
A    3
C2
A    4
C3
A    5
C4
A    6
C9
A    7
C8
A    8
S1
A    9
O2
A   10
O1
A   11
N1
A   12
C12
A   13
C13
A   14
C14
A   15
C15
A   16
O3
A   17
N2
A   18
C16
A   19
C17
A   20
C18
A   21
O4
A   22
N3
A   23
C19
A   24
C20
A   25
O5
A   26
C22
A   27
C23
A   28
S6
A   29
C6
M  END
>  <InstanceId>
2UWO_701_A_1245

>  <ChemCompId>
701

>  <PdbId>
2UWO

>  <ChainId>
A

>  <ResidueNumber>
1245

>  <InsertionCode>


>  <Model>
1

>  <AltIds>


>  <MissingHeavyAtoms>
0

>  <ObservedFormula>
C18 N3 O5 S2 Cl

>  <Name>
(2R)-2-(5-CHLORO-2-THIENYL)-N-{(3S)-1-[(1S)-1-METHYL-2-MORPHOLIN-4-YL-2-OXOETHYL]-2-OXOPYRROLIDIN-3-YL}PROPENE-1-SULFONAMIDE

>  <SystematicName>
(E)-2-(5-chlorothiophen-2-yl)-N-[(3S)-1-[(2S)-1-morpholin-4-yl-1-oxo-propan-2-yl]-2-oxo-pyrrolidin-3-yl]prop-1-ene-1-sulfonamide

>  <Synonyms>


>  <Type>
NON-POLYMER

>  <Formula>
C18 H24 Cl N3 O5 S2

>  <MolecularWeight>
461.983

>  <ModifiedDate>
2011-06-04

>  <Parent>


>  <OneLetterCode>


>  <SubcomponentList>


>  <AmbiguousFlag>


>  <InChI>
InChI=1S/C18H24ClN3O5S2/c1-12(15-3-4-16(19)28-15)11-29(25,26)20-14-5-6-22(18(14)24)13(2)17(23)21-7-9-27-10-8-21/h3-4,11,13-14,20H,5-10H2,1-2H3/b12-11+/t13-,14-/m0/s1

>  <InChIKey>
YMJHMJLNQLVUAV-GHYUOPHCSA-N

>  <SMILES>
C[C@@H](C(=O)N1CCOCC1)N2CC[C@@H](C2=O)NS(=O)(=O)\C=C(/C)\c3ccc(s3)Cl

$$$$
