6DAI_G2V_A_503
  RCSB PDB09151803303D
Coordinates from PDB:6DAI:A:503 Model:1 without hydrogens
 18 21  0  0  0  0            999 V2000
   -8.6530   24.4600    3.1680   C 0  0  0  0  0  0  0  0  0  0  0  0
   -7.8570   25.5330    3.9560   C 0  0  0  0  0  0  0  0  0  0  0  0
   -7.7310   26.7030    3.0760   N 0  0  0  0  0  0  0  0  0  0  0  0
   -9.2210   25.1780    1.9720   C 0  0  0  0  0  0  0  0  0  0  0  0
   -8.6920   26.4920    1.9310   C 0  0  0  0  0  0  0  0  0  0  0  0
   -9.0890   27.4810    0.8020   C 0  0  0  0  0  0  0  0  0  0  0  0
  -10.0500   27.0290   -0.2690   C 0  0  0  0  0  0  0  0  0  0  0  0
  -10.6090   25.6460   -0.2180   C 0  0  0  0  0  0  0  0  0  0  0  0
  -11.6160   25.2130   -1.2710   C 0  0  0  0  0  0  0  0  0  0  0  0
  -12.3580   26.0730   -2.0840   C 0  0  0  0  0  0  0  0  0  0  0  0
  -13.1490   25.3200   -2.8390   N 0  0  0  0  0  0  0  0  0  0  0  0
  -14.1930   25.3870   -3.9150   C 0  0  0  0  0  0  0  0  0  0  0  0
  -14.6510   23.9900   -4.2200   C 0  0  0  0  0  0  0  0  0  0  0  0
  -13.8530   23.0940   -3.3510   C 0  0  0  0  0  0  0  0  0  0  0  0
  -12.9370   23.9830   -2.4950   C 0  0  0  0  0  0  0  0  0  0  0  0
  -11.9820   23.9380   -1.5360   N 0  0  0  0  0  0  0  0  0  0  0  0
  -10.2380   24.6970    0.8940   C 0  0  0  0  0  0  0  0  0  0  0  0
   -6.6290   27.6490    3.0620   C 0  0  0  0  0  0  0  0  0  0  0  0
 13 12  1  0  0  0  0
 13 14  1  0  0  0  0
 12 11  1  0  0  0  0
 14 15  1  0  0  0  0
 11 15  1  0  0  0  0
 11 10  1  0  0  0  0
 15 16  2  0  0  0  0
 10  9  2  0  0  0  0
 16  9  1  0  0  0  0
  9  8  1  0  0  0  0
  7  8  2  0  0  0  0
  7  6  1  0  0  0  0
  8 17  1  0  0  0  0
  6  5  2  0  0  0  0
 17  4  2  0  0  0  0
  5  4  1  0  0  0  0
  5  3  1  0  0  0  0
  4  1  1  0  0  0  0
 18  3  1  0  0  0  0
  3  2  1  0  0  0  0
  1  2  1  0  0  0  0
A    1
C01
A    2
C02
A    3
N03
A    4
C04
A    5
C05
A    6
C06
A    7
C07
A    8
C08
A    9
C09
A   10
C10
A   11
N11
A   12
C12
A   13
C13
A   14
C14
A   15
C15
A   16
N16
A   17
C17
A   18
C18
M  END
>  <InstanceId>
6DAI_G2V_A_503

>  <ChemCompId>
G2V

>  <PdbId>
6DAI

>  <ChainId>
A

>  <ResidueNumber>
503

>  <InsertionCode>


>  <Model>
1

>  <AltIds>


>  <MissingHeavyAtoms>
0

>  <ObservedFormula>
C15 N3

>  <Name>
6-(6,7-dihydro-5H-pyrrolo[1,2-a]imidazol-2-yl)-1-methylindoline

>  <SystematicName>
5-(6,7-dihydro-5~{H}-pyrrolo[1,2-a]imidazol-2-yl)-1-methyl-2,3-dihydroindole

>  <Synonyms>
5-(6,7-dihydro-5H-pyrrolo[1,2-a]imidazol-2-yl)-1-methyl-2,3-dihydro-1H-indole

>  <Type>
NON-POLYMER

>  <Formula>
C15 H17 N3

>  <MolecularWeight>
239.316

>  <ModifiedDate>
2018-08-31

>  <Parent>


>  <OneLetterCode>


>  <SubcomponentList>


>  <AmbiguousFlag>
N

>  <InChI>
InChI=1S/C15H17N3/c1-17-8-6-12-9-11(4-5-14(12)17)13-10-18-7-2-3-15(18)16-13/h4-5,9-10H,2-3,6-8H2,1H3

>  <InChIKey>
GANOSYHSDIPGSR-UHFFFAOYSA-N

>  <SMILES>
CN1CCc2c1ccc(c2)c3cn4c(n3)CCC4

$$$$
