2XYT_TC9_B_1206


 48 54  0  0  0  0  0  0  0  0999 V2000
   37.4721  117.6592   52.1938 N   0  0  0  0  0  0  0  0  0  0  0  0
   37.4399  118.1936   50.8732 C   0  0  0  0  0  0  0  0  0  0  0  0
   38.7271  117.9670   50.1360 C   0  0  0  0  0  0  0  0  0  0  0  0
   39.4824  116.7388   50.5582 C   0  0  0  0  0  0  0  0  0  0  0  0
   38.9838  115.8601   51.5619 C   0  0  0  0  0  0  0  0  0  0  0  0
   37.6695  116.1597   52.1640 C   0  0  0  0  0  0  0  0  0  0  0  0
   40.7163  116.4247   49.9328 C   0  0  0  0  0  0  0  0  0  0  0  0
   41.4312  115.2620   50.3297 C   0  0  0  0  0  0  0  0  0  0  0  0
   40.9060  114.4013   51.3409 C   0  0  0  0  0  0  0  0  0  0  0  0
   39.6704  114.6884   51.9668 C   0  0  0  0  0  0  0  0  0  0  0  0
   41.6357  113.2252   51.6340 O   0  0  0  0  0  0  0  0  0  0  0  0
   41.2935  112.5355   52.8239 C   0  0  0  0  0  0  0  0  0  0  0  0
   42.2034  112.6749   53.8806 C   0  0  0  0  0  0  0  0  0  0  0  0
   42.0261  111.9578   55.0423 C   0  0  0  0  0  0  0  0  0  0  0  0
   40.9326  111.0665   55.1491 C   0  0  0  0  0  0  0  0  0  0  0  0
   40.0384  110.8946   54.0914 C   0  0  0  0  0  0  0  0  0  0  0  0
   40.2114  111.6346   52.9180 C   0  0  0  0  0  0  0  0  0  0  0  0
   38.8263  109.9307   54.3071 C   0  0  0  0  0  0  0  0  0  0  0  0
   38.8016  108.5731   53.5150 C   0  0  0  0  0  0  0  0  0  0  0  0
   39.4726  107.4316   54.1237 N   0  0  0  0  0  0  0  0  0  0  0  0
   38.7230  106.4226   54.8364 C   0  0  0  0  0  0  0  0  0  0  0  0
   37.3316  106.7672   55.2488 C   0  0  0  0  0  0  0  0  0  0  0  0
   36.5937  107.4498   54.1623 C   0  0  0  0  0  0  0  0  0  0  0  0
   37.2828  108.3255   53.2741 C   0  0  0  0  0  0  0  0  0  0  0  0
   35.2081  107.2229   54.0455 C   0  0  0  0  0  0  0  0  0  0  0  0
   34.5121  107.8679   53.0479 C   0  0  0  0  0  0  0  0  0  0  0  0
   35.1904  108.7604   52.1438 C   0  0  0  0  0  0  0  0  0  0  0  0
   36.5860  109.0004   52.2733 C   0  0  0  0  0  0  0  0  0  0  0  0
   37.2744  109.8177   51.3401 O   0  0  0  0  0  0  0  0  0  0  0  0
   37.0689  111.2016   51.4139 C   0  0  0  0  0  0  0  0  0  0  0  0
   37.4455  111.9814   50.2930 C   0  0  0  0  0  0  0  0  0  0  0  0
   37.2645  113.3645   50.2932 C   0  0  0  0  0  0  0  0  0  0  0  0
   36.7227  113.9918   51.3931 C   0  0  0  0  0  0  0  0  0  0  0  0
   36.3480  113.2156   52.5357 C   0  0  0  0  0  0  0  0  0  0  0  0
   36.5165  111.8340   52.5423 C   0  0  0  0  0  0  0  0  0  0  0  0
   36.5303  115.4946   51.3657 C   0  0  0  0  0  0  0  0  0  0  0  0
   43.2545  113.5579   53.7240 O   0  0  0  0  0  0  0  0  0  0  0  0
   34.4708  109.4382   51.1874 O   0  0  0  0  0  0  0  0  0  0  0  0
   36.6143  118.5231   52.9921 C   0  0  0  0  0  0  0  0  0  0  0  0
   40.5445  107.9034   55.0255 C   0  0  0  0  0  0  0  0  0  0  0  0
   40.0980  106.6483   53.0422 C   0  0  0  0  0  0  0  0  0  0  0  0
   38.2576  117.6965   52.8435 H   0  0  0  0  0  0  0  0  0  0  0  0
   43.3514  114.0334   52.9224 H   0  0  0  0  0  0  0  0  0  0  0  0
   33.5509  109.2846   51.0969 H   0  0  0  0  0  0  0  0  0  0  0  0
   42.6496  114.9431   49.6943 O   0  0  0  0  0  0  0  0  0  0  0  0
   43.4848  115.9612   49.1706 C   0  0  0  0  0  0  0  0  0  0  0  0
   33.1551  107.6415   52.9417 O   0  0  0  0  0  0  0  0  0  0  0  0
   32.5431  106.8405   53.8631 C   0  0  0  0  0  0  0  0  0  0  0  0
  1  2  1  0  0  0
  1  6  1  0  0  0
  1 39  1  0  0  0
  2  3  1  0  0  0
  3  4  1  0  0  0
  4  5  1  0  0  0
  4  7  2  0  0  0
  5  6  1  0  0  0
  5 10  2  0  0  0
  6 36  1  0  0  0
  7  8  1  0  0  0
  8  9  2  0  0  0
  8 45  1  0  0  0
  9 10  1  0  0  0
  9 11  1  0  0  0
 11 12  1  0  0  0
 12 13  1  0  0  0
 12 17  2  0  0  0
 13 14  2  0  0  0
 13 37  1  0  0  0
 14 15  1  0  0  0
 15 16  2  0  0  0
 16 17  1  0  0  0
 16 18  1  0  0  0
 18 19  1  0  0  0
 19 20  1  0  0  0
 19 24  1  0  0  0
 20 21  1  0  0  0
 20 40  1  0  0  0
 20 41  1  0  0  0
 21 22  1  0  0  0
 22 23  1  0  0  0
 23 24  1  0  0  0
 23 25  2  0  0  0
 24 28  2  0  0  0
 25 26  1  0  0  0
 26 27  2  0  0  0
 26 47  1  0  0  0
 27 28  1  0  0  0
 27 38  1  0  0  0
 28 29  1  0  0  0
 29 30  1  0  0  0
 30 31  1  0  0  0
 30 35  2  0  0  0
 31 32  2  0  0  0
 32 33  1  0  0  0
 33 34  2  0  0  0
 33 36  1  0  0  0
 34 35  1  0  0  0
 45 46  1  0  0  0
 47 48  1  0  0  0
  1 42  1  0  0  0
 37 43  1  0  0  0
 38 44  1  0  0  0
M  CHG 1   1   1
M  CHG 1  20   1
M  END
> <minimizedAffinity>
-10.83930

$$$$
2XYT_TC9_B_1206


 48 54  0  0  0  0  0  0  0  0999 V2000
   40.5835  118.6829   52.0834 N   0  0  0  0  0  0  0  0  0  0  0  0
   41.0337  119.1485   50.8141 C   0  0  0  0  0  0  0  0  0  0  0  0
   42.3963  118.6252   50.4665 C   0  0  0  0  0  0  0  0  0  0  0  0
   42.7262  117.2889   51.0687 C   0  0  0  0  0  0  0  0  0  0  0  0
   41.7936  116.5816   51.8801 C   0  0  0  0  0  0  0  0  0  0  0  0
   40.4586  117.1754   52.0914 C   0  0  0  0  0  0  0  0  0  0  0  0
   43.9893  116.6965   50.8122 C   0  0  0  0  0  0  0  0  0  0  0  0
   44.3021  115.4313   51.3796 C   0  0  0  0  0  0  0  0  0  0  0  0
   43.3465  114.7474   52.1909 C   0  0  0  0  0  0  0  0  0  0  0  0
   42.0759  115.3139   52.4471 C   0  0  0  0  0  0  0  0  0  0  0  0
   43.6992  113.4612   52.6628 O   0  0  0  0  0  0  0  0  0  0  0  0
   42.9016  112.9151   53.6993 C   0  0  0  0  0  0  0  0  0  0  0  0
   43.4901  112.9134   54.9712 C   0  0  0  0  0  0  0  0  0  0  0  0
   42.8491  112.3050   56.0267 C   0  0  0  0  0  0  0  0  0  0  0  0
   41.6058  111.6657   55.8099 C   0  0  0  0  0  0  0  0  0  0  0  0
   41.0254  111.6323   54.5411 C   0  0  0  0  0  0  0  0  0  0  0  0
   41.6705  112.2633   53.4734 C   0  0  0  0  0  0  0  0  0  0  0  0
   39.6253  110.9517   54.3944 C   0  0  0  0  0  0  0  0  0  0  0  0
   39.5342  109.5924   53.6102 C   0  0  0  0  0  0  0  0  0  0  0  0
   39.7515  108.3671   54.3688 N   0  0  0  0  0  0  0  0  0  0  0  0
   38.6372  107.5706   54.8287 C   0  0  0  0  0  0  0  0  0  0  0  0
   37.2921  108.2151   54.8368 C   0  0  0  0  0  0  0  0  0  0  0  0
   37.0475  108.9830   53.5952 C   0  0  0  0  0  0  0  0  0  0  0  0
   38.1256  109.6534   52.9483 C   0  0  0  0  0  0  0  0  0  0  0  0
   35.7336  109.0426   53.0900 C   0  0  0  0  0  0  0  0  0  0  0  0
   35.4956  109.7692   51.9451 C   0  0  0  0  0  0  0  0  0  0  0  0
   36.5716  110.4576   51.2800 C   0  0  0  0  0  0  0  0  0  0  0  0
   37.8941  110.4092   51.8004 C   0  0  0  0  0  0  0  0  0  0  0  0
   38.9717  111.0207   51.1093 O   0  0  0  0  0  0  0  0  0  0  0  0
   39.0523  112.4190   51.1398 C   0  0  0  0  0  0  0  0  0  0  0  0
   39.8820  113.0493   50.1803 C   0  0  0  0  0  0  0  0  0  0  0  0
   40.0058  114.4383   50.1470 C   0  0  0  0  0  0  0  0  0  0  0  0
   39.3257  115.2162   51.0576 C   0  0  0  0  0  0  0  0  0  0  0  0
   38.4925  114.5900   52.0385 C   0  0  0  0  0  0  0  0  0  0  0  0
   38.3555  113.2054   52.0748 C   0  0  0  0  0  0  0  0  0  0  0  0
   39.4720  116.7231   50.9962 C   0  0  0  0  0  0  0  0  0  0  0  0
   44.7057  113.5511   55.1281 O   0  0  0  0  0  0  0  0  0  0  0  0
   36.3069  111.2231   50.1683 O   0  0  0  0  0  0  0  0  0  0  0  0
   39.7414  119.7430   52.6187 C   0  0  0  0  0  0  0  0  0  0  0  0
   40.6053  108.6493   55.5419 C   0  0  0  0  0  0  0  0  0  0  0  0
   40.4718  107.4205   53.4974 C   0  0  0  0  0  0  0  0  0  0  0  0
   41.1469  118.5878   52.9284 H   0  0  0  0  0  0  0  0  0  0  0  0
   45.1202  113.9572   54.3924 H   0  0  0  0  0  0  0  0  0  0  0  0
   35.4376  111.2592   49.8205 H   0  0  0  0  0  0  0  0  0  0  0  0
   45.5525  114.8370   51.1091 O   0  0  0  0  0  0  0  0  0  0  0  0
   46.7047  115.1977   51.8511 C   0  0  0  0  0  0  0  0  0  0  0  0
   34.2056  109.8240   51.4581 O   0  0  0  0  0  0  0  0  0  0  0  0
   33.2354  109.0807   52.0676 C   0  0  0  0  0  0  0  0  0  0  0  0
  1  2  1  0  0  0
  1  6  1  0  0  0
  1 39  1  0  0  0
  2  3  1  0  0  0
  3  4  1  0  0  0
  4  5  1  0  0  0
  4  7  2  0  0  0
  5  6  1  0  0  0
  5 10  2  0  0  0
  6 36  1  0  0  0
  7  8  1  0  0  0
  8  9  2  0  0  0
  8 45  1  0  0  0
  9 10  1  0  0  0
  9 11  1  0  0  0
 11 12  1  0  0  0
 12 13  1  0  0  0
 12 17  2  0  0  0
 13 14  2  0  0  0
 13 37  1  0  0  0
 14 15  1  0  0  0
 15 16  2  0  0  0
 16 17  1  0  0  0
 16 18  1  0  0  0
 18 19  1  0  0  0
 19 20  1  0  0  0
 19 24  1  0  0  0
 20 21  1  0  0  0
 20 40  1  0  0  0
 20 41  1  0  0  0
 21 22  1  0  0  0
 22 23  1  0  0  0
 23 24  1  0  0  0
 23 25  2  0  0  0
 24 28  2  0  0  0
 25 26  1  0  0  0
 26 27  2  0  0  0
 26 47  1  0  0  0
 27 28  1  0  0  0
 27 38  1  0  0  0
 28 29  1  0  0  0
 29 30  1  0  0  0
 30 31  1  0  0  0
 30 35  2  0  0  0
 31 32  2  0  0  0
 32 33  1  0  0  0
 33 34  2  0  0  0
 33 36  1  0  0  0
 34 35  1  0  0  0
 45 46  1  0  0  0
 47 48  1  0  0  0
  1 42  1  0  0  0
 37 43  1  0  0  0
 38 44  1  0  0  0
M  CHG 1   1   1
M  CHG 1  20   1
M  END
> <minimizedAffinity>
-10.16861

$$$$
2XYT_TC9_B_1206


 48 54  0  0  0  0  0  0  0  0999 V2000
   37.4725  115.8958   51.4862 N   0  0  0  0  0  0  0  0  0  0  0  0
   38.0261  116.2260   50.2154 C   0  0  0  0  0  0  0  0  0  0  0  0
   39.5009  115.9571   50.1499 C   0  0  0  0  0  0  0  0  0  0  0  0
   39.9747  114.8445   51.0415 C   0  0  0  0  0  0  0  0  0  0  0  0
   39.0733  114.1007   51.8555 C   0  0  0  0  0  0  0  0  0  0  0  0
   37.6341  114.4203   51.7779 C   0  0  0  0  0  0  0  0  0  0  0  0
   41.3513  114.5032   51.0661 C   0  0  0  0  0  0  0  0  0  0  0  0
   41.8008  113.4495   51.9076 C   0  0  0  0  0  0  0  0  0  0  0  0
   40.8726  112.7232   52.7139 C   0  0  0  0  0  0  0  0  0  0  0  0
   39.4937  113.0379   52.6933 C   0  0  0  0  0  0  0  0  0  0  0  0
   41.3802  111.6417   53.4717 O   0  0  0  0  0  0  0  0  0  0  0  0
   40.5428  111.1200   54.4891 C   0  0  0  0  0  0  0  0  0  0  0  0
   40.9074  111.4600   55.7989 C   0  0  0  0  0  0  0  0  0  0  0  0
   40.2303  110.9152   56.8665 C   0  0  0  0  0  0  0  0  0  0  0  0
   39.1814  109.9961   56.6289 C   0  0  0  0  0  0  0  0  0  0  0  0
   38.8307  109.6247   55.3301 C   0  0  0  0  0  0  0  0  0  0  0  0
   39.5095  110.1900   54.2465 C   0  0  0  0  0  0  0  0  0  0  0  0
   37.6263  108.6440   55.1493 C   0  0  0  0  0  0  0  0  0  0  0  0
   37.9208  107.1844   54.6455 C   0  0  0  0  0  0  0  0  0  0  0  0
   38.2393  106.1809   55.6531 N   0  0  0  0  0  0  0  0  0  0  0  0
   37.2355  105.2526   56.1205 C   0  0  0  0  0  0  0  0  0  0  0  0
   35.8099  105.5845   55.8340 C   0  0  0  0  0  0  0  0  0  0  0  0
   35.6291  106.0606   54.4441 C   0  0  0  0  0  0  0  0  0  0  0  0
   36.6519  106.8281   53.8154 C   0  0  0  0  0  0  0  0  0  0  0  0
   34.4268  105.7499   53.7785 C   0  0  0  0  0  0  0  0  0  0  0  0
   34.2446  106.2040   52.4916 C   0  0  0  0  0  0  0  0  0  0  0  0
   35.2649  106.9853   51.8415 C   0  0  0  0  0  0  0  0  0  0  0  0
   36.4709  107.3113   52.5207 C   0  0  0  0  0  0  0  0  0  0  0  0
   37.5115  108.0145   51.8607 O   0  0  0  0  0  0  0  0  0  0  0  0
   37.3213  109.3820   51.6228 C   0  0  0  0  0  0  0  0  0  0  0  0
   38.1616  110.0046   50.6674 C   0  0  0  0  0  0  0  0  0  0  0  0
   38.0253  111.3616   50.3747 C   0  0  0  0  0  0  0  0  0  0  0  0
   37.0727  112.1174   51.0215 C   0  0  0  0  0  0  0  0  0  0  0  0
   36.2249  111.5016   51.9964 C   0  0  0  0  0  0  0  0  0  0  0  0
   36.3470  110.1464   52.2895 C   0  0  0  0  0  0  0  0  0  0  0  0
   36.9406  113.5879   50.6807 C   0  0  0  0  0  0  0  0  0  0  0  0
   41.9395  112.3614   55.9753 O   0  0  0  0  0  0  0  0  0  0  0  0
   35.0442  107.4768   50.5760 O   0  0  0  0  0  0  0  0  0  0  0  0
   36.3705  116.8246   51.6920 C   0  0  0  0  0  0  0  0  0  0  0  0
   38.8236  106.8343   56.8433 C   0  0  0  0  0  0  0  0  0  0  0  0
   39.2563  105.2780   55.0829 C   0  0  0  0  0  0  0  0  0  0  0  0
   37.8994  116.0683   52.3964 H   0  0  0  0  0  0  0  0  0  0  0  0
   42.3835  112.7169   55.2307 H   0  0  0  0  0  0  0  0  0  0  0  0
   34.2515  107.2657   50.1231 H   0  0  0  0  0  0  0  0  0  0  0  0
   43.1677  113.1012   51.9173 O   0  0  0  0  0  0  0  0  0  0  0  0
   44.1011  113.8408   52.6855 C   0  0  0  0  0  0  0  0  0  0  0  0
   33.0634  105.8968   51.8477 O   0  0  0  0  0  0  0  0  0  0  0  0
   32.9536  104.6988   51.2014 C   0  0  0  0  0  0  0  0  0  0  0  0
  1  2  1  0  0  0
  1  6  1  0  0  0
  1 39  1  0  0  0
  2  3  1  0  0  0
  3  4  1  0  0  0
  4  5  1  0  0  0
  4  7  2  0  0  0
  5  6  1  0  0  0
  5 10  2  0  0  0
  6 36  1  0  0  0
  7  8  1  0  0  0
  8  9  2  0  0  0
  8 45  1  0  0  0
  9 10  1  0  0  0
  9 11  1  0  0  0
 11 12  1  0  0  0
 12 13  1  0  0  0
 12 17  2  0  0  0
 13 14  2  0  0  0
 13 37  1  0  0  0
 14 15  1  0  0  0
 15 16  2  0  0  0
 16 17  1  0  0  0
 16 18  1  0  0  0
 18 19  1  0  0  0
 19 20  1  0  0  0
 19 24  1  0  0  0
 20 21  1  0  0  0
 20 40  1  0  0  0
 20 41  1  0  0  0
 21 22  1  0  0  0
 22 23  1  0  0  0
 23 24  1  0  0  0
 23 25  2  0  0  0
 24 28  2  0  0  0
 25 26  1  0  0  0
 26 27  2  0  0  0
 26 47  1  0  0  0
 27 28  1  0  0  0
 27 38  1  0  0  0
 28 29  1  0  0  0
 29 30  1  0  0  0
 30 31  1  0  0  0
 30 35  2  0  0  0
 31 32  2  0  0  0
 32 33  1  0  0  0
 33 34  2  0  0  0
 33 36  1  0  0  0
 34 35  1  0  0  0
 45 46  1  0  0  0
 47 48  1  0  0  0
  1 42  1  0  0  0
 37 43  1  0  0  0
 38 44  1  0  0  0
M  CHG 1   1   1
M  CHG 1  20   1
M  END
> <minimizedAffinity>
-10.10752

$$$$
2XYT_TC9_B_1206


 48 54  0  0  0  0  0  0  0  0999 V2000
   37.6861  108.4001   57.5842 N   0  0  0  0  0  0  0  0  0  0  0  0
   38.1457  107.0548   57.6807 C   0  0  0  0  0  0  0  0  0  0  0  0
   37.9610  106.2969   56.3989 C   0  0  0  0  0  0  0  0  0  0  0  0
   38.0065  107.1438   55.1588 C   0  0  0  0  0  0  0  0  0  0  0  0
   38.2346  108.5483   55.2181 C   0  0  0  0  0  0  0  0  0  0  0  0
   38.4692  109.1638   56.5393 C   0  0  0  0  0  0  0  0  0  0  0  0
   37.8397  106.5360   53.8879 C   0  0  0  0  0  0  0  0  0  0  0  0
   37.8845  107.3355   52.7135 C   0  0  0  0  0  0  0  0  0  0  0  0
   38.1130  108.7422   52.8057 C   0  0  0  0  0  0  0  0  0  0  0  0
   38.2963  109.3657   54.0621 C   0  0  0  0  0  0  0  0  0  0  0  0
   38.2164  109.4628   51.5926 O   0  0  0  0  0  0  0  0  0  0  0  0
   38.1375  110.8754   51.6747 C   0  0  0  0  0  0  0  0  0  0  0  0
   36.9296  111.4351   51.2366 C   0  0  0  0  0  0  0  0  0  0  0  0
   36.7882  112.8027   51.1677 C   0  0  0  0  0  0  0  0  0  0  0  0
   37.8776  113.6330   51.5217 C   0  0  0  0  0  0  0  0  0  0  0  0
   39.0961  113.0871   51.9281 C   0  0  0  0  0  0  0  0  0  0  0  0
   39.2333  111.6983   52.0117 C   0  0  0  0  0  0  0  0  0  0  0  0
   40.2340  114.0719   52.3526 C   0  0  0  0  0  0  0  0  0  0  0  0
   41.4970  114.1979   51.4253 C   0  0  0  0  0  0  0  0  0  0  0  0
   41.4335  115.1652   50.3370 N   0  0  0  0  0  0  0  0  0  0  0  0
   42.0483  116.4667   50.4630 C   0  0  0  0  0  0  0  0  0  0  0  0
   42.4094  116.9232   51.8363 C   0  0  0  0  0  0  0  0  0  0  0  0
   43.0534  115.8440   52.6184 C   0  0  0  0  0  0  0  0  0  0  0  0
   42.6518  114.4901   52.4289 C   0  0  0  0  0  0  0  0  0  0  0  0
   44.0486  116.1934   53.5525 C   0  0  0  0  0  0  0  0  0  0  0  0
   44.6399  115.1966   54.2958 C   0  0  0  0  0  0  0  0  0  0  0  0
   44.2436  113.8230   54.1218 C   0  0  0  0  0  0  0  0  0  0  0  0
   43.2277  113.4743   53.1899 C   0  0  0  0  0  0  0  0  0  0  0  0
   42.8864  112.1169   52.9582 O   0  0  0  0  0  0  0  0  0  0  0  0
   42.1506  111.4545   53.9495 C   0  0  0  0  0  0  0  0  0  0  0  0
   42.1175  110.0391   53.9061 C   0  0  0  0  0  0  0  0  0  0  0  0
   41.4102  109.3126   54.8640 C   0  0  0  0  0  0  0  0  0  0  0  0
   40.7247  109.9676   55.8631 C   0  0  0  0  0  0  0  0  0  0  0  0
   40.7422  111.3979   55.9110 C   0  0  0  0  0  0  0  0  0  0  0  0
   41.4520  112.1318   54.9651 C   0  0  0  0  0  0  0  0  0  0  0  0
   39.9694  109.1552   56.8953 C   0  0  0  0  0  0  0  0  0  0  0  0
   35.8978  110.5792   50.9020 O   0  0  0  0  0  0  0  0  0  0  0  0
   44.8057  112.8464   54.9106 O   0  0  0  0  0  0  0  0  0  0  0  0
   37.2157  108.7549   58.9155 C   0  0  0  0  0  0  0  0  0  0  0  0
   40.0262  115.3793   49.9389 C   0  0  0  0  0  0  0  0  0  0  0  0
   42.1519  114.5923   49.1837 C   0  0  0  0  0  0  0  0  0  0  0  0
   36.8421  108.7194   57.1086 H   0  0  0  0  0  0  0  0  0  0  0  0
   36.0213  109.6521   50.9580 H   0  0  0  0  0  0  0  0  0  0  0  0
   45.4755  113.0696   55.5266 H   0  0  0  0  0  0  0  0  0  0  0  0
   37.7352  106.7261   51.4502 O   0  0  0  0  0  0  0  0  0  0  0  0
   37.3883  105.3564   51.3401 C   0  0  0  0  0  0  0  0  0  0  0  0
   45.6123  115.5476   55.2097 O   0  0  0  0  0  0  0  0  0  0  0  0
   46.9037  115.6793   54.7852 C   0  0  0  0  0  0  0  0  0  0  0  0
  1  2  1  0  0  0
  1  6  1  0  0  0
  1 39  1  0  0  0
  2  3  1  0  0  0
  3  4  1  0  0  0
  4  5  1  0  0  0
  4  7  2  0  0  0
  5  6  1  0  0  0
  5 10  2  0  0  0
  6 36  1  0  0  0
  7  8  1  0  0  0
  8  9  2  0  0  0
  8 45  1  0  0  0
  9 10  1  0  0  0
  9 11  1  0  0  0
 11 12  1  0  0  0
 12 13  1  0  0  0
 12 17  2  0  0  0
 13 14  2  0  0  0
 13 37  1  0  0  0
 14 15  1  0  0  0
 15 16  2  0  0  0
 16 17  1  0  0  0
 16 18  1  0  0  0
 18 19  1  0  0  0
 19 20  1  0  0  0
 19 24  1  0  0  0
 20 21  1  0  0  0
 20 40  1  0  0  0
 20 41  1  0  0  0
 21 22  1  0  0  0
 22 23  1  0  0  0
 23 24  1  0  0  0
 23 25  2  0  0  0
 24 28  2  0  0  0
 25 26  1  0  0  0
 26 27  2  0  0  0
 26 47  1  0  0  0
 27 28  1  0  0  0
 27 38  1  0  0  0
 28 29  1  0  0  0
 29 30  1  0  0  0
 30 31  1  0  0  0
 30 35  2  0  0  0
 31 32  2  0  0  0
 32 33  1  0  0  0
 33 34  2  0  0  0
 33 36  1  0  0  0
 34 35  1  0  0  0
 45 46  1  0  0  0
 47 48  1  0  0  0
  1 42  1  0  0  0
 37 43  1  0  0  0
 38 44  1  0  0  0
M  CHG 1   1   1
M  CHG 1  20   1
M  END
> <minimizedAffinity>
-8.92036

$$$$
