1YDB_AZM_A_264
  RCSB PDB12061704443D
Coordinates from PDB:1YDB:A:264 Model:1 without hydrogens
 13 13  0  0  0  0            999 V2000
   -5.0120    2.2110   16.1310   C 0  0  0  0  0  0  0  0  0  0  0  0
   -4.4160    4.0180   14.9440   C 0  0  0  0  0  0  0  0  0  0  0  0
   -5.1680    5.7640   13.6410   C 0  0  0  0  0  0  0  0  0  0  0  0
   -4.6670    6.9100   12.7870   C 0  0  0  0  0  0  0  0  0  0  0  0
   -5.0980   -0.4120   16.2950   N 0  0  0  0  0  0  0  0  0  0  0  0
   -3.3660    3.4000   15.3680   N 0  0  0  0  0  0  0  0  0  0  0  0
   -3.7160    2.3010   16.0840   N 0  0  0  0  0  0  0  0  0  0  0  0
   -4.1580    5.0620   14.1790   N 0  0  0  0  0  0  0  0  0  0  0  0
   -5.4430    0.9180   18.4030   O 0  0  0  0  0  0  0  0  0  0  0  0
   -7.2490    0.9930   16.8390   O 0  0  0  0  0  0  0  0  0  0  0  0
   -6.3740    5.5610   13.7610   O 0  0  0  0  0  0  0  0  0  0  0  0
   -5.7750    0.8600   16.9770   S 0  0  0  0  0  0  0  0  0  0  0  0
   -5.9310    3.4180   15.3460   S 0  0  0  0  0  0  0  0  0  0  0  0
  1  7  2  0  0  0  0
  1 12  1  0  0  0  0
  1 13  1  0  0  0  0
  2  6  2  0  0  0  0
  2  8  1  0  0  0  0
  2 13  1  0  0  0  0
  3  4  1  0  0  0  0
  3  8  1  0  0  0  0
  3 11  2  0  0  0  0
  5 12  1  0  0  0  0
  6  7  1  0  0  0  0
  9 12  2  0  0  0  0
 10 12  2  0  0  0  0
A    1
C1
A    2
C2
A    3
C3
A    4
C4
A    5
N1
A    6
N2
A    7
N3
A    8
N4
A    9
O1
A   10
O2
A   11
O3
A   12
S1
A   13
S2
M  END
>  <InstanceId>
1YDB_AZM_A_264

>  <ChemCompId>
AZM

>  <PdbId>
1YDB

>  <ChainId>
A

>  <ResidueNumber>
264

>  <InsertionCode>


>  <Model>
1

>  <AltIds>


>  <MissingHeavyAtoms>
0

>  <ObservedFormula>
C4 N4 O3 S2

>  <Name>
5-ACETAMIDO-1,3,4-THIADIAZOLE-2-SULFONAMIDE

>  <SystematicName>
N-(5-sulfamoyl-1,3,4-thiadiazol-2-yl)ethanamide

>  <Synonyms>


>  <Type>
NON-POLYMER

>  <Formula>
C4 H6 N4 O3 S2

>  <MolecularWeight>
222.245

>  <ModifiedDate>
2011-06-04

>  <Parent>


>  <OneLetterCode>


>  <SubcomponentList>


>  <AmbiguousFlag>
N

>  <InChI>
InChI=1S/C4H6N4O3S2/c1-2(9)6-3-7-8-4(12-3)13(5,10)11/h1H3,(H2,5,10,11)(H,6,7,9)

>  <InChIKey>
BZKPWHYZMXOIDC-UHFFFAOYSA-N

>  <SMILES>
CC(=O)Nc1nnc(s1)S(=O)(=O)N

$$$$
