1YDB_AZM_A_264


 16 16  0  0  0  0  0  0  0  0999 V2000
   -3.5994    3.3797   12.7588 C   0  0  0  0  0  0  0  0  0  0  0  0
   -4.5596    2.7512   14.6856 C   0  0  0  0  0  0  0  0  0  0  0  0
   -3.5528    3.5222   14.9227 N   0  0  0  0  0  0  0  0  0  0  0  0
   -2.9672    3.9126   13.7619 N   0  0  0  0  0  0  0  0  0  0  0  0
   -4.9310    2.3642   13.0953 S   0  0  0  0  0  0  0  0  0  0  0  0
   -3.8641    2.6246   10.2539 N   0  0  0  0  0  0  0  0  0  0  0  0
   -3.5152    5.0722   10.7221 O   0  0  0  0  0  0  0  0  0  0  0  0
   -1.5990    3.6832   11.0573 O   0  0  0  0  0  0  0  0  0  0  0  0
   -3.0841    3.7248   11.1040 S   0  0  0  0  0  0  0  0  0  0  0  0
   -4.8691    2.7571   10.3669 H   0  0  0  0  0  0  0  0  0  0  0  0
   -3.6048    1.6943   10.5824 H   0  0  0  0  0  0  0  0  0  0  0  0
   -4.8002    1.3381   16.4903 C   0  0  0  0  0  0  0  0  0  0  0  0
   -5.7048    1.0676   17.6744 C   0  0  0  0  0  0  0  0  0  0  0  0
   -5.2260    2.3836   15.7638 N   0  0  0  0  0  0  0  0  0  0  0  0
   -3.8208    0.6256   16.2824 O   0  0  0  0  0  0  0  0  0  0  0  0
   -6.0345    2.8756   16.0350 H   0  0  0  0  0  0  0  0  0  0  0  0
  1  4  2  0  0  0
  1  9  1  0  0  0
  1  5  1  0  0  0
  2  3  2  0  0  0
  2 14  1  0  0  0
  2  5  1  0  0  0
 12 13  1  0  0  0
 12 14  1  0  0  0
 12 15  2  0  0  0
  6  9  1  0  0  0
  3  4  1  0  0  0
  7  9  2  0  0  0
  8  9  2  0  0  0
  6 10  1  0  0  0
  6 11  1  0  0  0
 14 16  1  0  0  0
M  END
> <minimizedAffinity>
-6.39187

$$$$
1YDB_AZM_A_264


 16 16  0  0  0  0  0  0  0  0999 V2000
   -4.3114    2.2842   12.8837 C   0  0  0  0  0  0  0  0  0  0  0  0
   -4.6488    1.9029   15.0678 C   0  0  0  0  0  0  0  0  0  0  0  0
   -4.2952    0.8121   14.4767 N   0  0  0  0  0  0  0  0  0  0  0  0
   -4.0835    1.0332   13.1542 N   0  0  0  0  0  0  0  0  0  0  0  0
   -4.8053    3.3060   14.1602 S   0  0  0  0  0  0  0  0  0  0  0  0
   -4.5719    1.6560   10.3436 N   0  0  0  0  0  0  0  0  0  0  0  0
   -4.9590    4.0493   11.0171 O   0  0  0  0  0  0  0  0  0  0  0  0
   -2.6822    3.3244   11.0801 O   0  0  0  0  0  0  0  0  0  0  0  0
   -4.0942    2.8871   11.2367 S   0  0  0  0  0  0  0  0  0  0  0  0
   -5.5520    1.4533   10.5404 H   0  0  0  0  0  0  0  0  0  0  0  0
   -4.0047    0.8369   10.5623 H   0  0  0  0  0  0  0  0  0  0  0  0
   -6.0421    1.7495   16.8972 C   0  0  0  0  0  0  0  0  0  0  0  0
   -6.0113    1.6262   18.4063 C   0  0  0  0  0  0  0  0  0  0  0  0
   -4.8068    1.7851   16.3727 N   0  0  0  0  0  0  0  0  0  0  0  0
   -7.1151    1.8192   16.3024 O   0  0  0  0  0  0  0  0  0  0  0  0
   -4.0197    1.7235   16.9608 H   0  0  0  0  0  0  0  0  0  0  0  0
  1  4  2  0  0  0
  1  9  1  0  0  0
  1  5  1  0  0  0
  2  3  2  0  0  0
  2 14  1  0  0  0
  2  5  1  0  0  0
 12 13  1  0  0  0
 12 14  1  0  0  0
 12 15  2  0  0  0
  6  9  1  0  0  0
  3  4  1  0  0  0
  7  9  2  0  0  0
  8  9  2  0  0  0
  6 10  1  0  0  0
  6 11  1  0  0  0
 14 16  1  0  0  0
M  END
> <minimizedAffinity>
-6.24731

$$$$
1YDB_AZM_A_264


 16 16  0  0  0  0  0  0  0  0999 V2000
   -4.4442    1.6638   14.2080 C   0  0  0  0  0  0  0  0  0  0  0  0
   -4.2386    2.5865   12.1744 C   0  0  0  0  0  0  0  0  0  0  0  0
   -4.0700    1.3096   12.1010 N   0  0  0  0  0  0  0  0  0  0  0  0
   -4.1975    0.7405   13.3268 N   0  0  0  0  0  0  0  0  0  0  0  0
   -4.5364    3.2830   13.6720 S   0  0  0  0  0  0  0  0  0  0  0  0
   -5.9318    2.1297   16.3257 N   0  0  0  0  0  0  0  0  0  0  0  0
   -5.0254   -0.1955   16.0038 O   0  0  0  0  0  0  0  0  0  0  0  0
   -3.4130    1.4530   16.6331 O   0  0  0  0  0  0  0  0  0  0  0  0
   -4.6878    1.2268   15.9030 S   0  0  0  0  0  0  0  0  0  0  0  0
   -6.7410    1.8815   15.7565 H   0  0  0  0  0  0  0  0  0  0  0  0
   -5.7030    3.1131   16.1808 H   0  0  0  0  0  0  0  0  0  0  0  0
   -3.0548    3.7711   10.5910 C   0  0  0  0  0  0  0  0  0  0  0  0
   -3.2173    4.4421    9.2430 C   0  0  0  0  0  0  0  0  0  0  0  0
   -4.1983    3.2059   11.0097 N   0  0  0  0  0  0  0  0  0  0  0  0
   -1.9727    3.8016   11.1725 O   0  0  0  0  0  0  0  0  0  0  0  0
   -5.0059    3.2535   10.4486 H   0  0  0  0  0  0  0  0  0  0  0  0
  1  4  2  0  0  0
  1  9  1  0  0  0
  1  5  1  0  0  0
  2  3  2  0  0  0
  2 14  1  0  0  0
  2  5  1  0  0  0
 12 13  1  0  0  0
 12 14  1  0  0  0
 12 15  2  0  0  0
  6  9  1  0  0  0
  3  4  1  0  0  0
  7  9  2  0  0  0
  8  9  2  0  0  0
  6 10  1  0  0  0
  6 11  1  0  0  0
 14 16  1  0  0  0
M  END
> <minimizedAffinity>
-5.94782

$$$$
1YDB_AZM_A_264


 16 16  0  0  0  0  0  0  0  0999 V2000
   -5.0204    2.9392   15.0869 C   0  0  0  0  0  0  0  0  0  0  0  0
   -5.1014    4.9948   14.1940 C   0  0  0  0  0  0  0  0  0  0  0  0
   -6.2896    4.5983   14.5024 N   0  0  0  0  0  0  0  0  0  0  0  0
   -6.2511    3.3562   15.0488 N   0  0  0  0  0  0  0  0  0  0  0  0
   -3.8032    3.9683   14.4730 S   0  0  0  0  0  0  0  0  0  0  0  0
   -4.3217    0.4774   14.4819 N   0  0  0  0  0  0  0  0  0  0  0  0
   -3.4632    1.4566   16.6350 O   0  0  0  0  0  0  0  0  0  0  0  0
   -5.7928    0.9222   16.6115 O   0  0  0  0  0  0  0  0  0  0  0  0
   -4.6440    1.3548   15.7734 S   0  0  0  0  0  0  0  0  0  0  0  0
   -3.5181    0.8730   13.9940 H   0  0  0  0  0  0  0  0  0  0  0  0
   -5.1305    0.4773   13.8605 H   0  0  0  0  0  0  0  0  0  0  0  0
   -5.0663    6.4327   12.3931 C   0  0  0  0  0  0  0  0  0  0  0  0
   -4.9812    7.9055   12.0510 C   0  0  0  0  0  0  0  0  0  0  0  0
   -5.0470    6.2250   13.7194 N   0  0  0  0  0  0  0  0  0  0  0  0
   -5.1267    5.5909   11.4999 O   0  0  0  0  0  0  0  0  0  0  0  0
   -4.9924    6.9896   14.3372 H   0  0  0  0  0  0  0  0  0  0  0  0
  1  4  2  0  0  0
  1  9  1  0  0  0
  1  5  1  0  0  0
  2  3  2  0  0  0
  2 14  1  0  0  0
  2  5  1  0  0  0
 12 13  1  0  0  0
 12 14  1  0  0  0
 12 15  2  0  0  0
  6  9  1  0  0  0
  3  4  1  0  0  0
  7  9  2  0  0  0
  8  9  2  0  0  0
  6 10  1  0  0  0
  6 11  1  0  0  0
 14 16  1  0  0  0
M  END
> <minimizedAffinity>
-5.94626

$$$$
1YDB_AZM_A_264


 16 16  0  0  0  0  0  0  0  0999 V2000
   -4.2838    3.7634   11.1896 C   0  0  0  0  0  0  0  0  0  0  0  0
   -4.3429    2.4685   13.0197 C   0  0  0  0  0  0  0  0  0  0  0  0
   -5.1134    1.9814   12.1069 N   0  0  0  0  0  0  0  0  0  0  0  0
   -5.0809    2.7556   10.9923 N   0  0  0  0  0  0  0  0  0  0  0  0
   -3.5121    3.8931   12.7079 S   0  0  0  0  0  0  0  0  0  0  0  0
   -5.4020    5.7219    9.8375 N   0  0  0  0  0  0  0  0  0  0  0  0
   -2.9289    5.8518   10.2829 O   0  0  0  0  0  0  0  0  0  0  0  0
   -3.5944    4.2112    8.6770 O   0  0  0  0  0  0  0  0  0  0  0  0
   -4.0128    4.9426    9.9015 S   0  0  0  0  0  0  0  0  0  0  0  0
   -5.5764    6.1801   10.7320 H   0  0  0  0  0  0  0  0  0  0  0  0
   -6.1539    5.0611    9.6418 H   0  0  0  0  0  0  0  0  0  0  0  0
   -4.9514    2.0912   15.2104 C   0  0  0  0  0  0  0  0  0  0  0  0
   -4.7208    1.1306   16.3584 C   0  0  0  0  0  0  0  0  0  0  0  0
   -4.2662    1.7331   14.1129 N   0  0  0  0  0  0  0  0  0  0  0  0
   -5.6826    3.0680   15.3564 O   0  0  0  0  0  0  0  0  0  0  0  0
   -3.7071    0.9228   14.1235 H   0  0  0  0  0  0  0  0  0  0  0  0
  1  4  2  0  0  0
  1  9  1  0  0  0
  1  5  1  0  0  0
  2  3  2  0  0  0
  2 14  1  0  0  0
  2  5  1  0  0  0
 12 13  1  0  0  0
 12 14  1  0  0  0
 12 15  2  0  0  0
  6  9  1  0  0  0
  3  4  1  0  0  0
  7  9  2  0  0  0
  8  9  2  0  0  0
  6 10  1  0  0  0
  6 11  1  0  0  0
 14 16  1  0  0  0
M  END
> <minimizedAffinity>
-5.75400

$$$$
1YDB_AZM_A_264


 16 16  0  0  0  0  0  0  0  0999 V2000
   -5.8658    2.2788   15.9575 C   0  0  0  0  0  0  0  0  0  0  0  0
   -4.8732    2.9668   14.0679 C   0  0  0  0  0  0  0  0  0  0  0  0
   -5.8074    3.7908   14.4032 N   0  0  0  0  0  0  0  0  0  0  0  0
   -6.4117    3.3858   15.5494 N   0  0  0  0  0  0  0  0  0  0  0  0
   -4.6016    1.6128   15.0217 S   0  0  0  0  0  0  0  0  0  0  0  0
   -5.3147    0.4009   17.7137 N   0  0  0  0  0  0  0  0  0  0  0  0
   -6.4377    2.4975   18.5352 O   0  0  0  0  0  0  0  0  0  0  0  0
   -7.8176    1.0385   17.2387 O   0  0  0  0  0  0  0  0  0  0  0  0
   -6.4250    1.5139   17.4492 S   0  0  0  0  0  0  0  0  0  0  0  0
   -4.4075    0.8494   17.8419 H   0  0  0  0  0  0  0  0  0  0  0  0
   -5.2711   -0.2324   16.9154 H   0  0  0  0  0  0  0  0  0  0  0  0
   -4.5060    2.8177   11.7975 C   0  0  0  0  0  0  0  0  0  0  0  0
   -3.5999    3.3440   10.7040 C   0  0  0  0  0  0  0  0  0  0  0  0
   -4.1902    3.3287   12.9981 N   0  0  0  0  0  0  0  0  0  0  0  0
   -5.3914    2.0076   11.5330 O   0  0  0  0  0  0  0  0  0  0  0  0
   -3.4501    3.9726   13.0805 H   0  0  0  0  0  0  0  0  0  0  0  0
  1  4  2  0  0  0
  1  9  1  0  0  0
  1  5  1  0  0  0
  2  3  2  0  0  0
  2 14  1  0  0  0
  2  5  1  0  0  0
 12 13  1  0  0  0
 12 14  1  0  0  0
 12 15  2  0  0  0
  6  9  1  0  0  0
  3  4  1  0  0  0
  7  9  2  0  0  0
  8  9  2  0  0  0
  6 10  1  0  0  0
  6 11  1  0  0  0
 14 16  1  0  0  0
M  END
> <minimizedAffinity>
-5.66411

$$$$
1YDB_AZM_A_264


 16 16  0  0  0  0  0  0  0  0999 V2000
   -5.8652    2.3196   16.0019 C   0  0  0  0  0  0  0  0  0  0  0  0
   -4.8728    3.0197   14.1166 C   0  0  0  0  0  0  0  0  0  0  0  0
   -5.8210    3.8301   14.4458 N   0  0  0  0  0  0  0  0  0  0  0  0
   -6.4253    3.4177   15.5894 N   0  0  0  0  0  0  0  0  0  0  0  0
   -4.5861    1.6712   15.0738 S   0  0  0  0  0  0  0  0  0  0  0  0
   -5.3089    0.4356   17.7500 N   0  0  0  0  0  0  0  0  0  0  0  0
   -6.4325    2.5280   18.5815 O   0  0  0  0  0  0  0  0  0  0  0  0
   -7.8133    1.0726   17.2821 O   0  0  0  0  0  0  0  0  0  0  0  0
   -6.4208    1.5485   17.4918 S   0  0  0  0  0  0  0  0  0  0  0  0
   -4.4020    0.8845   17.8782 H   0  0  0  0  0  0  0  0  0  0  0  0
   -5.2662   -0.1946   16.9492 H   0  0  0  0  0  0  0  0  0  0  0  0
   -2.9764    3.9472   13.1918 C   0  0  0  0  0  0  0  0  0  0  0  0
   -2.3642    4.3146   11.8562 C   0  0  0  0  0  0  0  0  0  0  0  0
   -4.1897    3.3902   13.0500 N   0  0  0  0  0  0  0  0  0  0  0  0
   -2.3726    4.1810   14.2362 O   0  0  0  0  0  0  0  0  0  0  0  0
   -4.5694    3.2584   12.1512 H   0  0  0  0  0  0  0  0  0  0  0  0
  1  4  2  0  0  0
  1  9  1  0  0  0
  1  5  1  0  0  0
  2  3  2  0  0  0
  2 14  1  0  0  0
  2  5  1  0  0  0
 12 13  1  0  0  0
 12 14  1  0  0  0
 12 15  2  0  0  0
  6  9  1  0  0  0
  3  4  1  0  0  0
  7  9  2  0  0  0
  8  9  2  0  0  0
  6 10  1  0  0  0
  6 11  1  0  0  0
 14 16  1  0  0  0
M  END
> <minimizedAffinity>
-5.34112

$$$$
1YDB_AZM_A_264


 16 16  0  0  0  0  0  0  0  0999 V2000
   -3.8864    3.8015   12.5954 C   0  0  0  0  0  0  0  0  0  0  0  0
   -3.5175    5.7808   13.5833 C   0  0  0  0  0  0  0  0  0  0  0  0
   -3.2859    4.8209   14.4135 N   0  0  0  0  0  0  0  0  0  0  0  0
   -3.5016    3.6175   13.8234 N   0  0  0  0  0  0  0  0  0  0  0  0
   -4.0383    5.4070   12.0322 S   0  0  0  0  0  0  0  0  0  0  0  0
   -3.2387    1.2960   12.1291 N   0  0  0  0  0  0  0  0  0  0  0  0
   -5.6186    2.0004   11.7153 O   0  0  0  0  0  0  0  0  0  0  0  0
   -4.0193    2.8254   10.1421 O   0  0  0  0  0  0  0  0  0  0  0  0
   -4.2216    2.4124   11.5556 S   0  0  0  0  0  0  0  0  0  0  0  0
   -3.4769    1.1003   13.1014 H   0  0  0  0  0  0  0  0  0  0  0  0
   -2.2764    1.6301   12.0755 H   0  0  0  0  0  0  0  0  0  0  0  0
   -2.0424    7.5213   13.9097 C   0  0  0  0  0  0  0  0  0  0  0  0
   -1.9479    8.8958   14.5386 C   0  0  0  0  0  0  0  0  0  0  0  0
   -3.2633    6.9841   14.0620 N   0  0  0  0  0  0  0  0  0  0  0  0
   -1.0638    7.0229   13.3584 O   0  0  0  0  0  0  0  0  0  0  0  0
   -3.9681    7.4872   14.5304 H   0  0  0  0  0  0  0  0  0  0  0  0
  1  4  2  0  0  0
  1  9  1  0  0  0
  1  5  1  0  0  0
  2  3  2  0  0  0
  2 14  1  0  0  0
  2  5  1  0  0  0
 12 13  1  0  0  0
 12 14  1  0  0  0
 12 15  2  0  0  0
  6  9  1  0  0  0
  3  4  1  0  0  0
  7  9  2  0  0  0
  8  9  2  0  0  0
  6 10  1  0  0  0
  6 11  1  0  0  0
 14 16  1  0  0  0
M  END
> <minimizedAffinity>
-5.19633

$$$$
1YDB_AZM_A_264


 16 16  0  0  0  0  0  0  0  0999 V2000
   -5.8393    2.2572   16.1017 C   0  0  0  0  0  0  0  0  0  0  0  0
   -4.9418    2.9508   14.1671 C   0  0  0  0  0  0  0  0  0  0  0  0
   -5.8669    3.7669   14.5444 N   0  0  0  0  0  0  0  0  0  0  0  0
   -6.4136    3.3585   15.7180 N   0  0  0  0  0  0  0  0  0  0  0  0
   -4.6138    1.6010   15.1091 S   0  0  0  0  0  0  0  0  0  0  0  0
   -7.7668    0.9098   17.2780 N   0  0  0  0  0  0  0  0  0  0  0  0
   -5.3929    0.4032   17.9411 O   0  0  0  0  0  0  0  0  0  0  0  0
   -6.2418    2.5038   18.7029 O   0  0  0  0  0  0  0  0  0  0  0  0
   -6.3216    1.4899   17.6189 S   0  0  0  0  0  0  0  0  0  0  0  0
   -7.6902    0.2281   16.5231 H   0  0  0  0  0  0  0  0  0  0  0  0
   -8.3791    1.6719   16.9870 H   0  0  0  0  0  0  0  0  0  0  0  0
   -3.0982    3.8837   13.1459 C   0  0  0  0  0  0  0  0  0  0  0  0
   -2.5526    4.2439   11.7798 C   0  0  0  0  0  0  0  0  0  0  0  0
   -4.3126    3.3170   13.0663 N   0  0  0  0  0  0  0  0  0  0  0  0
   -2.4475    4.1310   14.1586 O   0  0  0  0  0  0  0  0  0  0  0  0
   -4.7334    3.1746   12.1877 H   0  0  0  0  0  0  0  0  0  0  0  0
  1  4  2  0  0  0
  1  9  1  0  0  0
  1  5  1  0  0  0
  2  3  2  0  0  0
  2 14  1  0  0  0
  2  5  1  0  0  0
 12 13  1  0  0  0
 12 14  1  0  0  0
 12 15  2  0  0  0
  6  9  1  0  0  0
  3  4  1  0  0  0
  7  9  2  0  0  0
  8  9  2  0  0  0
  6 10  1  0  0  0
  6 11  1  0  0  0
 14 16  1  0  0  0
M  END
> <minimizedAffinity>
-5.18272

$$$$
1YDB_AZM_A_264


 16 16  0  0  0  0  0  0  0  0999 V2000
   -3.1499    3.0687   11.9963 C   0  0  0  0  0  0  0  0  0  0  0  0
   -1.7882    4.8472   12.1063 C   0  0  0  0  0  0  0  0  0  0  0  0
   -1.1448    3.7758   12.4262 N   0  0  0  0  0  0  0  0  0  0  0  0
   -1.9594    2.6919   12.3579 N   0  0  0  0  0  0  0  0  0  0  0  0
   -3.4166    4.7324   11.7161 S   0  0  0  0  0  0  0  0  0  0  0  0
   -4.5341    1.7254   10.2091 N   0  0  0  0  0  0  0  0  0  0  0  0
   -4.0271    0.6019   12.4028 O   0  0  0  0  0  0  0  0  0  0  0  0
   -5.6454    2.3582   12.5028 O   0  0  0  0  0  0  0  0  0  0  0  0
   -4.4335    1.8710   11.7934 S   0  0  0  0  0  0  0  0  0  0  0  0
   -3.6453    1.3855    9.8418 H   0  0  0  0  0  0  0  0  0  0  0  0
   -4.7471    2.6338    9.7970 H   0  0  0  0  0  0  0  0  0  0  0  0
   -1.0653    6.7853   13.1225 C   0  0  0  0  0  0  0  0  0  0  0  0
   -0.1605    7.9786   12.8963 C   0  0  0  0  0  0  0  0  0  0  0  0
   -1.0455    5.9378   12.0815 N   0  0  0  0  0  0  0  0  0  0  0  0
   -1.7185    6.6899   14.1590 O   0  0  0  0  0  0  0  0  0  0  0  0
   -0.4777    6.1298   11.3005 H   0  0  0  0  0  0  0  0  0  0  0  0
  1  4  2  0  0  0
  1  9  1  0  0  0
  1  5  1  0  0  0
  2  3  2  0  0  0
  2 14  1  0  0  0
  2  5  1  0  0  0
 12 13  1  0  0  0
 12 14  1  0  0  0
 12 15  2  0  0  0
  6  9  1  0  0  0
  3  4  1  0  0  0
  7  9  2  0  0  0
  8  9  2  0  0  0
  6 10  1  0  0  0
  6 11  1  0  0  0
 14 16  1  0  0  0
M  END
> <minimizedAffinity>
-4.96495

$$$$
