4I7P_ES3_A_202


  7  7  0  0  0  0  0  0  0  0999 V2000
    4.6920    9.7418    0.6045 Br  0  0  0  0  0  0  0  0  0  0  0  0
    3.1247    8.7756    1.0577 C   0  0  0  0  0  0  0  0  0  0  0  0
    2.7275    7.5859    0.5935 C   0  0  0  0  0  0  0  0  0  0  0  0
    1.5785    7.3462    1.2139 N   0  0  0  0  0  0  0  0  0  0  0  0
    1.2877    8.3541    2.0112 C   0  0  0  0  0  0  0  0  0  0  0  0
    2.2672    9.2534    1.9358 N   0  0  0  0  0  0  0  0  0  0  0  0
    1.0278    6.5386    1.0962 H   0  0  0  0  0  0  0  0  0  0  0  0
  1  2  1  0  0  0
  2  3  2  0  0  0
  2  6  1  0  0  0
  3  4  1  0  0  0
  4  5  1  0  0  0
  5  6  2  0  0  0
  4  7  1  0  0  0
M  END
> <minimizedAffinity>
-4.08717

$$$$
4I7P_ES3_A_202


  7  7  0  0  0  0  0  0  0  0999 V2000
    4.7437    9.8454    0.5438 Br  0  0  0  0  0  0  0  0  0  0  0  0
    3.1879    8.9162    1.1019 C   0  0  0  0  0  0  0  0  0  0  0  0
    2.2454    9.3272    1.9572 C   0  0  0  0  0  0  0  0  0  0  0  0
    1.3763    8.3251    2.0114 N   0  0  0  0  0  0  0  0  0  0  0  0
    1.7823    7.3448    1.2302 C   0  0  0  0  0  0  0  0  0  0  0  0
    2.9149    7.7152    0.6353 N   0  0  0  0  0  0  0  0  0  0  0  0
    0.5540    8.3159    2.5526 H   0  0  0  0  0  0  0  0  0  0  0  0
  1  2  1  0  0  0
  2  3  2  0  0  0
  2  6  1  0  0  0
  3  4  1  0  0  0
  4  5  1  0  0  0
  5  6  2  0  0  0
  4  7  1  0  0  0
M  END
> <minimizedAffinity>
-3.96850

$$$$
4I7P_ES3_A_202


  7  7  0  0  0  0  0  0  0  0999 V2000
    1.4816    7.8153    1.6939 Br  0  0  0  0  0  0  0  0  0  0  0  0
    3.0500    8.8331    1.3782 C   0  0  0  0  0  0  0  0  0  0  0  0
    3.4409    9.9554    1.9917 C   0  0  0  0  0  0  0  0  0  0  0  0
    4.5946   10.2723    1.4163 N   0  0  0  0  0  0  0  0  0  0  0  0
    4.8832    9.3849    0.4860 C   0  0  0  0  0  0  0  0  0  0  0  0
    3.9248    8.4603    0.4670 N   0  0  0  0  0  0  0  0  0  0  0  0
    5.1497   11.0513    1.6490 H   0  0  0  0  0  0  0  0  0  0  0  0
  1  2  1  0  0  0
  2  3  2  0  0  0
  2  6  1  0  0  0
  3  4  1  0  0  0
  4  5  1  0  0  0
  5  6  2  0  0  0
  4  7  1  0  0  0
M  END
> <minimizedAffinity>
-3.89909

$$$$
4I7P_ES3_A_202


  7  7  0  0  0  0  0  0  0  0999 V2000
    1.4513    7.6050    1.6816 Br  0  0  0  0  0  0  0  0  0  0  0  0
    3.0598    8.5152    1.2575 C   0  0  0  0  0  0  0  0  0  0  0  0
    4.0190    8.1386    0.4050 C   0  0  0  0  0  0  0  0  0  0  0  0
    4.9243    9.1079    0.4634 N   0  0  0  0  0  0  0  0  0  0  0  0
    4.5341   10.0263    1.3239 C   0  0  0  0  0  0  0  0  0  0  0  0
    3.3483    9.6723    1.8165 N   0  0  0  0  0  0  0  0  0  0  0  0
    5.7598    9.1362   -0.0567 H   0  0  0  0  0  0  0  0  0  0  0  0
  1  2  1  0  0  0
  2  3  2  0  0  0
  2  6  1  0  0  0
  3  4  1  0  0  0
  4  5  1  0  0  0
  5  6  2  0  0  0
  4  7  1  0  0  0
M  END
> <minimizedAffinity>
-3.68663

$$$$
4I7P_ES3_A_202


  7  7  0  0  0  0  0  0  0  0999 V2000
    1.6330    9.4532    2.2093 Br  0  0  0  0  0  0  0  0  0  0  0  0
    3.2145    9.1350    1.2128 C   0  0  0  0  0  0  0  0  0  0  0  0
    3.5607    8.0269    0.5488 C   0  0  0  0  0  0  0  0  0  0  0  0
    4.7473    8.3041    0.0218 N   0  0  0  0  0  0  0  0  0  0  0  0
    5.1083    9.5245    0.3626 C   0  0  0  0  0  0  0  0  0  0  0  0
    4.1389   10.0661    1.0980 N   0  0  0  0  0  0  0  0  0  0  0  0
    5.2766    7.6912   -0.5380 H   0  0  0  0  0  0  0  0  0  0  0  0
  1  2  1  0  0  0
  2  3  2  0  0  0
  2  6  1  0  0  0
  3  4  1  0  0  0
  4  5  1  0  0  0
  5  6  2  0  0  0
  4  7  1  0  0  0
M  END
> <minimizedAffinity>
-3.00134

$$$$
4I7P_ES3_A_202


  7  7  0  0  0  0  0  0  0  0999 V2000
    4.5317    7.5003   -0.0022 Br  0  0  0  0  0  0  0  0  0  0  0  0
    3.7929    8.8170    1.1450 C   0  0  0  0  0  0  0  0  0  0  0  0
    4.3890    9.9080    1.6381 C   0  0  0  0  0  0  0  0  0  0  0  0
    3.4580   10.4978    2.3783 N   0  0  0  0  0  0  0  0  0  0  0  0
    2.3492    9.7870    2.3433 C   0  0  0  0  0  0  0  0  0  0  0  0
    2.5428    8.7339    1.5512 N   0  0  0  0  0  0  0  0  0  0  0  0
    3.5779   11.3379    2.8773 H   0  0  0  0  0  0  0  0  0  0  0  0
  1  2  1  0  0  0
  2  3  2  0  0  0
  2  6  1  0  0  0
  3  4  1  0  0  0
  4  5  1  0  0  0
  5  6  2  0  0  0
  4  7  1  0  0  0
M  END
> <minimizedAffinity>
-2.21979

$$$$
4I7P_ES3_A_202


  7  7  0  0  0  0  0  0  0  0999 V2000
    4.8783   10.5445    0.8033 Br  0  0  0  0  0  0  0  0  0  0  0  0
    3.9320    8.9101    0.6334 C   0  0  0  0  0  0  0  0  0  0  0  0
    4.3778    7.6717    0.8707 C   0  0  0  0  0  0  0  0  0  0  0  0
    3.3432    6.8826    0.6076 N   0  0  0  0  0  0  0  0  0  0  0  0
    2.3183    7.6126    0.2166 C   0  0  0  0  0  0  0  0  0  0  0  0
    2.6725    8.8961    0.2484 N   0  0  0  0  0  0  0  0  0  0  0  0
    3.3418    5.9017    0.6917 H   0  0  0  0  0  0  0  0  0  0  0  0
  1  2  1  0  0  0
  2  3  2  0  0  0
  2  6  1  0  0  0
  3  4  1  0  0  0
  4  5  1  0  0  0
  5  6  2  0  0  0
  4  7  1  0  0  0
M  END
> <minimizedAffinity>
-1.75780

$$$$
4I7P_ES3_A_202


  7  7  0  0  0  0  0  0  0  0999 V2000
    4.3756    7.1387    0.1292 Br  0  0  0  0  0  0  0  0  0  0  0  0
    2.8884    7.7530    1.1322 C   0  0  0  0  0  0  0  0  0  0  0  0
    2.1375    7.0637    1.9981 C   0  0  0  0  0  0  0  0  0  0  0  0
    1.2330    7.9340    2.4304 N   0  0  0  0  0  0  0  0  0  0  0  0
    1.4221    9.0976    1.8420 C   0  0  0  0  0  0  0  0  0  0  0  0
    2.4773    9.0005    1.0351 N   0  0  0  0  0  0  0  0  0  0  0  0
    0.5284    7.7396    3.0900 H   0  0  0  0  0  0  0  0  0  0  0  0
  1  2  1  0  0  0
  2  3  2  0  0  0
  2  6  1  0  0  0
  3  4  1  0  0  0
  4  5  1  0  0  0
  5  6  2  0  0  0
  4  7  1  0  0  0
M  END
> <minimizedAffinity>
-1.69772

$$$$
