4I7P_ES3_A_202
  RCSB PDB12061712583D
Coordinates from PDB:4I7P:A:202 Model:1 without hydrogens
  6  6  0  0  0  0            999 V2000
    2.1050    7.3970    1.0260  Br 0  0  0  0  0  0  0  0  0  0  0  0
    3.4590    8.7240    0.9910   C 0  0  0  0  0  0  0  0  0  0  0  0
    3.5610    9.8170    1.7550   C 0  0  0  0  0  0  0  0  0  0  0  0
    4.6740   10.4140    1.3460   N 0  0  0  0  0  0  0  0  0  0  0  0
    5.2160    9.7170    0.3680   C 0  0  0  0  0  0  0  0  0  0  0  0
    4.4680    8.6370    0.1490   N 0  0  0  0  0  0  0  0  0  0  0  0
  1  2  1  0  0  0  0
  2  3  2  0  0  0  0
  2  6  1  0  0  0  0
  3  4  1  0  0  0  0
  4  5  1  0  0  0  0
  5  6  2  0  0  0  0
A    1
BR01
A    2
C02
A    3
C03
A    4
N04
A    5
C05
A    6
N06
M  END
>  <InstanceId>
4I7P_ES3_A_202

>  <ChemCompId>
ES3

>  <PdbId>
4I7P

>  <ChainId>
A

>  <ResidueNumber>
202

>  <InsertionCode>


>  <Model>
1

>  <AltIds>


>  <MissingHeavyAtoms>
0

>  <ObservedFormula>
C3 N2 Br

>  <Name>
4-bromo-1H-imidazole

>  <SystematicName>
4-bromo-1H-imidazole

>  <Synonyms>


>  <Type>
NON-POLYMER

>  <Formula>
C3 H3 Br N2

>  <MolecularWeight>
146.973

>  <ModifiedDate>
2011-06-04

>  <Parent>


>  <OneLetterCode>


>  <SubcomponentList>


>  <AmbiguousFlag>
N

>  <InChI>
InChI=1S/C3H3BrN2/c4-3-1-5-2-6-3/h1-2H,(H,5,6)

>  <InChIKey>
FHZALEJIENDROK-UHFFFAOYSA-N

>  <SMILES>
c1c(nc[nH]1)Br

$$$$
