4PP3_2VZ_A_500


 24 25  0  0  0  0  0  0  0  0999 V2000
   65.9152   46.9114   29.4433 C   0  0  0  0  0  0  0  0  0  0  0  0
   66.5847   45.7336   30.1547 C   0  0  0  0  0  0  0  0  0  0  0  0
   67.2390   46.1997   31.4590 C   0  0  0  0  0  0  0  0  0  0  0  0
   66.2934   46.9977   32.3588 C   0  0  0  0  0  0  0  0  0  0  0  0
   66.4296   46.9138   33.7481 C   0  0  0  0  0  0  0  0  0  0  0  0
   65.5860   47.6127   34.6029 C   0  0  0  0  0  0  0  0  0  0  0  0
   65.7549   47.4997   36.1221 C   0  0  0  0  0  0  0  0  0  0  0  0
   64.5992   48.4203   34.0468 C   0  0  0  0  0  0  0  0  0  0  0  0
   64.4607   48.5341   32.6811 C   0  0  0  0  0  0  0  0  0  0  0  0
   65.3152   47.8036   31.8234 C   0  0  0  0  0  0  0  0  0  0  0  0
   65.1570   47.8523   30.3866 C   0  0  0  0  0  0  0  0  0  0  0  0
   64.2837   48.7878   29.8362 C   0  0  0  0  0  0  0  0  0  0  0  0
   63.9832   48.9266   28.3971 C   0  0  0  0  0  0  0  0  0  0  0  0
   64.9189   49.7754   27.5319 C   0  0  0  0  0  0  0  0  0  0  0  0
   62.8574   48.3459   27.8579 C   0  0  0  0  0  0  0  0  0  0  0  0
   61.8790   47.5824   28.6630 C   0  0  0  0  0  0  0  0  0  0  0  0
   60.5278   47.5839   28.3547 C   0  0  0  0  0  0  0  0  0  0  0  0
   59.5799   46.8178   29.1788 C   0  0  0  0  0  0  0  0  0  0  0  0
   60.0973   45.8932   30.2850 C   0  0  0  0  0  0  0  0  0  0  0  0
   58.2243   46.9469   28.9025 C   0  0  0  0  0  0  0  0  0  0  0  0
   57.1469   46.2719   29.6304 C   0  0  0  0  0  0  0  0  0  0  0  0
   56.6646   45.2097   29.1815 O   0  0  0  0  0  0  0  0  0  0  0  0
   56.7530   46.8201   30.6865 O   0  0  0  0  0  0  0  0  0  0  0  0
   56.9978   44.8434   28.3860 H   0  0  0  0  0  0  0  0  0  0  0  0
 14 13  1  0  0  0
 15 13  2  0  0  0
 15 16  1  0  0  0
 17 16  2  0  0  0
 17 18  1  0  0  0
 13 12  1  0  0  0
 20 18  2  0  0  0
 20 21  1  0  0  0
 18 19  1  0  0  0
 23 21  2  0  0  0
 21 22  1  0  0  0
  1  2  1  0  0  0
  1 11  1  0  0  0
 12 11  2  0  0  0
  2  3  1  0  0  0
 11 10  1  0  0  0
  3  4  1  0  0  0
 10  4  2  0  0  0
 10  9  1  0  0  0
  4  5  1  0  0  0
  9  8  2  0  0  0
  5  6  2  0  0  0
  8  6  1  0  0  0
  6  7  1  0  0  0
 22 24  1  0  0  0
M  END
> <minimizedAffinity>
-11.82981

$$$$
4PP3_2VZ_A_500


 24 25  0  0  0  0  0  0  0  0999 V2000
   64.0265   49.2539   30.4709 C   0  0  0  0  0  0  0  0  0  0  0  0
   64.3786   49.6406   31.9090 C   0  0  0  0  0  0  0  0  0  0  0  0
   64.4817   48.3904   32.7881 C   0  0  0  0  0  0  0  0  0  0  0  0
   65.3991   47.3143   32.2043 C   0  0  0  0  0  0  0  0  0  0  0  0
   66.1311   46.4911   33.0659 C   0  0  0  0  0  0  0  0  0  0  0  0
   66.9844   45.5084   32.5791 C   0  0  0  0  0  0  0  0  0  0  0  0
   67.7780   44.6224   33.5458 C   0  0  0  0  0  0  0  0  0  0  0  0
   67.0892   45.3440   31.2017 C   0  0  0  0  0  0  0  0  0  0  0  0
   66.3615   46.1295   30.3353 C   0  0  0  0  0  0  0  0  0  0  0  0
   65.5101   47.1372   30.8444 C   0  0  0  0  0  0  0  0  0  0  0  0
   64.7798   48.0197   29.9616 C   0  0  0  0  0  0  0  0  0  0  0  0
   64.7581   47.7407   28.5969 C   0  0  0  0  0  0  0  0  0  0  0  0
   64.0973   48.5709   27.5698 C   0  0  0  0  0  0  0  0  0  0  0  0
   64.9506   49.5505   26.7594 C   0  0  0  0  0  0  0  0  0  0  0  0
   62.7352   48.5000   27.3823 C   0  0  0  0  0  0  0  0  0  0  0  0
   61.8538   47.6295   28.1909 C   0  0  0  0  0  0  0  0  0  0  0  0
   60.4864   47.8453   28.2590 C   0  0  0  0  0  0  0  0  0  0  0  0
   59.6381   46.9640   29.0766 C   0  0  0  0  0  0  0  0  0  0  0  0
   60.2783   45.9305   30.0085 C   0  0  0  0  0  0  0  0  0  0  0  0
   58.2597   47.0893   28.9537 C   0  0  0  0  0  0  0  0  0  0  0  0
   57.2715   46.3064   29.6998 C   0  0  0  0  0  0  0  0  0  0  0  0
   56.7647   45.2888   29.1803 O   0  0  0  0  0  0  0  0  0  0  0  0
   56.9757   46.7203   30.8453 O   0  0  0  0  0  0  0  0  0  0  0  0
   57.0231   45.0243   28.3193 H   0  0  0  0  0  0  0  0  0  0  0  0
 14 13  1  0  0  0
 15 13  2  0  0  0
 15 16  1  0  0  0
 17 16  2  0  0  0
 17 18  1  0  0  0
 13 12  1  0  0  0
 20 18  2  0  0  0
 20 21  1  0  0  0
 18 19  1  0  0  0
 23 21  2  0  0  0
 21 22  1  0  0  0
  1  2  1  0  0  0
  1 11  1  0  0  0
 12 11  2  0  0  0
  2  3  1  0  0  0
 11 10  1  0  0  0
  3  4  1  0  0  0
 10  4  2  0  0  0
 10  9  1  0  0  0
  4  5  1  0  0  0
  9  8  2  0  0  0
  5  6  2  0  0  0
  8  6  1  0  0  0
  6  7  1  0  0  0
 22 24  1  0  0  0
M  END
> <minimizedAffinity>
-10.70893

$$$$
4PP3_2VZ_A_500


 24 25  0  0  0  0  0  0  0  0999 V2000
   65.2595   48.7109   28.3411 C   0  0  0  0  0  0  0  0  0  0  0  0
   64.3918   49.6632   27.5153 C   0  0  0  0  0  0  0  0  0  0  0  0
   63.1804   48.9209   26.9429 C   0  0  0  0  0  0  0  0  0  0  0  0
   62.3946   48.1407   27.9985 C   0  0  0  0  0  0  0  0  0  0  0  0
   61.0102   47.9975   27.8611 C   0  0  0  0  0  0  0  0  0  0  0  0
   60.2558   47.3066   28.8013 C   0  0  0  0  0  0  0  0  0  0  0  0
   58.7392   47.1680   28.6283 C   0  0  0  0  0  0  0  0  0  0  0  0
   60.9106   46.7386   29.8894 C   0  0  0  0  0  0  0  0  0  0  0  0
   62.2760   46.8492   30.0335 C   0  0  0  0  0  0  0  0  0  0  0  0
   63.0288   47.5701   29.0779 C   0  0  0  0  0  0  0  0  0  0  0  0
   64.4545   47.7578   29.2319 C   0  0  0  0  0  0  0  0  0  0  0  0
   65.1242   47.0476   30.2258 C   0  0  0  0  0  0  0  0  0  0  0  0
   66.5636   47.1677   30.5333 C   0  0  0  0  0  0  0  0  0  0  0  0
   67.5757   46.9140   29.4128 C   0  0  0  0  0  0  0  0  0  0  0  0
   66.9846   47.4521   31.8129 C   0  0  0  0  0  0  0  0  0  0  0  0
   66.0529   47.6283   32.9484 C   0  0  0  0  0  0  0  0  0  0  0  0
   66.4271   47.3231   34.2474 C   0  0  0  0  0  0  0  0  0  0  0  0
   65.4748   47.5051   35.3541 C   0  0  0  0  0  0  0  0  0  0  0  0
   65.7958   46.9448   36.7431 C   0  0  0  0  0  0  0  0  0  0  0  0
   64.2856   48.1723   35.0871 C   0  0  0  0  0  0  0  0  0  0  0  0
   63.2366   48.4531   36.0704 C   0  0  0  0  0  0  0  0  0  0  0  0
   62.7291   47.5151   36.7222 O   0  0  0  0  0  0  0  0  0  0  0  0
   62.8919   49.6515   36.1974 O   0  0  0  0  0  0  0  0  0  0  0  0
   63.0255   46.6365   36.5869 H   0  0  0  0  0  0  0  0  0  0  0  0
 14 13  1  0  0  0
 15 13  2  0  0  0
 15 16  1  0  0  0
 17 16  2  0  0  0
 17 18  1  0  0  0
 13 12  1  0  0  0
 20 18  2  0  0  0
 20 21  1  0  0  0
 18 19  1  0  0  0
 23 21  2  0  0  0
 21 22  1  0  0  0
  1  2  1  0  0  0
  1 11  1  0  0  0
 12 11  2  0  0  0
  2  3  1  0  0  0
 11 10  1  0  0  0
  3  4  1  0  0  0
 10  4  2  0  0  0
 10  9  1  0  0  0
  4  5  1  0  0  0
  9  8  2  0  0  0
  5  6  2  0  0  0
  8  6  1  0  0  0
  6  7  1  0  0  0
 22 24  1  0  0  0
M  END
> <minimizedAffinity>
-9.04668

$$$$
