2WEO_FBW_A_1263


 13 13  0  0  0  0  0  0  0  0999 V2000
    5.3630   -7.0714   14.9064 C   0  0  0  0  0  0  0  0  0  0  0  0
    4.0804   -6.5545   14.7500 C   0  0  0  0  0  0  0  0  0  0  0  0
    3.8199   -5.1942   14.9854 C   0  0  0  0  0  0  0  0  0  0  0  0
    4.8342   -4.3078   15.3920 C   0  0  0  0  0  0  0  0  0  0  0  0
    6.1257   -4.8673   15.5465 C   0  0  0  0  0  0  0  0  0  0  0  0
    6.3803   -6.2275   15.3157 C   0  0  0  0  0  0  0  0  0  0  0  0
    3.0626   -7.3660   14.3495 F   0  0  0  0  0  0  0  0  0  0  0  0
    4.5219   -2.6924   15.6457 S   0  0  0  0  0  0  0  0  0  0  0  0
    5.7375   -2.0624   16.4807 N   0  0  0  0  0  0  0  0  0  0  0  0
    4.5090   -2.1287   14.3323 O   0  0  0  0  0  0  0  0  0  0  0  0
    3.2831   -2.6168   16.3863 O   0  0  0  0  0  0  0  0  0  0  0  0
    6.5962   -2.1296   15.9343 H   0  0  0  0  0  0  0  0  0  0  0  0
    5.8504   -2.5743   17.3557 H   0  0  0  0  0  0  0  0  0  0  0  0
  1  2  1  0  0  0
  1  6  2  0  0  0
  2  3  2  0  0  0
  2  7  1  0  0  0
  3  4  1  0  0  0
  4  5  2  0  0  0
  4  8  1  0  0  0
  5  6  1  0  0  0
  8  9  1  0  0  0
  8 10  2  0  0  0
  8 11  2  0  0  0
  9 12  1  0  0  0
  9 13  1  0  0  0
M  END
> <minimizedAffinity>
-6.22372

$$$$
2WEO_FBW_A_1263


 13 13  0  0  0  0  0  0  0  0999 V2000
    4.3984   -6.3018   14.6566 C   0  0  0  0  0  0  0  0  0  0  0  0
    5.7463   -6.1890   14.9840 C   0  0  0  0  0  0  0  0  0  0  0  0
    6.2207   -5.0804   15.7048 C   0  0  0  0  0  0  0  0  0  0  0  0
    5.3618   -4.0444   16.1158 C   0  0  0  0  0  0  0  0  0  0  0  0
    3.9984   -4.1881   15.7620 C   0  0  0  0  0  0  0  0  0  0  0  0
    3.5298   -5.2941   15.0372 C   0  0  0  0  0  0  0  0  0  0  0  0
    6.6206   -7.1673   14.6188 F   0  0  0  0  0  0  0  0  0  0  0  0
    5.9280   -2.7460   16.9904 S   0  0  0  0  0  0  0  0  0  0  0  0
    7.5302   -2.7426   16.9198 N   0  0  0  0  0  0  0  0  0  0  0  0
    5.4221   -1.6067   16.2914 O   0  0  0  0  0  0  0  0  0  0  0  0
    5.4640   -2.9215   18.3479 O   0  0  0  0  0  0  0  0  0  0  0  0
    7.8276   -2.6174   15.9522 H   0  0  0  0  0  0  0  0  0  0  0  0
    7.8880   -3.6299   17.2734 H   0  0  0  0  0  0  0  0  0  0  0  0
  1  2  1  0  0  0
  1  6  2  0  0  0
  2  3  2  0  0  0
  2  7  1  0  0  0
  3  4  1  0  0  0
  4  5  2  0  0  0
  4  8  1  0  0  0
  5  6  1  0  0  0
  8  9  1  0  0  0
  8 10  2  0  0  0
  8 11  2  0  0  0
  9 12  1  0  0  0
  9 13  1  0  0  0
M  END
> <minimizedAffinity>
-6.21960

$$$$
2WEO_FBW_A_1263


 13 13  0  0  0  0  0  0  0  0999 V2000
    4.8242   -6.6588   14.7860 C   0  0  0  0  0  0  0  0  0  0  0  0
    3.9161   -5.6175   14.9524 C   0  0  0  0  0  0  0  0  0  0  0  0
    4.2869   -4.4408   15.6244 C   0  0  0  0  0  0  0  0  0  0  0  0
    5.5777   -4.2708   16.1581 C   0  0  0  0  0  0  0  0  0  0  0  0
    6.4747   -5.3511   15.9757 C   0  0  0  0  0  0  0  0  0  0  0  0
    6.0985   -6.5267   15.3088 C   0  0  0  0  0  0  0  0  0  0  0  0
    2.6557   -5.7251   14.4479 F   0  0  0  0  0  0  0  0  0  0  0  0
    6.0163   -2.8636   16.9320 S   0  0  0  0  0  0  0  0  0  0  0  0
    5.2476   -1.6388   16.2386 N   0  0  0  0  0  0  0  0  0  0  0  0
    5.5300   -3.0322   18.2654 O   0  0  0  0  0  0  0  0  0  0  0  0
    7.4482   -2.7339   16.7850 O   0  0  0  0  0  0  0  0  0  0  0  0
    4.2416   -1.7573   16.3581 H   0  0  0  0  0  0  0  0  0  0  0  0
    5.4714   -1.6164   15.2437 H   0  0  0  0  0  0  0  0  0  0  0  0
  1  2  1  0  0  0
  1  6  2  0  0  0
  2  3  2  0  0  0
  2  7  1  0  0  0
  3  4  1  0  0  0
  4  5  2  0  0  0
  4  8  1  0  0  0
  5  6  1  0  0  0
  8  9  1  0  0  0
  8 10  2  0  0  0
  8 11  2  0  0  0
  9 12  1  0  0  0
  9 13  1  0  0  0
M  END
> <minimizedAffinity>
-6.14229

$$$$
2WEO_FBW_A_1263


 13 13  0  0  0  0  0  0  0  0999 V2000
    6.2618   -6.6066   15.3571 C   0  0  0  0  0  0  0  0  0  0  0  0
    6.6626   -5.7313   16.3621 C   0  0  0  0  0  0  0  0  0  0  0  0
    6.1322   -4.4327   16.4381 C   0  0  0  0  0  0  0  0  0  0  0  0
    5.1875   -3.9652   15.5060 C   0  0  0  0  0  0  0  0  0  0  0  0
    4.8056   -4.8790   14.4941 C   0  0  0  0  0  0  0  0  0  0  0  0
    5.3420   -6.1732   14.4186 C   0  0  0  0  0  0  0  0  0  0  0  0
    7.5678   -6.1348   17.2962 F   0  0  0  0  0  0  0  0  0  0  0  0
    4.5460   -2.4330   15.6175 S   0  0  0  0  0  0  0  0  0  0  0  0
    4.3290   -1.8614   14.1349 N   0  0  0  0  0  0  0  0  0  0  0  0
    3.2738   -2.6313   16.2380 O   0  0  0  0  0  0  0  0  0  0  0  0
    5.4987   -1.6330   16.3531 O   0  0  0  0  0  0  0  0  0  0  0  0
    3.6534   -2.4446   13.6411 H   0  0  0  0  0  0  0  0  0  0  0  0
    5.2171   -1.8709   13.6335 H   0  0  0  0  0  0  0  0  0  0  0  0
  1  2  1  0  0  0
  1  6  2  0  0  0
  2  3  2  0  0  0
  2  7  1  0  0  0
  3  4  1  0  0  0
  4  5  2  0  0  0
  4  8  1  0  0  0
  5  6  1  0  0  0
  8  9  1  0  0  0
  8 10  2  0  0  0
  8 11  2  0  0  0
  9 12  1  0  0  0
  9 13  1  0  0  0
M  END
> <minimizedAffinity>
-6.08490

$$$$
2WEO_FBW_A_1263


 13 13  0  0  0  0  0  0  0  0999 V2000
    6.4955   -3.5908   17.6013 C   0  0  0  0  0  0  0  0  0  0  0  0
    6.6186   -4.7085   16.7813 C   0  0  0  0  0  0  0  0  0  0  0  0
    5.9608   -4.7662   15.5413 C   0  0  0  0  0  0  0  0  0  0  0  0
    5.1523   -3.7090   15.0844 C   0  0  0  0  0  0  0  0  0  0  0  0
    5.0447   -2.5900   15.9451 C   0  0  0  0  0  0  0  0  0  0  0  0
    5.6988   -2.5388   17.1852 C   0  0  0  0  0  0  0  0  0  0  0  0
    7.3959   -5.7569   17.1701 F   0  0  0  0  0  0  0  0  0  0  0  0
    4.3956   -3.7755   13.6030 S   0  0  0  0  0  0  0  0  0  0  0  0
    5.3119   -4.6271   12.5995 N   0  0  0  0  0  0  0  0  0  0  0  0
    3.1857   -4.4914   13.8605 O   0  0  0  0  0  0  0  0  0  0  0  0
    4.2473   -2.4120   13.1473 O   0  0  0  0  0  0  0  0  0  0  0  0
    5.3985   -5.5826   12.9461 H   0  0  0  0  0  0  0  0  0  0  0  0
    6.2372   -4.2019   12.5401 H   0  0  0  0  0  0  0  0  0  0  0  0
  1  2  1  0  0  0
  1  6  2  0  0  0
  2  3  2  0  0  0
  2  7  1  0  0  0
  3  4  1  0  0  0
  4  5  2  0  0  0
  4  8  1  0  0  0
  5  6  1  0  0  0
  8  9  1  0  0  0
  8 10  2  0  0  0
  8 11  2  0  0  0
  9 12  1  0  0  0
  9 13  1  0  0  0
M  END
> <minimizedAffinity>
-5.95141

$$$$
2WEO_FBW_A_1263


 13 13  0  0  0  0  0  0  0  0999 V2000
    4.8336   -2.4884   11.1075 C   0  0  0  0  0  0  0  0  0  0  0  0
    4.3139   -1.6218   12.0644 C   0  0  0  0  0  0  0  0  0  0  0  0
    4.0835   -2.0581   13.3798 C   0  0  0  0  0  0  0  0  0  0  0  0
    4.3596   -3.3789   13.7788 C   0  0  0  0  0  0  0  0  0  0  0  0
    4.8823   -4.2352   12.7796 C   0  0  0  0  0  0  0  0  0  0  0  0
    5.1056   -3.7970   11.4657 C   0  0  0  0  0  0  0  0  0  0  0  0
    4.0368   -0.3298   11.7350 F   0  0  0  0  0  0  0  0  0  0  0  0
    4.1061   -3.8810   15.3456 S   0  0  0  0  0  0  0  0  0  0  0  0
    3.5863   -2.6305   16.2046 N   0  0  0  0  0  0  0  0  0  0  0  0
    3.0588   -4.8476   15.2375 O   0  0  0  0  0  0  0  0  0  0  0  0
    5.3748   -4.3652   15.8404 O   0  0  0  0  0  0  0  0  0  0  0  0
    2.6916   -2.3113   15.8333 H   0  0  0  0  0  0  0  0  0  0  0  0
    4.2673   -1.8731   16.1489 H   0  0  0  0  0  0  0  0  0  0  0  0
  1  2  1  0  0  0
  1  6  2  0  0  0
  2  3  2  0  0  0
  2  7  1  0  0  0
  3  4  1  0  0  0
  4  5  2  0  0  0
  4  8  1  0  0  0
  5  6  1  0  0  0
  8  9  1  0  0  0
  8 10  2  0  0  0
  8 11  2  0  0  0
  9 12  1  0  0  0
  9 13  1  0  0  0
M  END
> <minimizedAffinity>
-5.93600

$$$$
2WEO_FBW_A_1263


 13 13  0  0  0  0  0  0  0  0999 V2000
    6.5948   -4.0217   17.4427 C   0  0  0  0  0  0  0  0  0  0  0  0
    5.8485   -2.8931   17.1170 C   0  0  0  0  0  0  0  0  0  0  0  0
    5.1667   -2.8113   15.8914 C   0  0  0  0  0  0  0  0  0  0  0  0
    5.2151   -3.8544   14.9483 C   0  0  0  0  0  0  0  0  0  0  0  0
    5.9871   -4.9852   15.3092 C   0  0  0  0  0  0  0  0  0  0  0  0
    6.6711   -5.0605   16.5318 C   0  0  0  0  0  0  0  0  0  0  0  0
    5.7599   -1.8574   17.9968 F   0  0  0  0  0  0  0  0  0  0  0  0
    4.3846   -3.7594   13.5087 S   0  0  0  0  0  0  0  0  0  0  0  0
    5.2428   -4.5003   12.3745 N   0  0  0  0  0  0  0  0  0  0  0  0
    3.1837   -4.4962   13.7490 O   0  0  0  0  0  0  0  0  0  0  0  0
    4.2241   -2.3545   13.2100 O   0  0  0  0  0  0  0  0  0  0  0  0
    5.3393   -5.4876   12.6116 H   0  0  0  0  0  0  0  0  0  0  0  0
    6.1671   -4.0732   12.3141 H   0  0  0  0  0  0  0  0  0  0  0  0
  1  2  1  0  0  0
  1  6  2  0  0  0
  2  3  2  0  0  0
  2  7  1  0  0  0
  3  4  1  0  0  0
  4  5  2  0  0  0
  4  8  1  0  0  0
  5  6  1  0  0  0
  8  9  1  0  0  0
  8 10  2  0  0  0
  8 11  2  0  0  0
  9 12  1  0  0  0
  9 13  1  0  0  0
M  END
> <minimizedAffinity>
-5.82089

$$$$
2WEO_FBW_A_1263


 13 13  0  0  0  0  0  0  0  0999 V2000
    5.3246   -4.1549   16.3582 C   0  0  0  0  0  0  0  0  0  0  0  0
    5.7374   -5.0493   15.3751 C   0  0  0  0  0  0  0  0  0  0  0  0
    5.4953   -4.7861   14.0165 C   0  0  0  0  0  0  0  0  0  0  0  0
    4.8256   -3.6216   13.5979 C   0  0  0  0  0  0  0  0  0  0  0  0
    4.4150   -2.7361   14.6236 C   0  0  0  0  0  0  0  0  0  0  0  0
    4.6539   -3.0055   15.9796 C   0  0  0  0  0  0  0  0  0  0  0  0
    6.3980   -6.1880   15.7236 F   0  0  0  0  0  0  0  0  0  0  0  0
    4.5640   -3.3058   11.9844 S   0  0  0  0  0  0  0  0  0  0  0  0
    5.7909   -3.9032   11.1419 N   0  0  0  0  0  0  0  0  0  0  0  0
    3.3766   -4.0381   11.6732 O   0  0  0  0  0  0  0  0  0  0  0  0
    4.4842   -1.8694   11.8466 O   0  0  0  0  0  0  0  0  0  0  0  0
    5.8219   -4.9161   11.2581 H   0  0  0  0  0  0  0  0  0  0  0  0
    6.6638   -3.4956   11.4769 H   0  0  0  0  0  0  0  0  0  0  0  0
  1  2  1  0  0  0
  1  6  2  0  0  0
  2  3  2  0  0  0
  2  7  1  0  0  0
  3  4  1  0  0  0
  4  5  2  0  0  0
  4  8  1  0  0  0
  5  6  1  0  0  0
  8  9  1  0  0  0
  8 10  2  0  0  0
  8 11  2  0  0  0
  9 12  1  0  0  0
  9 13  1  0  0  0
M  END
> <minimizedAffinity>
-5.60858

$$$$
2WEO_FBW_A_1263


 13 13  0  0  0  0  0  0  0  0999 V2000
    5.4901   -2.3656   16.7181 C   0  0  0  0  0  0  0  0  0  0  0  0
    6.5987   -3.2034   16.6415 C   0  0  0  0  0  0  0  0  0  0  0  0
    6.5062   -4.4638   16.0281 C   0  0  0  0  0  0  0  0  0  0  0  0
    5.2983   -4.9300   15.4770 C   0  0  0  0  0  0  0  0  0  0  0  0
    4.1894   -4.0552   15.5765 C   0  0  0  0  0  0  0  0  0  0  0  0
    4.2848   -2.7995   16.1949 C   0  0  0  0  0  0  0  0  0  0  0  0
    7.7952   -2.7988   17.1508 F   0  0  0  0  0  0  0  0  0  0  0  0
    5.2033   -6.4150   14.7305 S   0  0  0  0  0  0  0  0  0  0  0  0
    5.5542   -6.2287   13.1768 N   0  0  0  0  0  0  0  0  0  0  0  0
    6.2298   -7.1872   15.3572 O   0  0  0  0  0  0  0  0  0  0  0  0
    3.8490   -6.8870   14.9086 O   0  0  0  0  0  0  0  0  0  0  0  0
    6.5137   -5.8956   13.0825 H   0  0  0  0  0  0  0  0  0  0  0  0
    4.9161   -5.5488   12.7633 H   0  0  0  0  0  0  0  0  0  0  0  0
  1  2  1  0  0  0
  1  6  2  0  0  0
  2  3  2  0  0  0
  2  7  1  0  0  0
  3  4  1  0  0  0
  4  5  2  0  0  0
  4  8  1  0  0  0
  5  6  1  0  0  0
  8  9  1  0  0  0
  8 10  2  0  0  0
  8 11  2  0  0  0
  9 12  1  0  0  0
  9 13  1  0  0  0
M  END
> <minimizedAffinity>
-5.46200

$$$$
2WEO_FBW_A_1263


 13 13  0  0  0  0  0  0  0  0999 V2000
    3.7659   -4.2894   15.6116 C   0  0  0  0  0  0  0  0  0  0  0  0
    4.2095   -3.0410   15.1857 C   0  0  0  0  0  0  0  0  0  0  0  0
    4.3614   -2.7604   13.8175 C   0  0  0  0  0  0  0  0  0  0  0  0
    4.0805   -3.7233   12.8307 C   0  0  0  0  0  0  0  0  0  0  0  0
    3.6365   -4.9838   13.2985 C   0  0  0  0  0  0  0  0  0  0  0  0
    3.4915   -5.2616   14.6660 C   0  0  0  0  0  0  0  0  0  0  0  0
    4.4873   -2.0687   16.0979 F   0  0  0  0  0  0  0  0  0  0  0  0
    4.2403   -3.3748   11.2106 S   0  0  0  0  0  0  0  0  0  0  0  0
    5.1122   -4.5320   10.5232 N   0  0  0  0  0  0  0  0  0  0  0  0
    2.9034   -3.4293   10.7082 O   0  0  0  0  0  0  0  0  0  0  0  0
    4.9054   -2.0949   11.1215 O   0  0  0  0  0  0  0  0  0  0  0  0
    4.6189   -5.4214   10.6014 H   0  0  0  0  0  0  0  0  0  0  0  0
    6.0151   -4.6017   10.9925 H   0  0  0  0  0  0  0  0  0  0  0  0
  1  2  1  0  0  0
  1  6  2  0  0  0
  2  3  2  0  0  0
  2  7  1  0  0  0
  3  4  1  0  0  0
  4  5  2  0  0  0
  4  8  1  0  0  0
  5  6  1  0  0  0
  8  9  1  0  0  0
  8 10  2  0  0  0
  8 11  2  0  0  0
  9 12  1  0  0  0
  9 13  1  0  0  0
M  END
> <minimizedAffinity>
-5.43392

$$$$
