4KB9_G79_A_201


 45 49  0  0  0  0  0  0  0  0999 V2000
   11.4851   18.9129   18.3628 C   0  0  0  0  0  0  0  0  0  0  0  0
   10.7990   17.7901   17.7250 N   0  0  0  0  0  0  0  0  0  0  0  0
   10.2751   17.9315   16.5128 C   0  0  0  0  0  0  0  0  0  0  0  0
   10.3864   18.8628   15.7169 O   0  0  0  0  0  0  0  0  0  0  0  0
   10.7254   16.9281   18.1948 H   0  0  0  0  0  0  0  0  0  0  0  0
    9.4762   16.8311   16.1899 O   0  0  0  0  0  0  0  0  0  0  0  0
    8.3776   17.1287   15.3459 C   0  0  0  0  0  0  0  0  0  0  0  0
    8.4675   14.9336   14.1866 C   0  0  0  0  0  0  0  0  0  0  0  0
    7.1278   14.5255   14.7592 C   0  0  0  0  0  0  0  0  0  0  0  0
    6.8764   15.2531   16.0369 C   0  0  0  0  0  0  0  0  0  0  0  0
    7.6333   14.7761   17.1238 O   0  0  0  0  0  0  0  0  0  0  0  0
    7.7654   15.7655   18.1276 C   0  0  0  0  0  0  0  0  0  0  0  0
    7.1606   17.0358   17.5548 C   0  0  0  0  0  0  0  0  0  0  0  0
    7.0804   16.7454   16.0500 C   0  0  0  0  0  0  0  0  0  0  0  0
    7.0154   15.4200   19.3047 O   0  0  0  0  0  0  0  0  0  0  0  0
    5.6799   15.8300   19.0252 C   0  0  0  0  0  0  0  0  0  0  0  0
    5.7902   17.0748   18.1761 C   0  0  0  0  0  0  0  0  0  0  0  0
    8.5357   16.4368   14.0194 C   0  0  0  0  0  0  0  0  0  0  0  0
   12.9778   18.8363   18.0227 C   0  0  0  0  0  0  0  0  0  0  0  0
   13.6051   17.7263   18.6823 O   0  0  0  0  0  0  0  0  0  0  0  0
   13.5574   17.8521   19.6430 H   0  0  0  0  0  0  0  0  0  0  0  0
   13.7334   20.1313   18.3620 C   0  0  0  0  0  0  0  0  0  0  0  0
   13.2835   21.2619   17.5608 N   0  0  0  0  0  0  0  0  0  0  0  0
   12.5706   22.5499   18.2909 S   0  0  0  0  0  0  0  0  0  0  0  0
   11.8229   22.0880   19.4702 O   0  0  0  0  0  0  0  0  0  0  0  0
   11.8316   23.2663   17.2101 O   0  0  0  0  0  0  0  0  0  0  0  0
   15.8423   25.3426   19.8371 C   0  0  0  0  0  0  0  0  0  0  0  0
   15.5667   24.1413   20.4817 C   0  0  0  0  0  0  0  0  0  0  0  0
   14.4708   23.3673   20.0834 C   0  0  0  0  0  0  0  0  0  0  0  0
   13.7574   23.6966   18.9383 C   0  0  0  0  0  0  0  0  0  0  0  0
   14.0137   24.8898   18.3037 C   0  0  0  0  0  0  0  0  0  0  0  0
   15.0466   25.7237   18.7535 C   0  0  0  0  0  0  0  0  0  0  0  0
   16.9414   26.0312   20.2570 O   0  0  0  0  0  0  0  0  0  0  0  0
   18.1360   25.5748   19.6691 C   0  0  0  0  0  0  0  0  0  0  0  0
   14.1175   21.5908   16.4226 C   0  0  0  0  0  0  0  0  0  0  0  0
   14.0610   20.6167   15.2555 C   0  0  0  0  0  0  0  0  0  0  0  0
   13.5735   21.2428   13.9543 C   0  0  0  0  0  0  0  0  0  0  0  0
   15.4208   19.9621   15.0036 C   0  0  0  0  0  0  0  0  0  0  0  0
   11.2102   18.8214   19.8637 C   0  0  0  0  0  0  0  0  0  0  0  0
    9.0364   20.1519   19.7425 C   0  0  0  0  0  0  0  0  0  0  0  0
    7.6845   20.3027   20.0483 C   0  0  0  0  0  0  0  0  0  0  0  0
    6.9966   19.2878   20.7035 C   0  0  0  0  0  0  0  0  0  0  0  0
    7.6930   18.1723   21.1152 C   0  0  0  0  0  0  0  0  0  0  0  0
    9.0337   18.0139   20.8382 C   0  0  0  0  0  0  0  0  0  0  0  0
    9.7207   19.0039   20.1594 C   0  0  0  0  0  0  0  0  0  0  0  0
 42 43  2  0  0  0
 42 41  1  0  0  0
 43 44  1  0  0  0
 41 40  2  0  0  0
 44 45  2  0  0  0
 40 45  1  0  0  0
 28 29  2  0  0  0
 28 27  1  0  0  0
 33 27  1  0  0  0
 33 34  1  0  0  0
 45 39  1  0  0  0
 29 30  1  0  0  0
 27 32  2  0  0  0
 25 24  2  0  0  0
 32 31  1  0  0  0
 30 31  2  0  0  0
 30 24  1  0  0  0
 17 16  1  0  0  0
 17 13  1  0  0  0
 39  1  1  0  0  0
 16 15  1  0  0  0
 24 26  2  0  0  0
 24 23  1  0  0  0
 15 12  1  0  0  0
 13 12  1  0  0  0
 13 14  1  0  0  0
  1  2  1  0  0  0
  1 19  1  0  0  0
 12 11  1  0  0  0
 23 22  1  0  0  0
 23 35  1  0  0  0
  4  3  2  0  0  0
 22 19  1  0  0  0
 14  7  1  0  0  0
 14 10  1  0  0  0
  2  3  1  0  0  0
  3  6  1  0  0  0
 19 20  1  0  0  0
  6  7  1  0  0  0
  7 18  1  0  0  0
 11 10  1  0  0  0
 35 36  1  0  0  0
 10  9  1  0  0  0
 18  8  1  0  0  0
 37 36  1  0  0  0
 36 38  1  0  0  0
  9  8  1  0  0  0
 20 21  1  0  0  0
  2  5  1  0  0  0
M  END
> <minimizedAffinity>
-10.33193

$$$$
4KB9_G79_A_201


 45 49  0  0  0  0  0  0  0  0999 V2000
   14.3173   20.4320   17.1200 C   0  0  0  0  0  0  0  0  0  0  0  0
   15.1960   21.3285   17.8699 N   0  0  0  0  0  0  0  0  0  0  0  0
   14.7228   22.4685   18.3602 C   0  0  0  0  0  0  0  0  0  0  0  0
   13.5626   22.8735   18.4163 O   0  0  0  0  0  0  0  0  0  0  0  0
   16.1397   21.0866   18.0117 H   0  0  0  0  0  0  0  0  0  0  0  0
   15.7646   23.2719   18.8323 O   0  0  0  0  0  0  0  0  0  0  0  0
   15.5320   24.6649   18.7176 C   0  0  0  0  0  0  0  0  0  0  0  0
   16.6192   25.1878   20.8890 C   0  0  0  0  0  0  0  0  0  0  0  0
   17.7366   25.9400   20.1998 C   0  0  0  0  0  0  0  0  0  0  0  0
   17.9090   25.4335   18.8073 C   0  0  0  0  0  0  0  0  0  0  0  0
   18.5334   24.1742   18.7313 O   0  0  0  0  0  0  0  0  0  0  0  0
   18.2185   23.5205   17.5158 C   0  0  0  0  0  0  0  0  0  0  0  0
   17.1780   24.3853   16.8251 C   0  0  0  0  0  0  0  0  0  0  0  0
   16.6798   25.3074   17.9461 C   0  0  0  0  0  0  0  0  0  0  0  0
   19.3641   23.4449   16.6502 O   0  0  0  0  0  0  0  0  0  0  0  0
   19.4182   24.7103   15.9979 C   0  0  0  0  0  0  0  0  0  0  0  0
   17.9848   25.1489   15.8094 C   0  0  0  0  0  0  0  0  0  0  0  0
   15.3432   25.2768   20.0789 C   0  0  0  0  0  0  0  0  0  0  0  0
   13.7996   19.3432   18.0667 C   0  0  0  0  0  0  0  0  0  0  0  0
   14.8748   18.5326   18.5642 O   0  0  0  0  0  0  0  0  0  0  0  0
   15.2955   18.0649   17.8258 H   0  0  0  0  0  0  0  0  0  0  0  0
   12.7354   18.4448   17.4160 C   0  0  0  0  0  0  0  0  0  0  0  0
   11.4214   19.0733   17.3873 N   0  0  0  0  0  0  0  0  0  0  0  0
   10.7536   19.5082   15.9503 S   0  0  0  0  0  0  0  0  0  0  0  0
   11.8234   19.7519   14.9708 O   0  0  0  0  0  0  0  0  0  0  0  0
    9.8063   20.6172   16.2665 O   0  0  0  0  0  0  0  0  0  0  0  0
    8.2810   16.0042   14.3683 C   0  0  0  0  0  0  0  0  0  0  0  0
    9.6675   15.9223   14.4433 C   0  0  0  0  0  0  0  0  0  0  0  0
   10.4185   17.0503   14.7934 C   0  0  0  0  0  0  0  0  0  0  0  0
    9.7867   18.2046   15.2371 C   0  0  0  0  0  0  0  0  0  0  0  0
    8.4170   18.2991   15.1524 C   0  0  0  0  0  0  0  0  0  0  0  0
    7.6579   17.2077   14.7085 C   0  0  0  0  0  0  0  0  0  0  0  0
    7.6109   14.8605   14.0499 O   0  0  0  0  0  0  0  0  0  0  0  0
    6.7117   14.4508   15.0521 C   0  0  0  0  0  0  0  0  0  0  0  0
   10.4786   18.5931   18.3773 C   0  0  0  0  0  0  0  0  0  0  0  0
   10.3351   19.4493   19.6264 C   0  0  0  0  0  0  0  0  0  0  0  0
   11.0599   18.8879   20.8439 C   0  0  0  0  0  0  0  0  0  0  0  0
   10.8201   20.8803   19.3857 C   0  0  0  0  0  0  0  0  0  0  0  0
   15.1286   19.8705   15.9525 C   0  0  0  0  0  0  0  0  0  0  0  0
   16.9184   21.2215   14.7351 C   0  0  0  0  0  0  0  0  0  0  0  0
   17.2872   22.2624   13.8841 C   0  0  0  0  0  0  0  0  0  0  0  0
   16.3149   23.0229   13.2446 C   0  0  0  0  0  0  0  0  0  0  0  0
   14.9888   22.7821   13.5315 C   0  0  0  0  0  0  0  0  0  0  0  0
   14.6058   21.7696   14.3844 C   0  0  0  0  0  0  0  0  0  0  0  0
   15.5642   20.9867   15.0018 C   0  0  0  0  0  0  0  0  0  0  0  0
 42 43  2  0  0  0
 42 41  1  0  0  0
 43 44  1  0  0  0
 41 40  2  0  0  0
 44 45  2  0  0  0
 40 45  1  0  0  0
 28 29  2  0  0  0
 28 27  1  0  0  0
 33 27  1  0  0  0
 33 34  1  0  0  0
 45 39  1  0  0  0
 29 30  1  0  0  0
 27 32  2  0  0  0
 25 24  2  0  0  0
 32 31  1  0  0  0
 30 31  2  0  0  0
 30 24  1  0  0  0
 17 16  1  0  0  0
 17 13  1  0  0  0
 39  1  1  0  0  0
 16 15  1  0  0  0
 24 26  2  0  0  0
 24 23  1  0  0  0
 15 12  1  0  0  0
 13 12  1  0  0  0
 13 14  1  0  0  0
  1  2  1  0  0  0
  1 19  1  0  0  0
 12 11  1  0  0  0
 23 22  1  0  0  0
 23 35  1  0  0  0
  4  3  2  0  0  0
 22 19  1  0  0  0
 14  7  1  0  0  0
 14 10  1  0  0  0
  2  3  1  0  0  0
  3  6  1  0  0  0
 19 20  1  0  0  0
  6  7  1  0  0  0
  7 18  1  0  0  0
 11 10  1  0  0  0
 35 36  1  0  0  0
 10  9  1  0  0  0
 18  8  1  0  0  0
 37 36  1  0  0  0
 36 38  1  0  0  0
  9  8  1  0  0  0
 20 21  1  0  0  0
  2  5  1  0  0  0
M  END
> <minimizedAffinity>
-10.30851

$$$$
4KB9_G79_A_201


 45 49  0  0  0  0  0  0  0  0999 V2000
   14.1390   20.4950   17.0067 C   0  0  0  0  0  0  0  0  0  0  0  0
   15.0581   21.3430   17.7646 N   0  0  0  0  0  0  0  0  0  0  0  0
   14.6460   22.5123   18.2411 C   0  0  0  0  0  0  0  0  0  0  0  0
   13.5111   22.9854   18.2773 O   0  0  0  0  0  0  0  0  0  0  0  0
   15.9836   21.0467   17.9220 H   0  0  0  0  0  0  0  0  0  0  0  0
   15.7264   23.2558   18.7242 O   0  0  0  0  0  0  0  0  0  0  0  0
   15.5253   24.6584   18.7180 C   0  0  0  0  0  0  0  0  0  0  0  0
   16.5939   24.9828   20.9369 C   0  0  0  0  0  0  0  0  0  0  0  0
   17.7364   25.7620   20.3230 C   0  0  0  0  0  0  0  0  0  0  0  0
   17.9168   25.3640   18.8967 C   0  0  0  0  0  0  0  0  0  0  0  0
   18.5151   24.1009   18.7280 O   0  0  0  0  0  0  0  0  0  0  0  0
   18.2027   23.5530   17.4607 C   0  0  0  0  0  0  0  0  0  0  0  0
   17.1904   24.4930   16.8288 C   0  0  0  0  0  0  0  0  0  0  0  0
   16.6969   25.3342   18.0137 C   0  0  0  0  0  0  0  0  0  0  0  0
   19.3581   23.5207   16.6054 O   0  0  0  0  0  0  0  0  0  0  0  0
   19.4481   24.8323   16.0566 C   0  0  0  0  0  0  0  0  0  0  0  0
   18.0270   25.3165   15.8867 C   0  0  0  0  0  0  0  0  0  0  0  0
   15.3312   25.1644   20.1215 C   0  0  0  0  0  0  0  0  0  0  0  0
   13.5963   19.4029   17.9354 C   0  0  0  0  0  0  0  0  0  0  0  0
   14.6573   18.5867   18.4539 O   0  0  0  0  0  0  0  0  0  0  0  0
   15.0940   18.1216   17.7232 H   0  0  0  0  0  0  0  0  0  0  0  0
   12.5452   18.5108   17.2553 C   0  0  0  0  0  0  0  0  0  0  0  0
   11.2035   18.7402   17.7746 N   0  0  0  0  0  0  0  0  0  0  0  0
   11.0049   19.4492   19.2436 S   0  0  0  0  0  0  0  0  0  0  0  0
   11.1158   20.9086   19.0982 O   0  0  0  0  0  0  0  0  0  0  0  0
   11.9509   18.7472   20.1600 O   0  0  0  0  0  0  0  0  0  0  0  0
    6.7167   18.7421   20.6598 C   0  0  0  0  0  0  0  0  0  0  0  0
    7.1012   19.9719   20.1361 C   0  0  0  0  0  0  0  0  0  0  0  0
    8.4469   20.2184   19.8407 C   0  0  0  0  0  0  0  0  0  0  0  0
    9.3786   19.1904   19.9000 C   0  0  0  0  0  0  0  0  0  0  0  0
    9.0102   17.9758   20.4303 C   0  0  0  0  0  0  0  0  0  0  0  0
    7.6844   17.7472   20.8231 C   0  0  0  0  0  0  0  0  0  0  0  0
    5.3866   18.5600   20.8969 O   0  0  0  0  0  0  0  0  0  0  0  0
    4.5708   19.4533   20.1776 C   0  0  0  0  0  0  0  0  0  0  0  0
   10.2045   19.0943   16.7867 C   0  0  0  0  0  0  0  0  0  0  0  0
    9.6200   17.9374   15.9905 C   0  0  0  0  0  0  0  0  0  0  0  0
    9.1707   16.7628   16.8515 C   0  0  0  0  0  0  0  0  0  0  0  0
    8.4410   18.3889   15.1262 C   0  0  0  0  0  0  0  0  0  0  0  0
   14.9150   19.9333   15.8155 C   0  0  0  0  0  0  0  0  0  0  0  0
   14.5916   21.9567   14.2951 C   0  0  0  0  0  0  0  0  0  0  0  0
   15.1123   22.9587   13.4774 C   0  0  0  0  0  0  0  0  0  0  0  0
   16.4877   23.1153   13.3500 C   0  0  0  0  0  0  0  0  0  0  0  0
   17.3194   22.2141   13.9785 C   0  0  0  0  0  0  0  0  0  0  0  0
   16.8224   21.2059   14.7758 C   0  0  0  0  0  0  0  0  0  0  0  0
   15.4563   21.0602   14.9344 C   0  0  0  0  0  0  0  0  0  0  0  0
 42 43  2  0  0  0
 42 41  1  0  0  0
 43 44  1  0  0  0
 41 40  2  0  0  0
 44 45  2  0  0  0
 40 45  1  0  0  0
 28 29  2  0  0  0
 28 27  1  0  0  0
 33 27  1  0  0  0
 33 34  1  0  0  0
 45 39  1  0  0  0
 29 30  1  0  0  0
 27 32  2  0  0  0
 25 24  2  0  0  0
 32 31  1  0  0  0
 30 31  2  0  0  0
 30 24  1  0  0  0
 17 16  1  0  0  0
 17 13  1  0  0  0
 39  1  1  0  0  0
 16 15  1  0  0  0
 24 26  2  0  0  0
 24 23  1  0  0  0
 15 12  1  0  0  0
 13 12  1  0  0  0
 13 14  1  0  0  0
  1  2  1  0  0  0
  1 19  1  0  0  0
 12 11  1  0  0  0
 23 22  1  0  0  0
 23 35  1  0  0  0
  4  3  2  0  0  0
 22 19  1  0  0  0
 14  7  1  0  0  0
 14 10  1  0  0  0
  2  3  1  0  0  0
  3  6  1  0  0  0
 19 20  1  0  0  0
  6  7  1  0  0  0
  7 18  1  0  0  0
 11 10  1  0  0  0
 35 36  1  0  0  0
 10  9  1  0  0  0
 18  8  1  0  0  0
 37 36  1  0  0  0
 36 38  1  0  0  0
  9  8  1  0  0  0
 20 21  1  0  0  0
  2  5  1  0  0  0
M  END
> <minimizedAffinity>
-9.70280

$$$$
4KB9_G79_A_201


 45 49  0  0  0  0  0  0  0  0999 V2000
   10.0363   17.4109   16.8853 C   0  0  0  0  0  0  0  0  0  0  0  0
    9.2999   17.5581   18.1399 N   0  0  0  0  0  0  0  0  0  0  0  0
    8.5588   16.5560   18.5988 C   0  0  0  0  0  0  0  0  0  0  0  0
    8.4799   15.3953   18.1990 O   0  0  0  0  0  0  0  0  0  0  0  0
    9.3535   18.4013   18.6453 H   0  0  0  0  0  0  0  0  0  0  0  0
    7.7675   16.9788   19.6705 O   0  0  0  0  0  0  0  0  0  0  0  0
    6.9327   15.9735   20.2184 C   0  0  0  0  0  0  0  0  0  0  0  0
    7.7067   16.3732   22.5446 C   0  0  0  0  0  0  0  0  0  0  0  0
    6.3405   16.8724   22.9614 C   0  0  0  0  0  0  0  0  0  0  0  0
    5.6127   17.4143   21.7774 C   0  0  0  0  0  0  0  0  0  0  0  0
    6.0827   18.6682   21.3433 O   0  0  0  0  0  0  0  0  0  0  0  0
    5.7552   18.8941   19.9848 C   0  0  0  0  0  0  0  0  0  0  0  0
    5.1515   17.5980   19.4717 C   0  0  0  0  0  0  0  0  0  0  0  0
    5.5640   16.5683   20.5322 C   0  0  0  0  0  0  0  0  0  0  0  0
    4.7573   19.9207   19.8509 O   0  0  0  0  0  0  0  0  0  0  0  0
    3.5155   19.2606   20.0783 C   0  0  0  0  0  0  0  0  0  0  0  0
    3.6711   17.8657   19.5189 C   0  0  0  0  0  0  0  0  0  0  0  0
    7.5812   15.3581   21.4283 C   0  0  0  0  0  0  0  0  0  0  0  0
   11.3543   18.1862   16.9933 C   0  0  0  0  0  0  0  0  0  0  0  0
   12.1481   17.7119   18.0913 O   0  0  0  0  0  0  0  0  0  0  0  0
   11.6767   17.8717   18.9238 H   0  0  0  0  0  0  0  0  0  0  0  0
   11.1438   19.7031   17.1270 C   0  0  0  0  0  0  0  0  0  0  0  0
   11.9616   20.2853   18.1828 N   0  0  0  0  0  0  0  0  0  0  0  0
   13.5109   20.7317   17.8657 S   0  0  0  0  0  0  0  0  0  0  0  0
   13.6481   21.0266   16.4313 O   0  0  0  0  0  0  0  0  0  0  0  0
   14.3668   19.6645   18.4623 O   0  0  0  0  0  0  0  0  0  0  0  0
   14.9317   24.5530   19.9330 C   0  0  0  0  0  0  0  0  0  0  0  0
   14.8363   23.3558   20.6345 C   0  0  0  0  0  0  0  0  0  0  0  0
   14.2657   22.2311   20.0277 C   0  0  0  0  0  0  0  0  0  0  0  0
   13.9525   22.2460   18.6748 C   0  0  0  0  0  0  0  0  0  0  0  0
   14.0302   23.4291   17.9774 C   0  0  0  0  0  0  0  0  0  0  0  0
   14.5078   24.5894   18.6019 C   0  0  0  0  0  0  0  0  0  0  0  0
   15.5244   25.5996   20.5747 O   0  0  0  0  0  0  0  0  0  0  0  0
   16.9234   25.4729   20.6612 C   0  0  0  0  0  0  0  0  0  0  0  0
   11.2583   21.1436   19.1147 C   0  0  0  0  0  0  0  0  0  0  0  0
   10.0460   20.5285   19.7973 C   0  0  0  0  0  0  0  0  0  0  0  0
   10.3949   19.4532   20.8195 C   0  0  0  0  0  0  0  0  0  0  0  0
    9.1864   21.5931   20.4820 C   0  0  0  0  0  0  0  0  0  0  0  0
    9.1329   17.9239   15.7640 C   0  0  0  0  0  0  0  0  0  0  0  0
    8.8321   15.7835   14.4080 C   0  0  0  0  0  0  0  0  0  0  0  0
    8.0174   14.7814   13.8827 C   0  0  0  0  0  0  0  0  0  0  0  0
    6.6635   14.7429   14.1956 C   0  0  0  0  0  0  0  0  0  0  0  0
    6.1305   15.7556   14.9630 C   0  0  0  0  0  0  0  0  0  0  0  0
    6.9166   16.7647   15.4757 C   0  0  0  0  0  0  0  0  0  0  0  0
    8.2708   16.7953   15.1962 C   0  0  0  0  0  0  0  0  0  0  0  0
 42 43  2  0  0  0
 42 41  1  0  0  0
 43 44  1  0  0  0
 41 40  2  0  0  0
 44 45  2  0  0  0
 40 45  1  0  0  0
 28 29  2  0  0  0
 28 27  1  0  0  0
 33 27  1  0  0  0
 33 34  1  0  0  0
 45 39  1  0  0  0
 29 30  1  0  0  0
 27 32  2  0  0  0
 25 24  2  0  0  0
 32 31  1  0  0  0
 30 31  2  0  0  0
 30 24  1  0  0  0
 17 16  1  0  0  0
 17 13  1  0  0  0
 39  1  1  0  0  0
 16 15  1  0  0  0
 24 26  2  0  0  0
 24 23  1  0  0  0
 15 12  1  0  0  0
 13 12  1  0  0  0
 13 14  1  0  0  0
  1  2  1  0  0  0
  1 19  1  0  0  0
 12 11  1  0  0  0
 23 22  1  0  0  0
 23 35  1  0  0  0
  4  3  2  0  0  0
 22 19  1  0  0  0
 14  7  1  0  0  0
 14 10  1  0  0  0
  2  3  1  0  0  0
  3  6  1  0  0  0
 19 20  1  0  0  0
  6  7  1  0  0  0
  7 18  1  0  0  0
 11 10  1  0  0  0
 35 36  1  0  0  0
 10  9  1  0  0  0
 18  8  1  0  0  0
 37 36  1  0  0  0
 36 38  1  0  0  0
  9  8  1  0  0  0
 20 21  1  0  0  0
  2  5  1  0  0  0
M  END
> <minimizedAffinity>
-9.55821

$$$$
4KB9_G79_A_201


 45 49  0  0  0  0  0  0  0  0999 V2000
    9.7383   18.8349   19.2703 C   0  0  0  0  0  0  0  0  0  0  0  0
    9.3395   17.7746   18.3457 N   0  0  0  0  0  0  0  0  0  0  0  0
    8.9571   18.0773   17.1104 C   0  0  0  0  0  0  0  0  0  0  0  0
    9.0086   19.1540   16.5178 O   0  0  0  0  0  0  0  0  0  0  0  0
    9.3544   16.8351   18.6393 H   0  0  0  0  0  0  0  0  0  0  0  0
    8.4042   16.9601   16.4781 O   0  0  0  0  0  0  0  0  0  0  0  0
    7.8556   17.2198   15.1977 C   0  0  0  0  0  0  0  0  0  0  0  0
    8.7523   15.1238   14.2113 C   0  0  0  0  0  0  0  0  0  0  0  0
    7.3593   14.5657   14.0179 C   0  0  0  0  0  0  0  0  0  0  0  0
    6.4222   15.1812   15.0018 C   0  0  0  0  0  0  0  0  0  0  0  0
    6.5750   14.6977   16.3151 O   0  0  0  0  0  0  0  0  0  0  0  0
    6.0764   15.6245   17.2619 C   0  0  0  0  0  0  0  0  0  0  0  0
    5.7099   16.8747   16.4808 C   0  0  0  0  0  0  0  0  0  0  0  0
    6.4302   16.6811   15.1395 C   0  0  0  0  0  0  0  0  0  0  0  0
    4.8779   15.1377   17.8895 O   0  0  0  0  0  0  0  0  0  0  0  0
    3.8297   15.4509   16.9767 C   0  0  0  0  0  0  0  0  0  0  0  0
    4.2181   16.7552   16.3205 C   0  0  0  0  0  0  0  0  0  0  0  0
    8.7334   16.6353   14.1249 C   0  0  0  0  0  0  0  0  0  0  0  0
   11.2674   18.9426   19.2671 C   0  0  0  0  0  0  0  0  0  0  0  0
   11.8264   18.4428   20.4913 O   0  0  0  0  0  0  0  0  0  0  0  0
   11.5229   18.9901   21.2324 H   0  0  0  0  0  0  0  0  0  0  0  0
   11.7631   20.3770   19.0221 C   0  0  0  0  0  0  0  0  0  0  0  0
   12.8957   20.4234   18.1070 N   0  0  0  0  0  0  0  0  0  0  0  0
   12.6407   20.3524   16.4852 S   0  0  0  0  0  0  0  0  0  0  0  0
   11.6068   21.3297   16.1122 O   0  0  0  0  0  0  0  0  0  0  0  0
   12.4072   18.9108   16.1778 O   0  0  0  0  0  0  0  0  0  0  0  0
   16.4050   21.7850   14.3238 C   0  0  0  0  0  0  0  0  0  0  0  0
   15.2681   22.5841   14.3817 C   0  0  0  0  0  0  0  0  0  0  0  0
   14.0807   22.0760   14.9208 C   0  0  0  0  0  0  0  0  0  0  0  0
   14.0702   20.8424   15.5584 C   0  0  0  0  0  0  0  0  0  0  0  0
   15.1855   20.0399   15.4932 C   0  0  0  0  0  0  0  0  0  0  0  0
   16.3529   20.4990   14.8680 C   0  0  0  0  0  0  0  0  0  0  0  0
   17.5342   22.3530   13.8131 O   0  0  0  0  0  0  0  0  0  0  0  0
   18.7135   21.7084   14.2311 C   0  0  0  0  0  0  0  0  0  0  0  0
   13.9924   21.2780   18.5148 C   0  0  0  0  0  0  0  0  0  0  0  0
   13.6003   22.5788   19.1993 C   0  0  0  0  0  0  0  0  0  0  0  0
   14.4293   22.8964   20.4382 C   0  0  0  0  0  0  0  0  0  0  0  0
   13.6827   23.7665   18.2384 C   0  0  0  0  0  0  0  0  0  0  0  0
    9.1685   18.4798   20.6436 C   0  0  0  0  0  0  0  0  0  0  0  0
    7.0194   17.1211   20.8571 C   0  0  0  0  0  0  0  0  0  0  0  0
    5.6314   17.0198   20.7720 C   0  0  0  0  0  0  0  0  0  0  0  0
    4.8628   18.1428   20.4880 C   0  0  0  0  0  0  0  0  0  0  0  0
    5.5017   19.3321   20.2126 C   0  0  0  0  0  0  0  0  0  0  0  0
    6.8737   19.4470   20.2736 C   0  0  0  0  0  0  0  0  0  0  0  0
    7.6462   18.3432   20.5859 C   0  0  0  0  0  0  0  0  0  0  0  0
 42 43  2  0  0  0
 42 41  1  0  0  0
 43 44  1  0  0  0
 41 40  2  0  0  0
 44 45  2  0  0  0
 40 45  1  0  0  0
 28 29  2  0  0  0
 28 27  1  0  0  0
 33 27  1  0  0  0
 33 34  1  0  0  0
 45 39  1  0  0  0
 29 30  1  0  0  0
 27 32  2  0  0  0
 25 24  2  0  0  0
 32 31  1  0  0  0
 30 31  2  0  0  0
 30 24  1  0  0  0
 17 16  1  0  0  0
 17 13  1  0  0  0
 39  1  1  0  0  0
 16 15  1  0  0  0
 24 26  2  0  0  0
 24 23  1  0  0  0
 15 12  1  0  0  0
 13 12  1  0  0  0
 13 14  1  0  0  0
  1  2  1  0  0  0
  1 19  1  0  0  0
 12 11  1  0  0  0
 23 22  1  0  0  0
 23 35  1  0  0  0
  4  3  2  0  0  0
 22 19  1  0  0  0
 14  7  1  0  0  0
 14 10  1  0  0  0
  2  3  1  0  0  0
  3  6  1  0  0  0
 19 20  1  0  0  0
  6  7  1  0  0  0
  7 18  1  0  0  0
 11 10  1  0  0  0
 35 36  1  0  0  0
 10  9  1  0  0  0
 18  8  1  0  0  0
 37 36  1  0  0  0
 36 38  1  0  0  0
  9  8  1  0  0  0
 20 21  1  0  0  0
  2  5  1  0  0  0
M  END
> <minimizedAffinity>
-9.44835

$$$$
4KB9_G79_A_201


 45 49  0  0  0  0  0  0  0  0999 V2000
   14.0808   20.9680   16.0955 C   0  0  0  0  0  0  0  0  0  0  0  0
   14.8507   21.5885   17.1727 N   0  0  0  0  0  0  0  0  0  0  0  0
   14.3871   22.6728   17.7835 C   0  0  0  0  0  0  0  0  0  0  0  0
   13.2849   23.2111   17.6910 O   0  0  0  0  0  0  0  0  0  0  0  0
   15.7140   21.2018   17.4456 H   0  0  0  0  0  0  0  0  0  0  0  0
   15.3681   23.2315   18.6076 O   0  0  0  0  0  0  0  0  0  0  0  0
   15.2702   24.6357   18.7706 C   0  0  0  0  0  0  0  0  0  0  0  0
   16.2331   24.5984   21.0601 C   0  0  0  0  0  0  0  0  0  0  0  0
   17.4619   25.3544   20.6043 C   0  0  0  0  0  0  0  0  0  0  0  0
   17.6927   25.1222   19.1489 C   0  0  0  0  0  0  0  0  0  0  0  0
   18.2061   23.8463   18.8490 O   0  0  0  0  0  0  0  0  0  0  0  0
   17.9265   23.4852   17.5091 C   0  0  0  0  0  0  0  0  0  0  0  0
   17.0224   24.5731   16.9554 C   0  0  0  0  0  0  0  0  0  0  0  0
   16.5255   25.2982   18.2134 C   0  0  0  0  0  0  0  0  0  0  0  0
   19.1227   23.4672   16.7114 O   0  0  0  0  0  0  0  0  0  0  0  0
   19.3385   24.8253   16.3388 C   0  0  0  0  0  0  0  0  0  0  0  0
   17.9682   25.4376   16.1658 C   0  0  0  0  0  0  0  0  0  0  0  0
   15.0348   24.9785   20.2164 C   0  0  0  0  0  0  0  0  0  0  0  0
   13.1671   19.8944   16.6976 C   0  0  0  0  0  0  0  0  0  0  0  0
   13.3207   18.6397   16.0172 O   0  0  0  0  0  0  0  0  0  0  0  0
   13.0433   18.7371   15.0929 H   0  0  0  0  0  0  0  0  0  0  0  0
   11.6853   20.3037   16.6955 C   0  0  0  0  0  0  0  0  0  0  0  0
   10.8619   19.4090   17.4979 N   0  0  0  0  0  0  0  0  0  0  0  0
    9.8514   18.3443   16.7594 S   0  0  0  0  0  0  0  0  0  0  0  0
   10.6413   17.2510   16.1728 O   0  0  0  0  0  0  0  0  0  0  0  0
    8.9886   19.1661   15.8608 O   0  0  0  0  0  0  0  0  0  0  0  0
    6.8294   16.3332   19.5374 C   0  0  0  0  0  0  0  0  0  0  0  0
    6.9582   17.7178   19.5063 C   0  0  0  0  0  0  0  0  0  0  0  0
    7.9827   18.3100   18.7590 C   0  0  0  0  0  0  0  0  0  0  0  0
    8.7658   17.5412   17.9080 C   0  0  0  0  0  0  0  0  0  0  0  0
    8.6550   16.1706   17.9434 C   0  0  0  0  0  0  0  0  0  0  0  0
    7.6974   15.5584   18.7635 C   0  0  0  0  0  0  0  0  0  0  0  0
    5.7922   15.8252   20.2617 O   0  0  0  0  0  0  0  0  0  0  0  0
    4.8782   16.8098   20.6816 C   0  0  0  0  0  0  0  0  0  0  0  0
   11.4754   18.9221   18.7169 C   0  0  0  0  0  0  0  0  0  0  0  0
   11.2304   19.7596   19.9630 C   0  0  0  0  0  0  0  0  0  0  0  0
   10.2835   20.9328   19.7395 C   0  0  0  0  0  0  0  0  0  0  0  0
   10.6912   18.9089   21.1148 C   0  0  0  0  0  0  0  0  0  0  0  0
   15.0814   20.4025   15.0877 C   0  0  0  0  0  0  0  0  0  0  0  0
   17.2406   21.5591   14.3734 C   0  0  0  0  0  0  0  0  0  0  0  0
   17.9061   22.6097   13.7431 C   0  0  0  0  0  0  0  0  0  0  0  0
   17.1882   23.5866   13.0628 C   0  0  0  0  0  0  0  0  0  0  0  0
   15.8113   23.5411   13.0941 C   0  0  0  0  0  0  0  0  0  0  0  0
   15.1358   22.5206   13.7277 C   0  0  0  0  0  0  0  0  0  0  0  0
   15.8410   21.5264   14.3813 C   0  0  0  0  0  0  0  0  0  0  0  0
 42 43  2  0  0  0
 42 41  1  0  0  0
 43 44  1  0  0  0
 41 40  2  0  0  0
 44 45  2  0  0  0
 40 45  1  0  0  0
 28 29  2  0  0  0
 28 27  1  0  0  0
 33 27  1  0  0  0
 33 34  1  0  0  0
 45 39  1  0  0  0
 29 30  1  0  0  0
 27 32  2  0  0  0
 25 24  2  0  0  0
 32 31  1  0  0  0
 30 31  2  0  0  0
 30 24  1  0  0  0
 17 16  1  0  0  0
 17 13  1  0  0  0
 39  1  1  0  0  0
 16 15  1  0  0  0
 24 26  2  0  0  0
 24 23  1  0  0  0
 15 12  1  0  0  0
 13 12  1  0  0  0
 13 14  1  0  0  0
  1  2  1  0  0  0
  1 19  1  0  0  0
 12 11  1  0  0  0
 23 22  1  0  0  0
 23 35  1  0  0  0
  4  3  2  0  0  0
 22 19  1  0  0  0
 14  7  1  0  0  0
 14 10  1  0  0  0
  2  3  1  0  0  0
  3  6  1  0  0  0
 19 20  1  0  0  0
  6  7  1  0  0  0
  7 18  1  0  0  0
 11 10  1  0  0  0
 35 36  1  0  0  0
 10  9  1  0  0  0
 18  8  1  0  0  0
 37 36  1  0  0  0
 36 38  1  0  0  0
  9  8  1  0  0  0
 20 21  1  0  0  0
  2  5  1  0  0  0
M  END
> <minimizedAffinity>
-9.40210

$$$$
4KB9_G79_A_201


 45 49  0  0  0  0  0  0  0  0999 V2000
   13.6674   22.4872   18.3823 C   0  0  0  0  0  0  0  0  0  0  0  0
   12.5796   21.5127   18.4538 N   0  0  0  0  0  0  0  0  0  0  0  0
   11.4348   21.7450   17.8217 C   0  0  0  0  0  0  0  0  0  0  0  0
   11.1511   22.6335   17.0196 O   0  0  0  0  0  0  0  0  0  0  0  0
   12.6959   20.6833   18.9711 H   0  0  0  0  0  0  0  0  0  0  0  0
   10.4634   20.8158   18.2043 O   0  0  0  0  0  0  0  0  0  0  0  0
   10.9660   19.6972   18.9141 C   0  0  0  0  0  0  0  0  0  0  0  0
    8.9369   19.4818   20.3307 C   0  0  0  0  0  0  0  0  0  0  0  0
    8.5853   18.1506   19.7034 C   0  0  0  0  0  0  0  0  0  0  0  0
    9.1650   18.0644   18.3316 C   0  0  0  0  0  0  0  0  0  0  0  0
    8.4860   18.8426   17.3751 O   0  0  0  0  0  0  0  0  0  0  0  0
    9.3235   19.1445   16.2744 C   0  0  0  0  0  0  0  0  0  0  0  0
   10.7067   18.6340   16.6400 C   0  0  0  0  0  0  0  0  0  0  0  0
   10.6182   18.4199   18.1571 C   0  0  0  0  0  0  0  0  0  0  0  0
    8.9023   18.4470   15.0897 O   0  0  0  0  0  0  0  0  0  0  0  0
    9.4663   17.1441   15.2081 C   0  0  0  0  0  0  0  0  0  0  0  0
   10.7932   17.3213   15.9085 C   0  0  0  0  0  0  0  0  0  0  0  0
   10.4364   19.6911   20.3222 C   0  0  0  0  0  0  0  0  0  0  0  0
   14.7493   21.9501   17.4385 C   0  0  0  0  0  0  0  0  0  0  0  0
   15.9337   21.5819   18.1612 O   0  0  0  0  0  0  0  0  0  0  0  0
   16.3142   22.3692   18.5811 H   0  0  0  0  0  0  0  0  0  0  0  0
   15.1140   22.9437   16.3236 C   0  0  0  0  0  0  0  0  0  0  0  0
   15.6159   22.2772   15.1293 N   0  0  0  0  0  0  0  0  0  0  0  0
   17.1364   22.5946   14.5931 S   0  0  0  0  0  0  0  0  0  0  0  0
   17.0651   23.1709   13.2418 O   0  0  0  0  0  0  0  0  0  0  0  0
   17.9049   21.3309   14.7927 O   0  0  0  0  0  0  0  0  0  0  0  0
   18.9597   25.9287   17.1334 C   0  0  0  0  0  0  0  0  0  0  0  0
   18.6517   26.1402   15.7936 C   0  0  0  0  0  0  0  0  0  0  0  0
   18.2290   25.0719   14.9943 C   0  0  0  0  0  0  0  0  0  0  0  0
   17.9453   23.8377   15.5642 C   0  0  0  0  0  0  0  0  0  0  0  0
   18.2605   23.6158   16.8846 C   0  0  0  0  0  0  0  0  0  0  0  0
   18.7785   24.6525   17.6729 C   0  0  0  0  0  0  0  0  0  0  0  0
   19.3370   27.0186   17.8601 O   0  0  0  0  0  0  0  0  0  0  0  0
   18.6213   28.1823   17.5214 C   0  0  0  0  0  0  0  0  0  0  0  0
   15.1796   20.9072   14.9497 C   0  0  0  0  0  0  0  0  0  0  0  0
   14.0336   20.6991   13.9712 C   0  0  0  0  0  0  0  0  0  0  0  0
   12.6720   20.5535   14.6401 C   0  0  0  0  0  0  0  0  0  0  0  0
   13.9562   21.8332   12.9471 C   0  0  0  0  0  0  0  0  0  0  0  0
   14.1753   22.7081   19.8071 C   0  0  0  0  0  0  0  0  0  0  0  0
   14.8914   25.0218   19.0044 C   0  0  0  0  0  0  0  0  0  0  0  0
   15.7376   26.1272   19.0806 C   0  0  0  0  0  0  0  0  0  0  0  0
   16.7113   26.1976   20.0704 C   0  0  0  0  0  0  0  0  0  0  0  0
   16.8763   25.1229   20.9168 C   0  0  0  0  0  0  0  0  0  0  0  0
   16.0616   24.0138   20.8445 C   0  0  0  0  0  0  0  0  0  0  0  0
   15.0692   23.9468   19.8835 C   0  0  0  0  0  0  0  0  0  0  0  0
 42 43  2  0  0  0
 42 41  1  0  0  0
 43 44  1  0  0  0
 41 40  2  0  0  0
 44 45  2  0  0  0
 40 45  1  0  0  0
 28 29  2  0  0  0
 28 27  1  0  0  0
 33 27  1  0  0  0
 33 34  1  0  0  0
 45 39  1  0  0  0
 29 30  1  0  0  0
 27 32  2  0  0  0
 25 24  2  0  0  0
 32 31  1  0  0  0
 30 31  2  0  0  0
 30 24  1  0  0  0
 17 16  1  0  0  0
 17 13  1  0  0  0
 39  1  1  0  0  0
 16 15  1  0  0  0
 24 26  2  0  0  0
 24 23  1  0  0  0
 15 12  1  0  0  0
 13 12  1  0  0  0
 13 14  1  0  0  0
  1  2  1  0  0  0
  1 19  1  0  0  0
 12 11  1  0  0  0
 23 22  1  0  0  0
 23 35  1  0  0  0
  4  3  2  0  0  0
 22 19  1  0  0  0
 14  7  1  0  0  0
 14 10  1  0  0  0
  2  3  1  0  0  0
  3  6  1  0  0  0
 19 20  1  0  0  0
  6  7  1  0  0  0
  7 18  1  0  0  0
 11 10  1  0  0  0
 35 36  1  0  0  0
 10  9  1  0  0  0
 18  8  1  0  0  0
 37 36  1  0  0  0
 36 38  1  0  0  0
  9  8  1  0  0  0
 20 21  1  0  0  0
  2  5  1  0  0  0
M  END
> <minimizedAffinity>
-9.36177

$$$$
4KB9_G79_A_201


 45 49  0  0  0  0  0  0  0  0999 V2000
   12.5216   19.2481   16.6418 C   0  0  0  0  0  0  0  0  0  0  0  0
   13.7718   19.9837   16.4570 N   0  0  0  0  0  0  0  0  0  0  0  0
   13.7777   21.1285   15.7838 C   0  0  0  0  0  0  0  0  0  0  0  0
   12.8315   21.7981   15.3721 O   0  0  0  0  0  0  0  0  0  0  0  0
   14.6104   19.6298   16.8323 H   0  0  0  0  0  0  0  0  0  0  0  0
   15.0878   21.5422   15.5268 O   0  0  0  0  0  0  0  0  0  0  0  0
   15.6362   21.0440   14.3189 C   0  0  0  0  0  0  0  0  0  0  0  0
   14.7426   22.9168   12.9534 C   0  0  0  0  0  0  0  0  0  0  0  0
   16.1365   23.4261   12.6582 C   0  0  0  0  0  0  0  0  0  0  0  0
   17.0726   23.0065   13.7412 C   0  0  0  0  0  0  0  0  0  0  0  0
   16.9205   23.7301   14.9391 O   0  0  0  0  0  0  0  0  0  0  0  0
   17.4176   22.9985   16.0444 C   0  0  0  0  0  0  0  0  0  0  0  0
   17.7823   21.6225   15.5142 C   0  0  0  0  0  0  0  0  0  0  0  0
   17.0624   21.5599   14.1603 C   0  0  0  0  0  0  0  0  0  0  0  0
   18.6170   23.5935   16.5689 O   0  0  0  0  0  0  0  0  0  0  0  0
   19.6646   23.1117   15.7322 C   0  0  0  0  0  0  0  0  0  0  0  0
   19.2743   21.7073   15.3346 C   0  0  0  0  0  0  0  0  0  0  0  0
   14.7592   21.4162   13.1546 C   0  0  0  0  0  0  0  0  0  0  0  0
   12.4729   18.7111   18.0767 C   0  0  0  0  0  0  0  0  0  0  0  0
   13.0456   17.3974   18.1599 O   0  0  0  0  0  0  0  0  0  0  0  0
   12.5193   16.7808   17.6273 H   0  0  0  0  0  0  0  0  0  0  0  0
   11.0495   18.6903   18.6570 C   0  0  0  0  0  0  0  0  0  0  0  0
   10.8320   19.7522   19.6304 N   0  0  0  0  0  0  0  0  0  0  0  0
   10.7569   21.3162   19.1320 S   0  0  0  0  0  0  0  0  0  0  0  0
    9.9837   22.1006   20.1067 O   0  0  0  0  0  0  0  0  0  0  0  0
   10.2835   21.2650   17.7175 O   0  0  0  0  0  0  0  0  0  0  0  0
   14.7543   23.5315   19.2181 C   0  0  0  0  0  0  0  0  0  0  0  0
   13.7491   23.9080   18.3335 C   0  0  0  0  0  0  0  0  0  0  0  0
   12.5891   23.1333   18.2194 C   0  0  0  0  0  0  0  0  0  0  0  0
   12.3518   22.0897   19.1043 C   0  0  0  0  0  0  0  0  0  0  0  0
   13.3460   21.7016   19.9720 C   0  0  0  0  0  0  0  0  0  0  0  0
   14.5542   22.4099   20.0272 C   0  0  0  0  0  0  0  0  0  0  0  0
   15.8434   24.3474   19.2993 O   0  0  0  0  0  0  0  0  0  0  0  0
   15.5705   25.6722   18.9103 C   0  0  0  0  0  0  0  0  0  0  0  0
    9.9483   19.4194   20.7294 C   0  0  0  0  0  0  0  0  0  0  0  0
    8.6522   18.7194   20.3496 C   0  0  0  0  0  0  0  0  0  0  0  0
    8.3199   17.5200   21.2292 C   0  0  0  0  0  0  0  0  0  0  0  0
    7.4653   19.6847   20.3704 C   0  0  0  0  0  0  0  0  0  0  0  0
   12.4850   18.1404   15.5890 C   0  0  0  0  0  0  0  0  0  0  0  0
   10.7381   16.6713   14.4488 C   0  0  0  0  0  0  0  0  0  0  0  0
    9.4220   16.4275   14.0585 C   0  0  0  0  0  0  0  0  0  0  0  0
    8.4050   17.2939   14.4427 C   0  0  0  0  0  0  0  0  0  0  0  0
    8.7339   18.4348   15.1421 C   0  0  0  0  0  0  0  0  0  0  0  0
   10.0317   18.7020   15.5206 C   0  0  0  0  0  0  0  0  0  0  0  0
   11.0470   17.8306   15.1704 C   0  0  0  0  0  0  0  0  0  0  0  0
 42 43  2  0  0  0
 42 41  1  0  0  0
 43 44  1  0  0  0
 41 40  2  0  0  0
 44 45  2  0  0  0
 40 45  1  0  0  0
 28 29  2  0  0  0
 28 27  1  0  0  0
 33 27  1  0  0  0
 33 34  1  0  0  0
 45 39  1  0  0  0
 29 30  1  0  0  0
 27 32  2  0  0  0
 25 24  2  0  0  0
 32 31  1  0  0  0
 30 31  2  0  0  0
 30 24  1  0  0  0
 17 16  1  0  0  0
 17 13  1  0  0  0
 39  1  1  0  0  0
 16 15  1  0  0  0
 24 26  2  0  0  0
 24 23  1  0  0  0
 15 12  1  0  0  0
 13 12  1  0  0  0
 13 14  1  0  0  0
  1  2  1  0  0  0
  1 19  1  0  0  0
 12 11  1  0  0  0
 23 22  1  0  0  0
 23 35  1  0  0  0
  4  3  2  0  0  0
 22 19  1  0  0  0
 14  7  1  0  0  0
 14 10  1  0  0  0
  2  3  1  0  0  0
  3  6  1  0  0  0
 19 20  1  0  0  0
  6  7  1  0  0  0
  7 18  1  0  0  0
 11 10  1  0  0  0
 35 36  1  0  0  0
 10  9  1  0  0  0
 18  8  1  0  0  0
 37 36  1  0  0  0
 36 38  1  0  0  0
  9  8  1  0  0  0
 20 21  1  0  0  0
  2  5  1  0  0  0
M  END
> <minimizedAffinity>
-9.28486

$$$$
4KB9_G79_A_201


 45 49  0  0  0  0  0  0  0  0999 V2000
   11.1111   19.6617   18.3075 C   0  0  0  0  0  0  0  0  0  0  0  0
   10.6646   18.4559   17.6112 N   0  0  0  0  0  0  0  0  0  0  0  0
    9.8687   18.5543   16.5526 C   0  0  0  0  0  0  0  0  0  0  0  0
    9.5218   19.5542   15.9257 O   0  0  0  0  0  0  0  0  0  0  0  0
   10.9543   17.5698   17.9277 H   0  0  0  0  0  0  0  0  0  0  0  0
    9.3801   17.2975   16.1850 O   0  0  0  0  0  0  0  0  0  0  0  0
    8.2529   17.3320   15.3270 C   0  0  0  0  0  0  0  0  0  0  0  0
    8.8055   15.1631   14.2496 C   0  0  0  0  0  0  0  0  0  0  0  0
    7.5725   14.5080   14.8325 C   0  0  0  0  0  0  0  0  0  0  0  0
    7.1629   15.2128   16.0818 C   0  0  0  0  0  0  0  0  0  0  0  0
    7.9902   14.9410   17.1879 O   0  0  0  0  0  0  0  0  0  0  0  0
    7.9048   15.9711   18.1550 C   0  0  0  0  0  0  0  0  0  0  0  0
    7.0575   17.0683   17.5339 C   0  0  0  0  0  0  0  0  0  0  0  0
    7.0550   16.7146   16.0406 C   0  0  0  0  0  0  0  0  0  0  0  0
    7.2294   15.5202   19.3416 O   0  0  0  0  0  0  0  0  0  0  0  0
    5.8412   15.6358   19.0429 C   0  0  0  0  0  0  0  0  0  0  0  0
    5.7018   16.8458   18.1490 C   0  0  0  0  0  0  0  0  0  0  0  0
    8.5643   16.6412   14.0274 C   0  0  0  0  0  0  0  0  0  0  0  0
   12.5544   19.9660   17.8905 C   0  0  0  0  0  0  0  0  0  0  0  0
   13.4558   19.8294   18.9994 O   0  0  0  0  0  0  0  0  0  0  0  0
   13.2323   20.4832   19.6802 H   0  0  0  0  0  0  0  0  0  0  0  0
   12.7126   21.3622   17.2669 C   0  0  0  0  0  0  0  0  0  0  0  0
   14.0205   21.5504   16.6534 N   0  0  0  0  0  0  0  0  0  0  0  0
   14.2830   21.0405   15.1135 S   0  0  0  0  0  0  0  0  0  0  0  0
   13.0876   21.3123   14.3008 O   0  0  0  0  0  0  0  0  0  0  0  0
   14.7627   19.6323   15.2327 O   0  0  0  0  0  0  0  0  0  0  0  0
   17.5793   23.6034   13.2533 C   0  0  0  0  0  0  0  0  0  0  0  0
   16.2394   23.8536   12.9763 C   0  0  0  0  0  0  0  0  0  0  0  0
   15.2523   22.9751   13.4373 C   0  0  0  0  0  0  0  0  0  0  0  0
   15.5786   21.9507   14.3162 C   0  0  0  0  0  0  0  0  0  0  0  0
   16.9020   21.6874   14.5838 C   0  0  0  0  0  0  0  0  0  0  0  0
   17.9087   22.5018   14.0473 C   0  0  0  0  0  0  0  0  0  0  0  0
   18.4850   24.5153   12.7987 O   0  0  0  0  0  0  0  0  0  0  0  0
   19.4405   24.8741   13.7678 C   0  0  0  0  0  0  0  0  0  0  0  0
   14.7099   22.7719   17.0171 C   0  0  0  0  0  0  0  0  0  0  0  0
   15.6901   22.6605   18.1750 C   0  0  0  0  0  0  0  0  0  0  0  0
   16.9999   23.4054   17.9464 C   0  0  0  0  0  0  0  0  0  0  0  0
   15.0706   23.1519   19.4849 C   0  0  0  0  0  0  0  0  0  0  0  0
   10.9659   19.4020   19.8069 C   0  0  0  0  0  0  0  0  0  0  0  0
    8.5594   20.2489   19.8533 C   0  0  0  0  0  0  0  0  0  0  0  0
    7.2288   20.1097   20.2457 C   0  0  0  0  0  0  0  0  0  0  0  0
    6.8119   18.9658   20.9168 C   0  0  0  0  0  0  0  0  0  0  0  0
    7.7509   18.0164   21.2568 C   0  0  0  0  0  0  0  0  0  0  0  0
    9.0741   18.1455   20.8937 C   0  0  0  0  0  0  0  0  0  0  0  0
    9.4937   19.2651   20.1985 C   0  0  0  0  0  0  0  0  0  0  0  0
 42 43  2  0  0  0
 42 41  1  0  0  0
 43 44  1  0  0  0
 41 40  2  0  0  0
 44 45  2  0  0  0
 40 45  1  0  0  0
 28 29  2  0  0  0
 28 27  1  0  0  0
 33 27  1  0  0  0
 33 34  1  0  0  0
 45 39  1  0  0  0
 29 30  1  0  0  0
 27 32  2  0  0  0
 25 24  2  0  0  0
 32 31  1  0  0  0
 30 31  2  0  0  0
 30 24  1  0  0  0
 17 16  1  0  0  0
 17 13  1  0  0  0
 39  1  1  0  0  0
 16 15  1  0  0  0
 24 26  2  0  0  0
 24 23  1  0  0  0
 15 12  1  0  0  0
 13 12  1  0  0  0
 13 14  1  0  0  0
  1  2  1  0  0  0
  1 19  1  0  0  0
 12 11  1  0  0  0
 23 22  1  0  0  0
 23 35  1  0  0  0
  4  3  2  0  0  0
 22 19  1  0  0  0
 14  7  1  0  0  0
 14 10  1  0  0  0
  2  3  1  0  0  0
  3  6  1  0  0  0
 19 20  1  0  0  0
  6  7  1  0  0  0
  7 18  1  0  0  0
 11 10  1  0  0  0
 35 36  1  0  0  0
 10  9  1  0  0  0
 18  8  1  0  0  0
 37 36  1  0  0  0
 36 38  1  0  0  0
  9  8  1  0  0  0
 20 21  1  0  0  0
  2  5  1  0  0  0
M  END
> <minimizedAffinity>
-9.25710

$$$$
4KB9_G79_A_201


 45 49  0  0  0  0  0  0  0  0999 V2000
   15.7769   21.4765   15.5201 C   0  0  0  0  0  0  0  0  0  0  0  0
   16.2926   22.2578   16.6433 N   0  0  0  0  0  0  0  0  0  0  0  0
   15.5745   23.2555   17.1461 C   0  0  0  0  0  0  0  0  0  0  0  0
   14.4121   23.5796   16.9075 O   0  0  0  0  0  0  0  0  0  0  0  0
   17.1735   22.0440   17.0275 H   0  0  0  0  0  0  0  0  0  0  0  0
   16.3370   24.0077   18.0442 O   0  0  0  0  0  0  0  0  0  0  0  0
   15.7674   25.2559   18.3984 C   0  0  0  0  0  0  0  0  0  0  0  0
   16.5293   25.1151   20.7585 C   0  0  0  0  0  0  0  0  0  0  0  0
   17.4654   26.2894   20.5736 C   0  0  0  0  0  0  0  0  0  0  0  0
   17.8591   26.4067   19.1396 C   0  0  0  0  0  0  0  0  0  0  0  0
   18.7863   25.4337   18.7208 O   0  0  0  0  0  0  0  0  0  0  0  0
   18.7346   25.2491   17.3183 C   0  0  0  0  0  0  0  0  0  0  0  0
   17.5606   26.0763   16.8235 C   0  0  0  0  0  0  0  0  0  0  0  0
   16.7665   26.3696   18.1035 C   0  0  0  0  0  0  0  0  0  0  0  0
   19.9205   25.7531   16.6801 O   0  0  0  0  0  0  0  0  0  0  0  0
   19.6980   27.1533   16.5405 C   0  0  0  0  0  0  0  0  0  0  0  0
   18.2173   27.3220   16.2920 C   0  0  0  0  0  0  0  0  0  0  0  0
   15.3334   25.2420   19.8388 C   0  0  0  0  0  0  0  0  0  0  0  0
   15.1833   20.1702   16.0594 C   0  0  0  0  0  0  0  0  0  0  0  0
   15.6101   19.0438   15.2785 O   0  0  0  0  0  0  0  0  0  0  0  0
   15.2759   19.1334   14.3722 H   0  0  0  0  0  0  0  0  0  0  0  0
   13.6478   20.1973   16.1285 C   0  0  0  0  0  0  0  0  0  0  0  0
   13.1488   19.9470   17.4741 N   0  0  0  0  0  0  0  0  0  0  0  0
   12.4114   18.5201   17.8211 S   0  0  0  0  0  0  0  0  0  0  0  0
   13.2791   17.7265   18.7046 O   0  0  0  0  0  0  0  0  0  0  0  0
   12.0118   17.9434   16.5039 O   0  0  0  0  0  0  0  0  0  0  0  0
    8.5093   18.8094   20.1840 C   0  0  0  0  0  0  0  0  0  0  0  0
    8.4990   18.7542   18.7943 C   0  0  0  0  0  0  0  0  0  0  0  0
    9.7022   18.8102   18.0815 C   0  0  0  0  0  0  0  0  0  0  0  0
   10.9179   18.7442   18.7495 C   0  0  0  0  0  0  0  0  0  0  0  0
   10.9375   18.8131   20.1232 C   0  0  0  0  0  0  0  0  0  0  0  0
    9.7383   18.8574   20.8473 C   0  0  0  0  0  0  0  0  0  0  0  0
    7.3040   18.7207   20.8148 O   0  0  0  0  0  0  0  0  0  0  0  0
    6.2787   19.4147   20.1454 C   0  0  0  0  0  0  0  0  0  0  0  0
   13.9508   20.4960   18.5488 C   0  0  0  0  0  0  0  0  0  0  0  0
   13.2046   21.3478   19.5645 C   0  0  0  0  0  0  0  0  0  0  0  0
   14.1106   22.2451   20.3993 C   0  0  0  0  0  0  0  0  0  0  0  0
   12.1391   22.2174   18.8941 C   0  0  0  0  0  0  0  0  0  0  0  0
   16.9380   21.2490   14.5523 C   0  0  0  0  0  0  0  0  0  0  0  0
   16.5973   23.4069   13.2340 C   0  0  0  0  0  0  0  0  0  0  0  0
   17.0904   24.5979   12.7028 C   0  0  0  0  0  0  0  0  0  0  0  0
   18.3952   24.9970   12.9691 C   0  0  0  0  0  0  0  0  0  0  0  0
   19.2112   24.1568   13.6950 C   0  0  0  0  0  0  0  0  0  0  0  0
   18.7469   22.9669   14.2125 C   0  0  0  0  0  0  0  0  0  0  0  0
   17.4411   22.5751   13.9797 C   0  0  0  0  0  0  0  0  0  0  0  0
 42 43  2  0  0  0
 42 41  1  0  0  0
 43 44  1  0  0  0
 41 40  2  0  0  0
 44 45  2  0  0  0
 40 45  1  0  0  0
 28 29  2  0  0  0
 28 27  1  0  0  0
 33 27  1  0  0  0
 33 34  1  0  0  0
 45 39  1  0  0  0
 29 30  1  0  0  0
 27 32  2  0  0  0
 25 24  2  0  0  0
 32 31  1  0  0  0
 30 31  2  0  0  0
 30 24  1  0  0  0
 17 16  1  0  0  0
 17 13  1  0  0  0
 39  1  1  0  0  0
 16 15  1  0  0  0
 24 26  2  0  0  0
 24 23  1  0  0  0
 15 12  1  0  0  0
 13 12  1  0  0  0
 13 14  1  0  0  0
  1  2  1  0  0  0
  1 19  1  0  0  0
 12 11  1  0  0  0
 23 22  1  0  0  0
 23 35  1  0  0  0
  4  3  2  0  0  0
 22 19  1  0  0  0
 14  7  1  0  0  0
 14 10  1  0  0  0
  2  3  1  0  0  0
  3  6  1  0  0  0
 19 20  1  0  0  0
  6  7  1  0  0  0
  7 18  1  0  0  0
 11 10  1  0  0  0
 35 36  1  0  0  0
 10  9  1  0  0  0
 18  8  1  0  0  0
 37 36  1  0  0  0
 36 38  1  0  0  0
  9  8  1  0  0  0
 20 21  1  0  0  0
  2  5  1  0  0  0
M  END
> <minimizedAffinity>
-9.25410

$$$$
