4HT0_V50_A_304


 25 26  0  0  0  0  0  0  0  0999 V2000
   -3.9429    0.7441   14.4490 F   0  0  0  0  0  0  0  0  0  0  0  0
   -4.5017    1.9282   14.5333 C   0  0  0  0  0  0  0  0  0  0  0  0
   -5.4029    2.1112   15.6051 C   0  0  0  0  0  0  0  0  0  0  0  0
   -5.9862    3.3775   15.6343 C   0  0  0  0  0  0  0  0  0  0  0  0
   -6.7888    3.6026   16.6605 F   0  0  0  0  0  0  0  0  0  0  0  0
   -5.7510    4.3894   14.6605 C   0  0  0  0  0  0  0  0  0  0  0  0
   -6.3800    5.5741   14.7679 F   0  0  0  0  0  0  0  0  0  0  0  0
   -4.2339    2.9122   13.5209 C   0  0  0  0  0  0  0  0  0  0  0  0
   -3.3917    2.7205   12.4232 F   0  0  0  0  0  0  0  0  0  0  0  0
   -4.8279    4.1699   13.6003 C   0  0  0  0  0  0  0  0  0  0  0  0
   -5.7129    0.9249   16.9188 S   0  0  0  0  0  0  0  0  0  0  0  0
   -5.3526   -0.4034   16.5521 O   0  0  0  0  0  0  0  0  0  0  0  0
   -7.3181    0.8363   16.8948 N   0  0  0  0  0  0  0  0  0  0  0  0
   -5.6748    1.4575   18.2965 O   0  0  0  0  0  0  0  0  0  0  0  0
   -7.7124    1.7430   17.1452 H   0  0  0  0  0  0  0  0  0  0  0  0
   -7.6299    0.1332   17.5648 H   0  0  0  0  0  0  0  0  0  0  0  0
   -4.4610    5.2801   12.2407 S   0  0  0  0  0  0  0  0  0  0  0  0
   -5.1403    6.3440   10.9196 C   0  0  0  0  0  0  0  0  0  0  0  0
   -4.6492    7.6169   11.0290 N   0  0  0  0  0  0  0  0  0  0  0  0
   -5.0570    8.5737   10.1375 C   0  0  0  0  0  0  0  0  0  0  0  0
   -4.4291    9.9408   10.2551 C   0  0  0  0  0  0  0  0  0  0  0  0
   -5.9689    8.3742    9.1345 C   0  0  0  0  0  0  0  0  0  0  0  0
   -6.4677    7.0848    9.1390 C   0  0  0  0  0  0  0  0  0  0  0  0
   -6.1107    6.0556    9.9941 N   0  0  0  0  0  0  0  0  0  0  0  0
   -7.5035    6.8575    8.0570 C   0  0  0  0  0  0  0  0  0  0  0  0
 21 20  1  0  0  0
 20 19  2  0  0  0
 20 22  1  0  0  0
 19 18  1  0  0  0
 22 23  2  0  0  0
 17 18  1  0  0  0
 17 10  1  0  0  0
 18 24  2  0  0  0
  7  6  1  0  0  0
 23 24  1  0  0  0
 23 25  1  0  0  0
  6 10  2  0  0  0
  6  4  1  0  0  0
 10  8  1  0  0  0
  9  8  1  0  0  0
  8  2  2  0  0  0
  4  5  1  0  0  0
  4  3  2  0  0  0
  2  3  1  0  0  0
  2  1  1  0  0  0
  3 11  1  0  0  0
 13 11  1  0  0  0
 14 11  2  0  0  0
 11 12  2  0  0  0
 13 15  1  0  0  0
 13 16  1  0  0  0
M  END
> <minimizedAffinity>
-8.19732

$$$$
4HT0_V50_A_304


 25 26  0  0  0  0  0  0  0  0999 V2000
   -6.9013    3.7703   16.4686 F   0  0  0  0  0  0  0  0  0  0  0  0
   -6.0899    3.3348   15.5340 C   0  0  0  0  0  0  0  0  0  0  0  0
   -5.6289    2.0084   15.6849 C   0  0  0  0  0  0  0  0  0  0  0  0
   -4.7516    1.6042   14.6791 C   0  0  0  0  0  0  0  0  0  0  0  0
   -4.3490    0.3474   14.7568 F   0  0  0  0  0  0  0  0  0  0  0  0
   -4.3081    2.4448   13.6189 C   0  0  0  0  0  0  0  0  0  0  0  0
   -3.4427    1.9642   12.7073 F   0  0  0  0  0  0  0  0  0  0  0  0
   -5.6692    4.2263   14.4884 C   0  0  0  0  0  0  0  0  0  0  0  0
   -6.0711    5.5582   14.3643 F   0  0  0  0  0  0  0  0  0  0  0  0
   -4.8032    3.7729   13.4957 C   0  0  0  0  0  0  0  0  0  0  0  0
   -6.1813    0.8512   16.9439 S   0  0  0  0  0  0  0  0  0  0  0  0
   -7.5919    0.8863   17.1375 O   0  0  0  0  0  0  0  0  0  0  0  0
   -5.6590    1.5677   18.2851 N   0  0  0  0  0  0  0  0  0  0  0  0
   -5.3334   -0.3419   17.1456 O   0  0  0  0  0  0  0  0  0  0  0  0
   -4.6399    1.6088   18.2739 H   0  0  0  0  0  0  0  0  0  0  0  0
   -5.9689    1.0350   19.0979 H   0  0  0  0  0  0  0  0  0  0  0  0
   -4.3069    5.0030   12.2888 S   0  0  0  0  0  0  0  0  0  0  0  0
   -4.8547    6.1824   11.0052 C   0  0  0  0  0  0  0  0  0  0  0  0
   -4.2260    7.3880   11.1623 N   0  0  0  0  0  0  0  0  0  0  0  0
   -4.5188    8.4155   10.3048 C   0  0  0  0  0  0  0  0  0  0  0  0
   -3.7438    9.6992   10.4740 C   0  0  0  0  0  0  0  0  0  0  0  0
   -5.4401    8.3547    9.2926 C   0  0  0  0  0  0  0  0  0  0  0  0
   -6.0790    7.1295    9.2487 C   0  0  0  0  0  0  0  0  0  0  0  0
   -5.8446    6.0370   10.0669 N   0  0  0  0  0  0  0  0  0  0  0  0
   -7.1260    7.0576    8.1561 C   0  0  0  0  0  0  0  0  0  0  0  0
 21 20  1  0  0  0
 20 19  2  0  0  0
 20 22  1  0  0  0
 19 18  1  0  0  0
 22 23  2  0  0  0
 17 18  1  0  0  0
 17 10  1  0  0  0
 18 24  2  0  0  0
  7  6  1  0  0  0
 23 24  1  0  0  0
 23 25  1  0  0  0
  6 10  2  0  0  0
  6  4  1  0  0  0
 10  8  1  0  0  0
  9  8  1  0  0  0
  8  2  2  0  0  0
  4  5  1  0  0  0
  4  3  2  0  0  0
  2  3  1  0  0  0
  2  1  1  0  0  0
  3 11  1  0  0  0
 13 11  1  0  0  0
 14 11  2  0  0  0
 11 12  2  0  0  0
 13 15  1  0  0  0
 13 16  1  0  0  0
M  END
> <minimizedAffinity>
-8.19576

$$$$
4HT0_V50_A_304


 25 26  0  0  0  0  0  0  0  0999 V2000
   -6.4258    3.8518   16.2696 F   0  0  0  0  0  0  0  0  0  0  0  0
   -5.7324    3.1504   15.4043 C   0  0  0  0  0  0  0  0  0  0  0  0
   -5.3926    1.8388   15.8030 C   0  0  0  0  0  0  0  0  0  0  0  0
   -4.6361    1.1462   14.8582 C   0  0  0  0  0  0  0  0  0  0  0  0
   -4.3529   -0.1059   15.1740 F   0  0  0  0  0  0  0  0  0  0  0  0
   -4.1933    1.7021   13.6244 C   0  0  0  0  0  0  0  0  0  0  0  0
   -3.4491    0.9554   12.7881 F   0  0  0  0  0  0  0  0  0  0  0  0
   -5.3062    3.7612   14.1754 C   0  0  0  0  0  0  0  0  0  0  0  0
   -5.5849    5.0770   13.7986 F   0  0  0  0  0  0  0  0  0  0  0  0
   -4.5648    3.0247   13.2542 C   0  0  0  0  0  0  0  0  0  0  0  0
   -5.9594    1.0268   17.3025 S   0  0  0  0  0  0  0  0  0  0  0  0
   -5.5534   -0.3366   17.3727 O   0  0  0  0  0  0  0  0  0  0  0  0
   -7.5324    0.8746   17.0064 N   0  0  0  0  0  0  0  0  0  0  0  0
   -6.1746    1.9023   18.4732 O   0  0  0  0  0  0  0  0  0  0  0  0
   -7.9552    1.7998   16.9311 H   0  0  0  0  0  0  0  0  0  0  0  0
   -7.9736    0.3601   17.7686 H   0  0  0  0  0  0  0  0  0  0  0  0
   -4.0427    3.9242   11.7934 S   0  0  0  0  0  0  0  0  0  0  0  0
   -4.4418    5.2472   10.5979 C   0  0  0  0  0  0  0  0  0  0  0  0
   -5.4045    6.0774   11.1053 N   0  0  0  0  0  0  0  0  0  0  0  0
   -5.8557    7.1257   10.3475 C   0  0  0  0  0  0  0  0  0  0  0  0
   -6.8619    8.0544   10.9815 C   0  0  0  0  0  0  0  0  0  0  0  0
   -5.4423    7.4070    9.0719 C   0  0  0  0  0  0  0  0  0  0  0  0
   -4.5253    6.4812    8.6101 C   0  0  0  0  0  0  0  0  0  0  0  0
   -4.0105    5.3994    9.3048 N   0  0  0  0  0  0  0  0  0  0  0  0
   -4.0839    6.7586    7.1876 C   0  0  0  0  0  0  0  0  0  0  0  0
 21 20  1  0  0  0
 20 19  2  0  0  0
 20 22  1  0  0  0
 19 18  1  0  0  0
 22 23  2  0  0  0
 17 18  1  0  0  0
 17 10  1  0  0  0
 18 24  2  0  0  0
  7  6  1  0  0  0
 23 24  1  0  0  0
 23 25  1  0  0  0
  6 10  2  0  0  0
  6  4  1  0  0  0
 10  8  1  0  0  0
  9  8  1  0  0  0
  8  2  2  0  0  0
  4  5  1  0  0  0
  4  3  2  0  0  0
  2  3  1  0  0  0
  2  1  1  0  0  0
  3 11  1  0  0  0
 13 11  1  0  0  0
 14 11  2  0  0  0
 11 12  2  0  0  0
 13 15  1  0  0  0
 13 16  1  0  0  0
M  END
> <minimizedAffinity>
-8.15727

$$$$
4HT0_V50_A_304


 25 26  0  0  0  0  0  0  0  0999 V2000
   -4.2656    0.5175   14.6012 F   0  0  0  0  0  0  0  0  0  0  0  0
   -4.7191    1.7473   14.6596 C   0  0  0  0  0  0  0  0  0  0  0  0
   -5.6849    2.0028   15.6579 C   0  0  0  0  0  0  0  0  0  0  0  0
   -6.1508    3.3172   15.6608 C   0  0  0  0  0  0  0  0  0  0  0  0
   -7.0110    3.6059   16.6223 F   0  0  0  0  0  0  0  0  0  0  0  0
   -5.7452    4.3119   14.7262 C   0  0  0  0  0  0  0  0  0  0  0  0
   -6.2703    5.5485   14.8020 F   0  0  0  0  0  0  0  0  0  0  0  0
   -4.2806    2.7117   13.6887 C   0  0  0  0  0  0  0  0  0  0  0  0
   -3.3722    2.4531   12.6597 F   0  0  0  0  0  0  0  0  0  0  0  0
   -4.7621    4.0179   13.7407 C   0  0  0  0  0  0  0  0  0  0  0  0
   -6.2085    0.8382   16.9223 S   0  0  0  0  0  0  0  0  0  0  0  0
   -7.6103    0.8920   17.1683 O   0  0  0  0  0  0  0  0  0  0  0  0
   -5.6263    1.5297   18.2519 N   0  0  0  0  0  0  0  0  0  0  0  0
   -5.3723   -0.3700   17.0781 O   0  0  0  0  0  0  0  0  0  0  0  0
   -4.6078    1.5556   18.2036 H   0  0  0  0  0  0  0  0  0  0  0  0
   -5.9143    0.9915   19.0691 H   0  0  0  0  0  0  0  0  0  0  0  0
   -4.1851    5.1019   12.4338 S   0  0  0  0  0  0  0  0  0  0  0  0
   -4.5478    6.5628   11.3979 C   0  0  0  0  0  0  0  0  0  0  0  0
   -5.5835    6.2989   10.5428 N   0  0  0  0  0  0  0  0  0  0  0  0
   -5.9946    7.2678    9.6658 C   0  0  0  0  0  0  0  0  0  0  0  0
   -7.1880    6.9530    8.7977 C   0  0  0  0  0  0  0  0  0  0  0  0
   -5.4212    8.5056    9.5385 C   0  0  0  0  0  0  0  0  0  0  0  0
   -4.3402    8.6636   10.3857 C   0  0  0  0  0  0  0  0  0  0  0  0
   -3.8598    7.7457   11.3048 N   0  0  0  0  0  0  0  0  0  0  0  0
   -3.6733   10.0153   10.2327 C   0  0  0  0  0  0  0  0  0  0  0  0
 21 20  1  0  0  0
 20 19  2  0  0  0
 20 22  1  0  0  0
 19 18  1  0  0  0
 22 23  2  0  0  0
 17 18  1  0  0  0
 17 10  1  0  0  0
 18 24  2  0  0  0
  7  6  1  0  0  0
 23 24  1  0  0  0
 23 25  1  0  0  0
  6 10  2  0  0  0
  6  4  1  0  0  0
 10  8  1  0  0  0
  9  8  1  0  0  0
  8  2  2  0  0  0
  4  5  1  0  0  0
  4  3  2  0  0  0
  2  3  1  0  0  0
  2  1  1  0  0  0
  3 11  1  0  0  0
 13 11  1  0  0  0
 14 11  2  0  0  0
 11 12  2  0  0  0
 13 15  1  0  0  0
 13 16  1  0  0  0
M  END
> <minimizedAffinity>
-7.97558

$$$$
4HT0_V50_A_304


 25 26  0  0  0  0  0  0  0  0999 V2000
   -4.1750    0.2219   14.9795 F   0  0  0  0  0  0  0  0  0  0  0  0
   -4.6009    1.4534   14.8262 C   0  0  0  0  0  0  0  0  0  0  0  0
   -5.5051    1.9208   15.8052 C   0  0  0  0  0  0  0  0  0  0  0  0
   -5.9448    3.2253   15.5819 C   0  0  0  0  0  0  0  0  0  0  0  0
   -6.7449    3.7153   16.5132 F   0  0  0  0  0  0  0  0  0  0  0  0
   -5.5721    4.0135   14.4561 C   0  0  0  0  0  0  0  0  0  0  0  0
   -6.0684    5.2571   14.3220 F   0  0  0  0  0  0  0  0  0  0  0  0
   -4.1981    2.2040   13.6688 C   0  0  0  0  0  0  0  0  0  0  0  0
   -3.3528    1.7293   12.6632 F   0  0  0  0  0  0  0  0  0  0  0  0
   -4.6507    3.5101   13.4960 C   0  0  0  0  0  0  0  0  0  0  0  0
   -5.9805    1.0316   17.2926 S   0  0  0  0  0  0  0  0  0  0  0  0
   -5.5120   -0.3134   17.2986 O   0  0  0  0  0  0  0  0  0  0  0  0
   -7.5548    0.8180   17.0456 N   0  0  0  0  0  0  0  0  0  0  0  0
   -6.1919    1.8547   18.5012 O   0  0  0  0  0  0  0  0  0  0  0  0
   -8.0209    1.7249   17.0190 H   0  0  0  0  0  0  0  0  0  0  0  0
   -7.9449    0.2574   17.8032 H   0  0  0  0  0  0  0  0  0  0  0  0
   -4.1258    4.3107   11.9796 S   0  0  0  0  0  0  0  0  0  0  0  0
   -2.8566    4.4027   10.6684 C   0  0  0  0  0  0  0  0  0  0  0  0
   -3.3920    4.9159    9.5180 N   0  0  0  0  0  0  0  0  0  0  0  0
   -2.6000    5.0465    8.4079 C   0  0  0  0  0  0  0  0  0  0  0  0
   -3.2180    5.6869    7.1893 C   0  0  0  0  0  0  0  0  0  0  0  0
   -1.2864    4.6649    8.3317 C   0  0  0  0  0  0  0  0  0  0  0  0
   -0.8457    4.0922    9.5103 C   0  0  0  0  0  0  0  0  0  0  0  0
   -1.5707    3.9256   10.6785 N   0  0  0  0  0  0  0  0  0  0  0  0
    0.5959    3.6330    9.4312 C   0  0  0  0  0  0  0  0  0  0  0  0
 21 20  1  0  0  0
 20 19  2  0  0  0
 20 22  1  0  0  0
 19 18  1  0  0  0
 22 23  2  0  0  0
 17 18  1  0  0  0
 17 10  1  0  0  0
 18 24  2  0  0  0
  7  6  1  0  0  0
 23 24  1  0  0  0
 23 25  1  0  0  0
  6 10  2  0  0  0
  6  4  1  0  0  0
 10  8  1  0  0  0
  9  8  1  0  0  0
  8  2  2  0  0  0
  4  5  1  0  0  0
  4  3  2  0  0  0
  2  3  1  0  0  0
  2  1  1  0  0  0
  3 11  1  0  0  0
 13 11  1  0  0  0
 14 11  2  0  0  0
 11 12  2  0  0  0
 13 15  1  0  0  0
 13 16  1  0  0  0
M  END
> <minimizedAffinity>
-7.86675

$$$$
4HT0_V50_A_304


 25 26  0  0  0  0  0  0  0  0999 V2000
   -5.2739    3.5756   15.6052 F   0  0  0  0  0  0  0  0  0  0  0  0
   -4.9115    3.2526   14.3862 C   0  0  0  0  0  0  0  0  0  0  0  0
   -4.5413    1.9041   14.1886 C   0  0  0  0  0  0  0  0  0  0  0  0
   -4.1421    1.6201   12.8829 C   0  0  0  0  0  0  0  0  0  0  0  0
   -3.8473    0.3528   12.6490 F   0  0  0  0  0  0  0  0  0  0  0  0
   -4.0590    2.5892   11.8431 C   0  0  0  0  0  0  0  0  0  0  0  0
   -3.6420    2.2166   10.6191 F   0  0  0  0  0  0  0  0  0  0  0  0
   -4.8397    4.2707   13.3746 C   0  0  0  0  0  0  0  0  0  0  0  0
   -5.1449    5.6189   13.5748 F   0  0  0  0  0  0  0  0  0  0  0  0
   -4.4503    3.9365   12.0794 C   0  0  0  0  0  0  0  0  0  0  0  0
   -4.6772    0.5969   15.4141 S   0  0  0  0  0  0  0  0  0  0  0  0
   -5.8353    0.7326   16.2320 O   0  0  0  0  0  0  0  0  0  0  0  0
   -3.5118    1.0044   16.4440 N   0  0  0  0  0  0  0  0  0  0  0  0
   -4.0397   -0.6894   15.0644 O   0  0  0  0  0  0  0  0  0  0  0  0
   -2.6081    0.9480   15.9745 H   0  0  0  0  0  0  0  0  0  0  0  0
   -3.5222    0.3658   17.2393 H   0  0  0  0  0  0  0  0  0  0  0  0
   -4.3405    5.3102   10.9317 S   0  0  0  0  0  0  0  0  0  0  0  0
   -5.1303    6.8323   10.3009 C   0  0  0  0  0  0  0  0  0  0  0  0
   -6.1133    6.5242    9.3997 N   0  0  0  0  0  0  0  0  0  0  0  0
   -6.8132    7.5357    8.7964 C   0  0  0  0  0  0  0  0  0  0  0  0
   -7.9361    7.1417    7.8685 C   0  0  0  0  0  0  0  0  0  0  0  0
   -6.5873    8.8726    8.9935 C   0  0  0  0  0  0  0  0  0  0  0  0
   -5.5337    9.0960    9.8603 C   0  0  0  0  0  0  0  0  0  0  0  0
   -4.7775    8.1399   10.5177 N   0  0  0  0  0  0  0  0  0  0  0  0
   -5.2484   10.5702   10.0622 C   0  0  0  0  0  0  0  0  0  0  0  0
 21 20  1  0  0  0
 20 19  2  0  0  0
 20 22  1  0  0  0
 19 18  1  0  0  0
 22 23  2  0  0  0
 17 18  1  0  0  0
 17 10  1  0  0  0
 18 24  2  0  0  0
  7  6  1  0  0  0
 23 24  1  0  0  0
 23 25  1  0  0  0
  6 10  2  0  0  0
  6  4  1  0  0  0
 10  8  1  0  0  0
  9  8  1  0  0  0
  8  2  2  0  0  0
  4  5  1  0  0  0
  4  3  2  0  0  0
  2  3  1  0  0  0
  2  1  1  0  0  0
  3 11  1  0  0  0
 13 11  1  0  0  0
 14 11  2  0  0  0
 11 12  2  0  0  0
 13 15  1  0  0  0
 13 16  1  0  0  0
M  END
> <minimizedAffinity>
-7.73676

$$$$
4HT0_V50_A_304


 25 26  0  0  0  0  0  0  0  0999 V2000
   -4.4873    3.9983   15.3617 F   0  0  0  0  0  0  0  0  0  0  0  0
   -4.4487    3.5071   14.1457 C   0  0  0  0  0  0  0  0  0  0  0  0
   -4.4569    2.0983   14.0479 C   0  0  0  0  0  0  0  0  0  0  0  0
   -4.3903    1.6291   12.7363 C   0  0  0  0  0  0  0  0  0  0  0  0
   -4.4577    0.3153   12.6058 F   0  0  0  0  0  0  0  0  0  0  0  0
   -4.2739    2.4678   11.5916 C   0  0  0  0  0  0  0  0  0  0  0  0
   -4.1962    1.9144   10.3674 F   0  0  0  0  0  0  0  0  0  0  0  0
   -4.3260    4.3979   13.0247 C   0  0  0  0  0  0  0  0  0  0  0  0
   -4.2555    5.7900   13.1145 F   0  0  0  0  0  0  0  0  0  0  0  0
   -4.2787    3.8837   11.7309 C   0  0  0  0  0  0  0  0  0  0  0  0
   -4.6699    0.9605   15.4224 S   0  0  0  0  0  0  0  0  0  0  0  0
   -5.7338    1.3428   16.2887 O   0  0  0  0  0  0  0  0  0  0  0  0
   -3.3854    1.3083   16.3247 N   0  0  0  0  0  0  0  0  0  0  0  0
   -4.2365   -0.4321   15.1853 O   0  0  0  0  0  0  0  0  0  0  0  0
   -2.5357    1.0766   15.8102 H   0  0  0  0  0  0  0  0  0  0  0  0
   -3.4190    0.7655   17.1876 H   0  0  0  0  0  0  0  0  0  0  0  0
   -4.0601    5.0977   10.4292 S   0  0  0  0  0  0  0  0  0  0  0  0
   -4.8585    6.3596    9.3762 C   0  0  0  0  0  0  0  0  0  0  0  0
   -3.9612    7.3342    9.0320 N   0  0  0  0  0  0  0  0  0  0  0  0
   -4.3749    8.3853    8.2569 C   0  0  0  0  0  0  0  0  0  0  0  0
   -3.3302    9.3925    7.8432 C   0  0  0  0  0  0  0  0  0  0  0  0
   -5.6560    8.5740    7.8093 C   0  0  0  0  0  0  0  0  0  0  0  0
   -6.5114    7.5858    8.2601 C   0  0  0  0  0  0  0  0  0  0  0  0
   -6.1815    6.4886    9.0382 N   0  0  0  0  0  0  0  0  0  0  0  0
   -7.9398    7.7987    7.8022 C   0  0  0  0  0  0  0  0  0  0  0  0
 21 20  1  0  0  0
 20 19  2  0  0  0
 20 22  1  0  0  0
 19 18  1  0  0  0
 22 23  2  0  0  0
 17 18  1  0  0  0
 17 10  1  0  0  0
 18 24  2  0  0  0
  7  6  1  0  0  0
 23 24  1  0  0  0
 23 25  1  0  0  0
  6 10  2  0  0  0
  6  4  1  0  0  0
 10  8  1  0  0  0
  9  8  1  0  0  0
  8  2  2  0  0  0
  4  5  1  0  0  0
  4  3  2  0  0  0
  2  3  1  0  0  0
  2  1  1  0  0  0
  3 11  1  0  0  0
 13 11  1  0  0  0
 14 11  2  0  0  0
 11 12  2  0  0  0
 13 15  1  0  0  0
 13 16  1  0  0  0
M  END
> <minimizedAffinity>
-7.65082

$$$$
4HT0_V50_A_304


 25 26  0  0  0  0  0  0  0  0999 V2000
   -6.0675    3.8793   15.9134 F   0  0  0  0  0  0  0  0  0  0  0  0
   -5.4438    3.0637   15.0965 C   0  0  0  0  0  0  0  0  0  0  0  0
   -5.2414    1.7491   15.5712 C   0  0  0  0  0  0  0  0  0  0  0  0
   -4.5535    0.9315   14.6751 C   0  0  0  0  0  0  0  0  0  0  0  0
   -4.4008   -0.3231   15.0631 F   0  0  0  0  0  0  0  0  0  0  0  0
   -4.0490    1.3694   13.4176 C   0  0  0  0  0  0  0  0  0  0  0  0
   -3.3795    0.5054   12.6328 F   0  0  0  0  0  0  0  0  0  0  0  0
   -4.9504    3.5583   13.8407 C   0  0  0  0  0  0  0  0  0  0  0  0
   -5.0917    4.8722   13.3883 F   0  0  0  0  0  0  0  0  0  0  0  0
   -4.2820    2.6998   12.9704 C   0  0  0  0  0  0  0  0  0  0  0  0
   -5.8967    1.0842   17.1066 S   0  0  0  0  0  0  0  0  0  0  0  0
   -5.6748   -0.3168   17.2344 O   0  0  0  0  0  0  0  0  0  0  0  0
   -7.4787    1.1303   16.8233 N   0  0  0  0  0  0  0  0  0  0  0  0
   -5.9825    2.0296   18.2389 O   0  0  0  0  0  0  0  0  0  0  0  0
   -7.7756    2.0995   16.7095 H   0  0  0  0  0  0  0  0  0  0  0  0
   -7.9771    0.7120   17.6088 H   0  0  0  0  0  0  0  0  0  0  0  0
   -3.6625    3.4583   11.4682 S   0  0  0  0  0  0  0  0  0  0  0  0
   -2.1873    3.9653   10.5166 C   0  0  0  0  0  0  0  0  0  0  0  0
   -1.3395    4.6993   11.3014 N   0  0  0  0  0  0  0  0  0  0  0  0
   -0.1801    5.1906   10.7618 C   0  0  0  0  0  0  0  0  0  0  0  0
    0.7552    5.9285   11.6879 C   0  0  0  0  0  0  0  0  0  0  0  0
    0.2037    5.0385    9.4553 C   0  0  0  0  0  0  0  0  0  0  0  0
   -0.7400    4.3490    8.7168 C   0  0  0  0  0  0  0  0  0  0  0  0
   -1.9311    3.8135    9.1777 N   0  0  0  0  0  0  0  0  0  0  0  0
   -0.3465    4.2022    7.2612 C   0  0  0  0  0  0  0  0  0  0  0  0
 21 20  1  0  0  0
 20 19  2  0  0  0
 20 22  1  0  0  0
 19 18  1  0  0  0
 22 23  2  0  0  0
 17 18  1  0  0  0
 17 10  1  0  0  0
 18 24  2  0  0  0
  7  6  1  0  0  0
 23 24  1  0  0  0
 23 25  1  0  0  0
  6 10  2  0  0  0
  6  4  1  0  0  0
 10  8  1  0  0  0
  9  8  1  0  0  0
  8  2  2  0  0  0
  4  5  1  0  0  0
  4  3  2  0  0  0
  2  3  1  0  0  0
  2  1  1  0  0  0
  3 11  1  0  0  0
 13 11  1  0  0  0
 14 11  2  0  0  0
 11 12  2  0  0  0
 13 15  1  0  0  0
 13 16  1  0  0  0
M  END
> <minimizedAffinity>
-7.56913

$$$$
4HT0_V50_A_304


 25 26  0  0  0  0  0  0  0  0999 V2000
   -6.8266    3.8792   16.4481 F   0  0  0  0  0  0  0  0  0  0  0  0
   -6.0103    3.3865   15.5467 C   0  0  0  0  0  0  0  0  0  0  0  0
   -5.6285    2.0392   15.7296 C   0  0  0  0  0  0  0  0  0  0  0  0
   -4.7424    1.5731   14.7588 C   0  0  0  0  0  0  0  0  0  0  0  0
   -4.4125    0.2974   14.8657 F   0  0  0  0  0  0  0  0  0  0  0  0
   -4.2187    2.3729   13.7035 C   0  0  0  0  0  0  0  0  0  0  0  0
   -3.3519    1.8326   12.8275 F   0  0  0  0  0  0  0  0  0  0  0  0
   -5.5071    4.2385   14.5046 C   0  0  0  0  0  0  0  0  0  0  0  0
   -5.8306    5.5885   14.3504 F   0  0  0  0  0  0  0  0  0  0  0  0
   -4.6355    3.7242   13.5472 C   0  0  0  0  0  0  0  0  0  0  0  0
   -6.2847    0.9322   16.9838 S   0  0  0  0  0  0  0  0  0  0  0  0
   -7.7068    0.8590   16.9583 O   0  0  0  0  0  0  0  0  0  0  0  0
   -6.0348    1.7857   18.3232 N   0  0  0  0  0  0  0  0  0  0  0  0
   -5.3929   -0.1656   17.4114 O   0  0  0  0  0  0  0  0  0  0  0  0
   -5.0326    1.9139   18.4627 H   0  0  0  0  0  0  0  0  0  0  0  0
   -6.4284    1.2881   19.1219 H   0  0  0  0  0  0  0  0  0  0  0  0
   -4.0329    4.9077   12.3422 S   0  0  0  0  0  0  0  0  0  0  0  0
   -3.1767    6.4986   12.0689 C   0  0  0  0  0  0  0  0  0  0  0  0
   -2.5554    6.9119   13.2163 N   0  0  0  0  0  0  0  0  0  0  0  0
   -1.8720    8.0993   13.2204 C   0  0  0  0  0  0  0  0  0  0  0  0
   -1.1423    8.4726   14.4874 C   0  0  0  0  0  0  0  0  0  0  0  0
   -1.7805    8.9558   12.1550 C   0  0  0  0  0  0  0  0  0  0  0  0
   -2.4936    8.4989   11.0623 C   0  0  0  0  0  0  0  0  0  0  0  0
   -3.2048    7.3144   10.9667 N   0  0  0  0  0  0  0  0  0  0  0  0
   -2.4310    9.4520    9.8863 C   0  0  0  0  0  0  0  0  0  0  0  0
 21 20  1  0  0  0
 20 19  2  0  0  0
 20 22  1  0  0  0
 19 18  1  0  0  0
 22 23  2  0  0  0
 17 18  1  0  0  0
 17 10  1  0  0  0
 18 24  2  0  0  0
  7  6  1  0  0  0
 23 24  1  0  0  0
 23 25  1  0  0  0
  6 10  2  0  0  0
  6  4  1  0  0  0
 10  8  1  0  0  0
  9  8  1  0  0  0
  8  2  2  0  0  0
  4  5  1  0  0  0
  4  3  2  0  0  0
  2  3  1  0  0  0
  2  1  1  0  0  0
  3 11  1  0  0  0
 13 11  1  0  0  0
 14 11  2  0  0  0
 11 12  2  0  0  0
 13 15  1  0  0  0
 13 16  1  0  0  0
M  END
> <minimizedAffinity>
-7.56866

$$$$
4HT0_V50_A_304


 25 26  0  0  0  0  0  0  0  0999 V2000
   -6.7073    3.8335   16.2571 F   0  0  0  0  0  0  0  0  0  0  0  0
   -5.9142    3.2654   15.3797 C   0  0  0  0  0  0  0  0  0  0  0  0
   -5.5939    1.9115   15.6220 C   0  0  0  0  0  0  0  0  0  0  0  0
   -4.7299    1.3637   14.6743 C   0  0  0  0  0  0  0  0  0  0  0  0
   -4.4582    0.0802   14.8375 F   0  0  0  0  0  0  0  0  0  0  0  0
   -4.1707    2.0920   13.5860 C   0  0  0  0  0  0  0  0  0  0  0  0
   -3.3292    1.4751   12.7361 F   0  0  0  0  0  0  0  0  0  0  0  0
   -5.3731    4.0473   14.3023 C   0  0  0  0  0  0  0  0  0  0  0  0
   -5.6351    5.4025   14.0886 F   0  0  0  0  0  0  0  0  0  0  0  0
   -4.5258    3.4526   13.3700 C   0  0  0  0  0  0  0  0  0  0  0  0
   -6.2994    0.8913   16.9223 S   0  0  0  0  0  0  0  0  0  0  0  0
   -7.7227    0.9400   16.9436 O   0  0  0  0  0  0  0  0  0  0  0  0
   -5.9330    1.7480   18.2325 N   0  0  0  0  0  0  0  0  0  0  0  0
   -5.4905   -0.2699   17.3472 O   0  0  0  0  0  0  0  0  0  0  0  0
   -4.9193    1.7924   18.3372 H   0  0  0  0  0  0  0  0  0  0  0  0
   -6.3404    1.3028   19.0548 H   0  0  0  0  0  0  0  0  0  0  0  0
   -3.8703    4.5537   12.1154 S   0  0  0  0  0  0  0  0  0  0  0  0
   -2.3755    5.1799   11.2714 C   0  0  0  0  0  0  0  0  0  0  0  0
   -2.3984    4.8450    9.9445 N   0  0  0  0  0  0  0  0  0  0  0  0
   -1.3505    5.2095    9.1410 C   0  0  0  0  0  0  0  0  0  0  0  0
   -1.4593    4.8824    7.6719 C   0  0  0  0  0  0  0  0  0  0  0  0
   -0.2281    5.8702    9.5665 C   0  0  0  0  0  0  0  0  0  0  0  0
   -0.2528    6.1060   10.9285 C   0  0  0  0  0  0  0  0  0  0  0  0
   -1.2675    5.7801   11.8130 N   0  0  0  0  0  0  0  0  0  0  0  0
    0.9975    6.8056   11.4210 C   0  0  0  0  0  0  0  0  0  0  0  0
 21 20  1  0  0  0
 20 19  2  0  0  0
 20 22  1  0  0  0
 19 18  1  0  0  0
 22 23  2  0  0  0
 17 18  1  0  0  0
 17 10  1  0  0  0
 18 24  2  0  0  0
  7  6  1  0  0  0
 23 24  1  0  0  0
 23 25  1  0  0  0
  6 10  2  0  0  0
  6  4  1  0  0  0
 10  8  1  0  0  0
  9  8  1  0  0  0
  8  2  2  0  0  0
  4  5  1  0  0  0
  4  3  2  0  0  0
  2  3  1  0  0  0
  2  1  1  0  0  0
  3 11  1  0  0  0
 13 11  1  0  0  0
 14 11  2  0  0  0
 11 12  2  0  0  0
 13 15  1  0  0  0
 13 16  1  0  0  0
M  END
> <minimizedAffinity>
-7.33878

$$$$
