5FHN_5XO_A_305


 29 31  0  0  0  0  0  0  0  0999 V2000
  -16.1904  -11.3040    8.5605 C   0  0  0  0  0  0  0  0  0  0  0  0
  -16.5874  -10.7195    9.6994 C   0  0  0  0  0  0  0  0  0  0  0  0
  -16.3912  -11.5131   10.7825 O   0  0  0  0  0  0  0  0  0  0  0  0
  -15.8172  -12.7623   10.2031 N   0  0  0  0  0  0  0  0  0  0  0  0
  -15.6950  -12.5991    8.8657 C   0  0  0  0  0  0  0  0  0  0  0  0
  -15.2521  -13.3503    7.9703 O   0  0  0  0  0  0  0  0  0  0  0  0
  -15.5690  -13.5696   10.7090 H   0  0  0  0  0  0  0  0  0  0  0  0
  -17.1026   -9.3741    9.8514 C   0  0  0  0  0  0  0  0  0  0  0  0
  -17.1141   -8.8108   11.0926 N   0  0  0  0  0  0  0  0  0  0  0  0
  -17.5684   -7.6207   10.9012 N   0  0  0  0  0  0  0  0  0  0  0  0
  -17.8140   -7.5320    9.5739 N   0  0  0  0  0  0  0  0  0  0  0  0
  -17.5347   -8.6344    8.8313 N   0  0  0  0  0  0  0  0  0  0  0  0
  -18.3449   -6.3451    8.9592 C   0  0  0  0  0  0  0  0  0  0  0  0
  -21.5104   -4.5213   11.2362 C   0  0  0  0  0  0  0  0  0  0  0  0
  -20.1982   -4.0395   11.3433 C   0  0  0  0  0  0  0  0  0  0  0  0
  -19.1687   -4.6612   10.6001 C   0  0  0  0  0  0  0  0  0  0  0  0
  -19.4766   -5.7218    9.7522 C   0  0  0  0  0  0  0  0  0  0  0  0
  -20.7927   -6.2246    9.6454 C   0  0  0  0  0  0  0  0  0  0  0  0
  -21.8192   -5.6165   10.4082 C   0  0  0  0  0  0  0  0  0  0  0  0
  -19.8723   -2.8637   12.2529 C   0  0  0  0  0  0  0  0  0  0  0  0
  -16.1869  -10.8080    7.1140 C   0  0  0  0  0  0  0  0  0  0  0  0
  -14.9711   -9.9357    6.7222 C   0  0  0  0  0  0  0  0  0  0  0  0
  -15.1941   -8.4630    6.8110 N   0  0  0  0  0  0  0  0  0  0  0  0
  -15.8768   -8.1795    6.1082 H   0  0  0  0  0  0  0  0  0  0  0  0
  -14.3136   -7.9753    6.6460 H   0  0  0  0  0  0  0  0  0  0  0  0
  -14.4162  -10.2531    5.3227 C   0  0  0  0  0  0  0  0  0  0  0  0
  -14.0975   -9.2971    4.5859 O   0  0  0  0  0  0  0  0  0  0  0  0
  -14.3071  -11.4614    5.0230 O   0  0  0  0  0  0  0  0  0  0  0  0
  -14.5697  -12.1212    5.6343 H   0  0  0  0  0  0  0  0  0  0  0  0
 27 26  2  0  0  0
 28 26  1  0  0  0
 26 22  1  0  0  0
 22 23  1  0  0  0
 22 21  1  0  0  0
 21  1  1  0  0  0
  6  5  2  0  0  0
  1  5  1  0  0  0
  1  2  2  0  0  0
  5  4  1  0  0  0
 12 11  1  0  0  0
 12  8  2  0  0  0
 13 11  1  0  0  0
 13 17  1  0  0  0
 11 10  1  0  0  0
  2  8  1  0  0  0
  2  3  1  0  0  0
 18 17  2  0  0  0
 18 19  1  0  0  0
 17 16  1  0  0  0
  8  9  1  0  0  0
  4  3  1  0  0  0
 19 14  2  0  0  0
 16 15  2  0  0  0
 10  9  2  0  0  0
 14 15  1  0  0  0
 15 20  1  0  0  0
  4  7  1  0  0  0
 28 29  1  0  0  0
 23 24  1  0  0  0
 23 25  1  0  0  0
M  END
> <minimizedAffinity>
-13.13367

$$$$
5FHN_5XO_A_305


 29 31  0  0  0  0  0  0  0  0999 V2000
  -16.1799  -11.3308    8.5267 C   0  0  0  0  0  0  0  0  0  0  0  0
  -16.5791  -10.7436    9.6634 C   0  0  0  0  0  0  0  0  0  0  0  0
  -16.3995  -11.5409   10.7468 O   0  0  0  0  0  0  0  0  0  0  0  0
  -15.8346  -12.7953   10.1698 N   0  0  0  0  0  0  0  0  0  0  0  0
  -15.7006  -12.6315    8.8336 C   0  0  0  0  0  0  0  0  0  0  0  0
  -15.2591  -13.3861    7.9404 O   0  0  0  0  0  0  0  0  0  0  0  0
  -15.5989  -13.6060   10.6763 H   0  0  0  0  0  0  0  0  0  0  0  0
  -17.0810   -9.3930    9.8136 C   0  0  0  0  0  0  0  0  0  0  0  0
  -17.0946   -8.8310   11.0554 N   0  0  0  0  0  0  0  0  0  0  0  0
  -17.5351   -7.6359   10.8623 N   0  0  0  0  0  0  0  0  0  0  0  0
  -17.7710   -7.5433    9.5336 N   0  0  0  0  0  0  0  0  0  0  0  0
  -17.4986   -8.6478    8.7915 N   0  0  0  0  0  0  0  0  0  0  0  0
  -18.2854   -6.3502    8.9168 C   0  0  0  0  0  0  0  0  0  0  0  0
  -21.0767   -4.2377   11.4223 C   0  0  0  0  0  0  0  0  0  0  0  0
  -21.5273   -5.2514   10.5651 C   0  0  0  0  0  0  0  0  0  0  0  0
  -20.5986   -5.9235    9.7378 C   0  0  0  0  0  0  0  0  0  0  0  0
  -19.2485   -5.5899    9.8071 C   0  0  0  0  0  0  0  0  0  0  0  0
  -18.7839   -4.5616   10.6573 C   0  0  0  0  0  0  0  0  0  0  0  0
  -19.7183   -3.8728   11.4683 C   0  0  0  0  0  0  0  0  0  0  0  0
  -23.0008   -5.6285   10.5123 C   0  0  0  0  0  0  0  0  0  0  0  0
  -16.1602  -10.8328    7.0810 C   0  0  0  0  0  0  0  0  0  0  0  0
  -14.9375   -9.9643    6.7026 C   0  0  0  0  0  0  0  0  0  0  0  0
  -15.1524   -8.4911    6.8026 N   0  0  0  0  0  0  0  0  0  0  0  0
  -15.8299   -8.1978    6.0988 H   0  0  0  0  0  0  0  0  0  0  0  0
  -14.2683   -8.0071    6.6460 H   0  0  0  0  0  0  0  0  0  0  0  0
  -14.3773  -10.2732    5.3032 C   0  0  0  0  0  0  0  0  0  0  0  0
  -14.2575  -11.4700    4.9690 O   0  0  0  0  0  0  0  0  0  0  0  0
  -14.0921   -9.2921    4.5837 O   0  0  0  0  0  0  0  0  0  0  0  0
  -14.2112   -8.4217    4.9097 H   0  0  0  0  0  0  0  0  0  0  0  0
 27 26  2  0  0  0
 28 26  1  0  0  0
 26 22  1  0  0  0
 22 23  1  0  0  0
 22 21  1  0  0  0
 21  1  1  0  0  0
  6  5  2  0  0  0
  1  5  1  0  0  0
  1  2  2  0  0  0
  5  4  1  0  0  0
 12 11  1  0  0  0
 12  8  2  0  0  0
 13 11  1  0  0  0
 13 17  1  0  0  0
 11 10  1  0  0  0
  2  8  1  0  0  0
  2  3  1  0  0  0
 18 17  2  0  0  0
 18 19  1  0  0  0
 17 16  1  0  0  0
  8  9  1  0  0  0
  4  3  1  0  0  0
 19 14  2  0  0  0
 16 15  2  0  0  0
 10  9  2  0  0  0
 14 15  1  0  0  0
 15 20  1  0  0  0
  4  7  1  0  0  0
 28 29  1  0  0  0
 23 24  1  0  0  0
 23 25  1  0  0  0
M  END
> <minimizedAffinity>
-12.53692

$$$$
5FHN_5XO_A_305


 29 31  0  0  0  0  0  0  0  0999 V2000
  -15.7481  -10.9503    8.5015 C   0  0  0  0  0  0  0  0  0  0  0  0
  -16.2143   -9.8988    7.8136 C   0  0  0  0  0  0  0  0  0  0  0  0
  -15.8401   -9.9282    6.5095 O   0  0  0  0  0  0  0  0  0  0  0  0
  -15.0091  -11.1632    6.4104 N   0  0  0  0  0  0  0  0  0  0  0  0
  -14.9854  -11.7637    7.6224 C   0  0  0  0  0  0  0  0  0  0  0  0
  -14.4459  -12.8183    8.0209 O   0  0  0  0  0  0  0  0  0  0  0  0
  -14.5544  -11.4868    5.5993 H   0  0  0  0  0  0  0  0  0  0  0  0
  -17.0848   -8.8528    8.3102 C   0  0  0  0  0  0  0  0  0  0  0  0
  -18.2108   -9.2038    8.9936 N   0  0  0  0  0  0  0  0  0  0  0  0
  -18.7371   -8.0814    9.3439 N   0  0  0  0  0  0  0  0  0  0  0  0
  -17.9181   -7.1240    8.8515 N   0  0  0  0  0  0  0  0  0  0  0  0
  -16.8255   -7.5539    8.1688 N   0  0  0  0  0  0  0  0  0  0  0  0
  -18.1714   -5.7191    9.0265 C   0  0  0  0  0  0  0  0  0  0  0  0
  -21.8103   -4.8596   11.1600 C   0  0  0  0  0  0  0  0  0  0  0  0
  -20.6364   -4.1531   11.4567 C   0  0  0  0  0  0  0  0  0  0  0  0
  -19.4468   -4.4599   10.7570 C   0  0  0  0  0  0  0  0  0  0  0  0
  -19.4648   -5.4369    9.7651 C   0  0  0  0  0  0  0  0  0  0  0  0
  -20.6382   -6.1647    9.4658 C   0  0  0  0  0  0  0  0  0  0  0  0
  -21.8235   -5.8731   10.1837 C   0  0  0  0  0  0  0  0  0  0  0  0
  -20.6291   -3.0688   12.5247 C   0  0  0  0  0  0  0  0  0  0  0  0
  -15.9198  -11.3618    9.9642 C   0  0  0  0  0  0  0  0  0  0  0  0
  -17.1522  -12.2499   10.2558 C   0  0  0  0  0  0  0  0  0  0  0  0
  -18.1387  -11.6690   11.2127 N   0  0  0  0  0  0  0  0  0  0  0  0
  -17.7165  -11.6046   12.1390 H   0  0  0  0  0  0  0  0  0  0  0  0
  -18.9635  -12.2674   11.2558 H   0  0  0  0  0  0  0  0  0  0  0  0
  -16.7864  -13.6628   10.7430 C   0  0  0  0  0  0  0  0  0  0  0  0
  -15.7400  -14.1835   10.3043 O   0  0  0  0  0  0  0  0  0  0  0  0
  -17.5639  -14.1914   11.5662 O   0  0  0  0  0  0  0  0  0  0  0  0
  -18.3315  -13.7331   11.8467 H   0  0  0  0  0  0  0  0  0  0  0  0
 27 26  2  0  0  0
 28 26  1  0  0  0
 26 22  1  0  0  0
 22 23  1  0  0  0
 22 21  1  0  0  0
 21  1  1  0  0  0
  6  5  2  0  0  0
  1  5  1  0  0  0
  1  2  2  0  0  0
  5  4  1  0  0  0
 12 11  1  0  0  0
 12  8  2  0  0  0
 13 11  1  0  0  0
 13 17  1  0  0  0
 11 10  1  0  0  0
  2  8  1  0  0  0
  2  3  1  0  0  0
 18 17  2  0  0  0
 18 19  1  0  0  0
 17 16  1  0  0  0
  8  9  1  0  0  0
  4  3  1  0  0  0
 19 14  2  0  0  0
 16 15  2  0  0  0
 10  9  2  0  0  0
 14 15  1  0  0  0
 15 20  1  0  0  0
  4  7  1  0  0  0
 28 29  1  0  0  0
 23 24  1  0  0  0
 23 25  1  0  0  0
M  END
> <minimizedAffinity>
-10.48483

$$$$
