1TSY_UMP_A_317


 24 25  0  0  0  0  0  0  0  0999 V2000
   15.4999   48.9747  -54.7849 C   0  0  0  0  0  0  0  0  0  0  0  0
   15.0613   48.3492  -56.1027 C   0  0  0  0  0  0  0  0  0  0  0  0
   16.2622   48.6396  -56.9922 C   0  0  0  0  0  0  0  0  0  0  0  0
   16.6217   50.1113  -56.7548 C   0  0  0  0  0  0  0  0  0  0  0  0
   17.3338   47.8549  -56.4616 O   0  0  0  0  0  0  0  0  0  0  0  0
   16.1507   50.2204  -55.3268 O   0  0  0  0  0  0  0  0  0  0  0  0
   17.4620   48.0737  -55.5253 H   0  0  0  0  0  0  0  0  0  0  0  0
   14.5391   49.1121  -53.7080 N   0  0  0  0  0  0  0  0  0  0  0  0
   13.7307   48.0877  -53.2144 C   0  0  0  0  0  0  0  0  0  0  0  0
   13.0584   48.3537  -52.0376 N   0  0  0  0  0  0  0  0  0  0  0  0
   13.1210   49.5631  -51.3416 C   0  0  0  0  0  0  0  0  0  0  0  0
   13.9729   50.5656  -51.9398 C   0  0  0  0  0  0  0  0  0  0  0  0
   14.6485   50.2744  -53.1182 C   0  0  0  0  0  0  0  0  0  0  0  0
   13.5113   47.0044  -53.7354 O   0  0  0  0  0  0  0  0  0  0  0  0
   12.4732   49.7517  -50.3115 O   0  0  0  0  0  0  0  0  0  0  0  0
   12.4943   47.6394  -51.6624 H   0  0  0  0  0  0  0  0  0  0  0  0
   15.7943   51.0316  -57.6605 C   0  0  0  0  0  0  0  0  0  0  0  0
   16.6330   51.6547  -58.7397 O   0  0  0  0  0  0  0  0  0  0  0  0
   15.9495   51.8380  -60.1275 P   0  0  0  0  0  0  0  0  0  0  0  0
   15.3358   53.1583  -60.3177 O   0  0  0  0  0  0  0  0  0  0  0  0
   16.7423   51.5502  -61.3758 O   0  0  0  0  0  0  0  0  0  0  0  0
   14.8978   50.8229  -59.9878 O   0  0  0  0  0  0  0  0  0  0  0  0
   17.4401   52.2165  -61.4765 H   0  0  0  0  0  0  0  0  0  0  0  0
   14.3817   51.0002  -59.1860 H   0  0  0  0  0  0  0  0  0  0  0  0
  8  9  1  0  0  0
  8 13  1  0  0  0
  8  1  1  0  0  0
  9 10  1  0  0  0
  9 14  2  0  0  0
 10 11  1  0  0  0
 11 12  1  0  0  0
 11 15  2  0  0  0
 12 13  2  0  0  0
  1  2  1  0  0  0
  1  6  1  0  0  0
  2  3  1  0  0  0
  3  4  1  0  0  0
  3  5  1  0  0  0
  4  6  1  0  0  0
  4 17  1  0  0  0
 17 18  1  0  0  0
 18 19  1  0  0  0
 19 20  2  0  0  0
 19 21  1  0  0  0
 19 22  1  0  0  0
 10 16  1  0  0  0
  5  7  1  0  0  0
 21 23  1  0  0  0
 22 24  1  0  0  0
M  END
> <minimizedAffinity>
-8.78848

$$$$
1TSY_UMP_A_317


 24 25  0  0  0  0  0  0  0  0999 V2000
   17.0485   48.8246  -53.8249 C   0  0  0  0  0  0  0  0  0  0  0  0
   17.7467   47.8548  -54.7695 C   0  0  0  0  0  0  0  0  0  0  0  0
   19.2002   48.2848  -54.6276 C   0  0  0  0  0  0  0  0  0  0  0  0
   19.2028   49.8152  -54.7243 C   0  0  0  0  0  0  0  0  0  0  0  0
   19.5729   47.9482  -53.2884 O   0  0  0  0  0  0  0  0  0  0  0  0
   17.8306   50.0693  -54.1536 O   0  0  0  0  0  0  0  0  0  0  0  0
   18.9627   48.3743  -52.6662 H   0  0  0  0  0  0  0  0  0  0  0  0
   15.6007   48.9005  -53.8257 N   0  0  0  0  0  0  0  0  0  0  0  0
   14.7609   48.2532  -54.7324 C   0  0  0  0  0  0  0  0  0  0  0  0
   13.4141   48.2557  -54.4263 N   0  0  0  0  0  0  0  0  0  0  0  0
   12.8547   48.8699  -53.3035 C   0  0  0  0  0  0  0  0  0  0  0  0
   13.8039   49.5257  -52.4329 C   0  0  0  0  0  0  0  0  0  0  0  0
   15.1553   49.5027  -52.7535 C   0  0  0  0  0  0  0  0  0  0  0  0
   15.0789   47.7325  -55.7911 O   0  0  0  0  0  0  0  0  0  0  0  0
   11.6403   48.8645  -53.0999 O   0  0  0  0  0  0  0  0  0  0  0  0
   12.8044   47.7912  -55.0441 H   0  0  0  0  0  0  0  0  0  0  0  0
   19.2647   50.2729  -56.1867 C   0  0  0  0  0  0  0  0  0  0  0  0
   18.0418   51.0508  -56.5810 O   0  0  0  0  0  0  0  0  0  0  0  0
   17.0804   50.3611  -57.5945 P   0  0  0  0  0  0  0  0  0  0  0  0
   17.0769   50.9806  -58.9257 O   0  0  0  0  0  0  0  0  0  0  0  0
   17.1941   48.8750  -57.8137 O   0  0  0  0  0  0  0  0  0  0  0  0
   15.8093   50.6457  -56.9167 O   0  0  0  0  0  0  0  0  0  0  0  0
   18.0316   48.6773  -58.2613 H   0  0  0  0  0  0  0  0  0  0  0  0
   15.7273   51.6012  -56.7712 H   0  0  0  0  0  0  0  0  0  0  0  0
  8  9  1  0  0  0
  8 13  1  0  0  0
  8  1  1  0  0  0
  9 10  1  0  0  0
  9 14  2  0  0  0
 10 11  1  0  0  0
 11 12  1  0  0  0
 11 15  2  0  0  0
 12 13  2  0  0  0
  1  2  1  0  0  0
  1  6  1  0  0  0
  2  3  1  0  0  0
  3  4  1  0  0  0
  3  5  1  0  0  0
  4  6  1  0  0  0
  4 17  1  0  0  0
 17 18  1  0  0  0
 18 19  1  0  0  0
 19 20  2  0  0  0
 19 21  1  0  0  0
 19 22  1  0  0  0
 10 16  1  0  0  0
  5  7  1  0  0  0
 21 23  1  0  0  0
 22 24  1  0  0  0
M  END
> <minimizedAffinity>
-7.67758

$$$$
1TSY_UMP_A_317


 24 25  0  0  0  0  0  0  0  0999 V2000
   16.6359   50.1330  -54.5257 C   0  0  0  0  0  0  0  0  0  0  0  0
   17.1509   48.9579  -55.3467 C   0  0  0  0  0  0  0  0  0  0  0  0
   18.1668   49.6408  -56.2519 C   0  0  0  0  0  0  0  0  0  0  0  0
   17.4773   50.8997  -56.7918 C   0  0  0  0  0  0  0  0  0  0  0  0
   19.2206   50.0769  -55.3887 O   0  0  0  0  0  0  0  0  0  0  0  0
   16.5665   51.1656  -55.6202 O   0  0  0  0  0  0  0  0  0  0  0  0
   18.8543   50.6439  -54.6922 H   0  0  0  0  0  0  0  0  0  0  0  0
   15.4763   49.9523  -53.6745 N   0  0  0  0  0  0  0  0  0  0  0  0
   14.9866   50.8948  -52.7700 C   0  0  0  0  0  0  0  0  0  0  0  0
   13.7431   50.6332  -52.2288 N   0  0  0  0  0  0  0  0  0  0  0  0
   12.9758   49.5003  -52.5095 C   0  0  0  0  0  0  0  0  0  0  0  0
   13.5747   48.5772  -53.4464 C   0  0  0  0  0  0  0  0  0  0  0  0
   14.8217   48.8640  -53.9871 C   0  0  0  0  0  0  0  0  0  0  0  0
   15.5585   51.8958  -52.3648 O   0  0  0  0  0  0  0  0  0  0  0  0
   11.8854   49.3071  -51.9711 O   0  0  0  0  0  0  0  0  0  0  0  0
   13.3707   51.2928  -51.5999 H   0  0  0  0  0  0  0  0  0  0  0  0
   16.6536   50.5798  -58.0452 C   0  0  0  0  0  0  0  0  0  0  0  0
   17.0546   51.4374  -59.2113 O   0  0  0  0  0  0  0  0  0  0  0  0
   15.9336   51.7756  -60.2389 P   0  0  0  0  0  0  0  0  0  0  0  0
   14.7892   50.8568  -60.1934 O   0  0  0  0  0  0  0  0  0  0  0  0
   15.3632   53.1697  -60.2651 O   0  0  0  0  0  0  0  0  0  0  0  0
   16.6956   51.5506  -61.4738 O   0  0  0  0  0  0  0  0  0  0  0  0
   14.8577   53.3275  -59.4524 H   0  0  0  0  0  0  0  0  0  0  0  0
   17.0670   50.6546  -61.4658 H   0  0  0  0  0  0  0  0  0  0  0  0
  8  9  1  0  0  0
  8 13  1  0  0  0
  8  1  1  0  0  0
  9 10  1  0  0  0
  9 14  2  0  0  0
 10 11  1  0  0  0
 11 12  1  0  0  0
 11 15  2  0  0  0
 12 13  2  0  0  0
  1  2  1  0  0  0
  1  6  1  0  0  0
  2  3  1  0  0  0
  3  4  1  0  0  0
  3  5  1  0  0  0
  4  6  1  0  0  0
  4 17  1  0  0  0
 17 18  1  0  0  0
 18 19  1  0  0  0
 19 20  2  0  0  0
 19 21  1  0  0  0
 19 22  1  0  0  0
 10 16  1  0  0  0
  5  7  1  0  0  0
 21 23  1  0  0  0
 22 24  1  0  0  0
M  END
> <minimizedAffinity>
-7.61086

$$$$
1TSY_UMP_A_317


 24 25  0  0  0  0  0  0  0  0999 V2000
   17.4333   49.6462  -54.2465 C   0  0  0  0  0  0  0  0  0  0  0  0
   17.4738   50.9000  -53.3824 C   0  0  0  0  0  0  0  0  0  0  0  0
   17.5935   50.3039  -51.9866 C   0  0  0  0  0  0  0  0  0  0  0  0
   16.5549   49.1780  -51.9141 C   0  0  0  0  0  0  0  0  0  0  0  0
   18.8837   49.6886  -51.9393 O   0  0  0  0  0  0  0  0  0  0  0  0
   16.5539   48.7919  -53.3715 O   0  0  0  0  0  0  0  0  0  0  0  0
   18.9619   49.0457  -52.6614 H   0  0  0  0  0  0  0  0  0  0  0  0
   17.1014   49.7620  -55.6530 N   0  0  0  0  0  0  0  0  0  0  0  0
   16.9146   48.6909  -56.5271 C   0  0  0  0  0  0  0  0  0  0  0  0
   16.3736   48.9965  -57.7606 N   0  0  0  0  0  0  0  0  0  0  0  0
   16.0309   50.2833  -58.1821 C   0  0  0  0  0  0  0  0  0  0  0  0
   16.2749   51.3262  -57.2117 C   0  0  0  0  0  0  0  0  0  0  0  0
   16.8101   50.9963  -55.9730 C   0  0  0  0  0  0  0  0  0  0  0  0
   17.2258   47.5238  -56.3418 O   0  0  0  0  0  0  0  0  0  0  0  0
   15.5798   50.4975  -59.3077 O   0  0  0  0  0  0  0  0  0  0  0  0
   16.2182   48.2539  -58.3880 H   0  0  0  0  0  0  0  0  0  0  0  0
   15.1809   49.7237  -51.5066 C   0  0  0  0  0  0  0  0  0  0  0  0
   14.1999   49.6728  -52.6429 O   0  0  0  0  0  0  0  0  0  0  0  0
   13.0490   48.6306  -52.5168 P   0  0  0  0  0  0  0  0  0  0  0  0
   11.7196   49.1737  -52.8233 O   0  0  0  0  0  0  0  0  0  0  0  0
   13.1607   47.3255  -53.2610 O   0  0  0  0  0  0  0  0  0  0  0  0
   13.1517   48.3664  -51.0761 O   0  0  0  0  0  0  0  0  0  0  0  0
   13.0938   47.4903  -54.2146 H   0  0  0  0  0  0  0  0  0  0  0  0
   13.0808   49.2019  -50.5883 H   0  0  0  0  0  0  0  0  0  0  0  0
  8  9  1  0  0  0
  8 13  1  0  0  0
  8  1  1  0  0  0
  9 10  1  0  0  0
  9 14  2  0  0  0
 10 11  1  0  0  0
 11 12  1  0  0  0
 11 15  2  0  0  0
 12 13  2  0  0  0
  1  2  1  0  0  0
  1  6  1  0  0  0
  2  3  1  0  0  0
  3  4  1  0  0  0
  3  5  1  0  0  0
  4  6  1  0  0  0
  4 17  1  0  0  0
 17 18  1  0  0  0
 18 19  1  0  0  0
 19 20  2  0  0  0
 19 21  1  0  0  0
 19 22  1  0  0  0
 10 16  1  0  0  0
  5  7  1  0  0  0
 21 23  1  0  0  0
 22 24  1  0  0  0
M  END
> <minimizedAffinity>
-7.53623

$$$$
1TSY_UMP_A_317


 24 25  0  0  0  0  0  0  0  0999 V2000
   14.6833   49.1447  -54.0096 C   0  0  0  0  0  0  0  0  0  0  0  0
   14.4856   47.8372  -53.2536 C   0  0  0  0  0  0  0  0  0  0  0  0
   13.5627   48.2749  -52.1246 C   0  0  0  0  0  0  0  0  0  0  0  0
   14.1598   49.5719  -51.5653 C   0  0  0  0  0  0  0  0  0  0  0  0
   12.3237   48.6191  -52.7508 O   0  0  0  0  0  0  0  0  0  0  0  0
   14.8047   50.0756  -52.8316 O   0  0  0  0  0  0  0  0  0  0  0  0
   12.4809   49.2943  -53.4292 H   0  0  0  0  0  0  0  0  0  0  0  0
   15.6878   49.2186  -55.0524 N   0  0  0  0  0  0  0  0  0  0  0  0
   15.5420   48.7210  -56.3476 C   0  0  0  0  0  0  0  0  0  0  0  0
   16.5098   49.0965  -57.2585 N   0  0  0  0  0  0  0  0  0  0  0  0
   17.6088   49.9063  -56.9631 C   0  0  0  0  0  0  0  0  0  0  0  0
   17.6791   50.3596  -55.5926 C   0  0  0  0  0  0  0  0  0  0  0  0
   16.6899   49.9790  -54.6946 C   0  0  0  0  0  0  0  0  0  0  0  0
   14.6845   47.9487  -56.7496 O   0  0  0  0  0  0  0  0  0  0  0  0
   18.4569   50.1823  -57.8122 O   0  0  0  0  0  0  0  0  0  0  0  0
   16.4185   48.7698  -58.1827 H   0  0  0  0  0  0  0  0  0  0  0  0
   15.2278   49.2728  -50.5062 C   0  0  0  0  0  0  0  0  0  0  0  0
   14.8739   49.8663  -49.1726 O   0  0  0  0  0  0  0  0  0  0  0  0
   13.7691   49.1289  -48.3586 P   0  0  0  0  0  0  0  0  0  0  0  0
   12.4626   49.7983  -48.3887 O   0  0  0  0  0  0  0  0  0  0  0  0
   13.5099   47.6706  -48.6339 O   0  0  0  0  0  0  0  0  0  0  0  0
   14.3590   49.2624  -47.0206 O   0  0  0  0  0  0  0  0  0  0  0  0
   13.1197   47.5725  -49.5165 H   0  0  0  0  0  0  0  0  0  0  0  0
   14.5296   50.1990  -46.8345 H   0  0  0  0  0  0  0  0  0  0  0  0
  8  9  1  0  0  0
  8 13  1  0  0  0
  8  1  1  0  0  0
  9 10  1  0  0  0
  9 14  2  0  0  0
 10 11  1  0  0  0
 11 12  1  0  0  0
 11 15  2  0  0  0
 12 13  2  0  0  0
  1  2  1  0  0  0
  1  6  1  0  0  0
  2  3  1  0  0  0
  3  4  1  0  0  0
  3  5  1  0  0  0
  4  6  1  0  0  0
  4 17  1  0  0  0
 17 18  1  0  0  0
 18 19  1  0  0  0
 19 20  2  0  0  0
 19 21  1  0  0  0
 19 22  1  0  0  0
 10 16  1  0  0  0
  5  7  1  0  0  0
 21 23  1  0  0  0
 22 24  1  0  0  0
M  END
> <minimizedAffinity>
-7.37657

$$$$
1TSY_UMP_A_317


 24 25  0  0  0  0  0  0  0  0999 V2000
   13.7291   48.7581  -51.8229 C   0  0  0  0  0  0  0  0  0  0  0  0
   12.8654   48.9263  -53.0663 C   0  0  0  0  0  0  0  0  0  0  0  0
   13.5234   47.9472  -54.0287 C   0  0  0  0  0  0  0  0  0  0  0  0
   15.0328   48.1972  -53.9245 C   0  0  0  0  0  0  0  0  0  0  0  0
   13.2748   46.6473  -53.4863 O   0  0  0  0  0  0  0  0  0  0  0  0
   15.0760   48.6588  -52.4900 O   0  0  0  0  0  0  0  0  0  0  0  0
   13.6098   46.6070  -52.5769 H   0  0  0  0  0  0  0  0  0  0  0  0
   13.5740   49.6841  -50.7183 N   0  0  0  0  0  0  0  0  0  0  0  0
   13.6185   49.3403  -49.3669 C   0  0  0  0  0  0  0  0  0  0  0  0
   13.6882   50.3898  -48.4718 N   0  0  0  0  0  0  0  0  0  0  0  0
   13.6951   51.7403  -48.8284 C   0  0  0  0  0  0  0  0  0  0  0  0
   13.6317   51.9942  -50.2498 C   0  0  0  0  0  0  0  0  0  0  0  0
   13.5725   50.9242  -51.1338 C   0  0  0  0  0  0  0  0  0  0  0  0
   13.5488   48.2183  -48.8879 O   0  0  0  0  0  0  0  0  0  0  0  0
   13.7279   52.6336  -47.9815 O   0  0  0  0  0  0  0  0  0  0  0  0
   13.7364   50.1703  -47.5133 H   0  0  0  0  0  0  0  0  0  0  0  0
   15.4677   49.3302  -54.8621 C   0  0  0  0  0  0  0  0  0  0  0  0
   15.1853   49.0043  -56.3009 O   0  0  0  0  0  0  0  0  0  0  0  0
   16.2457   49.4792  -57.3386 P   0  0  0  0  0  0  0  0  0  0  0  0
   17.3718   48.5516  -57.5041 O   0  0  0  0  0  0  0  0  0  0  0  0
   15.7931   49.8556  -58.7253 O   0  0  0  0  0  0  0  0  0  0  0  0
   16.7036   50.6889  -56.6435 O   0  0  0  0  0  0  0  0  0  0  0  0
   15.4886   49.0620  -59.1926 H   0  0  0  0  0  0  0  0  0  0  0  0
   16.9973   50.4561  -55.7488 H   0  0  0  0  0  0  0  0  0  0  0  0
  8  9  1  0  0  0
  8 13  1  0  0  0
  8  1  1  0  0  0
  9 10  1  0  0  0
  9 14  2  0  0  0
 10 11  1  0  0  0
 11 12  1  0  0  0
 11 15  2  0  0  0
 12 13  2  0  0  0
  1  2  1  0  0  0
  1  6  1  0  0  0
  2  3  1  0  0  0
  3  4  1  0  0  0
  3  5  1  0  0  0
  4  6  1  0  0  0
  4 17  1  0  0  0
 17 18  1  0  0  0
 18 19  1  0  0  0
 19 20  2  0  0  0
 19 21  1  0  0  0
 19 22  1  0  0  0
 10 16  1  0  0  0
  5  7  1  0  0  0
 21 23  1  0  0  0
 22 24  1  0  0  0
M  END
> <minimizedAffinity>
-7.37027

$$$$
1TSY_UMP_A_317


 24 25  0  0  0  0  0  0  0  0999 V2000
   14.3575   49.1154  -53.3279 C   0  0  0  0  0  0  0  0  0  0  0  0
   13.8549   48.4182  -52.0702 C   0  0  0  0  0  0  0  0  0  0  0  0
   12.6333   49.2582  -51.7240 C   0  0  0  0  0  0  0  0  0  0  0  0
   13.0757   50.7217  -51.8421 C   0  0  0  0  0  0  0  0  0  0  0  0
   11.6908   49.0187  -52.7728 O   0  0  0  0  0  0  0  0  0  0  0  0
   14.1282   50.5433  -52.9067 O   0  0  0  0  0  0  0  0  0  0  0  0
   12.0976   49.2301  -53.6276 H   0  0  0  0  0  0  0  0  0  0  0  0
   15.6531   48.7568  -53.8706 N   0  0  0  0  0  0  0  0  0  0  0  0
   15.8689   48.1640  -55.1150 C   0  0  0  0  0  0  0  0  0  0  0  0
   17.1787   48.1186  -55.5508 N   0  0  0  0  0  0  0  0  0  0  0  0
   18.2741   48.5990  -54.8295 C   0  0  0  0  0  0  0  0  0  0  0  0
   17.9497   49.1815  -53.5473 C   0  0  0  0  0  0  0  0  0  0  0  0
   16.6248   49.2268  -53.1320 C   0  0  0  0  0  0  0  0  0  0  0  0
   15.0355   47.6345  -55.8349 O   0  0  0  0  0  0  0  0  0  0  0  0
   19.4244   48.5024  -55.2582 O   0  0  0  0  0  0  0  0  0  0  0  0
   17.3527   47.7188  -56.4335 H   0  0  0  0  0  0  0  0  0  0  0  0
   13.7158   51.2089  -50.5364 C   0  0  0  0  0  0  0  0  0  0  0  0
   12.9007   50.8211  -49.3358 O   0  0  0  0  0  0  0  0  0  0  0  0
   12.1587   51.9771  -48.6010 P   0  0  0  0  0  0  0  0  0  0  0  0
   11.5471   52.9594  -49.5048 O   0  0  0  0  0  0  0  0  0  0  0  0
   11.1150   51.6357  -47.5696 O   0  0  0  0  0  0  0  0  0  0  0  0
   13.3137   52.5826  -47.9261 O   0  0  0  0  0  0  0  0  0  0  0  0
   10.3475   51.2348  -48.0066 H   0  0  0  0  0  0  0  0  0  0  0  0
   13.9915   52.8059  -48.5830 H   0  0  0  0  0  0  0  0  0  0  0  0
  8  9  1  0  0  0
  8 13  1  0  0  0
  8  1  1  0  0  0
  9 10  1  0  0  0
  9 14  2  0  0  0
 10 11  1  0  0  0
 11 12  1  0  0  0
 11 15  2  0  0  0
 12 13  2  0  0  0
  1  2  1  0  0  0
  1  6  1  0  0  0
  2  3  1  0  0  0
  3  4  1  0  0  0
  3  5  1  0  0  0
  4  6  1  0  0  0
  4 17  1  0  0  0
 17 18  1  0  0  0
 18 19  1  0  0  0
 19 20  2  0  0  0
 19 21  1  0  0  0
 19 22  1  0  0  0
 10 16  1  0  0  0
  5  7  1  0  0  0
 21 23  1  0  0  0
 22 24  1  0  0  0
M  END
> <minimizedAffinity>
-7.33987

$$$$
1TSY_UMP_A_317


 24 25  0  0  0  0  0  0  0  0999 V2000
   15.1456   48.3813  -51.7459 C   0  0  0  0  0  0  0  0  0  0  0  0
   15.9384   49.4617  -51.0216 C   0  0  0  0  0  0  0  0  0  0  0  0
   15.4959   49.2496  -49.5804 C   0  0  0  0  0  0  0  0  0  0  0  0
   13.9694   49.1087  -49.6202 C   0  0  0  0  0  0  0  0  0  0  0  0
   16.0250   47.9770  -49.1979 O   0  0  0  0  0  0  0  0  0  0  0  0
   13.8442   48.5109  -50.9986 O   0  0  0  0  0  0  0  0  0  0  0  0
   15.7170   47.2988  -49.8193 H   0  0  0  0  0  0  0  0  0  0  0  0
   15.1103   48.3758  -53.1952 N   0  0  0  0  0  0  0  0  0  0  0  0
   14.1258   47.7673  -53.9744 C   0  0  0  0  0  0  0  0  0  0  0  0
   14.1374   48.0733  -55.3211 N   0  0  0  0  0  0  0  0  0  0  0  0
   15.0647   48.9168  -55.9373 C   0  0  0  0  0  0  0  0  0  0  0  0
   16.0522   49.4867  -55.0493 C   0  0  0  0  0  0  0  0  0  0  0  0
   16.0168   49.1744  -53.6962 C   0  0  0  0  0  0  0  0  0  0  0  0
   13.2908   46.9546  -53.6065 O   0  0  0  0  0  0  0  0  0  0  0  0
   15.0424   49.1275  -57.1503 O   0  0  0  0  0  0  0  0  0  0  0  0
   13.4420   47.6675  -55.8877 H   0  0  0  0  0  0  0  0  0  0  0  0
   13.2897   50.4827  -49.5717 C   0  0  0  0  0  0  0  0  0  0  0  0
   11.8684   50.3865  -49.0956 O   0  0  0  0  0  0  0  0  0  0  0  0
   11.6158   50.7327  -47.5979 P   0  0  0  0  0  0  0  0  0  0  0  0
   10.6354   49.8575  -46.9431 O   0  0  0  0  0  0  0  0  0  0  0  0
   12.7928   50.8327  -46.6628 O   0  0  0  0  0  0  0  0  0  0  0  0
   11.0372   52.0701  -47.7784 O   0  0  0  0  0  0  0  0  0  0  0  0
   13.1818   49.9530  -46.5375 H   0  0  0  0  0  0  0  0  0  0  0  0
   10.2780   52.0155  -48.3796 H   0  0  0  0  0  0  0  0  0  0  0  0
  8  9  1  0  0  0
  8 13  1  0  0  0
  8  1  1  0  0  0
  9 10  1  0  0  0
  9 14  2  0  0  0
 10 11  1  0  0  0
 11 12  1  0  0  0
 11 15  2  0  0  0
 12 13  2  0  0  0
  1  2  1  0  0  0
  1  6  1  0  0  0
  2  3  1  0  0  0
  3  4  1  0  0  0
  3  5  1  0  0  0
  4  6  1  0  0  0
  4 17  1  0  0  0
 17 18  1  0  0  0
 18 19  1  0  0  0
 19 20  2  0  0  0
 19 21  1  0  0  0
 19 22  1  0  0  0
 10 16  1  0  0  0
  5  7  1  0  0  0
 21 23  1  0  0  0
 22 24  1  0  0  0
M  END
> <minimizedAffinity>
-7.24437

$$$$
1TSY_UMP_A_317


 24 25  0  0  0  0  0  0  0  0999 V2000
   13.6108   48.9444  -50.9930 C   0  0  0  0  0  0  0  0  0  0  0  0
   14.5768   49.5253  -49.9684 C   0  0  0  0  0  0  0  0  0  0  0  0
   13.6196   50.0109  -48.8887 C   0  0  0  0  0  0  0  0  0  0  0  0
   12.5011   50.7641  -49.6188 C   0  0  0  0  0  0  0  0  0  0  0  0
   13.0361   48.8302  -48.3311 O   0  0  0  0  0  0  0  0  0  0  0  0
   12.5335   49.9944  -50.9148 O   0  0  0  0  0  0  0  0  0  0  0  0
   12.6196   48.3112  -49.0369 H   0  0  0  0  0  0  0  0  0  0  0  0
   14.1061   48.5616  -52.3006 N   0  0  0  0  0  0  0  0  0  0  0  0
   13.3535   48.5510  -53.4753 C   0  0  0  0  0  0  0  0  0  0  0  0
   14.0593   48.3873  -54.6512 N   0  0  0  0  0  0  0  0  0  0  0  0
   15.4431   48.2149  -54.7309 C   0  0  0  0  0  0  0  0  0  0  0  0
   16.1315   48.2263  -53.4602 C   0  0  0  0  0  0  0  0  0  0  0  0
   15.4042   48.4026  -52.2898 C   0  0  0  0  0  0  0  0  0  0  0  0
   12.1373   48.6168  -53.5735 O   0  0  0  0  0  0  0  0  0  0  0  0
   16.0132   48.0427  -55.8087 O   0  0  0  0  0  0  0  0  0  0  0  0
   13.5503   48.3925  -55.4939 H   0  0  0  0  0  0  0  0  0  0  0  0
   12.8905   52.2279  -49.8586 C   0  0  0  0  0  0  0  0  0  0  0  0
   11.9479   52.9082  -50.8099 O   0  0  0  0  0  0  0  0  0  0  0  0
   12.5889   53.5584  -52.0721 P   0  0  0  0  0  0  0  0  0  0  0  0
   11.6131   53.9666  -53.0906 O   0  0  0  0  0  0  0  0  0  0  0  0
   13.5349   54.7175  -51.8960 O   0  0  0  0  0  0  0  0  0  0  0  0
   13.3458   52.3963  -52.5547 O   0  0  0  0  0  0  0  0  0  0  0  0
   13.0432   55.4905  -51.5772 H   0  0  0  0  0  0  0  0  0  0  0  0
   12.7443   51.6443  -52.6711 H   0  0  0  0  0  0  0  0  0  0  0  0
  8  9  1  0  0  0
  8 13  1  0  0  0
  8  1  1  0  0  0
  9 10  1  0  0  0
  9 14  2  0  0  0
 10 11  1  0  0  0
 11 12  1  0  0  0
 11 15  2  0  0  0
 12 13  2  0  0  0
  1  2  1  0  0  0
  1  6  1  0  0  0
  2  3  1  0  0  0
  3  4  1  0  0  0
  3  5  1  0  0  0
  4  6  1  0  0  0
  4 17  1  0  0  0
 17 18  1  0  0  0
 18 19  1  0  0  0
 19 20  2  0  0  0
 19 21  1  0  0  0
 19 22  1  0  0  0
 10 16  1  0  0  0
  5  7  1  0  0  0
 21 23  1  0  0  0
 22 24  1  0  0  0
M  END
> <minimizedAffinity>
-7.01990

$$$$
1TSY_UMP_A_317


 24 25  0  0  0  0  0  0  0  0999 V2000
   14.6810   50.4749  -48.7732 C   0  0  0  0  0  0  0  0  0  0  0  0
   15.4741   49.2044  -48.4956 C   0  0  0  0  0  0  0  0  0  0  0  0
   16.6052   49.3244  -49.5076 C   0  0  0  0  0  0  0  0  0  0  0  0
   15.9480   49.7189  -50.8357 C   0  0  0  0  0  0  0  0  0  0  0  0
   17.3891   50.4412  -49.0791 O   0  0  0  0  0  0  0  0  0  0  0  0
   14.7724   50.4794  -50.2767 O   0  0  0  0  0  0  0  0  0  0  0  0
   16.8233   51.2261  -49.0104 H   0  0  0  0  0  0  0  0  0  0  0  0
   13.3780   50.6481  -48.1616 N   0  0  0  0  0  0  0  0  0  0  0  0
   12.4902   51.6880  -48.4388 C   0  0  0  0  0  0  0  0  0  0  0  0
   11.2113   51.5493  -47.9361 N   0  0  0  0  0  0  0  0  0  0  0  0
   10.7711   50.4683  -47.1687 C   0  0  0  0  0  0  0  0  0  0  0  0
   11.7675   49.4505  -46.9242 C   0  0  0  0  0  0  0  0  0  0  0  0
   13.0452   49.6042  -47.4475 C   0  0  0  0  0  0  0  0  0  0  0  0
   12.7342   52.7293  -49.0299 O   0  0  0  0  0  0  0  0  0  0  0  0
    9.6249   50.4155  -46.7219 O   0  0  0  0  0  0  0  0  0  0  0  0
   10.5632   52.2638  -48.1328 H   0  0  0  0  0  0  0  0  0  0  0  0
   15.4662   48.4793  -51.5995 C   0  0  0  0  0  0  0  0  0  0  0  0
   13.9690   48.4411  -51.7150 O   0  0  0  0  0  0  0  0  0  0  0  0
   13.3928   48.0067  -53.0956 P   0  0  0  0  0  0  0  0  0  0  0  0
   14.1622   48.5033  -54.2433 O   0  0  0  0  0  0  0  0  0  0  0  0
   13.1356   46.5447  -53.3523 O   0  0  0  0  0  0  0  0  0  0  0  0
   12.1059   48.7104  -53.0252 O   0  0  0  0  0  0  0  0  0  0  0  0
   13.9809   46.0713  -53.4004 H   0  0  0  0  0  0  0  0  0  0  0  0
   12.2617   49.6535  -52.8600 H   0  0  0  0  0  0  0  0  0  0  0  0
  8  9  1  0  0  0
  8 13  1  0  0  0
  8  1  1  0  0  0
  9 10  1  0  0  0
  9 14  2  0  0  0
 10 11  1  0  0  0
 11 12  1  0  0  0
 11 15  2  0  0  0
 12 13  2  0  0  0
  1  2  1  0  0  0
  1  6  1  0  0  0
  2  3  1  0  0  0
  3  4  1  0  0  0
  3  5  1  0  0  0
  4  6  1  0  0  0
  4 17  1  0  0  0
 17 18  1  0  0  0
 18 19  1  0  0  0
 19 20  2  0  0  0
 19 21  1  0  0  0
 19 22  1  0  0  0
 10 16  1  0  0  0
  5  7  1  0  0  0
 21 23  1  0  0  0
 22 24  1  0  0  0
M  END
> <minimizedAffinity>
-6.96586

$$$$
