1TCX_IM1_A_400


 43 45  0  0  0  0  0  0  0  0999 V2000
   12.2531   24.2742    3.9075 C   0  0  0  0  0  0  0  0  0  0  0  0
   11.3395   24.3989    5.1397 C   0  0  0  0  0  0  0  0  0  0  0  0
   10.8458   23.4289    5.7290 O   0  0  0  0  0  0  0  0  0  0  0  0
   11.0830   25.6182    5.5630 N   0  0  0  0  0  0  0  0  0  0  0  0
   11.4902   26.3815    5.0932 H   0  0  0  0  0  0  0  0  0  0  0  0
   10.2162   25.8740    6.7041 C   0  0  0  0  0  0  0  0  0  0  0  0
    9.2445   26.9202    6.1408 C   0  0  0  0  0  0  0  0  0  0  0  0
    9.2221   27.5684    4.9623 N   0  0  0  0  0  0  0  0  0  0  0  0
    7.9601   28.1261    4.9662 C   0  0  0  0  0  0  0  0  0  0  0  0
    7.2992   27.7782    6.1506 C   0  0  0  0  0  0  0  0  0  0  0  0
    8.1590   26.9998    6.8833 N   0  0  0  0  0  0  0  0  0  0  0  0
    9.9244   27.6291    4.2750 H   0  0  0  0  0  0  0  0  0  0  0  0
   10.9298   26.4733    7.9249 C   0  0  0  0  0  0  0  0  0  0  0  0
   10.3788   25.7641    9.0965 C   0  0  0  0  0  0  0  0  0  0  0  0
   12.3990   26.1876    8.0070 C   0  0  0  0  0  0  0  0  0  0  0  0
   13.4195   23.3819    4.2277 C   0  0  0  0  0  0  0  0  0  0  0  0
   14.3310   23.9170    5.3021 C   0  0  0  0  0  0  0  0  0  0  0  0
   15.1373   24.8038    4.5824 O   0  0  0  0  0  0  0  0  0  0  0  0
   15.5903   24.3245    3.8712 H   0  0  0  0  0  0  0  0  0  0  0  0
   15.1472   22.8211    6.0524 C   0  0  0  0  0  0  0  0  0  0  0  0
   15.7308   20.7237    5.0863 C   0  0  0  0  0  0  0  0  0  0  0  0
   14.6907   20.3098    5.6367 O   0  0  0  0  0  0  0  0  0  0  0  0
   16.0390   21.9907    5.2416 N   0  0  0  0  0  0  0  0  0  0  0  0
   16.8460   22.3708    4.8249 H   0  0  0  0  0  0  0  0  0  0  0  0
   16.5867   19.9424    4.3091 O   0  0  0  0  0  0  0  0  0  0  0  0
   16.1459   19.2064    3.2078 C   0  0  0  0  0  0  0  0  0  0  0  0
   17.3498   18.8421    2.3705 C   0  0  0  0  0  0  0  0  0  0  0  0
   15.5737   17.8599    3.6078 C   0  0  0  0  0  0  0  0  0  0  0  0
   15.1705   19.9623    2.3278 C   0  0  0  0  0  0  0  0  0  0  0  0
   16.0248   23.3789    7.1767 C   0  0  0  0  0  0  0  0  0  0  0  0
   16.4236   22.3064    8.1849 C   0  0  0  0  0  0  0  0  0  0  0  0
   17.7765   22.0214    8.4101 C   0  0  0  0  0  0  0  0  0  0  0  0
   18.1236   21.0224    9.3214 C   0  0  0  0  0  0  0  0  0  0  0  0
   17.1275   20.3068   10.0121 C   0  0  0  0  0  0  0  0  0  0  0  0
   15.7838   20.5950    9.7862 C   0  0  0  0  0  0  0  0  0  0  0  0
   15.4283   21.5986    8.8684 C   0  0  0  0  0  0  0  0  0  0  0  0
   11.5127   23.6492    2.7092 C   0  0  0  0  0  0  0  0  0  0  0  0
   10.1617   24.2677    2.3716 C   0  0  0  0  0  0  0  0  0  0  0  0
    8.9955   23.5374    2.5880 C   0  0  0  0  0  0  0  0  0  0  0  0
    7.7574   24.1038    2.2762 C   0  0  0  0  0  0  0  0  0  0  0  0
    7.6682   25.3974    1.7500 C   0  0  0  0  0  0  0  0  0  0  0  0
    8.8312   26.1278    1.5354 C   0  0  0  0  0  0  0  0  0  0  0  0
   10.0727   25.5633    1.8444 C   0  0  0  0  0  0  0  0  0  0  0  0
 26 27  1  0  0  0
 26 28  1  0  0  0
 26 29  1  0  0  0
 26 25  1  0  0  0
 25 21  1  0  0  0
 21 22  2  0  0  0
 21 23  1  0  0  0
 23 20  1  0  0  0
 20 30  1  0  0  0
 20 17  1  0  0  0
 30 31  1  0  0  0
 31 32  2  0  0  0
 31 36  1  0  0  0
 32 33  1  0  0  0
 33 34  2  0  0  0
 34 35  1  0  0  0
 35 36  2  0  0  0
 17 18  1  0  0  0
 17 16  1  0  0  0
 16  1  1  0  0  0
  1 37  1  0  0  0
  1  2  1  0  0  0
 37 38  1  0  0  0
 38 39  2  0  0  0
 38 43  1  0  0  0
 39 40  1  0  0  0
 40 41  2  0  0  0
 41 42  1  0  0  0
 42 43  2  0  0  0
  2  3  2  0  0  0
  2  4  1  0  0  0
  4  6  1  0  0  0
  6 13  1  0  0  0
  6  7  1  0  0  0
 13 14  1  0  0  0
 13 15  1  0  0  0
  7  8  1  0  0  0
  7 11  2  0  0  0
  8  9  1  0  0  0
  9 10  2  0  0  0
 10 11  1  0  0  0
 23 24  1  0  0  0
 18 19  1  0  0  0
  4  5  1  0  0  0
  8 12  1  0  0  0
M  END
> <minimizedAffinity>
-10.02512

$$$$
1TCX_IM1_A_400


 43 45  0  0  0  0  0  0  0  0999 V2000
    9.9458   24.4578    4.6832 C   0  0  0  0  0  0  0  0  0  0  0  0
    8.9485   25.2188    3.7916 C   0  0  0  0  0  0  0  0  0  0  0  0
    9.2456   25.7131    2.6964 O   0  0  0  0  0  0  0  0  0  0  0  0
    7.7204   25.3387    4.2490 N   0  0  0  0  0  0  0  0  0  0  0  0
    7.4929   24.9318    5.1161 H   0  0  0  0  0  0  0  0  0  0  0  0
    6.6878   26.0538    3.5134 C   0  0  0  0  0  0  0  0  0  0  0  0
    5.9759   26.8285    4.6309 C   0  0  0  0  0  0  0  0  0  0  0  0
    5.2534   26.4058    5.6840 N   0  0  0  0  0  0  0  0  0  0  0  0
    5.1555   27.5537    6.4433 C   0  0  0  0  0  0  0  0  0  0  0  0
    5.8270   28.5993    5.7981 C   0  0  0  0  0  0  0  0  0  0  0  0
    6.3435   28.0938    4.6321 N   0  0  0  0  0  0  0  0  0  0  0  0
    4.8889   25.5096    5.8658 H   0  0  0  0  0  0  0  0  0  0  0  0
    5.6629   25.1500    2.8123 C   0  0  0  0  0  0  0  0  0  0  0  0
    6.1196   25.0407    1.4126 C   0  0  0  0  0  0  0  0  0  0  0  0
    5.6431   23.7266    3.2818 C   0  0  0  0  0  0  0  0  0  0  0  0
   10.7091   23.4614    3.8564 C   0  0  0  0  0  0  0  0  0  0  0  0
   12.1144   23.8870    3.5166 C   0  0  0  0  0  0  0  0  0  0  0  0
   12.0593   23.9813    2.1227 O   0  0  0  0  0  0  0  0  0  0  0  0
   11.7963   23.1249    1.7509 H   0  0  0  0  0  0  0  0  0  0  0  0
   13.2182   22.9076    4.0191 C   0  0  0  0  0  0  0  0  0  0  0  0
   15.0568   23.5713    5.3801 C   0  0  0  0  0  0  0  0  0  0  0  0
   15.6706   23.6788    4.2995 O   0  0  0  0  0  0  0  0  0  0  0  0
   13.8018   23.1876    5.3318 N   0  0  0  0  0  0  0  0  0  0  0  0
   13.2693   23.0911    6.1542 H   0  0  0  0  0  0  0  0  0  0  0  0
   15.6016   23.8381    6.6366 O   0  0  0  0  0  0  0  0  0  0  0  0
   15.8644   22.8373    7.5737 C   0  0  0  0  0  0  0  0  0  0  0  0
   16.9710   23.3197    8.4826 C   0  0  0  0  0  0  0  0  0  0  0  0
   14.7006   22.6165    8.5210 C   0  0  0  0  0  0  0  0  0  0  0  0
   16.3032   21.5271    6.9507 C   0  0  0  0  0  0  0  0  0  0  0  0
   12.7539   21.4497    4.0853 C   0  0  0  0  0  0  0  0  0  0  0  0
   13.8860   20.4688    3.7989 C   0  0  0  0  0  0  0  0  0  0  0  0
   14.2004   19.4677    4.7267 C   0  0  0  0  0  0  0  0  0  0  0  0
   15.2530   18.5908    4.4580 C   0  0  0  0  0  0  0  0  0  0  0  0
   15.9932   18.7058    3.2662 C   0  0  0  0  0  0  0  0  0  0  0  0
   15.6756   19.7018    2.3459 C   0  0  0  0  0  0  0  0  0  0  0  0
   14.6179   20.5886    2.6120 C   0  0  0  0  0  0  0  0  0  0  0  0
   10.9763   25.4068    5.3252 C   0  0  0  0  0  0  0  0  0  0  0  0
   10.8826   25.5578    6.8385 C   0  0  0  0  0  0  0  0  0  0  0  0
   12.0190   25.8962    7.5694 C   0  0  0  0  0  0  0  0  0  0  0  0
   11.9334   26.0323    8.9568 C   0  0  0  0  0  0  0  0  0  0  0  0
   10.7209   25.8355    9.6272 C   0  0  0  0  0  0  0  0  0  0  0  0
    9.5857   25.4997    8.8986 C   0  0  0  0  0  0  0  0  0  0  0  0
    9.6681   25.3605    7.5096 C   0  0  0  0  0  0  0  0  0  0  0  0
 26 27  1  0  0  0
 26 28  1  0  0  0
 26 29  1  0  0  0
 26 25  1  0  0  0
 25 21  1  0  0  0
 21 22  2  0  0  0
 21 23  1  0  0  0
 23 20  1  0  0  0
 20 30  1  0  0  0
 20 17  1  0  0  0
 30 31  1  0  0  0
 31 32  2  0  0  0
 31 36  1  0  0  0
 32 33  1  0  0  0
 33 34  2  0  0  0
 34 35  1  0  0  0
 35 36  2  0  0  0
 17 18  1  0  0  0
 17 16  1  0  0  0
 16  1  1  0  0  0
  1 37  1  0  0  0
  1  2  1  0  0  0
 37 38  1  0  0  0
 38 39  2  0  0  0
 38 43  1  0  0  0
 39 40  1  0  0  0
 40 41  2  0  0  0
 41 42  1  0  0  0
 42 43  2  0  0  0
  2  3  2  0  0  0
  2  4  1  0  0  0
  4  6  1  0  0  0
  6 13  1  0  0  0
  6  7  1  0  0  0
 13 14  1  0  0  0
 13 15  1  0  0  0
  7  8  1  0  0  0
  7 11  2  0  0  0
  8  9  1  0  0  0
  9 10  2  0  0  0
 10 11  1  0  0  0
 23 24  1  0  0  0
 18 19  1  0  0  0
  4  5  1  0  0  0
  8 12  1  0  0  0
M  END
> <minimizedAffinity>
-9.74906

$$$$
1TCX_IM1_A_400


 43 45  0  0  0  0  0  0  0  0999 V2000
   15.6975   20.8408    7.2835 C   0  0  0  0  0  0  0  0  0  0  0  0
   17.0061   20.5374    8.0345 C   0  0  0  0  0  0  0  0  0  0  0  0
   17.8243   21.4050    8.3660 O   0  0  0  0  0  0  0  0  0  0  0  0
   17.2430   19.2750    8.3210 N   0  0  0  0  0  0  0  0  0  0  0  0
   16.5798   18.5949    8.0622 H   0  0  0  0  0  0  0  0  0  0  0  0
   18.4543   18.8523    9.0086 C   0  0  0  0  0  0  0  0  0  0  0  0
   18.8894   17.6388    8.1755 C   0  0  0  0  0  0  0  0  0  0  0  0
   18.4890   16.3548    8.1999 N   0  0  0  0  0  0  0  0  0  0  0  0
   19.0345   15.8625    7.0320 C   0  0  0  0  0  0  0  0  0  0  0  0
   19.7317   16.8839    6.3753 C   0  0  0  0  0  0  0  0  0  0  0  0
   19.6159   18.0151    7.1427 N   0  0  0  0  0  0  0  0  0  0  0  0
   17.9472   15.8874    8.8760 H   0  0  0  0  0  0  0  0  0  0  0  0
   18.2383   18.3998   10.4603 C   0  0  0  0  0  0  0  0  0  0  0  0
   18.5711   19.5702   11.2963 C   0  0  0  0  0  0  0  0  0  0  0  0
   16.8161   18.1038   10.8297 C   0  0  0  0  0  0  0  0  0  0  0  0
   15.0394   22.0539    7.8789 C   0  0  0  0  0  0  0  0  0  0  0  0
   15.1292   23.2899    7.0212 C   0  0  0  0  0  0  0  0  0  0  0  0
   16.0443   24.0707    7.7337 O   0  0  0  0  0  0  0  0  0  0  0  0
   15.7081   24.2256    8.6302 H   0  0  0  0  0  0  0  0  0  0  0  0
   13.7648   24.0074    6.7890 C   0  0  0  0  0  0  0  0  0  0  0  0
   12.9685   24.8988    4.7288 C   0  0  0  0  0  0  0  0  0  0  0  0
   13.3531   25.9941    5.1854 O   0  0  0  0  0  0  0  0  0  0  0  0
   13.1419   23.8330    5.4761 N   0  0  0  0  0  0  0  0  0  0  0  0
   12.8612   22.9430    5.1625 H   0  0  0  0  0  0  0  0  0  0  0  0
   12.3762   24.7201    3.4782 O   0  0  0  0  0  0  0  0  0  0  0  0
   11.0183   24.4381    3.3190 C   0  0  0  0  0  0  0  0  0  0  0  0
   10.6188   24.8166    1.9118 C   0  0  0  0  0  0  0  0  0  0  0  0
   10.7288   22.9505    3.3800 C   0  0  0  0  0  0  0  0  0  0  0  0
   10.1273   25.1965    4.2825 C   0  0  0  0  0  0  0  0  0  0  0  0
   12.6883   23.6110    7.8036 C   0  0  0  0  0  0  0  0  0  0  0  0
   11.6934   24.7378    8.0609 C   0  0  0  0  0  0  0  0  0  0  0  0
   10.3362   24.5589    7.7638 C   0  0  0  0  0  0  0  0  0  0  0  0
    9.4422   25.6078    7.9864 C   0  0  0  0  0  0  0  0  0  0  0  0
    9.8947   26.8350    8.5066 C   0  0  0  0  0  0  0  0  0  0  0  0
   11.2448   27.0075    8.8021 C   0  0  0  0  0  0  0  0  0  0  0  0
   12.1498   25.9555    8.5783 C   0  0  0  0  0  0  0  0  0  0  0  0
   15.9513   21.1412    5.7936 C   0  0  0  0  0  0  0  0  0  0  0  0
   16.0373   19.9251    4.8796 C   0  0  0  0  0  0  0  0  0  0  0  0
   14.9060   19.1406    4.6672 C   0  0  0  0  0  0  0  0  0  0  0  0
   14.9857   18.0246    3.8311 C   0  0  0  0  0  0  0  0  0  0  0  0
   16.1863   17.6809    3.1998 C   0  0  0  0  0  0  0  0  0  0  0  0
   17.3155   18.4641    3.4095 C   0  0  0  0  0  0  0  0  0  0  0  0
   17.2400   19.5810    4.2475 C   0  0  0  0  0  0  0  0  0  0  0  0
 26 27  1  0  0  0
 26 28  1  0  0  0
 26 29  1  0  0  0
 26 25  1  0  0  0
 25 21  1  0  0  0
 21 22  2  0  0  0
 21 23  1  0  0  0
 23 20  1  0  0  0
 20 30  1  0  0  0
 20 17  1  0  0  0
 30 31  1  0  0  0
 31 32  2  0  0  0
 31 36  1  0  0  0
 32 33  1  0  0  0
 33 34  2  0  0  0
 34 35  1  0  0  0
 35 36  2  0  0  0
 17 18  1  0  0  0
 17 16  1  0  0  0
 16  1  1  0  0  0
  1 37  1  0  0  0
  1  2  1  0  0  0
 37 38  1  0  0  0
 38 39  2  0  0  0
 38 43  1  0  0  0
 39 40  1  0  0  0
 40 41  2  0  0  0
 41 42  1  0  0  0
 42 43  2  0  0  0
  2  3  2  0  0  0
  2  4  1  0  0  0
  4  6  1  0  0  0
  6 13  1  0  0  0
  6  7  1  0  0  0
 13 14  1  0  0  0
 13 15  1  0  0  0
  7  8  1  0  0  0
  7 11  2  0  0  0
  8  9  1  0  0  0
  9 10  2  0  0  0
 10 11  1  0  0  0
 23 24  1  0  0  0
 18 19  1  0  0  0
  4  5  1  0  0  0
  8 12  1  0  0  0
M  END
> <minimizedAffinity>
-9.74073

$$$$
1TCX_IM1_A_400


 43 45  0  0  0  0  0  0  0  0999 V2000
   13.7331   21.0115    4.1096 C   0  0  0  0  0  0  0  0  0  0  0  0
   14.9530   21.6374    4.8086 C   0  0  0  0  0  0  0  0  0  0  0  0
   15.6702   22.5039    4.2922 O   0  0  0  0  0  0  0  0  0  0  0  0
   15.2264   21.2023    6.0201 N   0  0  0  0  0  0  0  0  0  0  0  0
   14.6424   20.5209    6.4250 H   0  0  0  0  0  0  0  0  0  0  0  0
   16.3650   21.6964    6.7804 C   0  0  0  0  0  0  0  0  0  0  0  0
   17.3986   20.5810    6.5721 C   0  0  0  0  0  0  0  0  0  0  0  0
   18.3420   20.4088    5.6288 N   0  0  0  0  0  0  0  0  0  0  0  0
   19.1065   19.3957    6.1700 C   0  0  0  0  0  0  0  0  0  0  0  0
   18.5740   19.0195    7.4091 C   0  0  0  0  0  0  0  0  0  0  0  0
   17.4730   19.8061    7.6351 N   0  0  0  0  0  0  0  0  0  0  0  0
   18.4572   20.8830    4.7737 H   0  0  0  0  0  0  0  0  0  0  0  0
   16.1067   21.8519    8.2864 C   0  0  0  0  0  0  0  0  0  0  0  0
   16.7862   23.1019    8.6804 C   0  0  0  0  0  0  0  0  0  0  0  0
   14.6778   22.1008    8.6647 C   0  0  0  0  0  0  0  0  0  0  0  0
   12.7917   22.0950    3.6634 C   0  0  0  0  0  0  0  0  0  0  0  0
   12.1929   22.8969    4.7903 C   0  0  0  0  0  0  0  0  0  0  0  0
   11.7404   21.8928    5.6515 O   0  0  0  0  0  0  0  0  0  0  0  0
   11.1102   21.3240    5.1821 H   0  0  0  0  0  0  0  0  0  0  0  0
   11.0639   23.8767    4.3482 C   0  0  0  0  0  0  0  0  0  0  0  0
   10.5288   25.2762    6.1997 C   0  0  0  0  0  0  0  0  0  0  0  0
   10.1015   24.2274    6.7227 O   0  0  0  0  0  0  0  0  0  0  0  0
   11.0396   25.1904    4.9930 N   0  0  0  0  0  0  0  0  0  0  0  0
   11.3957   25.9862    4.5355 H   0  0  0  0  0  0  0  0  0  0  0  0
   10.5134   26.5330    6.8055 O   0  0  0  0  0  0  0  0  0  0  0  0
   10.6127   26.7065    8.1872 C   0  0  0  0  0  0  0  0  0  0  0  0
   10.1991   28.1221    8.5165 C   0  0  0  0  0  0  0  0  0  0  0  0
    9.6092   25.8600    8.9466 C   0  0  0  0  0  0  0  0  0  0  0  0
   12.0130   26.4871    8.7241 C   0  0  0  0  0  0  0  0  0  0  0  0
   11.0622   24.1642    2.8439 C   0  0  0  0  0  0  0  0  0  0  0  0
    9.7019   24.6438    2.3485 C   0  0  0  0  0  0  0  0  0  0  0  0
    8.5669   23.8420    2.5245 C   0  0  0  0  0  0  0  0  0  0  0  0
    7.3329   24.2872    2.0468 C   0  0  0  0  0  0  0  0  0  0  0  0
    7.2244   25.5306    1.3958 C   0  0  0  0  0  0  0  0  0  0  0  0
    8.3554   26.3250    1.2248 C   0  0  0  0  0  0  0  0  0  0  0  0
    9.6008   25.8810    1.7021 C   0  0  0  0  0  0  0  0  0  0  0  0
   14.1411   20.2133    2.8562 C   0  0  0  0  0  0  0  0  0  0  0  0
   15.3146   19.2579    3.0343 C   0  0  0  0  0  0  0  0  0  0  0  0
   15.3111   18.3506    4.0912 C   0  0  0  0  0  0  0  0  0  0  0  0
   16.3880   17.4765    4.2555 C   0  0  0  0  0  0  0  0  0  0  0  0
   17.4734   17.4956    3.3725 C   0  0  0  0  0  0  0  0  0  0  0  0
   17.4772   18.3993    2.3162 C   0  0  0  0  0  0  0  0  0  0  0  0
   16.4017   19.2773    2.1498 C   0  0  0  0  0  0  0  0  0  0  0  0
 26 27  1  0  0  0
 26 28  1  0  0  0
 26 29  1  0  0  0
 26 25  1  0  0  0
 25 21  1  0  0  0
 21 22  2  0  0  0
 21 23  1  0  0  0
 23 20  1  0  0  0
 20 30  1  0  0  0
 20 17  1  0  0  0
 30 31  1  0  0  0
 31 32  2  0  0  0
 31 36  1  0  0  0
 32 33  1  0  0  0
 33 34  2  0  0  0
 34 35  1  0  0  0
 35 36  2  0  0  0
 17 18  1  0  0  0
 17 16  1  0  0  0
 16  1  1  0  0  0
  1 37  1  0  0  0
  1  2  1  0  0  0
 37 38  1  0  0  0
 38 39  2  0  0  0
 38 43  1  0  0  0
 39 40  1  0  0  0
 40 41  2  0  0  0
 41 42  1  0  0  0
 42 43  2  0  0  0
  2  3  2  0  0  0
  2  4  1  0  0  0
  4  6  1  0  0  0
  6 13  1  0  0  0
  6  7  1  0  0  0
 13 14  1  0  0  0
 13 15  1  0  0  0
  7  8  1  0  0  0
  7 11  2  0  0  0
  8  9  1  0  0  0
  9 10  2  0  0  0
 10 11  1  0  0  0
 23 24  1  0  0  0
 18 19  1  0  0  0
  4  5  1  0  0  0
  8 12  1  0  0  0
M  END
> <minimizedAffinity>
-9.62914

$$$$
1TCX_IM1_A_400


 43 45  0  0  0  0  0  0  0  0999 V2000
   15.0706   23.2660    6.5934 C   0  0  0  0  0  0  0  0  0  0  0  0
   14.7981   21.8130    6.1655 C   0  0  0  0  0  0  0  0  0  0  0  0
   13.7433   21.2124    6.4081 O   0  0  0  0  0  0  0  0  0  0  0  0
   15.7615   21.1998    5.5117 N   0  0  0  0  0  0  0  0  0  0  0  0
   16.5916   21.6911    5.3147 H   0  0  0  0  0  0  0  0  0  0  0  0
   15.6387   19.8181    5.0705 C   0  0  0  0  0  0  0  0  0  0  0  0
   16.9867   19.2230    5.5001 C   0  0  0  0  0  0  0  0  0  0  0  0
   17.4359   17.9551    5.5084 N   0  0  0  0  0  0  0  0  0  0  0  0
   18.7884   18.1318    5.7170 C   0  0  0  0  0  0  0  0  0  0  0  0
   19.0701   19.4993    5.8219 C   0  0  0  0  0  0  0  0  0  0  0  0
   17.8834   20.1721    5.6769 N   0  0  0  0  0  0  0  0  0  0  0  0
   16.9306   17.1178    5.3950 H   0  0  0  0  0  0  0  0  0  0  0  0
   15.4868   19.6451    3.5520 C   0  0  0  0  0  0  0  0  0  0  0  0
   14.6365   18.4520    3.3700 C   0  0  0  0  0  0  0  0  0  0  0  0
   14.7147   20.7288    2.8620 C   0  0  0  0  0  0  0  0  0  0  0  0
   13.8709   24.1190    6.2894 C   0  0  0  0  0  0  0  0  0  0  0  0
   13.5388   24.2190    4.8227 C   0  0  0  0  0  0  0  0  0  0  0  0
   14.3601   25.2731    4.4112 O   0  0  0  0  0  0  0  0  0  0  0  0
   14.1500   26.0671    4.9273 H   0  0  0  0  0  0  0  0  0  0  0  0
   12.0292   24.4689    4.5246 C   0  0  0  0  0  0  0  0  0  0  0  0
   10.6087   25.3745    6.2083 C   0  0  0  0  0  0  0  0  0  0  0  0
   10.4406   24.1853    6.5454 O   0  0  0  0  0  0  0  0  0  0  0  0
   11.4048   25.6124    5.1914 N   0  0  0  0  0  0  0  0  0  0  0  0
   11.5764   26.5326    4.8866 H   0  0  0  0  0  0  0  0  0  0  0  0
   10.0211   26.4723    6.8379 O   0  0  0  0  0  0  0  0  0  0  0  0
   10.2711   26.8011    8.1714 C   0  0  0  0  0  0  0  0  0  0  0  0
    9.8543   28.2369    8.3903 C   0  0  0  0  0  0  0  0  0  0  0  0
    9.3868   26.0269    9.1301 C   0  0  0  0  0  0  0  0  0  0  0  0
   11.7294   26.6683    8.5628 C   0  0  0  0  0  0  0  0  0  0  0  0
   11.7256   24.6538    3.0350 C   0  0  0  0  0  0  0  0  0  0  0  0
   10.2298   24.6143    2.7406 C   0  0  0  0  0  0  0  0  0  0  0  0
    9.4544   23.5348    3.1828 C   0  0  0  0  0  0  0  0  0  0  0  0
    8.0904   23.5045    2.8871 C   0  0  0  0  0  0  0  0  0  0  0  0
    7.4942   24.5476    2.1537 C   0  0  0  0  0  0  0  0  0  0  0  0
    8.2689   25.6197    1.7176 C   0  0  0  0  0  0  0  0  0  0  0  0
    9.6432   25.6547    2.0109 C   0  0  0  0  0  0  0  0  0  0  0  0
   15.3389   23.3742    8.1069 C   0  0  0  0  0  0  0  0  0  0  0  0
   16.3143   22.3534    8.6798 C   0  0  0  0  0  0  0  0  0  0  0  0
   15.8307   21.2789    9.4227 C   0  0  0  0  0  0  0  0  0  0  0  0
   16.7252   20.3445    9.9497 C   0  0  0  0  0  0  0  0  0  0  0  0
   18.1034   20.4689    9.7420 C   0  0  0  0  0  0  0  0  0  0  0  0
   18.5870   21.5398    8.9992 C   0  0  0  0  0  0  0  0  0  0  0  0
   17.6947   22.4783    8.4719 C   0  0  0  0  0  0  0  0  0  0  0  0
 26 27  1  0  0  0
 26 28  1  0  0  0
 26 29  1  0  0  0
 26 25  1  0  0  0
 25 21  1  0  0  0
 21 22  2  0  0  0
 21 23  1  0  0  0
 23 20  1  0  0  0
 20 30  1  0  0  0
 20 17  1  0  0  0
 30 31  1  0  0  0
 31 32  2  0  0  0
 31 36  1  0  0  0
 32 33  1  0  0  0
 33 34  2  0  0  0
 34 35  1  0  0  0
 35 36  2  0  0  0
 17 18  1  0  0  0
 17 16  1  0  0  0
 16  1  1  0  0  0
  1 37  1  0  0  0
  1  2  1  0  0  0
 37 38  1  0  0  0
 38 39  2  0  0  0
 38 43  1  0  0  0
 39 40  1  0  0  0
 40 41  2  0  0  0
 41 42  1  0  0  0
 42 43  2  0  0  0
  2  3  2  0  0  0
  2  4  1  0  0  0
  4  6  1  0  0  0
  6 13  1  0  0  0
  6  7  1  0  0  0
 13 14  1  0  0  0
 13 15  1  0  0  0
  7  8  1  0  0  0
  7 11  2  0  0  0
  8  9  1  0  0  0
  9 10  2  0  0  0
 10 11  1  0  0  0
 23 24  1  0  0  0
 18 19  1  0  0  0
  4  5  1  0  0  0
  8 12  1  0  0  0
M  END
> <minimizedAffinity>
-9.53940

$$$$
1TCX_IM1_A_400


 43 45  0  0  0  0  0  0  0  0999 V2000
   13.9442   20.5999    4.8008 C   0  0  0  0  0  0  0  0  0  0  0  0
   15.1642   21.3333    5.3858 C   0  0  0  0  0  0  0  0  0  0  0  0
   15.7102   22.3007    4.8399 O   0  0  0  0  0  0  0  0  0  0  0  0
   15.6333   20.8797    6.5286 N   0  0  0  0  0  0  0  0  0  0  0  0
   15.1840   20.1167    6.9591 H   0  0  0  0  0  0  0  0  0  0  0  0
   16.7954   21.4702    7.1763 C   0  0  0  0  0  0  0  0  0  0  0  0
   17.7166   20.2552    7.3525 C   0  0  0  0  0  0  0  0  0  0  0  0
   17.6968   19.2470    8.2428 N   0  0  0  0  0  0  0  0  0  0  0  0
   18.5884   18.3542    7.6844 C   0  0  0  0  0  0  0  0  0  0  0  0
   19.0914   18.8823    6.4891 C   0  0  0  0  0  0  0  0  0  0  0  0
   18.5061   20.1097    6.3077 N   0  0  0  0  0  0  0  0  0  0  0  0
   17.1799   19.1668    9.0769 H   0  0  0  0  0  0  0  0  0  0  0  0
   16.5145   22.0783    8.5584 C   0  0  0  0  0  0  0  0  0  0  0  0
   16.6031   23.5406    8.3758 C   0  0  0  0  0  0  0  0  0  0  0  0
   15.1201   21.8775    9.0705 C   0  0  0  0  0  0  0  0  0  0  0  0
   12.7879   21.5526    4.6806 C   0  0  0  0  0  0  0  0  0  0  0  0
   12.3618   22.1759    5.9849 C   0  0  0  0  0  0  0  0  0  0  0  0
   11.7050   21.1132    6.6127 O   0  0  0  0  0  0  0  0  0  0  0  0
   10.9733   20.8094    6.0529 H   0  0  0  0  0  0  0  0  0  0  0  0
   11.4640   23.4404    5.8262 C   0  0  0  0  0  0  0  0  0  0  0  0
   10.9036   24.3865    3.7134 C   0  0  0  0  0  0  0  0  0  0  0  0
   11.8954   25.1181    3.9061 O   0  0  0  0  0  0  0  0  0  0  0  0
   10.6120   23.5004    4.6377 N   0  0  0  0  0  0  0  0  0  0  0  0
    9.8430   22.8945    4.5342 H   0  0  0  0  0  0  0  0  0  0  0  0
   10.0860   24.4328    2.5837 O   0  0  0  0  0  0  0  0  0  0  0  0
    8.9269   25.2083    2.5216 C   0  0  0  0  0  0  0  0  0  0  0  0
    7.7573   24.2894    2.2554 C   0  0  0  0  0  0  0  0  0  0  0  0
    8.5840   25.8380    3.8582 C   0  0  0  0  0  0  0  0  0  0  0  0
    8.9606   26.2579    1.4286 C   0  0  0  0  0  0  0  0  0  0  0  0
   10.5221   23.6706    7.0115 C   0  0  0  0  0  0  0  0  0  0  0  0
   10.6767   25.0645    7.6106 C   0  0  0  0  0  0  0  0  0  0  0  0
   11.7825   25.3648    8.4163 C   0  0  0  0  0  0  0  0  0  0  0  0
   11.8980   26.6397    8.9734 C   0  0  0  0  0  0  0  0  0  0  0  0
   10.9166   27.6187    8.7291 C   0  0  0  0  0  0  0  0  0  0  0  0
    9.8198   27.3159    7.9258 C   0  0  0  0  0  0  0  0  0  0  0  0
    9.6973   26.0334    7.3637 C   0  0  0  0  0  0  0  0  0  0  0  0
   14.2324   20.0478    3.3913 C   0  0  0  0  0  0  0  0  0  0  0  0
   15.4475   19.1359    3.2744 C   0  0  0  0  0  0  0  0  0  0  0  0
   16.3067   19.2679    2.1860 C   0  0  0  0  0  0  0  0  0  0  0  0
   17.4191   18.4303    2.0780 C   0  0  0  0  0  0  0  0  0  0  0  0
   17.6871   17.4586    3.0486 C   0  0  0  0  0  0  0  0  0  0  0  0
   16.8314   17.3272    4.1362 C   0  0  0  0  0  0  0  0  0  0  0  0
   15.7155   18.1626    4.2466 C   0  0  0  0  0  0  0  0  0  0  0  0
 26 27  1  0  0  0
 26 28  1  0  0  0
 26 29  1  0  0  0
 26 25  1  0  0  0
 25 21  1  0  0  0
 21 22  2  0  0  0
 21 23  1  0  0  0
 23 20  1  0  0  0
 20 30  1  0  0  0
 20 17  1  0  0  0
 30 31  1  0  0  0
 31 32  2  0  0  0
 31 36  1  0  0  0
 32 33  1  0  0  0
 33 34  2  0  0  0
 34 35  1  0  0  0
 35 36  2  0  0  0
 17 18  1  0  0  0
 17 16  1  0  0  0
 16  1  1  0  0  0
  1 37  1  0  0  0
  1  2  1  0  0  0
 37 38  1  0  0  0
 38 39  2  0  0  0
 38 43  1  0  0  0
 39 40  1  0  0  0
 40 41  2  0  0  0
 41 42  1  0  0  0
 42 43  2  0  0  0
  2  3  2  0  0  0
  2  4  1  0  0  0
  4  6  1  0  0  0
  6 13  1  0  0  0
  6  7  1  0  0  0
 13 14  1  0  0  0
 13 15  1  0  0  0
  7  8  1  0  0  0
  7 11  2  0  0  0
  8  9  1  0  0  0
  9 10  2  0  0  0
 10 11  1  0  0  0
 23 24  1  0  0  0
 18 19  1  0  0  0
  4  5  1  0  0  0
  8 12  1  0  0  0
M  END
> <minimizedAffinity>
-9.49031

$$$$
1TCX_IM1_A_400


 43 45  0  0  0  0  0  0  0  0999 V2000
   11.2646   23.2903    5.1567 C   0  0  0  0  0  0  0  0  0  0  0  0
   10.8029   24.4569    4.2655 C   0  0  0  0  0  0  0  0  0  0  0  0
   11.5234   25.0003    3.4183 O   0  0  0  0  0  0  0  0  0  0  0  0
    9.5699   24.8818    4.4414 N   0  0  0  0  0  0  0  0  0  0  0  0
    9.0025   24.4346    5.1103 H   0  0  0  0  0  0  0  0  0  0  0  0
    9.0184   25.9918    3.6783 C   0  0  0  0  0  0  0  0  0  0  0  0
    8.2593   26.7769    4.7568 C   0  0  0  0  0  0  0  0  0  0  0  0
    7.0671   26.5592    5.3405 N   0  0  0  0  0  0  0  0  0  0  0  0
    7.1055   27.4354    6.4058 C   0  0  0  0  0  0  0  0  0  0  0  0
    8.3221   28.1285    6.3969 C   0  0  0  0  0  0  0  0  0  0  0  0
    9.0404   27.6770    5.3188 N   0  0  0  0  0  0  0  0  0  0  0  0
    6.3522   25.9361    5.0762 H   0  0  0  0  0  0  0  0  0  0  0  0
    8.0262   25.5801    2.5806 C   0  0  0  0  0  0  0  0  0  0  0  0
    8.5297   26.1960    1.3370 C   0  0  0  0  0  0  0  0  0  0  0  0
    8.0055   24.1164    2.2580 C   0  0  0  0  0  0  0  0  0  0  0  0
   12.0379   22.2976    4.3345 C   0  0  0  0  0  0  0  0  0  0  0  0
   13.5165   22.5783    4.2556 C   0  0  0  0  0  0  0  0  0  0  0  0
   13.6637   22.9836    2.9257 O   0  0  0  0  0  0  0  0  0  0  0  0
   13.3553   22.2775    2.3365 H   0  0  0  0  0  0  0  0  0  0  0  0
   14.4188   21.3625    4.6269 C   0  0  0  0  0  0  0  0  0  0  0  0
   15.7976   20.9286    6.5199 C   0  0  0  0  0  0  0  0  0  0  0  0
   16.7439   21.0604    5.7179 O   0  0  0  0  0  0  0  0  0  0  0  0
   14.5788   21.0695    6.0519 N   0  0  0  0  0  0  0  0  0  0  0  0
   13.7958   20.9806    6.6421 H   0  0  0  0  0  0  0  0  0  0  0  0
   15.9381   20.6522    7.8803 O   0  0  0  0  0  0  0  0  0  0  0  0
   16.2393   21.6361    8.8236 C   0  0  0  0  0  0  0  0  0  0  0  0
   17.7065   21.5271    9.1682 C   0  0  0  0  0  0  0  0  0  0  0  0
   16.1136   23.0363    8.2543 C   0  0  0  0  0  0  0  0  0  0  0  0
   15.4425   21.5066   10.1065 C   0  0  0  0  0  0  0  0  0  0  0  0
   13.9583   20.0469    3.9924 C   0  0  0  0  0  0  0  0  0  0  0  0
   15.1220   19.2387    3.4282 C   0  0  0  0  0  0  0  0  0  0  0  0
   15.7090   19.6069    2.2109 C   0  0  0  0  0  0  0  0  0  0  0  0
   16.7601   18.8441    1.6986 C   0  0  0  0  0  0  0  0  0  0  0  0
   17.2310   17.7157    2.3961 C   0  0  0  0  0  0  0  0  0  0  0  0
   16.6454   17.3546    3.6070 C   0  0  0  0  0  0  0  0  0  0  0  0
   15.5857   18.1179    4.1267 C   0  0  0  0  0  0  0  0  0  0  0  0
   12.1929   23.7702    6.2892 C   0  0  0  0  0  0  0  0  0  0  0  0
   11.5444   24.6590    7.3433 C   0  0  0  0  0  0  0  0  0  0  0  0
   10.1806   24.5407    7.6010 C   0  0  0  0  0  0  0  0  0  0  0  0
    9.5860   25.3571    8.5656 C   0  0  0  0  0  0  0  0  0  0  0  0
   10.3397   26.2941    9.2813 C   0  0  0  0  0  0  0  0  0  0  0  0
   11.7012   26.4118    9.0263 C   0  0  0  0  0  0  0  0  0  0  0  0
   12.2995   25.5975    8.0597 C   0  0  0  0  0  0  0  0  0  0  0  0
 26 27  1  0  0  0
 26 28  1  0  0  0
 26 29  1  0  0  0
 26 25  1  0  0  0
 25 21  1  0  0  0
 21 22  2  0  0  0
 21 23  1  0  0  0
 23 20  1  0  0  0
 20 30  1  0  0  0
 20 17  1  0  0  0
 30 31  1  0  0  0
 31 32  2  0  0  0
 31 36  1  0  0  0
 32 33  1  0  0  0
 33 34  2  0  0  0
 34 35  1  0  0  0
 35 36  2  0  0  0
 17 18  1  0  0  0
 17 16  1  0  0  0
 16  1  1  0  0  0
  1 37  1  0  0  0
  1  2  1  0  0  0
 37 38  1  0  0  0
 38 39  2  0  0  0
 38 43  1  0  0  0
 39 40  1  0  0  0
 40 41  2  0  0  0
 41 42  1  0  0  0
 42 43  2  0  0  0
  2  3  2  0  0  0
  2  4  1  0  0  0
  4  6  1  0  0  0
  6 13  1  0  0  0
  6  7  1  0  0  0
 13 14  1  0  0  0
 13 15  1  0  0  0
  7  8  1  0  0  0
  7 11  2  0  0  0
  8  9  1  0  0  0
  9 10  2  0  0  0
 10 11  1  0  0  0
 23 24  1  0  0  0
 18 19  1  0  0  0
  4  5  1  0  0  0
  8 12  1  0  0  0
M  END
> <minimizedAffinity>
-9.39728

$$$$
1TCX_IM1_A_400


 43 45  0  0  0  0  0  0  0  0999 V2000
   13.9150   21.7294    4.1908 C   0  0  0  0  0  0  0  0  0  0  0  0
   14.5499   20.3296    4.1133 C   0  0  0  0  0  0  0  0  0  0  0  0
   13.8989   19.2776    4.1508 O   0  0  0  0  0  0  0  0  0  0  0  0
   15.8607   20.2813    4.0073 N   0  0  0  0  0  0  0  0  0  0  0  0
   16.3671   21.1246    3.9672 H   0  0  0  0  0  0  0  0  0  0  0  0
   16.5856   19.0204    3.9474 C   0  0  0  0  0  0  0  0  0  0  0  0
   17.5338   19.1379    5.1486 C   0  0  0  0  0  0  0  0  0  0  0  0
   17.8659   18.2554    6.1080 N   0  0  0  0  0  0  0  0  0  0  0  0
   18.9590   18.8635    6.6904 C   0  0  0  0  0  0  0  0  0  0  0  0
   19.2176   20.0781    6.0437 C   0  0  0  0  0  0  0  0  0  0  0  0
   18.2778   20.2213    5.0546 N   0  0  0  0  0  0  0  0  0  0  0  0
   17.4394   17.3977    6.3356 H   0  0  0  0  0  0  0  0  0  0  0  0
   17.4251   18.8277    2.6758 C   0  0  0  0  0  0  0  0  0  0  0  0
   17.7288   17.3843    2.6137 C   0  0  0  0  0  0  0  0  0  0  0  0
   16.6998   19.0843    1.3894 C   0  0  0  0  0  0  0  0  0  0  0  0
   14.9844   22.7606    4.4191 C   0  0  0  0  0  0  0  0  0  0  0  0
   14.4589   24.1326    4.7554 C   0  0  0  0  0  0  0  0  0  0  0  0
   15.6382   24.8757    4.8637 O   0  0  0  0  0  0  0  0  0  0  0  0
   16.2062   24.4833    5.5450 H   0  0  0  0  0  0  0  0  0  0  0  0
   13.5843   24.1838    6.0448 C   0  0  0  0  0  0  0  0  0  0  0  0
   13.7074   22.5990    7.8185 C   0  0  0  0  0  0  0  0  0  0  0  0
   12.7511   22.0465    7.2386 O   0  0  0  0  0  0  0  0  0  0  0  0
   14.1976   23.6912    7.2790 N   0  0  0  0  0  0  0  0  0  0  0  0
   14.9554   24.1647    7.6924 H   0  0  0  0  0  0  0  0  0  0  0  0
   14.3018   22.1373    8.9934 O   0  0  0  0  0  0  0  0  0  0  0  0
   15.5505   21.5134    9.0133 C   0  0  0  0  0  0  0  0  0  0  0  0
   16.6100   22.5811    9.1563 C   0  0  0  0  0  0  0  0  0  0  0  0
   15.7450   20.6553   10.2487 C   0  0  0  0  0  0  0  0  0  0  0  0
   15.8482   20.7186    7.7575 C   0  0  0  0  0  0  0  0  0  0  0  0
   13.0746   25.5888    6.3789 C   0  0  0  0  0  0  0  0  0  0  0  0
   11.8956   25.5614    7.3458 C   0  0  0  0  0  0  0  0  0  0  0  0
   10.6689   25.0178    6.9435 C   0  0  0  0  0  0  0  0  0  0  0  0
    9.5939   25.0192    7.8343 C   0  0  0  0  0  0  0  0  0  0  0  0
    9.7367   25.5583    9.1267 C   0  0  0  0  0  0  0  0  0  0  0  0
   10.9589   26.0960    9.5227 C   0  0  0  0  0  0  0  0  0  0  0  0
   12.0442   26.0990    8.6295 C   0  0  0  0  0  0  0  0  0  0  0  0
   13.1912   22.1008    2.8821 C   0  0  0  0  0  0  0  0  0  0  0  0
   11.9257   22.9345    3.0405 C   0  0  0  0  0  0  0  0  0  0  0  0
   11.7249   24.0452    2.2243 C   0  0  0  0  0  0  0  0  0  0  0  0
   10.5659   24.8106    2.3712 C   0  0  0  0  0  0  0  0  0  0  0  0
    9.5988   24.4785    3.3266 C   0  0  0  0  0  0  0  0  0  0  0  0
    9.7972   23.3691    4.1404 C   0  0  0  0  0  0  0  0  0  0  0  0
   10.9574   22.6018    3.9975 C   0  0  0  0  0  0  0  0  0  0  0  0
 26 27  1  0  0  0
 26 28  1  0  0  0
 26 29  1  0  0  0
 26 25  1  0  0  0
 25 21  1  0  0  0
 21 22  2  0  0  0
 21 23  1  0  0  0
 23 20  1  0  0  0
 20 30  1  0  0  0
 20 17  1  0  0  0
 30 31  1  0  0  0
 31 32  2  0  0  0
 31 36  1  0  0  0
 32 33  1  0  0  0
 33 34  2  0  0  0
 34 35  1  0  0  0
 35 36  2  0  0  0
 17 18  1  0  0  0
 17 16  1  0  0  0
 16  1  1  0  0  0
  1 37  1  0  0  0
  1  2  1  0  0  0
 37 38  1  0  0  0
 38 39  2  0  0  0
 38 43  1  0  0  0
 39 40  1  0  0  0
 40 41  2  0  0  0
 41 42  1  0  0  0
 42 43  2  0  0  0
  2  3  2  0  0  0
  2  4  1  0  0  0
  4  6  1  0  0  0
  6 13  1  0  0  0
  6  7  1  0  0  0
 13 14  1  0  0  0
 13 15  1  0  0  0
  7  8  1  0  0  0
  7 11  2  0  0  0
  8  9  1  0  0  0
  9 10  2  0  0  0
 10 11  1  0  0  0
 23 24  1  0  0  0
 18 19  1  0  0  0
  4  5  1  0  0  0
  8 12  1  0  0  0
M  END
> <minimizedAffinity>
-9.37040

$$$$
1TCX_IM1_A_400


 43 45  0  0  0  0  0  0  0  0999 V2000
   10.2500   24.3253    4.8462 C   0  0  0  0  0  0  0  0  0  0  0  0
    9.3165   25.0473    3.8585 C   0  0  0  0  0  0  0  0  0  0  0  0
    9.6490   25.3704    2.7109 O   0  0  0  0  0  0  0  0  0  0  0  0
    8.1052   25.3283    4.2894 N   0  0  0  0  0  0  0  0  0  0  0  0
    7.8483   25.0567    5.2001 H   0  0  0  0  0  0  0  0  0  0  0  0
    7.1333   26.0281    3.4621 C   0  0  0  0  0  0  0  0  0  0  0  0
    6.4517   26.9526    4.4802 C   0  0  0  0  0  0  0  0  0  0  0  0
    5.2603   26.8677    5.0990 N   0  0  0  0  0  0  0  0  0  0  0  0
    5.3800   27.8270    6.0836 C   0  0  0  0  0  0  0  0  0  0  0  0
    6.6398   28.4317    5.9959 C   0  0  0  0  0  0  0  0  0  0  0  0
    7.3030   27.8418    4.9499 N   0  0  0  0  0  0  0  0  0  0  0  0
    4.4998   26.2748    4.9007 H   0  0  0  0  0  0  0  0  0  0  0  0
    6.0662   25.1231    2.8288 C   0  0  0  0  0  0  0  0  0  0  0  0
    6.4491   24.9886    1.4094 C   0  0  0  0  0  0  0  0  0  0  0  0
    6.0590   23.7072    3.3208 C   0  0  0  0  0  0  0  0  0  0  0  0
   11.0714   23.3016    4.1135 C   0  0  0  0  0  0  0  0  0  0  0  0
   12.4567   23.7679    3.7461 C   0  0  0  0  0  0  0  0  0  0  0  0
   12.4150   23.7268    2.3492 O   0  0  0  0  0  0  0  0  0  0  0  0
   12.2023   22.8262    2.0585 H   0  0  0  0  0  0  0  0  0  0  0  0
   13.6038   22.9011    4.3485 C   0  0  0  0  0  0  0  0  0  0  0  0
   14.2432   20.7189    3.6401 C   0  0  0  0  0  0  0  0  0  0  0  0
   13.5677   20.3290    4.6136 O   0  0  0  0  0  0  0  0  0  0  0  0
   14.3139   22.0128    3.4273 N   0  0  0  0  0  0  0  0  0  0  0  0
   14.8293   22.3745    2.6705 H   0  0  0  0  0  0  0  0  0  0  0  0
   14.9218   19.8816    2.7539 O   0  0  0  0  0  0  0  0  0  0  0  0
   15.9967   19.0810    3.1444 C   0  0  0  0  0  0  0  0  0  0  0  0
   16.8072   19.8438    4.1664 C   0  0  0  0  0  0  0  0  0  0  0  0
   15.5483   17.8451    3.9006 C   0  0  0  0  0  0  0  0  0  0  0  0
   16.9157   18.7039    1.9996 C   0  0  0  0  0  0  0  0  0  0  0  0
   14.6949   23.7279    5.0352 C   0  0  0  0  0  0  0  0  0  0  0  0
   14.9209   23.2995    6.4813 C   0  0  0  0  0  0  0  0  0  0  0  0
   16.1828   23.4502    7.0702 C   0  0  0  0  0  0  0  0  0  0  0  0
   16.3777   23.0340    8.3884 C   0  0  0  0  0  0  0  0  0  0  0  0
   15.3187   22.4698    9.1243 C   0  0  0  0  0  0  0  0  0  0  0  0
   14.0652   22.3238    8.5351 C   0  0  0  0  0  0  0  0  0  0  0  0
   13.8636   22.7394    7.2075 C   0  0  0  0  0  0  0  0  0  0  0  0
   11.2312   25.3025    5.5221 C   0  0  0  0  0  0  0  0  0  0  0  0
   11.0353   25.5055    7.0195 C   0  0  0  0  0  0  0  0  0  0  0  0
    9.7845   25.2778    7.5885 C   0  0  0  0  0  0  0  0  0  0  0  0
    9.6047   25.4662    8.9608 C   0  0  0  0  0  0  0  0  0  0  0  0
   10.6637   25.8795    9.7767 C   0  0  0  0  0  0  0  0  0  0  0  0
   11.9129   26.1052    9.2103 C   0  0  0  0  0  0  0  0  0  0  0  0
   12.0962   25.9197    7.8365 C   0  0  0  0  0  0  0  0  0  0  0  0
 26 27  1  0  0  0
 26 28  1  0  0  0
 26 29  1  0  0  0
 26 25  1  0  0  0
 25 21  1  0  0  0
 21 22  2  0  0  0
 21 23  1  0  0  0
 23 20  1  0  0  0
 20 30  1  0  0  0
 20 17  1  0  0  0
 30 31  1  0  0  0
 31 32  2  0  0  0
 31 36  1  0  0  0
 32 33  1  0  0  0
 33 34  2  0  0  0
 34 35  1  0  0  0
 35 36  2  0  0  0
 17 18  1  0  0  0
 17 16  1  0  0  0
 16  1  1  0  0  0
  1 37  1  0  0  0
  1  2  1  0  0  0
 37 38  1  0  0  0
 38 39  2  0  0  0
 38 43  1  0  0  0
 39 40  1  0  0  0
 40 41  2  0  0  0
 41 42  1  0  0  0
 42 43  2  0  0  0
  2  3  2  0  0  0
  2  4  1  0  0  0
  4  6  1  0  0  0
  6 13  1  0  0  0
  6  7  1  0  0  0
 13 14  1  0  0  0
 13 15  1  0  0  0
  7  8  1  0  0  0
  7 11  2  0  0  0
  8  9  1  0  0  0
  9 10  2  0  0  0
 10 11  1  0  0  0
 23 24  1  0  0  0
 18 19  1  0  0  0
  4  5  1  0  0  0
  8 12  1  0  0  0
M  END
> <minimizedAffinity>
-9.31234

$$$$
1TCX_IM1_A_400


 43 45  0  0  0  0  0  0  0  0999 V2000
   11.0010   23.7965    4.9113 C   0  0  0  0  0  0  0  0  0  0  0  0
    9.6332   24.4368    4.6155 C   0  0  0  0  0  0  0  0  0  0  0  0
    8.6384   23.7949    4.2545 O   0  0  0  0  0  0  0  0  0  0  0  0
    9.5497   25.7424    4.7579 N   0  0  0  0  0  0  0  0  0  0  0  0
   10.3444   26.2411    5.0563 H   0  0  0  0  0  0  0  0  0  0  0  0
    8.3196   26.4724    4.4883 C   0  0  0  0  0  0  0  0  0  0  0  0
    8.3607   26.6175    2.9609 C   0  0  0  0  0  0  0  0  0  0  0  0
    9.3502   26.9923    2.1303 N   0  0  0  0  0  0  0  0  0  0  0  0
    8.8426   26.6315    0.8990 C   0  0  0  0  0  0  0  0  0  0  0  0
    7.5750   26.0606    1.0654 C   0  0  0  0  0  0  0  0  0  0  0  0
    7.2977   26.0684    2.4089 N   0  0  0  0  0  0  0  0  0  0  0  0
   10.2132   27.4146    2.3453 H   0  0  0  0  0  0  0  0  0  0  0  0
    8.2603   27.8741    5.1135 C   0  0  0  0  0  0  0  0  0  0  0  0
    6.8313   28.1308    5.3813 C   0  0  0  0  0  0  0  0  0  0  0  0
    8.8930   27.9945    6.4670 C   0  0  0  0  0  0  0  0  0  0  0  0
   12.0952   24.7958    4.6598 C   0  0  0  0  0  0  0  0  0  0  0  0
   13.2232   24.2762    3.8060 C   0  0  0  0  0  0  0  0  0  0  0  0
   12.5327   23.6515    2.7630 O   0  0  0  0  0  0  0  0  0  0  0  0
   11.9519   22.9645    3.1256 H   0  0  0  0  0  0  0  0  0  0  0  0
   14.2003   23.3175    4.5518 C   0  0  0  0  0  0  0  0  0  0  0  0
   14.5616   21.1642    3.6000 C   0  0  0  0  0  0  0  0  0  0  0  0
   13.5090   20.8517    4.1919 O   0  0  0  0  0  0  0  0  0  0  0  0
   14.9860   22.4007    3.7246 N   0  0  0  0  0  0  0  0  0  0  0  0
   15.8082   22.7021    3.2748 H   0  0  0  0  0  0  0  0  0  0  0  0
   15.3171   20.3000    2.8068 O   0  0  0  0  0  0  0  0  0  0  0  0
   16.0741   19.2545    3.3385 C   0  0  0  0  0  0  0  0  0  0  0  0
   17.0658   18.8081    2.2895 C   0  0  0  0  0  0  0  0  0  0  0  0
   16.9552   19.7085    4.4866 C   0  0  0  0  0  0  0  0  0  0  0  0
   15.2435   18.0533    3.7440 C   0  0  0  0  0  0  0  0  0  0  0  0
   15.2220   24.0499    5.4265 C   0  0  0  0  0  0  0  0  0  0  0  0
   15.4040   23.3820    6.7854 C   0  0  0  0  0  0  0  0  0  0  0  0
   16.5100   23.7015    7.5834 C   0  0  0  0  0  0  0  0  0  0  0  0
   16.6721   23.0657    8.8157 C   0  0  0  0  0  0  0  0  0  0  0  0
   15.7346   22.1134    9.2580 C   0  0  0  0  0  0  0  0  0  0  0  0
   14.6356   21.8004    8.4618 C   0  0  0  0  0  0  0  0  0  0  0  0
   14.4682   22.4361    7.2194 C   0  0  0  0  0  0  0  0  0  0  0  0
   11.1160   23.3504    6.3818 C   0  0  0  0  0  0  0  0  0  0  0  0
   11.1573   24.4728    7.4115 C   0  0  0  0  0  0  0  0  0  0  0  0
    9.9998   24.8129    8.1077 C   0  0  0  0  0  0  0  0  0  0  0  0
   10.0373   25.8433    9.0498 C   0  0  0  0  0  0  0  0  0  0  0  0
   11.2224   26.5411    9.3084 C   0  0  0  0  0  0  0  0  0  0  0  0
   12.3787   26.2013    8.6156 C   0  0  0  0  0  0  0  0  0  0  0  0
   12.3443   25.1717    7.6701 C   0  0  0  0  0  0  0  0  0  0  0  0
 26 27  1  0  0  0
 26 28  1  0  0  0
 26 29  1  0  0  0
 26 25  1  0  0  0
 25 21  1  0  0  0
 21 22  2  0  0  0
 21 23  1  0  0  0
 23 20  1  0  0  0
 20 30  1  0  0  0
 20 17  1  0  0  0
 30 31  1  0  0  0
 31 32  2  0  0  0
 31 36  1  0  0  0
 32 33  1  0  0  0
 33 34  2  0  0  0
 34 35  1  0  0  0
 35 36  2  0  0  0
 17 18  1  0  0  0
 17 16  1  0  0  0
 16  1  1  0  0  0
  1 37  1  0  0  0
  1  2  1  0  0  0
 37 38  1  0  0  0
 38 39  2  0  0  0
 38 43  1  0  0  0
 39 40  1  0  0  0
 40 41  2  0  0  0
 41 42  1  0  0  0
 42 43  2  0  0  0
  2  3  2  0  0  0
  2  4  1  0  0  0
  4  6  1  0  0  0
  6 13  1  0  0  0
  6  7  1  0  0  0
 13 14  1  0  0  0
 13 15  1  0  0  0
  7  8  1  0  0  0
  7 11  2  0  0  0
  8  9  1  0  0  0
  9 10  2  0  0  0
 10 11  1  0  0  0
 23 24  1  0  0  0
 18 19  1  0  0  0
  4  5  1  0  0  0
  8 12  1  0  0  0
M  END
> <minimizedAffinity>
-9.24742

$$$$
