5FLS_6ZX_A_1263
  RCSB PDB12061717433D
Coordinates from PDB:5FLS:A:1263 Model:1 without hydrogens
 13 13  0  0  0  0            999 V2000
   -3.1060    7.1450   14.6570   C 0  0  0  0  0  0  0  0  0  0  0  0
   -2.0070    5.6040   13.2100   C 0  0  0  0  0  0  0  0  0  0  0  0
   -2.2180    8.1340   14.2800   C 0  0  0  0  0  0  0  0  0  0  0  0
   -1.1130    6.5860   12.8150   C 0  0  0  0  0  0  0  0  0  0  0  0
   -3.0110    5.8750   14.1230   C 0  0  0  0  0  0  0  0  0  0  0  0
   -1.2330    7.8420   13.3650   C 0  0  0  0  0  0  0  0  0  0  0  0
   -3.4300    3.7040   15.0530   C 0  0  0  0  0  0  0  0  0  0  0  0
   -3.9760    4.8410   14.5750   C 0  0  0  0  0  0  0  0  0  0  0  0
   -4.2060    2.5180   15.6070   C 0  0  0  0  0  0  0  0  0  0  0  0
   -5.4260    5.1700   14.5340   C 0  0  0  0  0  0  0  0  0  0  0  0
   -5.3040    2.1850   15.0590   O 0  0  0  0  0  0  0  0  0  0  0  0
   -3.6180    1.9320   16.5740   O 0  0  0  0  0  0  0  0  0  0  0  0
   -0.1450    9.0960   12.9240  Cl 0  0  0  0  0  0  0  0  0  0  0  0
  1  3  1  0  0  0  0
  1  5  2  0  0  0  0
  2  4  2  0  0  0  0
  2  5  1  0  0  0  0
  3  6  2  0  0  0  0
  4  6  1  0  0  0  0
  5  8  1  0  0  0  0
  6 13  1  0  0  0  0
  7  8  2  0  0  0  0
  7  9  1  0  0  0  0
  8 10  1  0  0  0  0
  9 11  2  0  0  0  0
  9 12  1  0  0  0  0
A    1
C8
A    2
C13
A    3
C9
A    4
C12
A    5
C7
A    6
C10
A    7
C4
A    8
C5
A    9
C2
A   10
C6
A   11
O3
A   12
O1
A   13
CL11
M  END
>  <InstanceId>
5FLS_6ZX_A_1263

>  <ChemCompId>
6ZX

>  <PdbId>
5FLS

>  <ChainId>
A

>  <ResidueNumber>
1263

>  <InsertionCode>


>  <Model>
1

>  <AltIds>


>  <MissingHeavyAtoms>
0

>  <ObservedFormula>
C10 O2 Cl

>  <Name>
(E)-3-(4-chlorophenyl)but-2-enoic acid

>  <SystematicName>
(E)-3-(4-chlorophenyl)but-2-enoic acid

>  <Synonyms>


>  <Type>
non-polymer

>  <Formula>
C10 H9 Cl O2

>  <MolecularWeight>
196.63

>  <ModifiedDate>
2016-02-26

>  <Parent>


>  <OneLetterCode>


>  <SubcomponentList>


>  <AmbiguousFlag>
N

>  <InChI>
InChI=1S/C10H9ClO2/c1-7(6-10(12)13)8-2-4-9(11)5-3-8/h2-6H,1H3,(H,12,13)/b7-6+

>  <InChIKey>
SINDTVUVNPIJMY-VOTSOKGWSA-N

>  <SMILES>
C/C(=C\C(=O)O)/c1ccc(cc1)Cl

$$$$
