2FX6_270_A_246
  RCSB PDB12061705373D
Coordinates from PDB:2FX6:A:246 Model:1 without hydrogens
 10 11  0  0  0  0            999 V2000
   44.4200   -2.3760   25.6810   N 0  0  0  0  0  0  0  0  0  0  0  0
   44.1210   -3.6080   25.3470   C 0  0  0  0  0  0  0  0  0  0  0  0
   44.1430   -2.2660   26.9430   C 0  0  0  0  0  0  0  0  0  0  0  0
   44.2820   -1.1670   27.7600   C 0  0  0  0  0  0  0  0  0  0  0  0
   43.9050   -1.3490   29.0980   C 0  0  0  0  0  0  0  0  0  0  0  0
   43.4110   -2.5950   29.5450   C 0  0  0  0  0  0  0  0  0  0  0  0
   43.2860   -3.7060   28.6680   C 0  0  0  0  0  0  0  0  0  0  0  0
   43.6700   -3.4780   27.3690   C 0  0  0  0  0  0  0  0  0  0  0  0
   43.6570   -4.3030   26.3630   N 0  0  0  0  0  0  0  0  0  0  0  0
   44.3670   -4.0970   24.1710   N 0  0  0  0  0  0  0  0  0  0  0  0
  1  2  1  0  0  0  0
  1  3  2  0  0  0  0
  2  9  1  0  0  0  0
  2 10  1  0  0  0  0
  3  4  1  0  0  0  0
  3  8  1  0  0  0  0
  4  5  2  0  0  0  0
  5  6  1  0  0  0  0
  6  7  2  0  0  0  0
  7  8  1  0  0  0  0
  8  9  2  0  0  0  0
A    1
N1
A    2
C1
A    3
C2
A    4
C3
A    5
C4
A    6
C5
A    7
C6
A    8
C7
A    9
N3
A   10
N2
M  END
>  <InstanceId>
2FX6_270_A_246

>  <ChemCompId>
270

>  <PdbId>
2FX6

>  <ChainId>
A

>  <ResidueNumber>
246

>  <InsertionCode>


>  <Model>
1

>  <AltIds>


>  <MissingHeavyAtoms>
0

>  <ObservedFormula>
C7 N3

>  <Name>
2H-BENZOIMIDAZOL-2-YLAMINE

>  <SystematicName>
2H-benzimidazol-2-amine

>  <Synonyms>
ZK-800270

>  <Type>
NON-POLYMER

>  <Formula>
C7 H7 N3

>  <MolecularWeight>
133.151

>  <ModifiedDate>
2011-06-04

>  <Parent>


>  <OneLetterCode>


>  <SubcomponentList>


>  <AmbiguousFlag>
N

>  <InChI>
InChI=1S/C7H7N3/c8-7-9-5-3-1-2-4-6(5)10-7/h1-4,7H,8H2

>  <InChIKey>
DERVZEOWPBCBHO-UHFFFAOYSA-N

>  <SMILES>
C1=CC2=NC(N=C2C=C1)N

$$$$
