4FS4_H24_A_501
  RCSB PDB12061712353D
Coordinates from PDB:4FS4:A:501 Model:1 without hydrogens
 24 26  0  0  0  0            999 V2000
   30.4660    8.5250   23.5620   C 0  0  0  0  0  0  0  0  0  0  0  0
   29.3000    8.4980   22.7240   O 0  0  0  0  0  0  0  0  0  0  0  0
   29.1060    9.5460   21.8620   C 0  0  0  0  0  0  0  0  0  0  0  0
   30.0330   10.5620   21.6550   C 0  0  0  0  0  0  0  0  0  0  0  0
   29.7070   11.6140   20.8160   C 0  0  0  0  0  0  0  0  0  0  0  0
   28.4510   11.6800   20.2310   C 0  0  0  0  0  0  0  0  0  0  0  0
   27.4960   10.6850   20.4580   C 0  0  0  0  0  0  0  0  0  0  0  0
   27.8530    9.5940   21.2570   C 0  0  0  0  0  0  0  0  0  0  0  0
   26.1120   10.8140   19.9230   C 0  0  0  0  0  0  0  0  0  0  0  0
   25.8810   11.3960   18.6720   C 0  0  0  0  0  0  0  0  0  0  0  0
   24.5930   11.5800   18.2030   C 0  0  0  0  0  0  0  0  0  0  0  0
   23.5120   11.1780   18.9710   C 0  0  0  0  0  0  0  0  0  0  0  0
   23.7040   10.5790   20.2150   C 0  0  0  0  0  0  0  0  0  0  0  0
   22.4580   10.1240   20.9980   C 0  0  0  0  0  0  0  0  0  0  0  0
   21.5730    9.2100   20.0970   C 0  0  0  0  0  0  0  0  0  0  0  0
   21.6120   11.3560   21.4480   C 0  0  0  0  0  0  0  0  0  0  0  0
   22.2610   12.0320   22.6490   C 0  0  0  0  0  0  0  0  0  0  0  0
   22.3120   13.2530   22.7210   O 0  0  0  0  0  0  0  0  0  0  0  0
   22.8590   11.2290   23.5940   N 0  0  0  0  0  0  0  0  0  0  0  0
   23.4300   11.8660   24.7870   C 0  0  0  0  0  0  0  0  0  0  0  0
   22.8950    9.8030   23.3920   C 0  0  0  0  0  0  0  0  0  0  0  0
   23.0920    8.9910   24.4330   N 0  0  0  0  0  0  0  0  0  0  0  0
   22.7190    9.2600   22.1880   N 0  0  0  0  0  0  0  0  0  0  0  0
   25.0100   10.4020   20.6920   C 0  0  0  0  0  0  0  0  0  0  0  0
  1  2  1  0  0  0  0
  2  3  1  0  0  0  0
  3  4  1  0  0  0  0
  3  8  2  0  0  0  0
  4  5  2  0  0  0  0
  5  6  1  0  0  0  0
  6  7  2  0  0  0  0
  7  8  1  0  0  0  0
  7  9  1  0  0  0  0
  9 10  1  0  0  0  0
  9 24  2  0  0  0  0
 10 11  2  0  0  0  0
 11 12  1  0  0  0  0
 12 13  2  0  0  0  0
 13 24  1  0  0  0  0
 13 14  1  0  0  0  0
 14 15  1  0  0  0  0
 14 16  1  0  0  0  0
 14 23  1  0  0  0  0
 16 17  1  0  0  0  0
 17 18  2  0  0  0  0
 17 19  1  0  0  0  0
 19 20  1  0  0  0  0
 19 21  1  0  0  0  0
 21 23  2  0  0  0  0
 21 22  1  0  0  0  0
A    1
C1
A    2
O2
A    3
C3
A    4
C4
A    5
C5
A    6
C6
A    7
C7
A    8
C8
A    9
C9
A   10
C10
A   11
C11
A   12
C12
A   13
C13
A   14
C14
A   15
C15
A   16
C18
A   17
C19
A   18
O20
A   19
N21
A   20
C22
A   21
C23
A   22
N24
A   23
N25
A   24
C26
M  END
>  <InstanceId>
4FS4_H24_A_501

>  <ChemCompId>
H24

>  <PdbId>
4FS4

>  <ChainId>
A

>  <ResidueNumber>
501

>  <InsertionCode>


>  <Model>
1

>  <AltIds>


>  <MissingHeavyAtoms>
0

>  <ObservedFormula>
C19 N3 O2

>  <Name>
(6S)-2-amino-6-(3'-methoxybiphenyl-3-yl)-3,6-dimethyl-5,6-dihydropyrimidin-4(3H)-one

>  <SystematicName>
(6S)-2-amino-6-[3-(3-methoxyphenyl)phenyl]-3,6-dimethyl-5H-pyrimidin-4-one

>  <Synonyms>


>  <Type>
non-polymer

>  <Formula>
C19 H21 N3 O2

>  <MolecularWeight>
323.389

>  <ModifiedDate>
2011-06-04

>  <Parent>


>  <OneLetterCode>


>  <SubcomponentList>


>  <AmbiguousFlag>


>  <InChI>
InChI=1S/C19H21N3O2/c1-19(12-17(23)22(2)18(20)21-19)15-8-4-6-13(10-15)14-7-5-9-16(11-14)24-3/h4-11H,12H2,1-3H3,(H2,20,21)/t19-/m0/s1

>  <InChIKey>
LQOCXPOKEPYGTJ-IBGZPJMESA-N

>  <SMILES>
C[C@]1(CC(=O)N(C(=N1)N)C)c2cccc(c2)c3cccc(c3)OC

$$$$
