5ETB_5RO_A_801


 14 15  0  0  0  0  0  0  0  0999 V2000
    5.7753  -12.2168    2.7796 C   0  0  0  0  0  0  0  0  0  0  0  0
    7.1413  -12.2054    3.0605 C   0  0  0  0  0  0  0  0  0  0  0  0
    8.0481  -12.5631    2.0724 C   0  0  0  0  0  0  0  0  0  0  0  0
    9.4015  -12.5450    2.3794 C   0  0  0  0  0  0  0  0  0  0  0  0
    9.7952  -12.1636    3.6569 C   0  0  0  0  0  0  0  0  0  0  0  0
    8.8827  -11.8283    4.5732 C   0  0  0  0  0  0  0  0  0  0  0  0
    7.5729  -11.8487    4.2711 C   0  0  0  0  0  0  0  0  0  0  0  0
    6.8933  -11.4677    5.3517 N   0  0  0  0  0  0  0  0  0  0  0  0
    7.7569  -11.2077    6.3274 C   0  0  0  0  0  0  0  0  0  0  0  0
    8.9805  -11.4300    5.8457 C   0  0  0  0  0  0  0  0  0  0  0  0
    5.9139  -11.3915    5.4165 H   0  0  0  0  0  0  0  0  0  0  0  0
   10.0974  -11.2649    6.5764 C   0  0  0  0  0  0  0  0  0  0  0  0
   10.9416  -10.3882    6.3575 O   0  0  0  0  0  0  0  0  0  0  0  0
   10.2739  -12.2651    7.7222 C   0  0  0  0  0  0  0  0  0  0  0  0
 13 12  2  0  0  0
 14 12  1  0  0  0
 12 10  1  0  0  0
  5  4  2  0  0  0
  5  6  1  0  0  0
 10  6  1  0  0  0
 10  9  2  0  0  0
  4  3  1  0  0  0
  6  7  2  0  0  0
  9  8  1  0  0  0
  3  2  2  0  0  0
  7  8  1  0  0  0
  7  2  1  0  0  0
  2  1  1  0  0  0
  8 11  1  0  0  0
M  END
> <minimizedAffinity>
-6.77322

$$$$
5ETB_5RO_A_801


 14 15  0  0  0  0  0  0  0  0999 V2000
    5.7906   -9.9338    6.5948 C   0  0  0  0  0  0  0  0  0  0  0  0
    5.9873  -10.6098    5.3909 C   0  0  0  0  0  0  0  0  0  0  0  0
    5.0004  -10.5751    4.4154 C   0  0  0  0  0  0  0  0  0  0  0  0
    5.2211  -11.2582    3.2275 C   0  0  0  0  0  0  0  0  0  0  0  0
    6.4200  -11.9413    3.0584 C   0  0  0  0  0  0  0  0  0  0  0  0
    7.3385  -11.9443    4.0286 C   0  0  0  0  0  0  0  0  0  0  0  0
    7.1192  -11.2822    5.1777 C   0  0  0  0  0  0  0  0  0  0  0  0
    8.1870  -11.4431    5.9579 N   0  0  0  0  0  0  0  0  0  0  0  0
    9.0737  -12.1958    5.3153 C   0  0  0  0  0  0  0  0  0  0  0  0
    8.5492  -12.5026    4.1280 C   0  0  0  0  0  0  0  0  0  0  0  0
    8.3004  -11.0669    6.8606 H   0  0  0  0  0  0  0  0  0  0  0  0
    9.1865  -13.2615    3.2190 C   0  0  0  0  0  0  0  0  0  0  0  0
    9.2665  -14.4939    3.2834 O   0  0  0  0  0  0  0  0  0  0  0  0
    9.8379  -12.4851    2.0712 C   0  0  0  0  0  0  0  0  0  0  0  0
 13 12  2  0  0  0
 14 12  1  0  0  0
 12 10  1  0  0  0
  5  4  2  0  0  0
  5  6  1  0  0  0
 10  6  1  0  0  0
 10  9  2  0  0  0
  4  3  1  0  0  0
  6  7  2  0  0  0
  9  8  1  0  0  0
  3  2  2  0  0  0
  7  8  1  0  0  0
  7  2  1  0  0  0
  2  1  1  0  0  0
  8 11  1  0  0  0
M  END
> <minimizedAffinity>
-6.48422

$$$$
5ETB_5RO_A_801


 14 15  0  0  0  0  0  0  0  0999 V2000
   10.4175  -11.1715    6.5290 C   0  0  0  0  0  0  0  0  0  0  0  0
    9.1363  -11.2510    5.9838 C   0  0  0  0  0  0  0  0  0  0  0  0
    8.0615  -10.7098    6.6755 C   0  0  0  0  0  0  0  0  0  0  0  0
    6.7970  -10.8044    6.1110 C   0  0  0  0  0  0  0  0  0  0  0  0
    6.6578  -11.4281    4.8765 C   0  0  0  0  0  0  0  0  0  0  0  0
    7.7245  -11.9335    4.2507 C   0  0  0  0  0  0  0  0  0  0  0  0
    8.9468  -11.8403    4.8024 C   0  0  0  0  0  0  0  0  0  0  0  0
    9.8190  -12.4128    3.9741 N   0  0  0  0  0  0  0  0  0  0  0  0
    9.1626  -12.8634    2.9103 C   0  0  0  0  0  0  0  0  0  0  0  0
    7.8738  -12.5668    3.0828 C   0  0  0  0  0  0  0  0  0  0  0  0
   10.7889  -12.4894    4.1250 H   0  0  0  0  0  0  0  0  0  0  0  0
    6.9219  -12.8851    2.1877 C   0  0  0  0  0  0  0  0  0  0  0  0
    5.9468  -12.1684    1.9334 O   0  0  0  0  0  0  0  0  0  0  0  0
    7.1158  -14.2343    1.4901 C   0  0  0  0  0  0  0  0  0  0  0  0
 13 12  2  0  0  0
 14 12  1  0  0  0
 12 10  1  0  0  0
  5  4  2  0  0  0
  5  6  1  0  0  0
 10  6  1  0  0  0
 10  9  2  0  0  0
  4  3  1  0  0  0
  6  7  2  0  0  0
  9  8  1  0  0  0
  3  2  2  0  0  0
  7  8  1  0  0  0
  7  2  1  0  0  0
  2  1  1  0  0  0
  8 11  1  0  0  0
M  END
> <minimizedAffinity>
-6.43871

$$$$
5ETB_5RO_A_801


 14 15  0  0  0  0  0  0  0  0999 V2000
    5.8775  -12.2116    2.4692 C   0  0  0  0  0  0  0  0  0  0  0  0
    7.1424  -12.1371    3.0517 C   0  0  0  0  0  0  0  0  0  0  0  0
    8.2610  -12.4936    2.3111 C   0  0  0  0  0  0  0  0  0  0  0  0
    9.5076  -12.4121    2.9159 C   0  0  0  0  0  0  0  0  0  0  0  0
    9.5879  -11.9711    4.2318 C   0  0  0  0  0  0  0  0  0  0  0  0
    8.4808  -11.6398    4.9021 C   0  0  0  0  0  0  0  0  0  0  0  0
    7.2757  -11.7218    4.3121 C   0  0  0  0  0  0  0  0  0  0  0  0
    6.3565  -11.3299    5.1931 N   0  0  0  0  0  0  0  0  0  0  0  0
    6.9666  -11.0025    6.3272 C   0  0  0  0  0  0  0  0  0  0  0  0
    8.2740  -11.1937    6.1453 C   0  0  0  0  0  0  0  0  0  0  0  0
    5.3863  -11.2896    5.0309 H   0  0  0  0  0  0  0  0  0  0  0  0
    9.1893  -10.9598    7.1024 C   0  0  0  0  0  0  0  0  0  0  0  0
    9.7358  -11.8485    7.7662 O   0  0  0  0  0  0  0  0  0  0  0  0
    9.5153   -9.4823    7.3378 C   0  0  0  0  0  0  0  0  0  0  0  0
 13 12  2  0  0  0
 14 12  1  0  0  0
 12 10  1  0  0  0
  5  4  2  0  0  0
  5  6  1  0  0  0
 10  6  1  0  0  0
 10  9  2  0  0  0
  4  3  1  0  0  0
  6  7  2  0  0  0
  9  8  1  0  0  0
  3  2  2  0  0  0
  7  8  1  0  0  0
  7  2  1  0  0  0
  2  1  1  0  0  0
  8 11  1  0  0  0
M  END
> <minimizedAffinity>
-6.41976

$$$$
5ETB_5RO_A_801


 14 15  0  0  0  0  0  0  0  0999 V2000
    4.2313   -9.6527    4.0325 C   0  0  0  0  0  0  0  0  0  0  0  0
    5.3079  -10.5349    3.9446 C   0  0  0  0  0  0  0  0  0  0  0  0
    5.4651  -11.3144    2.8070 C   0  0  0  0  0  0  0  0  0  0  0  0
    6.5441  -12.1854    2.7465 C   0  0  0  0  0  0  0  0  0  0  0  0
    7.4260  -12.2375    3.8198 C   0  0  0  0  0  0  0  0  0  0  0  0
    7.2304  -11.4662    4.8930 C   0  0  0  0  0  0  0  0  0  0  0  0
    6.1831  -10.6252    4.9470 C   0  0  0  0  0  0  0  0  0  0  0  0
    6.2311   -9.9793    6.1112 N   0  0  0  0  0  0  0  0  0  0  0  0
    7.2934  -10.4018    6.7884 C   0  0  0  0  0  0  0  0  0  0  0  0
    7.9069  -11.3166    6.0363 C   0  0  0  0  0  0  0  0  0  0  0  0
    5.5866   -9.3016    6.4187 H   0  0  0  0  0  0  0  0  0  0  0  0
    9.0249  -11.9552    6.4248 C   0  0  0  0  0  0  0  0  0  0  0  0
    9.0423  -13.1128    6.8594 O   0  0  0  0  0  0  0  0  0  0  0  0
   10.3124  -11.1351    6.3056 C   0  0  0  0  0  0  0  0  0  0  0  0
 13 12  2  0  0  0
 14 12  1  0  0  0
 12 10  1  0  0  0
  5  4  2  0  0  0
  5  6  1  0  0  0
 10  6  1  0  0  0
 10  9  2  0  0  0
  4  3  1  0  0  0
  6  7  2  0  0  0
  9  8  1  0  0  0
  3  2  2  0  0  0
  7  8  1  0  0  0
  7  2  1  0  0  0
  2  1  1  0  0  0
  8 11  1  0  0  0
M  END
> <minimizedAffinity>
-6.26114

$$$$
5ETB_5RO_A_801


 14 15  0  0  0  0  0  0  0  0999 V2000
    6.8576  -14.1113    1.1415 C   0  0  0  0  0  0  0  0  0  0  0  0
    7.3674  -13.3546    2.1962 C   0  0  0  0  0  0  0  0  0  0  0  0
    8.7170  -13.4370    2.5102 C   0  0  0  0  0  0  0  0  0  0  0  0
    9.1977  -12.6748    3.5659 C   0  0  0  0  0  0  0  0  0  0  0  0
    8.3142  -11.8562    4.2600 C   0  0  0  0  0  0  0  0  0  0  0  0
    7.0233  -11.8126    3.9186 C   0  0  0  0  0  0  0  0  0  0  0  0
    6.5626  -12.5538    2.8961 C   0  0  0  0  0  0  0  0  0  0  0  0
    5.2578  -12.3169    2.7686 N   0  0  0  0  0  0  0  0  0  0  0  0
    4.8928  -11.4375    3.6954 C   0  0  0  0  0  0  0  0  0  0  0  0
    5.9812  -11.1284    4.4015 C   0  0  0  0  0  0  0  0  0  0  0  0
    4.6630  -12.7255    2.0990 H   0  0  0  0  0  0  0  0  0  0  0  0
    5.9668  -10.2605    5.4287 C   0  0  0  0  0  0  0  0  0  0  0  0
    6.3647  -10.5328    6.5674 O   0  0  0  0  0  0  0  0  0  0  0  0
    5.3995   -8.8772    5.0983 C   0  0  0  0  0  0  0  0  0  0  0  0
 13 12  2  0  0  0
 14 12  1  0  0  0
 12 10  1  0  0  0
  5  4  2  0  0  0
  5  6  1  0  0  0
 10  6  1  0  0  0
 10  9  2  0  0  0
  4  3  1  0  0  0
  6  7  2  0  0  0
  9  8  1  0  0  0
  3  2  2  0  0  0
  7  8  1  0  0  0
  7  2  1  0  0  0
  2  1  1  0  0  0
  8 11  1  0  0  0
M  END
> <minimizedAffinity>
-6.22834

$$$$
5ETB_5RO_A_801


 14 15  0  0  0  0  0  0  0  0999 V2000
    4.6772  -11.0066    3.6592 C   0  0  0  0  0  0  0  0  0  0  0  0
    5.9910  -11.4701    3.7233 C   0  0  0  0  0  0  0  0  0  0  0  0
    6.5159  -12.1937    2.6614 C   0  0  0  0  0  0  0  0  0  0  0  0
    7.8253  -12.6448    2.7521 C   0  0  0  0  0  0  0  0  0  0  0  0
    8.5597  -12.3493    3.8948 C   0  0  0  0  0  0  0  0  0  0  0  0
    8.0083  -11.6492    4.8901 C   0  0  0  0  0  0  0  0  0  0  0  0
    6.7392  -11.2156    4.7977 C   0  0  0  0  0  0  0  0  0  0  0  0
    6.4487  -10.5463    5.9124 N   0  0  0  0  0  0  0  0  0  0  0  0
    7.5168  -10.5526    6.7027 C   0  0  0  0  0  0  0  0  0  0  0  0
    8.4753  -11.2316    6.0711 C   0  0  0  0  0  0  0  0  0  0  0  0
    5.5860  -10.1182    6.1165 H   0  0  0  0  0  0  0  0  0  0  0  0
    9.6976  -11.4334    6.5946 C   0  0  0  0  0  0  0  0  0  0  0  0
   10.7027  -10.7919    6.2670 O   0  0  0  0  0  0  0  0  0  0  0  0
    9.7761  -12.5469    7.6426 C   0  0  0  0  0  0  0  0  0  0  0  0
 13 12  2  0  0  0
 14 12  1  0  0  0
 12 10  1  0  0  0
  5  4  2  0  0  0
  5  6  1  0  0  0
 10  6  1  0  0  0
 10  9  2  0  0  0
  4  3  1  0  0  0
  6  7  2  0  0  0
  9  8  1  0  0  0
  3  2  2  0  0  0
  7  8  1  0  0  0
  7  2  1  0  0  0
  2  1  1  0  0  0
  8 11  1  0  0  0
M  END
> <minimizedAffinity>
-6.16646

$$$$
5ETB_5RO_A_801


 14 15  0  0  0  0  0  0  0  0999 V2000
    4.5202  -10.2446    4.2468 C   0  0  0  0  0  0  0  0  0  0  0  0
    5.7711  -10.8042    4.5061 C   0  0  0  0  0  0  0  0  0  0  0  0
    6.4176  -10.5158    5.7001 C   0  0  0  0  0  0  0  0  0  0  0  0
    7.6623  -11.0845    5.9318 C   0  0  0  0  0  0  0  0  0  0  0  0
    8.2076  -11.9232    4.9665 C   0  0  0  0  0  0  0  0  0  0  0  0
    7.5449  -12.1691    3.8328 C   0  0  0  0  0  0  0  0  0  0  0  0
    6.3401  -11.6148    3.6129 C   0  0  0  0  0  0  0  0  0  0  0  0
    5.9057  -12.0283    2.4233 N   0  0  0  0  0  0  0  0  0  0  0  0
    6.8195  -12.8345    1.8936 C   0  0  0  0  0  0  0  0  0  0  0  0
    7.8271  -12.9198    2.7632 C   0  0  0  0  0  0  0  0  0  0  0  0
    5.0498  -11.7781    2.0060 H   0  0  0  0  0  0  0  0  0  0  0  0
    8.9283  -13.6586    2.5394 C   0  0  0  0  0  0  0  0  0  0  0  0
   10.0819  -13.2435    2.7003 O   0  0  0  0  0  0  0  0  0  0  0  0
    8.6615  -15.0835    2.0462 C   0  0  0  0  0  0  0  0  0  0  0  0
 13 12  2  0  0  0
 14 12  1  0  0  0
 12 10  1  0  0  0
  5  4  2  0  0  0
  5  6  1  0  0  0
 10  6  1  0  0  0
 10  9  2  0  0  0
  4  3  1  0  0  0
  6  7  2  0  0  0
  9  8  1  0  0  0
  3  2  2  0  0  0
  7  8  1  0  0  0
  7  2  1  0  0  0
  2  1  1  0  0  0
  8 11  1  0  0  0
M  END
> <minimizedAffinity>
-6.16251

$$$$
5ETB_5RO_A_801


 14 15  0  0  0  0  0  0  0  0999 V2000
    9.5260  -13.5964    2.5938 C   0  0  0  0  0  0  0  0  0  0  0  0
    8.4319  -12.8737    3.0689 C   0  0  0  0  0  0  0  0  0  0  0  0
    7.2606  -12.8340    2.3252 C   0  0  0  0  0  0  0  0  0  0  0  0
    6.1878  -12.1057    2.8202 C   0  0  0  0  0  0  0  0  0  0  0  0
    6.3248  -11.4534    4.0401 C   0  0  0  0  0  0  0  0  0  0  0  0
    7.4740  -11.5223    4.7179 C   0  0  0  0  0  0  0  0  0  0  0  0
    8.5105  -12.2280    4.2333 C   0  0  0  0  0  0  0  0  0  0  0  0
    9.5161  -12.1354    5.1023 N   0  0  0  0  0  0  0  0  0  0  0  0
    9.1260  -11.3827    6.1254 C   0  0  0  0  0  0  0  0  0  0  0  0
    7.8688  -11.0070    5.8866 C   0  0  0  0  0  0  0  0  0  0  0  0
   10.4011  -12.5550    5.0029 H   0  0  0  0  0  0  0  0  0  0  0  0
    7.1640  -10.2284    6.7266 C   0  0  0  0  0  0  0  0  0  0  0  0
    5.9395  -10.3094    6.8787 O   0  0  0  0  0  0  0  0  0  0  0  0
    7.9906   -9.1956    7.4976 C   0  0  0  0  0  0  0  0  0  0  0  0
 13 12  2  0  0  0
 14 12  1  0  0  0
 12 10  1  0  0  0
  5  4  2  0  0  0
  5  6  1  0  0  0
 10  6  1  0  0  0
 10  9  2  0  0  0
  4  3  1  0  0  0
  6  7  2  0  0  0
  9  8  1  0  0  0
  3  2  2  0  0  0
  7  8  1  0  0  0
  7  2  1  0  0  0
  2  1  1  0  0  0
  8 11  1  0  0  0
M  END
> <minimizedAffinity>
-6.06051

$$$$
5ETB_5RO_A_801


 14 15  0  0  0  0  0  0  0  0999 V2000
    5.6914  -12.2214    2.2843 C   0  0  0  0  0  0  0  0  0  0  0  0
    6.0595  -11.6958    3.5226 C   0  0  0  0  0  0  0  0  0  0  0  0
    5.1855  -10.8559    4.1987 C   0  0  0  0  0  0  0  0  0  0  0  0
    5.5777  -10.3452    5.4283 C   0  0  0  0  0  0  0  0  0  0  0  0
    6.8223  -10.6993    5.9363 C   0  0  0  0  0  0  0  0  0  0  0  0
    7.6276  -11.5116    5.2459 C   0  0  0  0  0  0  0  0  0  0  0  0
    7.2434  -12.0025    4.0549 C   0  0  0  0  0  0  0  0  0  0  0  0
    8.2213  -12.7806    3.5934 N   0  0  0  0  0  0  0  0  0  0  0  0
    9.2134  -12.7860    4.4774 C   0  0  0  0  0  0  0  0  0  0  0  0
    8.8454  -12.0046    5.4936 C   0  0  0  0  0  0  0  0  0  0  0  0
    8.2107  -13.2702    2.7394 H   0  0  0  0  0  0  0  0  0  0  0  0
    9.6233  -11.7843    6.5682 C   0  0  0  0  0  0  0  0  0  0  0  0
    9.5402  -12.4245    7.6229 O   0  0  0  0  0  0  0  0  0  0  0  0
   10.6404  -10.6508    6.4084 C   0  0  0  0  0  0  0  0  0  0  0  0
 13 12  2  0  0  0
 14 12  1  0  0  0
 12 10  1  0  0  0
  5  4  2  0  0  0
  5  6  1  0  0  0
 10  6  1  0  0  0
 10  9  2  0  0  0
  4  3  1  0  0  0
  6  7  2  0  0  0
  9  8  1  0  0  0
  3  2  2  0  0  0
  7  8  1  0  0  0
  7  2  1  0  0  0
  2  1  1  0  0  0
  8 11  1  0  0  0
M  END
> <minimizedAffinity>
-5.94885

$$$$
