4QB3_30M_A_201
  RCSB PDB12061714233D
Coordinates from PDB:4QB3:A:201 Model:1 without hydrogens
 22 24  0  0  0  0            999 V2000
   24.5750   51.2090   -4.4730   C 0  0  0  0  0  0  0  0  0  0  0  0
   23.2250   51.7780   -4.6380   C 0  0  0  0  0  0  0  0  0  0  0  0
   22.8960   51.8200   -6.1140   C 0  0  0  0  0  0  0  0  0  0  0  0
   24.3100   49.8260   -6.4940   C 0  0  0  0  0  0  0  0  0  0  0  0
   22.3350   47.7410    0.2750   O 0  0  0  0  0  0  0  0  0  0  0  0
   23.4440   48.0850    0.7810   C 0  0  0  0  0  0  0  0  0  0  0  0
   24.3390   47.0790    1.4210   C 0  0  0  0  0  0  0  0  0  0  0  0
   23.8270   49.3460    0.7610   N 0  0  0  0  0  0  0  0  0  0  0  0
   23.0100   50.4280    0.2500   C 0  0  0  0  0  0  0  0  0  0  0  0
   23.4960   50.9320   -1.0950   C 0  0  0  0  0  0  0  0  0  0  0  0
   24.8810   51.5060   -1.0490   C 0  0  0  0  0  0  0  0  0  0  0  0
   25.3110   52.2540   -2.2970   C 0  0  0  0  0  0  0  0  0  0  0  0
   25.4310   51.3830   -3.4520   N 0  0  0  0  0  0  0  0  0  0  0  0
   25.0970   50.3100   -5.3480   C 0  0  0  0  0  0  0  0  0  0  0  0
   24.6010   48.8050   -7.1400   O 0  0  0  0  0  0  0  0  0  0  0  0
   23.1880   50.5110   -6.7400   N 0  0  0  0  0  0  0  0  0  0  0  0
   26.3600   49.8950   -4.8590   C 0  0  0  0  0  0  0  0  0  0  0  0
   26.5550   50.5780   -3.6520   C 0  0  0  0  0  0  0  0  0  0  0  0
   27.6840   50.4340   -2.8640   C 0  0  0  0  0  0  0  0  0  0  0  0
   28.6500   49.5400   -3.2710   C 0  0  0  0  0  0  0  0  0  0  0  0
   28.5060   48.8200   -4.4800   C 0  0  0  0  0  0  0  0  0  0  0  0
   27.3780   48.9840   -5.2860   C 0  0  0  0  0  0  0  0  0  0  0  0
 15  4  2  0  0  0  0
 16  4  1  0  0  0  0
 16  3  1  0  0  0  0
  4 14  1  0  0  0  0
  3  2  1  0  0  0  0
 14 17  1  0  0  0  0
 14  1  2  0  0  0  0
 22 17  2  0  0  0  0
 22 21  1  0  0  0  0
 17 18  1  0  0  0  0
  2  1  1  0  0  0  0
 21 20  2  0  0  0  0
  1 13  1  0  0  0  0
 18 13  1  0  0  0  0
 18 19  2  0  0  0  0
 13 12  1  0  0  0  0
 20 19  1  0  0  0  0
 12 11  1  0  0  0  0
 10 11  1  0  0  0  0
 10  9  1  0  0  0  0
  9  8  1  0  0  0  0
  5  6  2  0  0  0  0
  8  6  1  0  0  0  0
  6  7  1  0  0  0  0
A    1
C2
A    2
C3
A    3
C4
A    4
C6
A    5
O20
A    6
C19
A    7
C22
A    8
N18
A    9
C17
A   10
C16
A   11
C15
A   12
C14
A   13
N1
A   14
C7
A   15
O21
A   16
N5
A   17
C8
A   18
C9
A   19
C10
A   20
C11
A   21
C12
A   22
C13
M  END
>  <InstanceId>
4QB3_30M_A_201

>  <ChemCompId>
30M

>  <PdbId>
4QB3

>  <ChainId>
A

>  <ResidueNumber>
201

>  <InsertionCode>


>  <Model>
1

>  <AltIds>


>  <MissingHeavyAtoms>
0

>  <ObservedFormula>
C17 N3 O2

>  <Name>
N-[4-(1-oxo-1,2,3,4-tetrahydro-5H-pyrido[4,3-b]indol-5-yl)butyl]acetamide

>  <SystematicName>
N-[4-(1-oxidanylidene-3,4-dihydro-2H-pyrido[4,3-b]indol-5-yl)butyl]ethanamide

>  <Synonyms>


>  <Type>
NON-POLYMER

>  <Formula>
C17 H21 N3 O2

>  <MolecularWeight>
299.368

>  <ModifiedDate>
2015-04-17

>  <Parent>


>  <OneLetterCode>


>  <SubcomponentList>


>  <AmbiguousFlag>
N

>  <InChI>
InChI=1S/C17H21N3O2/c1-12(21)18-9-4-5-11-20-14-7-3-2-6-13(14)16-15(20)8-10-19-17(16)22/h2-3,6-7H,4-5,8-11H2,1H3,(H,18,21)(H,19,22)

>  <InChIKey>
RYVLOOXFFIFQEN-UHFFFAOYSA-N

>  <SMILES>
CC(=O)NCCCCn1c2ccccc2c3c1CCNC3=O

$$$$
