4QB3_30M_A_201


 24 26  0  0  0  0  0  0  0  0999 V2000
   24.2810   51.3397   -3.2511 C   0  0  0  0  0  0  0  0  0  0  0  0
   23.0058   51.9700   -2.8637 C   0  0  0  0  0  0  0  0  0  0  0  0
   22.3394   52.5153   -4.1075 C   0  0  0  0  0  0  0  0  0  0  0  0
   23.3810   50.7250   -5.4601 C   0  0  0  0  0  0  0  0  0  0  0  0
   25.3711   51.1354   -2.4927 N   0  0  0  0  0  0  0  0  0  0  0  0
   24.4704   50.7725   -4.4712 C   0  0  0  0  0  0  0  0  0  0  0  0
   23.3887   49.9726   -6.4492 O   0  0  0  0  0  0  0  0  0  0  0  0
   22.3196   51.4851   -5.1700 N   0  0  0  0  0  0  0  0  0  0  0  0
   25.7573   50.1807   -4.4918 C   0  0  0  0  0  0  0  0  0  0  0  0
   26.3137   50.4122   -3.2276 C   0  0  0  0  0  0  0  0  0  0  0  0
   27.5743   49.9789   -2.8544 C   0  0  0  0  0  0  0  0  0  0  0  0
   28.3046   49.2462   -3.7642 C   0  0  0  0  0  0  0  0  0  0  0  0
   27.7927   48.9790   -5.0554 C   0  0  0  0  0  0  0  0  0  0  0  0
   26.5309   49.4372   -5.4389 C   0  0  0  0  0  0  0  0  0  0  0  0
   21.4905   51.3539   -5.6845 H   0  0  0  0  0  0  0  0  0  0  0  0
   25.6331   51.5705   -1.1329 C   0  0  0  0  0  0  0  0  0  0  0  0
   25.3690   50.4781   -0.1136 C   0  0  0  0  0  0  0  0  0  0  0  0
   23.9409   50.3481    0.3262 C   0  0  0  0  0  0  0  0  0  0  0  0
   23.2806   49.0682   -0.1483 C   0  0  0  0  0  0  0  0  0  0  0  0
   21.0253   47.8371    0.8881 O   0  0  0  0  0  0  0  0  0  0  0  0
   22.1549   47.5153    1.3620 C   0  0  0  0  0  0  0  0  0  0  0  0
   22.2652   46.5397    2.4839 C   0  0  0  0  0  0  0  0  0  0  0  0
   23.2602   48.0455    0.8778 N   0  0  0  0  0  0  0  0  0  0  0  0
   24.1215   47.7284    1.2340 H   0  0  0  0  0  0  0  0  0  0  0  0
  7  4  2  0  0  0
  8  4  1  0  0  0
  8  3  1  0  0  0
  4  6  1  0  0  0
  3  2  1  0  0  0
  6  9  1  0  0  0
  6  1  2  0  0  0
 14  9  2  0  0  0
 14 13  1  0  0  0
  9 10  1  0  0  0
  2  1  1  0  0  0
 13 12  2  0  0  0
  1  5  1  0  0  0
 10  5  1  0  0  0
 10 11  2  0  0  0
  5 16  1  0  0  0
 12 11  1  0  0  0
 16 17  1  0  0  0
 18 17  1  0  0  0
 18 19  1  0  0  0
 19 23  1  0  0  0
 20 21  2  0  0  0
 23 21  1  0  0  0
 21 22  1  0  0  0
 23 24  1  0  0  0
  8 15  1  0  0  0
M  END
> <minimizedAffinity>
-7.64003

$$$$
4QB3_30M_A_201


 24 26  0  0  0  0  0  0  0  0999 V2000
   25.4456   50.3773   -1.6007 C   0  0  0  0  0  0  0  0  0  0  0  0
   24.2287   50.1065   -2.3876 C   0  0  0  0  0  0  0  0  0  0  0  0
   24.2775   50.9350   -3.6525 C   0  0  0  0  0  0  0  0  0  0  0  0
   26.7484   50.8156   -3.6448 C   0  0  0  0  0  0  0  0  0  0  0  0
   25.6272   50.2379   -0.2767 N   0  0  0  0  0  0  0  0  0  0  0  0
   26.6232   50.7287   -2.1806 C   0  0  0  0  0  0  0  0  0  0  0  0
   27.8408   50.8304   -4.2372 O   0  0  0  0  0  0  0  0  0  0  0  0
   25.5917   50.7789   -4.3151 N   0  0  0  0  0  0  0  0  0  0  0  0
   27.6071   50.8256   -1.1662 C   0  0  0  0  0  0  0  0  0  0  0  0
   26.9627   50.5041    0.0349 C   0  0  0  0  0  0  0  0  0  0  0  0
   27.5989   50.4838    1.2641 C   0  0  0  0  0  0  0  0  0  0  0  0
   28.9488   50.7567    1.3009 C   0  0  0  0  0  0  0  0  0  0  0  0
   29.6529   51.0854    0.1190 C   0  0  0  0  0  0  0  0  0  0  0  0
   29.0050   51.1290   -1.1168 C   0  0  0  0  0  0  0  0  0  0  0  0
   25.6154   50.6424   -5.2898 H   0  0  0  0  0  0  0  0  0  0  0  0
   24.6581   49.8925    0.7473 C   0  0  0  0  0  0  0  0  0  0  0  0
   24.4491   48.3945    0.8660 C   0  0  0  0  0  0  0  0  0  0  0  0
   23.0261   47.9372    0.7399 C   0  0  0  0  0  0  0  0  0  0  0  0
   22.6386   46.8906    1.7663 C   0  0  0  0  0  0  0  0  0  0  0  0
   22.5496   46.8249    4.5347 O   0  0  0  0  0  0  0  0  0  0  0  0
   23.6512   46.5689    3.9643 C   0  0  0  0  0  0  0  0  0  0  0  0
   24.8803   46.2920    4.7613 C   0  0  0  0  0  0  0  0  0  0  0  0
   23.7364   46.5516    2.6492 N   0  0  0  0  0  0  0  0  0  0  0  0
   24.5954   46.2936    2.2433 H   0  0  0  0  0  0  0  0  0  0  0  0
  7  4  2  0  0  0
  8  4  1  0  0  0
  8  3  1  0  0  0
  4  6  1  0  0  0
  3  2  1  0  0  0
  6  9  1  0  0  0
  6  1  2  0  0  0
 14  9  2  0  0  0
 14 13  1  0  0  0
  9 10  1  0  0  0
  2  1  1  0  0  0
 13 12  2  0  0  0
  1  5  1  0  0  0
 10  5  1  0  0  0
 10 11  2  0  0  0
  5 16  1  0  0  0
 12 11  1  0  0  0
 16 17  1  0  0  0
 18 17  1  0  0  0
 18 19  1  0  0  0
 19 23  1  0  0  0
 20 21  2  0  0  0
 23 21  1  0  0  0
 21 22  1  0  0  0
 23 24  1  0  0  0
  8 15  1  0  0  0
M  END
> <minimizedAffinity>
-7.50288

$$$$
4QB3_30M_A_201


 24 26  0  0  0  0  0  0  0  0999 V2000
   26.0871   50.5781    0.0585 C   0  0  0  0  0  0  0  0  0  0  0  0
   25.7315   50.8225    1.4682 C   0  0  0  0  0  0  0  0  0  0  0  0
   26.8001   50.2125    2.3483 C   0  0  0  0  0  0  0  0  0  0  0  0
   28.4919   50.6198    0.5900 C   0  0  0  0  0  0  0  0  0  0  0  0
   25.2712   50.5302   -1.0080 N   0  0  0  0  0  0  0  0  0  0  0  0
   27.3757   50.4626   -0.3567 C   0  0  0  0  0  0  0  0  0  0  0  0
   29.6648   50.8263    0.2349 O   0  0  0  0  0  0  0  0  0  0  0  0
   28.1430   50.6237    1.8811 N   0  0  0  0  0  0  0  0  0  0  0  0
   27.3783   50.3258   -1.7666 C   0  0  0  0  0  0  0  0  0  0  0  0
   26.0371   50.3782   -2.1664 C   0  0  0  0  0  0  0  0  0  0  0  0
   25.6263   50.2819   -3.4848 C   0  0  0  0  0  0  0  0  0  0  0  0
   26.5934   50.1678   -4.4594 C   0  0  0  0  0  0  0  0  0  0  0  0
   27.9643   50.1124   -4.1152 C   0  0  0  0  0  0  0  0  0  0  0  0
   28.3760   50.1854   -2.7832 C   0  0  0  0  0  0  0  0  0  0  0  0
   28.8069   50.9120    2.5484 H   0  0  0  0  0  0  0  0  0  0  0  0
   23.8218   50.5953   -1.0537 C   0  0  0  0  0  0  0  0  0  0  0  0
   23.1696   49.2880   -0.6446 C   0  0  0  0  0  0  0  0  0  0  0  0
   22.4995   49.3021    0.6973 C   0  0  0  0  0  0  0  0  0  0  0  0
   21.9900   47.9405    1.1283 C   0  0  0  0  0  0  0  0  0  0  0  0
   21.2717   46.1592    3.1251 O   0  0  0  0  0  0  0  0  0  0  0  0
   22.4948   46.4668    3.0080 C   0  0  0  0  0  0  0  0  0  0  0  0
   23.5143   45.9269    3.9523 C   0  0  0  0  0  0  0  0  0  0  0  0
   22.8920   47.2815    2.0510 N   0  0  0  0  0  0  0  0  0  0  0  0
   23.8571   47.4520    1.9579 H   0  0  0  0  0  0  0  0  0  0  0  0
  7  4  2  0  0  0
  8  4  1  0  0  0
  8  3  1  0  0  0
  4  6  1  0  0  0
  3  2  1  0  0  0
  6  9  1  0  0  0
  6  1  2  0  0  0
 14  9  2  0  0  0
 14 13  1  0  0  0
  9 10  1  0  0  0
  2  1  1  0  0  0
 13 12  2  0  0  0
  1  5  1  0  0  0
 10  5  1  0  0  0
 10 11  2  0  0  0
  5 16  1  0  0  0
 12 11  1  0  0  0
 16 17  1  0  0  0
 18 17  1  0  0  0
 18 19  1  0  0  0
 19 23  1  0  0  0
 20 21  2  0  0  0
 23 21  1  0  0  0
 21 22  1  0  0  0
 23 24  1  0  0  0
  8 15  1  0  0  0
M  END
> <minimizedAffinity>
-7.45453

$$$$
4QB3_30M_A_201


 24 26  0  0  0  0  0  0  0  0999 V2000
   24.1988   51.1544   -4.7488 C   0  0  0  0  0  0  0  0  0  0  0  0
   22.8939   51.6036   -5.2675 C   0  0  0  0  0  0  0  0  0  0  0  0
   22.9793   51.6950   -6.7751 C   0  0  0  0  0  0  0  0  0  0  0  0
   24.6434   49.8647   -6.7998 C   0  0  0  0  0  0  0  0  0  0  0  0
   24.7193   51.3514   -3.5258 N   0  0  0  0  0  0  0  0  0  0  0  0
   25.0314   50.3567   -5.4677 C   0  0  0  0  0  0  0  0  0  0  0  0
   25.2051   48.9118   -7.3662 O   0  0  0  0  0  0  0  0  0  0  0  0
   23.5666   50.4548   -7.3297 N   0  0  0  0  0  0  0  0  0  0  0  0
   26.1482   50.0349   -4.6580 C   0  0  0  0  0  0  0  0  0  0  0  0
   25.9327   50.6664   -3.4267 C   0  0  0  0  0  0  0  0  0  0  0  0
   26.8113   50.5854   -2.3600 C   0  0  0  0  0  0  0  0  0  0  0  0
   27.9397   49.8085   -2.5060 C   0  0  0  0  0  0  0  0  0  0  0  0
   28.2083   49.1450   -3.7260 C   0  0  0  0  0  0  0  0  0  0  0  0
   27.3335   49.2470   -4.8092 C   0  0  0  0  0  0  0  0  0  0  0  0
   23.1471   50.0473   -8.1217 H   0  0  0  0  0  0  0  0  0  0  0  0
   24.1973   52.1434   -2.4270 C   0  0  0  0  0  0  0  0  0  0  0  0
   22.9424   51.5412   -1.8233 C   0  0  0  0  0  0  0  0  0  0  0  0
   23.1315   50.2130   -1.1526 C   0  0  0  0  0  0  0  0  0  0  0  0
   23.2320   50.3118    0.3572 C   0  0  0  0  0  0  0  0  0  0  0  0
   25.3279   48.5649    0.8392 O   0  0  0  0  0  0  0  0  0  0  0  0
   25.5173   49.7999    1.0469 C   0  0  0  0  0  0  0  0  0  0  0  0
   26.8154   50.2957    1.5870 C   0  0  0  0  0  0  0  0  0  0  0  0
   24.5636   50.6750    0.7982 N   0  0  0  0  0  0  0  0  0  0  0  0
   24.7677   51.6305    0.9190 H   0  0  0  0  0  0  0  0  0  0  0  0
  7  4  2  0  0  0
  8  4  1  0  0  0
  8  3  1  0  0  0
  4  6  1  0  0  0
  3  2  1  0  0  0
  6  9  1  0  0  0
  6  1  2  0  0  0
 14  9  2  0  0  0
 14 13  1  0  0  0
  9 10  1  0  0  0
  2  1  1  0  0  0
 13 12  2  0  0  0
  1  5  1  0  0  0
 10  5  1  0  0  0
 10 11  2  0  0  0
  5 16  1  0  0  0
 12 11  1  0  0  0
 16 17  1  0  0  0
 18 17  1  0  0  0
 18 19  1  0  0  0
 19 23  1  0  0  0
 20 21  2  0  0  0
 23 21  1  0  0  0
 21 22  1  0  0  0
 23 24  1  0  0  0
  8 15  1  0  0  0
M  END
> <minimizedAffinity>
-6.87383

$$$$
4QB3_30M_A_201


 24 26  0  0  0  0  0  0  0  0999 V2000
   26.0727   51.1074   -2.7818 C   0  0  0  0  0  0  0  0  0  0  0  0
   26.7186   51.5707   -1.5402 C   0  0  0  0  0  0  0  0  0  0  0  0
   27.7878   50.5737   -1.1512 C   0  0  0  0  0  0  0  0  0  0  0  0
   28.1515   50.0217   -3.5351 C   0  0  0  0  0  0  0  0  0  0  0  0
   24.8417   51.3967   -3.2361 N   0  0  0  0  0  0  0  0  0  0  0  0
   26.7310   50.3657   -3.7107 C   0  0  0  0  0  0  0  0  0  0  0  0
   28.8768   49.6209   -4.4612 O   0  0  0  0  0  0  0  0  0  0  0  0
   28.6463   50.2645   -2.3165 N   0  0  0  0  0  0  0  0  0  0  0  0
   25.8663   50.1658   -4.8147 C   0  0  0  0  0  0  0  0  0  0  0  0
   24.6745   50.8319   -4.5027 C   0  0  0  0  0  0  0  0  0  0  0  0
   23.5757   50.8706   -5.3439 C   0  0  0  0  0  0  0  0  0  0  0  0
   23.6756   50.2528   -6.5712 C   0  0  0  0  0  0  0  0  0  0  0  0
   24.8558   49.5669   -6.9419 C   0  0  0  0  0  0  0  0  0  0  0  0
   25.9547   49.5081   -6.0828 C   0  0  0  0  0  0  0  0  0  0  0  0
   29.6221   50.2363   -2.1893 H   0  0  0  0  0  0  0  0  0  0  0  0
   23.7808   52.1456   -2.5875 C   0  0  0  0  0  0  0  0  0  0  0  0
   22.8103   51.2487   -1.8420 C   0  0  0  0  0  0  0  0  0  0  0  0
   23.3263   50.6841   -0.5518 C   0  0  0  0  0  0  0  0  0  0  0  0
   22.2549   50.0012    0.2759 C   0  0  0  0  0  0  0  0  0  0  0  0
   20.8200   47.7125    0.8914 O   0  0  0  0  0  0  0  0  0  0  0  0
   22.0236   47.7875    1.2787 C   0  0  0  0  0  0  0  0  0  0  0  0
   22.6366   46.6973    2.0901 C   0  0  0  0  0  0  0  0  0  0  0  0
   22.7591   48.8395    0.9798 N   0  0  0  0  0  0  0  0  0  0  0  0
   23.7057   48.8357    1.2503 H   0  0  0  0  0  0  0  0  0  0  0  0
  7  4  2  0  0  0
  8  4  1  0  0  0
  8  3  1  0  0  0
  4  6  1  0  0  0
  3  2  1  0  0  0
  6  9  1  0  0  0
  6  1  2  0  0  0
 14  9  2  0  0  0
 14 13  1  0  0  0
  9 10  1  0  0  0
  2  1  1  0  0  0
 13 12  2  0  0  0
  1  5  1  0  0  0
 10  5  1  0  0  0
 10 11  2  0  0  0
  5 16  1  0  0  0
 12 11  1  0  0  0
 16 17  1  0  0  0
 18 17  1  0  0  0
 18 19  1  0  0  0
 19 23  1  0  0  0
 20 21  2  0  0  0
 23 21  1  0  0  0
 21 22  1  0  0  0
 23 24  1  0  0  0
  8 15  1  0  0  0
M  END
> <minimizedAffinity>
-6.63639

$$$$
4QB3_30M_A_201


 24 26  0  0  0  0  0  0  0  0999 V2000
   26.6387   50.2649   -2.1805 C   0  0  0  0  0  0  0  0  0  0  0  0
   27.8844   50.2496   -2.9688 C   0  0  0  0  0  0  0  0  0  0  0  0
   27.6036   49.5934   -4.3026 C   0  0  0  0  0  0  0  0  0  0  0  0
   25.2708   50.4130   -4.2237 C   0  0  0  0  0  0  0  0  0  0  0  0
   26.5010   50.3244   -0.8453 N   0  0  0  0  0  0  0  0  0  0  0  0
   25.4115   50.3215   -2.7612 C   0  0  0  0  0  0  0  0  0  0  0  0
   24.2219   50.7674   -4.7881 O   0  0  0  0  0  0  0  0  0  0  0  0
   26.3913   50.1807   -4.9158 N   0  0  0  0  0  0  0  0  0  0  0  0
   24.4382   50.4144   -1.7362 C   0  0  0  0  0  0  0  0  0  0  0  0
   25.1444   50.4229   -0.5268 C   0  0  0  0  0  0  0  0  0  0  0  0
   24.5372   50.5078    0.7143 C   0  0  0  0  0  0  0  0  0  0  0  0
   23.1656   50.6301    0.7589 C   0  0  0  0  0  0  0  0  0  0  0  0
   22.4002   50.6300   -0.4306 C   0  0  0  0  0  0  0  0  0  0  0  0
   23.0119   50.5201   -1.6807 C   0  0  0  0  0  0  0  0  0  0  0  0
   26.4106   50.4100   -5.8731 H   0  0  0  0  0  0  0  0  0  0  0  0
   27.5254   50.2797    0.1821 C   0  0  0  0  0  0  0  0  0  0  0  0
   28.6482   51.2670   -0.0754 C   0  0  0  0  0  0  0  0  0  0  0  0
   29.9682   50.9062    0.5389 C   0  0  0  0  0  0  0  0  0  0  0  0
   30.7622   52.1105    1.0063 C   0  0  0  0  0  0  0  0  0  0  0  0
   31.8026   51.9529    3.5692 O   0  0  0  0  0  0  0  0  0  0  0  0
   30.7150   52.5799    3.4015 C   0  0  0  0  0  0  0  0  0  0  0  0
   29.9858   53.1721    4.5592 C   0  0  0  0  0  0  0  0  0  0  0  0
   30.1982   52.7142    2.1965 N   0  0  0  0  0  0  0  0  0  0  0  0
   29.3818   53.2559    2.0996 H   0  0  0  0  0  0  0  0  0  0  0  0
  7  4  2  0  0  0
  8  4  1  0  0  0
  8  3  1  0  0  0
  4  6  1  0  0  0
  3  2  1  0  0  0
  6  9  1  0  0  0
  6  1  2  0  0  0
 14  9  2  0  0  0
 14 13  1  0  0  0
  9 10  1  0  0  0
  2  1  1  0  0  0
 13 12  2  0  0  0
  1  5  1  0  0  0
 10  5  1  0  0  0
 10 11  2  0  0  0
  5 16  1  0  0  0
 12 11  1  0  0  0
 16 17  1  0  0  0
 18 17  1  0  0  0
 18 19  1  0  0  0
 19 23  1  0  0  0
 20 21  2  0  0  0
 23 21  1  0  0  0
 21 22  1  0  0  0
 23 24  1  0  0  0
  8 15  1  0  0  0
M  END
> <minimizedAffinity>
-6.57477

$$$$
4QB3_30M_A_201


 24 26  0  0  0  0  0  0  0  0999 V2000
   26.3632   50.5106   -3.5086 C   0  0  0  0  0  0  0  0  0  0  0  0
   27.7311   50.0893   -3.1552 C   0  0  0  0  0  0  0  0  0  0  0  0
   28.0497   48.8110   -3.8989 C   0  0  0  0  0  0  0  0  0  0  0  0
   26.5632   49.5077   -5.7495 C   0  0  0  0  0  0  0  0  0  0  0  0
   25.5220   51.2819   -2.7994 N   0  0  0  0  0  0  0  0  0  0  0  0
   25.8029   50.2252   -4.7131 C   0  0  0  0  0  0  0  0  0  0  0  0
   26.2313   49.4841   -6.9468 O   0  0  0  0  0  0  0  0  0  0  0  0
   27.7067   48.9543   -5.3315 N   0  0  0  0  0  0  0  0  0  0  0  0
   24.5299   50.8440   -4.7694 C   0  0  0  0  0  0  0  0  0  0  0  0
   24.3687   51.5169   -3.5518 C   0  0  0  0  0  0  0  0  0  0  0  0
   23.2416   52.2516   -3.2259 C   0  0  0  0  0  0  0  0  0  0  0  0
   22.2414   52.3580   -4.1674 C   0  0  0  0  0  0  0  0  0  0  0  0
   22.3503   51.7021   -5.4158 C   0  0  0  0  0  0  0  0  0  0  0  0
   23.4770   50.9416   -5.7340 C   0  0  0  0  0  0  0  0  0  0  0  0
   28.3470   48.6286   -6.0048 H   0  0  0  0  0  0  0  0  0  0  0  0
   25.6818   51.8162   -1.4593 C   0  0  0  0  0  0  0  0  0  0  0  0
   25.3972   50.7829   -0.3854 C   0  0  0  0  0  0  0  0  0  0  0  0
   24.3105   49.8030   -0.7153 C   0  0  0  0  0  0  0  0  0  0  0  0
   23.2459   49.7028    0.3598 C   0  0  0  0  0  0  0  0  0  0  0  0
   21.2222   47.8809    0.8714 O   0  0  0  0  0  0  0  0  0  0  0  0
   22.3608   47.6718    1.3853 C   0  0  0  0  0  0  0  0  0  0  0  0
   22.5929   46.5058    2.2850 C   0  0  0  0  0  0  0  0  0  0  0  0
   23.3657   48.4894    1.1425 N   0  0  0  0  0  0  0  0  0  0  0  0
   24.2486   48.2626    1.5144 H   0  0  0  0  0  0  0  0  0  0  0  0
  7  4  2  0  0  0
  8  4  1  0  0  0
  8  3  1  0  0  0
  4  6  1  0  0  0
  3  2  1  0  0  0
  6  9  1  0  0  0
  6  1  2  0  0  0
 14  9  2  0  0  0
 14 13  1  0  0  0
  9 10  1  0  0  0
  2  1  1  0  0  0
 13 12  2  0  0  0
  1  5  1  0  0  0
 10  5  1  0  0  0
 10 11  2  0  0  0
  5 16  1  0  0  0
 12 11  1  0  0  0
 16 17  1  0  0  0
 18 17  1  0  0  0
 18 19  1  0  0  0
 19 23  1  0  0  0
 20 21  2  0  0  0
 23 21  1  0  0  0
 21 22  1  0  0  0
 23 24  1  0  0  0
  8 15  1  0  0  0
M  END
> <minimizedAffinity>
-6.43262

$$$$
4QB3_30M_A_201


 24 26  0  0  0  0  0  0  0  0999 V2000
   24.3577   50.1341   -1.2614 C   0  0  0  0  0  0  0  0  0  0  0  0
   23.0257   49.7881   -0.7326 C   0  0  0  0  0  0  0  0  0  0  0  0
   23.1976   48.7987    0.3988 C   0  0  0  0  0  0  0  0  0  0  0  0
   25.3942   49.7955    0.9473 C   0  0  0  0  0  0  0  0  0  0  0  0
   24.6732   50.5894   -2.4855 N   0  0  0  0  0  0  0  0  0  0  0  0
   25.4736   50.1208   -0.4861 C   0  0  0  0  0  0  0  0  0  0  0  0
   26.2994   50.0562    1.7580 O   0  0  0  0  0  0  0  0  0  0  0  0
   24.2264   49.2808    1.3473 N   0  0  0  0  0  0  0  0  0  0  0  0
   26.5615   50.5870   -1.2644 C   0  0  0  0  0  0  0  0  0  0  0  0
   26.0373   50.8876   -2.5278 C   0  0  0  0  0  0  0  0  0  0  0  0
   26.7973   51.3786   -3.5755 C   0  0  0  0  0  0  0  0  0  0  0  0
   28.1345   51.6213   -3.3495 C   0  0  0  0  0  0  0  0  0  0  0  0
   28.7185   51.3393   -2.0924 C   0  0  0  0  0  0  0  0  0  0  0  0
   27.9561   50.8215   -1.0439 C   0  0  0  0  0  0  0  0  0  0  0  0
   24.0435   49.2202    2.3127 H   0  0  0  0  0  0  0  0  0  0  0  0
   23.8177   50.7602   -3.6457 C   0  0  0  0  0  0  0  0  0  0  0  0
   23.0726   52.0818   -3.6270 C   0  0  0  0  0  0  0  0  0  0  0  0
   22.9449   52.7607   -4.9584 C   0  0  0  0  0  0  0  0  0  0  0  0
   21.8324   52.1925   -5.8178 C   0  0  0  0  0  0  0  0  0  0  0  0
   19.5816   50.6989   -6.4338 O   0  0  0  0  0  0  0  0  0  0  0  0
   19.4843   51.5868   -5.5358 C   0  0  0  0  0  0  0  0  0  0  0  0
   18.1808   51.8584   -4.8651 C   0  0  0  0  0  0  0  0  0  0  0  0
   20.5352   52.2988   -5.1812 N   0  0  0  0  0  0  0  0  0  0  0  0
   20.4329   52.9398   -4.4410 H   0  0  0  0  0  0  0  0  0  0  0  0
  7  4  2  0  0  0
  8  4  1  0  0  0
  8  3  1  0  0  0
  4  6  1  0  0  0
  3  2  1  0  0  0
  6  9  1  0  0  0
  6  1  2  0  0  0
 14  9  2  0  0  0
 14 13  1  0  0  0
  9 10  1  0  0  0
  2  1  1  0  0  0
 13 12  2  0  0  0
  1  5  1  0  0  0
 10  5  1  0  0  0
 10 11  2  0  0  0
  5 16  1  0  0  0
 12 11  1  0  0  0
 16 17  1  0  0  0
 18 17  1  0  0  0
 18 19  1  0  0  0
 19 23  1  0  0  0
 20 21  2  0  0  0
 23 21  1  0  0  0
 21 22  1  0  0  0
 23 24  1  0  0  0
  8 15  1  0  0  0
M  END
> <minimizedAffinity>
-6.41082

$$$$
4QB3_30M_A_201


 24 26  0  0  0  0  0  0  0  0999 V2000
   25.5689   50.8516   -3.4418 C   0  0  0  0  0  0  0  0  0  0  0  0
   26.2610   51.1610   -4.7062 C   0  0  0  0  0  0  0  0  0  0  0  0
   25.2716   51.0286   -5.8429 C   0  0  0  0  0  0  0  0  0  0  0  0
   23.4316   51.6951   -4.3296 C   0  0  0  0  0  0  0  0  0  0  0  0
   26.1018   50.4159   -2.2878 N   0  0  0  0  0  0  0  0  0  0  0  0
   24.2413   51.0806   -3.2648 C   0  0  0  0  0  0  0  0  0  0  0  0
   22.3135   52.2003   -4.1321 O   0  0  0  0  0  0  0  0  0  0  0  0
   24.0269   51.7638   -5.5252 N   0  0  0  0  0  0  0  0  0  0  0  0
   23.9103   50.7650   -1.9241 C   0  0  0  0  0  0  0  0  0  0  0  0
   25.1017   50.3522   -1.3146 C   0  0  0  0  0  0  0  0  0  0  0  0
   25.1888   49.9609    0.0104 C   0  0  0  0  0  0  0  0  0  0  0  0
   24.0481   50.0188    0.7807 C   0  0  0  0  0  0  0  0  0  0  0  0
   22.8165   50.4304    0.2198 C   0  0  0  0  0  0  0  0  0  0  0  0
   22.7249   50.8018   -1.1228 C   0  0  0  0  0  0  0  0  0  0  0  0
   23.6203   52.3269   -6.2230 H   0  0  0  0  0  0  0  0  0  0  0  0
   27.4714   50.0292   -2.0021 C   0  0  0  0  0  0  0  0  0  0  0  0
   28.2456   51.1221   -1.2892 C   0  0  0  0  0  0  0  0  0  0  0  0
   28.7602   50.7554    0.0712 C   0  0  0  0  0  0  0  0  0  0  0  0
   29.9587   51.5785    0.5017 C   0  0  0  0  0  0  0  0  0  0  0  0
   30.9828   53.8146    1.7773 O   0  0  0  0  0  0  0  0  0  0  0  0
   30.5140   52.8794    2.4914 C   0  0  0  0  0  0  0  0  0  0  0  0
   30.5599   52.9552    3.9797 C   0  0  0  0  0  0  0  0  0  0  0  0
   29.9825   51.8111    1.9316 N   0  0  0  0  0  0  0  0  0  0  0  0
   29.5783   51.1321    2.5188 H   0  0  0  0  0  0  0  0  0  0  0  0
  7  4  2  0  0  0
  8  4  1  0  0  0
  8  3  1  0  0  0
  4  6  1  0  0  0
  3  2  1  0  0  0
  6  9  1  0  0  0
  6  1  2  0  0  0
 14  9  2  0  0  0
 14 13  1  0  0  0
  9 10  1  0  0  0
  2  1  1  0  0  0
 13 12  2  0  0  0
  1  5  1  0  0  0
 10  5  1  0  0  0
 10 11  2  0  0  0
  5 16  1  0  0  0
 12 11  1  0  0  0
 16 17  1  0  0  0
 18 17  1  0  0  0
 18 19  1  0  0  0
 19 23  1  0  0  0
 20 21  2  0  0  0
 23 21  1  0  0  0
 21 22  1  0  0  0
 23 24  1  0  0  0
  8 15  1  0  0  0
M  END
> <minimizedAffinity>
-6.38183

$$$$
4QB3_30M_A_201


 24 26  0  0  0  0  0  0  0  0999 V2000
   25.5144   50.1691   -4.9273 C   0  0  0  0  0  0  0  0  0  0  0  0
   25.9274   50.0181   -6.3345 C   0  0  0  0  0  0  0  0  0  0  0  0
   24.7133   49.6459   -7.1566 C   0  0  0  0  0  0  0  0  0  0  0  0
   23.2625   50.9070   -5.5995 C   0  0  0  0  0  0  0  0  0  0  0  0
   26.2696   50.0506   -3.8223 N   0  0  0  0  0  0  0  0  0  0  0  0
   24.2633   50.5657   -4.5754 C   0  0  0  0  0  0  0  0  0  0  0  0
   22.2286   51.5521   -5.3559 O   0  0  0  0  0  0  0  0  0  0  0  0
   23.5886   50.5574   -6.8485 N   0  0  0  0  0  0  0  0  0  0  0  0
   24.2190   50.6993   -3.1659 C   0  0  0  0  0  0  0  0  0  0  0  0
   25.5007   50.3768   -2.7026 C   0  0  0  0  0  0  0  0  0  0  0  0
   25.8589   50.3941   -1.3656 C   0  0  0  0  0  0  0  0  0  0  0  0
   24.9127   50.7883   -0.4451 C   0  0  0  0  0  0  0  0  0  0  0  0
   23.6022   51.1280   -0.8550 C   0  0  0  0  0  0  0  0  0  0  0  0
   23.2352   51.0871   -2.2013 C   0  0  0  0  0  0  0  0  0  0  0  0
   23.0586   50.9215   -7.5940 H   0  0  0  0  0  0  0  0  0  0  0  0
   27.6565   49.6389   -3.7030 C   0  0  0  0  0  0  0  0  0  0  0  0
   28.5947   50.8139   -3.5008 C   0  0  0  0  0  0  0  0  0  0  0  0
   29.0289   51.5070   -4.7581 C   0  0  0  0  0  0  0  0  0  0  0  0
   28.4146   52.8828   -4.9281 C   0  0  0  0  0  0  0  0  0  0  0  0
   25.7886   53.7517   -5.0878 O   0  0  0  0  0  0  0  0  0  0  0  0
   26.3311   53.6904   -3.9449 C   0  0  0  0  0  0  0  0  0  0  0  0
   25.5950   54.1246   -2.7232 C   0  0  0  0  0  0  0  0  0  0  0  0
   27.5659   53.2491   -3.8123 N   0  0  0  0  0  0  0  0  0  0  0  0
   27.9327   53.1633   -2.9028 H   0  0  0  0  0  0  0  0  0  0  0  0
  7  4  2  0  0  0
  8  4  1  0  0  0
  8  3  1  0  0  0
  4  6  1  0  0  0
  3  2  1  0  0  0
  6  9  1  0  0  0
  6  1  2  0  0  0
 14  9  2  0  0  0
 14 13  1  0  0  0
  9 10  1  0  0  0
  2  1  1  0  0  0
 13 12  2  0  0  0
  1  5  1  0  0  0
 10  5  1  0  0  0
 10 11  2  0  0  0
  5 16  1  0  0  0
 12 11  1  0  0  0
 16 17  1  0  0  0
 18 17  1  0  0  0
 18 19  1  0  0  0
 19 23  1  0  0  0
 20 21  2  0  0  0
 23 21  1  0  0  0
 21 22  1  0  0  0
 23 24  1  0  0  0
  8 15  1  0  0  0
M  END
> <minimizedAffinity>
-6.35505

$$$$
