4QSV_THM_A_1210


 20 21  0  0  0  0  0  0  0  0999 V2000
   26.5235   46.1034  -10.8578 C   0  0  0  0  0  0  0  0  0  0  0  0
   25.8894   44.9498  -10.2953 O   0  0  0  0  0  0  0  0  0  0  0  0
   25.9195   46.3415  -12.2483 C   0  0  0  0  0  0  0  0  0  0  0  0
   26.9106   46.4003  -13.2924 O   0  0  0  0  0  0  0  0  0  0  0  0
   24.9760   45.1856  -12.4935 C   0  0  0  0  0  0  0  0  0  0  0  0
   25.0460   44.3047  -11.2578 C   0  0  0  0  0  0  0  0  0  0  0  0
   27.3967   45.5615  -13.3243 H   0  0  0  0  0  0  0  0  0  0  0  0
   23.6565   44.0914  -10.8163 N   0  0  0  0  0  0  0  0  0  0  0  0
   22.8972   43.0756  -11.4741 C   0  0  0  0  0  0  0  0  0  0  0  0
   23.3604   42.3358  -12.3778 O   0  0  0  0  0  0  0  0  0  0  0  0
   21.6312   42.8483  -11.1375 N   0  0  0  0  0  0  0  0  0  0  0  0
   21.0255   43.5519  -10.1806 C   0  0  0  0  0  0  0  0  0  0  0  0
   19.8715   43.2231   -9.9471 O   0  0  0  0  0  0  0  0  0  0  0  0
   21.7551   44.6223   -9.4562 C   0  0  0  0  0  0  0  0  0  0  0  0
   21.1189   45.4511   -8.3612 C   0  0  0  0  0  0  0  0  0  0  0  0
   23.0881   44.8505   -9.8428 C   0  0  0  0  0  0  0  0  0  0  0  0
   21.1288   42.1432  -11.6062 H   0  0  0  0  0  0  0  0  0  0  0  0
   26.4932   48.4933  -10.6379 O   0  0  0  0  0  0  0  0  0  0  0  0
   26.3039   47.2730   -9.9100 C   0  0  0  0  0  0  0  0  0  0  0  0
   26.3560   49.2483  -10.0446 H   0  0  0  0  0  0  0  0  0  0  0  0
 18 19  1  0  0  0
 19  1  1  0  0  0
  1  2  1  0  0  0
  1  3  1  0  0  0
  2  6  1  0  0  0
  3  4  1  0  0  0
  3  5  1  0  0  0
  5  6  1  0  0  0
  6  8  1  0  0  0
  8  9  1  0  0  0
  8 16  1  0  0  0
  9 10  2  0  0  0
  9 11  1  0  0  0
 11 12  1  0  0  0
 12 13  2  0  0  0
 12 14  1  0  0  0
 14 15  1  0  0  0
 14 16  2  0  0  0
 18 20  1  0  0  0
  4  7  1  0  0  0
 11 17  1  0  0  0
M  END
> <minimizedAffinity>
-7.01842

$$$$
4QSV_THM_A_1210


 20 21  0  0  0  0  0  0  0  0999 V2000
   27.2652   44.6532  -11.6588 C   0  0  0  0  0  0  0  0  0  0  0  0
   26.2319   43.6630  -11.6916 O   0  0  0  0  0  0  0  0  0  0  0  0
   26.6583   45.9825  -12.1272 C   0  0  0  0  0  0  0  0  0  0  0  0
   27.3716   46.5711  -13.2321 O   0  0  0  0  0  0  0  0  0  0  0  0
   25.2371   45.6677  -12.5362 C   0  0  0  0  0  0  0  0  0  0  0  0
   25.0429   44.1792  -12.3028 C   0  0  0  0  0  0  0  0  0  0  0  0
   27.3588   45.9617  -13.9866 H   0  0  0  0  0  0  0  0  0  0  0  0
   23.8208   44.0384  -11.4916 N   0  0  0  0  0  0  0  0  0  0  0  0
   22.9325   42.9648  -11.8065 C   0  0  0  0  0  0  0  0  0  0  0  0
   23.1551   42.1192  -12.7086 O   0  0  0  0  0  0  0  0  0  0  0  0
   21.8025   42.7962  -11.1266 N   0  0  0  0  0  0  0  0  0  0  0  0
   21.4569   43.6142  -10.1319 C   0  0  0  0  0  0  0  0  0  0  0  0
   20.4095   43.3313   -9.5685 O   0  0  0  0  0  0  0  0  0  0  0  0
   22.3331   44.7501   -9.7518 C   0  0  0  0  0  0  0  0  0  0  0  0
   21.9921   45.7087   -8.6313 C   0  0  0  0  0  0  0  0  0  0  0  0
   23.5147   44.9128  -10.4973 C   0  0  0  0  0  0  0  0  0  0  0  0
   21.2065   42.0493  -11.3632 H   0  0  0  0  0  0  0  0  0  0  0  0
   28.9282   43.8276  -10.1377 O   0  0  0  0  0  0  0  0  0  0  0  0
   27.8112   44.7201  -10.2403 C   0  0  0  0  0  0  0  0  0  0  0  0
   29.2865   43.8603   -9.2369 H   0  0  0  0  0  0  0  0  0  0  0  0
 18 19  1  0  0  0
 19  1  1  0  0  0
  1  2  1  0  0  0
  1  3  1  0  0  0
  2  6  1  0  0  0
  3  4  1  0  0  0
  3  5  1  0  0  0
  5  6  1  0  0  0
  6  8  1  0  0  0
  8  9  1  0  0  0
  8 16  1  0  0  0
  9 10  2  0  0  0
  9 11  1  0  0  0
 11 12  1  0  0  0
 12 13  2  0  0  0
 12 14  1  0  0  0
 14 15  1  0  0  0
 14 16  2  0  0  0
 18 20  1  0  0  0
  4  7  1  0  0  0
 11 17  1  0  0  0
M  END
> <minimizedAffinity>
-6.31456

$$$$
4QSV_THM_A_1210


 20 21  0  0  0  0  0  0  0  0999 V2000
   20.8710   43.6258   -9.4787 C   0  0  0  0  0  0  0  0  0  0  0  0
   22.2493   43.2744   -9.6400 O   0  0  0  0  0  0  0  0  0  0  0  0
   20.8059   45.1086   -9.0885 C   0  0  0  0  0  0  0  0  0  0  0  0
   20.0765   45.3401   -7.8678 O   0  0  0  0  0  0  0  0  0  0  0  0
   22.2407   45.5581   -8.9285 C   0  0  0  0  0  0  0  0  0  0  0  0
   23.1062   44.3450   -9.2237 C   0  0  0  0  0  0  0  0  0  0  0  0
   20.5057   44.8645   -7.1395 H   0  0  0  0  0  0  0  0  0  0  0  0
   24.0951   44.7709  -10.2296 N   0  0  0  0  0  0  0  0  0  0  0  0
   24.3232   43.9089  -11.3458 C   0  0  0  0  0  0  0  0  0  0  0  0
   23.7029   42.8323  -11.5318 O   0  0  0  0  0  0  0  0  0  0  0  0
   25.2181   44.2252  -12.2768 N   0  0  0  0  0  0  0  0  0  0  0  0
   25.9311   45.3497  -12.2073 C   0  0  0  0  0  0  0  0  0  0  0  0
   26.6967   45.5366  -13.1418 O   0  0  0  0  0  0  0  0  0  0  0  0
   25.7451   46.2908  -11.0749 C   0  0  0  0  0  0  0  0  0  0  0  0
   26.5251   47.5813  -10.9453 C   0  0  0  0  0  0  0  0  0  0  0  0
   24.8023   45.9239  -10.0976 C   0  0  0  0  0  0  0  0  0  0  0  0
   25.3576   43.6142  -13.0361 H   0  0  0  0  0  0  0  0  0  0  0  0
   21.0003   42.5066  -11.5980 O   0  0  0  0  0  0  0  0  0  0  0  0
   20.1508   43.3263  -10.7849 C   0  0  0  0  0  0  0  0  0  0  0  0
   20.5527   42.3078  -12.4353 H   0  0  0  0  0  0  0  0  0  0  0  0
 18 19  1  0  0  0
 19  1  1  0  0  0
  1  2  1  0  0  0
  1  3  1  0  0  0
  2  6  1  0  0  0
  3  4  1  0  0  0
  3  5  1  0  0  0
  5  6  1  0  0  0
  6  8  1  0  0  0
  8  9  1  0  0  0
  8 16  1  0  0  0
  9 10  2  0  0  0
  9 11  1  0  0  0
 11 12  1  0  0  0
 12 13  2  0  0  0
 12 14  1  0  0  0
 14 15  1  0  0  0
 14 16  2  0  0  0
 18 20  1  0  0  0
  4  7  1  0  0  0
 11 17  1  0  0  0
M  END
> <minimizedAffinity>
-6.02709

$$$$
4QSV_THM_A_1210


 20 21  0  0  0  0  0  0  0  0999 V2000
   26.2355   49.4176   -8.2002 C   0  0  0  0  0  0  0  0  0  0  0  0
   26.8103   48.1409   -8.4981 O   0  0  0  0  0  0  0  0  0  0  0  0
   25.8640   50.0883   -9.5295 C   0  0  0  0  0  0  0  0  0  0  0  0
   26.4509   51.3947   -9.6866 O   0  0  0  0  0  0  0  0  0  0  0  0
   26.3633   49.1615  -10.6148 C   0  0  0  0  0  0  0  0  0  0  0  0
   27.0096   47.9820   -9.9084 C   0  0  0  0  0  0  0  0  0  0  0  0
   27.4176   51.3206   -9.6565 H   0  0  0  0  0  0  0  0  0  0  0  0
   26.4061   46.7672  -10.4841 N   0  0  0  0  0  0  0  0  0  0  0  0
   27.0390   46.1859  -11.6254 C   0  0  0  0  0  0  0  0  0  0  0  0
   28.0957   46.6321  -12.1377 O   0  0  0  0  0  0  0  0  0  0  0  0
   26.5320   45.1020  -12.2049 N   0  0  0  0  0  0  0  0  0  0  0  0
   25.4235   44.5190  -11.7477 C   0  0  0  0  0  0  0  0  0  0  0  0
   25.0804   43.5128  -12.3513 O   0  0  0  0  0  0  0  0  0  0  0  0
   24.7149   45.0702  -10.5659 C   0  0  0  0  0  0  0  0  0  0  0  0
   23.4545   44.4494  -10.0031 C   0  0  0  0  0  0  0  0  0  0  0  0
   25.2655   46.2252   -9.9819 C   0  0  0  0  0  0  0  0  0  0  0  0
   26.9862   44.7207  -12.9907 H   0  0  0  0  0  0  0  0  0  0  0  0
   23.8527   49.1451   -8.1055 O   0  0  0  0  0  0  0  0  0  0  0  0
   25.0335   49.1951   -7.2944 C   0  0  0  0  0  0  0  0  0  0  0  0
   23.0776   49.0035   -7.5397 H   0  0  0  0  0  0  0  0  0  0  0  0
 18 19  1  0  0  0
 19  1  1  0  0  0
  1  2  1  0  0  0
  1  3  1  0  0  0
  2  6  1  0  0  0
  3  4  1  0  0  0
  3  5  1  0  0  0
  5  6  1  0  0  0
  6  8  1  0  0  0
  8  9  1  0  0  0
  8 16  1  0  0  0
  9 10  2  0  0  0
  9 11  1  0  0  0
 11 12  1  0  0  0
 12 13  2  0  0  0
 12 14  1  0  0  0
 14 15  1  0  0  0
 14 16  2  0  0  0
 18 20  1  0  0  0
  4  7  1  0  0  0
 11 17  1  0  0  0
M  END
> <minimizedAffinity>
-5.79887

$$$$
4QSV_THM_A_1210


 20 21  0  0  0  0  0  0  0  0999 V2000
   25.7167   49.6582   -8.2587 C   0  0  0  0  0  0  0  0  0  0  0  0
   26.7049   48.6592   -8.5319 O   0  0  0  0  0  0  0  0  0  0  0  0
   25.7997   50.7176   -9.3659 C   0  0  0  0  0  0  0  0  0  0  0  0
   25.9903   52.0522   -8.8576 O   0  0  0  0  0  0  0  0  0  0  0  0
   26.9733   50.3200  -10.2323 C   0  0  0  0  0  0  0  0  0  0  0  0
   27.5472   49.0525   -9.6227 C   0  0  0  0  0  0  0  0  0  0  0  0
   26.8178   52.0909   -8.3531 H   0  0  0  0  0  0  0  0  0  0  0  0
   27.6423   48.0682  -10.7151 N   0  0  0  0  0  0  0  0  0  0  0  0
   28.9347   47.8054  -11.2642 C   0  0  0  0  0  0  0  0  0  0  0  0
   29.9913   48.3387  -10.8428 O   0  0  0  0  0  0  0  0  0  0  0  0
   29.0851   46.9444  -12.2660 N   0  0  0  0  0  0  0  0  0  0  0  0
   28.0454   46.2970  -12.7929 C   0  0  0  0  0  0  0  0  0  0  0  0
   28.3232   45.5114  -13.6874 O   0  0  0  0  0  0  0  0  0  0  0  0
   26.6745   46.5223  -12.2709 C   0  0  0  0  0  0  0  0  0  0  0  0
   25.4586   45.8146  -12.8290 C   0  0  0  0  0  0  0  0  0  0  0  0
   26.5434   47.4487  -11.2207 C   0  0  0  0  0  0  0  0  0  0  0  0
   29.9860   46.7810  -12.6277 H   0  0  0  0  0  0  0  0  0  0  0  0
   23.8766   49.0403   -6.8469 O   0  0  0  0  0  0  0  0  0  0  0  0
   24.3588   48.9749   -8.1952 C   0  0  0  0  0  0  0  0  0  0  0  0
   23.0101   48.6077   -6.7921 H   0  0  0  0  0  0  0  0  0  0  0  0
 18 19  1  0  0  0
 19  1  1  0  0  0
  1  2  1  0  0  0
  1  3  1  0  0  0
  2  6  1  0  0  0
  3  4  1  0  0  0
  3  5  1  0  0  0
  5  6  1  0  0  0
  6  8  1  0  0  0
  8  9  1  0  0  0
  8 16  1  0  0  0
  9 10  2  0  0  0
  9 11  1  0  0  0
 11 12  1  0  0  0
 12 13  2  0  0  0
 12 14  1  0  0  0
 14 15  1  0  0  0
 14 16  2  0  0  0
 18 20  1  0  0  0
  4  7  1  0  0  0
 11 17  1  0  0  0
M  END
> <minimizedAffinity>
-5.52523

$$$$
4QSV_THM_A_1210


 20 21  0  0  0  0  0  0  0  0999 V2000
   21.6691   43.7953   -9.5298 C   0  0  0  0  0  0  0  0  0  0  0  0
   23.0213   44.0421   -9.1301 O   0  0  0  0  0  0  0  0  0  0  0  0
   21.0159   45.1485   -9.8417 C   0  0  0  0  0  0  0  0  0  0  0  0
   19.8046   45.3764   -9.0957 O   0  0  0  0  0  0  0  0  0  0  0  0
   22.0469   46.1969   -9.4895 C   0  0  0  0  0  0  0  0  0  0  0  0
   23.2673   45.4465   -8.9843 C   0  0  0  0  0  0  0  0  0  0  0  0
   20.0015   45.3586   -8.1460 H   0  0  0  0  0  0  0  0  0  0  0  0
   24.4185   45.9544   -9.7511 N   0  0  0  0  0  0  0  0  0  0  0  0
   24.9420   47.2355   -9.3964 C   0  0  0  0  0  0  0  0  0  0  0  0
   24.4984   47.9301   -8.4482 O   0  0  0  0  0  0  0  0  0  0  0  0
   25.9656   47.7596  -10.0635 N   0  0  0  0  0  0  0  0  0  0  0  0
   26.5400   47.1161  -11.0802 C   0  0  0  0  0  0  0  0  0  0  0  0
   27.4903   47.6933  -11.5884 O   0  0  0  0  0  0  0  0  0  0  0  0
   26.0467   45.7814  -11.5021 C   0  0  0  0  0  0  0  0  0  0  0  0
   26.6607   45.0053  -12.6471 C   0  0  0  0  0  0  0  0  0  0  0  0
   24.9539   45.2578  -10.7879 C   0  0  0  0  0  0  0  0  0  0  0  0
   26.3078   48.6444   -9.8003 H   0  0  0  0  0  0  0  0  0  0  0  0
   20.3784   42.3233  -10.9184 O   0  0  0  0  0  0  0  0  0  0  0  0
   21.6940   42.8605  -10.7299 C   0  0  0  0  0  0  0  0  0  0  0  0
   20.3799   41.7246  -11.6816 H   0  0  0  0  0  0  0  0  0  0  0  0
 18 19  1  0  0  0
 19  1  1  0  0  0
  1  2  1  0  0  0
  1  3  1  0  0  0
  2  6  1  0  0  0
  3  4  1  0  0  0
  3  5  1  0  0  0
  5  6  1  0  0  0
  6  8  1  0  0  0
  8  9  1  0  0  0
  8 16  1  0  0  0
  9 10  2  0  0  0
  9 11  1  0  0  0
 11 12  1  0  0  0
 12 13  2  0  0  0
 12 14  1  0  0  0
 14 15  1  0  0  0
 14 16  2  0  0  0
 18 20  1  0  0  0
  4  7  1  0  0  0
 11 17  1  0  0  0
M  END
> <minimizedAffinity>
-5.41752

$$$$
4QSV_THM_A_1210


 20 21  0  0  0  0  0  0  0  0999 V2000
   26.3676   49.2425   -7.3864 C   0  0  0  0  0  0  0  0  0  0  0  0
   26.7015   48.7615   -8.6926 O   0  0  0  0  0  0  0  0  0  0  0  0
   24.8433   49.1591   -7.2295 C   0  0  0  0  0  0  0  0  0  0  0  0
   24.2433   50.4168   -6.8633 O   0  0  0  0  0  0  0  0  0  0  0  0
   24.3134   48.7024   -8.5699 C   0  0  0  0  0  0  0  0  0  0  0  0
   25.5223   48.5304   -9.4736 C   0  0  0  0  0  0  0  0  0  0  0  0
   24.4311   51.0765   -7.5493 H   0  0  0  0  0  0  0  0  0  0  0  0
   25.4219   47.1803  -10.0551 N   0  0  0  0  0  0  0  0  0  0  0  0
   26.3160   46.8446  -11.1176 C   0  0  0  0  0  0  0  0  0  0  0  0
   27.2011   47.6221  -11.5541 O   0  0  0  0  0  0  0  0  0  0  0  0
   26.2619   45.6503  -11.6994 N   0  0  0  0  0  0  0  0  0  0  0  0
   25.3798   44.7264  -11.3174 C   0  0  0  0  0  0  0  0  0  0  0  0
   25.4549   43.6609  -11.9121 O   0  0  0  0  0  0  0  0  0  0  0  0
   24.4212   45.0081  -10.2200 C   0  0  0  0  0  0  0  0  0  0  0  0
   23.4000   43.9974   -9.7443 C   0  0  0  0  0  0  0  0  0  0  0  0
   24.4917   46.2841   -9.6325 C   0  0  0  0  0  0  0  0  0  0  0  0
   26.8883   45.4433  -12.4301 H   0  0  0  0  0  0  0  0  0  0  0  0
   26.4970   48.5755   -5.0844 O   0  0  0  0  0  0  0  0  0  0  0  0
   27.1140   48.3963   -6.3658 C   0  0  0  0  0  0  0  0  0  0  0  0
   26.9637   48.0407   -4.4232 H   0  0  0  0  0  0  0  0  0  0  0  0
 18 19  1  0  0  0
 19  1  1  0  0  0
  1  2  1  0  0  0
  1  3  1  0  0  0
  2  6  1  0  0  0
  3  4  1  0  0  0
  3  5  1  0  0  0
  5  6  1  0  0  0
  6  8  1  0  0  0
  8  9  1  0  0  0
  8 16  1  0  0  0
  9 10  2  0  0  0
  9 11  1  0  0  0
 11 12  1  0  0  0
 12 13  2  0  0  0
 12 14  1  0  0  0
 14 15  1  0  0  0
 14 16  2  0  0  0
 18 20  1  0  0  0
  4  7  1  0  0  0
 11 17  1  0  0  0
M  END
> <minimizedAffinity>
-5.36206

$$$$
4QSV_THM_A_1210


 20 21  0  0  0  0  0  0  0  0999 V2000
   28.1646   48.1409   -9.2143 C   0  0  0  0  0  0  0  0  0  0  0  0
   27.8521   47.4672  -10.4380 O   0  0  0  0  0  0  0  0  0  0  0  0
   26.8505   48.6558   -8.6116 C   0  0  0  0  0  0  0  0  0  0  0  0
   26.8671   50.0719   -8.3466 O   0  0  0  0  0  0  0  0  0  0  0  0
   25.7752   48.3301   -9.6235 C   0  0  0  0  0  0  0  0  0  0  0  0
   26.4722   47.6405  -10.7839 C   0  0  0  0  0  0  0  0  0  0  0  0
   27.0179   50.5541   -9.1747 H   0  0  0  0  0  0  0  0  0  0  0  0
   25.7356   46.3884  -11.0304 N   0  0  0  0  0  0  0  0  0  0  0  0
   25.8817   45.7708  -12.3104 C   0  0  0  0  0  0  0  0  0  0  0  0
   26.6282   46.2168  -13.2171 O   0  0  0  0  0  0  0  0  0  0  0  0
   25.2270   44.6513  -12.6033 N   0  0  0  0  0  0  0  0  0  0  0  0
   24.4163   44.0650  -11.7220 C   0  0  0  0  0  0  0  0  0  0  0  0
   23.8991   43.0257  -12.1051 O   0  0  0  0  0  0  0  0  0  0  0  0
   24.2180   44.6527  -10.3737 C   0  0  0  0  0  0  0  0  0  0  0  0
   23.3118   44.0301   -9.3336 C   0  0  0  0  0  0  0  0  0  0  0  0
   24.9119   45.8444  -10.0963 C   0  0  0  0  0  0  0  0  0  0  0  0
   25.3437   44.2454  -13.4926 H   0  0  0  0  0  0  0  0  0  0  0  0
   28.6204   47.5157   -6.9423 O   0  0  0  0  0  0  0  0  0  0  0  0
   28.8869   47.1583   -8.3046 C   0  0  0  0  0  0  0  0  0  0  0  0
   29.0757   46.8964   -6.3506 H   0  0  0  0  0  0  0  0  0  0  0  0
 18 19  1  0  0  0
 19  1  1  0  0  0
  1  2  1  0  0  0
  1  3  1  0  0  0
  2  6  1  0  0  0
  3  4  1  0  0  0
  3  5  1  0  0  0
  5  6  1  0  0  0
  6  8  1  0  0  0
  8  9  1  0  0  0
  8 16  1  0  0  0
  9 10  2  0  0  0
  9 11  1  0  0  0
 11 12  1  0  0  0
 12 13  2  0  0  0
 12 14  1  0  0  0
 14 15  1  0  0  0
 14 16  2  0  0  0
 18 20  1  0  0  0
  4  7  1  0  0  0
 11 17  1  0  0  0
M  END
> <minimizedAffinity>
-5.36079

$$$$
4QSV_THM_A_1210


 20 21  0  0  0  0  0  0  0  0999 V2000
   27.6952   44.8036  -11.7632 C   0  0  0  0  0  0  0  0  0  0  0  0
   26.6527   43.8671  -11.4712 O   0  0  0  0  0  0  0  0  0  0  0  0
   27.0627   46.0033  -12.4815 C   0  0  0  0  0  0  0  0  0  0  0  0
   27.6797   46.2911  -13.7512 O   0  0  0  0  0  0  0  0  0  0  0  0
   25.6072   45.6460  -12.6813 C   0  0  0  0  0  0  0  0  0  0  0  0
   25.4189   44.2618  -12.0844 C   0  0  0  0  0  0  0  0  0  0  0  0
   27.5924   45.5214  -14.3350 H   0  0  0  0  0  0  0  0  0  0  0  0
   24.2736   44.3556  -11.1621 N   0  0  0  0  0  0  0  0  0  0  0  0
   24.3127   45.3654  -10.1522 C   0  0  0  0  0  0  0  0  0  0  0  0
   25.2490   46.1946  -10.0332 O   0  0  0  0  0  0  0  0  0  0  0  0
   23.3208   45.4883   -9.2755 N   0  0  0  0  0  0  0  0  0  0  0  0
   22.2591   44.6824   -9.3042 C   0  0  0  0  0  0  0  0  0  0  0  0
   21.4047   44.9206   -8.4629 O   0  0  0  0  0  0  0  0  0  0  0  0
   22.1534   43.6117  -10.3265 C   0  0  0  0  0  0  0  0  0  0  0  0
   20.9717   42.6695  -10.4072 C   0  0  0  0  0  0  0  0  0  0  0  0
   23.2235   43.4956  -11.2318 C   0  0  0  0  0  0  0  0  0  0  0  0
   23.3715   46.1916   -8.5885 H   0  0  0  0  0  0  0  0  0  0  0  0
   29.6752   45.6971  -10.7425 O   0  0  0  0  0  0  0  0  0  0  0  0
   28.3675   45.1864  -10.4532 C   0  0  0  0  0  0  0  0  0  0  0  0
   30.1158   45.9454   -9.9147 H   0  0  0  0  0  0  0  0  0  0  0  0
 18 19  1  0  0  0
 19  1  1  0  0  0
  1  2  1  0  0  0
  1  3  1  0  0  0
  2  6  1  0  0  0
  3  4  1  0  0  0
  3  5  1  0  0  0
  5  6  1  0  0  0
  6  8  1  0  0  0
  8  9  1  0  0  0
  8 16  1  0  0  0
  9 10  2  0  0  0
  9 11  1  0  0  0
 11 12  1  0  0  0
 12 13  2  0  0  0
 12 14  1  0  0  0
 14 15  1  0  0  0
 14 16  2  0  0  0
 18 20  1  0  0  0
  4  7  1  0  0  0
 11 17  1  0  0  0
M  END
> <minimizedAffinity>
-5.35612

$$$$
4QSV_THM_A_1210


 20 21  0  0  0  0  0  0  0  0999 V2000
   26.6610   45.0438  -12.4787 C   0  0  0  0  0  0  0  0  0  0  0  0
   26.9465   46.4306  -12.6892 O   0  0  0  0  0  0  0  0  0  0  0  0
   27.4991   44.5667  -11.2849 C   0  0  0  0  0  0  0  0  0  0  0  0
   28.3221   43.4249  -11.5928 O   0  0  0  0  0  0  0  0  0  0  0  0
   28.3669   45.7410  -10.8925 C   0  0  0  0  0  0  0  0  0  0  0  0
   28.0247   46.8676  -11.8524 C   0  0  0  0  0  0  0  0  0  0  0  0
   28.9358   43.6523  -12.3087 H   0  0  0  0  0  0  0  0  0  0  0  0
   27.7232   48.0475  -11.0229 N   0  0  0  0  0  0  0  0  0  0  0  0
   28.7132   49.0741  -10.9402 C   0  0  0  0  0  0  0  0  0  0  0  0
   29.8042   49.0404  -11.5623 O   0  0  0  0  0  0  0  0  0  0  0  0
   28.5114   50.1539  -10.1913 N   0  0  0  0  0  0  0  0  0  0  0  0
   27.3869   50.3209   -9.4947 C   0  0  0  0  0  0  0  0  0  0  0  0
   27.3139   51.3704   -8.8720 O   0  0  0  0  0  0  0  0  0  0  0  0
   26.3163   49.2938   -9.5347 C   0  0  0  0  0  0  0  0  0  0  0  0
   25.0198   49.4312   -8.7662 C   0  0  0  0  0  0  0  0  0  0  0  0
   26.5628   48.1557  -10.3236 C   0  0  0  0  0  0  0  0  0  0  0  0
   29.2093   50.8471  -10.1501 H   0  0  0  0  0  0  0  0  0  0  0  0
   24.8379   43.5037  -12.2235 O   0  0  0  0  0  0  0  0  0  0  0  0
   25.1645   44.8992  -12.2455 C   0  0  0  0  0  0  0  0  0  0  0  0
   23.8852   43.3969  -12.0754 H   0  0  0  0  0  0  0  0  0  0  0  0
 18 19  1  0  0  0
 19  1  1  0  0  0
  1  2  1  0  0  0
  1  3  1  0  0  0
  2  6  1  0  0  0
  3  4  1  0  0  0
  3  5  1  0  0  0
  5  6  1  0  0  0
  6  8  1  0  0  0
  8  9  1  0  0  0
  8 16  1  0  0  0
  9 10  2  0  0  0
  9 11  1  0  0  0
 11 12  1  0  0  0
 12 13  2  0  0  0
 12 14  1  0  0  0
 14 15  1  0  0  0
 14 16  2  0  0  0
 18 20  1  0  0  0
  4  7  1  0  0  0
 11 17  1  0  0  0
M  END
> <minimizedAffinity>
-5.26658

$$$$
