4KYH_ZST_A_203


 30 33  0  0  0  0  0  0  0  0999 V2000
   -7.1628   13.8668   -1.3685 C   0  0  0  0  0  0  0  0  0  0  0  0
   -7.1943   14.7316   -2.2132 O   0  0  0  0  0  0  0  0  0  0  0  0
   -8.2569   12.9080   -1.1985 C   0  0  0  0  0  0  0  0  0  0  0  0
   -8.1465   11.8423   -0.2747 C   0  0  0  0  0  0  0  0  0  0  0  0
   -6.8912   11.7913    0.5326 C   0  0  0  0  0  0  0  0  0  0  0  0
   -9.3942   13.0158   -2.0070 C   0  0  0  0  0  0  0  0  0  0  0  0
  -10.3966   12.0640   -1.9218 C   0  0  0  0  0  0  0  0  0  0  0  0
  -10.2790   11.0037   -1.0379 C   0  0  0  0  0  0  0  0  0  0  0  0
   -9.1645   10.8910   -0.2123 C   0  0  0  0  0  0  0  0  0  0  0  0
   -6.0041   13.6717   -0.5099 N   0  0  0  0  0  0  0  0  0  0  0  0
   -5.9145   12.6344    0.4207 N   0  0  0  0  0  0  0  0  0  0  0  0
   -4.8771   14.5831   -0.6222 C   0  0  0  0  0  0  0  0  0  0  0  0
   -5.1833   15.8849    0.0544 C   0  0  0  0  0  0  0  0  0  0  0  0
   -5.6110   17.5626    1.7655 C   0  0  0  0  0  0  0  0  0  0  0  0
   -5.7857   17.9756    0.4392 C   0  0  0  0  0  0  0  0  0  0  0  0
   -5.8277   18.4339    2.8286 C   0  0  0  0  0  0  0  0  0  0  0  0
   -6.1918   19.7378    2.5459 C   0  0  0  0  0  0  0  0  0  0  0  0
   -6.3431   20.1714    1.2355 C   0  0  0  0  0  0  0  0  0  0  0  0
   -6.1469   19.2902    0.1737 C   0  0  0  0  0  0  0  0  0  0  0  0
   -5.5438   16.9867   -0.5184 N   0  0  0  0  0  0  0  0  0  0  0  0
   -5.0956   15.9137    1.8005 S   0  0  0  0  0  0  0  0  0  0  0  0
   -6.7139   21.5815    0.9684 C   0  0  0  0  0  0  0  0  0  0  0  0
   -6.6478   22.3227    2.0733 F   0  0  0  0  0  0  0  0  0  0  0  0
   -5.8750   22.0710    0.1187 F   0  0  0  0  0  0  0  0  0  0  0  0
   -7.9518   21.7516    0.4066 F   0  0  0  0  0  0  0  0  0  0  0  0
   -6.7110   10.7352    1.6015 C   0  0  0  0  0  0  0  0  0  0  0  0
   -7.6471   10.8888    2.7761 C   0  0  0  0  0  0  0  0  0  0  0  0
   -7.7788   12.1166    3.2135 O   0  0  0  0  0  0  0  0  0  0  0  0
   -8.2508    9.9493    3.2626 O   0  0  0  0  0  0  0  0  0  0  0  0
   -8.1282    9.0858    2.9201 H   0  0  0  0  0  0  0  0  0  0  0  0
  1  2  2  0  0  0
  1  3  1  0  0  0
  1 10  1  0  0  0
  3  4  2  0  0  0
  3  6  1  0  0  0
  4  5  1  0  0  0
  4  9  1  0  0  0
  5 11  2  0  0  0
  5 26  1  0  0  0
  6  7  2  0  0  0
  7  8  1  0  0  0
  8  9  2  0  0  0
 10 11  1  0  0  0
 10 12  1  0  0  0
 12 13  1  0  0  0
 13 20  2  0  0  0
 13 21  1  0  0  0
 14 15  2  0  0  0
 14 16  1  0  0  0
 14 21  1  0  0  0
 15 19  1  0  0  0
 15 20  1  0  0  0
 16 17  2  0  0  0
 17 18  1  0  0  0
 18 19  2  0  0  0
 18 22  1  0  0  0
 26 27  1  0  0  0
 27 28  2  0  0  0
 27 29  1  0  0  0
 22 23  1  0  0  0
 22 24  1  0  0  0
 22 25  1  0  0  0
 29 30  1  0  0  0
M  END
> <minimizedAffinity>
-8.06257

$$$$
4KYH_ZST_A_203


 30 33  0  0  0  0  0  0  0  0999 V2000
   -5.2617   14.2243   -1.1023 C   0  0  0  0  0  0  0  0  0  0  0  0
   -4.5852   15.0799   -1.6246 O   0  0  0  0  0  0  0  0  0  0  0  0
   -4.6700   13.0278   -0.4993 C   0  0  0  0  0  0  0  0  0  0  0  0
   -5.4752   12.0967    0.1979 C   0  0  0  0  0  0  0  0  0  0  0  0
   -6.9405   12.3821    0.2330 C   0  0  0  0  0  0  0  0  0  0  0  0
   -3.2842   12.8426   -0.5623 C   0  0  0  0  0  0  0  0  0  0  0  0
   -2.7001   11.7644    0.0811 C   0  0  0  0  0  0  0  0  0  0  0  0
   -3.4826   10.8659    0.7880 C   0  0  0  0  0  0  0  0  0  0  0  0
   -4.8641   11.0230    0.8452 C   0  0  0  0  0  0  0  0  0  0  0  0
   -6.7049   14.3579   -0.9711 N   0  0  0  0  0  0  0  0  0  0  0  0
   -7.4972   13.4195   -0.3067 N   0  0  0  0  0  0  0  0  0  0  0  0
   -7.3641   15.5206   -1.5429 C   0  0  0  0  0  0  0  0  0  0  0  0
   -7.1187   16.7336   -0.6976 C   0  0  0  0  0  0  0  0  0  0  0  0
   -6.6649   18.1745    1.2112 C   0  0  0  0  0  0  0  0  0  0  0  0
   -6.9682   18.8222    0.0077 C   0  0  0  0  0  0  0  0  0  0  0  0
   -6.3891   18.8939    2.3700 C   0  0  0  0  0  0  0  0  0  0  0  0
   -6.3893   20.2752    2.3017 C   0  0  0  0  0  0  0  0  0  0  0  0
   -6.6615   20.9335    1.1097 C   0  0  0  0  0  0  0  0  0  0  0  0
   -6.9590   20.2101   -0.0438 C   0  0  0  0  0  0  0  0  0  0  0  0
   -7.2349   17.9677   -1.0657 N   0  0  0  0  0  0  0  0  0  0  0  0
   -6.6780   16.4632    0.9728 S   0  0  0  0  0  0  0  0  0  0  0  0
   -6.6326   22.4149    1.0677 C   0  0  0  0  0  0  0  0  0  0  0  0
   -7.8458   22.9336    1.2512 F   0  0  0  0  0  0  0  0  0  0  0  0
   -5.8784   22.8365    2.0263 F   0  0  0  0  0  0  0  0  0  0  0  0
   -6.1042   22.9451   -0.0797 F   0  0  0  0  0  0  0  0  0  0  0  0
   -7.8948   11.4066    0.8874 C   0  0  0  0  0  0  0  0  0  0  0  0
   -8.3899   11.8519    2.2425 C   0  0  0  0  0  0  0  0  0  0  0  0
   -8.0368   11.0746    3.2361 O   0  0  0  0  0  0  0  0  0  0  0  0
   -9.0446   12.8666    2.4020 O   0  0  0  0  0  0  0  0  0  0  0  0
   -9.2766   13.3954    1.6641 H   0  0  0  0  0  0  0  0  0  0  0  0
  1  2  2  0  0  0
  1  3  1  0  0  0
  1 10  1  0  0  0
  3  4  2  0  0  0
  3  6  1  0  0  0
  4  5  1  0  0  0
  4  9  1  0  0  0
  5 11  2  0  0  0
  5 26  1  0  0  0
  6  7  2  0  0  0
  7  8  1  0  0  0
  8  9  2  0  0  0
 10 11  1  0  0  0
 10 12  1  0  0  0
 12 13  1  0  0  0
 13 20  2  0  0  0
 13 21  1  0  0  0
 14 15  2  0  0  0
 14 16  1  0  0  0
 14 21  1  0  0  0
 15 19  1  0  0  0
 15 20  1  0  0  0
 16 17  2  0  0  0
 17 18  1  0  0  0
 18 19  2  0  0  0
 18 22  1  0  0  0
 26 27  1  0  0  0
 27 28  2  0  0  0
 27 29  1  0  0  0
 22 23  1  0  0  0
 22 24  1  0  0  0
 22 25  1  0  0  0
 29 30  1  0  0  0
M  END
> <minimizedAffinity>
-7.88632

$$$$
4KYH_ZST_A_203


 30 33  0  0  0  0  0  0  0  0999 V2000
   -3.4301   14.9194    1.0116 C   0  0  0  0  0  0  0  0  0  0  0  0
   -2.7521   15.9002    0.8095 O   0  0  0  0  0  0  0  0  0  0  0  0
   -3.1220   13.6241    0.4014 C   0  0  0  0  0  0  0  0  0  0  0  0
   -3.8683   12.4707    0.7392 C   0  0  0  0  0  0  0  0  0  0  0  0
   -4.9966   12.6676    1.6975 C   0  0  0  0  0  0  0  0  0  0  0  0
   -2.0363   13.5206   -0.4756 C   0  0  0  0  0  0  0  0  0  0  0  0
   -1.6766   12.2859   -0.9892 C   0  0  0  0  0  0  0  0  0  0  0  0
   -2.3883   11.1501   -0.6388 C   0  0  0  0  0  0  0  0  0  0  0  0
   -3.4827   11.2365    0.2164 C   0  0  0  0  0  0  0  0  0  0  0  0
   -4.5565   14.9392    1.9328 N   0  0  0  0  0  0  0  0  0  0  0  0
   -5.3072   13.8023    2.2389 N   0  0  0  0  0  0  0  0  0  0  0  0
   -4.9218   16.1890    2.5792 C   0  0  0  0  0  0  0  0  0  0  0  0
   -5.6780   17.0704    1.6318 C   0  0  0  0  0  0  0  0  0  0  0  0
   -6.5320   19.0348    0.4753 C   0  0  0  0  0  0  0  0  0  0  0  0
   -7.1130   17.8105    0.1235 C   0  0  0  0  0  0  0  0  0  0  0  0
   -6.9397   20.2257   -0.1178 C   0  0  0  0  0  0  0  0  0  0  0  0
   -7.9176   20.1724   -1.0944 C   0  0  0  0  0  0  0  0  0  0  0  0
   -8.4852   18.9635   -1.4746 C   0  0  0  0  0  0  0  0  0  0  0  0
   -8.0902   17.7752   -0.8629 C   0  0  0  0  0  0  0  0  0  0  0  0
   -6.6093   16.7040    0.8130 N   0  0  0  0  0  0  0  0  0  0  0  0
   -5.3053   18.7785    1.6649 S   0  0  0  0  0  0  0  0  0  0  0  0
   -9.5160   18.9409   -2.5396 C   0  0  0  0  0  0  0  0  0  0  0  0
   -9.7489   17.7017   -2.9692 F   0  0  0  0  0  0  0  0  0  0  0  0
  -10.6190   19.3989   -2.0509 F   0  0  0  0  0  0  0  0  0  0  0  0
   -9.2360   19.7295   -3.6244 F   0  0  0  0  0  0  0  0  0  0  0  0
   -5.9020   11.5109    2.0618 C   0  0  0  0  0  0  0  0  0  0  0  0
   -7.3291   11.9168    2.3418 C   0  0  0  0  0  0  0  0  0  0  0  0
   -7.9196   11.2244    3.2842 O   0  0  0  0  0  0  0  0  0  0  0  0
   -7.8794   12.8315    1.7551 O   0  0  0  0  0  0  0  0  0  0  0  0
   -7.4215   13.3021    1.0866 H   0  0  0  0  0  0  0  0  0  0  0  0
  1  2  2  0  0  0
  1  3  1  0  0  0
  1 10  1  0  0  0
  3  4  2  0  0  0
  3  6  1  0  0  0
  4  5  1  0  0  0
  4  9  1  0  0  0
  5 11  2  0  0  0
  5 26  1  0  0  0
  6  7  2  0  0  0
  7  8  1  0  0  0
  8  9  2  0  0  0
 10 11  1  0  0  0
 10 12  1  0  0  0
 12 13  1  0  0  0
 13 20  2  0  0  0
 13 21  1  0  0  0
 14 15  2  0  0  0
 14 16  1  0  0  0
 14 21  1  0  0  0
 15 19  1  0  0  0
 15 20  1  0  0  0
 16 17  2  0  0  0
 17 18  1  0  0  0
 18 19  2  0  0  0
 18 22  1  0  0  0
 26 27  1  0  0  0
 27 28  2  0  0  0
 27 29  1  0  0  0
 22 23  1  0  0  0
 22 24  1  0  0  0
 22 25  1  0  0  0
 29 30  1  0  0  0
M  END
> <minimizedAffinity>
-7.85094

$$$$
4KYH_ZST_A_203


 30 33  0  0  0  0  0  0  0  0999 V2000
   -9.4650   12.5818   -0.1017 C   0  0  0  0  0  0  0  0  0  0  0  0
  -10.5095   12.9897   -0.5545 O   0  0  0  0  0  0  0  0  0  0  0  0
   -9.4209   11.5957    0.9804 C   0  0  0  0  0  0  0  0  0  0  0  0
   -8.1878   11.0573    1.4174 C   0  0  0  0  0  0  0  0  0  0  0  0
   -6.9599   11.5867    0.7526 C   0  0  0  0  0  0  0  0  0  0  0  0
  -10.6195   11.1385    1.5400 C   0  0  0  0  0  0  0  0  0  0  0  0
  -10.5988   10.1404    2.4998 C   0  0  0  0  0  0  0  0  0  0  0  0
   -9.3948    9.5915    2.9100 C   0  0  0  0  0  0  0  0  0  0  0  0
   -8.1919   10.0472    2.3791 C   0  0  0  0  0  0  0  0  0  0  0  0
   -8.1787   12.9864   -0.6490 N   0  0  0  0  0  0  0  0  0  0  0  0
   -6.9634   12.4723   -0.1925 N   0  0  0  0  0  0  0  0  0  0  0  0
   -8.1421   13.9608   -1.7273 C   0  0  0  0  0  0  0  0  0  0  0  0
   -7.8382   15.3273   -1.1920 C   0  0  0  0  0  0  0  0  0  0  0  0
   -7.5018   17.7332   -1.0372 C   0  0  0  0  0  0  0  0  0  0  0  0
   -7.1667   16.9890    0.1002 C   0  0  0  0  0  0  0  0  0  0  0  0
   -7.3508   19.1162   -1.0669 C   0  0  0  0  0  0  0  0  0  0  0  0
   -6.8887   19.7514    0.0715 C   0  0  0  0  0  0  0  0  0  0  0  0
   -6.5774   19.0313    1.2172 C   0  0  0  0  0  0  0  0  0  0  0  0
   -6.7087   17.6440    1.2362 C   0  0  0  0  0  0  0  0  0  0  0  0
   -7.3603   15.6104   -0.0244 N   0  0  0  0  0  0  0  0  0  0  0  0
   -8.1070   16.6804   -2.2665 S   0  0  0  0  0  0  0  0  0  0  0  0
   -6.1044   19.7468    2.4263 C   0  0  0  0  0  0  0  0  0  0  0  0
   -6.5028   19.1383    3.5423 F   0  0  0  0  0  0  0  0  0  0  0  0
   -4.8139   19.7488    2.4216 F   0  0  0  0  0  0  0  0  0  0  0  0
   -6.4765   21.0635    2.4948 F   0  0  0  0  0  0  0  0  0  0  0  0
   -5.5888   11.1309    1.2028 C   0  0  0  0  0  0  0  0  0  0  0  0
   -4.4933   12.1354    0.9374 C   0  0  0  0  0  0  0  0  0  0  0  0
   -4.1592   12.8663    1.9720 O   0  0  0  0  0  0  0  0  0  0  0  0
   -3.9466   12.2407   -0.1460 O   0  0  0  0  0  0  0  0  0  0  0  0
   -4.2156   11.6985   -0.8612 H   0  0  0  0  0  0  0  0  0  0  0  0
  1  2  2  0  0  0
  1  3  1  0  0  0
  1 10  1  0  0  0
  3  4  2  0  0  0
  3  6  1  0  0  0
  4  5  1  0  0  0
  4  9  1  0  0  0
  5 11  2  0  0  0
  5 26  1  0  0  0
  6  7  2  0  0  0
  7  8  1  0  0  0
  8  9  2  0  0  0
 10 11  1  0  0  0
 10 12  1  0  0  0
 12 13  1  0  0  0
 13 20  2  0  0  0
 13 21  1  0  0  0
 14 15  2  0  0  0
 14 16  1  0  0  0
 14 21  1  0  0  0
 15 19  1  0  0  0
 15 20  1  0  0  0
 16 17  2  0  0  0
 17 18  1  0  0  0
 18 19  2  0  0  0
 18 22  1  0  0  0
 26 27  1  0  0  0
 27 28  2  0  0  0
 27 29  1  0  0  0
 22 23  1  0  0  0
 22 24  1  0  0  0
 22 25  1  0  0  0
 29 30  1  0  0  0
M  END
> <minimizedAffinity>
-7.79679

$$$$
4KYH_ZST_A_203


 30 33  0  0  0  0  0  0  0  0999 V2000
   -8.5299   13.4348   -0.1906 C   0  0  0  0  0  0  0  0  0  0  0  0
   -9.3619   14.1390   -0.7143 O   0  0  0  0  0  0  0  0  0  0  0  0
   -8.8973   12.3183    0.6833 C   0  0  0  0  0  0  0  0  0  0  0  0
   -7.9081   11.4467    1.1962 C   0  0  0  0  0  0  0  0  0  0  0  0
   -6.4937   11.7638    0.8374 C   0  0  0  0  0  0  0  0  0  0  0  0
  -10.2486   12.0790    0.9579 C   0  0  0  0  0  0  0  0  0  0  0  0
  -10.6176   10.9743    1.7072 C   0  0  0  0  0  0  0  0  0  0  0  0
   -9.6534   10.1034    2.1877 C   0  0  0  0  0  0  0  0  0  0  0  0
   -8.3037   10.3360    1.9413 C   0  0  0  0  0  0  0  0  0  0  0  0
   -7.1076   13.6012   -0.4496 N   0  0  0  0  0  0  0  0  0  0  0  0
   -6.1342   12.7541    0.0841 N   0  0  0  0  0  0  0  0  0  0  0  0
   -6.6659   14.6869   -1.3096 C   0  0  0  0  0  0  0  0  0  0  0  0
   -6.5459   15.9609   -0.5294 C   0  0  0  0  0  0  0  0  0  0  0  0
   -6.1642   17.5414    1.2822 C   0  0  0  0  0  0  0  0  0  0  0  0
   -6.6728   18.0772    0.0930 C   0  0  0  0  0  0  0  0  0  0  0  0
   -5.9072   18.3477    2.3869 C   0  0  0  0  0  0  0  0  0  0  0  0
   -6.1362   19.7070    2.2757 C   0  0  0  0  0  0  0  0  0  0  0  0
   -6.6148   20.2588    1.0948 C   0  0  0  0  0  0  0  0  0  0  0  0
   -6.8921   19.4454   -0.0024 C   0  0  0  0  0  0  0  0  0  0  0  0
   -6.8917   17.1430   -0.9233 N   0  0  0  0  0  0  0  0  0  0  0  0
   -5.9221   15.8403    1.0997 S   0  0  0  0  0  0  0  0  0  0  0  0
   -6.8290   21.7227    1.0040 C   0  0  0  0  0  0  0  0  0  0  0  0
   -6.5758   22.3273    2.1637 F   0  0  0  0  0  0  0  0  0  0  0  0
   -6.0125   22.2019    0.1271 F   0  0  0  0  0  0  0  0  0  0  0  0
   -8.0801   22.0936    0.5866 F   0  0  0  0  0  0  0  0  0  0  0  0
   -5.3576   10.9370    1.3997 C   0  0  0  0  0  0  0  0  0  0  0  0
   -3.9886   11.5083    1.1182 C   0  0  0  0  0  0  0  0  0  0  0  0
   -3.3025   10.8613    0.2090 O   0  0  0  0  0  0  0  0  0  0  0  0
   -3.5658   12.5060    1.6746 O   0  0  0  0  0  0  0  0  0  0  0  0
   -4.0886   12.9397    2.3199 H   0  0  0  0  0  0  0  0  0  0  0  0
  1  2  2  0  0  0
  1  3  1  0  0  0
  1 10  1  0  0  0
  3  4  2  0  0  0
  3  6  1  0  0  0
  4  5  1  0  0  0
  4  9  1  0  0  0
  5 11  2  0  0  0
  5 26  1  0  0  0
  6  7  2  0  0  0
  7  8  1  0  0  0
  8  9  2  0  0  0
 10 11  1  0  0  0
 10 12  1  0  0  0
 12 13  1  0  0  0
 13 20  2  0  0  0
 13 21  1  0  0  0
 14 15  2  0  0  0
 14 16  1  0  0  0
 14 21  1  0  0  0
 15 19  1  0  0  0
 15 20  1  0  0  0
 16 17  2  0  0  0
 17 18  1  0  0  0
 18 19  2  0  0  0
 18 22  1  0  0  0
 26 27  1  0  0  0
 27 28  2  0  0  0
 27 29  1  0  0  0
 22 23  1  0  0  0
 22 24  1  0  0  0
 22 25  1  0  0  0
 29 30  1  0  0  0
M  END
> <minimizedAffinity>
-7.78297

$$$$
4KYH_ZST_A_203


 30 33  0  0  0  0  0  0  0  0999 V2000
   -2.9146   14.6222    1.2341 C   0  0  0  0  0  0  0  0  0  0  0  0
   -2.3699   15.6947    1.3585 O   0  0  0  0  0  0  0  0  0  0  0  0
   -2.4143   13.6002    0.3119 C   0  0  0  0  0  0  0  0  0  0  0  0
   -3.0076   12.3168    0.2650 C   0  0  0  0  0  0  0  0  0  0  0  0
   -4.1821   12.0957    1.1603 C   0  0  0  0  0  0  0  0  0  0  0  0
   -1.2972   13.8821   -0.4827 C   0  0  0  0  0  0  0  0  0  0  0  0
   -0.7571   12.8966   -1.2920 C   0  0  0  0  0  0  0  0  0  0  0  0
   -1.3188   11.6306   -1.3195 C   0  0  0  0  0  0  0  0  0  0  0  0
   -2.4415   11.3377   -0.5512 C   0  0  0  0  0  0  0  0  0  0  0  0
   -4.0621   14.2433    2.0449 N   0  0  0  0  0  0  0  0  0  0  0  0
   -4.6610   12.9840    1.9720 N   0  0  0  0  0  0  0  0  0  0  0  0
   -4.6140   15.2048    2.9854 C   0  0  0  0  0  0  0  0  0  0  0  0
   -5.2926   16.3246    2.2561 C   0  0  0  0  0  0  0  0  0  0  0  0
   -6.5787   17.5745    0.6101 C   0  0  0  0  0  0  0  0  0  0  0  0
   -5.9359   18.3327    1.5961 C   0  0  0  0  0  0  0  0  0  0  0  0
   -7.3414   18.1791   -0.3844 C   0  0  0  0  0  0  0  0  0  0  0  0
   -7.4796   19.5550   -0.3614 C   0  0  0  0  0  0  0  0  0  0  0  0
   -6.8710   20.3198    0.6250 C   0  0  0  0  0  0  0  0  0  0  0  0
   -6.0897   19.7131    1.6067 C   0  0  0  0  0  0  0  0  0  0  0  0
   -5.1968   17.5870    2.5187 N   0  0  0  0  0  0  0  0  0  0  0  0
   -6.2772   15.8941    0.8766 S   0  0  0  0  0  0  0  0  0  0  0  0
   -7.0575   21.7903    0.6313 C   0  0  0  0  0  0  0  0  0  0  0  0
   -6.2602   22.3888   -0.2523 F   0  0  0  0  0  0  0  0  0  0  0  0
   -8.2765   22.0494    0.2960 F   0  0  0  0  0  0  0  0  0  0  0  0
   -6.8749   22.3855    1.8517 F   0  0  0  0  0  0  0  0  0  0  0  0
   -4.9333   10.7823    1.1271 C   0  0  0  0  0  0  0  0  0  0  0  0
   -6.4132   10.9179    1.3941 C   0  0  0  0  0  0  0  0  0  0  0  0
   -7.1383   11.1789    0.3347 O   0  0  0  0  0  0  0  0  0  0  0  0
   -6.8971   10.7719    2.5023 O   0  0  0  0  0  0  0  0  0  0  0  0
   -6.3430   10.5861    3.2347 H   0  0  0  0  0  0  0  0  0  0  0  0
  1  2  2  0  0  0
  1  3  1  0  0  0
  1 10  1  0  0  0
  3  4  2  0  0  0
  3  6  1  0  0  0
  4  5  1  0  0  0
  4  9  1  0  0  0
  5 11  2  0  0  0
  5 26  1  0  0  0
  6  7  2  0  0  0
  7  8  1  0  0  0
  8  9  2  0  0  0
 10 11  1  0  0  0
 10 12  1  0  0  0
 12 13  1  0  0  0
 13 20  2  0  0  0
 13 21  1  0  0  0
 14 15  2  0  0  0
 14 16  1  0  0  0
 14 21  1  0  0  0
 15 19  1  0  0  0
 15 20  1  0  0  0
 16 17  2  0  0  0
 17 18  1  0  0  0
 18 19  2  0  0  0
 18 22  1  0  0  0
 26 27  1  0  0  0
 27 28  2  0  0  0
 27 29  1  0  0  0
 22 23  1  0  0  0
 22 24  1  0  0  0
 22 25  1  0  0  0
 29 30  1  0  0  0
M  END
> <minimizedAffinity>
-7.61825

$$$$
4KYH_ZST_A_203


 30 33  0  0  0  0  0  0  0  0999 V2000
   -6.6345   11.5548    0.7686 C   0  0  0  0  0  0  0  0  0  0  0  0
   -6.2791   10.4051    0.8888 O   0  0  0  0  0  0  0  0  0  0  0  0
   -7.8375   11.9206    0.0174 C   0  0  0  0  0  0  0  0  0  0  0  0
   -8.2878   13.2612   -0.0171 C   0  0  0  0  0  0  0  0  0  0  0  0
   -7.4465   14.2625    0.7037 C   0  0  0  0  0  0  0  0  0  0  0  0
   -8.5799   10.9185   -0.6176 C   0  0  0  0  0  0  0  0  0  0  0  0
   -9.7680   11.2356   -1.2544 C   0  0  0  0  0  0  0  0  0  0  0  0
  -10.2261   12.5430   -1.2664 C   0  0  0  0  0  0  0  0  0  0  0  0
   -9.4914   13.5558   -0.6572 C   0  0  0  0  0  0  0  0  0  0  0  0
   -5.9332   12.6494    1.4227 N   0  0  0  0  0  0  0  0  0  0  0  0
   -6.3675   13.9750    1.3598 N   0  0  0  0  0  0  0  0  0  0  0  0
   -4.7311   12.3638    2.1888 C   0  0  0  0  0  0  0  0  0  0  0  0
   -3.6342   13.3169    1.8218 C   0  0  0  0  0  0  0  0  0  0  0  0
   -1.7703   14.3690    0.6621 C   0  0  0  0  0  0  0  0  0  0  0  0
   -2.1436   14.9468    1.8815 C   0  0  0  0  0  0  0  0  0  0  0  0
   -0.7182   14.8830   -0.0896 C   0  0  0  0  0  0  0  0  0  0  0  0
   -0.0621   16.0062    0.3802 C   0  0  0  0  0  0  0  0  0  0  0  0
   -0.4370   16.6079    1.5742 C   0  0  0  0  0  0  0  0  0  0  0  0
   -1.4768   16.0775    2.3356 C   0  0  0  0  0  0  0  0  0  0  0  0
   -3.2086   14.3132    2.5278 N   0  0  0  0  0  0  0  0  0  0  0  0
   -2.8053   13.0312    0.3089 S   0  0  0  0  0  0  0  0  0  0  0  0
    0.2746   17.8230    2.0374 C   0  0  0  0  0  0  0  0  0  0  0  0
   -0.3841   18.9323    1.7058 F   0  0  0  0  0  0  0  0  0  0  0  0
    0.3529   17.7852    3.3250 F   0  0  0  0  0  0  0  0  0  0  0  0
    1.5650   17.9361    1.5911 F   0  0  0  0  0  0  0  0  0  0  0  0
   -7.8015   15.7331    0.6609 C   0  0  0  0  0  0  0  0  0  0  0  0
   -6.6036   16.6518    0.6881 C   0  0  0  0  0  0  0  0  0  0  0  0
   -6.2684   17.1479   -0.4772 O   0  0  0  0  0  0  0  0  0  0  0  0
   -6.0112   16.9291    1.7157 O   0  0  0  0  0  0  0  0  0  0  0  0
   -6.2830   16.5523    2.5294 H   0  0  0  0  0  0  0  0  0  0  0  0
  1  2  2  0  0  0
  1  3  1  0  0  0
  1 10  1  0  0  0
  3  4  2  0  0  0
  3  6  1  0  0  0
  4  5  1  0  0  0
  4  9  1  0  0  0
  5 11  2  0  0  0
  5 26  1  0  0  0
  6  7  2  0  0  0
  7  8  1  0  0  0
  8  9  2  0  0  0
 10 11  1  0  0  0
 10 12  1  0  0  0
 12 13  1  0  0  0
 13 20  2  0  0  0
 13 21  1  0  0  0
 14 15  2  0  0  0
 14 16  1  0  0  0
 14 21  1  0  0  0
 15 19  1  0  0  0
 15 20  1  0  0  0
 16 17  2  0  0  0
 17 18  1  0  0  0
 18 19  2  0  0  0
 18 22  1  0  0  0
 26 27  1  0  0  0
 27 28  2  0  0  0
 27 29  1  0  0  0
 22 23  1  0  0  0
 22 24  1  0  0  0
 22 25  1  0  0  0
 29 30  1  0  0  0
M  END
> <minimizedAffinity>
-7.49709

$$$$
4KYH_ZST_A_203


 30 33  0  0  0  0  0  0  0  0999 V2000
   -8.3116   20.0288   -1.3995 C   0  0  0  0  0  0  0  0  0  0  0  0
   -9.1373   20.1603   -2.2732 O   0  0  0  0  0  0  0  0  0  0  0  0
   -7.9068   21.1438   -0.5403 C   0  0  0  0  0  0  0  0  0  0  0  0
   -7.0190   20.9368    0.5415 C   0  0  0  0  0  0  0  0  0  0  0  0
   -6.4949   19.5491    0.7135 C   0  0  0  0  0  0  0  0  0  0  0  0
   -8.4574   22.4118   -0.7584 C   0  0  0  0  0  0  0  0  0  0  0  0
   -8.1550   23.4549    0.1009 C   0  0  0  0  0  0  0  0  0  0  0  0
   -7.3077   23.2488    1.1774 C   0  0  0  0  0  0  0  0  0  0  0  0
   -6.7354   21.9998    1.3987 C   0  0  0  0  0  0  0  0  0  0  0  0
   -7.7159   18.7372   -1.0919 N   0  0  0  0  0  0  0  0  0  0  0  0
   -6.8173   18.5464   -0.0402 N   0  0  0  0  0  0  0  0  0  0  0  0
   -8.0709   17.5822   -1.9002 C   0  0  0  0  0  0  0  0  0  0  0  0
   -7.8884   16.3165   -1.1186 C   0  0  0  0  0  0  0  0  0  0  0  0
   -8.2300   14.5057    0.4721 C   0  0  0  0  0  0  0  0  0  0  0  0
   -7.0301   14.4756   -0.2488 C   0  0  0  0  0  0  0  0  0  0  0  0
   -8.5347   13.5243    1.4103 C   0  0  0  0  0  0  0  0  0  0  0  0
   -7.6348   12.4907    1.5961 C   0  0  0  0  0  0  0  0  0  0  0  0
   -6.4526   12.4309    0.8701 C   0  0  0  0  0  0  0  0  0  0  0  0
   -6.1403   13.4273   -0.0529 C   0  0  0  0  0  0  0  0  0  0  0  0
   -6.8590   15.5344   -1.1449 N   0  0  0  0  0  0  0  0  0  0  0  0
   -9.1717   15.8689   -0.0184 S   0  0  0  0  0  0  0  0  0  0  0  0
   -5.5207   11.2974    1.0798 C   0  0  0  0  0  0  0  0  0  0  0  0
   -5.0469   11.2770    2.3246 F   0  0  0  0  0  0  0  0  0  0  0  0
   -6.1664   10.1965    0.8893 F   0  0  0  0  0  0  0  0  0  0  0  0
   -4.4606   11.2597    0.2126 F   0  0  0  0  0  0  0  0  0  0  0  0
   -5.4801   19.2426    1.7936 C   0  0  0  0  0  0  0  0  0  0  0  0
   -4.9416   17.8329    1.7438 C   0  0  0  0  0  0  0  0  0  0  0  0
   -3.6978   17.7365    1.3442 O   0  0  0  0  0  0  0  0  0  0  0  0
   -5.6035   16.8646    2.0726 O   0  0  0  0  0  0  0  0  0  0  0  0
   -6.4906   16.9767    2.3527 H   0  0  0  0  0  0  0  0  0  0  0  0
  1  2  2  0  0  0
  1  3  1  0  0  0
  1 10  1  0  0  0
  3  4  2  0  0  0
  3  6  1  0  0  0
  4  5  1  0  0  0
  4  9  1  0  0  0
  5 11  2  0  0  0
  5 26  1  0  0  0
  6  7  2  0  0  0
  7  8  1  0  0  0
  8  9  2  0  0  0
 10 11  1  0  0  0
 10 12  1  0  0  0
 12 13  1  0  0  0
 13 20  2  0  0  0
 13 21  1  0  0  0
 14 15  2  0  0  0
 14 16  1  0  0  0
 14 21  1  0  0  0
 15 19  1  0  0  0
 15 20  1  0  0  0
 16 17  2  0  0  0
 17 18  1  0  0  0
 18 19  2  0  0  0
 18 22  1  0  0  0
 26 27  1  0  0  0
 27 28  2  0  0  0
 27 29  1  0  0  0
 22 23  1  0  0  0
 22 24  1  0  0  0
 22 25  1  0  0  0
 29 30  1  0  0  0
M  END
> <minimizedAffinity>
-7.43552

$$$$
4KYH_ZST_A_203


 30 33  0  0  0  0  0  0  0  0999 V2000
   -4.0313   14.0630    2.6857 C   0  0  0  0  0  0  0  0  0  0  0  0
   -4.6437   14.8271    3.3953 O   0  0  0  0  0  0  0  0  0  0  0  0
   -4.6519   12.8630    2.1201 C   0  0  0  0  0  0  0  0  0  0  0  0
   -3.9440   12.0450    1.2084 C   0  0  0  0  0  0  0  0  0  0  0  0
   -2.5380   12.4488    0.9082 C   0  0  0  0  0  0  0  0  0  0  0  0
   -5.9811   12.5635    2.4396 C   0  0  0  0  0  0  0  0  0  0  0  0
   -6.6103   11.4841    1.8421 C   0  0  0  0  0  0  0  0  0  0  0  0
   -5.9286   10.6974    0.9279 C   0  0  0  0  0  0  0  0  0  0  0  0
   -4.6006   10.9683    0.6127 C   0  0  0  0  0  0  0  0  0  0  0  0
   -2.6563   14.3201    2.2843 N   0  0  0  0  0  0  0  0  0  0  0  0
   -1.9539   13.4918    1.4066 N   0  0  0  0  0  0  0  0  0  0  0  0
   -1.9739   15.4940    2.8036 C   0  0  0  0  0  0  0  0  0  0  0  0
   -0.9985   16.0243    1.7968 C   0  0  0  0  0  0  0  0  0  0  0  0
   -0.0479   16.9493   -0.2444 C   0  0  0  0  0  0  0  0  0  0  0  0
    0.8672   16.5579    0.7402 C   0  0  0  0  0  0  0  0  0  0  0  0
    0.3781   17.4903   -1.4536 C   0  0  0  0  0  0  0  0  0  0  0  0
    1.7354   17.6651   -1.6534 C   0  0  0  0  0  0  0  0  0  0  0  0
    2.6553   17.3074   -0.6766 C   0  0  0  0  0  0  0  0  0  0  0  0
    2.2264   16.7454    0.5245 C   0  0  0  0  0  0  0  0  0  0  0  0
    0.2908   16.0205    1.8945 N   0  0  0  0  0  0  0  0  0  0  0  0
   -1.6597   16.6710    0.3128 S   0  0  0  0  0  0  0  0  0  0  0  0
    4.1014   17.5281   -0.9160 C   0  0  0  0  0  0  0  0  0  0  0  0
    4.3473   18.7764   -1.3107 F   0  0  0  0  0  0  0  0  0  0  0  0
    4.7333   17.3372    0.1929 F   0  0  0  0  0  0  0  0  0  0  0  0
    4.6701   16.6688   -1.8189 F   0  0  0  0  0  0  0  0  0  0  0  0
   -1.6729   11.5960    0.0056 C   0  0  0  0  0  0  0  0  0  0  0  0
   -0.2460   12.0771   -0.1057 C   0  0  0  0  0  0  0  0  0  0  0  0
    0.6315   11.3366    0.5251 O   0  0  0  0  0  0  0  0  0  0  0  0
    0.0672   13.0615   -0.7512 O   0  0  0  0  0  0  0  0  0  0  0  0
   -0.5918   13.5645   -1.1879 H   0  0  0  0  0  0  0  0  0  0  0  0
  1  2  2  0  0  0
  1  3  1  0  0  0
  1 10  1  0  0  0
  3  4  2  0  0  0
  3  6  1  0  0  0
  4  5  1  0  0  0
  4  9  1  0  0  0
  5 11  2  0  0  0
  5 26  1  0  0  0
  6  7  2  0  0  0
  7  8  1  0  0  0
  8  9  2  0  0  0
 10 11  1  0  0  0
 10 12  1  0  0  0
 12 13  1  0  0  0
 13 20  2  0  0  0
 13 21  1  0  0  0
 14 15  2  0  0  0
 14 16  1  0  0  0
 14 21  1  0  0  0
 15 19  1  0  0  0
 15 20  1  0  0  0
 16 17  2  0  0  0
 17 18  1  0  0  0
 18 19  2  0  0  0
 18 22  1  0  0  0
 26 27  1  0  0  0
 27 28  2  0  0  0
 27 29  1  0  0  0
 22 23  1  0  0  0
 22 24  1  0  0  0
 22 25  1  0  0  0
 29 30  1  0  0  0
M  END
> <minimizedAffinity>
-7.37234

$$$$
4KYH_ZST_A_203


 30 33  0  0  0  0  0  0  0  0999 V2000
   -6.0668   18.8857    1.6365 C   0  0  0  0  0  0  0  0  0  0  0  0
   -5.3488   19.4519    2.4281 O   0  0  0  0  0  0  0  0  0  0  0  0
   -6.8629   19.6183    0.6492 C   0  0  0  0  0  0  0  0  0  0  0  0
   -7.6106   18.9268   -0.3327 C   0  0  0  0  0  0  0  0  0  0  0  0
   -7.5753   17.4354   -0.2651 C   0  0  0  0  0  0  0  0  0  0  0  0
   -6.8285   21.0174    0.6431 C   0  0  0  0  0  0  0  0  0  0  0  0
   -7.5028   21.7221   -0.3401 C   0  0  0  0  0  0  0  0  0  0  0  0
   -8.2132   21.0473   -1.3195 C   0  0  0  0  0  0  0  0  0  0  0  0
   -8.2748   19.6571   -1.3179 C   0  0  0  0  0  0  0  0  0  0  0  0
   -6.1344   17.4341    1.5606 N   0  0  0  0  0  0  0  0  0  0  0  0
   -6.8981   16.7582    0.6067 N   0  0  0  0  0  0  0  0  0  0  0  0
   -5.3695   16.6383    2.5067 C   0  0  0  0  0  0  0  0  0  0  0  0
   -4.7888   15.4325    1.8320 C   0  0  0  0  0  0  0  0  0  0  0  0
   -4.3957   13.1357    1.1278 C   0  0  0  0  0  0  0  0  0  0  0  0
   -3.4581   14.0821    0.6973 C   0  0  0  0  0  0  0  0  0  0  0  0
   -4.2744   11.7916    0.7887 C   0  0  0  0  0  0  0  0  0  0  0  0
   -3.2166   11.4098   -0.0163 C   0  0  0  0  0  0  0  0  0  0  0  0
   -2.2928   12.3398   -0.4744 C   0  0  0  0  0  0  0  0  0  0  0  0
   -2.4047   13.6816   -0.1147 C   0  0  0  0  0  0  0  0  0  0  0  0
   -3.7054   15.3887    1.1276 N   0  0  0  0  0  0  0  0  0  0  0  0
   -5.6278   13.9147    2.0555 S   0  0  0  0  0  0  0  0  0  0  0  0
   -1.1832   11.8989   -1.3527 C   0  0  0  0  0  0  0  0  0  0  0  0
   -1.1698   12.5742   -2.5009 F   0  0  0  0  0  0  0  0  0  0  0  0
   -0.0666   12.1321   -0.7493 F   0  0  0  0  0  0  0  0  0  0  0  0
   -1.1768   10.5591   -1.6386 F   0  0  0  0  0  0  0  0  0  0  0  0
   -8.4033   16.6061   -1.2227 C   0  0  0  0  0  0  0  0  0  0  0  0
   -8.2200   15.1166   -1.0569 C   0  0  0  0  0  0  0  0  0  0  0  0
   -7.3850   14.5706   -1.9060 O   0  0  0  0  0  0  0  0  0  0  0  0
   -8.7846   14.4777   -0.1870 O   0  0  0  0  0  0  0  0  0  0  0  0
   -9.3750   14.9067    0.4008 H   0  0  0  0  0  0  0  0  0  0  0  0
  1  2  2  0  0  0
  1  3  1  0  0  0
  1 10  1  0  0  0
  3  4  2  0  0  0
  3  6  1  0  0  0
  4  5  1  0  0  0
  4  9  1  0  0  0
  5 11  2  0  0  0
  5 26  1  0  0  0
  6  7  2  0  0  0
  7  8  1  0  0  0
  8  9  2  0  0  0
 10 11  1  0  0  0
 10 12  1  0  0  0
 12 13  1  0  0  0
 13 20  2  0  0  0
 13 21  1  0  0  0
 14 15  2  0  0  0
 14 16  1  0  0  0
 14 21  1  0  0  0
 15 19  1  0  0  0
 15 20  1  0  0  0
 16 17  2  0  0  0
 17 18  1  0  0  0
 18 19  2  0  0  0
 18 22  1  0  0  0
 26 27  1  0  0  0
 27 28  2  0  0  0
 27 29  1  0  0  0
 22 23  1  0  0  0
 22 24  1  0  0  0
 22 25  1  0  0  0
 29 30  1  0  0  0
M  END
> <minimizedAffinity>
-7.22864

$$$$
