1H6H_PIB_A_150


 42 42  0  0  0  0  0  0  0  0999 V2000
   13.6980   16.9774    7.0084 C   0  0  0  0  0  0  0  0  0  0  0  0
   13.0652   16.9942    8.4205 C   0  0  0  0  0  0  0  0  0  0  0  0
   11.9051   15.9362    8.5000 C   0  0  0  0  0  0  0  0  0  0  0  0
   12.4576   14.5010    8.1447 C   0  0  0  0  0  0  0  0  0  0  0  0
   13.0541   14.5150    6.7071 C   0  0  0  0  0  0  0  0  0  0  0  0
   14.2164   15.5586    6.6422 C   0  0  0  0  0  0  0  0  0  0  0  0
   14.0637   16.6950    9.3839 O   0  0  0  0  0  0  0  0  0  0  0  0
   11.4005   13.5281    8.1910 O   0  0  0  0  0  0  0  0  0  0  0  0
   13.5792   13.2341    6.3921 O   0  0  0  0  0  0  0  0  0  0  0  0
   14.7566   15.5694    5.3207 O   0  0  0  0  0  0  0  0  0  0  0  0
   14.4325   15.8159    9.2049 H   0  0  0  0  0  0  0  0  0  0  0  0
   10.7172   13.7620    7.5434 H   0  0  0  0  0  0  0  0  0  0  0  0
   14.2769   13.0058    7.0261 H   0  0  0  0  0  0  0  0  0  0  0  0
   14.0632   15.8188    4.6900 H   0  0  0  0  0  0  0  0  0  0  0  0
   11.3783   16.0122    9.8293 O   0  0  0  0  0  0  0  0  0  0  0  0
    9.8074   15.8478   10.1901 P   0  0  0  0  0  0  0  0  0  0  0  0
    8.9552   16.1079    8.8779 O   0  0  0  0  0  0  0  0  0  0  0  0
    9.4508   16.9398   11.2774 O   0  0  0  0  0  0  0  0  0  0  0  0
    9.5886   14.3601   10.7150 O   0  0  0  0  0  0  0  0  0  0  0  0
    9.1005   17.0172    8.5730 H   0  0  0  0  0  0  0  0  0  0  0  0
    9.8206   13.7322   10.0130 H   0  0  0  0  0  0  0  0  0  0  0  0
   14.7970   17.9003    7.0037 O   0  0  0  0  0  0  0  0  0  0  0  0
   14.7100   19.4276    7.4130 P   0  0  0  0  0  0  0  0  0  0  0  0
   15.8207   20.2175    6.5838 O   0  0  0  0  0  0  0  0  0  0  0  0
   14.8926   19.6156    8.9576 O   0  0  0  0  0  0  0  0  0  0  0  0
   16.7014   19.9032    6.8419 H   0  0  0  0  0  0  0  0  0  0  0  0
   13.2461   19.9492    6.9850 O   0  0  0  0  0  0  0  0  0  0  0  0
   12.7716   21.2281    7.3605 C   0  0  0  0  0  0  0  0  0  0  0  0
   11.6170   20.9594    8.3114 C   0  0  0  0  0  0  0  0  0  0  0  0
   11.0476   19.5323    8.1144 C   0  0  0  0  0  0  0  0  0  0  0  0
    9.8683   19.4786    7.2841 O   0  0  0  0  0  0  0  0  0  0  0  0
    9.8641   18.5743    6.2250 C   0  0  0  0  0  0  0  0  0  0  0  0
    9.5104   17.3837    6.2814 O   0  0  0  0  0  0  0  0  0  0  0  0
   10.1082   19.2916    4.8901 C   0  0  0  0  0  0  0  0  0  0  0  0
   11.4828   19.0685    4.2236 C   0  0  0  0  0  0  0  0  0  0  0  0
   11.4915   19.4305    2.7299 C   0  0  0  0  0  0  0  0  0  0  0  0
   10.6192   22.0094    8.2551 O   0  0  0  0  0  0  0  0  0  0  0  0
   10.9777   23.2931    7.8265 C   0  0  0  0  0  0  0  0  0  0  0  0
   11.7761   24.0448    8.3869 O   0  0  0  0  0  0  0  0  0  0  0  0
    9.9815   23.8327    6.8071 C   0  0  0  0  0  0  0  0  0  0  0  0
    9.8805   23.0163    5.5079 C   0  0  0  0  0  0  0  0  0  0  0  0
   11.1617   23.0959    4.6784 C   0  0  0  0  0  0  0  0  0  0  0  0
  1  2  1  0  0  0
  1  6  1  0  0  0
  1 22  1  0  0  0
  2  3  1  0  0  0
  2  7  1  0  0  0
  3  4  1  0  0  0
  3 15  1  0  0  0
  4  5  1  0  0  0
  4  8  1  0  0  0
  5  6  1  0  0  0
  5  9  1  0  0  0
  6 10  1  0  0  0
 22 23  1  0  0  0
 15 16  1  0  0  0
 23 24  1  0  0  0
 23 25  2  0  0  0
 23 27  1  0  0  0
 27 28  1  0  0  0
 16 17  1  0  0  0
 16 18  2  0  0  0
 16 19  1  0  0  0
 28 29  1  0  0  0
 29 30  1  0  0  0
 29 37  1  0  0  0
 30 31  1  0  0  0
 32 34  1  0  0  0
 32 31  1  0  0  0
 32 33  2  0  0  0
 34 35  1  0  0  0
 35 36  1  0  0  0
 38 40  1  0  0  0
 38 37  1  0  0  0
 38 39  2  0  0  0
 40 41  1  0  0  0
 41 42  1  0  0  0
  7 11  1  0  0  0
  8 12  1  0  0  0
  9 13  1  0  0  0
 10 14  1  0  0  0
 24 26  1  0  0  0
 17 20  1  0  0  0
 19 21  1  0  0  0
M  END
> <minimizedAffinity>
-6.90072

$$$$
1H6H_PIB_A_150


 42 42  0  0  0  0  0  0  0  0999 V2000
   12.6646   17.8795    8.4814 C   0  0  0  0  0  0  0  0  0  0  0  0
   12.3839   16.6093    7.6431 C   0  0  0  0  0  0  0  0  0  0  0  0
   11.5696   15.5721    8.4990 C   0  0  0  0  0  0  0  0  0  0  0  0
   10.2244   16.2257    9.0036 C   0  0  0  0  0  0  0  0  0  0  0  0
   10.5478   17.4780    9.8695 C   0  0  0  0  0  0  0  0  0  0  0  0
   11.3440   18.5095    9.0056 C   0  0  0  0  0  0  0  0  0  0  0  0
   11.6482   16.9676    6.4834 O   0  0  0  0  0  0  0  0  0  0  0  0
    9.4816   15.2941    9.8075 O   0  0  0  0  0  0  0  0  0  0  0  0
    9.3411   18.0878   10.3025 O   0  0  0  0  0  0  0  0  0  0  0  0
   11.6408   19.6537    9.8062 O   0  0  0  0  0  0  0  0  0  0  0  0
   10.8078   17.3742    6.7465 H   0  0  0  0  0  0  0  0  0  0  0  0
   10.0090   15.0429   10.5819 H   0  0  0  0  0  0  0  0  0  0  0  0
    8.8202   18.3582    9.5302 H   0  0  0  0  0  0  0  0  0  0  0  0
   12.1799   19.3852   10.5666 H   0  0  0  0  0  0  0  0  0  0  0  0
   11.3498   14.4355    7.6562 O   0  0  0  0  0  0  0  0  0  0  0  0
   12.0942   13.0094    7.8490 P   0  0  0  0  0  0  0  0  0  0  0  0
   11.0071   11.8563    7.7832 O   0  0  0  0  0  0  0  0  0  0  0  0
   12.7734   13.0152    9.2774 O   0  0  0  0  0  0  0  0  0  0  0  0
   13.1483   12.8544    6.6652 O   0  0  0  0  0  0  0  0  0  0  0  0
   10.3746   11.9665    8.5103 H   0  0  0  0  0  0  0  0  0  0  0  0
   12.6820   12.8567    5.8146 H   0  0  0  0  0  0  0  0  0  0  0  0
   13.3409   18.8254    7.6404 O   0  0  0  0  0  0  0  0  0  0  0  0
   14.6681   19.6012    8.0203 P   0  0  0  0  0  0  0  0  0  0  0  0
   15.2198   20.2991    6.6960 O   0  0  0  0  0  0  0  0  0  0  0  0
   15.7285   18.6398    8.6572 O   0  0  0  0  0  0  0  0  0  0  0  0
   15.4630   19.6185    6.0491 H   0  0  0  0  0  0  0  0  0  0  0  0
   14.2637   20.7315    9.0962 O   0  0  0  0  0  0  0  0  0  0  0  0
   14.1493   22.0951    8.7369 C   0  0  0  0  0  0  0  0  0  0  0  0
   12.7982   22.2125    8.0510 C   0  0  0  0  0  0  0  0  0  0  0  0
   12.9070   23.0129    6.7292 C   0  0  0  0  0  0  0  0  0  0  0  0
   12.9706   22.1891    5.5459 O   0  0  0  0  0  0  0  0  0  0  0  0
   11.7676   21.7506    4.9981 C   0  0  0  0  0  0  0  0  0  0  0  0
   10.9793   22.4349    4.3226 O   0  0  0  0  0  0  0  0  0  0  0  0
   11.6394   20.2249    5.1058 C   0  0  0  0  0  0  0  0  0  0  0  0
   10.3711   19.5903    4.4958 C   0  0  0  0  0  0  0  0  0  0  0  0
    9.3342   19.1839    5.5551 C   0  0  0  0  0  0  0  0  0  0  0  0
   11.7764   22.6989    8.9568 O   0  0  0  0  0  0  0  0  0  0  0  0
   10.4235   22.5653    8.6221 C   0  0  0  0  0  0  0  0  0  0  0  0
    9.9040   21.5818    8.0936 O   0  0  0  0  0  0  0  0  0  0  0  0
    9.7211   23.9179    8.6140 C   0  0  0  0  0  0  0  0  0  0  0  0
    9.6910   24.6221    7.2474 C   0  0  0  0  0  0  0  0  0  0  0  0
    9.4708   26.1285    7.3822 C   0  0  0  0  0  0  0  0  0  0  0  0
  1  2  1  0  0  0
  1  6  1  0  0  0
  1 22  1  0  0  0
  2  3  1  0  0  0
  2  7  1  0  0  0
  3  4  1  0  0  0
  3 15  1  0  0  0
  4  5  1  0  0  0
  4  8  1  0  0  0
  5  6  1  0  0  0
  5  9  1  0  0  0
  6 10  1  0  0  0
 22 23  1  0  0  0
 15 16  1  0  0  0
 23 24  1  0  0  0
 23 25  2  0  0  0
 23 27  1  0  0  0
 27 28  1  0  0  0
 16 17  1  0  0  0
 16 18  2  0  0  0
 16 19  1  0  0  0
 28 29  1  0  0  0
 29 30  1  0  0  0
 29 37  1  0  0  0
 30 31  1  0  0  0
 32 34  1  0  0  0
 32 31  1  0  0  0
 32 33  2  0  0  0
 34 35  1  0  0  0
 35 36  1  0  0  0
 38 40  1  0  0  0
 38 37  1  0  0  0
 38 39  2  0  0  0
 40 41  1  0  0  0
 41 42  1  0  0  0
  7 11  1  0  0  0
  8 12  1  0  0  0
  9 13  1  0  0  0
 10 14  1  0  0  0
 24 26  1  0  0  0
 17 20  1  0  0  0
 19 21  1  0  0  0
M  END
> <minimizedAffinity>
-6.75577

$$$$
1H6H_PIB_A_150


 42 42  0  0  0  0  0  0  0  0999 V2000
   11.9008   17.9373    8.5491 C   0  0  0  0  0  0  0  0  0  0  0  0
   11.5520   16.5933    7.8658 C   0  0  0  0  0  0  0  0  0  0  0  0
   11.1084   15.5421    8.9474 C   0  0  0  0  0  0  0  0  0  0  0  0
    9.8784   16.0963    9.7668 C   0  0  0  0  0  0  0  0  0  0  0  0
   10.2773   17.4285   10.4660 C   0  0  0  0  0  0  0  0  0  0  0  0
   10.7021   18.4717    9.3818 C   0  0  0  0  0  0  0  0  0  0  0  0
   10.5042   16.8020    6.9314 O   0  0  0  0  0  0  0  0  0  0  0  0
    9.4782   15.1534   10.7751 O   0  0  0  0  0  0  0  0  0  0  0  0
    9.1662   17.9475   11.1812 O   0  0  0  0  0  0  0  0  0  0  0  0
   11.0703   19.6896   10.0294 O   0  0  0  0  0  0  0  0  0  0  0  0
    9.7223   17.1429    7.3932 H   0  0  0  0  0  0  0  0  0  0  0  0
   10.2138   15.0057   11.3898 H   0  0  0  0  0  0  0  0  0  0  0  0
    8.4353   18.1151   10.5660 H   0  0  0  0  0  0  0  0  0  0  0  0
   11.8154   19.5249   10.6283 H   0  0  0  0  0  0  0  0  0  0  0  0
   10.8021   14.3364    8.2383 O   0  0  0  0  0  0  0  0  0  0  0  0
   11.4249   12.8871    8.6080 P   0  0  0  0  0  0  0  0  0  0  0  0
   12.9803   12.9090    8.2982 O   0  0  0  0  0  0  0  0  0  0  0  0
   10.7171   11.8145    7.6859 O   0  0  0  0  0  0  0  0  0  0  0  0
   11.1656   12.6347   10.1590 O   0  0  0  0  0  0  0  0  0  0  0  0
   13.1192   13.0635    7.3507 H   0  0  0  0  0  0  0  0  0  0  0  0
   11.6195   13.3171   10.6779 H   0  0  0  0  0  0  0  0  0  0  0  0
   12.2260   18.8857    7.5223 O   0  0  0  0  0  0  0  0  0  0  0  0
   13.6102   18.9663    6.7573 P   0  0  0  0  0  0  0  0  0  0  0  0
   14.5794   17.8672    7.3881 O   0  0  0  0  0  0  0  0  0  0  0  0
   14.2262   20.4041    6.8425 O   0  0  0  0  0  0  0  0  0  0  0  0
   14.7542   18.0851    8.3170 H   0  0  0  0  0  0  0  0  0  0  0  0
   13.3190   18.6051    5.2135 O   0  0  0  0  0  0  0  0  0  0  0  0
   12.0049   18.5774    4.6899 C   0  0  0  0  0  0  0  0  0  0  0  0
   11.8298   19.9136    3.9872 C   0  0  0  0  0  0  0  0  0  0  0  0
   10.6309   20.7022    4.5706 C   0  0  0  0  0  0  0  0  0  0  0  0
   10.3418   20.3972    5.9512 O   0  0  0  0  0  0  0  0  0  0  0  0
    9.7316   21.3870    6.7178 C   0  0  0  0  0  0  0  0  0  0  0  0
    9.4800   21.3192    7.9335 O   0  0  0  0  0  0  0  0  0  0  0  0
    9.6310   22.7034    5.9348 C   0  0  0  0  0  0  0  0  0  0  0  0
    9.9687   23.9972    6.7064 C   0  0  0  0  0  0  0  0  0  0  0  0
   11.4751   24.3005    6.7396 C   0  0  0  0  0  0  0  0  0  0  0  0
   11.7955   19.7620    2.5459 O   0  0  0  0  0  0  0  0  0  0  0  0
   12.5189   20.6424    1.7324 C   0  0  0  0  0  0  0  0  0  0  0  0
   12.7152   21.8372    1.9570 O   0  0  0  0  0  0  0  0  0  0  0  0
   12.7094   20.0698    0.3329 C   0  0  0  0  0  0  0  0  0  0  0  0
   13.7918   20.7664   -0.5084 C   0  0  0  0  0  0  0  0  0  0  0  0
   13.2858   21.1374   -1.9020 C   0  0  0  0  0  0  0  0  0  0  0  0
  1  2  1  0  0  0
  1  6  1  0  0  0
  1 22  1  0  0  0
  2  3  1  0  0  0
  2  7  1  0  0  0
  3  4  1  0  0  0
  3 15  1  0  0  0
  4  5  1  0  0  0
  4  8  1  0  0  0
  5  6  1  0  0  0
  5  9  1  0  0  0
  6 10  1  0  0  0
 22 23  1  0  0  0
 15 16  1  0  0  0
 23 24  1  0  0  0
 23 25  2  0  0  0
 23 27  1  0  0  0
 27 28  1  0  0  0
 16 17  1  0  0  0
 16 18  2  0  0  0
 16 19  1  0  0  0
 28 29  1  0  0  0
 29 30  1  0  0  0
 29 37  1  0  0  0
 30 31  1  0  0  0
 32 34  1  0  0  0
 32 31  1  0  0  0
 32 33  2  0  0  0
 34 35  1  0  0  0
 35 36  1  0  0  0
 38 40  1  0  0  0
 38 37  1  0  0  0
 38 39  2  0  0  0
 40 41  1  0  0  0
 41 42  1  0  0  0
  7 11  1  0  0  0
  8 12  1  0  0  0
  9 13  1  0  0  0
 10 14  1  0  0  0
 24 26  1  0  0  0
 17 20  1  0  0  0
 19 21  1  0  0  0
M  END
> <minimizedAffinity>
-6.71412

$$$$
1H6H_PIB_A_150


 42 42  0  0  0  0  0  0  0  0999 V2000
   13.5099   16.5487    7.1403 C   0  0  0  0  0  0  0  0  0  0  0  0
   12.8311   16.5974    8.5301 C   0  0  0  0  0  0  0  0  0  0  0  0
   11.6073   15.6111    8.5631 C   0  0  0  0  0  0  0  0  0  0  0  0
   12.0842   14.1467    8.2172 C   0  0  0  0  0  0  0  0  0  0  0  0
   12.7296   14.1312    6.8009 C   0  0  0  0  0  0  0  0  0  0  0  0
   13.9542   15.1030    6.7825 C   0  0  0  0  0  0  0  0  0  0  0  0
   13.7760   16.2339    9.5249 O   0  0  0  0  0  0  0  0  0  0  0  0
   10.9695   13.2393    8.2210 O   0  0  0  0  0  0  0  0  0  0  0  0
   13.1871   12.8224    6.4954 O   0  0  0  0  0  0  0  0  0  0  0  0
   14.5392   15.0871    5.4803 O   0  0  0  0  0  0  0  0  0  0  0  0
   14.0972   15.3350    9.3527 H   0  0  0  0  0  0  0  0  0  0  0  0
   10.3242   13.5170    7.5521 H   0  0  0  0  0  0  0  0  0  0  0  0
   13.8475   12.5494    7.1513 H   0  0  0  0  0  0  0  0  0  0  0  0
   13.8842   15.3809    4.8280 H   0  0  0  0  0  0  0  0  0  0  0  0
   11.0407   15.7127    9.8741 O   0  0  0  0  0  0  0  0  0  0  0  0
    9.8799   16.7684   10.2781 P   0  0  0  0  0  0  0  0  0  0  0  0
    8.9229   16.9729    9.0299 O   0  0  0  0  0  0  0  0  0  0  0  0
   10.5846   18.1389   10.6344 O   0  0  0  0  0  0  0  0  0  0  0  0
    9.0756   16.1507   11.5061 O   0  0  0  0  0  0  0  0  0  0  0  0
    9.4288   17.3492    8.2928 H   0  0  0  0  0  0  0  0  0  0  0  0
    8.6644   15.3148   11.2357 H   0  0  0  0  0  0  0  0  0  0  0  0
   14.6620   17.4035    7.1792 O   0  0  0  0  0  0  0  0  0  0  0  0
   14.6502   18.9364    7.5764 P   0  0  0  0  0  0  0  0  0  0  0  0
   15.7381   19.6805    6.6774 O   0  0  0  0  0  0  0  0  0  0  0  0
   14.9264   19.1316    9.1060 O   0  0  0  0  0  0  0  0  0  0  0  0
   16.6208   19.3383    6.8887 H   0  0  0  0  0  0  0  0  0  0  0  0
   13.1827   19.5043    7.2261 O   0  0  0  0  0  0  0  0  0  0  0  0
   12.4600   20.3123    8.1352 C   0  0  0  0  0  0  0  0  0  0  0  0
   11.0129   20.2257    7.6790 C   0  0  0  0  0  0  0  0  0  0  0  0
   10.0727   20.9886    8.6453 C   0  0  0  0  0  0  0  0  0  0  0  0
    9.9068   22.3858    8.3242 O   0  0  0  0  0  0  0  0  0  0  0  0
   10.4791   23.3192    9.1849 C   0  0  0  0  0  0  0  0  0  0  0  0
   10.9993   23.0746   10.2875 O   0  0  0  0  0  0  0  0  0  0  0  0
   10.6299   24.6819    8.4947 C   0  0  0  0  0  0  0  0  0  0  0  0
    9.4791   25.1190    7.5632 C   0  0  0  0  0  0  0  0  0  0  0  0
    9.8462   25.0306    6.0733 C   0  0  0  0  0  0  0  0  0  0  0  0
   10.6127   18.8570    7.4189 O   0  0  0  0  0  0  0  0  0  0  0  0
    9.7926   18.5641    6.3226 C   0  0  0  0  0  0  0  0  0  0  0  0
    9.3661   17.4500    6.0171 O   0  0  0  0  0  0  0  0  0  0  0  0
    9.7996   19.7021    5.3089 C   0  0  0  0  0  0  0  0  0  0  0  0
   10.5351   19.3921    3.9946 C   0  0  0  0  0  0  0  0  0  0  0  0
   11.9516   18.8723    4.2380 C   0  0  0  0  0  0  0  0  0  0  0  0
  1  2  1  0  0  0
  1  6  1  0  0  0
  1 22  1  0  0  0
  2  3  1  0  0  0
  2  7  1  0  0  0
  3  4  1  0  0  0
  3 15  1  0  0  0
  4  5  1  0  0  0
  4  8  1  0  0  0
  5  6  1  0  0  0
  5  9  1  0  0  0
  6 10  1  0  0  0
 22 23  1  0  0  0
 15 16  1  0  0  0
 23 24  1  0  0  0
 23 25  2  0  0  0
 23 27  1  0  0  0
 27 28  1  0  0  0
 16 17  1  0  0  0
 16 18  2  0  0  0
 16 19  1  0  0  0
 28 29  1  0  0  0
 29 30  1  0  0  0
 29 37  1  0  0  0
 30 31  1  0  0  0
 32 34  1  0  0  0
 32 31  1  0  0  0
 32 33  2  0  0  0
 34 35  1  0  0  0
 35 36  1  0  0  0
 38 40  1  0  0  0
 38 37  1  0  0  0
 38 39  2  0  0  0
 40 41  1  0  0  0
 41 42  1  0  0  0
  7 11  1  0  0  0
  8 12  1  0  0  0
  9 13  1  0  0  0
 10 14  1  0  0  0
 24 26  1  0  0  0
 17 20  1  0  0  0
 19 21  1  0  0  0
M  END
> <minimizedAffinity>
-6.71394

$$$$
1H6H_PIB_A_150


 42 42  0  0  0  0  0  0  0  0999 V2000
   14.1898   18.0614    8.1514 C   0  0  0  0  0  0  0  0  0  0  0  0
   14.3313   19.1705    7.0816 C   0  0  0  0  0  0  0  0  0  0  0  0
   13.8008   20.5359    7.6525 C   0  0  0  0  0  0  0  0  0  0  0  0
   14.5882   20.9140    8.9672 C   0  0  0  0  0  0  0  0  0  0  0  0
   14.3946   19.7931   10.0297 C   0  0  0  0  0  0  0  0  0  0  0  0
   14.9387   18.4432    9.4587 C   0  0  0  0  0  0  0  0  0  0  0  0
   15.6966   19.2942    6.7141 O   0  0  0  0  0  0  0  0  0  0  0  0
   14.0958   22.1496    9.5121 O   0  0  0  0  0  0  0  0  0  0  0  0
   15.1242   20.1132   11.2047 O   0  0  0  0  0  0  0  0  0  0  0  0
   14.7548   17.4188   10.4360 O   0  0  0  0  0  0  0  0  0  0  0  0
   16.2217   19.5289    7.4952 H   0  0  0  0  0  0  0  0  0  0  0  0
   13.1567   22.0533    9.7349 H   0  0  0  0  0  0  0  0  0  0  0  0
   16.0668   20.1907   10.9889 H   0  0  0  0  0  0  0  0  0  0  0  0
   13.8098   17.3276   10.6349 H   0  0  0  0  0  0  0  0  0  0  0  0
   13.9687   21.5031    6.6101 O   0  0  0  0  0  0  0  0  0  0  0  0
   13.1016   22.8668    6.4938 P   0  0  0  0  0  0  0  0  0  0  0  0
   11.8056   22.7228    7.3968 O   0  0  0  0  0  0  0  0  0  0  0  0
   12.6756   23.0335    4.9798 O   0  0  0  0  0  0  0  0  0  0  0  0
   14.0163   24.0629    7.0127 O   0  0  0  0  0  0  0  0  0  0  0  0
   11.2612   21.9909    7.0667 H   0  0  0  0  0  0  0  0  0  0  0  0
   14.2485   23.9126    7.9425 H   0  0  0  0  0  0  0  0  0  0  0  0
   14.7533   16.8547    7.6166 O   0  0  0  0  0  0  0  0  0  0  0  0
   13.9503   15.7439    6.8234 P   0  0  0  0  0  0  0  0  0  0  0  0
   14.7179   14.3585    7.0150 O   0  0  0  0  0  0  0  0  0  0  0  0
   13.7978   16.1211    5.3106 O   0  0  0  0  0  0  0  0  0  0  0  0
   15.5975   14.4176    6.6105 H   0  0  0  0  0  0  0  0  0  0  0  0
   12.4883   15.6469    7.4954 O   0  0  0  0  0  0  0  0  0  0  0  0
   11.3061   15.7872    6.7309 C   0  0  0  0  0  0  0  0  0  0  0  0
   10.7745   17.1693    7.0726 C   0  0  0  0  0  0  0  0  0  0  0  0
    9.6349   17.0900    8.1189 C   0  0  0  0  0  0  0  0  0  0  0  0
    9.4759   15.7867    8.7181 O   0  0  0  0  0  0  0  0  0  0  0  0
    9.8659   15.6340   10.0464 C   0  0  0  0  0  0  0  0  0  0  0  0
    9.8417   16.5168   10.9217 O   0  0  0  0  0  0  0  0  0  0  0  0
   10.0946   14.1544   10.3845 C   0  0  0  0  0  0  0  0  0  0  0  0
   11.4188   13.5279    9.8973 C   0  0  0  0  0  0  0  0  0  0  0  0
   11.2150   12.4706    8.8006 C   0  0  0  0  0  0  0  0  0  0  0  0
   10.4355   17.9239    5.8822 O   0  0  0  0  0  0  0  0  0  0  0  0
   10.6524   19.3066    5.8448 C   0  0  0  0  0  0  0  0  0  0  0  0
   10.6530   20.0640    6.8158 O   0  0  0  0  0  0  0  0  0  0  0  0
   10.4960   19.8514    4.4301 C   0  0  0  0  0  0  0  0  0  0  0  0
   11.7923   19.8848    3.6036 C   0  0  0  0  0  0  0  0  0  0  0  0
   11.5719   19.4036    2.1699 C   0  0  0  0  0  0  0  0  0  0  0  0
  1  2  1  0  0  0
  1  6  1  0  0  0
  1 22  1  0  0  0
  2  3  1  0  0  0
  2  7  1  0  0  0
  3  4  1  0  0  0
  3 15  1  0  0  0
  4  5  1  0  0  0
  4  8  1  0  0  0
  5  6  1  0  0  0
  5  9  1  0  0  0
  6 10  1  0  0  0
 22 23  1  0  0  0
 15 16  1  0  0  0
 23 24  1  0  0  0
 23 25  2  0  0  0
 23 27  1  0  0  0
 27 28  1  0  0  0
 16 17  1  0  0  0
 16 18  2  0  0  0
 16 19  1  0  0  0
 28 29  1  0  0  0
 29 30  1  0  0  0
 29 37  1  0  0  0
 30 31  1  0  0  0
 32 34  1  0  0  0
 32 31  1  0  0  0
 32 33  2  0  0  0
 34 35  1  0  0  0
 35 36  1  0  0  0
 38 40  1  0  0  0
 38 37  1  0  0  0
 38 39  2  0  0  0
 40 41  1  0  0  0
 41 42  1  0  0  0
  7 11  1  0  0  0
  8 12  1  0  0  0
  9 13  1  0  0  0
 10 14  1  0  0  0
 24 26  1  0  0  0
 17 20  1  0  0  0
 19 21  1  0  0  0
M  END
> <minimizedAffinity>
-6.70818

$$$$
1H6H_PIB_A_150


 42 42  0  0  0  0  0  0  0  0999 V2000
   10.7158   20.3214    6.2468 C   0  0  0  0  0  0  0  0  0  0  0  0
   11.9524   20.8779    5.5012 C   0  0  0  0  0  0  0  0  0  0  0  0
   11.6693   22.3465    5.0168 C   0  0  0  0  0  0  0  0  0  0  0  0
   11.2935   23.2588    6.2488 C   0  0  0  0  0  0  0  0  0  0  0  0
   10.0276   22.6875    6.9515 C   0  0  0  0  0  0  0  0  0  0  0  0
   10.3238   21.2331    7.4429 C   0  0  0  0  0  0  0  0  0  0  0  0
   13.0715   20.8604    6.3740 O   0  0  0  0  0  0  0  0  0  0  0  0
   11.0093   24.5994    5.8154 O   0  0  0  0  0  0  0  0  0  0  0  0
    9.7011   23.4871    8.0783 O   0  0  0  0  0  0  0  0  0  0  0  0
    9.1581   20.7136    8.0829 O   0  0  0  0  0  0  0  0  0  0  0  0
   12.8854   21.4126    7.1495 H   0  0  0  0  0  0  0  0  0  0  0  0
   10.2578   24.5886    5.2021 H   0  0  0  0  0  0  0  0  0  0  0  0
   10.4431   23.4839    8.7030 H   0  0  0  0  0  0  0  0  0  0  0  0
    8.4224   20.6972    7.4510 H   0  0  0  0  0  0  0  0  0  0  0  0
   12.8545   22.7864    4.3444 O   0  0  0  0  0  0  0  0  0  0  0  0
   12.8563   23.5053    2.8924 P   0  0  0  0  0  0  0  0  0  0  0  0
   14.2894   24.1365    2.6402 O   0  0  0  0  0  0  0  0  0  0  0  0
   11.7708   24.6551    2.9281 O   0  0  0  0  0  0  0  0  0  0  0  0
   12.5362   22.3881    1.8034 O   0  0  0  0  0  0  0  0  0  0  0  0
   14.4671   24.8136    3.3115 H   0  0  0  0  0  0  0  0  0  0  0  0
   13.2292   21.7097    1.8227 H   0  0  0  0  0  0  0  0  0  0  0  0
   11.0442   19.0125    6.7352 O   0  0  0  0  0  0  0  0  0  0  0  0
   10.0095   17.8357    6.9639 P   0  0  0  0  0  0  0  0  0  0  0  0
   10.6224   16.5152    6.3114 O   0  0  0  0  0  0  0  0  0  0  0  0
    8.6058   18.1853    6.3624 O   0  0  0  0  0  0  0  0  0  0  0  0
   10.7073   16.6376    5.3529 H   0  0  0  0  0  0  0  0  0  0  0  0
    9.8679   17.6335    8.5569 O   0  0  0  0  0  0  0  0  0  0  0  0
   10.8866   18.0359    9.4525 C   0  0  0  0  0  0  0  0  0  0  0  0
   11.6521   16.7643    9.7795 C   0  0  0  0  0  0  0  0  0  0  0  0
   13.1770   16.9630    9.5927 C   0  0  0  0  0  0  0  0  0  0  0  0
   13.5582   17.3758    8.2634 O   0  0  0  0  0  0  0  0  0  0  0  0
   14.5458   18.3509    8.1476 C   0  0  0  0  0  0  0  0  0  0  0  0
   15.0734   18.7353    7.0894 O   0  0  0  0  0  0  0  0  0  0  0  0
   14.7365   19.0990    9.4743 C   0  0  0  0  0  0  0  0  0  0  0  0
   16.1897   19.4078    9.8941 C   0  0  0  0  0  0  0  0  0  0  0  0
   16.9646   18.1574   10.3394 C   0  0  0  0  0  0  0  0  0  0  0  0
   11.1128   15.6168    9.0770 O   0  0  0  0  0  0  0  0  0  0  0  0
   10.7817   14.4551    9.7849 C   0  0  0  0  0  0  0  0  0  0  0  0
    9.8594   14.3400   10.5927 O   0  0  0  0  0  0  0  0  0  0  0  0
   11.9242   13.4470    9.7558 C   0  0  0  0  0  0  0  0  0  0  0  0
   12.2210   12.8465    8.3716 C   0  0  0  0  0  0  0  0  0  0  0  0
   11.0893   11.9430    7.8830 C   0  0  0  0  0  0  0  0  0  0  0  0
  1  2  1  0  0  0
  1  6  1  0  0  0
  1 22  1  0  0  0
  2  3  1  0  0  0
  2  7  1  0  0  0
  3  4  1  0  0  0
  3 15  1  0  0  0
  4  5  1  0  0  0
  4  8  1  0  0  0
  5  6  1  0  0  0
  5  9  1  0  0  0
  6 10  1  0  0  0
 22 23  1  0  0  0
 15 16  1  0  0  0
 23 24  1  0  0  0
 23 25  2  0  0  0
 23 27  1  0  0  0
 27 28  1  0  0  0
 16 17  1  0  0  0
 16 18  2  0  0  0
 16 19  1  0  0  0
 28 29  1  0  0  0
 29 30  1  0  0  0
 29 37  1  0  0  0
 30 31  1  0  0  0
 32 34  1  0  0  0
 32 31  1  0  0  0
 32 33  2  0  0  0
 34 35  1  0  0  0
 35 36  1  0  0  0
 38 40  1  0  0  0
 38 37  1  0  0  0
 38 39  2  0  0  0
 40 41  1  0  0  0
 41 42  1  0  0  0
  7 11  1  0  0  0
  8 12  1  0  0  0
  9 13  1  0  0  0
 10 14  1  0  0  0
 24 26  1  0  0  0
 17 20  1  0  0  0
 19 21  1  0  0  0
M  END
> <minimizedAffinity>
-6.63709

$$$$
1H6H_PIB_A_150


 42 42  0  0  0  0  0  0  0  0999 V2000
   14.0794   18.4218    7.6458 C   0  0  0  0  0  0  0  0  0  0  0  0
   14.6130   19.6230    6.8291 C   0  0  0  0  0  0  0  0  0  0  0  0
   14.2729   20.9674    7.5697 C   0  0  0  0  0  0  0  0  0  0  0  0
   14.8876   20.9538    9.0234 C   0  0  0  0  0  0  0  0  0  0  0  0
   14.3026   19.7540    9.8240 C   0  0  0  0  0  0  0  0  0  0  0  0
   14.6589   18.4214    9.0880 C   0  0  0  0  0  0  0  0  0  0  0  0
   16.0179   19.4952    6.6731 O   0  0  0  0  0  0  0  0  0  0  0  0
   14.5631   22.1688    9.7195 O   0  0  0  0  0  0  0  0  0  0  0  0
   14.8736   19.7189   11.1233 O   0  0  0  0  0  0  0  0  0  0  0  0
   14.1166   17.3255    9.8249 O   0  0  0  0  0  0  0  0  0  0  0  0
   16.4404   19.4841    7.5462 H   0  0  0  0  0  0  0  0  0  0  0  0
   13.5996   22.2505    9.7954 H   0  0  0  0  0  0  0  0  0  0  0  0
   15.8355   19.6172   11.0511 H   0  0  0  0  0  0  0  0  0  0  0  0
   13.1523   17.4171    9.8778 H   0  0  0  0  0  0  0  0  0  0  0  0
   14.7995   22.0219    6.7566 O   0  0  0  0  0  0  0  0  0  0  0  0
   13.9394   23.3077    6.2749 P   0  0  0  0  0  0  0  0  0  0  0  0
   14.9435   24.4574    5.8438 O   0  0  0  0  0  0  0  0  0  0  0  0
   13.0769   23.7939    7.5083 O   0  0  0  0  0  0  0  0  0  0  0  0
   13.0454   22.8513    5.0384 O   0  0  0  0  0  0  0  0  0  0  0  0
   15.4789   24.7225    6.6080 H   0  0  0  0  0  0  0  0  0  0  0  0
   13.6207   22.5639    4.3122 H   0  0  0  0  0  0  0  0  0  0  0  0
   14.4766   17.2173    6.9743 O   0  0  0  0  0  0  0  0  0  0  0  0
   13.5438   16.3396    6.0430 P   0  0  0  0  0  0  0  0  0  0  0  0
   14.4206   15.1351    5.4725 O   0  0  0  0  0  0  0  0  0  0  0  0
   12.9152   17.1982    4.8933 O   0  0  0  0  0  0  0  0  0  0  0  0
   15.1302   15.4883    4.9133 H   0  0  0  0  0  0  0  0  0  0  0  0
   12.3642   15.7538    6.9725 O   0  0  0  0  0  0  0  0  0  0  0  0
   11.0047   16.0661    6.7362 C   0  0  0  0  0  0  0  0  0  0  0  0
   10.5624   16.8598    7.9544 C   0  0  0  0  0  0  0  0  0  0  0  0
   10.5972   18.3831    7.6752 C   0  0  0  0  0  0  0  0  0  0  0  0
   10.3272   18.7361    6.3021 O   0  0  0  0  0  0  0  0  0  0  0  0
   10.6153   20.0382    5.9008 C   0  0  0  0  0  0  0  0  0  0  0  0
   11.6030   20.3969    5.2362 O   0  0  0  0  0  0  0  0  0  0  0  0
    9.4209   20.9680    6.1560 C   0  0  0  0  0  0  0  0  0  0  0  0
    9.7219   22.3051    6.8665 C   0  0  0  0  0  0  0  0  0  0  0  0
    9.9488   22.1438    8.3781 C   0  0  0  0  0  0  0  0  0  0  0  0
   11.2819   16.4586    9.1471 O   0  0  0  0  0  0  0  0  0  0  0  0
   10.8146   15.3884    9.9194 C   0  0  0  0  0  0  0  0  0  0  0  0
    9.7735   15.3728   10.5770 O   0  0  0  0  0  0  0  0  0  0  0  0
   11.9223   14.3766   10.1876 C   0  0  0  0  0  0  0  0  0  0  0  0
   11.5384   12.9119    9.9194 C   0  0  0  0  0  0  0  0  0  0  0  0
   11.2910   12.6456    8.4349 C   0  0  0  0  0  0  0  0  0  0  0  0
  1  2  1  0  0  0
  1  6  1  0  0  0
  1 22  1  0  0  0
  2  3  1  0  0  0
  2  7  1  0  0  0
  3  4  1  0  0  0
  3 15  1  0  0  0
  4  5  1  0  0  0
  4  8  1  0  0  0
  5  6  1  0  0  0
  5  9  1  0  0  0
  6 10  1  0  0  0
 22 23  1  0  0  0
 15 16  1  0  0  0
 23 24  1  0  0  0
 23 25  2  0  0  0
 23 27  1  0  0  0
 27 28  1  0  0  0
 16 17  1  0  0  0
 16 18  2  0  0  0
 16 19  1  0  0  0
 28 29  1  0  0  0
 29 30  1  0  0  0
 29 37  1  0  0  0
 30 31  1  0  0  0
 32 34  1  0  0  0
 32 31  1  0  0  0
 32 33  2  0  0  0
 34 35  1  0  0  0
 35 36  1  0  0  0
 38 40  1  0  0  0
 38 37  1  0  0  0
 38 39  2  0  0  0
 40 41  1  0  0  0
 41 42  1  0  0  0
  7 11  1  0  0  0
  8 12  1  0  0  0
  9 13  1  0  0  0
 10 14  1  0  0  0
 24 26  1  0  0  0
 17 20  1  0  0  0
 19 21  1  0  0  0
M  END
> <minimizedAffinity>
-6.63504

$$$$
1H6H_PIB_A_150


 42 42  0  0  0  0  0  0  0  0999 V2000
   13.0673   17.8486    8.2152 C   0  0  0  0  0  0  0  0  0  0  0  0
   12.8487   16.5377    7.4224 C   0  0  0  0  0  0  0  0  0  0  0  0
   11.8902   15.5819    8.2219 C   0  0  0  0  0  0  0  0  0  0  0  0
   10.5174   16.3073    8.5055 C   0  0  0  0  0  0  0  0  0  0  0  0
   10.7740   17.6007    9.3324 C   0  0  0  0  0  0  0  0  0  0  0  0
   11.7154   18.5509    8.5229 C   0  0  0  0  0  0  0  0  0  0  0  0
   12.2846   16.8454    6.1568 O   0  0  0  0  0  0  0  0  0  0  0  0
    9.6406   15.4513    9.2569 O   0  0  0  0  0  0  0  0  0  0  0  0
    9.5459   18.2735    9.5661 O   0  0  0  0  0  0  0  0  0  0  0  0
   11.9499   19.7332    9.2880 O   0  0  0  0  0  0  0  0  0  0  0  0
   11.4335   17.2935    6.2825 H   0  0  0  0  0  0  0  0  0  0  0  0
   10.0527   15.2329   10.1074 H   0  0  0  0  0  0  0  0  0  0  0  0
    9.1408   18.5111    8.7173 H   0  0  0  0  0  0  0  0  0  0  0  0
   12.3746   19.4963   10.1273 H   0  0  0  0  0  0  0  0  0  0  0  0
   11.7378   14.4022    7.4248 O   0  0  0  0  0  0  0  0  0  0  0  0
   11.7304   12.8983    8.0276 P   0  0  0  0  0  0  0  0  0  0  0  0
   10.2272   12.4064    8.1465 O   0  0  0  0  0  0  0  0  0  0  0  0
   12.3827   12.9584    9.4673 O   0  0  0  0  0  0  0  0  0  0  0  0
   12.5451   11.9730    7.0193 O   0  0  0  0  0  0  0  0  0  0  0  0
    9.7470   12.9804    8.7636 H   0  0  0  0  0  0  0  0  0  0  0  0
   12.1048   11.9708    6.1550 H   0  0  0  0  0  0  0  0  0  0  0  0
   13.8836   18.7186    7.4176 O   0  0  0  0  0  0  0  0  0  0  0  0
   15.1890   19.4617    7.9191 P   0  0  0  0  0  0  0  0  0  0  0  0
   16.1865   19.5825    6.6799 O   0  0  0  0  0  0  0  0  0  0  0  0
   15.8466   18.7083    9.1250 O   0  0  0  0  0  0  0  0  0  0  0  0
   16.4557   18.6956    6.3938 H   0  0  0  0  0  0  0  0  0  0  0  0
   14.7409   20.9351    8.3953 O   0  0  0  0  0  0  0  0  0  0  0  0
   14.7146   22.0312    7.5012 C   0  0  0  0  0  0  0  0  0  0  0  0
   13.2883   22.5531    7.5554 C   0  0  0  0  0  0  0  0  0  0  0  0
   12.9647   23.1603    8.9433 C   0  0  0  0  0  0  0  0  0  0  0  0
   11.7482   22.6586    9.5360 O   0  0  0  0  0  0  0  0  0  0  0  0
   10.7223   23.5695    9.7756 C   0  0  0  0  0  0  0  0  0  0  0  0
   10.7277   24.4673   10.6358 O   0  0  0  0  0  0  0  0  0  0  0  0
    9.6628   23.5068    8.6667 C   0  0  0  0  0  0  0  0  0  0  0  0
    9.8755   24.4337    7.4506 C   0  0  0  0  0  0  0  0  0  0  0  0
    9.3711   25.8654    7.6914 C   0  0  0  0  0  0  0  0  0  0  0  0
   12.3348   21.5580    7.1062 O   0  0  0  0  0  0  0  0  0  0  0  0
   11.9297   21.5318    5.7662 C   0  0  0  0  0  0  0  0  0  0  0  0
   12.5599   21.9893    4.8122 O   0  0  0  0  0  0  0  0  0  0  0  0
   10.4403   21.2316    5.6460 C   0  0  0  0  0  0  0  0  0  0  0  0
   10.1050   19.8400    5.0842 C   0  0  0  0  0  0  0  0  0  0  0  0
    9.2066   19.0410    6.0277 C   0  0  0  0  0  0  0  0  0  0  0  0
  1  2  1  0  0  0
  1  6  1  0  0  0
  1 22  1  0  0  0
  2  3  1  0  0  0
  2  7  1  0  0  0
  3  4  1  0  0  0
  3 15  1  0  0  0
  4  5  1  0  0  0
  4  8  1  0  0  0
  5  6  1  0  0  0
  5  9  1  0  0  0
  6 10  1  0  0  0
 22 23  1  0  0  0
 15 16  1  0  0  0
 23 24  1  0  0  0
 23 25  2  0  0  0
 23 27  1  0  0  0
 27 28  1  0  0  0
 16 17  1  0  0  0
 16 18  2  0  0  0
 16 19  1  0  0  0
 28 29  1  0  0  0
 29 30  1  0  0  0
 29 37  1  0  0  0
 30 31  1  0  0  0
 32 34  1  0  0  0
 32 31  1  0  0  0
 32 33  2  0  0  0
 34 35  1  0  0  0
 35 36  1  0  0  0
 38 40  1  0  0  0
 38 37  1  0  0  0
 38 39  2  0  0  0
 40 41  1  0  0  0
 41 42  1  0  0  0
  7 11  1  0  0  0
  8 12  1  0  0  0
  9 13  1  0  0  0
 10 14  1  0  0  0
 24 26  1  0  0  0
 17 20  1  0  0  0
 19 21  1  0  0  0
M  END
> <minimizedAffinity>
-6.63266

$$$$
1H6H_PIB_A_150


 42 42  0  0  0  0  0  0  0  0999 V2000
   12.2251   17.9552    8.5489 C   0  0  0  0  0  0  0  0  0  0  0  0
   11.8278   16.6391    7.8384 C   0  0  0  0  0  0  0  0  0  0  0  0
   11.2580   15.6156    8.8869 C   0  0  0  0  0  0  0  0  0  0  0  0
   10.0234   16.2462    9.6416 C   0  0  0  0  0  0  0  0  0  0  0  0
   10.4691   17.5471   10.3707 C   0  0  0  0  0  0  0  0  0  0  0  0
   11.0198   18.5640    9.3185 C   0  0  0  0  0  0  0  0  0  0  0  0
   10.8488   16.9188    6.8496 O   0  0  0  0  0  0  0  0  0  0  0  0
    9.5079   15.3281   10.6201 O   0  0  0  0  0  0  0  0  0  0  0  0
    9.3565   18.1353   11.0277 O   0  0  0  0  0  0  0  0  0  0  0  0
   11.4303   19.7531    9.9936 O   0  0  0  0  0  0  0  0  0  0  0  0
   10.0664   17.3086    7.2703 H   0  0  0  0  0  0  0  0  0  0  0  0
   10.1975   15.1306   11.2731 H   0  0  0  0  0  0  0  0  0  0  0  0
    8.6729   18.3523   10.3746 H   0  0  0  0  0  0  0  0  0  0  0  0
   12.1290   19.5381   10.6312 H   0  0  0  0  0  0  0  0  0  0  0  0
   10.9134   14.4348    8.1539 O   0  0  0  0  0  0  0  0  0  0  0  0
   11.4828   12.9577    8.4993 P   0  0  0  0  0  0  0  0  0  0  0  0
   13.0618   12.9747    8.3500 O   0  0  0  0  0  0  0  0  0  0  0  0
   10.8631   11.9501    7.4495 O   0  0  0  0  0  0  0  0  0  0  0  0
   11.0651   12.6209    9.9989 O   0  0  0  0  0  0  0  0  0  0  0  0
   13.2976   13.1811    7.4320 H   0  0  0  0  0  0  0  0  0  0  0  0
   11.4697   13.2658   10.5999 H   0  0  0  0  0  0  0  0  0  0  0  0
   12.6672   18.8837    7.5480 O   0  0  0  0  0  0  0  0  0  0  0  0
   13.8880   19.8806    7.7011 P   0  0  0  0  0  0  0  0  0  0  0  0
   15.0260   19.4164    6.6839 O   0  0  0  0  0  0  0  0  0  0  0  0
   14.4086   19.9224    9.1781 O   0  0  0  0  0  0  0  0  0  0  0  0
   15.3445   18.5354    6.9352 H   0  0  0  0  0  0  0  0  0  0  0  0
   13.3579   21.3448    7.2845 O   0  0  0  0  0  0  0  0  0  0  0  0
   11.9967   21.5868    6.9842 C   0  0  0  0  0  0  0  0  0  0  0  0
   11.9611   21.8481    5.4875 C   0  0  0  0  0  0  0  0  0  0  0  0
   10.5924   22.4274    5.0508 C   0  0  0  0  0  0  0  0  0  0  0  0
   10.6872   23.5042    4.0946 O   0  0  0  0  0  0  0  0  0  0  0  0
   10.0529   24.7040    4.4072 C   0  0  0  0  0  0  0  0  0  0  0  0
    9.0417   25.1638    3.8486 O   0  0  0  0  0  0  0  0  0  0  0  0
   10.6002   25.2891    5.7165 C   0  0  0  0  0  0  0  0  0  0  0  0
    9.5638   25.8603    6.7080 C   0  0  0  0  0  0  0  0  0  0  0  0
    9.2283   27.3364    6.4416 C   0  0  0  0  0  0  0  0  0  0  0  0
   12.3831   20.6869    4.7293 O   0  0  0  0  0  0  0  0  0  0  0  0
   11.4282   19.7968    4.2232 C   0  0  0  0  0  0  0  0  0  0  0  0
   10.6888   19.0739    4.8920 O   0  0  0  0  0  0  0  0  0  0  0  0
   11.6654   19.5155    2.7443 C   0  0  0  0  0  0  0  0  0  0  0  0
   12.3571   20.6520    1.9733 C   0  0  0  0  0  0  0  0  0  0  0  0
   12.8320   20.2029    0.5918 C   0  0  0  0  0  0  0  0  0  0  0  0
  1  2  1  0  0  0
  1  6  1  0  0  0
  1 22  1  0  0  0
  2  3  1  0  0  0
  2  7  1  0  0  0
  3  4  1  0  0  0
  3 15  1  0  0  0
  4  5  1  0  0  0
  4  8  1  0  0  0
  5  6  1  0  0  0
  5  9  1  0  0  0
  6 10  1  0  0  0
 22 23  1  0  0  0
 15 16  1  0  0  0
 23 24  1  0  0  0
 23 25  2  0  0  0
 23 27  1  0  0  0
 27 28  1  0  0  0
 16 17  1  0  0  0
 16 18  2  0  0  0
 16 19  1  0  0  0
 28 29  1  0  0  0
 29 30  1  0  0  0
 29 37  1  0  0  0
 30 31  1  0  0  0
 32 34  1  0  0  0
 32 31  1  0  0  0
 32 33  2  0  0  0
 34 35  1  0  0  0
 35 36  1  0  0  0
 38 40  1  0  0  0
 38 37  1  0  0  0
 38 39  2  0  0  0
 40 41  1  0  0  0
 41 42  1  0  0  0
  7 11  1  0  0  0
  8 12  1  0  0  0
  9 13  1  0  0  0
 10 14  1  0  0  0
 24 26  1  0  0  0
 17 20  1  0  0  0
 19 21  1  0  0  0
M  END
> <minimizedAffinity>
-6.57684

$$$$
1H6H_PIB_A_150


 42 42  0  0  0  0  0  0  0  0999 V2000
   10.6091   18.8443    7.3378 C   0  0  0  0  0  0  0  0  0  0  0  0
    9.8468   20.1891    7.4103 C   0  0  0  0  0  0  0  0  0  0  0  0
   10.6968   21.3237    6.7307 C   0  0  0  0  0  0  0  0  0  0  0  0
   11.0182   20.9354    5.2349 C   0  0  0  0  0  0  0  0  0  0  0  0
   11.8134   19.5977    5.2045 C   0  0  0  0  0  0  0  0  0  0  0  0
   10.9543   18.4729    5.8686 C   0  0  0  0  0  0  0  0  0  0  0  0
    8.5978   20.0547    6.7498 O   0  0  0  0  0  0  0  0  0  0  0  0
   11.8154   21.9549    4.6095 O   0  0  0  0  0  0  0  0  0  0  0  0
   12.0805   19.2277    3.8602 O   0  0  0  0  0  0  0  0  0  0  0  0
   11.6903   17.2500    5.8410 O   0  0  0  0  0  0  0  0  0  0  0  0
    8.7470   19.8168    5.8214 H   0  0  0  0  0  0  0  0  0  0  0  0
   12.6538   22.0488    5.0882 H   0  0  0  0  0  0  0  0  0  0  0  0
   11.2433   19.1135    3.3838 H   0  0  0  0  0  0  0  0  0  0  0  0
   12.5174   17.3591    6.3360 H   0  0  0  0  0  0  0  0  0  0  0  0
    9.9256   22.5255    6.8363 O   0  0  0  0  0  0  0  0  0  0  0  0
   10.2771   23.7391    7.8507 P   0  0  0  0  0  0  0  0  0  0  0  0
    9.8206   23.3270    9.3127 O   0  0  0  0  0  0  0  0  0  0  0  0
    9.4584   25.0074    7.3788 O   0  0  0  0  0  0  0  0  0  0  0  0
   11.8525   23.9672    7.7986 O   0  0  0  0  0  0  0  0  0  0  0  0
    8.8601   23.1924    9.3256 H   0  0  0  0  0  0  0  0  0  0  0  0
   12.3056   23.1629    8.0965 H   0  0  0  0  0  0  0  0  0  0  0  0
    9.7677   17.8266    7.8997 O   0  0  0  0  0  0  0  0  0  0  0  0
   10.1223   16.9428    9.1649 P   0  0  0  0  0  0  0  0  0  0  0  0
    9.8338   15.4190    8.7904 O   0  0  0  0  0  0  0  0  0  0  0  0
    9.3090   17.3972   10.4244 O   0  0  0  0  0  0  0  0  0  0  0  0
    8.8864   15.3023    8.6179 H   0  0  0  0  0  0  0  0  0  0  0  0
   11.6965   17.1379    9.4519 O   0  0  0  0  0  0  0  0  0  0  0  0
   12.5034   16.0790    9.9308 C   0  0  0  0  0  0  0  0  0  0  0  0
   13.4878   15.7919    8.8091 C   0  0  0  0  0  0  0  0  0  0  0  0
   14.4473   16.9872    8.5842 C   0  0  0  0  0  0  0  0  0  0  0  0
   13.9700   17.9520    7.6229 O   0  0  0  0  0  0  0  0  0  0  0  0
   14.7117   19.1189    7.4554 C   0  0  0  0  0  0  0  0  0  0  0  0
   15.7274   19.2447    6.7494 O   0  0  0  0  0  0  0  0  0  0  0  0
   13.9753   20.3273    8.0500 C   0  0  0  0  0  0  0  0  0  0  0  0
   13.4591   20.1817    9.4976 C   0  0  0  0  0  0  0  0  0  0  0  0
   12.8666   21.4848   10.0575 C   0  0  0  0  0  0  0  0  0  0  0  0
   12.8159   15.3363    7.6082 O   0  0  0  0  0  0  0  0  0  0  0  0
   13.4531   14.4318    6.7502 C   0  0  0  0  0  0  0  0  0  0  0  0
   14.0228   14.7154    5.6959 O   0  0  0  0  0  0  0  0  0  0  0  0
   13.0308   12.9980    7.0480 C   0  0  0  0  0  0  0  0  0  0  0  0
   12.0803   12.8401    8.2464 C   0  0  0  0  0  0  0  0  0  0  0  0
   10.8093   12.0771    7.8746 C   0  0  0  0  0  0  0  0  0  0  0  0
  1  2  1  0  0  0
  1  6  1  0  0  0
  1 22  1  0  0  0
  2  3  1  0  0  0
  2  7  1  0  0  0
  3  4  1  0  0  0
  3 15  1  0  0  0
  4  5  1  0  0  0
  4  8  1  0  0  0
  5  6  1  0  0  0
  5  9  1  0  0  0
  6 10  1  0  0  0
 22 23  1  0  0  0
 15 16  1  0  0  0
 23 24  1  0  0  0
 23 25  2  0  0  0
 23 27  1  0  0  0
 27 28  1  0  0  0
 16 17  1  0  0  0
 16 18  2  0  0  0
 16 19  1  0  0  0
 28 29  1  0  0  0
 29 30  1  0  0  0
 29 37  1  0  0  0
 30 31  1  0  0  0
 32 34  1  0  0  0
 32 31  1  0  0  0
 32 33  2  0  0  0
 34 35  1  0  0  0
 35 36  1  0  0  0
 38 40  1  0  0  0
 38 37  1  0  0  0
 38 39  2  0  0  0
 40 41  1  0  0  0
 41 42  1  0  0  0
  7 11  1  0  0  0
  8 12  1  0  0  0
  9 13  1  0  0  0
 10 14  1  0  0  0
 24 26  1  0  0  0
 17 20  1  0  0  0
 19 21  1  0  0  0
M  END
> <minimizedAffinity>
-6.48684

$$$$
