3CFN_2AN_A_1


 23 25  0  0  0  0  0  0  0  0999 V2000
  -22.4291   -0.3146   -6.2148 C   0  0  0  0  0  0  0  0  0  0  0  0
  -23.3786   -0.5988   -7.2013 C   0  0  0  0  0  0  0  0  0  0  0  0
  -23.2696   -0.0844   -8.4861 C   0  0  0  0  0  0  0  0  0  0  0  0
  -22.1903    0.7342   -8.7939 C   0  0  0  0  0  0  0  0  0  0  0  0
  -21.2344    1.0318   -7.8280 C   0  0  0  0  0  0  0  0  0  0  0  0
  -20.1794    1.8578   -8.2089 C   0  0  0  0  0  0  0  0  0  0  0  0
  -19.1922    2.1930   -7.2928 C   0  0  0  0  0  0  0  0  0  0  0  0
  -19.2719    1.6979   -5.9975 C   0  0  0  0  0  0  0  0  0  0  0  0
  -20.3209    0.8680   -5.5907 C   0  0  0  0  0  0  0  0  0  0  0  0
  -21.3313    0.5188   -6.5182 C   0  0  0  0  0  0  0  0  0  0  0  0
  -20.2663    0.3866   -4.0565 S   0  0  0  0  0  0  0  0  0  0  0  0
  -19.0028    0.8603   -3.4631 O   0  0  0  0  0  0  0  0  0  0  0  0
  -20.3293   -1.0902   -3.9801 O   0  0  0  0  0  0  0  0  0  0  0  0
  -21.3801    0.9722   -3.2856 O   0  0  0  0  0  0  0  0  0  0  0  0
  -21.3359    1.9398   -3.3377 H   0  0  0  0  0  0  0  0  0  0  0  0
  -22.6025   -0.8487   -4.9776 N   0  0  0  0  0  0  0  0  0  0  0  0
  -21.8003   -1.0765   -4.4543 H   0  0  0  0  0  0  0  0  0  0  0  0
  -23.8190   -1.0868   -4.4204 C   0  0  0  0  0  0  0  0  0  0  0  0
  -24.4554   -0.1062   -3.6516 C   0  0  0  0  0  0  0  0  0  0  0  0
  -25.7023   -0.3539   -3.0779 C   0  0  0  0  0  0  0  0  0  0  0  0
  -26.3146   -1.5942   -3.2630 C   0  0  0  0  0  0  0  0  0  0  0  0
  -25.6813   -2.5774   -4.0257 C   0  0  0  0  0  0  0  0  0  0  0  0
  -24.4353   -2.3261   -4.6012 C   0  0  0  0  0  0  0  0  0  0  0  0
  1  2  2  0  0  0
  1 16  1  0  0  0
  1 10  1  0  0  0
  2  3  1  0  0  0
  3  4  2  0  0  0
  4  5  1  0  0  0
  5  6  2  0  0  0
  5 10  1  0  0  0
  6  7  1  0  0  0
  7  8  2  0  0  0
  8  9  1  0  0  0
 16 18  1  0  0  0
 11  9  1  0  0  0
 11 12  2  0  0  0
 11 13  2  0  0  0
 11 14  1  0  0  0
  9 10  2  0  0  0
 18 19  2  0  0  0
 18 23  1  0  0  0
 19 20  1  0  0  0
 20 21  2  0  0  0
 21 22  1  0  0  0
 22 23  2  0  0  0
 16 17  1  0  0  0
 14 15  1  0  0  0
M  END
> <minimizedAffinity>
-8.71816

$$$$
3CFN_2AN_A_1


 23 25  0  0  0  0  0  0  0  0999 V2000
  -20.8595    0.3032   -6.2094 C   0  0  0  0  0  0  0  0  0  0  0  0
  -19.9080    0.5899   -7.1933 C   0  0  0  0  0  0  0  0  0  0  0  0
  -20.0162    0.0817   -8.4805 C   0  0  0  0  0  0  0  0  0  0  0  0
  -21.0967   -0.7333   -8.7937 C   0  0  0  0  0  0  0  0  0  0  0  0
  -22.0546   -1.0333   -7.8306 C   0  0  0  0  0  0  0  0  0  0  0  0
  -23.1108   -1.8554   -8.2168 C   0  0  0  0  0  0  0  0  0  0  0  0
  -24.1000   -2.1928   -7.3037 C   0  0  0  0  0  0  0  0  0  0  0  0
  -24.0212   -1.7037   -6.0060 C   0  0  0  0  0  0  0  0  0  0  0  0
  -22.9711   -0.8779   -5.5938 C   0  0  0  0  0  0  0  0  0  0  0  0
  -21.9586   -0.5265   -6.5183 C   0  0  0  0  0  0  0  0  0  0  0  0
  -23.0270   -0.4034   -4.0576 S   0  0  0  0  0  0  0  0  0  0  0  0
  -24.2898   -0.8819   -3.4666 O   0  0  0  0  0  0  0  0  0  0  0  0
  -22.9665    1.0731   -3.9745 O   0  0  0  0  0  0  0  0  0  0  0  0
  -21.9124   -0.9905   -3.2889 O   0  0  0  0  0  0  0  0  0  0  0  0
  -21.9549   -1.9579   -3.3454 H   0  0  0  0  0  0  0  0  0  0  0  0
  -20.6868    0.8313   -4.9696 N   0  0  0  0  0  0  0  0  0  0  0  0
  -21.4893    1.0504   -4.4431 H   0  0  0  0  0  0  0  0  0  0  0  0
  -19.4706    1.0746   -4.4139 C   0  0  0  0  0  0  0  0  0  0  0  0
  -18.8308    0.0981   -3.6426 C   0  0  0  0  0  0  0  0  0  0  0  0
  -17.5843    0.3512   -3.0706 C   0  0  0  0  0  0  0  0  0  0  0  0
  -16.9758    1.5927   -3.2597 C   0  0  0  0  0  0  0  0  0  0  0  0
  -17.6125    2.5719   -4.0248 C   0  0  0  0  0  0  0  0  0  0  0  0
  -18.8582    2.3152   -4.5987 C   0  0  0  0  0  0  0  0  0  0  0  0
  1  2  2  0  0  0
  1 16  1  0  0  0
  1 10  1  0  0  0
  2  3  1  0  0  0
  3  4  2  0  0  0
  4  5  1  0  0  0
  5  6  2  0  0  0
  5 10  1  0  0  0
  6  7  1  0  0  0
  7  8  2  0  0  0
  8  9  1  0  0  0
 16 18  1  0  0  0
 11  9  1  0  0  0
 11 12  2  0  0  0
 11 13  2  0  0  0
 11 14  1  0  0  0
  9 10  2  0  0  0
 18 19  2  0  0  0
 18 23  1  0  0  0
 19 20  1  0  0  0
 20 21  2  0  0  0
 21 22  1  0  0  0
 22 23  2  0  0  0
 16 17  1  0  0  0
 14 15  1  0  0  0
M  END
> <minimizedAffinity>
-8.70814

$$$$
3CFN_2AN_A_1


 23 25  0  0  0  0  0  0  0  0999 V2000
  -22.4240   -0.2798   -6.1937 C   0  0  0  0  0  0  0  0  0  0  0  0
  -23.3783   -0.5771   -7.1716 C   0  0  0  0  0  0  0  0  0  0  0  0
  -23.2752   -0.0808   -8.4639 C   0  0  0  0  0  0  0  0  0  0  0  0
  -22.1970    0.7328   -8.7883 C   0  0  0  0  0  0  0  0  0  0  0  0
  -21.2363    1.0433   -7.8313 C   0  0  0  0  0  0  0  0  0  0  0  0
  -20.1827    1.8633   -8.2287 C   0  0  0  0  0  0  0  0  0  0  0  0
  -19.1909    2.2107   -7.3220 C   0  0  0  0  0  0  0  0  0  0  0  0
  -19.2646    1.7337   -6.0196 C   0  0  0  0  0  0  0  0  0  0  0  0
  -20.3122    0.9102   -5.5962 C   0  0  0  0  0  0  0  0  0  0  0  0
  -21.3272    0.5486   -6.5140 C   0  0  0  0  0  0  0  0  0  0  0  0
  -20.2504    0.4501   -4.0558 S   0  0  0  0  0  0  0  0  0  0  0  0
  -18.9901    0.9430   -3.4713 O   0  0  0  0  0  0  0  0  0  0  0  0
  -20.3001   -1.0260   -3.9592 O   0  0  0  0  0  0  0  0  0  0  0  0
  -21.3680    1.0362   -3.2907 O   0  0  0  0  0  0  0  0  0  0  0  0
  -21.3324    2.0034   -3.3561 H   0  0  0  0  0  0  0  0  0  0  0  0
  -22.5917   -0.7965   -4.9484 N   0  0  0  0  0  0  0  0  0  0  0  0
  -21.7878   -0.9824   -4.4114 H   0  0  0  0  0  0  0  0  0  0  0  0
  -23.8048   -1.0717   -4.4009 C   0  0  0  0  0  0  0  0  0  0  0  0
  -24.4234   -2.3070   -4.6225 C   0  0  0  0  0  0  0  0  0  0  0  0
  -25.6699   -2.5860   -4.0625 C   0  0  0  0  0  0  0  0  0  0  0  0
  -26.3103   -1.6205   -3.2844 C   0  0  0  0  0  0  0  0  0  0  0  0
  -25.6989   -0.3847   -3.0644 C   0  0  0  0  0  0  0  0  0  0  0  0
  -24.4503   -0.1091   -3.6231 C   0  0  0  0  0  0  0  0  0  0  0  0
  1  2  2  0  0  0
  1 16  1  0  0  0
  1 10  1  0  0  0
  2  3  1  0  0  0
  3  4  2  0  0  0
  4  5  1  0  0  0
  5  6  2  0  0  0
  5 10  1  0  0  0
  6  7  1  0  0  0
  7  8  2  0  0  0
  8  9  1  0  0  0
 16 18  1  0  0  0
 11  9  1  0  0  0
 11 12  2  0  0  0
 11 13  2  0  0  0
 11 14  1  0  0  0
  9 10  2  0  0  0
 18 19  2  0  0  0
 18 23  1  0  0  0
 19 20  1  0  0  0
 20 21  2  0  0  0
 21 22  1  0  0  0
 22 23  2  0  0  0
 16 17  1  0  0  0
 14 15  1  0  0  0
M  END
> <minimizedAffinity>
-8.70343

$$$$
3CFN_2AN_A_1


 23 25  0  0  0  0  0  0  0  0999 V2000
  -23.7631   -0.7376   -5.0521 C   0  0  0  0  0  0  0  0  0  0  0  0
  -23.9314   -1.9013   -5.8090 C   0  0  0  0  0  0  0  0  0  0  0  0
  -24.8076   -2.9041   -5.4171 C   0  0  0  0  0  0  0  0  0  0  0  0
  -25.5311   -2.7443   -4.2420 C   0  0  0  0  0  0  0  0  0  0  0  0
  -25.3786   -1.5957   -3.4721 C   0  0  0  0  0  0  0  0  0  0  0  0
  -26.1375   -1.5039   -2.3075 C   0  0  0  0  0  0  0  0  0  0  0  0
  -26.0322   -0.3838   -1.4948 C   0  0  0  0  0  0  0  0  0  0  0  0
  -25.1628    0.6375   -1.8558 C   0  0  0  0  0  0  0  0  0  0  0  0
  -24.3899    0.5685   -3.0189 C   0  0  0  0  0  0  0  0  0  0  0  0
  -24.4918   -0.5687   -3.8553 C   0  0  0  0  0  0  0  0  0  0  0  0
  -23.4311    1.8322   -3.2875 S   0  0  0  0  0  0  0  0  0  0  0  0
  -23.5744    2.7746   -2.1631 O   0  0  0  0  0  0  0  0  0  0  0  0
  -23.8099    2.5037   -4.5510 O   0  0  0  0  0  0  0  0  0  0  0  0
  -22.0182    1.4111   -3.3526 O   0  0  0  0  0  0  0  0  0  0  0  0
  -21.7733    0.9716   -2.5233 H   0  0  0  0  0  0  0  0  0  0  0  0
  -22.8845    0.1998   -5.4940 N   0  0  0  0  0  0  0  0  0  0  0  0
  -22.6924    0.9678   -4.9088 H   0  0  0  0  0  0  0  0  0  0  0  0
  -22.2553    0.1388   -6.6972 C   0  0  0  0  0  0  0  0  0  0  0  0
  -20.9234   -0.2807   -6.7848 C   0  0  0  0  0  0  0  0  0  0  0  0
  -20.2786   -0.3393   -8.0202 C   0  0  0  0  0  0  0  0  0  0  0  0
  -20.9644    0.0347   -9.1766 C   0  0  0  0  0  0  0  0  0  0  0  0
  -22.2922    0.4583   -9.0935 C   0  0  0  0  0  0  0  0  0  0  0  0
  -22.9361    0.5131   -7.8568 C   0  0  0  0  0  0  0  0  0  0  0  0
  1  2  2  0  0  0
  1 16  1  0  0  0
  1 10  1  0  0  0
  2  3  1  0  0  0
  3  4  2  0  0  0
  4  5  1  0  0  0
  5  6  2  0  0  0
  5 10  1  0  0  0
  6  7  1  0  0  0
  7  8  2  0  0  0
  8  9  1  0  0  0
 16 18  1  0  0  0
 11  9  1  0  0  0
 11 12  2  0  0  0
 11 13  2  0  0  0
 11 14  1  0  0  0
  9 10  2  0  0  0
 18 19  2  0  0  0
 18 23  1  0  0  0
 19 20  1  0  0  0
 20 21  2  0  0  0
 21 22  1  0  0  0
 22 23  2  0  0  0
 16 17  1  0  0  0
 14 15  1  0  0  0
M  END
> <minimizedAffinity>
-8.49557

$$$$
3CFN_2AN_A_1


 23 25  0  0  0  0  0  0  0  0999 V2000
  -19.5725    0.7532   -5.0915 C   0  0  0  0  0  0  0  0  0  0  0  0
  -19.4077    1.9025   -5.8709 C   0  0  0  0  0  0  0  0  0  0  0  0
  -18.5261    2.9102   -5.5045 C   0  0  0  0  0  0  0  0  0  0  0  0
  -17.7935    2.7701   -4.3326 C   0  0  0  0  0  0  0  0  0  0  0  0
  -17.9422    1.6361   -3.5406 C   0  0  0  0  0  0  0  0  0  0  0  0
  -17.1741    1.5637   -2.3807 C   0  0  0  0  0  0  0  0  0  0  0  0
  -17.2752    0.4588   -1.5469 C   0  0  0  0  0  0  0  0  0  0  0  0
  -18.1499   -0.5667   -1.8822 C   0  0  0  0  0  0  0  0  0  0  0  0
  -18.9321   -0.5172   -3.0400 C   0  0  0  0  0  0  0  0  0  0  0  0
  -18.8344    0.6044   -3.8978 C   0  0  0  0  0  0  0  0  0  0  0  0
  -19.8958   -1.7833   -3.2777 S   0  0  0  0  0  0  0  0  0  0  0  0
  -19.7371   -2.7107   -2.1431 O   0  0  0  0  0  0  0  0  0  0  0  0
  -19.5362   -2.4719   -4.5376 O   0  0  0  0  0  0  0  0  0  0  0  0
  -21.3091   -1.3615   -3.3278 O   0  0  0  0  0  0  0  0  0  0  0  0
  -21.5415   -0.9107   -2.5009 H   0  0  0  0  0  0  0  0  0  0  0  0
  -20.4568   -0.1900   -5.5091 N   0  0  0  0  0  0  0  0  0  0  0  0
  -20.6440   -0.9479   -4.9094 H   0  0  0  0  0  0  0  0  0  0  0  0
  -21.0980   -0.1478   -6.7067 C   0  0  0  0  0  0  0  0  0  0  0  0
  -20.4457   -0.5451   -7.8791 C   0  0  0  0  0  0  0  0  0  0  0  0
  -21.1045   -0.4978   -9.1075 C   0  0  0  0  0  0  0  0  0  0  0  0
  -22.4212   -0.0395   -9.1689 C   0  0  0  0  0  0  0  0  0  0  0  0
  -23.0747    0.3622   -8.0022 C   0  0  0  0  0  0  0  0  0  0  0  0
  -22.4145    0.3111   -6.7740 C   0  0  0  0  0  0  0  0  0  0  0  0
  1  2  2  0  0  0
  1 16  1  0  0  0
  1 10  1  0  0  0
  2  3  1  0  0  0
  3  4  2  0  0  0
  4  5  1  0  0  0
  5  6  2  0  0  0
  5 10  1  0  0  0
  6  7  1  0  0  0
  7  8  2  0  0  0
  8  9  1  0  0  0
 16 18  1  0  0  0
 11  9  1  0  0  0
 11 12  2  0  0  0
 11 13  2  0  0  0
 11 14  1  0  0  0
  9 10  2  0  0  0
 18 19  2  0  0  0
 18 23  1  0  0  0
 19 20  1  0  0  0
 20 21  2  0  0  0
 21 22  1  0  0  0
 22 23  2  0  0  0
 16 17  1  0  0  0
 14 15  1  0  0  0
M  END
> <minimizedAffinity>
-8.47013

$$$$
3CFN_2AN_A_1


 23 25  0  0  0  0  0  0  0  0999 V2000
  -23.9936   -0.4637   -4.3170 C   0  0  0  0  0  0  0  0  0  0  0  0
  -23.7186   -1.6378   -5.0250 C   0  0  0  0  0  0  0  0  0  0  0  0
  -24.5672   -2.7351   -4.9725 C   0  0  0  0  0  0  0  0  0  0  0  0
  -25.7155   -2.6611   -4.1943 C   0  0  0  0  0  0  0  0  0  0  0  0
  -26.0087   -1.5038   -3.4801 C   0  0  0  0  0  0  0  0  0  0  0  0
  -27.1778   -1.5014   -2.7227 C   0  0  0  0  0  0  0  0  0  0  0  0
  -27.5280   -0.3778   -1.9870 C   0  0  0  0  0  0  0  0  0  0  0  0
  -26.6999    0.7369   -2.0147 C   0  0  0  0  0  0  0  0  0  0  0  0
  -25.5211    0.7589   -2.7662 C   0  0  0  0  0  0  0  0  0  0  0  0
  -25.1564   -0.3813   -3.5215 C   0  0  0  0  0  0  0  0  0  0  0  0
  -24.6746    2.1246   -2.6846 S   0  0  0  0  0  0  0  0  0  0  0  0
  -25.3200    3.0161   -1.7041 O   0  0  0  0  0  0  0  0  0  0  0  0
  -24.6376    2.7847   -4.0088 O   0  0  0  0  0  0  0  0  0  0  0  0
  -23.2984    1.8590   -2.2229 O   0  0  0  0  0  0  0  0  0  0  0  0
  -23.3262    1.4265   -1.3551 H   0  0  0  0  0  0  0  0  0  0  0  0
  -23.1157    0.5689   -4.4114 N   0  0  0  0  0  0  0  0  0  0  0  0
  -23.0823    1.2182   -3.6721 H   0  0  0  0  0  0  0  0  0  0  0  0
  -22.2808    0.7576   -5.4671 C   0  0  0  0  0  0  0  0  0  0  0  0
  -22.7916    1.0477   -6.7371 C   0  0  0  0  0  0  0  0  0  0  0  0
  -21.9332    1.2375   -7.8198 C   0  0  0  0  0  0  0  0  0  0  0  0
  -20.5542    1.1258   -7.6370 C   0  0  0  0  0  0  0  0  0  0  0  0
  -20.0402    0.8320   -6.3724 C   0  0  0  0  0  0  0  0  0  0  0  0
  -20.9009    0.6455   -5.2901 C   0  0  0  0  0  0  0  0  0  0  0  0
  1  2  2  0  0  0
  1 16  1  0  0  0
  1 10  1  0  0  0
  2  3  1  0  0  0
  3  4  2  0  0  0
  4  5  1  0  0  0
  5  6  2  0  0  0
  5 10  1  0  0  0
  6  7  1  0  0  0
  7  8  2  0  0  0
  8  9  1  0  0  0
 16 18  1  0  0  0
 11  9  1  0  0  0
 11 12  2  0  0  0
 11 13  2  0  0  0
 11 14  1  0  0  0
  9 10  2  0  0  0
 18 19  2  0  0  0
 18 23  1  0  0  0
 19 20  1  0  0  0
 20 21  2  0  0  0
 21 22  1  0  0  0
 22 23  2  0  0  0
 16 17  1  0  0  0
 14 15  1  0  0  0
M  END
> <minimizedAffinity>
-8.45881

$$$$
3CFN_2AN_A_1


 23 25  0  0  0  0  0  0  0  0999 V2000
  -21.9285    0.2273   -4.9036 C   0  0  0  0  0  0  0  0  0  0  0  0
  -22.2379    0.6069   -3.5937 C   0  0  0  0  0  0  0  0  0  0  0  0
  -23.3406    0.0901   -2.9274 C   0  0  0  0  0  0  0  0  0  0  0  0
  -24.1551   -0.8246   -3.5829 C   0  0  0  0  0  0  0  0  0  0  0  0
  -23.8677   -1.2156   -4.8866 C   0  0  0  0  0  0  0  0  0  0  0  0
  -24.7276   -2.1371   -5.4798 C   0  0  0  0  0  0  0  0  0  0  0  0
  -24.4968   -2.5684   -6.7786 C   0  0  0  0  0  0  0  0  0  0  0  0
  -23.4038   -2.0694   -7.4754 C   0  0  0  0  0  0  0  0  0  0  0  0
  -22.5269   -1.1433   -6.9026 C   0  0  0  0  0  0  0  0  0  0  0  0
  -22.7526   -0.6989   -5.5779 C   0  0  0  0  0  0  0  0  0  0  0  0
  -21.3159   -0.6627   -7.8464 S   0  0  0  0  0  0  0  0  0  0  0  0
  -21.5442   -1.1899   -9.2039 O   0  0  0  0  0  0  0  0  0  0  0  0
  -20.0271   -1.1707   -7.3254 O   0  0  0  0  0  0  0  0  0  0  0  0
  -21.2722    0.8100   -7.9305 O   0  0  0  0  0  0  0  0  0  0  0  0
  -22.1181    1.1396   -8.2722 H   0  0  0  0  0  0  0  0  0  0  0  0
  -20.8363    0.7777   -5.4953 N   0  0  0  0  0  0  0  0  0  0  0  0
  -20.8787    0.9693   -6.4601 H   0  0  0  0  0  0  0  0  0  0  0  0
  -19.6885    1.0790   -4.8328 C   0  0  0  0  0  0  0  0  0  0  0  0
  -19.0455    2.3041   -5.0413 C   0  0  0  0  0  0  0  0  0  0  0  0
  -17.8659    2.6099   -4.3629 C   0  0  0  0  0  0  0  0  0  0  0  0
  -17.3166    1.6813   -3.4776 C   0  0  0  0  0  0  0  0  0  0  0  0
  -17.9523    0.4557   -3.2698 C   0  0  0  0  0  0  0  0  0  0  0  0
  -19.1341    0.1534   -3.9474 C   0  0  0  0  0  0  0  0  0  0  0  0
  1  2  2  0  0  0
  1 16  1  0  0  0
  1 10  1  0  0  0
  2  3  1  0  0  0
  3  4  2  0  0  0
  4  5  1  0  0  0
  5  6  2  0  0  0
  5 10  1  0  0  0
  6  7  1  0  0  0
  7  8  2  0  0  0
  8  9  1  0  0  0
 16 18  1  0  0  0
 11  9  1  0  0  0
 11 12  2  0  0  0
 11 13  2  0  0  0
 11 14  1  0  0  0
  9 10  2  0  0  0
 18 19  2  0  0  0
 18 23  1  0  0  0
 19 20  1  0  0  0
 20 21  2  0  0  0
 21 22  1  0  0  0
 22 23  2  0  0  0
 16 17  1  0  0  0
 14 15  1  0  0  0
M  END
> <minimizedAffinity>
-8.01223

$$$$
3CFN_2AN_A_1


 23 25  0  0  0  0  0  0  0  0999 V2000
  -23.3622    0.6939   -4.1064 C   0  0  0  0  0  0  0  0  0  0  0  0
  -22.9369    1.9686   -3.7196 C   0  0  0  0  0  0  0  0  0  0  0  0
  -23.6832    2.7522   -2.8500 C   0  0  0  0  0  0  0  0  0  0  0  0
  -24.8824    2.2543   -2.3563 C   0  0  0  0  0  0  0  0  0  0  0  0
  -25.3261    0.9895   -2.7285 C   0  0  0  0  0  0  0  0  0  0  0  0
  -26.5367    0.5557   -2.1930 C   0  0  0  0  0  0  0  0  0  0  0  0
  -27.0354   -0.6964   -2.5241 C   0  0  0  0  0  0  0  0  0  0  0  0
  -26.3155   -1.5054   -3.3940 C   0  0  0  0  0  0  0  0  0  0  0  0
  -25.0988   -1.0925   -3.9453 C   0  0  0  0  0  0  0  0  0  0  0  0
  -24.5809    0.1818   -3.6120 C   0  0  0  0  0  0  0  0  0  0  0  0
  -24.3965   -2.1464   -4.9376 S   0  0  0  0  0  0  0  0  0  0  0  0
  -23.0860   -2.5170   -4.3737 O   0  0  0  0  0  0  0  0  0  0  0  0
  -24.2099   -1.5439   -6.2766 O   0  0  0  0  0  0  0  0  0  0  0  0
  -25.2069   -3.3742   -5.0535 O   0  0  0  0  0  0  0  0  0  0  0  0
  -25.3273   -3.7664   -4.1746 H   0  0  0  0  0  0  0  0  0  0  0  0
  -22.5831   -0.0149   -4.9646 N   0  0  0  0  0  0  0  0  0  0  0  0
  -22.5832   -0.9964   -4.8881 H   0  0  0  0  0  0  0  0  0  0  0  0
  -21.8038    0.5524   -5.9227 C   0  0  0  0  0  0  0  0  0  0  0  0
  -20.4329    0.7352   -5.7107 C   0  0  0  0  0  0  0  0  0  0  0  0
  -19.6356    1.3207   -6.6939 C   0  0  0  0  0  0  0  0  0  0  0  0
  -20.2124    1.7379   -7.8942 C   0  0  0  0  0  0  0  0  0  0  0  0
  -21.5808    1.5616   -8.1084 C   0  0  0  0  0  0  0  0  0  0  0  0
  -22.3758    0.9728   -7.1245 C   0  0  0  0  0  0  0  0  0  0  0  0
  1  2  2  0  0  0
  1 16  1  0  0  0
  1 10  1  0  0  0
  2  3  1  0  0  0
  3  4  2  0  0  0
  4  5  1  0  0  0
  5  6  2  0  0  0
  5 10  1  0  0  0
  6  7  1  0  0  0
  7  8  2  0  0  0
  8  9  1  0  0  0
 16 18  1  0  0  0
 11  9  1  0  0  0
 11 12  2  0  0  0
 11 13  2  0  0  0
 11 14  1  0  0  0
  9 10  2  0  0  0
 18 19  2  0  0  0
 18 23  1  0  0  0
 19 20  1  0  0  0
 20 21  2  0  0  0
 21 22  1  0  0  0
 22 23  2  0  0  0
 16 17  1  0  0  0
 14 15  1  0  0  0
M  END
> <minimizedAffinity>
-8.00574

$$$$
3CFN_2AN_A_1


 23 25  0  0  0  0  0  0  0  0999 V2000
  -23.7966    0.6363   -3.5347 C   0  0  0  0  0  0  0  0  0  0  0  0
  -23.5581    1.8813   -2.9444 C   0  0  0  0  0  0  0  0  0  0  0  0
  -24.4909    2.4819   -2.1100 C   0  0  0  0  0  0  0  0  0  0  0  0
  -25.6903    1.8272   -1.8601 C   0  0  0  0  0  0  0  0  0  0  0  0
  -25.9500    0.5886   -2.4377 C   0  0  0  0  0  0  0  0  0  0  0  0
  -27.1728   -0.0091   -2.1410 C   0  0  0  0  0  0  0  0  0  0  0  0
  -27.4934   -1.2451   -2.6849 C   0  0  0  0  0  0  0  0  0  0  0  0
  -26.5840   -1.8729   -3.5264 C   0  0  0  0  0  0  0  0  0  0  0  0
  -25.3510   -1.2933   -3.8401 C   0  0  0  0  0  0  0  0  0  0  0  0
  -25.0139   -0.0342   -3.2886 C   0  0  0  0  0  0  0  0  0  0  0  0
  -24.4177   -2.1489   -4.8328 S   0  0  0  0  0  0  0  0  0  0  0  0
  -23.2148   -2.5726   -4.0936 O   0  0  0  0  0  0  0  0  0  0  0  0
  -24.0219   -1.3279   -5.9990 O   0  0  0  0  0  0  0  0  0  0  0  0
  -25.1204   -3.3618   -5.2942 O   0  0  0  0  0  0  0  0  0  0  0  0
  -25.3783   -3.8973   -4.5277 H   0  0  0  0  0  0  0  0  0  0  0  0
  -22.8404    0.1108   -4.3444 N   0  0  0  0  0  0  0  0  0  0  0  0
  -23.1270   -0.4838   -5.0749 H   0  0  0  0  0  0  0  0  0  0  0  0
  -21.5115    0.3585   -4.2047 C   0  0  0  0  0  0  0  0  0  0  0  0
  -20.7815   -0.2315   -3.1669 C   0  0  0  0  0  0  0  0  0  0  0  0
  -19.4185    0.0267   -3.0234 C   0  0  0  0  0  0  0  0  0  0  0  0
  -18.7803    0.8897   -3.9153 C   0  0  0  0  0  0  0  0  0  0  0  0
  -19.5056    1.4843   -4.9496 C   0  0  0  0  0  0  0  0  0  0  0  0
  -20.8686    1.2219   -5.0931 C   0  0  0  0  0  0  0  0  0  0  0  0
  1  2  2  0  0  0
  1 16  1  0  0  0
  1 10  1  0  0  0
  2  3  1  0  0  0
  3  4  2  0  0  0
  4  5  1  0  0  0
  5  6  2  0  0  0
  5 10  1  0  0  0
  6  7  1  0  0  0
  7  8  2  0  0  0
  8  9  1  0  0  0
 16 18  1  0  0  0
 11  9  1  0  0  0
 11 12  2  0  0  0
 11 13  2  0  0  0
 11 14  1  0  0  0
  9 10  2  0  0  0
 18 19  2  0  0  0
 18 23  1  0  0  0
 19 20  1  0  0  0
 20 21  2  0  0  0
 21 22  1  0  0  0
 22 23  2  0  0  0
 16 17  1  0  0  0
 14 15  1  0  0  0
M  END
> <minimizedAffinity>
-7.99008

$$$$
3CFN_2AN_A_1


 23 25  0  0  0  0  0  0  0  0999 V2000
  -21.4759   -0.2172   -4.9599 C   0  0  0  0  0  0  0  0  0  0  0  0
  -21.1421   -0.5280   -3.6380 C   0  0  0  0  0  0  0  0  0  0  0  0
  -20.0211    0.0133   -3.0238 C   0  0  0  0  0  0  0  0  0  0  0  0
  -19.2127    0.8830   -3.7449 C   0  0  0  0  0  0  0  0  0  0  0  0
  -19.5244    1.2054   -5.0618 C   0  0  0  0  0  0  0  0  0  0  0  0
  -18.6693    2.0849   -5.7220 C   0  0  0  0  0  0  0  0  0  0  0  0
  -18.9239    2.4473   -7.0373 C   0  0  0  0  0  0  0  0  0  0  0  0
  -20.0357    1.9218   -7.6831 C   0  0  0  0  0  0  0  0  0  0  0  0
  -20.9082    1.0369   -7.0426 C   0  0  0  0  0  0  0  0  0  0  0  0
  -20.6583    0.6629   -5.7006 C   0  0  0  0  0  0  0  0  0  0  0  0
  -22.1431    0.5176   -7.9336 S   0  0  0  0  0  0  0  0  0  0  0  0
  -21.9371    0.9646   -9.3231 O   0  0  0  0  0  0  0  0  0  0  0  0
  -23.4158    1.0690   -7.4168 O   0  0  0  0  0  0  0  0  0  0  0  0
  -22.2037   -0.9569   -7.9330 O   0  0  0  0  0  0  0  0  0  0  0  0
  -21.3684   -1.3150   -8.2721 H   0  0  0  0  0  0  0  0  0  0  0  0
  -22.5852   -0.7882   -5.4980 N   0  0  0  0  0  0  0  0  0  0  0  0
  -22.5752   -1.0060   -6.4581 H   0  0  0  0  0  0  0  0  0  0  0  0
  -23.7077   -1.0761   -4.7879 C   0  0  0  0  0  0  0  0  0  0  0  0
  -24.3571   -2.3050   -4.9480 C   0  0  0  0  0  0  0  0  0  0  0  0
  -25.5108   -2.5970   -4.2208 C   0  0  0  0  0  0  0  0  0  0  0  0
  -26.0279   -1.6508   -3.3349 C   0  0  0  0  0  0  0  0  0  0  0  0
  -25.3858   -0.4212   -3.1752 C   0  0  0  0  0  0  0  0  0  0  0  0
  -24.2299   -0.1327   -3.9016 C   0  0  0  0  0  0  0  0  0  0  0  0
  1  2  2  0  0  0
  1 16  1  0  0  0
  1 10  1  0  0  0
  2  3  1  0  0  0
  3  4  2  0  0  0
  4  5  1  0  0  0
  5  6  2  0  0  0
  5 10  1  0  0  0
  6  7  1  0  0  0
  7  8  2  0  0  0
  8  9  1  0  0  0
 16 18  1  0  0  0
 11  9  1  0  0  0
 11 12  2  0  0  0
 11 13  2  0  0  0
 11 14  1  0  0  0
  9 10  2  0  0  0
 18 19  2  0  0  0
 18 23  1  0  0  0
 19 20  1  0  0  0
 20 21  2  0  0  0
 21 22  1  0  0  0
 22 23  2  0  0  0
 16 17  1  0  0  0
 14 15  1  0  0  0
M  END
> <minimizedAffinity>
-7.98425

$$$$
