2CET_PGI_A_1447
  RCSB PDB12061705143D
Coordinates from PDB:2CET:A:1447 Model:1 without hydrogens
 22 24  0  0  0  0            999 V2000
   -2.7750    8.0450    8.4800   O 0  0  0  0  0  0  0  0  0  0  0  0
   -3.2670    9.3630    8.2000   C 0  0  0  0  0  0  0  0  0  0  0  0
   -2.3130   10.4730    8.6290   C 0  0  0  0  0  0  0  0  0  0  0  0
   -1.1030   10.6420    7.6940   C 0  0  0  0  0  0  0  0  0  0  0  0
   -1.5160   10.8410    6.3370   O 0  0  0  0  0  0  0  0  0  0  0  0
   -0.2660   11.8380    8.1920   C 0  0  0  0  0  0  0  0  0  0  0  0
    0.8140   12.2110    7.3370   O 0  0  0  0  0  0  0  0  0  0  0  0
    0.3640   11.5580    9.5490   C 0  0  0  0  0  0  0  0  0  0  0  0
    0.7430   12.7850   10.1550   O 0  0  0  0  0  0  0  0  0  0  0  0
   -1.7290   10.2150    9.9710   N 0  3  0  0  0  0  0  0  0  0  0  0
   -2.2130    9.4230   10.9420   C 0  0  0  0  0  0  0  0  0  0  0  0
   -1.2870    9.4600   11.9730   C 0  0  0  0  0  0  0  0  0  0  0  0
   -0.2800   10.2540   11.5880   N 0  0  0  0  0  0  0  0  0  0  0  0
   -0.5520   10.7170   10.3680   C 0  0  0  0  0  0  0  0  0  0  0  0
   -1.3760    8.7660   13.3130   C 0  0  0  0  0  0  0  0  0  0  0  0
   -0.0900    7.9790   13.5770   C 0  0  0  0  0  0  0  0  0  0  0  0
    0.2210    6.8550   12.5880   C 0  0  0  0  0  0  0  0  0  0  0  0
    1.1890    7.0310   11.5850   C 0  0  0  0  0  0  0  0  0  0  0  0
    1.5000    6.0000   10.6790   C 0  0  0  0  0  0  0  0  0  0  0  0
   -0.4210    5.6130   12.6800   C 0  0  0  0  0  0  0  0  0  0  0  0
   -0.1050    4.5860   11.7730   C 0  0  0  0  0  0  0  0  0  0  0  0
    0.8590    4.7600   10.7710   C 0  0  0  0  0  0  0  0  0  0  0  0
  1  2  1  0  0  0  0
  2  3  1  0  0  0  0
  3  4  1  0  0  0  0
  3 10  1  0  0  0  0
  4  5  1  0  0  0  0
  4  6  1  0  0  0  0
  6  7  1  0  0  0  0
  6  8  1  0  0  0  0
  8  9  1  0  0  0  0
  8 14  1  0  0  0  0
 10 11  1  0  0  0  0
 10 14  2  0  0  0  0
 11 12  2  0  0  0  0
 12 13  1  0  0  0  0
 12 15  1  0  0  0  0
 13 14  1  0  0  0  0
 15 16  1  0  0  0  0
 16 17  1  0  0  0  0
 17 18  2  0  0  0  0
 17 20  1  0  0  0  0
 18 19  1  0  0  0  0
 19 22  2  0  0  0  0
 20 21  2  0  0  0  0
 21 22  1  0  0  0  0
M  CHG  1  10   1
A    1
O6
A    2
C6
A    3
C5
A    4
C4
A    5
O4
A    6
C3
A    7
O3
A    8
C2
A    9
O2
A   10
N1
A   11
C8
A   12
C7
A   13
N2
A   14
C1
A   15
C9
A   16
C10
A   17
C14
A   18
C13
A   19
C12
A   20
C15
A   21
C16
A   22
C11
M  END
>  <InstanceId>
2CET_PGI_A_1447

>  <ChemCompId>
PGI

>  <PdbId>
2CET

>  <ChainId>
A

>  <ResidueNumber>
1447

>  <InsertionCode>


>  <Model>
1

>  <AltIds>


>  <MissingHeavyAtoms>
0

>  <ObservedFormula>
C16 N2 O4

>  <Name>
(5R,6R,7S,8S)-5-(HYDROXYMETHYL)-2-(2-PHENYLETHYL)-1,5,6,7,8,8A-HEXAHYDROIMIDAZO[1,2-A]PYRIDINE-6,7,8-TRIOL

>  <SystematicName>
(5R,6R,7S,8S)-5-(hydroxymethyl)-2-phenethyl-5,6,7,8-tetrahydro-1H-imidazo[2,1-f]pyridin-4-ium-6,7,8-triol

>  <Synonyms>


>  <Type>
NON-POLYMER

>  <Formula>
C16 H21 N2 O4

>  <MolecularWeight>
305.349

>  <ModifiedDate>
2011-06-04

>  <Parent>


>  <OneLetterCode>


>  <SubcomponentList>


>  <AmbiguousFlag>
N

>  <InChI>
InChI=1S/C16H20N2O4/c19-9-12-13(20)14(21)15(22)16-17-11(8-18(12)16)7-6-10-4-2-1-3-5-10/h1-5,8,12-15,19-22H,6-7,9H2/p+1/t12-,13-,14+,15-/m1/s1

>  <InChIKey>
MLRMIFDEZCZOAE-APIJFGDWSA-O

>  <SMILES>
c1ccc(cc1)CCc2c[n+]3c([nH]2)[C@@H]([C@H]([C@@H]([C@H]3CO)O)O)O

$$$$
