2CET_PGI_A_1447


 27 29  0  0  0  0  0  0  0  0999 V2000
   -0.8311    5.6527   16.3911 C   0  0  0  0  0  0  0  0  0  0  0  0
   -2.1839    4.9545   16.6131 C   0  0  0  0  0  0  0  0  0  0  0  0
   -2.0967    3.9637   17.6438 O   0  0  0  0  0  0  0  0  0  0  0  0
   -3.2323    6.0271   16.9727 C   0  0  0  0  0  0  0  0  0  0  0  0
   -4.5087    5.5139   17.3523 O   0  0  0  0  0  0  0  0  0  0  0  0
   -3.4995    6.9668   15.8055 C   0  0  0  0  0  0  0  0  0  0  0  0
   -4.1076    8.1560   16.2873 O   0  0  0  0  0  0  0  0  0  0  0  0
   -1.0642    6.5937   15.2647 N   0  0  0  0  0  0  0  0  0  0  0  0
   -0.2037    6.9494   14.2965 C   0  0  0  0  0  0  0  0  0  0  0  0
   -0.9001    7.7958   13.4477 C   0  0  0  0  0  0  0  0  0  0  0  0
   -2.1477    7.9104   13.9200 N   0  0  0  0  0  0  0  0  0  0  0  0
   -2.2460    7.1795   15.0304 C   0  0  0  0  0  0  0  0  0  0  0  0
   -1.8359    4.3861   18.4771 H   0  0  0  0  0  0  0  0  0  0  0  0
   -4.9133    5.0616   16.5956 H   0  0  0  0  0  0  0  0  0  0  0  0
   -3.5152    8.5877   16.9226 H   0  0  0  0  0  0  0  0  0  0  0  0
   -2.8697    8.4438   13.5158 H   0  0  0  0  0  0  0  0  0  0  0  0
    0.7696    3.9741   17.2577 O   0  0  0  0  0  0  0  0  0  0  0  0
    0.3143    4.6885   16.1001 C   0  0  0  0  0  0  0  0  0  0  0  0
    1.4948    3.3808   17.0069 H   0  0  0  0  0  0  0  0  0  0  0  0
   -0.3734    8.5014   12.2189 C   0  0  0  0  0  0  0  0  0  0  0  0
   -1.5414    9.0316   11.3836 C   0  0  0  0  0  0  0  0  0  0  0  0
   -1.1642    9.8943   10.1787 C   0  0  0  0  0  0  0  0  0  0  0  0
   -1.9644    9.9006    9.0238 C   0  0  0  0  0  0  0  0  0  0  0  0
   -1.6412   10.7031    7.9139 C   0  0  0  0  0  0  0  0  0  0  0  0
   -0.0371   10.7261   10.2096 C   0  0  0  0  0  0  0  0  0  0  0  0
    0.2800   11.5270    9.0982 C   0  0  0  0  0  0  0  0  0  0  0  0
   -0.5159   11.5336    7.9449 C   0  0  0  0  0  0  0  0  0  0  0  0
 17 18  1  0  0  0
 18  1  1  0  0  0
  1  2  1  0  0  0
  1  8  1  0  0  0
  2  3  1  0  0  0
  2  4  1  0  0  0
  4  5  1  0  0  0
  4  6  1  0  0  0
  6  7  1  0  0  0
  6 12  1  0  0  0
  8  9  1  0  0  0
  8 12  2  0  0  0
  9 10  2  0  0  0
 10 11  1  0  0  0
 10 20  1  0  0  0
 11 12  1  0  0  0
 20 21  1  0  0  0
 21 22  1  0  0  0
 22 23  2  0  0  0
 22 25  1  0  0  0
 23 24  1  0  0  0
 24 27  2  0  0  0
 25 26  2  0  0  0
 26 27  1  0  0  0
 17 19  1  0  0  0
  3 13  1  0  0  0
  5 14  1  0  0  0
  7 15  1  0  0  0
 11 16  1  0  0  0
M  CHG 1   8   1
M  END
> <minimizedAffinity>
-10.06300

$$$$
2CET_PGI_A_1447


 27 29  0  0  0  0  0  0  0  0999 V2000
   -2.0177    6.6784   15.2081 C   0  0  0  0  0  0  0  0  0  0  0  0
   -1.2824    6.4010   16.5307 C   0  0  0  0  0  0  0  0  0  0  0  0
   -2.1832    6.4279   17.6440 O   0  0  0  0  0  0  0  0  0  0  0  0
   -0.5871    5.0284   16.4227 C   0  0  0  0  0  0  0  0  0  0  0  0
    0.0164    4.5658   17.6303 O   0  0  0  0  0  0  0  0  0  0  0  0
    0.5281    5.0423   15.3869 C   0  0  0  0  0  0  0  0  0  0  0  0
    0.8380    3.7088   15.0100 O   0  0  0  0  0  0  0  0  0  0  0  0
   -0.9544    6.6805   14.1699 N   0  0  0  0  0  0  0  0  0  0  0  0
   -0.8873    7.4347   13.0604 C   0  0  0  0  0  0  0  0  0  0  0  0
    0.3166    7.1217   12.4485 C   0  0  0  0  0  0  0  0  0  0  0  0
    0.9347    6.2088   13.2082 N   0  0  0  0  0  0  0  0  0  0  0  0
    0.1572    5.9376   14.2564 C   0  0  0  0  0  0  0  0  0  0  0  0
   -2.8614    5.7442   17.5278 H   0  0  0  0  0  0  0  0  0  0  0  0
    0.7444    5.1580   17.8754 H   0  0  0  0  0  0  0  0  0  0  0  0
    0.0497    3.2879   14.6327 H   0  0  0  0  0  0  0  0  0  0  0  0
    1.8141    5.8063   13.0240 H   0  0  0  0  0  0  0  0  0  0  0  0
   -2.4608    8.8630   16.2860 O   0  0  0  0  0  0  0  0  0  0  0  0
   -2.8128    7.9800   15.2117 C   0  0  0  0  0  0  0  0  0  0  0  0
   -2.9992    9.6681   16.2323 H   0  0  0  0  0  0  0  0  0  0  0  0
    0.8551    7.6698   11.1466 C   0  0  0  0  0  0  0  0  0  0  0  0
   -0.1298    7.3763   10.0123 C   0  0  0  0  0  0  0  0  0  0  0  0
   -0.8595    8.5874    9.4303 C   0  0  0  0  0  0  0  0  0  0  0  0
   -0.1391    9.6716    8.9015 C   0  0  0  0  0  0  0  0  0  0  0  0
   -0.7958   10.7852    8.3454 C   0  0  0  0  0  0  0  0  0  0  0  0
   -2.2589    8.6302    9.3746 C   0  0  0  0  0  0  0  0  0  0  0  0
   -2.9096    9.7447    8.8163 C   0  0  0  0  0  0  0  0  0  0  0  0
   -2.1930   10.8277    8.2898 C   0  0  0  0  0  0  0  0  0  0  0  0
 17 18  1  0  0  0
 18  1  1  0  0  0
  1  2  1  0  0  0
  1  8  1  0  0  0
  2  3  1  0  0  0
  2  4  1  0  0  0
  4  5  1  0  0  0
  4  6  1  0  0  0
  6  7  1  0  0  0
  6 12  1  0  0  0
  8  9  1  0  0  0
  8 12  2  0  0  0
  9 10  2  0  0  0
 10 11  1  0  0  0
 10 20  1  0  0  0
 11 12  1  0  0  0
 20 21  1  0  0  0
 21 22  1  0  0  0
 22 23  2  0  0  0
 22 25  1  0  0  0
 23 24  1  0  0  0
 24 27  2  0  0  0
 25 26  2  0  0  0
 26 27  1  0  0  0
 17 19  1  0  0  0
  3 13  1  0  0  0
  5 14  1  0  0  0
  7 15  1  0  0  0
 11 16  1  0  0  0
M  CHG 1   8   1
M  END
> <minimizedAffinity>
-8.98101

$$$$
2CET_PGI_A_1447


 27 29  0  0  0  0  0  0  0  0999 V2000
   -2.3371    4.7403   15.9245 C   0  0  0  0  0  0  0  0  0  0  0  0
   -1.2622    3.8006   16.4977 C   0  0  0  0  0  0  0  0  0  0  0  0
   -1.7465    3.0920   17.6444 O   0  0  0  0  0  0  0  0  0  0  0  0
   -0.8325    2.8183   15.3889 C   0  0  0  0  0  0  0  0  0  0  0  0
    0.0567    1.7863   15.8142 O   0  0  0  0  0  0  0  0  0  0  0  0
   -0.1168    3.5321   14.2509 C   0  0  0  0  0  0  0  0  0  0  0  0
   -0.1292    2.7071   13.0952 O   0  0  0  0  0  0  0  0  0  0  0  0
   -1.6723    5.4417   14.7954 N   0  0  0  0  0  0  0  0  0  0  0  0
   -1.8616    6.7066   14.3850 C   0  0  0  0  0  0  0  0  0  0  0  0
   -0.9717    6.9155   13.3427 C   0  0  0  0  0  0  0  0  0  0  0  0
   -0.2738    5.7860   13.1702 N   0  0  0  0  0  0  0  0  0  0  0  0
   -0.7041    4.8862   14.0544 C   0  0  0  0  0  0  0  0  0  0  0  0
   -2.5129    2.5537   17.3920 H   0  0  0  0  0  0  0  0  0  0  0  0
    0.8986    2.1794   16.0927 H   0  0  0  0  0  0  0  0  0  0  0  0
   -1.0465    2.5246   12.8380 H   0  0  0  0  0  0  0  0  0  0  0  0
    0.4366    5.6442   12.5035 H   0  0  0  0  0  0  0  0  0  0  0  0
   -4.3036    5.5366   17.2009 O   0  0  0  0  0  0  0  0  0  0  0  0
   -2.9033    5.7185   16.9485 C   0  0  0  0  0  0  0  0  0  0  0  0
   -4.6008    6.1859   17.8575 H   0  0  0  0  0  0  0  0  0  0  0  0
   -0.8088    8.1672   12.5109 C   0  0  0  0  0  0  0  0  0  0  0  0
   -2.1278    8.5000   11.8091 C   0  0  0  0  0  0  0  0  0  0  0  0
   -2.0091    9.2663   10.4912 C   0  0  0  0  0  0  0  0  0  0  0  0
   -2.9951    9.1405    9.4983 C   0  0  0  0  0  0  0  0  0  0  0  0
   -2.9100    9.8533    8.2878 C   0  0  0  0  0  0  0  0  0  0  0  0
   -0.9386   10.1393   10.2565 C   0  0  0  0  0  0  0  0  0  0  0  0
   -0.8596   10.8501    9.0458 C   0  0  0  0  0  0  0  0  0  0  0  0
   -1.8412   10.7248    8.0536 C   0  0  0  0  0  0  0  0  0  0  0  0
 17 18  1  0  0  0
 18  1  1  0  0  0
  1  2  1  0  0  0
  1  8  1  0  0  0
  2  3  1  0  0  0
  2  4  1  0  0  0
  4  5  1  0  0  0
  4  6  1  0  0  0
  6  7  1  0  0  0
  6 12  1  0  0  0
  8  9  1  0  0  0
  8 12  2  0  0  0
  9 10  2  0  0  0
 10 11  1  0  0  0
 10 20  1  0  0  0
 11 12  1  0  0  0
 20 21  1  0  0  0
 21 22  1  0  0  0
 22 23  2  0  0  0
 22 25  1  0  0  0
 23 24  1  0  0  0
 24 27  2  0  0  0
 25 26  2  0  0  0
 26 27  1  0  0  0
 17 19  1  0  0  0
  3 13  1  0  0  0
  5 14  1  0  0  0
  7 15  1  0  0  0
 11 16  1  0  0  0
M  CHG 1   8   1
M  END
> <minimizedAffinity>
-8.45449

$$$$
2CET_PGI_A_1447


 27 29  0  0  0  0  0  0  0  0999 V2000
    1.3053    4.2379   13.8669 C   0  0  0  0  0  0  0  0  0  0  0  0
    0.5766    3.2496   14.7938 C   0  0  0  0  0  0  0  0  0  0  0  0
    1.1699    1.9471   14.7373 O   0  0  0  0  0  0  0  0  0  0  0  0
    0.6190    3.8080   16.2310 C   0  0  0  0  0  0  0  0  0  0  0  0
    0.1094    2.9272   17.2314 O   0  0  0  0  0  0  0  0  0  0  0  0
   -0.1927    5.0890   16.3613 C   0  0  0  0  0  0  0  0  0  0  0  0
    0.2118    5.7865   17.5302 O   0  0  0  0  0  0  0  0  0  0  0  0
    0.5445    5.5090   13.9859 N   0  0  0  0  0  0  0  0  0  0  0  0
    0.3188    6.4268   13.0314 C   0  0  0  0  0  0  0  0  0  0  0  0
   -0.4886    7.3962   13.6059 C   0  0  0  0  0  0  0  0  0  0  0  0
   -0.7312    7.0278   14.8701 N   0  0  0  0  0  0  0  0  0  0  0  0
   -0.0977    5.8782   15.1022 C   0  0  0  0  0  0  0  0  0  0  0  0
    2.0954    2.0006   15.0227 H   0  0  0  0  0  0  0  0  0  0  0  0
   -0.8385    2.7836   17.0834 H   0  0  0  0  0  0  0  0  0  0  0  0
    1.1547    6.0048   17.4664 H   0  0  0  0  0  0  0  0  0  0  0  0
   -1.2835    7.5220   15.5180 H   0  0  0  0  0  0  0  0  0  0  0  0
    2.2807    2.6463   12.2402 O   0  0  0  0  0  0  0  0  0  0  0  0
    1.3995    3.7638   12.4204 C   0  0  0  0  0  0  0  0  0  0  0  0
    2.2963    2.3946   11.3036 H   0  0  0  0  0  0  0  0  0  0  0  0
   -0.9998    8.6652   12.9628 C   0  0  0  0  0  0  0  0  0  0  0  0
   -2.0316    8.3226   11.8854 C   0  0  0  0  0  0  0  0  0  0  0  0
   -1.9803    9.1733   10.6158 C   0  0  0  0  0  0  0  0  0  0  0  0
   -0.8860   10.0176   10.3631 C   0  0  0  0  0  0  0  0  0  0  0  0
   -0.8150   10.7926    9.1906 C   0  0  0  0  0  0  0  0  0  0  0  0
   -3.0003    9.1043    9.6577 C   0  0  0  0  0  0  0  0  0  0  0  0
   -2.9231    9.8797    8.4872 C   0  0  0  0  0  0  0  0  0  0  0  0
   -1.8334   10.7235    8.2340 C   0  0  0  0  0  0  0  0  0  0  0  0
 17 18  1  0  0  0
 18  1  1  0  0  0
  1  2  1  0  0  0
  1  8  1  0  0  0
  2  3  1  0  0  0
  2  4  1  0  0  0
  4  5  1  0  0  0
  4  6  1  0  0  0
  6  7  1  0  0  0
  6 12  1  0  0  0
  8  9  1  0  0  0
  8 12  2  0  0  0
  9 10  2  0  0  0
 10 11  1  0  0  0
 10 20  1  0  0  0
 11 12  1  0  0  0
 20 21  1  0  0  0
 21 22  1  0  0  0
 22 23  2  0  0  0
 22 25  1  0  0  0
 23 24  1  0  0  0
 24 27  2  0  0  0
 25 26  2  0  0  0
 26 27  1  0  0  0
 17 19  1  0  0  0
  3 13  1  0  0  0
  5 14  1  0  0  0
  7 15  1  0  0  0
 11 16  1  0  0  0
M  CHG 1   8   1
M  END
> <minimizedAffinity>
-8.44583

$$$$
2CET_PGI_A_1447


 27 29  0  0  0  0  0  0  0  0999 V2000
   -0.7121    7.0048   10.1727 C   0  0  0  0  0  0  0  0  0  0  0  0
    0.2768    7.8840    9.3878 C   0  0  0  0  0  0  0  0  0  0  0  0
    0.6987    7.2428    8.1785 O   0  0  0  0  0  0  0  0  0  0  0  0
   -0.4068    9.2324    9.0823 C   0  0  0  0  0  0  0  0  0  0  0  0
    0.3369   10.1015    8.2290 O   0  0  0  0  0  0  0  0  0  0  0  0
   -0.6694   10.0307   10.3513 C   0  0  0  0  0  0  0  0  0  0  0  0
   -1.6547   11.0195   10.0908 O   0  0  0  0  0  0  0  0  0  0  0  0
   -1.0034    7.7678   11.4143 N   0  0  0  0  0  0  0  0  0  0  0  0
   -1.2410    7.2817   12.6438 C   0  0  0  0  0  0  0  0  0  0  0  0
   -1.3941    8.3807   13.4747 C   0  0  0  0  0  0  0  0  0  0  0  0
   -1.2321    9.4810   12.7291 N   0  0  0  0  0  0  0  0  0  0  0  0
   -0.9973    9.1063   11.4716 C   0  0  0  0  0  0  0  0  0  0  0  0
   -0.0724    7.0792    7.6133 H   0  0  0  0  0  0  0  0  0  0  0  0
    1.1551   10.3704    8.6752 H   0  0  0  0  0  0  0  0  0  0  0  0
   -2.4751   10.5902    9.8018 H   0  0  0  0  0  0  0  0  0  0  0  0
   -1.2786   10.4090   13.0543 H   0  0  0  0  0  0  0  0  0  0  0  0
    1.2507    5.5267   10.4782 O   0  0  0  0  0  0  0  0  0  0  0  0
   -0.1815    5.6071   10.4744 C   0  0  0  0  0  0  0  0  0  0  0  0
    1.5229    4.6168   10.6753 H   0  0  0  0  0  0  0  0  0  0  0  0
   -1.7132    8.3779   14.9523 C   0  0  0  0  0  0  0  0  0  0  0  0
   -2.9857    7.5664   15.2074 C   0  0  0  0  0  0  0  0  0  0  0  0
   -2.8163    6.0469   15.2310 C   0  0  0  0  0  0  0  0  0  0  0  0
   -3.6926    5.2173   14.5113 C   0  0  0  0  0  0  0  0  0  0  0  0
   -3.5388    3.8184   14.5077 C   0  0  0  0  0  0  0  0  0  0  0  0
   -1.7645    5.4477   15.9365 C   0  0  0  0  0  0  0  0  0  0  0  0
   -1.6148    4.0495   15.9279 C   0  0  0  0  0  0  0  0  0  0  0  0
   -2.4886    3.2203   15.2121 C   0  0  0  0  0  0  0  0  0  0  0  0
 17 18  1  0  0  0
 18  1  1  0  0  0
  1  2  1  0  0  0
  1  8  1  0  0  0
  2  3  1  0  0  0
  2  4  1  0  0  0
  4  5  1  0  0  0
  4  6  1  0  0  0
  6  7  1  0  0  0
  6 12  1  0  0  0
  8  9  1  0  0  0
  8 12  2  0  0  0
  9 10  2  0  0  0
 10 11  1  0  0  0
 10 20  1  0  0  0
 11 12  1  0  0  0
 20 21  1  0  0  0
 21 22  1  0  0  0
 22 23  2  0  0  0
 22 25  1  0  0  0
 23 24  1  0  0  0
 24 27  2  0  0  0
 25 26  2  0  0  0
 26 27  1  0  0  0
 17 19  1  0  0  0
  3 13  1  0  0  0
  5 14  1  0  0  0
  7 15  1  0  0  0
 11 16  1  0  0  0
M  CHG 1   8   1
M  END
> <minimizedAffinity>
-8.43274

$$$$
2CET_PGI_A_1447


 27 29  0  0  0  0  0  0  0  0999 V2000
   -2.1935    7.8580   14.5639 C   0  0  0  0  0  0  0  0  0  0  0  0
   -2.9388    7.8700   15.9098 C   0  0  0  0  0  0  0  0  0  0  0  0
   -3.6790    9.0836   16.0855 O   0  0  0  0  0  0  0  0  0  0  0  0
   -3.8758    6.6459   15.9585 C   0  0  0  0  0  0  0  0  0  0  0  0
   -4.7453    6.6014   17.0893 O   0  0  0  0  0  0  0  0  0  0  0  0
   -3.0946    5.3400   15.9913 C   0  0  0  0  0  0  0  0  0  0  0  0
   -3.9458    4.2716   15.6033 O   0  0  0  0  0  0  0  0  0  0  0  0
   -1.4321    6.5818   14.5572 N   0  0  0  0  0  0  0  0  0  0  0  0
   -0.2243    6.3455   14.0190 C   0  0  0  0  0  0  0  0  0  0  0  0
    0.0880    5.0299   14.3246 C   0  0  0  0  0  0  0  0  0  0  0  0
   -0.9251    4.5263   15.0406 N   0  0  0  0  0  0  0  0  0  0  0  0
   -1.8537    5.4725   15.1791 C   0  0  0  0  0  0  0  0  0  0  0  0
   -4.3362    9.1670   15.3770 H   0  0  0  0  0  0  0  0  0  0  0  0
   -4.2191    6.5029   17.8981 H   0  0  0  0  0  0  0  0  0  0  0  0
   -4.2751    4.4305   14.7048 H   0  0  0  0  0  0  0  0  0  0  0  0
   -0.9756    3.6124   15.4031 H   0  0  0  0  0  0  0  0  0  0  0  0
   -1.1252    9.4337   12.9807 O   0  0  0  0  0  0  0  0  0  0  0  0
   -1.2841    9.0650   14.3578 C   0  0  0  0  0  0  0  0  0  0  0  0
   -0.5387   10.2038   12.9177 H   0  0  0  0  0  0  0  0  0  0  0  0
    1.3244    4.2611   13.9180 C   0  0  0  0  0  0  0  0  0  0  0  0
    2.0335    4.9860   12.7714 C   0  0  0  0  0  0  0  0  0  0  0  0
    1.7520    4.4513   11.3667 C   0  0  0  0  0  0  0  0  0  0  0  0
    2.3144    3.2378   10.9363 C   0  0  0  0  0  0  0  0  0  0  0  0
    2.0501    2.7230    9.6535 C   0  0  0  0  0  0  0  0  0  0  0  0
    0.8993    5.1354   10.4903 C   0  0  0  0  0  0  0  0  0  0  0  0
    0.6377    4.6153    9.2103 C   0  0  0  0  0  0  0  0  0  0  0  0
    1.1987    3.4060    8.7785 C   0  0  0  0  0  0  0  0  0  0  0  0
 17 18  1  0  0  0
 18  1  1  0  0  0
  1  2  1  0  0  0
  1  8  1  0  0  0
  2  3  1  0  0  0
  2  4  1  0  0  0
  4  5  1  0  0  0
  4  6  1  0  0  0
  6  7  1  0  0  0
  6 12  1  0  0  0
  8  9  1  0  0  0
  8 12  2  0  0  0
  9 10  2  0  0  0
 10 11  1  0  0  0
 10 20  1  0  0  0
 11 12  1  0  0  0
 20 21  1  0  0  0
 21 22  1  0  0  0
 22 23  2  0  0  0
 22 25  1  0  0  0
 23 24  1  0  0  0
 24 27  2  0  0  0
 25 26  2  0  0  0
 26 27  1  0  0  0
 17 19  1  0  0  0
  3 13  1  0  0  0
  5 14  1  0  0  0
  7 15  1  0  0  0
 11 16  1  0  0  0
M  CHG 1   8   1
M  END
> <minimizedAffinity>
-8.32363

$$$$
2CET_PGI_A_1447


 27 29  0  0  0  0  0  0  0  0999 V2000
   -2.0137    5.3761   15.0844 C   0  0  0  0  0  0  0  0  0  0  0  0
   -3.4507    5.7364   15.4992 C   0  0  0  0  0  0  0  0  0  0  0  0
   -4.0282    4.7152   16.3209 O   0  0  0  0  0  0  0  0  0  0  0  0
   -3.4183    7.0858   16.2457 C   0  0  0  0  0  0  0  0  0  0  0  0
   -4.6620    7.4814   16.8228 O   0  0  0  0  0  0  0  0  0  0  0  0
   -3.0119    8.2283   15.3257 C   0  0  0  0  0  0  0  0  0  0  0  0
   -2.5787    9.3318   16.1075 O   0  0  0  0  0  0  0  0  0  0  0  0
   -1.5801    6.4859   14.1962 N   0  0  0  0  0  0  0  0  0  0  0  0
   -0.7748    6.4161   13.1233 C   0  0  0  0  0  0  0  0  0  0  0  0
   -0.7202    7.6958   12.5930 C   0  0  0  0  0  0  0  0  0  0  0  0
   -1.4967    8.4832   13.3479 N   0  0  0  0  0  0  0  0  0  0  0  0
   -2.0181    7.7451   14.3278 C   0  0  0  0  0  0  0  0  0  0  0  0
   -3.4993    4.6116   17.1274 H   0  0  0  0  0  0  0  0  0  0  0  0
   -5.3096    7.6400   16.1182 H   0  0  0  0  0  0  0  0  0  0  0  0
   -1.8196    9.0657   16.6496 H   0  0  0  0  0  0  0  0  0  0  0  0
   -1.6555    9.4441   13.2038 H   0  0  0  0  0  0  0  0  0  0  0  0
   -3.1598    3.4727   13.9915 O   0  0  0  0  0  0  0  0  0  0  0  0
   -1.8974    4.0188   14.3984 C   0  0  0  0  0  0  0  0  0  0  0  0
   -3.0178    2.6136   13.5642 H   0  0  0  0  0  0  0  0  0  0  0  0
    0.0801    8.1617   11.3982 C   0  0  0  0  0  0  0  0  0  0  0  0
    1.4451    7.4692   11.3851 C   0  0  0  0  0  0  0  0  0  0  0  0
    1.4885    6.0893   10.7277 C   0  0  0  0  0  0  0  0  0  0  0  0
    2.2488    5.0510   11.2913 C   0  0  0  0  0  0  0  0  0  0  0  0
    2.2843    3.7704   10.7088 C   0  0  0  0  0  0  0  0  0  0  0  0
    0.7440    5.8151    9.5728 C   0  0  0  0  0  0  0  0  0  0  0  0
    0.7820    4.5332    8.9961 C   0  0  0  0  0  0  0  0  0  0  0  0
    1.5409    3.4967    9.5558 C   0  0  0  0  0  0  0  0  0  0  0  0
 17 18  1  0  0  0
 18  1  1  0  0  0
  1  2  1  0  0  0
  1  8  1  0  0  0
  2  3  1  0  0  0
  2  4  1  0  0  0
  4  5  1  0  0  0
  4  6  1  0  0  0
  6  7  1  0  0  0
  6 12  1  0  0  0
  8  9  1  0  0  0
  8 12  2  0  0  0
  9 10  2  0  0  0
 10 11  1  0  0  0
 10 20  1  0  0  0
 11 12  1  0  0  0
 20 21  1  0  0  0
 21 22  1  0  0  0
 22 23  2  0  0  0
 22 25  1  0  0  0
 23 24  1  0  0  0
 24 27  2  0  0  0
 25 26  2  0  0  0
 26 27  1  0  0  0
 17 19  1  0  0  0
  3 13  1  0  0  0
  5 14  1  0  0  0
  7 15  1  0  0  0
 11 16  1  0  0  0
M  CHG 1   8   1
M  END
> <minimizedAffinity>
-8.31275

$$$$
2CET_PGI_A_1447


 27 29  0  0  0  0  0  0  0  0999 V2000
    0.6970    3.6934    7.8760 C   0  0  0  0  0  0  0  0  0  0  0  0
   -0.3145    2.5801    8.1988 C   0  0  0  0  0  0  0  0  0  0  0  0
   -0.4589    1.6718    7.1007 O   0  0  0  0  0  0  0  0  0  0  0  0
    0.1651    1.8379    9.4630 C   0  0  0  0  0  0  0  0  0  0  0  0
   -0.5962    0.6798    9.8030 O   0  0  0  0  0  0  0  0  0  0  0  0
    0.1193    2.7335   10.6929 C   0  0  0  0  0  0  0  0  0  0  0  0
    0.9485    2.1849   11.7067 O   0  0  0  0  0  0  0  0  0  0  0  0
    0.6889    4.5784    9.0698 N   0  0  0  0  0  0  0  0  0  0  0  0
    0.8416    5.9124    9.1078 C   0  0  0  0  0  0  0  0  0  0  0  0
    0.6956    6.2839   10.4354 C   0  0  0  0  0  0  0  0  0  0  0  0
    0.4492    5.1749   11.1441 N   0  0  0  0  0  0  0  0  0  0  0  0
    0.4488    4.1345   10.3109 C   0  0  0  0  0  0  0  0  0  0  0  0
    0.3964    1.2554    6.9109 H   0  0  0  0  0  0  0  0  0  0  0  0
   -1.4996    0.9440   10.0374 H   0  0  0  0  0  0  0  0  0  0  0  0
    1.8606    2.1260   11.3817 H   0  0  0  0  0  0  0  0  0  0  0  0
    0.2947    5.1348   12.1155 H   0  0  0  0  0  0  0  0  0  0  0  0
    0.8844    3.8329    5.4110 O   0  0  0  0  0  0  0  0  0  0  0  0
    0.3757    4.4594    6.5968 C   0  0  0  0  0  0  0  0  0  0  0  0
    0.6477    4.3666    4.6364 H   0  0  0  0  0  0  0  0  0  0  0  0
    0.8134    7.6734   11.0188 C   0  0  0  0  0  0  0  0  0  0  0  0
   -0.5813    8.2469   11.2810 C   0  0  0  0  0  0  0  0  0  0  0  0
   -1.2354    8.9773   10.1077 C   0  0  0  0  0  0  0  0  0  0  0  0
   -0.4516    9.6612    9.1632 C   0  0  0  0  0  0  0  0  0  0  0  0
   -1.0370   10.3225    8.0675 C   0  0  0  0  0  0  0  0  0  0  0  0
   -2.6241    8.9515    9.9236 C   0  0  0  0  0  0  0  0  0  0  0  0
   -3.2033    9.6127    8.8261 C   0  0  0  0  0  0  0  0  0  0  0  0
   -2.4236   10.2965    7.8838 C   0  0  0  0  0  0  0  0  0  0  0  0
 17 18  1  0  0  0
 18  1  1  0  0  0
  1  2  1  0  0  0
  1  8  1  0  0  0
  2  3  1  0  0  0
  2  4  1  0  0  0
  4  5  1  0  0  0
  4  6  1  0  0  0
  6  7  1  0  0  0
  6 12  1  0  0  0
  8  9  1  0  0  0
  8 12  2  0  0  0
  9 10  2  0  0  0
 10 11  1  0  0  0
 10 20  1  0  0  0
 11 12  1  0  0  0
 20 21  1  0  0  0
 21 22  1  0  0  0
 22 23  2  0  0  0
 22 25  1  0  0  0
 23 24  1  0  0  0
 24 27  2  0  0  0
 25 26  2  0  0  0
 26 27  1  0  0  0
 17 19  1  0  0  0
  3 13  1  0  0  0
  5 14  1  0  0  0
  7 15  1  0  0  0
 11 16  1  0  0  0
M  CHG 1   8   1
M  END
> <minimizedAffinity>
-8.26328

$$$$
2CET_PGI_A_1447


 27 29  0  0  0  0  0  0  0  0999 V2000
   -0.1156    8.3826   10.9670 C   0  0  0  0  0  0  0  0  0  0  0  0
   -0.8176    7.5944    9.8477 C   0  0  0  0  0  0  0  0  0  0  0  0
   -1.3174    8.4682    8.8287 O   0  0  0  0  0  0  0  0  0  0  0  0
    0.1887    6.5853    9.2577 C   0  0  0  0  0  0  0  0  0  0  0  0
   -0.2746    5.8803    8.1067 O   0  0  0  0  0  0  0  0  0  0  0  0
    0.5692    5.5132   10.2688 C   0  0  0  0  0  0  0  0  0  0  0  0
    1.7779    4.8888    9.8617 O   0  0  0  0  0  0  0  0  0  0  0  0
    0.2856    7.3578   11.9657 N   0  0  0  0  0  0  0  0  0  0  0  0
    0.3317    7.4833   13.3023 C   0  0  0  0  0  0  0  0  0  0  0  0
    0.7027    6.2429   13.7977 C   0  0  0  0  0  0  0  0  0  0  0  0
    0.8533    5.4161   12.7553 N   0  0  0  0  0  0  0  0  0  0  0  0
    0.6021    6.0979   11.6378 C   0  0  0  0  0  0  0  0  0  0  0  0
   -0.5801    8.9594    8.4338 H   0  0  0  0  0  0  0  0  0  0  0  0
   -1.0255    5.3177    8.3526 H   0  0  0  0  0  0  0  0  0  0  0  0
    2.4835    5.5525    9.8111 H   0  0  0  0  0  0  0  0  0  0  0  0
    1.1066    4.4661   12.8057 H   0  0  0  0  0  0  0  0  0  0  0  0
   -0.6909   10.7874   11.0969 O   0  0  0  0  0  0  0  0  0  0  0  0
   -0.9855    9.4716   11.5863 C   0  0  0  0  0  0  0  0  0  0  0  0
   -1.2752   11.4308   11.5275 H   0  0  0  0  0  0  0  0  0  0  0  0
    0.9321    5.8619   15.2425 C   0  0  0  0  0  0  0  0  0  0  0  0
   -0.2310    5.0025   15.7442 C   0  0  0  0  0  0  0  0  0  0  0  0
   -1.6323    5.5568   15.4849 C   0  0  0  0  0  0  0  0  0  0  0  0
   -2.0598    6.7425   16.1057 C   0  0  0  0  0  0  0  0  0  0  0  0
   -3.3394    7.2755   15.8630 C   0  0  0  0  0  0  0  0  0  0  0  0
   -2.5084    4.9201   14.5959 C   0  0  0  0  0  0  0  0  0  0  0  0
   -3.7852    5.4582   14.3560 C   0  0  0  0  0  0  0  0  0  0  0  0
   -4.2140    6.6398   14.9753 C   0  0  0  0  0  0  0  0  0  0  0  0
 17 18  1  0  0  0
 18  1  1  0  0  0
  1  2  1  0  0  0
  1  8  1  0  0  0
  2  3  1  0  0  0
  2  4  1  0  0  0
  4  5  1  0  0  0
  4  6  1  0  0  0
  6  7  1  0  0  0
  6 12  1  0  0  0
  8  9  1  0  0  0
  8 12  2  0  0  0
  9 10  2  0  0  0
 10 11  1  0  0  0
 10 20  1  0  0  0
 11 12  1  0  0  0
 20 21  1  0  0  0
 21 22  1  0  0  0
 22 23  2  0  0  0
 22 25  1  0  0  0
 23 24  1  0  0  0
 24 27  2  0  0  0
 25 26  2  0  0  0
 26 27  1  0  0  0
 17 19  1  0  0  0
  3 13  1  0  0  0
  5 14  1  0  0  0
  7 15  1  0  0  0
 11 16  1  0  0  0
M  CHG 1   8   1
M  END
> <minimizedAffinity>
-8.14649

$$$$
2CET_PGI_A_1447


 27 29  0  0  0  0  0  0  0  0999 V2000
   -0.2093    9.3477   10.5546 C   0  0  0  0  0  0  0  0  0  0  0  0
   -0.4095    8.5715    9.2414 C   0  0  0  0  0  0  0  0  0  0  0  0
    0.0364    9.3320    8.1126 O   0  0  0  0  0  0  0  0  0  0  0  0
    0.3600    7.2385    9.3414 C   0  0  0  0  0  0  0  0  0  0  0  0
    0.3894    6.4718    8.1381 O   0  0  0  0  0  0  0  0  0  0  0  0
   -0.2392    6.3204   10.3973 C   0  0  0  0  0  0  0  0  0  0  0  0
    0.7148    5.3331   10.7598 O   0  0  0  0  0  0  0  0  0  0  0  0
   -0.7703    8.4665   11.6116 N   0  0  0  0  0  0  0  0  0  0  0  0
   -1.4130    8.8314   12.7333 C   0  0  0  0  0  0  0  0  0  0  0  0
   -1.7969    7.6571   13.3621 C   0  0  0  0  0  0  0  0  0  0  0  0
   -1.3889    6.6345   12.6001 N   0  0  0  0  0  0  0  0  0  0  0  0
   -0.7596    7.1290   11.5341 C   0  0  0  0  0  0  0  0  0  0  0  0
    0.9823    9.5255    8.2063 H   0  0  0  0  0  0  0  0  0  0  0  0
   -0.5101    6.1856    7.9150 H   0  0  0  0  0  0  0  0  0  0  0  0
    1.5070    5.7644   11.1165 H   0  0  0  0  0  0  0  0  0  0  0  0
   -1.5297    5.6797   12.7941 H   0  0  0  0  0  0  0  0  0  0  0  0
   -1.8850   10.8761    9.5612 O   0  0  0  0  0  0  0  0  0  0  0  0
   -0.8625   10.7259   10.5560 C   0  0  0  0  0  0  0  0  0  0  0  0
   -2.2588   11.7696    9.6140 H   0  0  0  0  0  0  0  0  0  0  0  0
   -2.5211    7.5159   14.6815 C   0  0  0  0  0  0  0  0  0  0  0  0
   -1.5104    7.5097   15.8310 C   0  0  0  0  0  0  0  0  0  0  0  0
   -1.0140    6.1341   16.2775 C   0  0  0  0  0  0  0  0  0  0  0  0
   -1.7253    5.3922   17.2354 C   0  0  0  0  0  0  0  0  0  0  0  0
   -1.2919    4.1169   17.6431 C   0  0  0  0  0  0  0  0  0  0  0  0
    0.1369    5.5641   15.7174 C   0  0  0  0  0  0  0  0  0  0  0  0
    0.5643    4.2888   16.1275 C   0  0  0  0  0  0  0  0  0  0  0  0
   -0.1428    3.5479   17.0838 C   0  0  0  0  0  0  0  0  0  0  0  0
 17 18  1  0  0  0
 18  1  1  0  0  0
  1  2  1  0  0  0
  1  8  1  0  0  0
  2  3  1  0  0  0
  2  4  1  0  0  0
  4  5  1  0  0  0
  4  6  1  0  0  0
  6  7  1  0  0  0
  6 12  1  0  0  0
  8  9  1  0  0  0
  8 12  2  0  0  0
  9 10  2  0  0  0
 10 11  1  0  0  0
 10 20  1  0  0  0
 11 12  1  0  0  0
 20 21  1  0  0  0
 21 22  1  0  0  0
 22 23  2  0  0  0
 22 25  1  0  0  0
 23 24  1  0  0  0
 24 27  2  0  0  0
 25 26  2  0  0  0
 26 27  1  0  0  0
 17 19  1  0  0  0
  3 13  1  0  0  0
  5 14  1  0  0  0
  7 15  1  0  0  0
 11 16  1  0  0  0
M  CHG 1   8   1
M  END
> <minimizedAffinity>
-8.13422

$$$$
