6EIF_B5T_A_501


 28 31  0  0  0  0  0  0  0  0999 V2000
    7.6469   16.5150  -47.0353 C   0  0  0  0  0  0  0  0  0  0  0  0
    6.6179   15.8528  -46.3451 C   0  0  0  0  0  0  0  0  0  0  0  0
    6.3978   14.5337  -46.5062 C   0  0  0  0  0  0  0  0  0  0  0  0
    8.4318   15.7411  -47.8993 C   0  0  0  0  0  0  0  0  0  0  0  0
    8.1594   14.3708  -48.0344 N   0  0  0  0  0  0  0  0  0  0  0  0
    7.1573   13.8040  -47.3400 C   0  0  0  0  0  0  0  0  0  0  0  0
    6.7304   12.5435  -47.3126 N   0  0  0  0  0  0  0  0  0  0  0  0
    5.7071   12.4676  -46.4725 C   0  0  0  0  0  0  0  0  0  0  0  0
    5.5057   13.6851  -45.9811 C   0  0  0  0  0  0  0  0  0  0  0  0
    7.1096   11.7953  -47.8281 H   0  0  0  0  0  0  0  0  0  0  0  0
    7.5731   18.7883  -47.9186 C   0  0  0  0  0  0  0  0  0  0  0  0
    7.7953   20.1581  -47.7847 C   0  0  0  0  0  0  0  0  0  0  0  0
    8.3227   20.6754  -46.6064 C   0  0  0  0  0  0  0  0  0  0  0  0
    8.6305   19.8055  -45.5587 C   0  0  0  0  0  0  0  0  0  0  0  0
    8.4103   18.4287  -45.6920 C   0  0  0  0  0  0  0  0  0  0  0  0
    7.8803   17.8963  -46.8793 C   0  0  0  0  0  0  0  0  0  0  0  0
    8.5851   22.4156  -46.4753 S   0  0  0  0  0  0  0  0  0  0  0  0
    8.3475   22.8678  -45.0351 O   0  0  0  0  0  0  0  0  0  0  0  0
    7.6177   23.1530  -47.4038 O   0  0  0  0  0  0  0  0  0  0  0  0
   10.1063   22.7643  -46.9072 N   0  0  0  0  0  0  0  0  0  0  0  0
   10.2645   22.4623  -47.8685 H   0  0  0  0  0  0  0  0  0  0  0  0
   10.7553   22.2796  -46.2874 H   0  0  0  0  0  0  0  0  0  0  0  0
    4.5453   13.9684  -45.0914 C   0  0  0  0  0  0  0  0  0  0  0  0
    4.7942   14.8215  -44.0124 C   0  0  0  0  0  0  0  0  0  0  0  0
    3.7903   15.1171  -43.0866 C   0  0  0  0  0  0  0  0  0  0  0  0
    2.5163   14.5681  -43.2325 C   0  0  0  0  0  0  0  0  0  0  0  0
    2.2510   13.7141  -44.3166 N   0  0  0  0  0  0  0  0  0  0  0  0
    3.2688   13.4160  -45.2440 C   0  0  0  0  0  0  0  0  0  0  0  0
 19 17  2  0  0  0
 25 24  2  0  0  0
 25 26  1  0  0  0
 14 15  2  0  0  0
 14 13  1  0  0  0
 20 17  1  0  0  0
 24 23  1  0  0  0
 26 27  2  0  0  0
 15 16  1  0  0  0
 17 13  1  0  0  0
 17 18  2  0  0  0
 13 12  2  0  0  0
 23  9  1  0  0  0
 23 28  2  0  0  0
 27 28  1  0  0  0
 16  1  1  0  0  0
 16 11  2  0  0  0
  2  1  2  0  0  0
  2  3  1  0  0  0
  1  4  1  0  0  0
  9  3  1  0  0  0
  9  8  2  0  0  0
 12 11  1  0  0  0
  3  6  2  0  0  0
  8  7  1  0  0  0
  4  5  2  0  0  0
  6  5  1  0  0  0
  6  7  1  0  0  0
 20 21  1  0  0  0
 20 22  1  0  0  0
  7 10  1  0  0  0
M  END
> <minimizedAffinity>
-9.80978

$$$$
6EIF_B5T_A_501


 28 31  0  0  0  0  0  0  0  0999 V2000
    7.0749   16.8750  -46.2709 C   0  0  0  0  0  0  0  0  0  0  0  0
    6.0555   16.0219  -45.8162 C   0  0  0  0  0  0  0  0  0  0  0  0
    6.0110   14.7246  -46.1755 C   0  0  0  0  0  0  0  0  0  0  0  0
    8.0412   16.3149  -47.1159 C   0  0  0  0  0  0  0  0  0  0  0  0
    7.9480   14.9582  -47.4634 N   0  0  0  0  0  0  0  0  0  0  0  0
    6.9435   14.2011  -46.9885 C   0  0  0  0  0  0  0  0  0  0  0  0
    6.6659   12.9138  -47.1827 N   0  0  0  0  0  0  0  0  0  0  0  0
    5.5662   12.6170  -46.5035 C   0  0  0  0  0  0  0  0  0  0  0  0
    5.1678   13.7252  -45.8890 C   0  0  0  0  0  0  0  0  0  0  0  0
    7.1878   12.2887  -47.7359 H   0  0  0  0  0  0  0  0  0  0  0  0
    5.9661   18.8966  -45.4726 C   0  0  0  0  0  0  0  0  0  0  0  0
    5.9948   20.2417  -45.1069 C   0  0  0  0  0  0  0  0  0  0  0  0
    7.1839   20.9613  -45.1570 C   0  0  0  0  0  0  0  0  0  0  0  0
    8.3497   20.3210  -45.5815 C   0  0  0  0  0  0  0  0  0  0  0  0
    8.3227   18.9704  -45.9515 C   0  0  0  0  0  0  0  0  0  0  0  0
    7.1259   18.2357  -45.9066 C   0  0  0  0  0  0  0  0  0  0  0  0
    7.1788   22.6608  -44.6819 S   0  0  0  0  0  0  0  0  0  0  0  0
    5.9844   23.3720  -45.3164 O   0  0  0  0  0  0  0  0  0  0  0  0
    8.4734   23.3295  -45.1497 O   0  0  0  0  0  0  0  0  0  0  0  0
    7.0776   22.7683  -43.0694 N   0  0  0  0  0  0  0  0  0  0  0  0
    7.8751   22.2935  -42.6463 H   0  0  0  0  0  0  0  0  0  0  0  0
    6.2133   22.3289  -42.7529 H   0  0  0  0  0  0  0  0  0  0  0  0
    4.0824   13.7812  -45.1060 C   0  0  0  0  0  0  0  0  0  0  0  0
    4.0628   14.5829  -43.9611 C   0  0  0  0  0  0  0  0  0  0  0  0
    2.9289   14.6411  -43.1468 C   0  0  0  0  0  0  0  0  0  0  0  0
    1.7916   13.9021  -43.4722 C   0  0  0  0  0  0  0  0  0  0  0  0
    1.7958   13.0971  -44.6242 N   0  0  0  0  0  0  0  0  0  0  0  0
    2.9440   13.0388  -45.4385 C   0  0  0  0  0  0  0  0  0  0  0  0
 19 17  2  0  0  0
 25 24  2  0  0  0
 25 26  1  0  0  0
 14 15  2  0  0  0
 14 13  1  0  0  0
 20 17  1  0  0  0
 24 23  1  0  0  0
 26 27  2  0  0  0
 15 16  1  0  0  0
 17 13  1  0  0  0
 17 18  2  0  0  0
 13 12  2  0  0  0
 23  9  1  0  0  0
 23 28  2  0  0  0
 27 28  1  0  0  0
 16  1  1  0  0  0
 16 11  2  0  0  0
  2  1  2  0  0  0
  2  3  1  0  0  0
  1  4  1  0  0  0
  9  3  1  0  0  0
  9  8  2  0  0  0
 12 11  1  0  0  0
  3  6  2  0  0  0
  8  7  1  0  0  0
  4  5  2  0  0  0
  6  5  1  0  0  0
  6  7  1  0  0  0
 20 21  1  0  0  0
 20 22  1  0  0  0
  7 10  1  0  0  0
M  END
> <minimizedAffinity>
-9.71444

$$$$
6EIF_B5T_A_501


 28 31  0  0  0  0  0  0  0  0999 V2000
    4.2524   17.4217  -44.3447 C   0  0  0  0  0  0  0  0  0  0  0  0
    5.0039   16.5114  -45.1064 C   0  0  0  0  0  0  0  0  0  0  0  0
    4.6315   15.2231  -45.2322 C   0  0  0  0  0  0  0  0  0  0  0  0
    3.0996   16.9279  -43.7215 C   0  0  0  0  0  0  0  0  0  0  0  0
    2.7566   15.5762  -43.8810 N   0  0  0  0  0  0  0  0  0  0  0  0
    3.5242   14.7624  -44.6269 C   0  0  0  0  0  0  0  0  0  0  0  0
    3.3895   13.4690  -44.9114 N   0  0  0  0  0  0  0  0  0  0  0  0
    4.4009   13.1050  -45.6881 C   0  0  0  0  0  0  0  0  0  0  0  0
    5.1585   14.1785  -45.8826 C   0  0  0  0  0  0  0  0  0  0  0  0
    2.6630   12.8828  -44.5986 H   0  0  0  0  0  0  0  0  0  0  0  0
    5.9839   19.1410  -44.3466 C   0  0  0  0  0  0  0  0  0  0  0  0
    6.3865   20.4686  -44.2091 C   0  0  0  0  0  0  0  0  0  0  0  0
    5.4549   21.4631  -43.9302 C   0  0  0  0  0  0  0  0  0  0  0  0
    4.1105   21.1154  -43.7862 C   0  0  0  0  0  0  0  0  0  0  0  0
    3.7042   19.7818  -43.9216 C   0  0  0  0  0  0  0  0  0  0  0  0
    4.6380   18.7698  -44.2008 C   0  0  0  0  0  0  0  0  0  0  0  0
    6.0045   23.1321  -43.7678 S   0  0  0  0  0  0  0  0  0  0  0  0
    5.9102   23.8417  -45.1179 O   0  0  0  0  0  0  0  0  0  0  0  0
    7.4570   23.1508  -43.2862 O   0  0  0  0  0  0  0  0  0  0  0  0
    5.0762   23.9014  -42.6869 N   0  0  0  0  0  0  0  0  0  0  0  0
    5.1395   23.4274  -41.7859 H   0  0  0  0  0  0  0  0  0  0  0  0
    4.1075   23.8968  -43.0062 H   0  0  0  0  0  0  0  0  0  0  0  0
    6.2695   14.1676  -46.6307 C   0  0  0  0  0  0  0  0  0  0  0  0
    7.2865   15.1035  -46.4208 C   0  0  0  0  0  0  0  0  0  0  0  0
    8.4454   15.0891  -47.2012 C   0  0  0  0  0  0  0  0  0  0  0  0
    8.6075   14.1295  -48.2005 C   0  0  0  0  0  0  0  0  0  0  0  0
    7.5955   13.1789  -48.4175 N   0  0  0  0  0  0  0  0  0  0  0  0
    6.4272   13.2017  -47.6306 C   0  0  0  0  0  0  0  0  0  0  0  0
 19 17  2  0  0  0
 25 24  2  0  0  0
 25 26  1  0  0  0
 14 15  2  0  0  0
 14 13  1  0  0  0
 20 17  1  0  0  0
 24 23  1  0  0  0
 26 27  2  0  0  0
 15 16  1  0  0  0
 17 13  1  0  0  0
 17 18  2  0  0  0
 13 12  2  0  0  0
 23  9  1  0  0  0
 23 28  2  0  0  0
 27 28  1  0  0  0
 16  1  1  0  0  0
 16 11  2  0  0  0
  2  1  2  0  0  0
  2  3  1  0  0  0
  1  4  1  0  0  0
  9  3  1  0  0  0
  9  8  2  0  0  0
 12 11  1  0  0  0
  3  6  2  0  0  0
  8  7  1  0  0  0
  4  5  2  0  0  0
  6  5  1  0  0  0
  6  7  1  0  0  0
 20 21  1  0  0  0
 20 22  1  0  0  0
  7 10  1  0  0  0
M  END
> <minimizedAffinity>
-9.69483

$$$$
6EIF_B5T_A_501


 28 31  0  0  0  0  0  0  0  0999 V2000
    8.4880   15.7759  -47.9177 C   0  0  0  0  0  0  0  0  0  0  0  0
    7.4788   15.6362  -46.9505 C   0  0  0  0  0  0  0  0  0  0  0  0
    6.7843   14.4896  -46.8184 C   0  0  0  0  0  0  0  0  0  0  0  0
    8.7376   14.6692  -48.7388 C   0  0  0  0  0  0  0  0  0  0  0  0
    7.9838   13.4983  -48.5631 N   0  0  0  0  0  0  0  0  0  0  0  0
    7.0330   13.4365  -47.6145 C   0  0  0  0  0  0  0  0  0  0  0  0
    6.2134   12.4435  -47.2764 N   0  0  0  0  0  0  0  0  0  0  0  0
    5.4467   12.8573  -46.2765 C   0  0  0  0  0  0  0  0  0  0  0  0
    5.7974   14.1080  -45.9986 C   0  0  0  0  0  0  0  0  0  0  0  0
    6.1819   11.5539  -47.6967 H   0  0  0  0  0  0  0  0  0  0  0  0
    8.8503   18.1198  -47.3444 C   0  0  0  0  0  0  0  0  0  0  0  0
    9.5562   19.3146  -47.4783 C   0  0  0  0  0  0  0  0  0  0  0  0
   10.6504   19.3956  -48.3330 C   0  0  0  0  0  0  0  0  0  0  0  0
   11.0323   18.2658  -49.0588 C   0  0  0  0  0  0  0  0  0  0  0  0
   10.3231   17.0651  -48.9276 C   0  0  0  0  0  0  0  0  0  0  0  0
    9.2150   16.9741  -48.0687 C   0  0  0  0  0  0  0  0  0  0  0  0
   11.5197   20.9251  -48.4710 S   0  0  0  0  0  0  0  0  0  0  0  0
   11.5426   21.3775  -49.9304 O   0  0  0  0  0  0  0  0  0  0  0  0
   12.9559   20.7472  -47.9733 O   0  0  0  0  0  0  0  0  0  0  0  0
   10.7797   22.0478  -47.5688 N   0  0  0  0  0  0  0  0  0  0  0  0
   10.7647   21.7454  -46.5947 H   0  0  0  0  0  0  0  0  0  0  0  0
    9.8234   22.1743  -47.9003 H   0  0  0  0  0  0  0  0  0  0  0  0
    5.2238   14.8336  -45.0297 C   0  0  0  0  0  0  0  0  0  0  0  0
    5.3856   14.4914  -43.6841 C   0  0  0  0  0  0  0  0  0  0  0  0
    4.7878   15.2508  -42.6750 C   0  0  0  0  0  0  0  0  0  0  0  0
    4.0239   16.3721  -42.9987 C   0  0  0  0  0  0  0  0  0  0  0  0
    3.8587   16.7308  -44.3474 N   0  0  0  0  0  0  0  0  0  0  0  0
    4.4600   15.9582  -45.3605 C   0  0  0  0  0  0  0  0  0  0  0  0
 19 17  2  0  0  0
 25 24  2  0  0  0
 25 26  1  0  0  0
 14 15  2  0  0  0
 14 13  1  0  0  0
 20 17  1  0  0  0
 24 23  1  0  0  0
 26 27  2  0  0  0
 15 16  1  0  0  0
 17 13  1  0  0  0
 17 18  2  0  0  0
 13 12  2  0  0  0
 23  9  1  0  0  0
 23 28  2  0  0  0
 27 28  1  0  0  0
 16  1  1  0  0  0
 16 11  2  0  0  0
  2  1  2  0  0  0
  2  3  1  0  0  0
  1  4  1  0  0  0
  9  3  1  0  0  0
  9  8  2  0  0  0
 12 11  1  0  0  0
  3  6  2  0  0  0
  8  7  1  0  0  0
  4  5  2  0  0  0
  6  5  1  0  0  0
  6  7  1  0  0  0
 20 21  1  0  0  0
 20 22  1  0  0  0
  7 10  1  0  0  0
M  END
> <minimizedAffinity>
-9.56827

$$$$
6EIF_B5T_A_501


 28 31  0  0  0  0  0  0  0  0999 V2000
    8.0430   16.5966  -47.6631 C   0  0  0  0  0  0  0  0  0  0  0  0
    7.1065   15.9816  -46.8156 C   0  0  0  0  0  0  0  0  0  0  0  0
    6.8726   14.6561  -46.8692 C   0  0  0  0  0  0  0  0  0  0  0  0
    8.7207   15.7688  -48.5669 C   0  0  0  0  0  0  0  0  0  0  0  0
    8.4383   14.3940  -48.5854 N   0  0  0  0  0  0  0  0  0  0  0  0
    7.5287   13.8743  -47.7427 C   0  0  0  0  0  0  0  0  0  0  0  0
    7.1120   12.6195  -47.5882 N   0  0  0  0  0  0  0  0  0  0  0  0
    6.1973   12.5987  -46.6282 C   0  0  0  0  0  0  0  0  0  0  0  0
    6.0527   13.8444  -46.1905 C   0  0  0  0  0  0  0  0  0  0  0  0
    7.4288   11.8400  -48.0994 H   0  0  0  0  0  0  0  0  0  0  0  0
    8.0954   18.7735  -48.7641 C   0  0  0  0  0  0  0  0  0  0  0  0
    8.3322   20.1473  -48.7427 C   0  0  0  0  0  0  0  0  0  0  0  0
    8.7612   20.7711  -47.5761 C   0  0  0  0  0  0  0  0  0  0  0  0
    8.9554   20.0042  -46.4258 C   0  0  0  0  0  0  0  0  0  0  0  0
    8.7204   18.6235  -46.4456 C   0  0  0  0  0  0  0  0  0  0  0  0
    8.2892   17.9838  -47.6199 C   0  0  0  0  0  0  0  0  0  0  0  0
    9.0459   22.5127  -47.5894 S   0  0  0  0  0  0  0  0  0  0  0  0
    8.1415   23.1927  -46.5624 O   0  0  0  0  0  0  0  0  0  0  0  0
    8.7426   23.0728  -48.9809 O   0  0  0  0  0  0  0  0  0  0  0  0
   10.5956   22.8073  -47.2240 N   0  0  0  0  0  0  0  0  0  0  0  0
   11.1989   22.3532  -47.9098 H   0  0  0  0  0  0  0  0  0  0  0  0
   10.8014   22.4409  -46.2946 H   0  0  0  0  0  0  0  0  0  0  0  0
    5.2053   14.1849  -45.2106 C   0  0  0  0  0  0  0  0  0  0  0  0
    3.8608   13.8056  -45.2592 C   0  0  0  0  0  0  0  0  0  0  0  0
    2.9790   14.1603  -44.2350 C   0  0  0  0  0  0  0  0  0  0  0  0
    3.4335   14.8948  -43.1397 C   0  0  0  0  0  0  0  0  0  0  0  0
    4.7844   15.2768  -43.0754 N   0  0  0  0  0  0  0  0  0  0  0  0
    5.6674   14.9203  -44.1137 C   0  0  0  0  0  0  0  0  0  0  0  0
 19 17  2  0  0  0
 25 24  2  0  0  0
 25 26  1  0  0  0
 14 15  2  0  0  0
 14 13  1  0  0  0
 20 17  1  0  0  0
 24 23  1  0  0  0
 26 27  2  0  0  0
 15 16  1  0  0  0
 17 13  1  0  0  0
 17 18  2  0  0  0
 13 12  2  0  0  0
 23  9  1  0  0  0
 23 28  2  0  0  0
 27 28  1  0  0  0
 16  1  1  0  0  0
 16 11  2  0  0  0
  2  1  2  0  0  0
  2  3  1  0  0  0
  1  4  1  0  0  0
  9  3  1  0  0  0
  9  8  2  0  0  0
 12 11  1  0  0  0
  3  6  2  0  0  0
  8  7  1  0  0  0
  4  5  2  0  0  0
  6  5  1  0  0  0
  6  7  1  0  0  0
 20 21  1  0  0  0
 20 22  1  0  0  0
  7 10  1  0  0  0
M  END
> <minimizedAffinity>
-9.52569

$$$$
6EIF_B5T_A_501


 28 31  0  0  0  0  0  0  0  0999 V2000
    6.6593   15.7234  -46.4611 C   0  0  0  0  0  0  0  0  0  0  0  0
    5.8932   16.6730  -45.7648 C   0  0  0  0  0  0  0  0  0  0  0  0
    4.8389   16.3098  -45.0093 C   0  0  0  0  0  0  0  0  0  0  0  0
    6.2755   14.3824  -46.3348 C   0  0  0  0  0  0  0  0  0  0  0  0
    5.1669   14.0563  -45.5380 N   0  0  0  0  0  0  0  0  0  0  0  0
    4.4807   15.0197  -44.8989 C   0  0  0  0  0  0  0  0  0  0  0  0
    3.4171   14.9392  -44.1025 N   0  0  0  0  0  0  0  0  0  0  0  0
    3.0963   16.1645  -43.7095 C   0  0  0  0  0  0  0  0  0  0  0  0
    3.9665   17.0002  -44.2650 C   0  0  0  0  0  0  0  0  0  0  0  0
    2.9486   14.1114  -43.8486 H   0  0  0  0  0  0  0  0  0  0  0  0
    8.0965   17.4479  -47.4173 C   0  0  0  0  0  0  0  0  0  0  0  0
    9.1811   17.8364  -48.2024 C   0  0  0  0  0  0  0  0  0  0  0  0
    9.9637   16.8834  -48.8455 C   0  0  0  0  0  0  0  0  0  0  0  0
    9.6482   15.5314  -48.6983 C   0  0  0  0  0  0  0  0  0  0  0  0
    8.5576   15.1390  -47.9119 C   0  0  0  0  0  0  0  0  0  0  0  0
    7.7596   16.0944  -47.2602 C   0  0  0  0  0  0  0  0  0  0  0  0
   11.3303   17.4160  -49.8269 S   0  0  0  0  0  0  0  0  0  0  0  0
   12.4333   17.9654  -48.9233 O   0  0  0  0  0  0  0  0  0  0  0  0
   10.8739   18.5119  -50.7926 O   0  0  0  0  0  0  0  0  0  0  0  0
   11.9027   16.1626  -50.6774 N   0  0  0  0  0  0  0  0  0  0  0  0
   11.1661   15.7961  -51.2804 H   0  0  0  0  0  0  0  0  0  0  0  0
   12.2137   15.4314  -50.0379 H   0  0  0  0  0  0  0  0  0  0  0  0
    3.9371   18.3256  -44.0732 C   0  0  0  0  0  0  0  0  0  0  0  0
    4.8450   18.9472  -43.2109 C   0  0  0  0  0  0  0  0  0  0  0  0
    4.8137   20.3301  -43.0137 C   0  0  0  0  0  0  0  0  0  0  0  0
    3.8759   21.1145  -43.6853 C   0  0  0  0  0  0  0  0  0  0  0  0
    2.9617   20.5028  -44.5600 N   0  0  0  0  0  0  0  0  0  0  0  0
    2.9952   19.1073  -44.7509 C   0  0  0  0  0  0  0  0  0  0  0  0
 19 17  2  0  0  0
 25 24  2  0  0  0
 25 26  1  0  0  0
 14 15  2  0  0  0
 14 13  1  0  0  0
 20 17  1  0  0  0
 24 23  1  0  0  0
 26 27  2  0  0  0
 15 16  1  0  0  0
 17 13  1  0  0  0
 17 18  2  0  0  0
 13 12  2  0  0  0
 23  9  1  0  0  0
 23 28  2  0  0  0
 27 28  1  0  0  0
 16  1  1  0  0  0
 16 11  2  0  0  0
  2  1  2  0  0  0
  2  3  1  0  0  0
  1  4  1  0  0  0
  9  3  1  0  0  0
  9  8  2  0  0  0
 12 11  1  0  0  0
  3  6  2  0  0  0
  8  7  1  0  0  0
  4  5  2  0  0  0
  6  5  1  0  0  0
  6  7  1  0  0  0
 20 21  1  0  0  0
 20 22  1  0  0  0
  7 10  1  0  0  0
M  END
> <minimizedAffinity>
-9.23571

$$$$
6EIF_B5T_A_501


 28 31  0  0  0  0  0  0  0  0999 V2000
    7.2523   18.9342  -47.7812 C   0  0  0  0  0  0  0  0  0  0  0  0
    6.4902   18.2147  -46.8457 C   0  0  0  0  0  0  0  0  0  0  0  0
    5.3073   18.6769  -46.3969 C   0  0  0  0  0  0  0  0  0  0  0  0
    6.7264   20.1543  -48.2241 C   0  0  0  0  0  0  0  0  0  0  0  0
    5.4910   20.5934  -47.7231 N   0  0  0  0  0  0  0  0  0  0  0  0
    4.8159   19.8502  -46.8289 C   0  0  0  0  0  0  0  0  0  0  0  0
    3.6459   20.0680  -46.2324 N   0  0  0  0  0  0  0  0  0  0  0  0
    3.3924   19.0467  -45.4254 C   0  0  0  0  0  0  0  0  0  0  0  0
    4.4091   18.1980  -45.5275 C   0  0  0  0  0  0  0  0  0  0  0  0
    3.0676   20.8532  -46.3673 H   0  0  0  0  0  0  0  0  0  0  0  0
    9.6696   19.1873  -47.9964 C   0  0  0  0  0  0  0  0  0  0  0  0
   10.9086   18.7383  -48.4514 C   0  0  0  0  0  0  0  0  0  0  0  0
   11.0092   17.5493  -49.1660 C   0  0  0  0  0  0  0  0  0  0  0  0
    9.8530   16.8112  -49.4257 C   0  0  0  0  0  0  0  0  0  0  0  0
    8.6069   17.2616  -48.9716 C   0  0  0  0  0  0  0  0  0  0  0  0
    8.4947   18.4626  -48.2511 C   0  0  0  0  0  0  0  0  0  0  0  0
   12.5965   17.0136  -49.7208 S   0  0  0  0  0  0  0  0  0  0  0  0
   13.2378   16.1149  -48.6643 O   0  0  0  0  0  0  0  0  0  0  0  0
   13.4937   18.2293  -49.9638 O   0  0  0  0  0  0  0  0  0  0  0  0
   12.4326   16.1888  -51.1046 N   0  0  0  0  0  0  0  0  0  0  0  0
   12.0045   16.7891  -51.8095 H   0  0  0  0  0  0  0  0  0  0  0  0
   11.8398   15.3739  -50.9465 H   0  0  0  0  0  0  0  0  0  0  0  0
    4.4758   17.0463  -44.8468 C   0  0  0  0  0  0  0  0  0  0  0  0
    4.6853   15.8322  -45.5072 C   0  0  0  0  0  0  0  0  0  0  0  0
    4.7563   14.6323  -44.7949 C   0  0  0  0  0  0  0  0  0  0  0  0
    4.6266   14.6310  -43.4061 C   0  0  0  0  0  0  0  0  0  0  0  0
    4.4221   15.8456  -42.7293 N   0  0  0  0  0  0  0  0  0  0  0  0
    4.3466   17.0516  -43.4536 C   0  0  0  0  0  0  0  0  0  0  0  0
 19 17  2  0  0  0
 25 24  2  0  0  0
 25 26  1  0  0  0
 14 15  2  0  0  0
 14 13  1  0  0  0
 20 17  1  0  0  0
 24 23  1  0  0  0
 26 27  2  0  0  0
 15 16  1  0  0  0
 17 13  1  0  0  0
 17 18  2  0  0  0
 13 12  2  0  0  0
 23  9  1  0  0  0
 23 28  2  0  0  0
 27 28  1  0  0  0
 16  1  1  0  0  0
 16 11  2  0  0  0
  2  1  2  0  0  0
  2  3  1  0  0  0
  1  4  1  0  0  0
  9  3  1  0  0  0
  9  8  2  0  0  0
 12 11  1  0  0  0
  3  6  2  0  0  0
  8  7  1  0  0  0
  4  5  2  0  0  0
  6  5  1  0  0  0
  6  7  1  0  0  0
 20 21  1  0  0  0
 20 22  1  0  0  0
  7 10  1  0  0  0
M  END
> <minimizedAffinity>
-8.73506

$$$$
6EIF_B5T_A_501


 28 31  0  0  0  0  0  0  0  0999 V2000
    4.4953   18.3663  -44.9013 C   0  0  0  0  0  0  0  0  0  0  0  0
    5.1135   17.2240  -45.4368 C   0  0  0  0  0  0  0  0  0  0  0  0
    4.6606   15.9852  -45.1637 C   0  0  0  0  0  0  0  0  0  0  0  0
    3.3879   18.1575  -44.0697 C   0  0  0  0  0  0  0  0  0  0  0  0
    2.9574   16.8463  -43.8135 N   0  0  0  0  0  0  0  0  0  0  0  0
    3.5984   15.7997  -44.3625 C   0  0  0  0  0  0  0  0  0  0  0  0
    3.3650   14.4932  -44.2596 N   0  0  0  0  0  0  0  0  0  0  0  0
    4.2694   13.8493  -44.9849 C   0  0  0  0  0  0  0  0  0  0  0  0
    5.0601   14.7632  -45.5363 C   0  0  0  0  0  0  0  0  0  0  0  0
    2.6440   14.0762  -43.7347 H   0  0  0  0  0  0  0  0  0  0  0  0
    5.3829   20.5036  -44.1283 C   0  0  0  0  0  0  0  0  0  0  0  0
    5.8529   21.7924  -44.3771 C   0  0  0  0  0  0  0  0  0  0  0  0
    5.9272   22.2772  -45.6785 C   0  0  0  0  0  0  0  0  0  0  0  0
    5.5222   21.4584  -46.7342 C   0  0  0  0  0  0  0  0  0  0  0  0
    5.0476   20.1641  -46.4863 C   0  0  0  0  0  0  0  0  0  0  0  0
    4.9663   19.6663  -45.1750 C   0  0  0  0  0  0  0  0  0  0  0  0
    6.5317   23.9126  -45.9514 S   0  0  0  0  0  0  0  0  0  0  0  0
    5.8922   24.8744  -44.9510 O   0  0  0  0  0  0  0  0  0  0  0  0
    6.1859   24.3579  -47.3742 O   0  0  0  0  0  0  0  0  0  0  0  0
    8.1401   23.9297  -45.7652 N   0  0  0  0  0  0  0  0  0  0  0  0
    8.5666   23.2876  -46.4332 H   0  0  0  0  0  0  0  0  0  0  0  0
    8.3756   23.6390  -44.8163 H   0  0  0  0  0  0  0  0  0  0  0  0
    6.0856   14.4574  -46.3419 C   0  0  0  0  0  0  0  0  0  0  0  0
    6.0073   13.3780  -47.2266 C   0  0  0  0  0  0  0  0  0  0  0  0
    7.0777   13.0619  -48.0674 C   0  0  0  0  0  0  0  0  0  0  0  0
    8.2423   13.8292  -48.0407 C   0  0  0  0  0  0  0  0  0  0  0  0
    8.3313   14.9211  -47.1605 N   0  0  0  0  0  0  0  0  0  0  0  0
    7.2506   15.2317  -46.3118 C   0  0  0  0  0  0  0  0  0  0  0  0
 19 17  2  0  0  0
 25 24  2  0  0  0
 25 26  1  0  0  0
 14 15  2  0  0  0
 14 13  1  0  0  0
 20 17  1  0  0  0
 24 23  1  0  0  0
 26 27  2  0  0  0
 15 16  1  0  0  0
 17 13  1  0  0  0
 17 18  2  0  0  0
 13 12  2  0  0  0
 23  9  1  0  0  0
 23 28  2  0  0  0
 27 28  1  0  0  0
 16  1  1  0  0  0
 16 11  2  0  0  0
  2  1  2  0  0  0
  2  3  1  0  0  0
  1  4  1  0  0  0
  9  3  1  0  0  0
  9  8  2  0  0  0
 12 11  1  0  0  0
  3  6  2  0  0  0
  8  7  1  0  0  0
  4  5  2  0  0  0
  6  5  1  0  0  0
  6  7  1  0  0  0
 20 21  1  0  0  0
 20 22  1  0  0  0
  7 10  1  0  0  0
M  END
> <minimizedAffinity>
-8.61589

$$$$
6EIF_B5T_A_501


 28 31  0  0  0  0  0  0  0  0999 V2000
    7.7987   18.7384  -47.9925 C   0  0  0  0  0  0  0  0  0  0  0  0
    9.0421   18.5002  -48.6016 C   0  0  0  0  0  0  0  0  0  0  0  0
    9.6813   19.4611  -49.2961 C   0  0  0  0  0  0  0  0  0  0  0  0
    7.2541   20.0200  -48.1420 C   0  0  0  0  0  0  0  0  0  0  0  0
    7.9585   20.9853  -48.8784 N   0  0  0  0  0  0  0  0  0  0  0  0
    9.1460   20.6856  -49.4332 C   0  0  0  0  0  0  0  0  0  0  0  0
    9.9740   21.4341  -50.1585 N   0  0  0  0  0  0  0  0  0  0  0  0
   11.0265   20.6961  -50.4845 C   0  0  0  0  0  0  0  0  0  0  0  0
   10.8452   19.4909  -49.9565 C   0  0  0  0  0  0  0  0  0  0  0  0
    9.8296   22.3749  -50.4100 H   0  0  0  0  0  0  0  0  0  0  0  0
    7.7875   16.5661  -46.8815 C   0  0  0  0  0  0  0  0  0  0  0  0
    7.1338   15.5639  -46.1660 C   0  0  0  0  0  0  0  0  0  0  0  0
    5.7964   15.7074  -45.8122 C   0  0  0  0  0  0  0  0  0  0  0  0
    5.1143   16.8670  -46.1851 C   0  0  0  0  0  0  0  0  0  0  0  0
    5.7685   17.8741  -46.9060 C   0  0  0  0  0  0  0  0  0  0  0  0
    7.1185   17.7372  -47.2702 C   0  0  0  0  0  0  0  0  0  0  0  0
    5.0064   14.4177  -44.9029 S   0  0  0  0  0  0  0  0  0  0  0  0
    5.1181   13.1007  -45.6697 O   0  0  0  0  0  0  0  0  0  0  0  0
    3.5292   14.7620  -44.6999 O   0  0  0  0  0  0  0  0  0  0  0  0
    5.7199   14.2638  -43.4574 N   0  0  0  0  0  0  0  0  0  0  0  0
    5.6451   15.1431  -42.9460 H   0  0  0  0  0  0  0  0  0  0  0  0
    6.7038   14.0285  -43.5872 H   0  0  0  0  0  0  0  0  0  0  0  0
   11.7271   18.4912  -50.0880 C   0  0  0  0  0  0  0  0  0  0  0  0
   12.5098   18.0765  -49.0065 C   0  0  0  0  0  0  0  0  0  0  0  0
   13.4277   17.0323  -49.1455 C   0  0  0  0  0  0  0  0  0  0  0  0
   13.5700   16.3804  -50.3704 C   0  0  0  0  0  0  0  0  0  0  0  0
   12.7845   16.7833  -51.4639 N   0  0  0  0  0  0  0  0  0  0  0  0
   11.8642   17.8400  -51.3187 C   0  0  0  0  0  0  0  0  0  0  0  0
 19 17  2  0  0  0
 25 24  2  0  0  0
 25 26  1  0  0  0
 14 15  2  0  0  0
 14 13  1  0  0  0
 20 17  1  0  0  0
 24 23  1  0  0  0
 26 27  2  0  0  0
 15 16  1  0  0  0
 17 13  1  0  0  0
 17 18  2  0  0  0
 13 12  2  0  0  0
 23  9  1  0  0  0
 23 28  2  0  0  0
 27 28  1  0  0  0
 16  1  1  0  0  0
 16 11  2  0  0  0
  2  1  2  0  0  0
  2  3  1  0  0  0
  1  4  1  0  0  0
  9  3  1  0  0  0
  9  8  2  0  0  0
 12 11  1  0  0  0
  3  6  2  0  0  0
  8  7  1  0  0  0
  4  5  2  0  0  0
  6  5  1  0  0  0
  6  7  1  0  0  0
 20 21  1  0  0  0
 20 22  1  0  0  0
  7 10  1  0  0  0
M  END
> <minimizedAffinity>
-8.61052

$$$$
6EIF_B5T_A_501


 28 31  0  0  0  0  0  0  0  0999 V2000
    5.6218   18.5606  -44.6021 C   0  0  0  0  0  0  0  0  0  0  0  0
    6.4802   18.7767  -45.6930 C   0  0  0  0  0  0  0  0  0  0  0  0
    7.1057   17.7555  -46.3094 C   0  0  0  0  0  0  0  0  0  0  0  0
    5.4478   17.2352  -44.1844 C   0  0  0  0  0  0  0  0  0  0  0  0
    6.1251   16.2070  -44.8582 N   0  0  0  0  0  0  0  0  0  0  0  0
    6.9312   16.4890  -45.8967 C   0  0  0  0  0  0  0  0  0  0  0  0
    7.6575   15.6847  -46.6696 N   0  0  0  0  0  0  0  0  0  0  0  0
    8.2922   16.4283  -47.5657 C   0  0  0  0  0  0  0  0  0  0  0  0
    7.9535   17.6933  -47.3435 C   0  0  0  0  0  0  0  0  0  0  0  0
    7.7140   14.7051  -46.5897 H   0  0  0  0  0  0  0  0  0  0  0  0
    5.6640   20.4198  -43.0223 C   0  0  0  0  0  0  0  0  0  0  0  0
    5.0373   21.4761  -42.3628 C   0  0  0  0  0  0  0  0  0  0  0  0
    3.7014   21.7710  -42.6131 C   0  0  0  0  0  0  0  0  0  0  0  0
    2.9932   20.9937  -43.5316 C   0  0  0  0  0  0  0  0  0  0  0  0
    3.6203   19.9305  -44.1936 C   0  0  0  0  0  0  0  0  0  0  0  0
    4.9687   19.6233  -43.9456 C   0  0  0  0  0  0  0  0  0  0  0  0
    2.9460   23.1188  -41.7605 S   0  0  0  0  0  0  0  0  0  0  0  0
    2.3004   22.6179  -40.4693 O   0  0  0  0  0  0  0  0  0  0  0  0
    1.8742   23.7538  -42.6494 O   0  0  0  0  0  0  0  0  0  0  0  0
    4.0700   24.2296  -41.4072 N   0  0  0  0  0  0  0  0  0  0  0  0
    4.5007   24.5637  -42.2694 H   0  0  0  0  0  0  0  0  0  0  0  0
    4.7840   23.8127  -40.8099 H   0  0  0  0  0  0  0  0  0  0  0  0
    8.4132   18.7163  -48.0759 C   0  0  0  0  0  0  0  0  0  0  0  0
    9.6828   19.2531  -47.8436 C   0  0  0  0  0  0  0  0  0  0  0  0
   10.1610   20.3190  -48.6101 C   0  0  0  0  0  0  0  0  0  0  0  0
    9.3763   20.8592  -49.6290 C   0  0  0  0  0  0  0  0  0  0  0  0
    8.1006   20.3244  -49.8772 N   0  0  0  0  0  0  0  0  0  0  0  0
    7.6221   19.2529  -49.0977 C   0  0  0  0  0  0  0  0  0  0  0  0
 19 17  2  0  0  0
 25 24  2  0  0  0
 25 26  1  0  0  0
 14 15  2  0  0  0
 14 13  1  0  0  0
 20 17  1  0  0  0
 24 23  1  0  0  0
 26 27  2  0  0  0
 15 16  1  0  0  0
 17 13  1  0  0  0
 17 18  2  0  0  0
 13 12  2  0  0  0
 23  9  1  0  0  0
 23 28  2  0  0  0
 27 28  1  0  0  0
 16  1  1  0  0  0
 16 11  2  0  0  0
  2  1  2  0  0  0
  2  3  1  0  0  0
  1  4  1  0  0  0
  9  3  1  0  0  0
  9  8  2  0  0  0
 12 11  1  0  0  0
  3  6  2  0  0  0
  8  7  1  0  0  0
  4  5  2  0  0  0
  6  5  1  0  0  0
  6  7  1  0  0  0
 20 21  1  0  0  0
 20 22  1  0  0  0
  7 10  1  0  0  0
M  END
> <minimizedAffinity>
-8.47753

$$$$
