6EIF_B5T_A_501
  RCSB PDB08241823463D
Coordinates from PDB:6EIF:A:501 Model:1 without hydrogens
 25 28  0  0  0  0            999 V2000
    9.5890   17.7360  -49.3970   C 0  0  0  0  0  0  0  0  0  0  0  0
   10.1990   18.9600  -49.6680   C 0  0  0  0  0  0  0  0  0  0  0  0
   10.3740   19.9000  -48.6580   C 0  0  0  0  0  0  0  0  0  0  0  0
   11.1470   21.4390  -49.0430   S 0  0  0  0  0  0  0  0  0  0  0  0
   11.7450   22.0490  -47.7760   O 0  0  0  0  0  0  0  0  0  0  0  0
   10.1120   22.4020  -49.6290   O 0  0  0  0  0  0  0  0  0  0  0  0
   12.3210   21.1940  -50.1310   N 0  0  0  0  0  0  0  0  0  0  0  0
    9.9340   19.6020  -47.3670   C 0  0  0  0  0  0  0  0  0  0  0  0
    9.3230   18.3720  -47.0920   C 0  0  0  0  0  0  0  0  0  0  0  0
    9.1440   17.4150  -48.1050   C 0  0  0  0  0  0  0  0  0  0  0  0
    8.5290   16.1720  -47.8530   C 0  0  0  0  0  0  0  0  0  0  0  0
    7.4420   16.0460  -46.9720   C 0  0  0  0  0  0  0  0  0  0  0  0
    6.8560   14.8550  -46.7430   C 0  0  0  0  0  0  0  0  0  0  0  0
    8.9740   15.0030  -48.4830   C 0  0  0  0  0  0  0  0  0  0  0  0
    8.3270   13.7870  -48.2130   N 0  0  0  0  0  0  0  0  0  0  0  0
    7.2920   13.7420  -47.3560   C 0  0  0  0  0  0  0  0  0  0  0  0
    6.5450   12.7150  -46.9570   N 0  0  0  0  0  0  0  0  0  0  0  0
    5.6390   13.1660  -46.1000   C 0  0  0  0  0  0  0  0  0  0  0  0
    5.8310   14.4740  -45.9710   C 0  0  0  0  0  0  0  0  0  0  0  0
    5.0880   15.2500  -45.1710   C 0  0  0  0  0  0  0  0  0  0  0  0
    4.4300   16.3770  -45.6720   C 0  0  0  0  0  0  0  0  0  0  0  0
    3.6540   17.1840  -44.8360   C 0  0  0  0  0  0  0  0  0  0  0  0
    3.5180   16.8690  -43.4840   C 0  0  0  0  0  0  0  0  0  0  0  0
    4.1690   15.7350  -42.9690   N 0  0  0  0  0  0  0  0  0  0  0  0
    4.9540   14.9280  -43.8160   C 0  0  0  0  0  0  0  0  0  0  0  0
  6  4  2  0  0  0  0
 22 21  2  0  0  0  0
 22 23  1  0  0  0  0
  8  9  2  0  0  0  0
  8  3  1  0  0  0  0
  7  4  1  0  0  0  0
 21 20  1  0  0  0  0
 23 24  2  0  0  0  0
  9 10  1  0  0  0  0
  4  3  1  0  0  0  0
  4  5  2  0  0  0  0
  3  2  2  0  0  0  0
 20 19  1  0  0  0  0
 20 25  2  0  0  0  0
 24 25  1  0  0  0  0
 10 11  1  0  0  0  0
 10  1  2  0  0  0  0
 12 11  2  0  0  0  0
 12 13  1  0  0  0  0
 11 14  1  0  0  0  0
 19 13  1  0  0  0  0
 19 18  2  0  0  0  0
  2  1  1  0  0  0  0
 13 16  2  0  0  0  0
 18 17  1  0  0  0  0
 14 15  2  0  0  0  0
 16 15  1  0  0  0  0
 16 17  1  0  0  0  0
A    1
CAG
A    2
CAF
A    3
CAE
A    4
SAB
A    5
OAC
A    6
OAD
A    7
NAA
A    8
CAJ
A    9
CAI
A   10
CAH
A   11
CAK
A   12
CAS
A   13
CAR
A   14
CAL
A   15
NAM
A   16
CAN
A   17
NAO
A   18
CAP
A   19
CAQ
A   20
CAT
A   21
CAY
A   22
CAX
A   23
CAW
A   24
NAV
A   25
CAU
M  END
>  <InstanceId>
6EIF_B5T_A_501

>  <ChemCompId>
B5T

>  <PdbId>
6EIF

>  <ChainId>
A

>  <ResidueNumber>
501

>  <InsertionCode>


>  <Model>
1

>  <AltIds>


>  <MissingHeavyAtoms>
0

>  <ObservedFormula>
C18 N4 O2 S

>  <Name>
4-(3-pyridin-3-yl-1~{H}-pyrrolo[2,3-b]pyridin-5-yl)benzenesulfonamide

>  <SystematicName>
4-(3-pyridin-3-yl-1~{H}-pyrrolo[2,3-b]pyridin-5-yl)benzenesulfonamide

>  <Synonyms>


>  <Type>
NON-POLYMER

>  <Formula>
C18 H14 N4 O2 S

>  <MolecularWeight>
350.394

>  <ModifiedDate>
2018-08-24

>  <Parent>


>  <OneLetterCode>


>  <SubcomponentList>


>  <AmbiguousFlag>
N

>  <InChI>
InChI=1S/C18H14N4O2S/c19-25(23,24)15-5-3-12(4-6-15)14-8-16-17(11-22-18(16)21-10-14)13-2-1-7-20-9-13/h1-11H,(H,21,22)(H2,19,23,24)

>  <InChIKey>
GUBNPZDHUYZSLK-UHFFFAOYSA-N

>  <SMILES>
c1cc(cnc1)c2c[nH]c3c2cc(cn3)c4ccc(cc4)S(=O)(=O)N

$$$$
