3UG2_IRE_A_1
  RCSB PDB12061711033D
Coordinates from PDB:3UG2:A:1 Model:1 without hydrogens
 31 34  0  0  0  0            999 V2000
    3.4040   46.1170   14.5070   C 0  0  0  0  0  0  0  0  0  0  0  0
    4.3860   44.9380   14.3750   C 0  0  0  0  0  0  0  0  0  0  0  0
    3.6900   43.6880   14.5540   O 0  0  0  0  0  0  0  0  0  0  0  0
    3.0800   43.4440   15.8490   C 0  0  0  0  0  0  0  0  0  0  0  0
    2.7940   44.7300   16.6440   C 0  0  0  0  0  0  0  0  0  0  0  0
    2.5950   45.8870   15.7230   N 0  0  0  0  0  0  0  0  0  0  0  0
    1.5560   46.8550   16.0410   C 0  0  0  0  0  0  0  0  0  0  0  0
    1.9860   47.4510   17.3890   C 0  0  0  0  0  0  0  0  0  0  0  0
    0.7930   47.7880   18.2910   C 0  0  0  0  0  0  0  0  0  0  0  0
   -0.0010   48.8270   17.6860   O 0  0  0  0  0  0  0  0  0  0  0  0
   -0.5460   49.8840   18.3700   C 0  0  0  0  0  0  0  0  0  0  0  0
   -1.1750   50.8290   17.5810   C 0  0  0  0  0  0  0  0  0  0  0  0
   -1.7490   51.9430   18.1780   C 0  0  0  0  0  0  0  0  0  0  0  0
   -1.2170   50.6790   16.2200   O 0  0  0  0  0  0  0  0  0  0  0  0
   -2.3380   51.2600   15.5080   C 0  0  0  0  0  0  0  0  0  0  0  0
   -0.5160   50.0310   19.7780   C 0  0  0  0  0  0  0  0  0  0  0  0
   -1.1300   51.1410   20.3560   C 0  0  0  0  0  0  0  0  0  0  0  0
   -1.7470   52.0880   19.5480   C 0  0  0  0  0  0  0  0  0  0  0  0
   -2.3440   53.1660   20.0860   N 0  0  0  0  0  0  0  0  0  0  0  0
   -2.3130   53.3880   21.3930   C 0  0  0  0  0  0  0  0  0  0  0  0
   -1.7230   52.5050   22.1960   N 0  0  0  0  0  0  0  0  0  0  0  0
   -1.1370   51.3830   21.7250   C 0  0  0  0  0  0  0  0  0  0  0  0
   -0.5500   50.5160   22.5680   N 0  0  0  0  0  0  0  0  0  0  0  0
   -0.7890   50.3540   23.9050   C 0  0  0  0  0  0  0  0  0  0  0  0
   -2.0680   50.5030   24.4450   C 0  0  0  0  0  0  0  0  0  0  0  0
   -2.2860   50.3360   25.8070   C 0  0  0  0  0  0  0  0  0  0  0  0
   -3.8770   50.5280   26.6050  Cl 0  0  0  0  0  0  0  0  0  0  0  0
   -1.2480   49.9960   26.6110   C 0  0  0  0  0  0  0  0  0  0  0  0
   -1.5490   49.8410   27.9240   F 0  0  0  0  0  0  0  0  0  0  0  0
    0.0430   49.8020   26.0870   C 0  0  0  0  0  0  0  0  0  0  0  0
    0.2670   49.9660   24.7340   C 0  0  0  0  0  0  0  0  0  0  0  0
  1  2  1  0  0  0  0
  1  6  1  0  0  0  0
  2  3  1  0  0  0  0
  3  4  1  0  0  0  0
  4  5  1  0  0  0  0
  5  6  1  0  0  0  0
  6  7  1  0  0  0  0
  7  8  1  0  0  0  0
  8  9  1  0  0  0  0
  9 10  1  0  0  0  0
 10 11  1  0  0  0  0
 11 12  2  0  0  0  0
 11 16  1  0  0  0  0
 12 13  1  0  0  0  0
 12 14  1  0  0  0  0
 13 18  2  0  0  0  0
 14 15  1  0  0  0  0
 16 17  2  0  0  0  0
 17 18  1  0  0  0  0
 17 22  1  0  0  0  0
 18 19  1  0  0  0  0
 19 20  1  0  0  0  0
 20 21  2  0  0  0  0
 21 22  1  0  0  0  0
 22 23  2  0  0  0  0
 23 24  1  0  0  0  0
 24 25  2  0  0  0  0
 24 31  1  0  0  0  0
 25 26  1  0  0  0  0
 26 27  1  0  0  0  0
 26 28  2  0  0  0  0
 28 29  1  0  0  0  0
 28 30  1  0  0  0  0
 30 31  2  0  0  0  0
A    1
CAO
A    2
CAL
A    3
OAU
A    4
CAM
A    5
CAP
A    6
NBE
A    7
CAN
A    8
CAJ
A    9
CAK
A   10
OAV
A   11
CBA
A   12
CAZ
A   13
CAH
A   14
OAT
A   15
CAA
A   16
CAI
A   17
C5
A   18
C4
A   19
N3
A   20
C2
A   21
N1
A   22
C6
A   23
NAS
A   24
CAY
A   25
CAG
A   26
CAX
A   27
CL
A   28
CAW
A   29
FAB
A   30
CAD
A   31
CAE
M  END
>  <InstanceId>
3UG2_IRE_A_1

>  <ChemCompId>
IRE

>  <PdbId>
3UG2

>  <ChainId>
A

>  <ResidueNumber>
1

>  <InsertionCode>


>  <Model>
1

>  <AltIds>


>  <MissingHeavyAtoms>
0

>  <ObservedFormula>
C22 N4 O3 F Cl

>  <Name>
Gefitinib

>  <SystematicName>
N-(3-chloro-4-fluoro-phenyl)-7-methoxy-6-(3-morpholin-4-ylpropoxy)-1H-quinazolin-4-imine

>  <Synonyms>


>  <Type>
NON-POLYMER

>  <Formula>
C22 H24 Cl F N4 O3

>  <MolecularWeight>
446.902

>  <ModifiedDate>
2014-10-07

>  <Parent>


>  <OneLetterCode>


>  <SubcomponentList>


>  <AmbiguousFlag>
N

>  <InChI>
InChI=1S/C22H24ClFN4O3/c1-29-20-13-19-16(12-21(20)31-8-2-5-28-6-9-30-10-7-28)22(26-14-25-19)27-15-3-4-18(24)17(23)11-15/h3-4,11-14H,2,5-10H2,1H3,(H,25,26,27)

>  <InChIKey>
XGALLCVXEZPNRQ-UHFFFAOYSA-N

>  <SMILES>
COc1cc2c(cc1OCCCN3CCOCC3)/C(=N/c4ccc(c(c4)Cl)F)/N=CN2

$$$$
