2NSL_C2R_A_300
  RCSB PDB12061706253D
Coordinates from PDB:2NSL:A:300 Model:1 without hydrogens
 22 23  0  0  0  0            999 V2000
   15.5900  -11.6380   -9.4290   P 0  0  0  0  0  0  0  0  0  0  0  0
   16.4120  -12.9650   -9.0360   O 0  0  0  0  0  0  0  0  0  0  0  0
   14.5510  -11.3900   -8.2250   O 0  0  0  0  0  0  0  0  0  0  0  0
   16.4640  -10.4730   -9.6880   O 0  0  0  0  0  0  0  0  0  0  0  0
   14.6990  -12.0440  -10.7070   O 0  0  0  0  0  0  0  0  0  0  0  0
   13.1420  -14.0120  -13.0640   C 0  0  0  0  0  0  0  0  0  0  0  0
   12.1960  -14.9550  -13.5740   O 0  0  0  0  0  0  0  0  0  0  0  0
   12.4230  -12.9180  -12.2750   C 0  0  0  0  0  0  0  0  0  0  0  0
   11.0870  -12.7740  -12.7640   O 0  0  0  0  0  0  0  0  0  0  0  0
   13.8620  -11.0750  -11.3420   C 0  0  0  0  0  0  0  0  0  0  0  0
   13.2410  -11.6660  -12.6090   C 0  0  0  0  0  0  0  0  0  0  0  0
   14.2830  -12.0960  -13.5020   O 0  0  0  0  0  0  0  0  0  0  0  0
   13.6720  -13.1730  -14.2240   C 0  0  0  0  0  0  0  0  0  0  0  0
   14.6290  -13.9900  -15.0020   N 0  0  0  0  0  0  0  0  0  0  0  0
   14.5190  -14.3090  -16.2870   C 0  0  0  0  0  0  0  0  0  0  0  0
   15.5330  -15.2080  -16.5790   C 0  0  0  0  0  0  0  0  0  0  0  0
   16.2440  -15.3900  -15.4710   N 0  0  0  0  0  0  0  0  0  0  0  0
   15.6860  -14.6420  -14.5190   C 0  0  0  0  0  0  0  0  0  0  0  0
   13.6380  -13.8050  -17.1480   N 0  0  0  0  0  0  0  0  0  0  0  0
   15.7230  -15.9450  -17.9060   C 0  0  0  0  0  0  0  0  0  0  0  0
   14.9970  -15.6090  -18.8670   O 0  0  0  0  0  0  0  0  0  0  0  0
   16.5850  -16.8500  -17.9530   O 0  0  0  0  0  0  0  0  0  0  0  0
  1  2  2  0  0  0  0
  1  3  1  0  0  0  0
  1  4  1  0  0  0  0
  1  5  1  0  0  0  0
  5 10  1  0  0  0  0
  6  7  1  0  0  0  0
  6  8  1  0  0  0  0
  6 13  1  0  0  0  0
  8  9  1  0  0  0  0
  8 11  1  0  0  0  0
 10 11  1  0  0  0  0
 11 12  1  0  0  0  0
 12 13  1  0  0  0  0
 13 14  1  0  0  0  0
 14 15  1  0  0  0  0
 14 18  1  0  0  0  0
 15 16  2  0  0  0  0
 15 19  1  0  0  0  0
 16 17  1  0  0  0  0
 16 20  1  0  0  0  0
 17 18  2  0  0  0  0
 20 21  1  0  0  0  0
 20 22  2  0  0  0  0
A    1
PA
A    2
O1A
A    3
O2A
A    4
O3A
A    5
O5'
A    6
C2'
A    7
O2'
A    8
C3'
A    9
O3'
A   10
C5'
A   11
C4'
A   12
O4'
A   13
C1'
A   14
N1
A   15
C5
A   16
C4
A   17
N3
A   18
C2
A   19
N5
A   20
C6
A   21
O7
A   22
O8
M  END
>  <InstanceId>
2NSL_C2R_A_300

>  <ChemCompId>
C2R

>  <PdbId>
2NSL

>  <ChainId>
A

>  <ResidueNumber>
300

>  <InsertionCode>


>  <Model>
1

>  <AltIds>


>  <MissingHeavyAtoms>
0

>  <ObservedFormula>
C9 N3 O9 P

>  <Name>
5-AMINO-1-(5-O-PHOSPHONO-BETA-D-RIBOFURANOSYL)-1H-IMIDAZOLE-4-CARBOXYLIC ACID

>  <SystematicName>
5-amino-1-[(2R,3R,4S,5R)-3,4-dihydroxy-5-(phosphonooxymethyl)oxolan-2-yl]imidazole-4-carboxylic acid

>  <Synonyms>
CAIR, 4-CARBOXY-5-AMINOIMIDAZOLE RIBONUCLEOTIDE

>  <Type>
NON-POLYMER

>  <Formula>
C9 H14 N3 O9 P

>  <MolecularWeight>
339.196

>  <ModifiedDate>
2011-06-04

>  <Parent>


>  <OneLetterCode>


>  <SubcomponentList>


>  <AmbiguousFlag>


>  <InChI>
InChI=1S/C9H14N3O9P/c10-7-4(9(15)16)11-2-12(7)8-6(14)5(13)3(21-8)1-20-22(17,18)19/h2-3,5-6,8,13-14H,1,10H2,(H,15,16)(H2,17,18,19)/t3-,5-,6-,8-/m1/s1

>  <InChIKey>
XFVULMDJZXYMSG-ZIYNGMLESA-N

>  <SMILES>
c1nc(c(n1[C@H]2[C@@H]([C@@H]([C@H](O2)COP(=O)(O)O)O)O)N)C(=O)O

$$$$
