1YDA_AZM_A_264
  RCSB PDB12061704443D
Coordinates from PDB:1YDA:A:264 Model:1 without hydrogens
 13 13  0  0  0  0            999 V2000
   -5.1930    2.4560   16.1520   C 0  0  0  0  0  0  0  0  0  0  0  0
   -4.6390    4.3570   15.0410   C 0  0  0  0  0  0  0  0  0  0  0  0
   -5.4520    6.0000   13.6430   C 0  0  0  0  0  0  0  0  0  0  0  0
   -5.1420    7.1880   12.7350   C 0  0  0  0  0  0  0  0  0  0  0  0
   -4.6350   -0.1330   16.8470   N 0  0  0  0  0  0  0  0  0  0  0  0
   -3.5780    3.8380   15.5520   N 0  0  0  0  0  0  0  0  0  0  0  0
   -3.9150    2.6890   16.2150   N 0  0  0  0  0  0  0  0  0  0  0  0
   -4.4210    5.3940   14.2730   N 0  0  0  0  0  0  0  0  0  0  0  0
   -5.8720    1.3760   18.2830   O 0  0  0  0  0  0  0  0  0  0  0  0
   -7.2330    0.5160   16.8020   O 0  0  0  0  0  0  0  0  0  0  0  0
   -6.6270    5.6470   13.7460   O 0  0  0  0  0  0  0  0  0  0  0  0
   -5.8120    0.9610   16.8820   S 0  0  0  0  0  0  0  0  0  0  0  0
   -6.1380    3.5870   15.3270   S 0  0  0  0  0  0  0  0  0  0  0  0
  1  7  2  0  0  0  0
  1 12  1  0  0  0  0
  1 13  1  0  0  0  0
  2  6  2  0  0  0  0
  2  8  1  0  0  0  0
  2 13  1  0  0  0  0
  3  4  1  0  0  0  0
  3  8  1  0  0  0  0
  3 11  2  0  0  0  0
  5 12  1  0  0  0  0
  6  7  1  0  0  0  0
  9 12  2  0  0  0  0
 10 12  2  0  0  0  0
A    1
C1
A    2
C2
A    3
C3
A    4
C4
A    5
N1
A    6
N2
A    7
N3
A    8
N4
A    9
O1
A   10
O2
A   11
O3
A   12
S1
A   13
S2
M  END
>  <InstanceId>
1YDA_AZM_A_264

>  <ChemCompId>
AZM

>  <PdbId>
1YDA

>  <ChainId>
A

>  <ResidueNumber>
264

>  <InsertionCode>


>  <Model>
1

>  <AltIds>


>  <MissingHeavyAtoms>
0

>  <ObservedFormula>
C4 N4 O3 S2

>  <Name>
5-ACETAMIDO-1,3,4-THIADIAZOLE-2-SULFONAMIDE

>  <SystematicName>
N-(5-sulfamoyl-1,3,4-thiadiazol-2-yl)ethanamide

>  <Synonyms>


>  <Type>
NON-POLYMER

>  <Formula>
C4 H6 N4 O3 S2

>  <MolecularWeight>
222.245

>  <ModifiedDate>
2011-06-04

>  <Parent>


>  <OneLetterCode>


>  <SubcomponentList>


>  <AmbiguousFlag>
N

>  <InChI>
InChI=1S/C4H6N4O3S2/c1-2(9)6-3-7-8-4(12-3)13(5,10)11/h1H3,(H2,5,10,11)(H,6,7,9)

>  <InChIKey>
BZKPWHYZMXOIDC-UHFFFAOYSA-N

>  <SMILES>
CC(=O)Nc1nnc(s1)S(=O)(=O)N

$$$$
