2J2U_GSQ_A_1244


 32 35  0  0  0  0  0  0  0  0999 V2000
    5.1106    5.8681   23.3691 N   0  0  0  0  0  0  0  0  0  0  0  0
    6.0187    5.5333   23.6912 H   0  0  0  0  0  0  0  0  0  0  0  0
    5.3317    7.2543   22.9637 C   0  0  0  0  0  0  0  0  0  0  0  0
    6.7841    7.6970   22.8004 C   0  0  0  0  0  0  0  0  0  0  0  0
    7.6853    7.0441   22.2688 O   0  0  0  0  0  0  0  0  0  0  0  0
    4.7168    8.2438   23.9686 C   0  0  0  0  0  0  0  0  0  0  0  0
    5.8365    9.2473   24.2845 C   0  0  0  0  0  0  0  0  0  0  0  0
    6.8967    8.9369   23.3188 N   0  0  0  0  0  0  0  0  0  0  0  0
    7.9640    9.8753   22.9038 C   0  0  0  0  0  0  0  0  0  0  0  0
    9.2864    9.4961   23.5905 C   0  0  0  0  0  0  0  0  0  0  0  0
    8.2069    9.9981   21.3950 C   0  0  0  0  0  0  0  0  0  0  0  0
    9.3091    9.7081   20.9371 O   0  0  0  0  0  0  0  0  0  0  0  0
    7.1875   10.4389   20.5943 N   0  0  0  0  0  0  0  0  0  0  0  0
    6.0955   11.3558   20.9752 C   0  0  0  0  0  0  0  0  0  0  0  0
    5.8634   12.4794   19.9527 C   0  0  0  0  0  0  0  0  0  0  0  0
    5.7726   11.9040   18.6494 O   0  0  0  0  0  0  0  0  0  0  0  0
    6.9609   11.2085   18.2661 C   0  0  0  0  0  0  0  0  0  0  0  0
    7.1355    9.9983   19.1937 C   0  0  0  0  0  0  0  0  0  0  0  0
    4.5303    4.6860   22.4145 S   0  0  0  0  0  0  0  0  0  0  0  0
    3.5474    5.2464   21.5409 O   0  0  0  0  0  0  0  0  0  0  0  0
    4.1515    3.7113   23.3881 O   0  0  0  0  0  0  0  0  0  0  0  0
   10.0136    1.1417   17.8580 Cl  0  0  0  0  0  0  0  0  0  0  0  0
    8.9576    2.3205   18.5948 C   0  0  0  0  0  0  0  0  0  0  0  0
    9.0470    3.6698   18.1712 C   0  0  0  0  0  0  0  0  0  0  0  0
    8.2130    4.6227   18.7878 C   0  0  0  0  0  0  0  0  0  0  0  0
    7.2997    4.2070   19.7878 C   0  0  0  0  0  0  0  0  0  0  0  0
    6.3734    4.9085   20.5405 N   0  0  0  0  0  0  0  0  0  0  0  0
    7.1998    2.8259   20.2062 C   0  0  0  0  0  0  0  0  0  0  0  0
    8.0353    1.8984   19.5832 C   0  0  0  0  0  0  0  0  0  0  0  0
    6.1987    2.7139   21.2128 C   0  0  0  0  0  0  0  0  0  0  0  0
    5.7555    4.0312   21.3671 C   0  0  0  0  0  0  0  0  0  0  0  0
    6.1951    5.8752   20.4848 H   0  0  0  0  0  0  0  0  0  0  0  0
 22 23  1  0  0  0
 23 24  1  0  0  0
 23 29  2  0  0  0
 24 25  2  0  0  0
 25 26  1  0  0  0
 26 27  1  0  0  0
 26 28  2  0  0  0
 27 31  1  0  0  0
 28 29  1  0  0  0
 28 30  1  0  0  0
 30 31  2  0  0  0
 31 19  1  0  0  0
 19 20  2  0  0  0
 19 21  2  0  0  0
 19  1  1  0  0  0
  1  3  1  0  0  0
  3  4  1  0  0  0
  3  6  1  0  0  0
  4  5  2  0  0  0
  4  8  1  0  0  0
  6  7  1  0  0  0
  7  8  1  0  0  0
  8  9  1  0  0  0
  9 10  1  0  0  0
  9 11  1  0  0  0
 11 12  2  0  0  0
 11 13  1  0  0  0
 13 14  1  0  0  0
 13 18  1  0  0  0
 14 15  1  0  0  0
 15 16  1  0  0  0
 16 17  1  0  0  0
 17 18  1  0  0  0
 27 32  1  0  0  0
  1  2  1  0  0  0
M  END
> <minimizedAffinity>
-9.52873

$$$$
2J2U_GSQ_A_1244


 32 35  0  0  0  0  0  0  0  0999 V2000
    6.0806    8.5324   22.4123 N   0  0  0  0  0  0  0  0  0  0  0  0
    6.5003    8.7858   21.5179 H   0  0  0  0  0  0  0  0  0  0  0  0
    6.2672    7.0882   22.5313 C   0  0  0  0  0  0  0  0  0  0  0  0
    6.9765    6.3913   21.3723 C   0  0  0  0  0  0  0  0  0  0  0  0
    7.9704    6.8100   20.7739 O   0  0  0  0  0  0  0  0  0  0  0  0
    4.9240    6.3538   22.6850 C   0  0  0  0  0  0  0  0  0  0  0  0
    4.9580    5.2264   21.6417 C   0  0  0  0  0  0  0  0  0  0  0  0
    6.3363    5.2276   21.1384 N   0  0  0  0  0  0  0  0  0  0  0  0
    6.9972    4.0783   20.4796 C   0  0  0  0  0  0  0  0  0  0  0  0
    6.6738    2.7838   21.2436 C   0  0  0  0  0  0  0  0  0  0  0  0
    6.6725    3.8717   18.9956 C   0  0  0  0  0  0  0  0  0  0  0  0
    5.5008    3.7539   18.6464 O   0  0  0  0  0  0  0  0  0  0  0  0
    7.7019    3.8138   18.0946 N   0  0  0  0  0  0  0  0  0  0  0  0
    9.0765    3.3408   18.3499 C   0  0  0  0  0  0  0  0  0  0  0  0
    9.5906    2.3662   17.2785 C   0  0  0  0  0  0  0  0  0  0  0  0
    9.3516    2.9315   15.9896 O   0  0  0  0  0  0  0  0  0  0  0  0
    7.9646    3.1634   15.7341 C   0  0  0  0  0  0  0  0  0  0  0  0
    7.4649    4.2388   16.7084 C   0  0  0  0  0  0  0  0  0  0  0  0
    6.6187    9.6445   23.4703 S   0  0  0  0  0  0  0  0  0  0  0  0
    5.6767    9.7497   24.5402 O   0  0  0  0  0  0  0  0  0  0  0  0
    6.8458   10.7573   22.6033 O   0  0  0  0  0  0  0  0  0  0  0  0
   13.7498    7.7292   26.4487 Cl  0  0  0  0  0  0  0  0  0  0  0  0
   12.0303    7.9164   26.2116 C   0  0  0  0  0  0  0  0  0  0  0  0
   11.1487    7.3568   27.1695 C   0  0  0  0  0  0  0  0  0  0  0  0
    9.7618    7.4857   26.9602 C   0  0  0  0  0  0  0  0  0  0  0  0
    9.2905    8.1848   25.8218 C   0  0  0  0  0  0  0  0  0  0  0  0
    8.0101    8.4675   25.3774 N   0  0  0  0  0  0  0  0  0  0  0  0
   10.1936    8.7688   24.8545 C   0  0  0  0  0  0  0  0  0  0  0  0
   11.5633    8.6292   25.0804 C   0  0  0  0  0  0  0  0  0  0  0  0
    9.4347    9.4072   23.8325 C   0  0  0  0  0  0  0  0  0  0  0  0
    8.1132    9.1638   24.2200 C   0  0  0  0  0  0  0  0  0  0  0  0
    7.1720    8.2081   25.8240 H   0  0  0  0  0  0  0  0  0  0  0  0
 22 23  1  0  0  0
 23 24  1  0  0  0
 23 29  2  0  0  0
 24 25  2  0  0  0
 25 26  1  0  0  0
 26 27  1  0  0  0
 26 28  2  0  0  0
 27 31  1  0  0  0
 28 29  1  0  0  0
 28 30  1  0  0  0
 30 31  2  0  0  0
 31 19  1  0  0  0
 19 20  2  0  0  0
 19 21  2  0  0  0
 19  1  1  0  0  0
  1  3  1  0  0  0
  3  4  1  0  0  0
  3  6  1  0  0  0
  4  5  2  0  0  0
  4  8  1  0  0  0
  6  7  1  0  0  0
  7  8  1  0  0  0
  8  9  1  0  0  0
  9 10  1  0  0  0
  9 11  1  0  0  0
 11 12  2  0  0  0
 11 13  1  0  0  0
 13 14  1  0  0  0
 13 18  1  0  0  0
 14 15  1  0  0  0
 15 16  1  0  0  0
 16 17  1  0  0  0
 17 18  1  0  0  0
 27 32  1  0  0  0
  1  2  1  0  0  0
M  END
> <minimizedAffinity>
-8.91884

$$$$
2J2U_GSQ_A_1244


 32 35  0  0  0  0  0  0  0  0999 V2000
    6.6705   10.0444   22.8253 N   0  0  0  0  0  0  0  0  0  0  0  0
    7.4437   10.6823   23.0140 H   0  0  0  0  0  0  0  0  0  0  0  0
    6.8228    9.6565   21.4249 C   0  0  0  0  0  0  0  0  0  0  0  0
    5.8560    8.5982   20.8982 C   0  0  0  0  0  0  0  0  0  0  0  0
    4.6466    8.5405   21.1328 O   0  0  0  0  0  0  0  0  0  0  0  0
    8.2283    9.0990   21.1407 C   0  0  0  0  0  0  0  0  0  0  0  0
    7.9951    7.7707   20.4047 C   0  0  0  0  0  0  0  0  0  0  0  0
    6.5572    7.7552   20.1129 N   0  0  0  0  0  0  0  0  0  0  0  0
    5.9184    6.9464   19.0501 C   0  0  0  0  0  0  0  0  0  0  0  0
    5.5015    7.8565   17.8830 C   0  0  0  0  0  0  0  0  0  0  0  0
    6.7471    5.7809   18.4976 C   0  0  0  0  0  0  0  0  0  0  0  0
    7.1011    5.7981   17.3215 O   0  0  0  0  0  0  0  0  0  0  0  0
    7.0646    4.7413   19.3302 N   0  0  0  0  0  0  0  0  0  0  0  0
    6.2814    4.2611   20.4854 C   0  0  0  0  0  0  0  0  0  0  0  0
    6.1086    2.7342   20.5075 C   0  0  0  0  0  0  0  0  0  0  0  0
    7.3852    2.1238   20.3185 O   0  0  0  0  0  0  0  0  0  0  0  0
    7.9879    2.4733   19.0706 C   0  0  0  0  0  0  0  0  0  0  0  0
    8.2949    3.9770   19.0841 C   0  0  0  0  0  0  0  0  0  0  0  0
    6.6378    9.0223   24.0902 S   0  0  0  0  0  0  0  0  0  0  0  0
    6.1367    7.7601   23.6439 O   0  0  0  0  0  0  0  0  0  0  0  0
    5.8993    9.7907   25.0418 O   0  0  0  0  0  0  0  0  0  0  0  0
   14.1520    7.8444   26.4438 Cl  0  0  0  0  0  0  0  0  0  0  0  0
   12.4092    7.8386   26.3433 C   0  0  0  0  0  0  0  0  0  0  0  0
   11.6747    7.1461   27.3379 C   0  0  0  0  0  0  0  0  0  0  0  0
   10.2701    7.1201   27.2377 C   0  0  0  0  0  0  0  0  0  0  0  0
    9.6345    7.8000   26.1698 C   0  0  0  0  0  0  0  0  0  0  0  0
    8.2993    7.9475   25.8345 N   0  0  0  0  0  0  0  0  0  0  0  0
   10.3867    8.5195   25.1654 C   0  0  0  0  0  0  0  0  0  0  0  0
   11.7768    8.5323   25.2828 C   0  0  0  0  0  0  0  0  0  0  0  0
    9.4822    9.1016   24.2320 C   0  0  0  0  0  0  0  0  0  0  0  0
    8.2315    8.6922   24.7050 C   0  0  0  0  0  0  0  0  0  0  0  0
    7.5337    7.5764   26.3299 H   0  0  0  0  0  0  0  0  0  0  0  0
 22 23  1  0  0  0
 23 24  1  0  0  0
 23 29  2  0  0  0
 24 25  2  0  0  0
 25 26  1  0  0  0
 26 27  1  0  0  0
 26 28  2  0  0  0
 27 31  1  0  0  0
 28 29  1  0  0  0
 28 30  1  0  0  0
 30 31  2  0  0  0
 31 19  1  0  0  0
 19 20  2  0  0  0
 19 21  2  0  0  0
 19  1  1  0  0  0
  1  3  1  0  0  0
  3  4  1  0  0  0
  3  6  1  0  0  0
  4  5  2  0  0  0
  4  8  1  0  0  0
  6  7  1  0  0  0
  7  8  1  0  0  0
  8  9  1  0  0  0
  9 10  1  0  0  0
  9 11  1  0  0  0
 11 12  2  0  0  0
 11 13  1  0  0  0
 13 14  1  0  0  0
 13 18  1  0  0  0
 14 15  1  0  0  0
 15 16  1  0  0  0
 16 17  1  0  0  0
 17 18  1  0  0  0
 27 32  1  0  0  0
  1  2  1  0  0  0
M  END
> <minimizedAffinity>
-8.39239

$$$$
2J2U_GSQ_A_1244


 32 35  0  0  0  0  0  0  0  0999 V2000
    5.0639    6.4155   19.9413 N   0  0  0  0  0  0  0  0  0  0  0  0
    4.2551    6.8174   20.4153 H   0  0  0  0  0  0  0  0  0  0  0  0
    6.2234    6.8620   20.7099 C   0  0  0  0  0  0  0  0  0  0  0  0
    6.0847    8.1908   21.4495 C   0  0  0  0  0  0  0  0  0  0  0  0
    5.0963    8.5674   22.0839 O   0  0  0  0  0  0  0  0  0  0  0  0
    7.4671    7.0221   19.8184 C   0  0  0  0  0  0  0  0  0  0  0  0
    8.0180    8.4197   20.1404 C   0  0  0  0  0  0  0  0  0  0  0  0
    7.2437    8.8651   21.3044 N   0  0  0  0  0  0  0  0  0  0  0  0
    7.6783    9.9084   22.2607 C   0  0  0  0  0  0  0  0  0  0  0  0
    6.8228   11.1725   22.0762 C   0  0  0  0  0  0  0  0  0  0  0  0
    7.6668    9.5144   23.7422 C   0  0  0  0  0  0  0  0  0  0  0  0
    6.7064    9.8275   24.4410 O   0  0  0  0  0  0  0  0  0  0  0  0
    8.7363    8.8289   24.2532 N   0  0  0  0  0  0  0  0  0  0  0  0
   10.1366    8.9017   23.7924 C   0  0  0  0  0  0  0  0  0  0  0  0
   11.1444    9.0677   24.9408 C   0  0  0  0  0  0  0  0  0  0  0  0
   10.8645    8.0908   25.9434 O   0  0  0  0  0  0  0  0  0  0  0  0
    9.5530    8.2230   26.4959 C   0  0  0  0  0  0  0  0  0  0  0  0
    8.5291    7.9245   25.3923 C   0  0  0  0  0  0  0  0  0  0  0  0
    4.6647    4.8661   19.6484 S   0  0  0  0  0  0  0  0  0  0  0  0
    3.7521    4.8302   18.5488 O   0  0  0  0  0  0  0  0  0  0  0  0
    4.2405    4.4445   20.9459 O   0  0  0  0  0  0  0  0  0  0  0  0
   10.8989    0.2537   17.8451 Cl  0  0  0  0  0  0  0  0  0  0  0  0
    9.6185    1.4385   17.7780 C   0  0  0  0  0  0  0  0  0  0  0  0
    9.4915    2.2346   16.6126 C   0  0  0  0  0  0  0  0  0  0  0  0
    8.4748    3.2085   16.5735 C   0  0  0  0  0  0  0  0  0  0  0  0
    7.6004    3.3485   17.6792 C   0  0  0  0  0  0  0  0  0  0  0  0
    6.5301    4.1965   17.9076 N   0  0  0  0  0  0  0  0  0  0  0  0
    7.7229    2.5229   18.8607 C   0  0  0  0  0  0  0  0  0  0  0  0
    8.7369    1.5649   18.8791 C   0  0  0  0  0  0  0  0  0  0  0  0
    6.7087    2.8865   19.7920 C   0  0  0  0  0  0  0  0  0  0  0  0
    6.0352    3.9234   19.1385 C   0  0  0  0  0  0  0  0  0  0  0  0
    6.1887    4.8783   17.2847 H   0  0  0  0  0  0  0  0  0  0  0  0
 22 23  1  0  0  0
 23 24  1  0  0  0
 23 29  2  0  0  0
 24 25  2  0  0  0
 25 26  1  0  0  0
 26 27  1  0  0  0
 26 28  2  0  0  0
 27 31  1  0  0  0
 28 29  1  0  0  0
 28 30  1  0  0  0
 30 31  2  0  0  0
 31 19  1  0  0  0
 19 20  2  0  0  0
 19 21  2  0  0  0
 19  1  1  0  0  0
  1  3  1  0  0  0
  3  4  1  0  0  0
  3  6  1  0  0  0
  4  5  2  0  0  0
  4  8  1  0  0  0
  6  7  1  0  0  0
  7  8  1  0  0  0
  8  9  1  0  0  0
  9 10  1  0  0  0
  9 11  1  0  0  0
 11 12  2  0  0  0
 11 13  1  0  0  0
 13 14  1  0  0  0
 13 18  1  0  0  0
 14 15  1  0  0  0
 15 16  1  0  0  0
 16 17  1  0  0  0
 17 18  1  0  0  0
 27 32  1  0  0  0
  1  2  1  0  0  0
M  END
> <minimizedAffinity>
-8.20549

$$$$
2J2U_GSQ_A_1244


 32 35  0  0  0  0  0  0  0  0999 V2000
    6.4915    9.0853   21.3588 N   0  0  0  0  0  0  0  0  0  0  0  0
    6.4225    9.7214   20.5644 H   0  0  0  0  0  0  0  0  0  0  0  0
    7.3477    7.9919   20.9048 C   0  0  0  0  0  0  0  0  0  0  0  0
    7.0862    7.4552   19.4993 C   0  0  0  0  0  0  0  0  0  0  0  0
    6.8486    8.1336   18.4971 O   0  0  0  0  0  0  0  0  0  0  0  0
    7.2440    6.7684   21.8318 C   0  0  0  0  0  0  0  0  0  0  0  0
    6.9890    5.5747   20.8986 C   0  0  0  0  0  0  0  0  0  0  0  0
    7.1861    6.1111   19.5472 N   0  0  0  0  0  0  0  0  0  0  0  0
    7.5043    5.2972   18.3522 C   0  0  0  0  0  0  0  0  0  0  0  0
    8.6590    4.3334   18.6712 C   0  0  0  0  0  0  0  0  0  0  0  0
    6.3431    4.4969   17.7508 C   0  0  0  0  0  0  0  0  0  0  0  0
    6.0806    3.3852   18.2022 O   0  0  0  0  0  0  0  0  0  0  0  0
    5.6313    5.0402   16.7149 N   0  0  0  0  0  0  0  0  0  0  0  0
    6.1291    5.9893   15.7002 C   0  0  0  0  0  0  0  0  0  0  0  0
    5.7421    5.5999   14.2648 C   0  0  0  0  0  0  0  0  0  0  0  0
    4.3433    5.3175   14.2260 O   0  0  0  0  0  0  0  0  0  0  0  0
    3.9717    4.2359   15.0831 C   0  0  0  0  0  0  0  0  0  0  0  0
    4.2235    4.6599   16.5365 C   0  0  0  0  0  0  0  0  0  0  0  0
    6.7771   10.0360   22.6473 S   0  0  0  0  0  0  0  0  0  0  0  0
    5.6573    9.9541   23.5318 O   0  0  0  0  0  0  0  0  0  0  0  0
    7.0960   11.2731   22.0073 O   0  0  0  0  0  0  0  0  0  0  0  0
   13.3695    7.7359   26.4736 Cl  0  0  0  0  0  0  0  0  0  0  0  0
   11.7066    8.0483   26.0438 C   0  0  0  0  0  0  0  0  0  0  0  0
   10.6858    7.6256   26.9311 C   0  0  0  0  0  0  0  0  0  0  0  0
    9.3444    7.8544   26.5676 C   0  0  0  0  0  0  0  0  0  0  0  0
    9.0554    8.5154   25.3484 C   0  0  0  0  0  0  0  0  0  0  0  0
    7.8571    8.8733   24.7544 N   0  0  0  0  0  0  0  0  0  0  0  0
   10.1006    8.9600   24.4527 C   0  0  0  0  0  0  0  0  0  0  0  0
   11.4223    8.7230   24.8314 C   0  0  0  0  0  0  0  0  0  0  0  0
    9.5094    9.5918   23.3217 C   0  0  0  0  0  0  0  0  0  0  0  0
    8.1389    9.4831   23.5782 C   0  0  0  0  0  0  0  0  0  0  0  0
    6.9581    8.7128   25.1223 H   0  0  0  0  0  0  0  0  0  0  0  0
 22 23  1  0  0  0
 23 24  1  0  0  0
 23 29  2  0  0  0
 24 25  2  0  0  0
 25 26  1  0  0  0
 26 27  1  0  0  0
 26 28  2  0  0  0
 27 31  1  0  0  0
 28 29  1  0  0  0
 28 30  1  0  0  0
 30 31  2  0  0  0
 31 19  1  0  0  0
 19 20  2  0  0  0
 19 21  2  0  0  0
 19  1  1  0  0  0
  1  3  1  0  0  0
  3  4  1  0  0  0
  3  6  1  0  0  0
  4  5  2  0  0  0
  4  8  1  0  0  0
  6  7  1  0  0  0
  7  8  1  0  0  0
  8  9  1  0  0  0
  9 10  1  0  0  0
  9 11  1  0  0  0
 11 12  2  0  0  0
 11 13  1  0  0  0
 13 14  1  0  0  0
 13 18  1  0  0  0
 14 15  1  0  0  0
 15 16  1  0  0  0
 16 17  1  0  0  0
 17 18  1  0  0  0
 27 32  1  0  0  0
  1  2  1  0  0  0
M  END
> <minimizedAffinity>
-7.89657

$$$$
2J2U_GSQ_A_1244


 32 35  0  0  0  0  0  0  0  0999 V2000
    7.1721    9.0890   21.3008 N   0  0  0  0  0  0  0  0  0  0  0  0
    8.1465    8.8401   21.1303 H   0  0  0  0  0  0  0  0  0  0  0  0
    6.3966    7.9246   20.8795 C   0  0  0  0  0  0  0  0  0  0  0  0
    7.1503    6.6005   20.7759 C   0  0  0  0  0  0  0  0  0  0  0  0
    7.9832    6.1758   21.5803 O   0  0  0  0  0  0  0  0  0  0  0  0
    5.7600    8.1381   19.4952 C   0  0  0  0  0  0  0  0  0  0  0  0
    6.1308    6.8880   18.6826 C   0  0  0  0  0  0  0  0  0  0  0  0
    6.7237    5.9706   19.6622 N   0  0  0  0  0  0  0  0  0  0  0  0
    6.8196    4.5026   19.4963 C   0  0  0  0  0  0  0  0  0  0  0  0
    8.2674    4.1104   19.1583 C   0  0  0  0  0  0  0  0  0  0  0  0
    6.3409    3.6558   20.6813 C   0  0  0  0  0  0  0  0  0  0  0  0
    7.1421    2.9314   21.2662 O   0  0  0  0  0  0  0  0  0  0  0  0
    5.0248    3.7215   21.0529 N   0  0  0  0  0  0  0  0  0  0  0  0
    3.8711    4.0090   20.1784 C   0  0  0  0  0  0  0  0  0  0  0  0
    2.7008    3.0333   20.3792 C   0  0  0  0  0  0  0  0  0  0  0  0
    2.4194    2.9332   21.7752 O   0  0  0  0  0  0  0  0  0  0  0  0
    3.5282    2.4406   22.5306 C   0  0  0  0  0  0  0  0  0  0  0  0
    4.6632    3.4709   22.4547 C   0  0  0  0  0  0  0  0  0  0  0  0
    7.1509    9.7505   22.7866 S   0  0  0  0  0  0  0  0  0  0  0  0
    5.9969    9.2731   23.4820 O   0  0  0  0  0  0  0  0  0  0  0  0
    7.2729   11.1381   22.4683 O   0  0  0  0  0  0  0  0  0  0  0  0
   13.7276    7.6905   26.7732 Cl  0  0  0  0  0  0  0  0  0  0  0  0
   12.0655    7.9230   26.2928 C   0  0  0  0  0  0  0  0  0  0  0  0
   11.0405    7.4101   27.1261 C   0  0  0  0  0  0  0  0  0  0  0  0
    9.7017    7.5752   26.7211 C   0  0  0  0  0  0  0  0  0  0  0  0
    9.4176    8.2634   25.5159 C   0  0  0  0  0  0  0  0  0  0  0  0
    8.2221    8.5740   24.8905 N   0  0  0  0  0  0  0  0  0  0  0  0
   10.4659    8.7999   24.6759 C   0  0  0  0  0  0  0  0  0  0  0  0
   11.7851    8.6249   25.0951 C   0  0  0  0  0  0  0  0  0  0  0  0
    9.8789    9.4384   23.5464 C   0  0  0  0  0  0  0  0  0  0  0  0
    8.5090    9.2422   23.7477 C   0  0  0  0  0  0  0  0  0  0  0  0
    7.3216    8.3489   25.2188 H   0  0  0  0  0  0  0  0  0  0  0  0
 22 23  1  0  0  0
 23 24  1  0  0  0
 23 29  2  0  0  0
 24 25  2  0  0  0
 25 26  1  0  0  0
 26 27  1  0  0  0
 26 28  2  0  0  0
 27 31  1  0  0  0
 28 29  1  0  0  0
 28 30  1  0  0  0
 30 31  2  0  0  0
 31 19  1  0  0  0
 19 20  2  0  0  0
 19 21  2  0  0  0
 19  1  1  0  0  0
  1  3  1  0  0  0
  3  4  1  0  0  0
  3  6  1  0  0  0
  4  5  2  0  0  0
  4  8  1  0  0  0
  6  7  1  0  0  0
  7  8  1  0  0  0
  8  9  1  0  0  0
  9 10  1  0  0  0
  9 11  1  0  0  0
 11 12  2  0  0  0
 11 13  1  0  0  0
 13 14  1  0  0  0
 13 18  1  0  0  0
 14 15  1  0  0  0
 15 16  1  0  0  0
 16 17  1  0  0  0
 17 18  1  0  0  0
 27 32  1  0  0  0
  1  2  1  0  0  0
M  END
> <minimizedAffinity>
-7.61048

$$$$
2J2U_GSQ_A_1244


 32 35  0  0  0  0  0  0  0  0999 V2000
    6.2346    7.9519   19.0121 N   0  0  0  0  0  0  0  0  0  0  0  0
    6.0935    8.8879   18.6322 H   0  0  0  0  0  0  0  0  0  0  0  0
    5.7022    8.0026   20.3718 C   0  0  0  0  0  0  0  0  0  0  0  0
    6.1311    9.1896   21.2316 C   0  0  0  0  0  0  0  0  0  0  0  0
    6.2123   10.3625   20.8590 O   0  0  0  0  0  0  0  0  0  0  0  0
    6.0935    6.7538   21.1808 C   0  0  0  0  0  0  0  0  0  0  0  0
    6.6729    7.2909   22.4984 C   0  0  0  0  0  0  0  0  0  0  0  0
    6.3804    8.7285   22.4741 N   0  0  0  0  0  0  0  0  0  0  0  0
    6.3153    9.5988   23.6701 C   0  0  0  0  0  0  0  0  0  0  0  0
    4.8483    9.8197   24.0739 C   0  0  0  0  0  0  0  0  0  0  0  0
    7.1003    9.1208   24.8972 C   0  0  0  0  0  0  0  0  0  0  0  0
    6.5207    9.0016   25.9736 O   0  0  0  0  0  0  0  0  0  0  0  0
    8.4351    8.8471   24.7637 N   0  0  0  0  0  0  0  0  0  0  0  0
    9.3758    9.4695   23.8117 C   0  0  0  0  0  0  0  0  0  0  0  0
   10.6939    9.9136   24.4652 C   0  0  0  0  0  0  0  0  0  0  0  0
   11.2107    8.8317   25.2401 O   0  0  0  0  0  0  0  0  0  0  0  0
   10.3248    8.4253   26.2854 C   0  0  0  0  0  0  0  0  0  0  0  0
    9.0533    7.8493   25.6473 C   0  0  0  0  0  0  0  0  0  0  0  0
    5.7423    6.9343   17.8425 S   0  0  0  0  0  0  0  0  0  0  0  0
    5.9230    7.5729   16.5765 O   0  0  0  0  0  0  0  0  0  0  0  0
    4.4284    6.6091   18.3001 O   0  0  0  0  0  0  0  0  0  0  0  0
   10.5865    0.6163   17.9285 Cl  0  0  0  0  0  0  0  0  0  0  0  0
    9.2589    1.7033   17.6062 C   0  0  0  0  0  0  0  0  0  0  0  0
    8.2322    1.2780   16.7270 C   0  0  0  0  0  0  0  0  0  0  0  0
    7.1773    2.1684   16.4476 C   0  0  0  0  0  0  0  0  0  0  0  0
    7.1587    3.4432   17.0654 C   0  0  0  0  0  0  0  0  0  0  0  0
    6.2618    4.4948   16.9841 N   0  0  0  0  0  0  0  0  0  0  0  0
    8.2001    3.8677   17.9750 C   0  0  0  0  0  0  0  0  0  0  0  0
    9.2360    2.9708   18.2376 C   0  0  0  0  0  0  0  0  0  0  0  0
    7.9086    5.1824   18.4383 C   0  0  0  0  0  0  0  0  0  0  0  0
    6.7182    5.4957   17.7746 C   0  0  0  0  0  0  0  0  0  0  0  0
    5.4373    4.5121   16.4464 H   0  0  0  0  0  0  0  0  0  0  0  0
 22 23  1  0  0  0
 23 24  1  0  0  0
 23 29  2  0  0  0
 24 25  2  0  0  0
 25 26  1  0  0  0
 26 27  1  0  0  0
 26 28  2  0  0  0
 27 31  1  0  0  0
 28 29  1  0  0  0
 28 30  1  0  0  0
 30 31  2  0  0  0
 31 19  1  0  0  0
 19 20  2  0  0  0
 19 21  2  0  0  0
 19  1  1  0  0  0
  1  3  1  0  0  0
  3  4  1  0  0  0
  3  6  1  0  0  0
  4  5  2  0  0  0
  4  8  1  0  0  0
  6  7  1  0  0  0
  7  8  1  0  0  0
  8  9  1  0  0  0
  9 10  1  0  0  0
  9 11  1  0  0  0
 11 12  2  0  0  0
 11 13  1  0  0  0
 13 14  1  0  0  0
 13 18  1  0  0  0
 14 15  1  0  0  0
 15 16  1  0  0  0
 16 17  1  0  0  0
 17 18  1  0  0  0
 27 32  1  0  0  0
  1  2  1  0  0  0
M  END
> <minimizedAffinity>
-7.52544

$$$$
2J2U_GSQ_A_1244


 32 35  0  0  0  0  0  0  0  0999 V2000
    4.7636    8.2607   22.2267 N   0  0  0  0  0  0  0  0  0  0  0  0
    4.9210    8.5027   21.2485 H   0  0  0  0  0  0  0  0  0  0  0  0
    5.2183    6.8787   22.3607 C   0  0  0  0  0  0  0  0  0  0  0  0
    6.3984    6.4580   21.4874 C   0  0  0  0  0  0  0  0  0  0  0  0
    7.4124    7.1253   21.2689 O   0  0  0  0  0  0  0  0  0  0  0  0
    4.0958    5.8783   22.0345 C   0  0  0  0  0  0  0  0  0  0  0  0
    4.7127    4.8913   21.0317 C   0  0  0  0  0  0  0  0  0  0  0  0
    6.1429    5.2191   21.0199 N   0  0  0  0  0  0  0  0  0  0  0  0
    7.2183    4.2976   20.5886 C   0  0  0  0  0  0  0  0  0  0  0  0
    6.9220    2.8772   21.0974 C   0  0  0  0  0  0  0  0  0  0  0  0
    7.4921    4.2366   19.0814 C   0  0  0  0  0  0  0  0  0  0  0  0
    8.2136    5.0865   18.5657 O   0  0  0  0  0  0  0  0  0  0  0  0
    6.9152    3.2378   18.3437 N   0  0  0  0  0  0  0  0  0  0  0  0
    5.6343    2.5590   18.6211 C   0  0  0  0  0  0  0  0  0  0  0  0
    4.7301    2.4424   17.3839 C   0  0  0  0  0  0  0  0  0  0  0  0
    5.4972    1.9152   16.3014 O   0  0  0  0  0  0  0  0  0  0  0  0
    6.6057    2.7463   15.9507 C   0  0  0  0  0  0  0  0  0  0  0  0
    7.5904    2.7643   17.1278 C   0  0  0  0  0  0  0  0  0  0  0  0
    5.3261    9.5267   23.0789 S   0  0  0  0  0  0  0  0  0  0  0  0
    4.3711    9.8564   24.0901 O   0  0  0  0  0  0  0  0  0  0  0  0
    5.6099   10.4556   22.0310 O   0  0  0  0  0  0  0  0  0  0  0  0
   11.6751    7.4447   27.4087 Cl  0  0  0  0  0  0  0  0  0  0  0  0
   10.6378    8.1053   26.1696 C   0  0  0  0  0  0  0  0  0  0  0  0
   11.2288    8.8344   25.1079 C   0  0  0  0  0  0  0  0  0  0  0  0
   10.3863    9.3897   24.1253 C   0  0  0  0  0  0  0  0  0  0  0  0
    8.9869    9.1862   24.2108 C   0  0  0  0  0  0  0  0  0  0  0  0
    7.9434    9.5983   23.3995 N   0  0  0  0  0  0  0  0  0  0  0  0
    8.3885    8.4276   25.2872 C   0  0  0  0  0  0  0  0  0  0  0  0
    9.2408    7.8868   26.2503 C   0  0  0  0  0  0  0  0  0  0  0  0
    6.9769    8.3886   25.1030 C   0  0  0  0  0  0  0  0  0  0  0  0
    6.7885    9.1385   23.9377 C   0  0  0  0  0  0  0  0  0  0  0  0
    8.0262   10.1317   22.5762 H   0  0  0  0  0  0  0  0  0  0  0  0
 22 23  1  0  0  0
 23 24  1  0  0  0
 23 29  2  0  0  0
 24 25  2  0  0  0
 25 26  1  0  0  0
 26 27  1  0  0  0
 26 28  2  0  0  0
 27 31  1  0  0  0
 28 29  1  0  0  0
 28 30  1  0  0  0
 30 31  2  0  0  0
 31 19  1  0  0  0
 19 20  2  0  0  0
 19 21  2  0  0  0
 19  1  1  0  0  0
  1  3  1  0  0  0
  3  4  1  0  0  0
  3  6  1  0  0  0
  4  5  2  0  0  0
  4  8  1  0  0  0
  6  7  1  0  0  0
  7  8  1  0  0  0
  8  9  1  0  0  0
  9 10  1  0  0  0
  9 11  1  0  0  0
 11 12  2  0  0  0
 11 13  1  0  0  0
 13 14  1  0  0  0
 13 18  1  0  0  0
 14 15  1  0  0  0
 15 16  1  0  0  0
 16 17  1  0  0  0
 17 18  1  0  0  0
 27 32  1  0  0  0
  1  2  1  0  0  0
M  END
> <minimizedAffinity>
-7.52411

$$$$
2J2U_GSQ_A_1244


 32 35  0  0  0  0  0  0  0  0999 V2000
    7.4913    8.1487   20.4122 N   0  0  0  0  0  0  0  0  0  0  0  0
    8.0568    7.9372   19.5901 H   0  0  0  0  0  0  0  0  0  0  0  0
    6.5775    9.2078   19.9905 C   0  0  0  0  0  0  0  0  0  0  0  0
    6.3285    9.3405   18.4897 C   0  0  0  0  0  0  0  0  0  0  0  0
    6.1516    8.4103   17.6994 O   0  0  0  0  0  0  0  0  0  0  0  0
    7.0681   10.5937   20.4442 C   0  0  0  0  0  0  0  0  0  0  0  0
    7.0153   11.4731   19.1855 C   0  0  0  0  0  0  0  0  0  0  0  0
    6.3127   10.6554   18.1902 N   0  0  0  0  0  0  0  0  0  0  0  0
    5.6145   11.1882   16.9984 C   0  0  0  0  0  0  0  0  0  0  0  0
    5.0453   12.5824   17.3084 C   0  0  0  0  0  0  0  0  0  0  0  0
    6.4411   11.2661   15.7095 C   0  0  0  0  0  0  0  0  0  0  0  0
    7.5183   11.8563   15.7199 O   0  0  0  0  0  0  0  0  0  0  0  0
    5.9509   10.6815   14.5725 N   0  0  0  0  0  0  0  0  0  0  0  0
    4.5314   10.4930   14.2151 C   0  0  0  0  0  0  0  0  0  0  0  0
    4.2084   10.9155   12.7732 C   0  0  0  0  0  0  0  0  0  0  0  0
    5.1608   10.3171   11.8941 O   0  0  0  0  0  0  0  0  0  0  0  0
    6.5032   10.7205   12.1730 C   0  0  0  0  0  0  0  0  0  0  0  0
    6.8923   10.1873   13.5586 C   0  0  0  0  0  0  0  0  0  0  0  0
    7.0489    6.7034   21.0132 S   0  0  0  0  0  0  0  0  0  0  0  0
    5.6213    6.6306   21.0216 O   0  0  0  0  0  0  0  0  0  0  0  0
    7.7746    6.6867   22.2438 O   0  0  0  0  0  0  0  0  0  0  0  0
    9.5520    0.3690   16.8900 Cl  0  0  0  0  0  0  0  0  0  0  0  0
    8.9114    1.9315   17.3326 C   0  0  0  0  0  0  0  0  0  0  0  0
    8.5305    2.8253   16.3011 C   0  0  0  0  0  0  0  0  0  0  0  0
    8.0403    4.0956   16.6617 C   0  0  0  0  0  0  0  0  0  0  0  0
    7.9202    4.4332   18.0323 C   0  0  0  0  0  0  0  0  0  0  0  0
    7.4712    5.5806   18.6639 N   0  0  0  0  0  0  0  0  0  0  0  0
    8.2948    3.5121   19.0828 C   0  0  0  0  0  0  0  0  0  0  0  0
    8.7785    2.2596   18.7039 C   0  0  0  0  0  0  0  0  0  0  0  0
    8.0577    4.1236   20.3469 C   0  0  0  0  0  0  0  0  0  0  0  0
    7.5697    5.3877   20.0011 C   0  0  0  0  0  0  0  0  0  0  0  0
    7.1388    6.3937   18.2193 H   0  0  0  0  0  0  0  0  0  0  0  0
 22 23  1  0  0  0
 23 24  1  0  0  0
 23 29  2  0  0  0
 24 25  2  0  0  0
 25 26  1  0  0  0
 26 27  1  0  0  0
 26 28  2  0  0  0
 27 31  1  0  0  0
 28 29  1  0  0  0
 28 30  1  0  0  0
 30 31  2  0  0  0
 31 19  1  0  0  0
 19 20  2  0  0  0
 19 21  2  0  0  0
 19  1  1  0  0  0
  1  3  1  0  0  0
  3  4  1  0  0  0
  3  6  1  0  0  0
  4  5  2  0  0  0
  4  8  1  0  0  0
  6  7  1  0  0  0
  7  8  1  0  0  0
  8  9  1  0  0  0
  9 10  1  0  0  0
  9 11  1  0  0  0
 11 12  2  0  0  0
 11 13  1  0  0  0
 13 14  1  0  0  0
 13 18  1  0  0  0
 14 15  1  0  0  0
 15 16  1  0  0  0
 16 17  1  0  0  0
 17 18  1  0  0  0
 27 32  1  0  0  0
  1  2  1  0  0  0
M  END
> <minimizedAffinity>
-7.37622

$$$$
2J2U_GSQ_A_1244


 32 35  0  0  0  0  0  0  0  0999 V2000
    6.8568    8.9437   19.1563 N   0  0  0  0  0  0  0  0  0  0  0  0
    6.3819    9.6901   18.6485 H   0  0  0  0  0  0  0  0  0  0  0  0
    7.4020    9.5777   20.3544 C   0  0  0  0  0  0  0  0  0  0  0  0
    7.6335    8.6734   21.5630 C   0  0  0  0  0  0  0  0  0  0  0  0
    8.1128    7.5373   21.5369 O   0  0  0  0  0  0  0  0  0  0  0  0
    6.4902   10.7080   20.8625 C   0  0  0  0  0  0  0  0  0  0  0  0
    6.2951   10.4274   22.3604 C   0  0  0  0  0  0  0  0  0  0  0  0
    7.2431    9.3492   22.6629 N   0  0  0  0  0  0  0  0  0  0  0  0
    7.7677    9.0379   24.0118 C   0  0  0  0  0  0  0  0  0  0  0  0
    7.2273    7.6764   24.4792 C   0  0  0  0  0  0  0  0  0  0  0  0
    9.2936    9.0427   24.1613 C   0  0  0  0  0  0  0  0  0  0  0  0
    9.9938    9.2795   23.1803 O   0  0  0  0  0  0  0  0  0  0  0  0
    9.8394    8.7724   25.3875 N   0  0  0  0  0  0  0  0  0  0  0  0
    9.2617    7.9208   26.4456 C   0  0  0  0  0  0  0  0  0  0  0  0
   10.2711    6.9271   27.0419 C   0  0  0  0  0  0  0  0  0  0  0  0
   11.4630    7.6331   27.3867 O   0  0  0  0  0  0  0  0  0  0  0  0
   12.0836    8.2570   26.2605 C   0  0  0  0  0  0  0  0  0  0  0  0
   11.1449    9.3509   25.7334 C   0  0  0  0  0  0  0  0  0  0  0  0
    5.8237    7.6874   19.1395 S   0  0  0  0  0  0  0  0  0  0  0  0
    5.0111    7.7807   17.9672 O   0  0  0  0  0  0  0  0  0  0  0  0
    5.2306    7.8055   20.4340 O   0  0  0  0  0  0  0  0  0  0  0  0
    9.9170    0.9456   18.0514 Cl  0  0  0  0  0  0  0  0  0  0  0  0
    8.8336    2.1636   18.6762 C   0  0  0  0  0  0  0  0  0  0  0  0
    8.0338    1.8466   19.8022 C   0  0  0  0  0  0  0  0  0  0  0  0
    7.1407    2.8222   20.2862 C   0  0  0  0  0  0  0  0  0  0  0  0
    7.0837    4.0895   19.6555 C   0  0  0  0  0  0  0  0  0  0  0  0
    6.3238    5.2169   19.9171 N   0  0  0  0  0  0  0  0  0  0  0  0
    7.9134    4.4151   18.5163 C   0  0  0  0  0  0  0  0  0  0  0  0
    8.7906    3.4344   18.0525 C   0  0  0  0  0  0  0  0  0  0  0  0
    7.6418    5.7518   18.1072 C   0  0  0  0  0  0  0  0  0  0  0  0
    6.6510    6.1629   19.0045 C   0  0  0  0  0  0  0  0  0  0  0  0
    5.6619    5.3139   20.6395 H   0  0  0  0  0  0  0  0  0  0  0  0
 22 23  1  0  0  0
 23 24  1  0  0  0
 23 29  2  0  0  0
 24 25  2  0  0  0
 25 26  1  0  0  0
 26 27  1  0  0  0
 26 28  2  0  0  0
 27 31  1  0  0  0
 28 29  1  0  0  0
 28 30  1  0  0  0
 30 31  2  0  0  0
 31 19  1  0  0  0
 19 20  2  0  0  0
 19 21  2  0  0  0
 19  1  1  0  0  0
  1  3  1  0  0  0
  3  4  1  0  0  0
  3  6  1  0  0  0
  4  5  2  0  0  0
  4  8  1  0  0  0
  6  7  1  0  0  0
  7  8  1  0  0  0
  8  9  1  0  0  0
  9 10  1  0  0  0
  9 11  1  0  0  0
 11 12  2  0  0  0
 11 13  1  0  0  0
 13 14  1  0  0  0
 13 18  1  0  0  0
 14 15  1  0  0  0
 15 16  1  0  0  0
 16 17  1  0  0  0
 17 18  1  0  0  0
 27 32  1  0  0  0
  1  2  1  0  0  0
M  END
> <minimizedAffinity>
-7.36140

$$$$
