5ORK_A4T_A_404


 18 19  0  0  0  0  0  0  0  0999 V2000
   69.8559  139.8543  350.3299 C   0  0  0  0  0  0  0  0  0  0  0  0
   68.9964  140.3911  349.3859 C   0  0  0  0  0  0  0  0  0  0  0  0
   68.8660  141.7615  349.2321 C   0  0  0  0  0  0  0  0  0  0  0  0
   69.5863  142.6414  350.0416 C   0  0  0  0  0  0  0  0  0  0  0  0
   70.4313  142.0886  350.9959 C   0  0  0  0  0  0  0  0  0  0  0  0
   70.5632  140.7253  351.1482 C   0  0  0  0  0  0  0  0  0  0  0  0
   71.3417  143.1207  352.0438 Cl  0  0  0  0  0  0  0  0  0  0  0  0
   69.4173  144.1172  349.8836 C   0  0  0  0  0  0  0  0  0  0  0  0
   68.2783  144.7525  350.3749 C   0  0  0  0  0  0  0  0  0  0  0  0
   69.1649  146.9031  349.8043 C   0  0  0  0  0  0  0  0  0  0  0  0
   70.3052  146.3074  349.3011 C   0  0  0  0  0  0  0  0  0  0  0  0
   70.3980  144.9357  349.3344 C   0  0  0  0  0  0  0  0  0  0  0  0
   71.4553  144.3594  348.7220 F   0  0  0  0  0  0  0  0  0  0  0  0
   68.1469  146.1297  350.3163 C   0  0  0  0  0  0  0  0  0  0  0  0
   70.1562  138.3717  350.4505 C   0  0  0  0  0  0  0  0  0  0  0  0
   70.8909  137.9742  351.6318 N   0  0  0  0  0  0  0  0  0  0  0  0
   71.8136  138.4088  351.6207 H   0  0  0  0  0  0  0  0  0  0  0  0
   70.9933  136.9594  351.6431 H   0  0  0  0  0  0  0  0  0  0  0  0
 13 12  1  0  0  0
 11 12  2  0  0  0
 11 10  1  0  0  0
 12  8  1  0  0  0
  3  2  2  0  0  0
  3  4  1  0  0  0
  2  1  1  0  0  0
 10 14  2  0  0  0
  8  4  1  0  0  0
  8  9  2  0  0  0
  4  5  2  0  0  0
 14  9  1  0  0  0
  1 15  1  0  0  0
  1  6  2  0  0  0
 15 16  1  0  0  0
  5  6  1  0  0  0
  5  7  1  0  0  0
 16 17  1  0  0  0
 16 18  1  0  0  0
M  END
> <minimizedAffinity>
-8.29125

$$$$
5ORK_A4T_A_404


 18 19  0  0  0  0  0  0  0  0999 V2000
   70.2869  139.9099  351.0154 C   0  0  0  0  0  0  0  0  0  0  0  0
   71.0728  140.8674  351.6349 C   0  0  0  0  0  0  0  0  0  0  0  0
   70.8726  142.2184  351.4035 C   0  0  0  0  0  0  0  0  0  0  0  0
   69.8816  142.6513  350.5210 C   0  0  0  0  0  0  0  0  0  0  0  0
   69.1126  141.6790  349.8937 C   0  0  0  0  0  0  0  0  0  0  0  0
   69.3098  140.3347  350.1248 C   0  0  0  0  0  0  0  0  0  0  0  0
   67.8776  142.1443  348.7754 Cl  0  0  0  0  0  0  0  0  0  0  0  0
   69.6928  144.1100  350.2600 C   0  0  0  0  0  0  0  0  0  0  0  0
   70.6760  144.8396  349.5943 C   0  0  0  0  0  0  0  0  0  0  0  0
   69.2832  146.7877  349.5580 C   0  0  0  0  0  0  0  0  0  0  0  0
   68.2888  146.0980  350.2242 C   0  0  0  0  0  0  0  0  0  0  0  0
   68.5207  144.7886  350.5749 C   0  0  0  0  0  0  0  0  0  0  0  0
   67.5967  144.1666  351.3393 F   0  0  0  0  0  0  0  0  0  0  0  0
   70.4789  146.1702  349.2657 C   0  0  0  0  0  0  0  0  0  0  0  0
   70.3544  138.4281  351.3351 C   0  0  0  0  0  0  0  0  0  0  0  0
   69.6695  138.0141  352.5405 N   0  0  0  0  0  0  0  0  0  0  0  0
   70.1061  138.4572  353.3488 H   0  0  0  0  0  0  0  0  0  0  0  0
   69.7297  137.0002  352.6346 H   0  0  0  0  0  0  0  0  0  0  0  0
 13 12  1  0  0  0
 11 12  2  0  0  0
 11 10  1  0  0  0
 12  8  1  0  0  0
  3  2  2  0  0  0
  3  4  1  0  0  0
  2  1  1  0  0  0
 10 14  2  0  0  0
  8  4  1  0  0  0
  8  9  2  0  0  0
  4  5  2  0  0  0
 14  9  1  0  0  0
  1 15  1  0  0  0
  1  6  2  0  0  0
 15 16  1  0  0  0
  5  6  1  0  0  0
  5  7  1  0  0  0
 16 17  1  0  0  0
 16 18  1  0  0  0
M  END
> <minimizedAffinity>
-8.25230

$$$$
5ORK_A4T_A_404


 18 19  0  0  0  0  0  0  0  0999 V2000
   69.5847  144.8148  350.1624 C   0  0  0  0  0  0  0  0  0  0  0  0
   70.4766  144.3250  351.1019 C   0  0  0  0  0  0  0  0  0  0  0  0
   70.5898  142.9656  351.3425 C   0  0  0  0  0  0  0  0  0  0  0  0
   69.7903  142.0509  350.6551 C   0  0  0  0  0  0  0  0  0  0  0  0
   68.8879  142.5581  349.7283 C   0  0  0  0  0  0  0  0  0  0  0  0
   68.7762  143.9103  349.4868 C   0  0  0  0  0  0  0  0  0  0  0  0
   67.8547  141.4824  348.8522 Cl  0  0  0  0  0  0  0  0  0  0  0  0
   69.9033  140.5894  350.9423 C   0  0  0  0  0  0  0  0  0  0  0  0
   69.3446  140.0539  352.1013 C   0  0  0  0  0  0  0  0  0  0  0  0
   69.9011  137.8300  351.4077 C   0  0  0  0  0  0  0  0  0  0  0  0
   70.4708  138.3256  350.2510 C   0  0  0  0  0  0  0  0  0  0  0  0
   70.4762  139.6866  350.0534 C   0  0  0  0  0  0  0  0  0  0  0  0
   71.1507  140.1669  348.9860 F   0  0  0  0  0  0  0  0  0  0  0  0
   69.3625  138.6899  352.3389 C   0  0  0  0  0  0  0  0  0  0  0  0
   69.5149  146.2722  349.7456 C   0  0  0  0  0  0  0  0  0  0  0  0
   68.9049  147.1701  350.7021 N   0  0  0  0  0  0  0  0  0  0  0  0
   67.9282  146.9094  350.8383 H   0  0  0  0  0  0  0  0  0  0  0  0
   68.9557  148.1265  350.3511 H   0  0  0  0  0  0  0  0  0  0  0  0
 13 12  1  0  0  0
 11 12  2  0  0  0
 11 10  1  0  0  0
 12  8  1  0  0  0
  3  2  2  0  0  0
  3  4  1  0  0  0
  2  1  1  0  0  0
 10 14  2  0  0  0
  8  4  1  0  0  0
  8  9  2  0  0  0
  4  5  2  0  0  0
 14  9  1  0  0  0
  1 15  1  0  0  0
  1  6  2  0  0  0
 15 16  1  0  0  0
  5  6  1  0  0  0
  5  7  1  0  0  0
 16 17  1  0  0  0
 16 18  1  0  0  0
M  END
> <minimizedAffinity>
-7.08265

$$$$
5ORK_A4T_A_404


 18 19  0  0  0  0  0  0  0  0999 V2000
   69.9816  143.5339  350.2627 C   0  0  0  0  0  0  0  0  0  0  0  0
   70.8339  142.9854  351.2064 C   0  0  0  0  0  0  0  0  0  0  0  0
   70.9169  141.6145  351.3867 C   0  0  0  0  0  0  0  0  0  0  0  0
   70.1257  140.7470  350.6318 C   0  0  0  0  0  0  0  0  0  0  0  0
   69.2628  141.3124  349.7012 C   0  0  0  0  0  0  0  0  0  0  0  0
   69.1811  142.6761  349.5198 C   0  0  0  0  0  0  0  0  0  0  0  0
   68.2417  140.2969  348.7430 Cl  0  0  0  0  0  0  0  0  0  0  0  0
   70.2054  139.2719  350.8539 C   0  0  0  0  0  0  0  0  0  0  0  0
   71.0067  138.4785  350.0350 C   0  0  0  0  0  0  0  0  0  0  0  0
   70.5539  136.5443  351.3731 C   0  0  0  0  0  0  0  0  0  0  0  0
   69.7461  137.2981  352.2022 C   0  0  0  0  0  0  0  0  0  0  0  0
   69.5756  138.6324  351.9159 C   0  0  0  0  0  0  0  0  0  0  0  0
   68.6822  139.3273  352.6535 F   0  0  0  0  0  0  0  0  0  0  0  0
   71.1616  137.1249  350.2822 C   0  0  0  0  0  0  0  0  0  0  0  0
   69.9493  145.0101  349.9124 C   0  0  0  0  0  0  0  0  0  0  0  0
   68.6618  145.5310  349.5071 N   0  0  0  0  0  0  0  0  0  0  0  0
   68.3642  145.0707  348.6469 H   0  0  0  0  0  0  0  0  0  0  0  0
   68.7366  146.5355  349.3468 H   0  0  0  0  0  0  0  0  0  0  0  0
 13 12  1  0  0  0
 11 12  2  0  0  0
 11 10  1  0  0  0
 12  8  1  0  0  0
  3  2  2  0  0  0
  3  4  1  0  0  0
  2  1  1  0  0  0
 10 14  2  0  0  0
  8  4  1  0  0  0
  8  9  2  0  0  0
  4  5  2  0  0  0
 14  9  1  0  0  0
  1 15  1  0  0  0
  1  6  2  0  0  0
 15 16  1  0  0  0
  5  6  1  0  0  0
  5  7  1  0  0  0
 16 17  1  0  0  0
 16 18  1  0  0  0
M  END
> <minimizedAffinity>
-6.97149

$$$$
5ORK_A4T_A_404


 18 19  0  0  0  0  0  0  0  0999 V2000
   69.1794  145.2969  349.7486 C   0  0  0  0  0  0  0  0  0  0  0  0
   68.3503  144.6208  350.6282 C   0  0  0  0  0  0  0  0  0  0  0  0
   68.4610  143.2520  350.8092 C   0  0  0  0  0  0  0  0  0  0  0  0
   69.4024  142.5119  350.0921 C   0  0  0  0  0  0  0  0  0  0  0  0
   70.2153  143.2009  349.2005 C   0  0  0  0  0  0  0  0  0  0  0  0
   70.1072  144.5630  349.0213 C   0  0  0  0  0  0  0  0  0  0  0  0
   71.3927  142.3438  348.2672 Cl  0  0  0  0  0  0  0  0  0  0  0  0
   69.4943  141.0324  350.2769 C   0  0  0  0  0  0  0  0  0  0  0  0
   70.3038  140.4963  351.2767 C   0  0  0  0  0  0  0  0  0  0  0  0
   69.5232  138.2831  350.7981 C   0  0  0  0  0  0  0  0  0  0  0  0
   68.7137  138.7780  349.7940 C   0  0  0  0  0  0  0  0  0  0  0  0
   68.7306  140.1304  349.5445 C   0  0  0  0  0  0  0  0  0  0  0  0
   68.0374  140.5842  348.4774 F   0  0  0  0  0  0  0  0  0  0  0  0
   70.3315  139.1333  351.5194 C   0  0  0  0  0  0  0  0  0  0  0  0
   69.2112  146.8079  349.6124 C   0  0  0  0  0  0  0  0  0  0  0  0
   68.9495  147.5531  350.8246 N   0  0  0  0  0  0  0  0  0  0  0  0
   68.0012  147.3580  351.1456 H   0  0  0  0  0  0  0  0  0  0  0  0
   69.0467  148.5511  350.6379 H   0  0  0  0  0  0  0  0  0  0  0  0
 13 12  1  0  0  0
 11 12  2  0  0  0
 11 10  1  0  0  0
 12  8  1  0  0  0
  3  2  2  0  0  0
  3  4  1  0  0  0
  2  1  1  0  0  0
 10 14  2  0  0  0
  8  4  1  0  0  0
  8  9  2  0  0  0
  4  5  2  0  0  0
 14  9  1  0  0  0
  1 15  1  0  0  0
  1  6  2  0  0  0
 15 16  1  0  0  0
  5  6  1  0  0  0
  5  7  1  0  0  0
 16 17  1  0  0  0
 16 18  1  0  0  0
M  END
> <minimizedAffinity>
-6.75087

$$$$
5ORK_A4T_A_404


 18 19  0  0  0  0  0  0  0  0999 V2000
   69.0133  143.2905  349.6501 C   0  0  0  0  0  0  0  0  0  0  0  0
   68.2703  142.2274  349.1645 C   0  0  0  0  0  0  0  0  0  0  0  0
   68.5706  140.9221  349.5177 C   0  0  0  0  0  0  0  0  0  0  0  0
   69.6471  140.6414  350.3608 C   0  0  0  0  0  0  0  0  0  0  0  0
   70.3941  141.7165  350.8261 C   0  0  0  0  0  0  0  0  0  0  0  0
   70.0947  143.0156  350.4768 C   0  0  0  0  0  0  0  0  0  0  0  0
   71.7518  141.4400  351.8617 Cl  0  0  0  0  0  0  0  0  0  0  0  0
   69.9768  139.2278  350.7134 C   0  0  0  0  0  0  0  0  0  0  0  0
   70.8608  138.4929  349.9255 C   0  0  0  0  0  0  0  0  0  0  0  0
   70.7892  136.6565  351.4614 C   0  0  0  0  0  0  0  0  0  0  0  0
   69.9057  137.3524  352.2635 C   0  0  0  0  0  0  0  0  0  0  0  0
   69.5069  138.6069  351.8654 C   0  0  0  0  0  0  0  0  0  0  0  0
   68.5446  139.2221  352.5870 F   0  0  0  0  0  0  0  0  0  0  0  0
   71.2458  137.2130  350.2874 C   0  0  0  0  0  0  0  0  0  0  0  0
   68.6504  144.7463  349.4231 C   0  0  0  0  0  0  0  0  0  0  0  0
   69.5859  145.7159  349.9503 N   0  0  0  0  0  0  0  0  0  0  0  0
   69.6271  145.6313  350.9659 H   0  0  0  0  0  0  0  0  0  0  0  0
   69.2788  146.6558  349.6996 H   0  0  0  0  0  0  0  0  0  0  0  0
 13 12  1  0  0  0
 11 12  2  0  0  0
 11 10  1  0  0  0
 12  8  1  0  0  0
  3  2  2  0  0  0
  3  4  1  0  0  0
  2  1  1  0  0  0
 10 14  2  0  0  0
  8  4  1  0  0  0
  8  9  2  0  0  0
  4  5  2  0  0  0
 14  9  1  0  0  0
  1 15  1  0  0  0
  1  6  2  0  0  0
 15 16  1  0  0  0
  5  6  1  0  0  0
  5  7  1  0  0  0
 16 17  1  0  0  0
 16 18  1  0  0  0
M  END
> <minimizedAffinity>
-6.60998

$$$$
5ORK_A4T_A_404


 18 19  0  0  0  0  0  0  0  0999 V2000
   69.2483  145.4241  349.8066 C   0  0  0  0  0  0  0  0  0  0  0  0
   68.4351  144.7851  350.7278 C   0  0  0  0  0  0  0  0  0  0  0  0
   68.5132  143.4163  350.9250 C   0  0  0  0  0  0  0  0  0  0  0  0
   69.4039  142.6387  350.1831 C   0  0  0  0  0  0  0  0  0  0  0  0
   70.2009  143.2910  349.2504 C   0  0  0  0  0  0  0  0  0  0  0  0
   70.1253  144.6531  349.0551 C   0  0  0  0  0  0  0  0  0  0  0  0
   71.3155  142.3866  348.2851 Cl  0  0  0  0  0  0  0  0  0  0  0  0
   69.4601  141.1599  350.3865 C   0  0  0  0  0  0  0  0  0  0  0  0
   68.6847  140.3105  349.5995 C   0  0  0  0  0  0  0  0  0  0  0  0
   69.7012  138.3791  350.5858 C   0  0  0  0  0  0  0  0  0  0  0  0
   70.4810  139.1900  351.3874 C   0  0  0  0  0  0  0  0  0  0  0  0
   70.3313  140.5532  351.2845 C   0  0  0  0  0  0  0  0  0  0  0  0
   71.0014  141.3301  352.1634 F   0  0  0  0  0  0  0  0  0  0  0  0
   68.7913  138.9347  349.7141 C   0  0  0  0  0  0  0  0  0  0  0  0
   69.3185  146.9315  349.6466 C   0  0  0  0  0  0  0  0  0  0  0  0
   70.0664  147.4071  348.5030 N   0  0  0  0  0  0  0  0  0  0  0  0
   71.0428  147.1268  348.5949 H   0  0  0  0  0  0  0  0  0  0  0  0
   70.0075  148.4244  348.4574 H   0  0  0  0  0  0  0  0  0  0  0  0
 13 12  1  0  0  0
 11 12  2  0  0  0
 11 10  1  0  0  0
 12  8  1  0  0  0
  3  2  2  0  0  0
  3  4  1  0  0  0
  2  1  1  0  0  0
 10 14  2  0  0  0
  8  4  1  0  0  0
  8  9  2  0  0  0
  4  5  2  0  0  0
 14  9  1  0  0  0
  1 15  1  0  0  0
  1  6  2  0  0  0
 15 16  1  0  0  0
  5  6  1  0  0  0
  5  7  1  0  0  0
 16 17  1  0  0  0
 16 18  1  0  0  0
M  END
> <minimizedAffinity>
-6.35351

$$$$
5ORK_A4T_A_404


 18 19  0  0  0  0  0  0  0  0999 V2000
   70.0227  145.6630  349.3686 C   0  0  0  0  0  0  0  0  0  0  0  0
   71.0144  144.7656  349.0090 C   0  0  0  0  0  0  0  0  0  0  0  0
   70.8779  143.4094  349.2558 C   0  0  0  0  0  0  0  0  0  0  0  0
   69.7405  142.9119  349.8939 C   0  0  0  0  0  0  0  0  0  0  0  0
   68.7619  143.8259  350.2645 C   0  0  0  0  0  0  0  0  0  0  0  0
   68.8961  145.1751  350.0175 C   0  0  0  0  0  0  0  0  0  0  0  0
   67.3337  143.2803  351.0736 Cl  0  0  0  0  0  0  0  0  0  0  0  0
   69.6168  141.4505  350.1779 C   0  0  0  0  0  0  0  0  0  0  0  0
   68.8252  140.6397  349.3666 C   0  0  0  0  0  0  0  0  0  0  0  0
   69.5343  138.6772  350.5423 C   0  0  0  0  0  0  0  0  0  0  0  0
   70.3248  139.4502  351.3705 C   0  0  0  0  0  0  0  0  0  0  0  0
   70.3345  140.8127  351.1837 C   0  0  0  0  0  0  0  0  0  0  0  0
   71.0058  141.5681  352.0802 F   0  0  0  0  0  0  0  0  0  0  0  0
   68.7704  139.2699  349.5617 C   0  0  0  0  0  0  0  0  0  0  0  0
   70.0418  147.1341  348.9973 C   0  0  0  0  0  0  0  0  0  0  0  0
   70.9345  147.4976  347.9182 N   0  0  0  0  0  0  0  0  0  0  0  0
   71.8973  147.3041  348.1937 H   0  0  0  0  0  0  0  0  0  0  0  0
   70.8328  148.4916  347.7130 H   0  0  0  0  0  0  0  0  0  0  0  0
 13 12  1  0  0  0
 11 12  2  0  0  0
 11 10  1  0  0  0
 12  8  1  0  0  0
  3  2  2  0  0  0
  3  4  1  0  0  0
  2  1  1  0  0  0
 10 14  2  0  0  0
  8  4  1  0  0  0
  8  9  2  0  0  0
  4  5  2  0  0  0
 14  9  1  0  0  0
  1 15  1  0  0  0
  1  6  2  0  0  0
 15 16  1  0  0  0
  5  6  1  0  0  0
  5  7  1  0  0  0
 16 17  1  0  0  0
 16 18  1  0  0  0
M  END
> <minimizedAffinity>
-6.30787

$$$$
