4Y5D_MT6_A_200


 21 23  0  0  0  0  0  0  0  0999 V2000
   12.1027   -5.2140   -3.5106 C   0  0  0  0  0  0  0  0  0  0  0  0
   11.4718   -6.4814   -3.5809 C   0  0  0  0  0  0  0  0  0  0  0  0
   13.7173   -4.3608   -0.2133 N   0  0  0  0  0  0  0  0  0  0  0  0
   13.0823   -5.4688    0.4680 C   0  0  0  0  0  0  0  0  0  0  0  0
   12.6225   -5.0958   -2.2558 C   0  0  0  0  0  0  0  0  0  0  0  0
   11.5378   -6.9932   -2.3186 O   0  0  0  0  0  0  0  0  0  0  0  0
   12.1763   -6.2603   -1.5432 C   0  0  0  0  0  0  0  0  0  0  0  0
   12.2735   -6.5346   -0.1633 C   0  0  0  0  0  0  0  0  0  0  0  0
   13.4197   -4.0701   -1.5177 C   0  0  0  0  0  0  0  0  0  0  0  0
   13.8185   -2.9609   -2.1014 O   0  0  0  0  0  0  0  0  0  0  0  0
   14.3735   -3.8075    0.2689 H   0  0  0  0  0  0  0  0  0  0  0  0
   10.5895   -8.4801   -4.4568 C   0  0  0  0  0  0  0  0  0  0  0  0
   10.7273   -7.2164   -4.5459 C   0  0  0  0  0  0  0  0  0  0  0  0
    9.7989   -9.1322   -5.3774 C   0  0  0  0  0  0  0  0  0  0  0  0
    9.1242   -8.5243   -6.3938 C   0  0  0  0  0  0  0  0  0  0  0  0
    9.3710   -7.1998   -6.5227 C   0  0  0  0  0  0  0  0  0  0  0  0
   10.1299   -6.5811   -5.5557 C   0  0  0  0  0  0  0  0  0  0  0  0
    8.6620  -11.2475   -5.3644 O   0  0  0  0  0  0  0  0  0  0  0  0
    9.6878  -10.5769   -5.2544 C   0  0  0  0  0  0  0  0  0  0  0  0
   10.8691  -11.2244   -5.0112 O   0  0  0  0  0  0  0  0  0  0  0  0
   10.8743  -12.6866   -4.6330 C   0  0  0  0  0  0  0  0  0  0  0  0
 16 15  2  0  0  0
 16 17  1  0  0  0
 15 14  1  0  0  0
 20 19  1  0  0  0
 20 21  1  0  0  0
 17 13  2  0  0  0
 14 19  1  0  0  0
 14 12  2  0  0  0
 19 18  2  0  0  0
 13 12  1  0  0  0
 13  2  1  0  0  0
  2  1  2  0  0  0
  2  6  1  0  0  0
  1  5  1  0  0  0
  6  7  1  0  0  0
  5  7  2  0  0  0
  5  9  1  0  0  0
 10  9  2  0  0  0
  7  8  1  0  0  0
  9  3  1  0  0  0
  3  4  1  0  0  0
  8  4  2  0  0  0
  3 11  1  0  0  0
M  END
> <minimizedAffinity>
-11.16075

$$$$
4Y5D_MT6_A_200


 21 23  0  0  0  0  0  0  0  0999 V2000
   11.5204   -6.8169   -1.9939 C   0  0  0  0  0  0  0  0  0  0  0  0
   11.2891   -6.6136   -3.3774 C   0  0  0  0  0  0  0  0  0  0  0  0
   13.6387   -4.2127   -0.2798 N   0  0  0  0  0  0  0  0  0  0  0  0
   14.0591   -3.6237   -1.5333 C   0  0  0  0  0  0  0  0  0  0  0  0
   12.2938   -5.7807   -1.5617 C   0  0  0  0  0  0  0  0  0  0  0  0
   12.0494   -5.5347   -3.7206 O   0  0  0  0  0  0  0  0  0  0  0  0
   12.6246   -5.0298   -2.7406 C   0  0  0  0  0  0  0  0  0  0  0  0
   13.5528   -3.9769   -2.8777 C   0  0  0  0  0  0  0  0  0  0  0  0
   12.8741   -5.3483   -0.2546 C   0  0  0  0  0  0  0  0  0  0  0  0
   12.6463   -6.0203    0.8530 O   0  0  0  0  0  0  0  0  0  0  0  0
   13.9067   -3.7902    0.5681 H   0  0  0  0  0  0  0  0  0  0  0  0
   10.4365   -8.5604   -4.3891 C   0  0  0  0  0  0  0  0  0  0  0  0
   10.6165   -7.2995   -4.4277 C   0  0  0  0  0  0  0  0  0  0  0  0
    9.7163   -9.1632   -5.3969 C   0  0  0  0  0  0  0  0  0  0  0  0
    9.1549   -8.5079   -6.4521 C   0  0  0  0  0  0  0  0  0  0  0  0
    9.4488   -7.1885   -6.5185 C   0  0  0  0  0  0  0  0  0  0  0  0
   10.1323   -6.6193   -5.4684 C   0  0  0  0  0  0  0  0  0  0  0  0
    8.5374  -11.2463   -5.5924 O   0  0  0  0  0  0  0  0  0  0  0  0
    9.5547  -10.6068   -5.3276 C   0  0  0  0  0  0  0  0  0  0  0  0
   10.6761  -11.2917   -4.9439 O   0  0  0  0  0  0  0  0  0  0  0  0
   10.5805  -12.7401   -4.5271 C   0  0  0  0  0  0  0  0  0  0  0  0
 16 15  2  0  0  0
 16 17  1  0  0  0
 15 14  1  0  0  0
 20 19  1  0  0  0
 20 21  1  0  0  0
 17 13  2  0  0  0
 14 19  1  0  0  0
 14 12  2  0  0  0
 19 18  2  0  0  0
 13 12  1  0  0  0
 13  2  1  0  0  0
  2  1  2  0  0  0
  2  6  1  0  0  0
  1  5  1  0  0  0
  6  7  1  0  0  0
  5  7  2  0  0  0
  5  9  1  0  0  0
 10  9  2  0  0  0
  7  8  1  0  0  0
  9  3  1  0  0  0
  3  4  1  0  0  0
  8  4  2  0  0  0
  3 11  1  0  0  0
M  END
> <minimizedAffinity>
-10.04151

$$$$
4Y5D_MT6_A_200


 21 23  0  0  0  0  0  0  0  0999 V2000
    9.0133  -11.2296   -5.9026 C   0  0  0  0  0  0  0  0  0  0  0  0
    9.9510  -10.3067   -5.3755 C   0  0  0  0  0  0  0  0  0  0  0  0
    9.8659  -14.8746   -5.4619 N   0  0  0  0  0  0  0  0  0  0  0  0
   11.2243  -14.5834   -5.0554 C   0  0  0  0  0  0  0  0  0  0  0  0
    9.4936  -12.4790   -5.6435 C   0  0  0  0  0  0  0  0  0  0  0  0
   11.0043  -11.0599   -4.9475 O   0  0  0  0  0  0  0  0  0  0  0  0
   10.7949  -12.2795   -5.0693 C   0  0  0  0  0  0  0  0  0  0  0  0
   11.7902  -13.2410   -4.7980 C   0  0  0  0  0  0  0  0  0  0  0  0
    9.0247  -13.8780   -5.8787 C   0  0  0  0  0  0  0  0  0  0  0  0
    7.8627  -14.1263   -6.4429 O   0  0  0  0  0  0  0  0  0  0  0  0
    9.5418  -15.8039   -5.4382 H   0  0  0  0  0  0  0  0  0  0  0  0
   10.7282   -8.3235   -4.3737 C   0  0  0  0  0  0  0  0  0  0  0  0
   10.0955   -8.8917   -5.3227 C   0  0  0  0  0  0  0  0  0  0  0  0
   10.9000   -6.9572   -4.4096 C   0  0  0  0  0  0  0  0  0  0  0  0
   10.4505   -6.1418   -5.4052 C   0  0  0  0  0  0  0  0  0  0  0  0
    9.6970   -6.7599   -6.3443 C   0  0  0  0  0  0  0  0  0  0  0  0
    9.5890   -8.1309   -6.2946 C   0  0  0  0  0  0  0  0  0  0  0  0
   12.3907   -5.3993   -3.3524 O   0  0  0  0  0  0  0  0  0  0  0  0
   11.6065   -6.3457   -3.2953 C   0  0  0  0  0  0  0  0  0  0  0  0
   11.3303   -6.8929   -2.0714 O   0  0  0  0  0  0  0  0  0  0  0  0
   12.3908   -6.9342   -0.9969 C   0  0  0  0  0  0  0  0  0  0  0  0
 16 15  2  0  0  0
 16 17  1  0  0  0
 15 14  1  0  0  0
 20 19  1  0  0  0
 20 21  1  0  0  0
 17 13  2  0  0  0
 14 19  1  0  0  0
 14 12  2  0  0  0
 19 18  2  0  0  0
 13 12  1  0  0  0
 13  2  1  0  0  0
  2  1  2  0  0  0
  2  6  1  0  0  0
  1  5  1  0  0  0
  6  7  1  0  0  0
  5  7  2  0  0  0
  5  9  1  0  0  0
 10  9  2  0  0  0
  7  8  1  0  0  0
  9  3  1  0  0  0
  3  4  1  0  0  0
  8  4  2  0  0  0
  3 11  1  0  0  0
M  END
> <minimizedAffinity>
-8.93486

$$$$
4Y5D_MT6_A_200


 21 23  0  0  0  0  0  0  0  0999 V2000
   10.8827  -11.4510   -4.8478 C   0  0  0  0  0  0  0  0  0  0  0  0
   10.1858  -10.3554   -5.4160 C   0  0  0  0  0  0  0  0  0  0  0  0
    9.6273  -14.8740   -5.8041 N   0  0  0  0  0  0  0  0  0  0  0  0
    8.4127  -14.3459   -6.3881 C   0  0  0  0  0  0  0  0  0  0  0  0
   10.2877  -12.5867   -5.3115 C   0  0  0  0  0  0  0  0  0  0  0  0
    9.1292  -10.9008   -6.0839 O   0  0  0  0  0  0  0  0  0  0  0  0
    9.1451  -12.1439   -6.0608 C   0  0  0  0  0  0  0  0  0  0  0  0
    8.0894  -12.9162   -6.5879 C   0  0  0  0  0  0  0  0  0  0  0  0
   10.5124  -14.0555   -5.1550 C   0  0  0  0  0  0  0  0  0  0  0  0
   11.5140  -14.5242   -4.4428 O   0  0  0  0  0  0  0  0  0  0  0  0
    9.8200  -15.8368   -5.8748 H   0  0  0  0  0  0  0  0  0  0  0  0
   10.8269   -8.3469   -4.3693 C   0  0  0  0  0  0  0  0  0  0  0  0
   10.2481   -8.9355   -5.3401 C   0  0  0  0  0  0  0  0  0  0  0  0
   10.9211   -6.9727   -4.3821 C   0  0  0  0  0  0  0  0  0  0  0  0
   10.4471   -6.1689   -5.3757 C   0  0  0  0  0  0  0  0  0  0  0  0
    9.7504   -6.8142   -6.3400 C   0  0  0  0  0  0  0  0  0  0  0  0
    9.7197   -8.1897   -6.3121 C   0  0  0  0  0  0  0  0  0  0  0  0
   12.3435   -5.3848   -3.2764 O   0  0  0  0  0  0  0  0  0  0  0  0
   11.5677   -6.3393   -3.2439 C   0  0  0  0  0  0  0  0  0  0  0  0
   11.2399   -6.8742   -2.0273 O   0  0  0  0  0  0  0  0  0  0  0  0
   12.2312   -6.8441   -0.8882 C   0  0  0  0  0  0  0  0  0  0  0  0
 16 15  2  0  0  0
 16 17  1  0  0  0
 15 14  1  0  0  0
 20 19  1  0  0  0
 20 21  1  0  0  0
 17 13  2  0  0  0
 14 19  1  0  0  0
 14 12  2  0  0  0
 19 18  2  0  0  0
 13 12  1  0  0  0
 13  2  1  0  0  0
  2  1  2  0  0  0
  2  6  1  0  0  0
  1  5  1  0  0  0
  6  7  1  0  0  0
  5  7  2  0  0  0
  5  9  1  0  0  0
 10  9  2  0  0  0
  7  8  1  0  0  0
  9  3  1  0  0  0
  3  4  1  0  0  0
  8  4  2  0  0  0
  3 11  1  0  0  0
M  END
> <minimizedAffinity>
-8.79884

$$$$
