3NXQ_RX4_A_700
  RCSB PDB12061709593D
Coordinates from PDB:3NXQ:A:700 Model:1 without hydrogens
 34 34  0  0  0  0            999 V2000
   -7.5060  -19.3570  -23.2410   C 0  0  0  0  0  0  0  0  0  0  0  0
   -7.7620  -18.3480  -22.1590   C 0  0  0  0  0  0  0  0  0  0  0  0
   -8.3630  -19.6230  -24.0750   O 0  0  0  0  0  0  0  0  0  0  0  0
   -4.1880  -18.8950  -23.0540   C 0  0  0  0  0  0  0  0  0  0  0  0
   -4.0730  -19.0630  -24.2540   O 0  0  0  0  0  0  0  0  0  0  0  0
   -5.2250  -19.6980  -22.3380   C 0  0  0  0  0  0  0  0  0  0  0  0
   -4.6910  -21.0680  -21.9530   C 0  0  0  0  0  0  0  0  0  0  0  0
   -5.7510  -21.7530  -21.1230   C 0  0  0  0  0  0  0  0  0  0  0  0
   -6.0410  -21.2440  -20.0210   O 0  0  0  0  0  0  0  0  0  0  0  0
   -6.3050  -22.7880  -21.5640   O 0  0  0  0  0  0  0  0  0  0  0  0
   -6.3150  -19.9630  -23.2680   N 0  0  0  0  0  0  0  0  0  0  0  0
   -5.1940  -15.4070  -22.0910   C 0  0  0  0  0  0  0  0  0  0  0  0
   -6.4970  -15.0460  -22.4600   C 0  0  0  0  0  0  0  0  0  0  0  0
   -6.7680  -14.6290  -23.7650   C 0  0  0  0  0  0  0  0  0  0  0  0
   -5.7360  -14.5760  -24.7010   C 0  0  0  0  0  0  0  0  0  0  0  0
   -4.4340  -14.9330  -24.3340   C 0  0  0  0  0  0  0  0  0  0  0  0
   -4.1590  -15.3530  -23.0300   C 0  0  0  0  0  0  0  0  0  0  0  0
   -2.7480  -15.7500  -22.6310   C 0  0  0  0  0  0  0  0  0  0  0  0
   -2.4510  -17.2060  -23.0280   C 0  0  0  0  0  0  0  0  0  0  0  0
   -0.7630  -17.7120  -22.5710   P 0  0  0  0  0  0  0  0  0  0  0  0
   -0.5340  -19.0460  -23.2270   O 0  0  0  0  0  0  0  0  0  0  0  0
   -0.5880  -17.6640  -21.0700   O 0  0  0  0  0  0  0  0  0  0  0  0
   -3.4480  -18.0280  -22.3510   N 0  0  0  0  0  0  0  0  0  0  0  0
    0.3200  -16.4960  -23.3570   C 0  0  0  0  0  0  0  0  0  0  0  0
    1.6900  -16.4160  -22.6870   C 0  0  0  0  0  0  0  0  0  0  0  0
    2.7360  -16.0930  -23.7530   C 0  0  0  0  0  0  0  0  0  0  0  0
    1.7230  -15.2970  -21.6820   C 0  0  0  0  0  0  0  0  0  0  0  0
    0.9020  -14.3860  -21.7360   O 0  0  0  0  0  0  0  0  0  0  0  0
    2.7050  -15.3610  -20.7760   N 0  0  0  0  0  0  0  0  0  0  0  0
    2.9270  -14.3460  -19.7560   C 0  0  0  0  0  0  0  0  0  0  0  0
    4.0510  -14.7870  -18.8150   C 0  0  0  0  0  0  0  0  0  0  0  0
    3.3370  -13.0720  -20.4370   C 0  0  0  0  0  0  0  0  0  0  0  0
    3.9910  -13.1240  -21.4730   O 0  0  0  0  0  0  0  0  0  0  0  0
    2.9640  -11.9270  -19.8890   N 0  0  0  0  0  0  0  0  0  0  0  0
 12 13  1  0  0  0  0
 12 17  2  0  0  0  0
 13 14  2  0  0  0  0
 14 15  1  0  0  0  0
 15 16  2  0  0  0  0
 16 17  1  0  0  0  0
 17 18  1  0  0  0  0
 18 19  1  0  0  0  0
 19 23  1  0  0  0  0
 19 20  1  0  0  0  0
 23  4  1  0  0  0  0
  4  5  2  0  0  0  0
  4  6  1  0  0  0  0
  6  7  1  0  0  0  0
  6 11  1  0  0  0  0
  7  8  1  0  0  0  0
  8  9  1  0  0  0  0
  8 10  2  0  0  0  0
 11  1  1  0  0  0  0
  1  2  1  0  0  0  0
  1  3  2  0  0  0  0
 20 21  1  0  0  0  0
 20 22  2  0  0  0  0
 20 24  1  0  0  0  0
 24 25  1  0  0  0  0
 25 26  1  0  0  0  0
 25 27  1  0  0  0  0
 27 28  2  0  0  0  0
 27 29  1  0  0  0  0
 29 30  1  0  0  0  0
 30 31  1  0  0  0  0
 30 32  1  0  0  0  0
 32 33  2  0  0  0  0
 32 34  1  0  0  0  0
A    1
CAX
A    2
CAA
A    3
OAE
A    4
CBB
A    5
OAI
A    6
CBF
A    7
CAR
A    8
CAZ
A    9
OAK
A   10
OAG
A   11
NAU
A   12
CAP
A   13
CAN
A   14
CAM
A   15
CAO
A   16
CAQ
A   17
CBC
A   18
CAS
A   19
CBG
A   20
P1
A   21
O4
A   22
O3
A   23
NAW
A   24
CAT
A   25
CBD
A   26
CAB
A   27
CBA
A   28
OAH
A   29
N
A   30
CA
A   31
CB
A   32
C
A   33
O
A   34
NAD
M  END
>  <InstanceId>
3NXQ_RX4_A_700

>  <ChemCompId>
RX4

>  <PdbId>
3NXQ

>  <ChainId>
A

>  <ResidueNumber>
700

>  <InsertionCode>


>  <Model>
1

>  <AltIds>


>  <MissingHeavyAtoms>
0

>  <ObservedFormula>
C21 N4 O8 P

>  <Name>
N~2~-acetyl-N-{(1R)-1-[(S)-[(2S)-3-{[(2S)-1-amino-1-oxopropan-2-yl]amino}-2-methyl-3-oxopropyl](hydroxy)phosphoryl]-2-phenylethyl}-L-alpha-asparagine

>  <SystematicName>
(3S)-3-acetamido-4-[[(1R)-1-[[(2S)-3-[[(2S)-1-azanyl-1-oxo-propan-2-yl]amino]-2-methyl-3-oxo-propyl]-hydroxy-phosphoryl]-2-phenyl-ethyl]amino]-4-oxo-butanoic acid

>  <Synonyms>
Ac-Asp-(L)Phe(PO2CH2)(L)Ala-Ala-NH2, RXP407

>  <Type>
PEPTIDE-LIKE

>  <Formula>
C21 H31 N4 O8 P

>  <MolecularWeight>
498.467

>  <ModifiedDate>
2011-06-04

>  <Parent>


>  <OneLetterCode>


>  <SubcomponentList>
ACE ASP RT1 ALA NH2

>  <AmbiguousFlag>
N

>  <InChI>
InChI=1S/C21H31N4O8P/c1-12(20(30)23-13(2)19(22)29)11-34(32,33)17(9-15-7-5-4-6-8-15)25-21(31)16(10-18(27)28)24-14(3)26/h4-8,12-13,16-17H,9-11H2,1-3H3,(H2,22,29)(H,23,30)(H,24,26)(H,25,31)(H,27,28)(H,32,33)/t12-,13+,16+,17-/m1/s1

>  <InChIKey>
OCAZUTUOYLAIOA-OSRSDYAFSA-N

>  <SMILES>
C[C@H](C[P@@](=O)([C@H](Cc1ccccc1)NC(=O)[C@H](CC(=O)O)NC(=O)C)O)C(=O)N[C@@H](C)C(=O)N

$$$$
