3NXQ_RX4_A_700


 41 41  0  0  0  0  0  0  0  0999 V2000
   -9.4299  -16.9307  -25.7184 C   0  0  0  0  0  0  0  0  0  0  0  0
   -7.5323  -18.1179  -24.7907 C   0  0  0  0  0  0  0  0  0  0  0  0
   -7.0047  -18.2247  -25.8824 O   0  0  0  0  0  0  0  0  0  0  0  0
   -8.7042  -17.5018  -24.5891 N   0  0  0  0  0  0  0  0  0  0  0  0
   -9.0754  -17.4343  -23.6798 H   0  0  0  0  0  0  0  0  0  0  0  0
   -6.8295  -18.7231  -23.6192 C   0  0  0  0  0  0  0  0  0  0  0  0
   -8.0502  -20.6592  -22.6725 C   0  0  0  0  0  0  0  0  0  0  0  0
   -8.6701  -19.7455  -21.6551 C   0  0  0  0  0  0  0  0  0  0  0  0
   -8.3174  -21.8545  -22.6971 O   0  0  0  0  0  0  0  0  0  0  0  0
   -7.1921  -20.1328  -23.5518 N   0  0  0  0  0  0  0  0  0  0  0  0
   -6.7743  -20.7426  -24.2020 H   0  0  0  0  0  0  0  0  0  0  0  0
   -5.3223  -18.7109  -23.8154 C   0  0  0  0  0  0  0  0  0  0  0  0
   -4.7428  -19.8125  -22.9595 C   0  0  0  0  0  0  0  0  0  0  0  0
   -4.3794  -20.8597  -23.5330 O   0  0  0  0  0  0  0  0  0  0  0  0
   -4.6367  -19.6396  -21.7220 O   0  0  0  0  0  0  0  0  0  0  0  0
   -4.4782  -20.9442  -24.4609 H   0  0  0  0  0  0  0  0  0  0  0  0
   -9.2509  -15.1196  -25.7655 P   0  0  0  0  0  0  0  0  0  0  0  0
  -10.6433  -14.5648  -25.8917 O   0  0  0  0  0  0  0  0  0  0  0  0
   -8.2683  -14.7163  -26.8415 O   0  0  0  0  0  0  0  0  0  0  0  0
  -11.0065  -14.7974  -26.7605 H   0  0  0  0  0  0  0  0  0  0  0  0
   -8.6025  -14.6700  -24.1387 C   0  0  0  0  0  0  0  0  0  0  0  0
   -7.3319  -13.8278  -24.2298 C   0  0  0  0  0  0  0  0  0  0  0  0
   -7.3568  -12.7852  -23.1131 C   0  0  0  0  0  0  0  0  0  0  0  0
   -6.1136  -14.6826  -24.0093 C   0  0  0  0  0  0  0  0  0  0  0  0
   -5.5812  -15.2639  -24.9502 O   0  0  0  0  0  0  0  0  0  0  0  0
   -5.6930  -14.7758  -22.7429 N   0  0  0  0  0  0  0  0  0  0  0  0
   -6.1742  -14.2632  -22.0538 H   0  0  0  0  0  0  0  0  0  0  0  0
   -4.5623  -15.5939  -22.3281 C   0  0  0  0  0  0  0  0  0  0  0  0
   -3.2696  -14.7776  -22.4053 C   0  0  0  0  0  0  0  0  0  0  0  0
   -4.7825  -16.0194  -20.9049 C   0  0  0  0  0  0  0  0  0  0  0  0
   -4.0625  -15.5680  -20.0209 O   0  0  0  0  0  0  0  0  0  0  0  0
   -5.7643  -16.8706  -20.6560 N   0  0  0  0  0  0  0  0  0  0  0  0
   -6.3203  -17.2102  -21.3941 H   0  0  0  0  0  0  0  0  0  0  0  0
   -5.9389  -17.1644  -19.7327 H   0  0  0  0  0  0  0  0  0  0  0  0
  -10.8963  -17.3650  -25.5552 C   0  0  0  0  0  0  0  0  0  0  0  0
  -11.6363  -19.2791  -24.0784 C   0  0  0  0  0  0  0  0  0  0  0  0
  -11.7222  -20.6475  -23.7879 C   0  0  0  0  0  0  0  0  0  0  0  0
  -11.1696  -21.5874  -24.6606 C   0  0  0  0  0  0  0  0  0  0  0  0
  -10.5289  -21.1578  -25.8220 C   0  0  0  0  0  0  0  0  0  0  0  0
  -10.4447  -19.7925  -26.1155 C   0  0  0  0  0  0  0  0  0  0  0  0
  -10.9942  -18.8487  -25.2438 C   0  0  0  0  0  0  0  0  0  0  0  0
 36 37  1  0  0  0
 36 41  2  0  0  0
 37 38  2  0  0  0
 38 39  1  0  0  0
 39 40  2  0  0  0
 40 41  1  0  0  0
 41 35  1  0  0  0
 35  1  1  0  0  0
  1  4  1  0  0  0
  1 17  1  0  0  0
  4  2  1  0  0  0
  2  3  2  0  0  0
  2  6  1  0  0  0
  6 12  1  0  0  0
  6 10  1  0  0  0
 12 13  1  0  0  0
 13 14  1  0  0  0
 13 15  2  0  0  0
 10  7  1  0  0  0
  7  8  1  0  0  0
  7  9  2  0  0  0
 17 18  1  0  0  0
 17 19  2  0  0  0
 17 21  1  0  0  0
 21 22  1  0  0  0
 22 23  1  0  0  0
 22 24  1  0  0  0
 24 25  2  0  0  0
 24 26  1  0  0  0
 26 28  1  0  0  0
 28 29  1  0  0  0
 28 30  1  0  0  0
 30 31  2  0  0  0
 30 32  1  0  0  0
 14 16  1  0  0  0
 10 11  1  0  0  0
 18 20  1  0  0  0
  4  5  1  0  0  0
 26 27  1  0  0  0
 32 33  1  0  0  0
 32 34  1  0  0  0
M  END
> <minimizedAffinity>
-8.33123

$$$$
3NXQ_RX4_A_700


 41 41  0  0  0  0  0  0  0  0999 V2000
    1.7961  -15.9382  -22.5539 C   0  0  0  0  0  0  0  0  0  0  0  0
   -0.6255  -16.0191  -22.5380 C   0  0  0  0  0  0  0  0  0  0  0  0
   -0.7093  -14.8620  -22.1700 O   0  0  0  0  0  0  0  0  0  0  0  0
    0.5370  -16.6438  -22.7660 N   0  0  0  0  0  0  0  0  0  0  0  0
    0.5418  -17.5781  -23.0763 H   0  0  0  0  0  0  0  0  0  0  0  0
   -1.8976  -16.7789  -22.7308 C   0  0  0  0  0  0  0  0  0  0  0  0
   -3.7397  -15.3807  -23.6176 C   0  0  0  0  0  0  0  0  0  0  0  0
   -4.2486  -15.1980  -22.2169 C   0  0  0  0  0  0  0  0  0  0  0  0
   -4.3046  -14.8573  -24.5703 O   0  0  0  0  0  0  0  0  0  0  0  0
   -2.6520  -16.1360  -23.7989 N   0  0  0  0  0  0  0  0  0  0  0  0
   -2.3373  -16.2678  -24.7224 H   0  0  0  0  0  0  0  0  0  0  0  0
   -1.6261  -18.1884  -23.2307 C   0  0  0  0  0  0  0  0  0  0  0  0
   -2.9102  -18.9731  -23.0998 C   0  0  0  0  0  0  0  0  0  0  0  0
   -3.6454  -18.7202  -22.1234 O   0  0  0  0  0  0  0  0  0  0  0  0
   -3.1982  -19.8320  -23.9669 O   0  0  0  0  0  0  0  0  0  0  0  0
   -3.3889  -18.0694  -21.5000 H   0  0  0  0  0  0  0  0  0  0  0  0
    2.6464  -15.6238  -24.1326 P   0  0  0  0  0  0  0  0  0  0  0  0
    1.5790  -15.2069  -25.1069 O   0  0  0  0  0  0  0  0  0  0  0  0
    3.4835  -16.8197  -24.5261 O   0  0  0  0  0  0  0  0  0  0  0  0
    0.9955  -15.9601  -25.2891 H   0  0  0  0  0  0  0  0  0  0  0  0
    3.7156  -14.2009  -23.8140 C   0  0  0  0  0  0  0  0  0  0  0  0
    4.8520  -14.0869  -24.8278 C   0  0  0  0  0  0  0  0  0  0  0  0
    5.1014  -12.6072  -25.1162 C   0  0  0  0  0  0  0  0  0  0  0  0
    6.1269  -14.6474  -24.2589 C   0  0  0  0  0  0  0  0  0  0  0  0
    7.1879  -14.5209  -24.8632 O   0  0  0  0  0  0  0  0  0  0  0  0
    6.0057  -15.2972  -23.0960 N   0  0  0  0  0  0  0  0  0  0  0  0
    5.1162  -15.3377  -22.6760 H   0  0  0  0  0  0  0  0  0  0  0  0
    7.1175  -15.9479  -22.4175 C   0  0  0  0  0  0  0  0  0  0  0  0
    7.4086  -15.2393  -21.0922 C   0  0  0  0  0  0  0  0  0  0  0  0
    6.7307  -17.3705  -22.1317 C   0  0  0  0  0  0  0  0  0  0  0  0
    7.2319  -17.9526  -21.1759 O   0  0  0  0  0  0  0  0  0  0  0  0
    5.8452  -17.9455  -22.9290 N   0  0  0  0  0  0  0  0  0  0  0  0
    5.4659  -17.4437  -23.6864 H   0  0  0  0  0  0  0  0  0  0  0  0
    5.5656  -18.8751  -22.7649 H   0  0  0  0  0  0  0  0  0  0  0  0
    2.6322  -16.8185  -21.6095 C   0  0  0  0  0  0  0  0  0  0  0  0
    4.2071  -16.5391  -19.6515 C   0  0  0  0  0  0  0  0  0  0  0  0
    4.7345  -15.7856  -18.5940 C   0  0  0  0  0  0  0  0  0  0  0  0
    4.2667  -14.4924  -18.3506 C   0  0  0  0  0  0  0  0  0  0  0  0
    3.2697  -13.9547  -19.1634 C   0  0  0  0  0  0  0  0  0  0  0  0
    2.7440  -14.7040  -20.2215 C   0  0  0  0  0  0  0  0  0  0  0  0
    3.2075  -15.9991  -20.4670 C   0  0  0  0  0  0  0  0  0  0  0  0
 36 37  1  0  0  0
 36 41  2  0  0  0
 37 38  2  0  0  0
 38 39  1  0  0  0
 39 40  2  0  0  0
 40 41  1  0  0  0
 41 35  1  0  0  0
 35  1  1  0  0  0
  1  4  1  0  0  0
  1 17  1  0  0  0
  4  2  1  0  0  0
  2  3  2  0  0  0
  2  6  1  0  0  0
  6 12  1  0  0  0
  6 10  1  0  0  0
 12 13  1  0  0  0
 13 14  1  0  0  0
 13 15  2  0  0  0
 10  7  1  0  0  0
  7  8  1  0  0  0
  7  9  2  0  0  0
 17 18  1  0  0  0
 17 19  2  0  0  0
 17 21  1  0  0  0
 21 22  1  0  0  0
 22 23  1  0  0  0
 22 24  1  0  0  0
 24 25  2  0  0  0
 24 26  1  0  0  0
 26 28  1  0  0  0
 28 29  1  0  0  0
 28 30  1  0  0  0
 30 31  2  0  0  0
 30 32  1  0  0  0
 14 16  1  0  0  0
 10 11  1  0  0  0
 18 20  1  0  0  0
  4  5  1  0  0  0
 26 27  1  0  0  0
 32 33  1  0  0  0
 32 34  1  0  0  0
M  END
> <minimizedAffinity>
-8.26952

$$$$
3NXQ_RX4_A_700


 41 41  0  0  0  0  0  0  0  0999 V2000
    2.2779  -15.8901  -22.7062 C   0  0  0  0  0  0  0  0  0  0  0  0
   -0.1304  -16.0079  -22.4681 C   0  0  0  0  0  0  0  0  0  0  0  0
   -0.1847  -14.8935  -21.9817 O   0  0  0  0  0  0  0  0  0  0  0  0
    1.0081  -16.5901  -22.8660 N   0  0  0  0  0  0  0  0  0  0  0  0
    0.9881  -17.4896  -23.2659 H   0  0  0  0  0  0  0  0  0  0  0  0
   -1.4111  -16.7640  -22.6130 C   0  0  0  0  0  0  0  0  0  0  0  0
   -3.3092  -15.3358  -23.3146 C   0  0  0  0  0  0  0  0  0  0  0  0
   -3.7272  -15.2196  -21.8772 C   0  0  0  0  0  0  0  0  0  0  0  0
   -3.9353  -14.7722  -24.2041 O   0  0  0  0  0  0  0  0  0  0  0  0
   -2.2340  -16.0767  -23.5998 N   0  0  0  0  0  0  0  0  0  0  0  0
   -1.9792  -16.1647  -24.5467 H   0  0  0  0  0  0  0  0  0  0  0  0
   -1.1702  -18.1481  -23.1931 C   0  0  0  0  0  0  0  0  0  0  0  0
   -2.4793  -18.8997  -23.1362 C   0  0  0  0  0  0  0  0  0  0  0  0
   -2.7436  -19.6728  -24.0796 O   0  0  0  0  0  0  0  0  0  0  0  0
   -3.2420  -18.7346  -22.1545 O   0  0  0  0  0  0  0  0  0  0  0  0
   -2.1429  -19.7641  -24.7928 H   0  0  0  0  0  0  0  0  0  0  0  0
    3.1113  -15.6679  -24.3094 P   0  0  0  0  0  0  0  0  0  0  0  0
    2.3144  -14.6332  -25.0554 O   0  0  0  0  0  0  0  0  0  0  0  0
    3.2900  -17.0018  -24.9984 O   0  0  0  0  0  0  0  0  0  0  0  0
    1.4436  -14.9963  -25.2807 H   0  0  0  0  0  0  0  0  0  0  0  0
    4.7260  -14.9621  -23.9046 C   0  0  0  0  0  0  0  0  0  0  0  0
    4.6117  -13.6446  -23.1408 C   0  0  0  0  0  0  0  0  0  0  0  0
    5.8470  -13.4853  -22.2557 C   0  0  0  0  0  0  0  0  0  0  0  0
    4.5973  -12.4803  -24.0934 C   0  0  0  0  0  0  0  0  0  0  0  0
    4.4129  -11.3391  -23.6805 O   0  0  0  0  0  0  0  0  0  0  0  0
    4.7666  -12.7862  -25.3846 N   0  0  0  0  0  0  0  0  0  0  0  0
    4.9216  -13.7287  -25.6231 H   0  0  0  0  0  0  0  0  0  0  0  0
    4.7341  -11.8013  -26.4564 C   0  0  0  0  0  0  0  0  0  0  0  0
    5.7611  -12.1645  -27.5319 C   0  0  0  0  0  0  0  0  0  0  0  0
    3.3639  -11.8149  -27.0706 C   0  0  0  0  0  0  0  0  0  0  0  0
    2.8238  -12.8873  -27.3196 O   0  0  0  0  0  0  0  0  0  0  0  0
    2.7813  -10.6524  -27.3149 N   0  0  0  0  0  0  0  0  0  0  0  0
    3.2486   -9.8128  -27.1004 H   0  0  0  0  0  0  0  0  0  0  0  0
    1.8804  -10.6269  -27.7112 H   0  0  0  0  0  0  0  0  0  0  0  0
    3.1159  -16.7308  -21.7280 C   0  0  0  0  0  0  0  0  0  0  0  0
    4.4786  -16.3859  -19.6265 C   0  0  0  0  0  0  0  0  0  0  0  0
    4.8118  -15.6470  -18.4831 C   0  0  0  0  0  0  0  0  0  0  0  0
    4.1514  -14.4487  -18.2034 C   0  0  0  0  0  0  0  0  0  0  0  0
    3.1561  -13.9915  -19.0660 C   0  0  0  0  0  0  0  0  0  0  0  0
    2.8240  -14.7259  -20.2096 C   0  0  0  0  0  0  0  0  0  0  0  0
    3.4807  -15.9265  -20.4919 C   0  0  0  0  0  0  0  0  0  0  0  0
 36 37  1  0  0  0
 36 41  2  0  0  0
 37 38  2  0  0  0
 38 39  1  0  0  0
 39 40  2  0  0  0
 40 41  1  0  0  0
 41 35  1  0  0  0
 35  1  1  0  0  0
  1  4  1  0  0  0
  1 17  1  0  0  0
  4  2  1  0  0  0
  2  3  2  0  0  0
  2  6  1  0  0  0
  6 12  1  0  0  0
  6 10  1  0  0  0
 12 13  1  0  0  0
 13 14  1  0  0  0
 13 15  2  0  0  0
 10  7  1  0  0  0
  7  8  1  0  0  0
  7  9  2  0  0  0
 17 18  1  0  0  0
 17 19  2  0  0  0
 17 21  1  0  0  0
 21 22  1  0  0  0
 22 23  1  0  0  0
 22 24  1  0  0  0
 24 25  2  0  0  0
 24 26  1  0  0  0
 26 28  1  0  0  0
 28 29  1  0  0  0
 28 30  1  0  0  0
 30 31  2  0  0  0
 30 32  1  0  0  0
 14 16  1  0  0  0
 10 11  1  0  0  0
 18 20  1  0  0  0
  4  5  1  0  0  0
 26 27  1  0  0  0
 32 33  1  0  0  0
 32 34  1  0  0  0
M  END
> <minimizedAffinity>
-8.25943

$$$$
3NXQ_RX4_A_700


 41 41  0  0  0  0  0  0  0  0999 V2000
   -8.1182  -15.9721  -23.8836 C   0  0  0  0  0  0  0  0  0  0  0  0
   -8.6414  -18.3341  -23.7510 C   0  0  0  0  0  0  0  0  0  0  0  0
   -7.5721  -18.6473  -24.2409 O   0  0  0  0  0  0  0  0  0  0  0  0
   -9.0110  -17.0675  -23.5218 N   0  0  0  0  0  0  0  0  0  0  0  0
   -9.8843  -16.8759  -23.1095 H   0  0  0  0  0  0  0  0  0  0  0  0
   -9.5919  -19.4328  -23.4015 C   0  0  0  0  0  0  0  0  0  0  0  0
  -10.3216  -20.4032  -25.5604 C   0  0  0  0  0  0  0  0  0  0  0  0
  -11.3284  -19.2975  -25.6943 C   0  0  0  0  0  0  0  0  0  0  0  0
  -10.2090  -21.2656  -26.4230 O   0  0  0  0  0  0  0  0  0  0  0  0
   -9.5509  -20.4242  -24.4686 N   0  0  0  0  0  0  0  0  0  0  0  0
   -8.9079  -21.1643  -24.3787 H   0  0  0  0  0  0  0  0  0  0  0  0
   -9.1404  -20.1747  -22.1541 C   0  0  0  0  0  0  0  0  0  0  0  0
   -9.3515  -21.6500  -22.4003 C   0  0  0  0  0  0  0  0  0  0  0  0
   -8.3542  -22.3328  -22.7112 O   0  0  0  0  0  0  0  0  0  0  0  0
  -10.5006  -22.1368  -22.2764 O   0  0  0  0  0  0  0  0  0  0  0  0
   -7.5143  -21.9255  -22.7923 H   0  0  0  0  0  0  0  0  0  0  0  0
   -7.5654  -15.0609  -22.4076 P   0  0  0  0  0  0  0  0  0  0  0  0
   -7.5937  -16.0470  -21.2722 O   0  0  0  0  0  0  0  0  0  0  0  0
   -8.3881  -13.8055  -22.2261 O   0  0  0  0  0  0  0  0  0  0  0  0
   -8.5123  -16.2914  -21.0790 H   0  0  0  0  0  0  0  0  0  0  0  0
   -5.8427  -14.6259  -22.7430 C   0  0  0  0  0  0  0  0  0  0  0  0
   -5.1645  -15.6160  -23.6874 C   0  0  0  0  0  0  0  0  0  0  0  0
   -4.0767  -14.8790  -24.4673 C   0  0  0  0  0  0  0  0  0  0  0  0
   -4.4860  -16.7100  -22.9089 C   0  0  0  0  0  0  0  0  0  0  0  0
   -3.3141  -16.5940  -22.5624 O   0  0  0  0  0  0  0  0  0  0  0  0
   -5.2316  -17.7926  -22.6611 N   0  0  0  0  0  0  0  0  0  0  0  0
   -6.1677  -17.7927  -22.9659 H   0  0  0  0  0  0  0  0  0  0  0  0
   -4.7342  -18.9709  -21.9653 C   0  0  0  0  0  0  0  0  0  0  0  0
   -5.6977  -19.3603  -20.8412 C   0  0  0  0  0  0  0  0  0  0  0  0
   -4.6539  -20.1029  -22.9486 C   0  0  0  0  0  0  0  0  0  0  0  0
   -3.6477  -20.2352  -23.6369 O   0  0  0  0  0  0  0  0  0  0  0  0
   -5.6835  -20.9299  -23.0290 N   0  0  0  0  0  0  0  0  0  0  0  0
   -6.4736  -20.7893  -22.4586 H   0  0  0  0  0  0  0  0  0  0  0  0
   -5.6596  -21.6859  -23.6592 H   0  0  0  0  0  0  0  0  0  0  0  0
   -8.9029  -15.0773  -24.8579 C   0  0  0  0  0  0  0  0  0  0  0  0
   -7.9455  -12.9238  -25.7731 C   0  0  0  0  0  0  0  0  0  0  0  0
   -7.0825  -12.2264  -26.6294 C   0  0  0  0  0  0  0  0  0  0  0  0
   -6.2353  -12.9234  -27.4936 C   0  0  0  0  0  0  0  0  0  0  0  0
   -6.2537  -14.3175  -27.5028 C   0  0  0  0  0  0  0  0  0  0  0  0
   -7.1122  -15.0156  -26.6467 C   0  0  0  0  0  0  0  0  0  0  0  0
   -7.9631  -14.3221  -25.7821 C   0  0  0  0  0  0  0  0  0  0  0  0
 36 37  1  0  0  0
 36 41  2  0  0  0
 37 38  2  0  0  0
 38 39  1  0  0  0
 39 40  2  0  0  0
 40 41  1  0  0  0
 41 35  1  0  0  0
 35  1  1  0  0  0
  1  4  1  0  0  0
  1 17  1  0  0  0
  4  2  1  0  0  0
  2  3  2  0  0  0
  2  6  1  0  0  0
  6 12  1  0  0  0
  6 10  1  0  0  0
 12 13  1  0  0  0
 13 14  1  0  0  0
 13 15  2  0  0  0
 10  7  1  0  0  0
  7  8  1  0  0  0
  7  9  2  0  0  0
 17 18  1  0  0  0
 17 19  2  0  0  0
 17 21  1  0  0  0
 21 22  1  0  0  0
 22 23  1  0  0  0
 22 24  1  0  0  0
 24 25  2  0  0  0
 24 26  1  0  0  0
 26 28  1  0  0  0
 28 29  1  0  0  0
 28 30  1  0  0  0
 30 31  2  0  0  0
 30 32  1  0  0  0
 14 16  1  0  0  0
 10 11  1  0  0  0
 18 20  1  0  0  0
  4  5  1  0  0  0
 26 27  1  0  0  0
 32 33  1  0  0  0
 32 34  1  0  0  0
M  END
> <minimizedAffinity>
-8.19452

$$$$
3NXQ_RX4_A_700


 41 41  0  0  0  0  0  0  0  0999 V2000
   -7.0514  -17.0916  -24.7483 C   0  0  0  0  0  0  0  0  0  0  0  0
   -6.6613  -18.8268  -23.1029 C   0  0  0  0  0  0  0  0  0  0  0  0
   -5.4545  -18.7570  -23.2454 O   0  0  0  0  0  0  0  0  0  0  0  0
   -7.5337  -18.0616  -23.7713 N   0  0  0  0  0  0  0  0  0  0  0  0
   -8.4994  -18.1536  -23.6035 H   0  0  0  0  0  0  0  0  0  0  0  0
   -7.1875  -19.8353  -22.1339 C   0  0  0  0  0  0  0  0  0  0  0  0
   -8.6814  -21.6327  -22.9538 C   0  0  0  0  0  0  0  0  0  0  0  0
   -9.8236  -20.9905  -22.2208 C   0  0  0  0  0  0  0  0  0  0  0  0
   -8.8442  -22.6540  -23.6104 O   0  0  0  0  0  0  0  0  0  0  0  0
   -7.4765  -21.0607  -22.8674 N   0  0  0  0  0  0  0  0  0  0  0  0
   -6.7290  -21.4998  -23.3339 H   0  0  0  0  0  0  0  0  0  0  0  0
   -6.1287  -20.2240  -21.1150 C   0  0  0  0  0  0  0  0  0  0  0  0
   -5.5745  -21.5681  -21.5246 C   0  0  0  0  0  0  0  0  0  0  0  0
   -4.6446  -21.5809  -22.3569 O   0  0  0  0  0  0  0  0  0  0  0  0
   -6.0503  -22.6112  -21.0164 O   0  0  0  0  0  0  0  0  0  0  0  0
   -4.3209  -20.7756  -22.7101 H   0  0  0  0  0  0  0  0  0  0  0  0
   -7.5774  -15.4040  -24.3127 P   0  0  0  0  0  0  0  0  0  0  0  0
   -8.3430  -15.5240  -23.0236 O   0  0  0  0  0  0  0  0  0  0  0  0
   -8.3104  -14.7663  -25.4711 O   0  0  0  0  0  0  0  0  0  0  0  0
   -9.1704  -16.0048  -23.1824 H   0  0  0  0  0  0  0  0  0  0  0  0
   -6.0435  -14.5050  -23.9839 C   0  0  0  0  0  0  0  0  0  0  0  0
   -4.8066  -15.2752  -24.4414 C   0  0  0  0  0  0  0  0  0  0  0  0
   -3.9913  -14.3794  -25.3728 C   0  0  0  0  0  0  0  0  0  0  0  0
   -3.9270  -15.6091  -23.2675 C   0  0  0  0  0  0  0  0  0  0  0  0
   -3.9867  -14.9472  -22.2354 O   0  0  0  0  0  0  0  0  0  0  0  0
   -3.0844  -16.6322  -23.4477 N   0  0  0  0  0  0  0  0  0  0  0  0
   -3.1153  -17.1151  -24.3051 H   0  0  0  0  0  0  0  0  0  0  0  0
   -2.1241  -17.0708  -22.4450 C   0  0  0  0  0  0  0  0  0  0  0  0
   -2.1330  -18.5983  -22.3448 C   0  0  0  0  0  0  0  0  0  0  0  0
   -0.7561  -16.6210  -22.8707 C   0  0  0  0  0  0  0  0  0  0  0  0
   -0.3113  -15.5584  -22.4502 O   0  0  0  0  0  0  0  0  0  0  0  0
   -0.0713  -17.4041  -23.6882 N   0  0  0  0  0  0  0  0  0  0  0  0
   -0.4641  -18.2499  -24.0036 H   0  0  0  0  0  0  0  0  0  0  0  0
    0.8310  -17.1410  -23.9810 H   0  0  0  0  0  0  0  0  0  0  0  0
   -7.6051  -17.5383  -26.1120 C   0  0  0  0  0  0  0  0  0  0  0  0
  -10.1119  -17.4428  -25.7972 C   0  0  0  0  0  0  0  0  0  0  0  0
  -11.3583  -18.0662  -25.6486 C   0  0  0  0  0  0  0  0  0  0  0  0
  -11.4533  -19.4594  -25.6610 C   0  0  0  0  0  0  0  0  0  0  0  0
  -10.3012  -20.2284  -25.8193 C   0  0  0  0  0  0  0  0  0  0  0  0
   -9.0564  -19.6081  -25.9710 C   0  0  0  0  0  0  0  0  0  0  0  0
   -8.9566  -18.2145  -25.9567 C   0  0  0  0  0  0  0  0  0  0  0  0
 36 37  1  0  0  0
 36 41  2  0  0  0
 37 38  2  0  0  0
 38 39  1  0  0  0
 39 40  2  0  0  0
 40 41  1  0  0  0
 41 35  1  0  0  0
 35  1  1  0  0  0
  1  4  1  0  0  0
  1 17  1  0  0  0
  4  2  1  0  0  0
  2  3  2  0  0  0
  2  6  1  0  0  0
  6 12  1  0  0  0
  6 10  1  0  0  0
 12 13  1  0  0  0
 13 14  1  0  0  0
 13 15  2  0  0  0
 10  7  1  0  0  0
  7  8  1  0  0  0
  7  9  2  0  0  0
 17 18  1  0  0  0
 17 19  2  0  0  0
 17 21  1  0  0  0
 21 22  1  0  0  0
 22 23  1  0  0  0
 22 24  1  0  0  0
 24 25  2  0  0  0
 24 26  1  0  0  0
 26 28  1  0  0  0
 28 29  1  0  0  0
 28 30  1  0  0  0
 30 31  2  0  0  0
 30 32  1  0  0  0
 14 16  1  0  0  0
 10 11  1  0  0  0
 18 20  1  0  0  0
  4  5  1  0  0  0
 26 27  1  0  0  0
 32 33  1  0  0  0
 32 34  1  0  0  0
M  END
> <minimizedAffinity>
-8.18348

$$$$
3NXQ_RX4_A_700


 41 41  0  0  0  0  0  0  0  0999 V2000
   -8.5817  -19.8894  -23.9359 C   0  0  0  0  0  0  0  0  0  0  0  0
   -6.8891  -18.3439  -23.1501 C   0  0  0  0  0  0  0  0  0  0  0  0
   -7.7201  -17.6270  -22.6238 O   0  0  0  0  0  0  0  0  0  0  0  0
   -7.1899  -19.4722  -23.8060 N   0  0  0  0  0  0  0  0  0  0  0  0
   -6.4725  -20.0194  -24.1999 H   0  0  0  0  0  0  0  0  0  0  0  0
   -5.4575  -17.9247  -23.0636 C   0  0  0  0  0  0  0  0  0  0  0  0
   -4.7967  -16.0988  -21.5261 C   0  0  0  0  0  0  0  0  0  0  0  0
   -4.4795  -15.2390  -22.7154 C   0  0  0  0  0  0  0  0  0  0  0  0
   -4.6559  -15.6779  -20.3843 O   0  0  0  0  0  0  0  0  0  0  0  0
   -5.2346  -17.3422  -21.7468 N   0  0  0  0  0  0  0  0  0  0  0  0
   -5.4202  -17.9062  -20.9615 H   0  0  0  0  0  0  0  0  0  0  0  0
   -4.5278  -19.1255  -23.1281 C   0  0  0  0  0  0  0  0  0  0  0  0
   -4.3936  -19.6730  -21.7267 C   0  0  0  0  0  0  0  0  0  0  0  0
   -3.3908  -19.3325  -21.0664 O   0  0  0  0  0  0  0  0  0  0  0  0
   -5.2840  -20.4311  -21.2738 O   0  0  0  0  0  0  0  0  0  0  0  0
   -2.7506  -18.7636  -21.4466 H   0  0  0  0  0  0  0  0  0  0  0  0
   -8.8358  -21.5530  -23.2415 P   0  0  0  0  0  0  0  0  0  0  0  0
   -7.6718  -21.8053  -22.3230 O   0  0  0  0  0  0  0  0  0  0  0  0
   -9.0454  -22.5591  -24.3504 O   0  0  0  0  0  0  0  0  0  0  0  0
   -6.8580  -21.8801  -22.8455 H   0  0  0  0  0  0  0  0  0  0  0  0
  -10.3350  -21.4188  -22.2395 C   0  0  0  0  0  0  0  0  0  0  0  0
  -11.0070  -20.0542  -22.3754 C   0  0  0  0  0  0  0  0  0  0  0  0
  -12.4684  -20.2673  -22.7673 C   0  0  0  0  0  0  0  0  0  0  0  0
  -11.0040  -19.3293  -21.0572 C   0  0  0  0  0  0  0  0  0  0  0  0
  -12.0434  -19.1921  -20.4187 O   0  0  0  0  0  0  0  0  0  0  0  0
   -9.8217  -18.8391  -20.6685 N   0  0  0  0  0  0  0  0  0  0  0  0
   -9.0373  -19.0090  -21.2386 H   0  0  0  0  0  0  0  0  0  0  0  0
   -9.6316  -18.0679  -19.4482 C   0  0  0  0  0  0  0  0  0  0  0  0
   -9.1683  -18.9871  -18.3152 C   0  0  0  0  0  0  0  0  0  0  0  0
   -8.5697  -17.0365  -19.7005 C   0  0  0  0  0  0  0  0  0  0  0  0
   -7.4222  -17.2457  -19.3221 O   0  0  0  0  0  0  0  0  0  0  0  0
   -8.9172  -15.9303  -20.3376 N   0  0  0  0  0  0  0  0  0  0  0  0
   -9.8497  -15.8001  -20.6252 H   0  0  0  0  0  0  0  0  0  0  0  0
   -8.2432  -15.2373  -20.5242 H   0  0  0  0  0  0  0  0  0  0  0  0
   -8.9134  -19.8300  -25.4366 C   0  0  0  0  0  0  0  0  0  0  0  0
  -11.2228  -18.9610  -25.9879 C   0  0  0  0  0  0  0  0  0  0  0  0
  -12.1078  -17.9119  -26.2715 C   0  0  0  0  0  0  0  0  0  0  0  0
  -11.6478  -16.5937  -26.3041 C   0  0  0  0  0  0  0  0  0  0  0  0
  -10.3023  -16.3258  -26.0559 C   0  0  0  0  0  0  0  0  0  0  0  0
   -9.4177  -17.3713  -25.7696 C   0  0  0  0  0  0  0  0  0  0  0  0
   -9.8733  -18.6918  -25.7382 C   0  0  0  0  0  0  0  0  0  0  0  0
 36 37  1  0  0  0
 36 41  2  0  0  0
 37 38  2  0  0  0
 38 39  1  0  0  0
 39 40  2  0  0  0
 40 41  1  0  0  0
 41 35  1  0  0  0
 35  1  1  0  0  0
  1  4  1  0  0  0
  1 17  1  0  0  0
  4  2  1  0  0  0
  2  3  2  0  0  0
  2  6  1  0  0  0
  6 12  1  0  0  0
  6 10  1  0  0  0
 12 13  1  0  0  0
 13 14  1  0  0  0
 13 15  2  0  0  0
 10  7  1  0  0  0
  7  8  1  0  0  0
  7  9  2  0  0  0
 17 18  1  0  0  0
 17 19  2  0  0  0
 17 21  1  0  0  0
 21 22  1  0  0  0
 22 23  1  0  0  0
 22 24  1  0  0  0
 24 25  2  0  0  0
 24 26  1  0  0  0
 26 28  1  0  0  0
 28 29  1  0  0  0
 28 30  1  0  0  0
 30 31  2  0  0  0
 30 32  1  0  0  0
 14 16  1  0  0  0
 10 11  1  0  0  0
 18 20  1  0  0  0
  4  5  1  0  0  0
 26 27  1  0  0  0
 32 33  1  0  0  0
 32 34  1  0  0  0
M  END
> <minimizedAffinity>
-7.81979

$$$$
3NXQ_RX4_A_700


 41 41  0  0  0  0  0  0  0  0999 V2000
   -8.9507  -14.6243  -25.0984 C   0  0  0  0  0  0  0  0  0  0  0  0
  -10.7316  -13.0094  -24.7969 C   0  0  0  0  0  0  0  0  0  0  0  0
  -10.8934  -13.3334  -23.6349 O   0  0  0  0  0  0  0  0  0  0  0  0
   -9.8125  -13.5598  -25.6005 N   0  0  0  0  0  0  0  0  0  0  0  0
   -9.7186  -13.2465  -26.5291 H   0  0  0  0  0  0  0  0  0  0  0  0
  -11.6229  -11.9453  -25.3503 C   0  0  0  0  0  0  0  0  0  0  0  0
  -11.3285   -9.8050  -24.1390 C   0  0  0  0  0  0  0  0  0  0  0  0
  -12.4649  -10.1839  -23.2337 C   0  0  0  0  0  0  0  0  0  0  0  0
  -10.7293   -8.7463  -23.9946 O   0  0  0  0  0  0  0  0  0  0  0  0
  -10.9891  -10.6548  -25.1132 N   0  0  0  0  0  0  0  0  0  0  0  0
  -10.2568  -10.3891  -25.7152 H   0  0  0  0  0  0  0  0  0  0  0  0
  -11.7404  -12.0571  -26.8615 C   0  0  0  0  0  0  0  0  0  0  0  0
  -10.9915  -10.8917  -27.4639 C   0  0  0  0  0  0  0  0  0  0  0  0
   -9.7551  -11.0030  -27.5918 O   0  0  0  0  0  0  0  0  0  0  0  0
  -11.6257   -9.8704  -27.8206 O   0  0  0  0  0  0  0  0  0  0  0  0
   -9.3235  -11.7857  -27.3106 H   0  0  0  0  0  0  0  0  0  0  0  0
   -7.4166  -13.9474  -24.3894 P   0  0  0  0  0  0  0  0  0  0  0  0
   -7.8011  -13.3290  -23.0733 O   0  0  0  0  0  0  0  0  0  0  0  0
   -6.7349  -13.0360  -25.3847 O   0  0  0  0  0  0  0  0  0  0  0  0
   -8.3606  -12.5527  -23.2319 H   0  0  0  0  0  0  0  0  0  0  0  0
   -6.3761  -15.3890  -24.0604 C   0  0  0  0  0  0  0  0  0  0  0  0
   -6.5409  -15.9143  -22.6360 C   0  0  0  0  0  0  0  0  0  0  0  0
   -7.8098  -16.7633  -22.5731 C   0  0  0  0  0  0  0  0  0  0  0  0
   -5.3906  -16.8106  -22.2661 C   0  0  0  0  0  0  0  0  0  0  0  0
   -4.2570  -16.3543  -22.1498 O   0  0  0  0  0  0  0  0  0  0  0  0
   -5.6917  -18.1045  -22.1096 N   0  0  0  0  0  0  0  0  0  0  0  0
   -6.6319  -18.3789  -22.2093 H   0  0  0  0  0  0  0  0  0  0  0  0
   -4.7047  -19.1291  -21.7997 C   0  0  0  0  0  0  0  0  0  0  0  0
   -5.2758  -20.1128  -20.7752 C   0  0  0  0  0  0  0  0  0  0  0  0
   -4.3850  -19.8760  -23.0626 C   0  0  0  0  0  0  0  0  0  0  0  0
   -3.9167  -19.2705  -24.0207 O   0  0  0  0  0  0  0  0  0  0  0  0
   -4.6168  -21.1783  -23.0896 N   0  0  0  0  0  0  0  0  0  0  0  0
   -4.9939  -21.6276  -22.2990 H   0  0  0  0  0  0  0  0  0  0  0  0
   -4.4121  -21.6980  -23.9003 H   0  0  0  0  0  0  0  0  0  0  0  0
   -8.6769  -15.5582  -26.2894 C   0  0  0  0  0  0  0  0  0  0  0  0
   -8.4904  -18.0554  -25.9407 C   0  0  0  0  0  0  0  0  0  0  0  0
   -9.0678  -19.3166  -25.7403 C   0  0  0  0  0  0  0  0  0  0  0  0
  -10.4558  -19.4500  -25.6631 C   0  0  0  0  0  0  0  0  0  0  0  0
  -11.2657  -18.3222  -25.7892 C   0  0  0  0  0  0  0  0  0  0  0  0
  -10.6913  -17.0618  -25.9862 C   0  0  0  0  0  0  0  0  0  0  0  0
   -9.3031  -16.9242  -26.0664 C   0  0  0  0  0  0  0  0  0  0  0  0
 36 37  1  0  0  0
 36 41  2  0  0  0
 37 38  2  0  0  0
 38 39  1  0  0  0
 39 40  2  0  0  0
 40 41  1  0  0  0
 41 35  1  0  0  0
 35  1  1  0  0  0
  1  4  1  0  0  0
  1 17  1  0  0  0
  4  2  1  0  0  0
  2  3  2  0  0  0
  2  6  1  0  0  0
  6 12  1  0  0  0
  6 10  1  0  0  0
 12 13  1  0  0  0
 13 14  1  0  0  0
 13 15  2  0  0  0
 10  7  1  0  0  0
  7  8  1  0  0  0
  7  9  2  0  0  0
 17 18  1  0  0  0
 17 19  2  0  0  0
 17 21  1  0  0  0
 21 22  1  0  0  0
 22 23  1  0  0  0
 22 24  1  0  0  0
 24 25  2  0  0  0
 24 26  1  0  0  0
 26 28  1  0  0  0
 28 29  1  0  0  0
 28 30  1  0  0  0
 30 31  2  0  0  0
 30 32  1  0  0  0
 14 16  1  0  0  0
 10 11  1  0  0  0
 18 20  1  0  0  0
  4  5  1  0  0  0
 26 27  1  0  0  0
 32 33  1  0  0  0
 32 34  1  0  0  0
M  END
> <minimizedAffinity>
-7.64872

$$$$
3NXQ_RX4_A_700


 41 41  0  0  0  0  0  0  0  0999 V2000
   -7.7382  -16.1047  -24.3625 C   0  0  0  0  0  0  0  0  0  0  0  0
   -8.6785  -16.7662  -22.2297 C   0  0  0  0  0  0  0  0  0  0  0  0
   -7.8509  -17.6467  -22.0839 O   0  0  0  0  0  0  0  0  0  0  0  0
   -8.7154  -15.9496  -23.2905 N   0  0  0  0  0  0  0  0  0  0  0  0
   -9.4011  -15.2455  -23.3469 H   0  0  0  0  0  0  0  0  0  0  0  0
   -9.7140  -16.6050  -21.1645 C   0  0  0  0  0  0  0  0  0  0  0  0
   -8.9694  -16.9875  -18.8334 C   0  0  0  0  0  0  0  0  0  0  0  0
   -9.6591  -18.3210  -18.8529 C   0  0  0  0  0  0  0  0  0  0  0  0
   -8.3624  -16.6025  -17.8413 O   0  0  0  0  0  0  0  0  0  0  0  0
   -9.0390  -16.2263  -19.9299 N   0  0  0  0  0  0  0  0  0  0  0  0
   -8.6018  -15.3447  -19.9013 H   0  0  0  0  0  0  0  0  0  0  0  0
  -10.6483  -15.4473  -21.4761 C   0  0  0  0  0  0  0  0  0  0  0  0
  -10.0002  -14.1863  -20.9551 C   0  0  0  0  0  0  0  0  0  0  0  0
  -10.3726  -13.7622  -19.8419 O   0  0  0  0  0  0  0  0  0  0  0  0
   -9.1155  -13.6202  -21.6402 O   0  0  0  0  0  0  0  0  0  0  0  0
  -11.0377  -14.2188  -19.3653 H   0  0  0  0  0  0  0  0  0  0  0  0
   -6.5267  -14.7459  -24.3480 P   0  0  0  0  0  0  0  0  0  0  0  0
   -7.3067  -13.4929  -24.0584 O   0  0  0  0  0  0  0  0  0  0  0  0
   -5.7157  -14.7511  -25.6241 O   0  0  0  0  0  0  0  0  0  0  0  0
   -7.8887  -13.2937  -24.8084 H   0  0  0  0  0  0  0  0  0  0  0  0
   -5.4534  -15.0898  -22.9342 C   0  0  0  0  0  0  0  0  0  0  0  0
   -4.1962  -15.8610  -23.3303 C   0  0  0  0  0  0  0  0  0  0  0  0
   -2.9922  -14.9286  -23.2046 C   0  0  0  0  0  0  0  0  0  0  0  0
   -3.9636  -17.0125  -22.3905 C   0  0  0  0  0  0  0  0  0  0  0  0
   -3.1257  -16.9288  -21.4973 O   0  0  0  0  0  0  0  0  0  0  0  0
   -4.6992  -18.1057  -22.6207 N   0  0  0  0  0  0  0  0  0  0  0  0
   -5.3575  -18.0782  -23.3522 H   0  0  0  0  0  0  0  0  0  0  0  0
   -4.5796  -19.3341  -21.8483 C   0  0  0  0  0  0  0  0  0  0  0  0
   -5.3636  -19.2078  -20.5396 C   0  0  0  0  0  0  0  0  0  0  0  0
   -5.1613  -20.4592  -22.6550 C   0  0  0  0  0  0  0  0  0  0  0  0
   -4.4453  -21.3978  -22.9872 O   0  0  0  0  0  0  0  0  0  0  0  0
   -6.4440  -20.3969  -22.9732 N   0  0  0  0  0  0  0  0  0  0  0  0
   -6.9851  -19.6257  -22.6873 H   0  0  0  0  0  0  0  0  0  0  0  0
   -6.8573  -21.1216  -23.4959 H   0  0  0  0  0  0  0  0  0  0  0  0
   -8.5390  -16.1544  -25.6748 C   0  0  0  0  0  0  0  0  0  0  0  0
   -8.6490  -18.6793  -25.7465 C   0  0  0  0  0  0  0  0  0  0  0  0
   -9.3681  -19.8772  -25.8567 C   0  0  0  0  0  0  0  0  0  0  0  0
  -10.7563  -19.8525  -26.0067 C   0  0  0  0  0  0  0  0  0  0  0  0
  -11.4243  -18.6295  -26.0492 C   0  0  0  0  0  0  0  0  0  0  0  0
  -10.7089  -17.4325  -25.9363 C   0  0  0  0  0  0  0  0  0  0  0  0
   -9.3195  -17.4527  -25.7884 C   0  0  0  0  0  0  0  0  0  0  0  0
 36 37  1  0  0  0
 36 41  2  0  0  0
 37 38  2  0  0  0
 38 39  1  0  0  0
 39 40  2  0  0  0
 40 41  1  0  0  0
 41 35  1  0  0  0
 35  1  1  0  0  0
  1  4  1  0  0  0
  1 17  1  0  0  0
  4  2  1  0  0  0
  2  3  2  0  0  0
  2  6  1  0  0  0
  6 12  1  0  0  0
  6 10  1  0  0  0
 12 13  1  0  0  0
 13 14  1  0  0  0
 13 15  2  0  0  0
 10  7  1  0  0  0
  7  8  1  0  0  0
  7  9  2  0  0  0
 17 18  1  0  0  0
 17 19  2  0  0  0
 17 21  1  0  0  0
 21 22  1  0  0  0
 22 23  1  0  0  0
 22 24  1  0  0  0
 24 25  2  0  0  0
 24 26  1  0  0  0
 26 28  1  0  0  0
 28 29  1  0  0  0
 28 30  1  0  0  0
 30 31  2  0  0  0
 30 32  1  0  0  0
 14 16  1  0  0  0
 10 11  1  0  0  0
 18 20  1  0  0  0
  4  5  1  0  0  0
 26 27  1  0  0  0
 32 33  1  0  0  0
 32 34  1  0  0  0
M  END
> <minimizedAffinity>
-7.62853

$$$$
3NXQ_RX4_A_700


 41 41  0  0  0  0  0  0  0  0999 V2000
   -7.4819  -17.6169  -24.0526 C   0  0  0  0  0  0  0  0  0  0  0  0
   -5.2584  -18.2248  -23.3062 C   0  0  0  0  0  0  0  0  0  0  0  0
   -4.9577  -18.6604  -24.4023 O   0  0  0  0  0  0  0  0  0  0  0  0
   -6.4512  -17.6860  -23.0226 N   0  0  0  0  0  0  0  0  0  0  0  0
   -6.6322  -17.3370  -22.1200 H   0  0  0  0  0  0  0  0  0  0  0  0
   -4.2351  -18.3130  -22.2209 C   0  0  0  0  0  0  0  0  0  0  0  0
   -2.2057  -16.9504  -22.6201 C   0  0  0  0  0  0  0  0  0  0  0  0
   -1.4938  -18.1850  -23.0925 C   0  0  0  0  0  0  0  0  0  0  0  0
   -1.6430  -15.8623  -22.6021 O   0  0  0  0  0  0  0  0  0  0  0  0
   -3.4734  -17.0708  -22.2142 N   0  0  0  0  0  0  0  0  0  0  0  0
   -3.9260  -16.2603  -21.8863 H   0  0  0  0  0  0  0  0  0  0  0  0
   -4.8905  -18.3831  -20.8513 C   0  0  0  0  0  0  0  0  0  0  0  0
   -4.7098  -17.0367  -20.1907 C   0  0  0  0  0  0  0  0  0  0  0  0
   -5.4898  -16.1206  -20.5224 O   0  0  0  0  0  0  0  0  0  0  0  0
   -3.8043  -16.8865  -19.3363 O   0  0  0  0  0  0  0  0  0  0  0  0
   -6.1520  -16.2792  -21.1661 H   0  0  0  0  0  0  0  0  0  0  0  0
   -7.5561  -15.9572  -24.7968 P   0  0  0  0  0  0  0  0  0  0  0  0
   -7.2487  -16.1395  -26.2578 O   0  0  0  0  0  0  0  0  0  0  0  0
   -6.6641  -15.0006  -24.0382 O   0  0  0  0  0  0  0  0  0  0  0  0
   -6.3240  -16.4133  -26.3620 H   0  0  0  0  0  0  0  0  0  0  0  0
   -9.2836  -15.4480  -24.6361 C   0  0  0  0  0  0  0  0  0  0  0  0
   -9.9788  -15.3092  -25.9887 C   0  0  0  0  0  0  0  0  0  0  0  0
  -10.9188  -16.4988  -26.1782 C   0  0  0  0  0  0  0  0  0  0  0  0
  -10.8261  -14.0665  -26.0230 C   0  0  0  0  0  0  0  0  0  0  0  0
  -12.0338  -14.1408  -26.2297 O   0  0  0  0  0  0  0  0  0  0  0  0
  -10.1711  -12.9138  -25.8454 N   0  0  0  0  0  0  0  0  0  0  0  0
   -9.2027  -12.9508  -25.6721 H   0  0  0  0  0  0  0  0  0  0  0  0
  -10.8122  -11.6075  -25.8942 C   0  0  0  0  0  0  0  0  0  0  0  0
  -10.4355  -10.7931  -24.6539 C   0  0  0  0  0  0  0  0  0  0  0  0
  -10.3220  -10.8847  -27.1158 C   0  0  0  0  0  0  0  0  0  0  0  0
  -11.1192  -10.2655  -27.8121 O   0  0  0  0  0  0  0  0  0  0  0  0
   -9.0293  -10.9383  -27.3922 N   0  0  0  0  0  0  0  0  0  0  0  0
   -8.4216  -11.4466  -26.8077 H   0  0  0  0  0  0  0  0  0  0  0  0
   -8.6750  -10.4699  -28.1823 H   0  0  0  0  0  0  0  0  0  0  0  0
   -8.8038  -18.0063  -23.3694 C   0  0  0  0  0  0  0  0  0  0  0  0
   -9.1003  -19.4592  -25.4172 C   0  0  0  0  0  0  0  0  0  0  0  0
   -9.7337  -20.5041  -26.1037 C   0  0  0  0  0  0  0  0  0  0  0  0
  -10.7512  -21.2353  -25.4870 C   0  0  0  0  0  0  0  0  0  0  0  0
  -11.1366  -20.9191  -24.1849 C   0  0  0  0  0  0  0  0  0  0  0  0
  -10.5036  -19.8784  -23.4967 C   0  0  0  0  0  0  0  0  0  0  0  0
   -9.4867  -19.1428  -24.1109 C   0  0  0  0  0  0  0  0  0  0  0  0
 36 37  1  0  0  0
 36 41  2  0  0  0
 37 38  2  0  0  0
 38 39  1  0  0  0
 39 40  2  0  0  0
 40 41  1  0  0  0
 41 35  1  0  0  0
 35  1  1  0  0  0
  1  4  1  0  0  0
  1 17  1  0  0  0
  4  2  1  0  0  0
  2  3  2  0  0  0
  2  6  1  0  0  0
  6 12  1  0  0  0
  6 10  1  0  0  0
 12 13  1  0  0  0
 13 14  1  0  0  0
 13 15  2  0  0  0
 10  7  1  0  0  0
  7  8  1  0  0  0
  7  9  2  0  0  0
 17 18  1  0  0  0
 17 19  2  0  0  0
 17 21  1  0  0  0
 21 22  1  0  0  0
 22 23  1  0  0  0
 22 24  1  0  0  0
 24 25  2  0  0  0
 24 26  1  0  0  0
 26 28  1  0  0  0
 28 29  1  0  0  0
 28 30  1  0  0  0
 30 31  2  0  0  0
 30 32  1  0  0  0
 14 16  1  0  0  0
 10 11  1  0  0  0
 18 20  1  0  0  0
  4  5  1  0  0  0
 26 27  1  0  0  0
 32 33  1  0  0  0
 32 34  1  0  0  0
M  END
> <minimizedAffinity>
-7.54819

$$$$
3NXQ_RX4_A_700


 41 41  0  0  0  0  0  0  0  0999 V2000
   -5.3722  -16.1976  -22.3579 C   0  0  0  0  0  0  0  0  0  0  0  0
   -7.1736  -17.4559  -23.3789 C   0  0  0  0  0  0  0  0  0  0  0  0
   -6.4435  -17.8821  -24.2546 O   0  0  0  0  0  0  0  0  0  0  0  0
   -6.7618  -16.6395  -22.4004 N   0  0  0  0  0  0  0  0  0  0  0  0
   -7.3961  -16.3380  -21.7106 H   0  0  0  0  0  0  0  0  0  0  0  0
   -8.6107  -17.8634  -23.4155 C   0  0  0  0  0  0  0  0  0  0  0  0
   -9.0797  -19.9711  -24.6289 C   0  0  0  0  0  0  0  0  0  0  0  0
   -9.5495  -19.1657  -25.8058 C   0  0  0  0  0  0  0  0  0  0  0  0
   -9.0765  -21.1957  -24.6598 O   0  0  0  0  0  0  0  0  0  0  0  0
   -8.6675  -19.3140  -23.5404 N   0  0  0  0  0  0  0  0  0  0  0  0
   -8.3809  -19.8498  -22.7658 H   0  0  0  0  0  0  0  0  0  0  0  0
   -9.3045  -17.5518  -22.0995 C   0  0  0  0  0  0  0  0  0  0  0  0
  -10.3454  -18.6219  -21.8691 C   0  0  0  0  0  0  0  0  0  0  0  0
  -10.0536  -19.5548  -21.0931 O   0  0  0  0  0  0  0  0  0  0  0  0
  -11.4554  -18.5357  -22.4462 O   0  0  0  0  0  0  0  0  0  0  0  0
   -9.2109  -19.5778  -20.6841 H   0  0  0  0  0  0  0  0  0  0  0  0
   -4.5649  -16.7179  -20.8114 P   0  0  0  0  0  0  0  0  0  0  0  0
   -5.5400  -17.6278  -20.1159 O   0  0  0  0  0  0  0  0  0  0  0  0
   -4.0993  -15.5106  -20.0294 O   0  0  0  0  0  0  0  0  0  0  0  0
   -6.3119  -17.1154  -19.8286 H   0  0  0  0  0  0  0  0  0  0  0  0
   -3.1400  -17.7008  -21.3339 C   0  0  0  0  0  0  0  0  0  0  0  0
   -3.3265  -18.3048  -22.7241 C   0  0  0  0  0  0  0  0  0  0  0  0
   -1.9497  -18.5207  -23.3506 C   0  0  0  0  0  0  0  0  0  0  0  0
   -3.9861  -19.6537  -22.6308 C   0  0  0  0  0  0  0  0  0  0  0  0
   -4.1258  -20.3500  -23.6321 O   0  0  0  0  0  0  0  0  0  0  0  0
   -4.4182  -20.0043  -21.4144 N   0  0  0  0  0  0  0  0  0  0  0  0
   -4.2507  -19.3876  -20.6654 H   0  0  0  0  0  0  0  0  0  0  0  0
   -5.1226  -21.2480  -21.1376 C   0  0  0  0  0  0  0  0  0  0  0  0
   -4.8314  -21.7069  -19.7065 C   0  0  0  0  0  0  0  0  0  0  0  0
   -6.5969  -20.9981  -21.2757 C   0  0  0  0  0  0  0  0  0  0  0  0
   -7.2875  -21.7906  -21.9072 O   0  0  0  0  0  0  0  0  0  0  0  0
   -7.1014  -19.9215  -20.6954 N   0  0  0  0  0  0  0  0  0  0  0  0
   -6.5129  -19.3094  -20.1971 H   0  0  0  0  0  0  0  0  0  0  0  0
   -8.0653  -19.7325  -20.7618 H   0  0  0  0  0  0  0  0  0  0  0  0
   -5.3993  -14.6675  -22.5123 C   0  0  0  0  0  0  0  0  0  0  0  0
   -5.4671  -14.6714  -25.0396 C   0  0  0  0  0  0  0  0  0  0  0  0
   -6.0532  -14.2945  -26.2557 C   0  0  0  0  0  0  0  0  0  0  0  0
   -7.2103  -13.5126  -26.2658 C   0  0  0  0  0  0  0  0  0  0  0  0
   -7.7790  -13.1057  -25.0596 C   0  0  0  0  0  0  0  0  0  0  0  0
   -7.1973  -13.4833  -23.8445 C   0  0  0  0  0  0  0  0  0  0  0  0
   -6.0383  -14.2636  -23.8299 C   0  0  0  0  0  0  0  0  0  0  0  0
 36 37  1  0  0  0
 36 41  2  0  0  0
 37 38  2  0  0  0
 38 39  1  0  0  0
 39 40  2  0  0  0
 40 41  1  0  0  0
 41 35  1  0  0  0
 35  1  1  0  0  0
  1  4  1  0  0  0
  1 17  1  0  0  0
  4  2  1  0  0  0
  2  3  2  0  0  0
  2  6  1  0  0  0
  6 12  1  0  0  0
  6 10  1  0  0  0
 12 13  1  0  0  0
 13 14  1  0  0  0
 13 15  2  0  0  0
 10  7  1  0  0  0
  7  8  1  0  0  0
  7  9  2  0  0  0
 17 18  1  0  0  0
 17 19  2  0  0  0
 17 21  1  0  0  0
 21 22  1  0  0  0
 22 23  1  0  0  0
 22 24  1  0  0  0
 24 25  2  0  0  0
 24 26  1  0  0  0
 26 28  1  0  0  0
 28 29  1  0  0  0
 28 30  1  0  0  0
 30 31  2  0  0  0
 30 32  1  0  0  0
 14 16  1  0  0  0
 10 11  1  0  0  0
 18 20  1  0  0  0
  4  5  1  0  0  0
 26 27  1  0  0  0
 32 33  1  0  0  0
 32 34  1  0  0  0
M  END
> <minimizedAffinity>
-7.43114

$$$$
