3NU6_478_B_401


 39 41  0  0  0  0  0  0  0  0999 V2000
  -15.1379  -19.2746  -17.8376 C   0  0  0  0  0  0  0  0  0  0  0  0
  -14.0893  -18.3805  -18.2895 O   0  0  0  0  0  0  0  0  0  0  0  0
  -13.7081  -17.9177  -17.5269 H   0  0  0  0  0  0  0  0  0  0  0  0
  -14.5976  -20.3573  -16.9218 C   0  0  0  0  0  0  0  0  0  0  0  0
  -13.8147  -22.4428  -18.0127 C   0  0  0  0  0  0  0  0  0  0  0  0
  -13.6210  -21.2019  -17.6346 N   0  0  0  0  0  0  0  0  0  0  0  0
  -14.8503  -23.0789  -17.8386 O   0  0  0  0  0  0  0  0  0  0  0  0
  -12.7476  -20.7992  -17.8449 H   0  0  0  0  0  0  0  0  0  0  0  0
  -12.7266  -22.9780  -18.5945 O   0  0  0  0  0  0  0  0  0  0  0  0
  -11.4090  -24.9379  -19.0323 C   0  0  0  0  0  0  0  0  0  0  0  0
  -13.2983  -24.4757  -20.3700 C   0  0  0  0  0  0  0  0  0  0  0  0
  -12.8220  -24.3973  -18.9002 C   0  0  0  0  0  0  0  0  0  0  0  0
  -12.1539  -25.0226  -21.1677 C   0  0  0  0  0  0  0  0  0  0  0  0
  -11.0299  -24.6491  -20.3977 O   0  0  0  0  0  0  0  0  0  0  0  0
  -13.8743  -19.8494  -15.6512 C   0  0  0  0  0  0  0  0  0  0  0  0
  -13.7619  -20.8695  -14.5715 C   0  0  0  0  0  0  0  0  0  0  0  0
  -12.6735  -21.7119  -14.5430 C   0  0  0  0  0  0  0  0  0  0  0  0
  -14.7548  -21.0016  -13.5854 C   0  0  0  0  0  0  0  0  0  0  0  0
  -12.6114  -22.7161  -13.5781 C   0  0  0  0  0  0  0  0  0  0  0  0
  -14.7118  -21.9575  -12.5936 C   0  0  0  0  0  0  0  0  0  0  0  0
  -13.6502  -22.8308  -12.6660 C   0  0  0  0  0  0  0  0  0  0  0  0
  -16.1684  -18.3869  -17.1369 C   0  0  0  0  0  0  0  0  0  0  0  0
  -17.5208  -18.8683  -17.3580 N   0  0  0  0  0  0  0  0  0  0  0  0
  -17.4411  -19.8528  -15.0148 O   0  0  0  0  0  0  0  0  0  0  0  0
  -19.4873  -20.1190  -16.5030 O   0  0  0  0  0  0  0  0  0  0  0  0
  -18.4132  -19.2732  -16.0108 S   0  0  0  0  0  0  0  0  0  0  0  0
  -19.1178  -17.8938  -15.2109 C   0  0  0  0  0  0  0  0  0  0  0  0
  -18.3466  -17.0789  -14.3970 C   0  0  0  0  0  0  0  0  0  0  0  0
  -18.9090  -15.9040  -13.9337 C   0  0  0  0  0  0  0  0  0  0  0  0
  -20.1588  -15.4711  -14.2237 C   0  0  0  0  0  0  0  0  0  0  0  0
  -20.9934  -16.3498  -14.9176 C   0  0  0  0  0  0  0  0  0  0  0  0
  -20.4147  -17.5009  -15.4774 C   0  0  0  0  0  0  0  0  0  0  0  0
  -20.6868  -14.3668  -13.6740 N   0  0  0  0  0  0  0  0  0  0  0  0
  -20.1108  -13.7382  -13.1818 H   0  0  0  0  0  0  0  0  0  0  0  0
  -21.6504  -14.1853  -13.7628 H   0  0  0  0  0  0  0  0  0  0  0  0
  -18.2324  -18.1896  -18.4191 C   0  0  0  0  0  0  0  0  0  0  0  0
  -18.1019  -18.8069  -19.8252 C   0  0  0  0  0  0  0  0  0  0  0  0
  -18.1724  -20.3270  -19.8201 C   0  0  0  0  0  0  0  0  0  0  0  0
  -19.3127  -18.2989  -20.6618 C   0  0  0  0  0  0  0  0  0  0  0  0
 10 12  1  0  0  0
 10 14  1  0  0  0
 11 12  1  0  0  0
 11 13  1  0  0  0
  5  6  1  0  0  0
  5  9  1  0  0  0
  5  7  2  0  0  0
 12  9  1  0  0  0
  4  1  1  0  0  0
  4 15  1  0  0  0
  4  6  1  0  0  0
  1 22  1  0  0  0
  1  2  1  0  0  0
 15 16  1  0  0  0
 16 17  2  0  0  0
 16 18  1  0  0  0
 17 19  1  0  0  0
 18 20  2  0  0  0
 19 21  2  0  0  0
 20 21  1  0  0  0
 22 23  1  0  0  0
 36 37  1  0  0  0
 36 23  1  0  0  0
 37 38  1  0  0  0
 37 39  1  0  0  0
 27 28  2  0  0  0
 27 32  1  0  0  0
 27 26  1  0  0  0
 28 29  1  0  0  0
 29 30  2  0  0  0
 30 31  1  0  0  0
 30 33  1  0  0  0
 31 32  2  0  0  0
 13 14  1  0  0  0
 23 26  1  0  0  0
 24 26  2  0  0  0
 25 26  2  0  0  0
  6  8  1  0  0  0
 33 34  1  0  0  0
 33 35  1  0  0  0
  2  3  1  0  0  0
M  END
> <minimizedAffinity>
-9.74551

$$$$
3NU6_478_B_401


 39 41  0  0  0  0  0  0  0  0999 V2000
  -16.9744  -21.3094  -17.2287 C   0  0  0  0  0  0  0  0  0  0  0  0
  -17.7241  -22.5198  -16.9524 O   0  0  0  0  0  0  0  0  0  0  0  0
  -18.6385  -22.4104  -17.2569 H   0  0  0  0  0  0  0  0  0  0  0  0
  -16.8862  -21.0304  -18.7177 C   0  0  0  0  0  0  0  0  0  0  0  0
  -14.5006  -21.6291  -19.0383 C   0  0  0  0  0  0  0  0  0  0  0  0
  -15.7717  -21.7832  -19.3229 N   0  0  0  0  0  0  0  0  0  0  0  0
  -14.0546  -20.8398  -18.2102 O   0  0  0  0  0  0  0  0  0  0  0  0
  -16.0018  -22.4604  -19.9994 H   0  0  0  0  0  0  0  0  0  0  0  0
  -13.7077  -22.4160  -19.7872 O   0  0  0  0  0  0  0  0  0  0  0  0
  -11.9349  -23.8104  -18.9616 C   0  0  0  0  0  0  0  0  0  0  0  0
  -13.5674  -24.7235  -20.4018 C   0  0  0  0  0  0  0  0  0  0  0  0
  -13.4283  -23.7286  -19.2253 C   0  0  0  0  0  0  0  0  0  0  0  0
  -12.1938  -25.2485  -20.6899 C   0  0  0  0  0  0  0  0  0  0  0  0
  -11.3583  -24.2076  -20.2270 O   0  0  0  0  0  0  0  0  0  0  0  0
  -18.1458  -21.4024  -19.5365 C   0  0  0  0  0  0  0  0  0  0  0  0
  -18.9050  -20.2259  -20.0451 C   0  0  0  0  0  0  0  0  0  0  0  0
  -18.2270  -19.0824  -20.4028 C   0  0  0  0  0  0  0  0  0  0  0  0
  -20.3061  -20.2523  -20.1538 C   0  0  0  0  0  0  0  0  0  0  0  0
  -18.9469  -17.9577  -20.8029 C   0  0  0  0  0  0  0  0  0  0  0  0
  -21.0511  -19.1739  -20.5795 C   0  0  0  0  0  0  0  0  0  0  0  0
  -20.3319  -18.0286  -20.8365 C   0  0  0  0  0  0  0  0  0  0  0  0
  -17.6961  -20.1916  -16.4734 C   0  0  0  0  0  0  0  0  0  0  0  0
  -16.7540  -19.2872  -15.8375 N   0  0  0  0  0  0  0  0  0  0  0  0
  -16.5313  -17.3268  -17.4416 O   0  0  0  0  0  0  0  0  0  0  0  0
  -16.3464  -17.0155  -14.9233 O   0  0  0  0  0  0  0  0  0  0  0  0
  -17.0069  -17.6542  -16.0490 S   0  0  0  0  0  0  0  0  0  0  0  0
  -18.6924  -17.2095  -16.0262 C   0  0  0  0  0  0  0  0  0  0  0  0
  -19.3808  -16.9882  -17.2087 C   0  0  0  0  0  0  0  0  0  0  0  0
  -20.7507  -16.8149  -17.1406 C   0  0  0  0  0  0  0  0  0  0  0  0
  -21.4859  -16.8584  -16.0043 C   0  0  0  0  0  0  0  0  0  0  0  0
  -20.7895  -16.9321  -14.7961 C   0  0  0  0  0  0  0  0  0  0  0  0
  -19.4124  -17.2044  -14.8476 C   0  0  0  0  0  0  0  0  0  0  0  0
  -22.8012  -16.5936  -15.9840 N   0  0  0  0  0  0  0  0  0  0  0  0
  -23.3053  -16.5386  -16.8279 H   0  0  0  0  0  0  0  0  0  0  0  0
  -23.2621  -16.4544  -15.1253 H   0  0  0  0  0  0  0  0  0  0  0  0
  -16.3175  -19.7042  -14.5227 C   0  0  0  0  0  0  0  0  0  0  0  0
  -15.0894  -20.6343  -14.4800 C   0  0  0  0  0  0  0  0  0  0  0  0
  -13.7858  -19.9194  -14.8044 C   0  0  0  0  0  0  0  0  0  0  0  0
  -14.9665  -21.1627  -13.0206 C   0  0  0  0  0  0  0  0  0  0  0  0
 10 12  1  0  0  0
 10 14  1  0  0  0
 11 12  1  0  0  0
 11 13  1  0  0  0
  5  6  1  0  0  0
  5  9  1  0  0  0
  5  7  2  0  0  0
 12  9  1  0  0  0
  4  1  1  0  0  0
  4 15  1  0  0  0
  4  6  1  0  0  0
  1 22  1  0  0  0
  1  2  1  0  0  0
 15 16  1  0  0  0
 16 17  2  0  0  0
 16 18  1  0  0  0
 17 19  1  0  0  0
 18 20  2  0  0  0
 19 21  2  0  0  0
 20 21  1  0  0  0
 22 23  1  0  0  0
 36 37  1  0  0  0
 36 23  1  0  0  0
 37 38  1  0  0  0
 37 39  1  0  0  0
 27 28  2  0  0  0
 27 32  1  0  0  0
 27 26  1  0  0  0
 28 29  1  0  0  0
 29 30  2  0  0  0
 30 31  1  0  0  0
 30 33  1  0  0  0
 31 32  2  0  0  0
 13 14  1  0  0  0
 23 26  1  0  0  0
 24 26  2  0  0  0
 25 26  2  0  0  0
  6  8  1  0  0  0
 33 34  1  0  0  0
 33 35  1  0  0  0
  2  3  1  0  0  0
M  END
> <minimizedAffinity>
-9.66323

$$$$
3NU6_478_B_401


 39 41  0  0  0  0  0  0  0  0999 V2000
  -18.9731  -18.5989  -16.1152 C   0  0  0  0  0  0  0  0  0  0  0  0
  -18.5189  -18.5130  -14.7406 O   0  0  0  0  0  0  0  0  0  0  0  0
  -18.0469  -17.6760  -14.6078 H   0  0  0  0  0  0  0  0  0  0  0  0
  -19.9686  -17.5030  -16.4479 C   0  0  0  0  0  0  0  0  0  0  0  0
  -20.8125  -16.6727  -18.6275 C   0  0  0  0  0  0  0  0  0  0  0  0
  -20.4656  -17.6532  -17.8283 N   0  0  0  0  0  0  0  0  0  0  0  0
  -20.7590  -15.4795  -18.3433 O   0  0  0  0  0  0  0  0  0  0  0  0
  -20.5438  -18.5691  -18.1806 H   0  0  0  0  0  0  0  0  0  0  0  0
  -21.2791  -17.1142  -19.8091 O   0  0  0  0  0  0  0  0  0  0  0  0
  -22.0407  -18.9456  -21.1636 C   0  0  0  0  0  0  0  0  0  0  0  0
  -23.4921  -17.9892  -19.5663 C   0  0  0  0  0  0  0  0  0  0  0  0
  -22.0058  -18.3735  -19.7572 C   0  0  0  0  0  0  0  0  0  0  0  0
  -24.2009  -18.3559  -20.8345 C   0  0  0  0  0  0  0  0  0  0  0  0
  -23.1683  -18.2985  -21.7970 O   0  0  0  0  0  0  0  0  0  0  0  0
  -21.2252  -17.4540  -15.5456 C   0  0  0  0  0  0  0  0  0  0  0  0
  -21.6142  -16.0787  -15.1257 C   0  0  0  0  0  0  0  0  0  0  0  0
  -20.8565  -15.4146  -14.1877 C   0  0  0  0  0  0  0  0  0  0  0  0
  -22.7519  -15.4473  -15.6574 C   0  0  0  0  0  0  0  0  0  0  0  0
  -21.2684  -14.1604  -13.7398 C   0  0  0  0  0  0  0  0  0  0  0  0
  -23.1715  -14.1938  -15.2674 C   0  0  0  0  0  0  0  0  0  0  0  0
  -22.4312  -13.6135  -14.2623 C   0  0  0  0  0  0  0  0  0  0  0  0
  -17.7114  -18.5139  -16.9764 C   0  0  0  0  0  0  0  0  0  0  0  0
  -17.4369  -19.7759  -17.6411 N   0  0  0  0  0  0  0  0  0  0  0  0
  -17.7532  -22.1186  -16.7043 O   0  0  0  0  0  0  0  0  0  0  0  0
  -16.4020  -20.3576  -15.4609 O   0  0  0  0  0  0  0  0  0  0  0  0
  -16.7570  -20.9872  -16.7215 S   0  0  0  0  0  0  0  0  0  0  0  0
  -15.3133  -21.6613  -17.4288 C   0  0  0  0  0  0  0  0  0  0  0  0
  -14.1538  -21.7905  -16.6804 C   0  0  0  0  0  0  0  0  0  0  0  0
  -13.0982  -22.4916  -17.2332 C   0  0  0  0  0  0  0  0  0  0  0  0
  -13.1079  -23.0816  -18.4519 C   0  0  0  0  0  0  0  0  0  0  0  0
  -14.2106  -22.8337  -19.2721 C   0  0  0  0  0  0  0  0  0  0  0  0
  -15.3291  -22.2079  -18.6971 C   0  0  0  0  0  0  0  0  0  0  0  0
  -12.0240  -23.6728  -18.9773 N   0  0  0  0  0  0  0  0  0  0  0  0
  -11.2391  -23.8540  -18.4113 H   0  0  0  0  0  0  0  0  0  0  0  0
  -12.0136  -23.9255  -19.9288 H   0  0  0  0  0  0  0  0  0  0  0  0
  -18.4464  -20.1832  -18.5940 C   0  0  0  0  0  0  0  0  0  0  0  0
  -18.0093  -20.2166  -20.0715 C   0  0  0  0  0  0  0  0  0  0  0  0
  -18.7700  -21.2437  -20.8974 C   0  0  0  0  0  0  0  0  0  0  0  0
  -18.3324  -18.8186  -20.6757 C   0  0  0  0  0  0  0  0  0  0  0  0
 10 12  1  0  0  0
 10 14  1  0  0  0
 11 12  1  0  0  0
 11 13  1  0  0  0
  5  6  1  0  0  0
  5  9  1  0  0  0
  5  7  2  0  0  0
 12  9  1  0  0  0
  4  1  1  0  0  0
  4 15  1  0  0  0
  4  6  1  0  0  0
  1 22  1  0  0  0
  1  2  1  0  0  0
 15 16  1  0  0  0
 16 17  2  0  0  0
 16 18  1  0  0  0
 17 19  1  0  0  0
 18 20  2  0  0  0
 19 21  2  0  0  0
 20 21  1  0  0  0
 22 23  1  0  0  0
 36 37  1  0  0  0
 36 23  1  0  0  0
 37 38  1  0  0  0
 37 39  1  0  0  0
 27 28  2  0  0  0
 27 32  1  0  0  0
 27 26  1  0  0  0
 28 29  1  0  0  0
 29 30  2  0  0  0
 30 31  1  0  0  0
 30 33  1  0  0  0
 31 32  2  0  0  0
 13 14  1  0  0  0
 23 26  1  0  0  0
 24 26  2  0  0  0
 25 26  2  0  0  0
  6  8  1  0  0  0
 33 34  1  0  0  0
 33 35  1  0  0  0
  2  3  1  0  0  0
M  END
> <minimizedAffinity>
-9.43224

$$$$
3NU6_478_B_401


 39 41  0  0  0  0  0  0  0  0999 V2000
  -15.4645  -19.6386  -16.2437 C   0  0  0  0  0  0  0  0  0  0  0  0
  -15.0784  -18.4321  -15.5375 O   0  0  0  0  0  0  0  0  0  0  0  0
  -15.1994  -18.5629  -14.5840 H   0  0  0  0  0  0  0  0  0  0  0  0
  -14.5820  -20.8153  -15.8702 C   0  0  0  0  0  0  0  0  0  0  0  0
  -14.3877  -22.2336  -17.8958 C   0  0  0  0  0  0  0  0  0  0  0  0
  -13.8956  -21.3494  -17.0613 N   0  0  0  0  0  0  0  0  0  0  0  0
  -15.5047  -22.7362  -17.8120 O   0  0  0  0  0  0  0  0  0  0  0  0
  -12.9890  -21.0129  -17.2460 H   0  0  0  0  0  0  0  0  0  0  0  0
  -13.5128  -22.5726  -18.8594 O   0  0  0  0  0  0  0  0  0  0  0  0
  -11.7452  -24.1864  -19.0592 C   0  0  0  0  0  0  0  0  0  0  0  0
  -13.6586  -24.3715  -20.4294 C   0  0  0  0  0  0  0  0  0  0  0  0
  -13.2503  -23.9982  -18.9846 C   0  0  0  0  0  0  0  0  0  0  0  0
  -12.3968  -24.7138  -21.1615 C   0  0  0  0  0  0  0  0  0  0  0  0
  -11.4168  -23.9835  -20.4529 O   0  0  0  0  0  0  0  0  0  0  0  0
  -13.4693  -20.5072  -14.8395 C   0  0  0  0  0  0  0  0  0  0  0  0
  -12.9909  -21.7033  -14.0914 C   0  0  0  0  0  0  0  0  0  0  0  0
  -13.8923  -22.4715  -13.3896 C   0  0  0  0  0  0  0  0  0  0  0  0
  -11.6308  -22.0577  -14.0735 C   0  0  0  0  0  0  0  0  0  0  0  0
  -13.4297  -23.5429  -12.6272 C   0  0  0  0  0  0  0  0  0  0  0  0
  -11.1391  -23.1305  -13.3619 C   0  0  0  0  0  0  0  0  0  0  0  0
  -12.0684  -23.8086  -12.6058 C   0  0  0  0  0  0  0  0  0  0  0  0
  -16.9317  -19.8800  -15.8837 C   0  0  0  0  0  0  0  0  0  0  0  0
  -17.7257  -18.6763  -16.0587 N   0  0  0  0  0  0  0  0  0  0  0  0
  -16.4471  -17.5917  -17.9706 O   0  0  0  0  0  0  0  0  0  0  0  0
  -18.8999  -17.0692  -17.5422 O   0  0  0  0  0  0  0  0  0  0  0  0
  -17.8334  -18.0543  -17.6005 S   0  0  0  0  0  0  0  0  0  0  0  0
  -18.2502  -19.2503  -18.7983 C   0  0  0  0  0  0  0  0  0  0  0  0
  -19.5425  -19.3352  -19.2922 C   0  0  0  0  0  0  0  0  0  0  0  0
  -19.7747  -20.1772  -20.3638 C   0  0  0  0  0  0  0  0  0  0  0  0
  -18.8319  -20.9229  -20.9873 C   0  0  0  0  0  0  0  0  0  0  0  0
  -17.5616  -20.9596  -20.4084 C   0  0  0  0  0  0  0  0  0  0  0  0
  -17.2809  -20.0420  -19.3824 C   0  0  0  0  0  0  0  0  0  0  0  0
  -19.1284  -21.7923  -21.9654 N   0  0  0  0  0  0  0  0  0  0  0  0
  -20.0199  -21.7783  -22.3829 H   0  0  0  0  0  0  0  0  0  0  0  0
  -18.4545  -22.4443  -22.2655 H   0  0  0  0  0  0  0  0  0  0  0  0
  -18.9337  -18.6345  -15.2638 C   0  0  0  0  0  0  0  0  0  0  0  0
  -18.9525  -17.6093  -14.1132 C   0  0  0  0  0  0  0  0  0  0  0  0
  -17.7275  -16.7066  -14.0962 C   0  0  0  0  0  0  0  0  0  0  0  0
  -20.1898  -16.6916  -14.3385 C   0  0  0  0  0  0  0  0  0  0  0  0
 10 12  1  0  0  0
 10 14  1  0  0  0
 11 12  1  0  0  0
 11 13  1  0  0  0
  5  6  1  0  0  0
  5  9  1  0  0  0
  5  7  2  0  0  0
 12  9  1  0  0  0
  4  1  1  0  0  0
  4 15  1  0  0  0
  4  6  1  0  0  0
  1 22  1  0  0  0
  1  2  1  0  0  0
 15 16  1  0  0  0
 16 17  2  0  0  0
 16 18  1  0  0  0
 17 19  1  0  0  0
 18 20  2  0  0  0
 19 21  2  0  0  0
 20 21  1  0  0  0
 22 23  1  0  0  0
 36 37  1  0  0  0
 36 23  1  0  0  0
 37 38  1  0  0  0
 37 39  1  0  0  0
 27 28  2  0  0  0
 27 32  1  0  0  0
 27 26  1  0  0  0
 28 29  1  0  0  0
 29 30  2  0  0  0
 30 31  1  0  0  0
 30 33  1  0  0  0
 31 32  2  0  0  0
 13 14  1  0  0  0
 23 26  1  0  0  0
 24 26  2  0  0  0
 25 26  2  0  0  0
  6  8  1  0  0  0
 33 34  1  0  0  0
 33 35  1  0  0  0
  2  3  1  0  0  0
M  END
> <minimizedAffinity>
-9.43021

$$$$
3NU6_478_B_401


 39 41  0  0  0  0  0  0  0  0999 V2000
  -16.6371  -21.5431  -17.2080 C   0  0  0  0  0  0  0  0  0  0  0  0
  -17.5788  -22.6232  -16.9847 O   0  0  0  0  0  0  0  0  0  0  0  0
  -18.3778  -22.4699  -17.5129 H   0  0  0  0  0  0  0  0  0  0  0  0
  -16.1763  -21.4888  -18.6528 C   0  0  0  0  0  0  0  0  0  0  0  0
  -17.7382  -20.5419  -20.3309 C   0  0  0  0  0  0  0  0  0  0  0  0
  -16.8532  -20.3949  -19.3741 N   0  0  0  0  0  0  0  0  0  0  0  0
  -18.1434  -21.6200  -20.7563 O   0  0  0  0  0  0  0  0  0  0  0  0
  -16.6205  -19.4741  -19.1148 H   0  0  0  0  0  0  0  0  0  0  0  0
  -18.1443  -19.3651  -20.8398 O   0  0  0  0  0  0  0  0  0  0  0  0
  -20.0709  -19.5578  -19.4186 C   0  0  0  0  0  0  0  0  0  0  0  0
  -19.9231  -17.7696  -20.9527 C   0  0  0  0  0  0  0  0  0  0  0  0
  -19.0412  -18.5982  -19.9888 C   0  0  0  0  0  0  0  0  0  0  0  0
  -21.3128  -18.3206  -20.8502 C   0  0  0  0  0  0  0  0  0  0  0  0
  -21.0904  -19.6540  -20.4398 O   0  0  0  0  0  0  0  0  0  0  0  0
  -14.6593  -21.2581  -18.8555 C   0  0  0  0  0  0  0  0  0  0  0  0
  -13.8689  -22.5143  -18.9832 C   0  0  0  0  0  0  0  0  0  0  0  0
  -14.3160  -23.5172  -19.8135 C   0  0  0  0  0  0  0  0  0  0  0  0
  -12.6790  -22.7052  -18.2597 C   0  0  0  0  0  0  0  0  0  0  0  0
  -13.6158  -24.7212  -19.8697 C   0  0  0  0  0  0  0  0  0  0  0  0
  -11.9389  -23.8664  -18.3159 C   0  0  0  0  0  0  0  0  0  0  0  0
  -12.4787  -24.8694  -19.0890 C   0  0  0  0  0  0  0  0  0  0  0  0
  -17.3627  -20.2643  -16.7850 C   0  0  0  0  0  0  0  0  0  0  0  0
  -16.4424  -19.2965  -16.2140 N   0  0  0  0  0  0  0  0  0  0  0  0
  -16.5424  -17.1332  -17.5469 O   0  0  0  0  0  0  0  0  0  0  0  0
  -16.3258  -17.1276  -15.0120 O   0  0  0  0  0  0  0  0  0  0  0  0
  -16.9254  -17.7021  -16.2043 S   0  0  0  0  0  0  0  0  0  0  0  0
  -18.6547  -17.5068  -16.1026 C   0  0  0  0  0  0  0  0  0  0  0  0
  -19.3507  -17.9434  -14.9863 C   0  0  0  0  0  0  0  0  0  0  0  0
  -20.6868  -17.6044  -14.8797 C   0  0  0  0  0  0  0  0  0  0  0  0
  -21.3760  -16.8610  -15.7775 C   0  0  0  0  0  0  0  0  0  0  0  0
  -20.7285  -16.5422  -16.9730 C   0  0  0  0  0  0  0  0  0  0  0  0
  -19.3489  -16.7926  -17.0595 C   0  0  0  0  0  0  0  0  0  0  0  0
  -22.6947  -16.6375  -15.6701 N   0  0  0  0  0  0  0  0  0  0  0  0
  -23.1647  -16.8573  -14.8334 H   0  0  0  0  0  0  0  0  0  0  0  0
  -23.1922  -16.2538  -16.4280 H   0  0  0  0  0  0  0  0  0  0  0  0
  -15.7375  -19.7607  -15.0391 C   0  0  0  0  0  0  0  0  0  0  0  0
  -14.3119  -20.2978  -15.2724 C   0  0  0  0  0  0  0  0  0  0  0  0
  -13.2299  -19.2664  -14.9875 C   0  0  0  0  0  0  0  0  0  0  0  0
  -14.0957  -21.4710  -14.2719 C   0  0  0  0  0  0  0  0  0  0  0  0
 10 12  1  0  0  0
 10 14  1  0  0  0
 11 12  1  0  0  0
 11 13  1  0  0  0
  5  6  1  0  0  0
  5  9  1  0  0  0
  5  7  2  0  0  0
 12  9  1  0  0  0
  4  1  1  0  0  0
  4 15  1  0  0  0
  4  6  1  0  0  0
  1 22  1  0  0  0
  1  2  1  0  0  0
 15 16  1  0  0  0
 16 17  2  0  0  0
 16 18  1  0  0  0
 17 19  1  0  0  0
 18 20  2  0  0  0
 19 21  2  0  0  0
 20 21  1  0  0  0
 22 23  1  0  0  0
 36 37  1  0  0  0
 36 23  1  0  0  0
 37 38  1  0  0  0
 37 39  1  0  0  0
 27 28  2  0  0  0
 27 32  1  0  0  0
 27 26  1  0  0  0
 28 29  1  0  0  0
 29 30  2  0  0  0
 30 31  1  0  0  0
 30 33  1  0  0  0
 31 32  2  0  0  0
 13 14  1  0  0  0
 23 26  1  0  0  0
 24 26  2  0  0  0
 25 26  2  0  0  0
  6  8  1  0  0  0
 33 34  1  0  0  0
 33 35  1  0  0  0
  2  3  1  0  0  0
M  END
> <minimizedAffinity>
-9.41527

$$$$
3NU6_478_B_401


 39 41  0  0  0  0  0  0  0  0999 V2000
  -14.3033  -20.4181  -16.9857 C   0  0  0  0  0  0  0  0  0  0  0  0
  -13.5536  -19.5560  -16.0922 O   0  0  0  0  0  0  0  0  0  0  0  0
  -13.5401  -19.9447  -15.2036 H   0  0  0  0  0  0  0  0  0  0  0  0
  -13.6470  -21.7780  -17.1367 C   0  0  0  0  0  0  0  0  0  0  0  0
  -12.4342  -22.3913  -15.0618 C   0  0  0  0  0  0  0  0  0  0  0  0
  -13.5009  -22.4338  -15.8238 N   0  0  0  0  0  0  0  0  0  0  0  0
  -11.4017  -21.7826  -15.3283 O   0  0  0  0  0  0  0  0  0  0  0  0
  -14.2712  -22.9483  -15.4903 H   0  0  0  0  0  0  0  0  0  0  0  0
  -12.5711  -23.1284  -13.9452 O   0  0  0  0  0  0  0  0  0  0  0  0
  -11.2836  -25.1546  -13.8707 C   0  0  0  0  0  0  0  0  0  0  0  0
  -11.5675  -23.8760  -11.9067 C   0  0  0  0  0  0  0  0  0  0  0  0
  -11.3392  -23.7033  -13.4270 C   0  0  0  0  0  0  0  0  0  0  0  0
  -11.6269  -25.3497  -11.6421 C   0  0  0  0  0  0  0  0  0  0  0  0
  -12.0576  -25.8723  -12.8821 O   0  0  0  0  0  0  0  0  0  0  0  0
  -14.4080  -22.7843  -18.0332 C   0  0  0  0  0  0  0  0  0  0  0  0
  -13.5333  -23.5329  -18.9784 C   0  0  0  0  0  0  0  0  0  0  0  0
  -14.0533  -23.9916  -20.1677 C   0  0  0  0  0  0  0  0  0  0  0  0
  -12.1863  -23.7959  -18.6744 C   0  0  0  0  0  0  0  0  0  0  0  0
  -13.2534  -24.7591  -21.0128 C   0  0  0  0  0  0  0  0  0  0  0  0
  -11.3532  -24.5195  -19.5000 C   0  0  0  0  0  0  0  0  0  0  0  0
  -11.9479  -25.0316  -20.6309 C   0  0  0  0  0  0  0  0  0  0  0  0
  -15.7075  -20.5179  -16.3865 C   0  0  0  0  0  0  0  0  0  0  0  0
  -16.6514  -19.6795  -17.1047 N   0  0  0  0  0  0  0  0  0  0  0  0
  -16.4383  -17.1976  -17.6157 O   0  0  0  0  0  0  0  0  0  0  0  0
  -16.2013  -18.0954  -15.2471 O   0  0  0  0  0  0  0  0  0  0  0  0
  -16.8904  -18.1358  -16.5256 S   0  0  0  0  0  0  0  0  0  0  0  0
  -18.5701  -17.7517  -16.2609 C   0  0  0  0  0  0  0  0  0  0  0  0
  -19.2077  -18.1383  -15.0925 C   0  0  0  0  0  0  0  0  0  0  0  0
  -20.4815  -17.6555  -14.8568 C   0  0  0  0  0  0  0  0  0  0  0  0
  -21.1600  -16.8157  -15.6741 C   0  0  0  0  0  0  0  0  0  0  0  0
  -20.5909  -16.5385  -16.9189 C   0  0  0  0  0  0  0  0  0  0  0  0
  -19.2622  -16.9387  -17.1371 C   0  0  0  0  0  0  0  0  0  0  0  0
  -22.4297  -16.4496  -15.4413 N   0  0  0  0  0  0  0  0  0  0  0  0
  -22.8443  -16.6383  -14.5685 H   0  0  0  0  0  0  0  0  0  0  0  0
  -22.9468  -15.9923  -16.1432 H   0  0  0  0  0  0  0  0  0  0  0  0
  -16.6088  -19.8259  -18.5433 C   0  0  0  0  0  0  0  0  0  0  0  0
  -17.9724  -19.9221  -19.2552 C   0  0  0  0  0  0  0  0  0  0  0  0
  -18.2403  -18.7555  -20.1948 C   0  0  0  0  0  0  0  0  0  0  0  0
  -17.9426  -21.2108  -20.1282 C   0  0  0  0  0  0  0  0  0  0  0  0
 10 12  1  0  0  0
 10 14  1  0  0  0
 11 12  1  0  0  0
 11 13  1  0  0  0
  5  6  1  0  0  0
  5  9  1  0  0  0
  5  7  2  0  0  0
 12  9  1  0  0  0
  4  1  1  0  0  0
  4 15  1  0  0  0
  4  6  1  0  0  0
  1 22  1  0  0  0
  1  2  1  0  0  0
 15 16  1  0  0  0
 16 17  2  0  0  0
 16 18  1  0  0  0
 17 19  1  0  0  0
 18 20  2  0  0  0
 19 21  2  0  0  0
 20 21  1  0  0  0
 22 23  1  0  0  0
 36 37  1  0  0  0
 36 23  1  0  0  0
 37 38  1  0  0  0
 37 39  1  0  0  0
 27 28  2  0  0  0
 27 32  1  0  0  0
 27 26  1  0  0  0
 28 29  1  0  0  0
 29 30  2  0  0  0
 30 31  1  0  0  0
 30 33  1  0  0  0
 31 32  2  0  0  0
 13 14  1  0  0  0
 23 26  1  0  0  0
 24 26  2  0  0  0
 25 26  2  0  0  0
  6  8  1  0  0  0
 33 34  1  0  0  0
 33 35  1  0  0  0
  2  3  1  0  0  0
M  END
> <minimizedAffinity>
-9.20330

$$$$
3NU6_478_B_401


 39 41  0  0  0  0  0  0  0  0999 V2000
  -15.9128  -19.3273  -15.2372 C   0  0  0  0  0  0  0  0  0  0  0  0
  -14.7211  -18.9163  -15.9544 O   0  0  0  0  0  0  0  0  0  0  0  0
  -14.8997  -18.9215  -16.9078 H   0  0  0  0  0  0  0  0  0  0  0  0
  -17.0599  -18.3571  -15.4505 C   0  0  0  0  0  0  0  0  0  0  0  0
  -17.1701  -17.9923  -17.9015 C   0  0  0  0  0  0  0  0  0  0  0  0
  -17.6381  -18.5231  -16.7971 N   0  0  0  0  0  0  0  0  0  0  0  0
  -16.1675  -17.2873  -17.9746 O   0  0  0  0  0  0  0  0  0  0  0  0
  -18.4456  -19.0810  -16.8738 H   0  0  0  0  0  0  0  0  0  0  0  0
  -17.9359  -18.2733  -18.9708 O   0  0  0  0  0  0  0  0  0  0  0  0
  -19.5632  -19.8705  -19.7255 C   0  0  0  0  0  0  0  0  0  0  0  0
  -20.2632  -17.7242  -19.0354 C   0  0  0  0  0  0  0  0  0  0  0  0
  -19.2454  -18.8294  -18.6665 C   0  0  0  0  0  0  0  0  0  0  0  0
  -21.0261  -18.2178  -20.2268 C   0  0  0  0  0  0  0  0  0  0  0  0
  -20.1176  -19.1171  -20.8285 O   0  0  0  0  0  0  0  0  0  0  0  0
  -18.2403  -18.4996  -14.4596 C   0  0  0  0  0  0  0  0  0  0  0  0
  -19.2900  -17.4543  -14.6161 C   0  0  0  0  0  0  0  0  0  0  0  0
  -20.5495  -17.8139  -15.0400 C   0  0  0  0  0  0  0  0  0  0  0  0
  -19.0174  -16.1005  -14.3540 C   0  0  0  0  0  0  0  0  0  0  0  0
  -21.5052  -16.8234  -15.2608 C   0  0  0  0  0  0  0  0  0  0  0  0
  -19.9456  -15.0963  -14.5251 C   0  0  0  0  0  0  0  0  0  0  0  0
  -21.1582  -15.4991  -15.0372 C   0  0  0  0  0  0  0  0  0  0  0  0
  -16.2418  -20.7317  -15.7472 C   0  0  0  0  0  0  0  0  0  0  0  0
  -15.0618  -21.3942  -16.2749 N   0  0  0  0  0  0  0  0  0  0  0  0
  -14.1030  -20.2114  -18.3115 O   0  0  0  0  0  0  0  0  0  0  0  0
  -16.2413  -21.5827  -18.4511 O   0  0  0  0  0  0  0  0  0  0  0  0
  -14.8920  -21.4385  -17.9316 S   0  0  0  0  0  0  0  0  0  0  0  0
  -13.9374  -22.7858  -18.4905 C   0  0  0  0  0  0  0  0  0  0  0  0
  -14.4557  -23.6871  -19.4072 C   0  0  0  0  0  0  0  0  0  0  0  0
  -13.5996  -24.6279  -19.9490 C   0  0  0  0  0  0  0  0  0  0  0  0
  -12.2796  -24.7342  -19.6668 C   0  0  0  0  0  0  0  0  0  0  0  0
  -11.7802  -23.9316  -18.6388 C   0  0  0  0  0  0  0  0  0  0  0  0
  -12.6057  -22.9079  -18.1451 C   0  0  0  0  0  0  0  0  0  0  0  0
  -11.5140  -25.7233  -20.1527 N   0  0  0  0  0  0  0  0  0  0  0  0
  -11.8527  -26.2972  -20.8774 H   0  0  0  0  0  0  0  0  0  0  0  0
  -10.6137  -25.8751  -19.7845 H   0  0  0  0  0  0  0  0  0  0  0  0
  -13.8543  -21.1650  -15.5119 C   0  0  0  0  0  0  0  0  0  0  0  0
  -13.3856  -22.3306  -14.6191 C   0  0  0  0  0  0  0  0  0  0  0  0
  -11.8808  -22.3435  -14.3932 C   0  0  0  0  0  0  0  0  0  0  0  0
  -14.0523  -22.1361  -13.2257 C   0  0  0  0  0  0  0  0  0  0  0  0
 10 12  1  0  0  0
 10 14  1  0  0  0
 11 12  1  0  0  0
 11 13  1  0  0  0
  5  6  1  0  0  0
  5  9  1  0  0  0
  5  7  2  0  0  0
 12  9  1  0  0  0
  4  1  1  0  0  0
  4 15  1  0  0  0
  4  6  1  0  0  0
  1 22  1  0  0  0
  1  2  1  0  0  0
 15 16  1  0  0  0
 16 17  2  0  0  0
 16 18  1  0  0  0
 17 19  1  0  0  0
 18 20  2  0  0  0
 19 21  2  0  0  0
 20 21  1  0  0  0
 22 23  1  0  0  0
 36 37  1  0  0  0
 36 23  1  0  0  0
 37 38  1  0  0  0
 37 39  1  0  0  0
 27 28  2  0  0  0
 27 32  1  0  0  0
 27 26  1  0  0  0
 28 29  1  0  0  0
 29 30  2  0  0  0
 30 31  1  0  0  0
 30 33  1  0  0  0
 31 32  2  0  0  0
 13 14  1  0  0  0
 23 26  1  0  0  0
 24 26  2  0  0  0
 25 26  2  0  0  0
  6  8  1  0  0  0
 33 34  1  0  0  0
 33 35  1  0  0  0
  2  3  1  0  0  0
M  END
> <minimizedAffinity>
-9.09630

$$$$
3NU6_478_B_401


 39 41  0  0  0  0  0  0  0  0999 V2000
  -17.0551  -21.1116  -17.4261 C   0  0  0  0  0  0  0  0  0  0  0  0
  -17.7563  -22.2296  -16.8246 O   0  0  0  0  0  0  0  0  0  0  0  0
  -18.5870  -22.3843  -17.3009 H   0  0  0  0  0  0  0  0  0  0  0  0
  -16.6626  -21.4017  -18.8630 C   0  0  0  0  0  0  0  0  0  0  0  0
  -18.5401  -20.8969  -20.4034 C   0  0  0  0  0  0  0  0  0  0  0  0
  -17.4308  -20.5536  -19.7934 N   0  0  0  0  0  0  0  0  0  0  0  0
  -19.1097  -21.9769  -20.2746 O   0  0  0  0  0  0  0  0  0  0  0  0
  -17.0805  -19.6511  -19.9723 H   0  0  0  0  0  0  0  0  0  0  0  0
  -18.9871  -19.9383  -21.2340 O   0  0  0  0  0  0  0  0  0  0  0  0
  -20.5781  -19.2841  -19.5578 C   0  0  0  0  0  0  0  0  0  0  0  0
  -20.5285  -18.1520  -21.6287 C   0  0  0  0  0  0  0  0  0  0  0  0
  -19.5772  -18.7791  -20.5822 C   0  0  0  0  0  0  0  0  0  0  0  0
  -21.9243  -18.3598  -21.1250 C   0  0  0  0  0  0  0  0  0  0  0  0
  -21.7942  -19.5055  -20.3086 O   0  0  0  0  0  0  0  0  0  0  0  0
  -15.1713  -21.1643  -19.2026 C   0  0  0  0  0  0  0  0  0  0  0  0
  -14.3281  -22.3887  -19.1088 C   0  0  0  0  0  0  0  0  0  0  0  0
  -13.2081  -22.3830  -18.3083 C   0  0  0  0  0  0  0  0  0  0  0  0
  -14.6437  -23.5502  -19.8349 C   0  0  0  0  0  0  0  0  0  0  0  0
  -12.3789  -23.5034  -18.2848 C   0  0  0  0  0  0  0  0  0  0  0  0
  -13.8696  -24.6901  -19.8100 C   0  0  0  0  0  0  0  0  0  0  0  0
  -12.7144  -24.5989  -19.0668 C   0  0  0  0  0  0  0  0  0  0  0  0
  -18.0050  -19.9173  -17.3168 C   0  0  0  0  0  0  0  0  0  0  0  0
  -17.6423  -19.0508  -16.2090 N   0  0  0  0  0  0  0  0  0  0  0  0
  -16.0388  -17.2983  -15.3015 O   0  0  0  0  0  0  0  0  0  0  0  0
  -15.5768  -18.5251  -17.4818 O   0  0  0  0  0  0  0  0  0  0  0  0
  -16.0499  -18.5714  -16.1088 S   0  0  0  0  0  0  0  0  0  0  0  0
  -15.0497  -19.6861  -15.2165 C   0  0  0  0  0  0  0  0  0  0  0  0
  -15.5901  -20.4692  -14.2086 C   0  0  0  0  0  0  0  0  0  0  0  0
  -14.7966  -21.4586  -13.6582 C   0  0  0  0  0  0  0  0  0  0  0  0
  -13.5269  -21.7390  -14.0357 C   0  0  0  0  0  0  0  0  0  0  0  0
  -12.9230  -20.8652  -14.9424 C   0  0  0  0  0  0  0  0  0  0  0  0
  -13.7380  -19.9167  -15.5823 C   0  0  0  0  0  0  0  0  0  0  0  0
  -12.7704  -22.6510  -13.4060 N   0  0  0  0  0  0  0  0  0  0  0  0
  -13.1821  -23.2736  -12.7642 H   0  0  0  0  0  0  0  0  0  0  0  0
  -11.8035  -22.6974  -13.5858 H   0  0  0  0  0  0  0  0  0  0  0  0
  -18.6353  -18.0516  -15.8797 C   0  0  0  0  0  0  0  0  0  0  0  0
  -19.2961  -18.1842  -14.4937 C   0  0  0  0  0  0  0  0  0  0  0  0
  -18.8473  -17.1116  -13.5119 C   0  0  0  0  0  0  0  0  0  0  0  0
  -20.8285  -18.0000  -14.6982 C   0  0  0  0  0  0  0  0  0  0  0  0
 10 12  1  0  0  0
 10 14  1  0  0  0
 11 12  1  0  0  0
 11 13  1  0  0  0
  5  6  1  0  0  0
  5  9  1  0  0  0
  5  7  2  0  0  0
 12  9  1  0  0  0
  4  1  1  0  0  0
  4 15  1  0  0  0
  4  6  1  0  0  0
  1 22  1  0  0  0
  1  2  1  0  0  0
 15 16  1  0  0  0
 16 17  2  0  0  0
 16 18  1  0  0  0
 17 19  1  0  0  0
 18 20  2  0  0  0
 19 21  2  0  0  0
 20 21  1  0  0  0
 22 23  1  0  0  0
 36 37  1  0  0  0
 36 23  1  0  0  0
 37 38  1  0  0  0
 37 39  1  0  0  0
 27 28  2  0  0  0
 27 32  1  0  0  0
 27 26  1  0  0  0
 28 29  1  0  0  0
 29 30  2  0  0  0
 30 31  1  0  0  0
 30 33  1  0  0  0
 31 32  2  0  0  0
 13 14  1  0  0  0
 23 26  1  0  0  0
 24 26  2  0  0  0
 25 26  2  0  0  0
  6  8  1  0  0  0
 33 34  1  0  0  0
 33 35  1  0  0  0
  2  3  1  0  0  0
M  END
> <minimizedAffinity>
-8.97014

$$$$
3NU6_478_B_401


 39 41  0  0  0  0  0  0  0  0999 V2000
  -17.2930  -20.9240  -17.3995 C   0  0  0  0  0  0  0  0  0  0  0  0
  -17.9204  -22.1559  -16.9612 O   0  0  0  0  0  0  0  0  0  0  0  0
  -18.8009  -22.2305  -17.3613 H   0  0  0  0  0  0  0  0  0  0  0  0
  -17.0702  -20.9097  -18.9004 C   0  0  0  0  0  0  0  0  0  0  0  0
  -14.6989  -21.5746  -19.1957 C   0  0  0  0  0  0  0  0  0  0  0  0
  -15.9825  -21.8330  -19.2737 N   0  0  0  0  0  0  0  0  0  0  0  0
  -14.2155  -20.5239  -18.7838 O   0  0  0  0  0  0  0  0  0  0  0  0
  -16.2425  -22.7207  -19.6109 H   0  0  0  0  0  0  0  0  0  0  0  0
  -13.9425  -22.5868  -19.6564 O   0  0  0  0  0  0  0  0  0  0  0  0
  -12.0770  -23.3498  -18.3500 C   0  0  0  0  0  0  0  0  0  0  0  0
  -13.4853  -24.9216  -19.4079 C   0  0  0  0  0  0  0  0  0  0  0  0
  -13.5477  -23.5694  -18.6588 C   0  0  0  0  0  0  0  0  0  0  0  0
  -12.0423  -25.3218  -19.4601 C   0  0  0  0  0  0  0  0  0  0  0  0
  -11.3711  -24.0813  -19.3786 O   0  0  0  0  0  0  0  0  0  0  0  0
  -18.2925  -21.3236  -19.7550 C   0  0  0  0  0  0  0  0  0  0  0  0
  -19.1163  -20.1757  -20.2269 C   0  0  0  0  0  0  0  0  0  0  0  0
  -18.4990  -19.0005  -20.5914 C   0  0  0  0  0  0  0  0  0  0  0  0
  -20.5178  -20.2613  -20.2939 C   0  0  0  0  0  0  0  0  0  0  0  0
  -19.2781  -17.9038  -20.9568 C   0  0  0  0  0  0  0  0  0  0  0  0
  -21.3207  -19.2116  -20.6846 C   0  0  0  0  0  0  0  0  0  0  0  0
  -20.6592  -18.0339  -20.9497 C   0  0  0  0  0  0  0  0  0  0  0  0
  -18.2230  -19.7982  -16.9429 C   0  0  0  0  0  0  0  0  0  0  0  0
  -17.7305  -19.1608  -15.7343 N   0  0  0  0  0  0  0  0  0  0  0  0
  -16.1839  -17.3231  -14.8994 O   0  0  0  0  0  0  0  0  0  0  0  0
  -15.8659  -18.3964  -17.1840 O   0  0  0  0  0  0  0  0  0  0  0  0
  -16.1806  -18.5511  -15.7739 S   0  0  0  0  0  0  0  0  0  0  0  0
  -15.0022  -19.6178  -15.0581 C   0  0  0  0  0  0  0  0  0  0  0  0
  -15.4015  -20.6751  -14.2556 C   0  0  0  0  0  0  0  0  0  0  0  0
  -14.4431  -21.5906  -13.8623 C   0  0  0  0  0  0  0  0  0  0  0  0
  -13.1354  -21.5482  -14.2114 C   0  0  0  0  0  0  0  0  0  0  0  0
  -12.6936  -20.4124  -14.8933 C   0  0  0  0  0  0  0  0  0  0  0  0
  -13.6634  -19.5221  -15.3835 C   0  0  0  0  0  0  0  0  0  0  0  0
  -12.2299  -22.4121  -13.7276 N   0  0  0  0  0  0  0  0  0  0  0  0
  -12.5265  -23.2171  -13.2447 H   0  0  0  0  0  0  0  0  0  0  0  0
  -11.2688  -22.2409  -13.8555 H   0  0  0  0  0  0  0  0  0  0  0  0
  -18.7149  -18.3666  -15.0320 C   0  0  0  0  0  0  0  0  0  0  0  0
  -19.9321  -17.9094  -15.8594 C   0  0  0  0  0  0  0  0  0  0  0  0
  -21.1598  -17.6203  -15.0080 C   0  0  0  0  0  0  0  0  0  0  0  0
  -19.5368  -16.5735  -16.5546 C   0  0  0  0  0  0  0  0  0  0  0  0
 10 12  1  0  0  0
 10 14  1  0  0  0
 11 12  1  0  0  0
 11 13  1  0  0  0
  5  6  1  0  0  0
  5  9  1  0  0  0
  5  7  2  0  0  0
 12  9  1  0  0  0
  4  1  1  0  0  0
  4 15  1  0  0  0
  4  6  1  0  0  0
  1 22  1  0  0  0
  1  2  1  0  0  0
 15 16  1  0  0  0
 16 17  2  0  0  0
 16 18  1  0  0  0
 17 19  1  0  0  0
 18 20  2  0  0  0
 19 21  2  0  0  0
 20 21  1  0  0  0
 22 23  1  0  0  0
 36 37  1  0  0  0
 36 23  1  0  0  0
 37 38  1  0  0  0
 37 39  1  0  0  0
 27 28  2  0  0  0
 27 32  1  0  0  0
 27 26  1  0  0  0
 28 29  1  0  0  0
 29 30  2  0  0  0
 30 31  1  0  0  0
 30 33  1  0  0  0
 31 32  2  0  0  0
 13 14  1  0  0  0
 23 26  1  0  0  0
 24 26  2  0  0  0
 25 26  2  0  0  0
  6  8  1  0  0  0
 33 34  1  0  0  0
 33 35  1  0  0  0
  2  3  1  0  0  0
M  END
> <minimizedAffinity>
-8.91787

$$$$
3NU6_478_B_401


 39 41  0  0  0  0  0  0  0  0999 V2000
  -16.8686  -18.5342  -15.0069 C   0  0  0  0  0  0  0  0  0  0  0  0
  -15.7534  -18.0503  -15.7978 O   0  0  0  0  0  0  0  0  0  0  0  0
  -15.8216  -18.3992  -16.7003 H   0  0  0  0  0  0  0  0  0  0  0  0
  -18.1974  -18.0371  -15.5456 C   0  0  0  0  0  0  0  0  0  0  0  0
  -18.1907  -18.7791  -17.9124 C   0  0  0  0  0  0  0  0  0  0  0  0
  -18.6400  -18.8649  -16.6831 N   0  0  0  0  0  0  0  0  0  0  0  0
  -17.3200  -18.0009  -18.2916 O   0  0  0  0  0  0  0  0  0  0  0  0
  -19.3331  -19.5407  -16.5042 H   0  0  0  0  0  0  0  0  0  0  0  0
  -18.8181  -19.6252  -18.7486 O   0  0  0  0  0  0  0  0  0  0  0  0
  -19.5034  -19.3156  -21.0297 C   0  0  0  0  0  0  0  0  0  0  0  0
  -18.0668  -21.1039  -20.4722 C   0  0  0  0  0  0  0  0  0  0  0  0
  -18.3276  -19.6207  -20.1183 C   0  0  0  0  0  0  0  0  0  0  0  0
  -19.0841  -21.4887  -21.5029 C   0  0  0  0  0  0  0  0  0  0  0  0
  -20.1458  -20.5936  -21.2431 O   0  0  0  0  0  0  0  0  0  0  0  0
  -19.3671  -18.0452  -14.5321 C   0  0  0  0  0  0  0  0  0  0  0  0
  -20.2891  -16.8826  -14.6645 C   0  0  0  0  0  0  0  0  0  0  0  0
  -21.4647  -17.0239  -15.3667 C   0  0  0  0  0  0  0  0  0  0  0  0
  -19.9766  -15.6345  -14.0984 C   0  0  0  0  0  0  0  0  0  0  0  0
  -22.2862  -15.9135  -15.5551 C   0  0  0  0  0  0  0  0  0  0  0  0
  -20.7797  -14.5226  -14.2313 C   0  0  0  0  0  0  0  0  0  0  0  0
  -21.8955  -14.6953  -15.0189 C   0  0  0  0  0  0  0  0  0  0  0  0
  -16.7682  -20.0605  -15.0363 C   0  0  0  0  0  0  0  0  0  0  0  0
  -15.4486  -20.4972  -15.4576 N   0  0  0  0  0  0  0  0  0  0  0  0
  -14.9509  -20.4430  -12.9645 O   0  0  0  0  0  0  0  0  0  0  0  0
  -13.3301  -19.4719  -14.6681 O   0  0  0  0  0  0  0  0  0  0  0  0
  -14.2530  -20.5313  -14.2979 S   0  0  0  0  0  0  0  0  0  0  0  0
  -13.3771  -22.0379  -14.2554 C   0  0  0  0  0  0  0  0  0  0  0  0
  -12.3799  -22.3018  -15.1812 C   0  0  0  0  0  0  0  0  0  0  0  0
  -11.6000  -23.4278  -14.9933 C   0  0  0  0  0  0  0  0  0  0  0  0
  -11.7209  -24.2958  -13.9611 C   0  0  0  0  0  0  0  0  0  0  0  0
  -12.8124  -24.1238  -13.1072 C   0  0  0  0  0  0  0  0  0  0  0  0
  -13.5560  -22.9377  -13.2229 C   0  0  0  0  0  0  0  0  0  0  0  0
  -10.9970  -25.4224  -13.8757 N   0  0  0  0  0  0  0  0  0  0  0  0
  -10.2248  -25.5576  -14.4711 H   0  0  0  0  0  0  0  0  0  0  0  0
  -11.2382  -26.1137  -13.2175 H   0  0  0  0  0  0  0  0  0  0  0  0
  -15.4533  -21.5890  -16.4068 C   0  0  0  0  0  0  0  0  0  0  0  0
  -15.3692  -21.1940  -17.8941 C   0  0  0  0  0  0  0  0  0  0  0  0
  -14.4043  -20.0466  -18.1548 C   0  0  0  0  0  0  0  0  0  0  0  0
  -14.8228  -22.4310  -18.6656 C   0  0  0  0  0  0  0  0  0  0  0  0
 10 12  1  0  0  0
 10 14  1  0  0  0
 11 12  1  0  0  0
 11 13  1  0  0  0
  5  6  1  0  0  0
  5  9  1  0  0  0
  5  7  2  0  0  0
 12  9  1  0  0  0
  4  1  1  0  0  0
  4 15  1  0  0  0
  4  6  1  0  0  0
  1 22  1  0  0  0
  1  2  1  0  0  0
 15 16  1  0  0  0
 16 17  2  0  0  0
 16 18  1  0  0  0
 17 19  1  0  0  0
 18 20  2  0  0  0
 19 21  2  0  0  0
 20 21  1  0  0  0
 22 23  1  0  0  0
 36 37  1  0  0  0
 36 23  1  0  0  0
 37 38  1  0  0  0
 37 39  1  0  0  0
 27 28  2  0  0  0
 27 32  1  0  0  0
 27 26  1  0  0  0
 28 29  1  0  0  0
 29 30  2  0  0  0
 30 31  1  0  0  0
 30 33  1  0  0  0
 31 32  2  0  0  0
 13 14  1  0  0  0
 23 26  1  0  0  0
 24 26  2  0  0  0
 25 26  2  0  0  0
  6  8  1  0  0  0
 33 34  1  0  0  0
 33 35  1  0  0  0
  2  3  1  0  0  0
M  END
> <minimizedAffinity>
-8.91217

$$$$
