3NU6_478_B_401
  RCSB PDB12061709583D
Coordinates from PDB:3NU6:B:401 Model:1 without hydrogens
 35 37  0  0  0  0            999 V2000
  -11.9900  -24.6880  -19.3970   C 0  0  0  0  0  0  0  0  0  0  0  0
  -13.9150  -23.8220  -20.4540   C 0  0  0  0  0  0  0  0  0  0  0  0
  -14.1500  -22.1040  -18.0070   C 0  0  0  0  0  0  0  0  0  0  0  0
  -13.3290  -24.0650  -19.0430   C 0  0  0  0  0  0  0  0  0  0  0  0
  -14.8120  -19.9740  -16.9220   C 0  0  0  0  0  0  0  0  0  0  0  0
  -15.2430  -18.8940  -17.8970   C 0  0  0  0  0  0  0  0  0  0  0  0
  -14.1110  -19.4660  -15.6390   C 0  0  0  0  0  0  0  0  0  0  0  0
  -13.7570  -20.5460  -14.6760   C 0  0  0  0  0  0  0  0  0  0  0  0
  -12.4640  -21.0160  -14.6270   C 0  0  0  0  0  0  0  0  0  0  0  0
  -14.7220  -21.1090  -13.8230   C 0  0  0  0  0  0  0  0  0  0  0  0
  -12.1550  -22.0800  -13.7810   C 0  0  0  0  0  0  0  0  0  0  0  0
  -14.4480  -22.1370  -12.9470   C 0  0  0  0  0  0  0  0  0  0  0  0
  -13.1640  -22.6300  -13.0040   C 0  0  0  0  0  0  0  0  0  0  0  0
  -16.3410  -17.9990  -17.3190   C 0  0  0  0  0  0  0  0  0  0  0  0
  -18.5200  -18.2820  -18.3750   C 0  0  0  0  0  0  0  0  0  0  0  0
  -18.2440  -18.9080  -19.7560   C 0  0  0  0  0  0  0  0  0  0  0  0
  -19.1650  -17.5650  -15.1850   C 0  0  0  0  0  0  0  0  0  0  0  0
  -18.5000  -16.6370  -14.3990   C 0  0  0  0  0  0  0  0  0  0  0  0
  -19.1630  -15.4690  -14.0710   C 0  0  0  0  0  0  0  0  0  0  0  0
  -20.4160  -15.1460  -14.4700   C 0  0  0  0  0  0  0  0  0  0  0  0
  -21.1480  -16.1320  -15.1350   C 0  0  0  0  0  0  0  0  0  0  0  0
  -20.4640  -17.2830  -15.5600   C 0  0  0  0  0  0  0  0  0  0  0  0
  -18.3640  -20.4250  -19.7600   C 0  0  0  0  0  0  0  0  0  0  0  0
  -19.3300  -18.3640  -20.7300   C 0  0  0  0  0  0  0  0  0  0  0  0
  -12.8910  -24.3020  -21.4370   C 0  0  0  0  0  0  0  0  0  0  0  0
  -13.8630  -20.9040  -17.5620   N 0  0  0  0  0  0  0  0  0  0  0  0
  -17.6260  -18.6760  -17.3080   N 0  0  0  0  0  0  0  0  0  0  0  0
  -21.0460  -14.0390  -14.0480   N 0  0  0  0  0  0  0  0  0  0  0  0
  -13.0710  -22.7430  -18.4930   O 0  0  0  0  0  0  0  0  0  0  0  0
  -15.2620  -22.6230  -17.9670   O 0  0  0  0  0  0  0  0  0  0  0  0
  -14.1470  -18.0060  -18.2340   O 0  0  0  0  0  0  0  0  0  0  0  0
  -17.1940  -19.2070  -14.8590   O 0  0  0  0  0  0  0  0  0  0  0  0
  -19.2940  -20.0140  -16.0470   O 0  0  0  0  0  0  0  0  0  0  0  0
  -11.6830  -24.1780  -20.7150   O 0  0  0  0  0  0  0  0  0  0  0  0
  -18.3260  -18.9540  -15.8220   S 0  0  0  0  0  0  0  0  0  0  0  0
  1  4  1  0  0  0  0
  1 34  1  0  0  0  0
  2  4  1  0  0  0  0
  2 25  1  0  0  0  0
  3 26  1  0  0  0  0
  3 29  1  0  0  0  0
  3 30  2  0  0  0  0
  4 29  1  0  0  0  0
  5  6  1  0  0  0  0
  5  7  1  0  0  0  0
  5 26  1  0  0  0  0
  6 14  1  0  0  0  0
  6 31  1  0  0  0  0
  7  8  1  0  0  0  0
  8  9  2  0  0  0  0
  8 10  1  0  0  0  0
  9 11  1  0  0  0  0
 10 12  2  0  0  0  0
 11 13  2  0  0  0  0
 12 13  1  0  0  0  0
 14 27  1  0  0  0  0
 15 16  1  0  0  0  0
 15 27  1  0  0  0  0
 16 23  1  0  0  0  0
 16 24  1  0  0  0  0
 17 18  2  0  0  0  0
 17 22  1  0  0  0  0
 17 35  1  0  0  0  0
 18 19  1  0  0  0  0
 19 20  2  0  0  0  0
 20 21  1  0  0  0  0
 20 28  1  0  0  0  0
 21 22  2  0  0  0  0
 25 34  1  0  0  0  0
 27 35  1  0  0  0  0
 32 35  2  0  0  0  0
 33 35  2  0  0  0  0
A    1
C1
A    2
C2
A    3
C3
A    4
C4
A    5
C5
A    6
C6
A    7
C7
A    8
C8
A    9
C9
A   10
C10
A   11
C11
A   12
C12
A   13
C13
A   14
C14
A   15
C15
A   16
C16
A   17
C17
A   18
C18
A   19
C19
A   20
C20
A   21
C21
A   22
C22
A   23
C23
A   24
C24
A   25
C25
A   26
N1
A   27
N2
A   28
N3
A   29
O1
A   30
O2
A   31
O3
A   32
O4
A   33
O5
A   34
O6
A   35
S1
M  END
>  <InstanceId>
3NU6_478_B_401

>  <ChemCompId>
478

>  <PdbId>
3NU6

>  <ChainId>
B

>  <ResidueNumber>
401

>  <InsertionCode>


>  <Model>
1

>  <AltIds>


>  <MissingHeavyAtoms>
0

>  <ObservedFormula>
C25 N3 O6 S

>  <Name>
{3-[(4-AMINO-BENZENESULFONYL)-ISOBUTYL-AMINO]-1-BENZYL-2-HYDROXY-PROPYL}-CARBAMIC ACID TETRAHYDRO-FURAN-3-YL ESTER

>  <SystematicName>
[(3S)-oxolan-3-yl] N-[(2S,3R)-4-[(4-aminophenyl)sulfonyl-(2-methylpropyl)amino]-3-hydroxy-1-phenyl-butan-2-yl]carbamate

>  <Synonyms>
Amprenavir

>  <Type>
NON-POLYMER

>  <Formula>
C25 H35 N3 O6 S

>  <MolecularWeight>
505.627

>  <ModifiedDate>
2011-06-04

>  <Parent>


>  <OneLetterCode>


>  <SubcomponentList>


>  <AmbiguousFlag>
N

>  <InChI>
InChI=1S/C25H35N3O6S/c1-18(2)15-28(35(31,32)22-10-8-20(26)9-11-22)16-24(29)23(14-19-6-4-3-5-7-19)27-25(30)34-21-12-13-33-17-21/h3-11,18,21,23-24,29H,12-17,26H2,1-2H3,(H,27,30)/t21-,23-,24+/m0/s1

>  <InChIKey>
YMARZQAQMVYCKC-OEMFJLHTSA-N

>  <SMILES>
CC(C)C[N@](C[C@H]([C@H](Cc1ccccc1)NC(=O)O[C@H]2CCOC2)O)S(=O)(=O)c3ccc(cc3)N

$$$$
