5UCJ_KU3_A_301


 26 29  0  0  0  0  0  0  0  0999 V2000
  -22.2568  101.5706    0.8389 C   0  0  0  0  0  0  0  0  0  0  0  0
  -23.4183  102.2905    1.0964 C   0  0  0  0  0  0  0  0  0  0  0  0
  -24.6638  101.6789    0.8960 C   0  0  0  0  0  0  0  0  0  0  0  0
  -24.7690  100.3695    0.4497 C   0  0  0  0  0  0  0  0  0  0  0  0
  -26.0276   99.7960    0.2737 O   0  0  0  0  0  0  0  0  0  0  0  0
  -23.6031   99.6459    0.1761 C   0  0  0  0  0  0  0  0  0  0  0  0
  -22.3626  100.2448    0.3685 C   0  0  0  0  0  0  0  0  0  0  0  0
  -21.4259   99.3634    0.0362 O   0  0  0  0  0  0  0  0  0  0  0  0
  -21.9980   98.2188   -0.3518 N   0  0  0  0  0  0  0  0  0  0  0  0
  -23.3338   98.2812   -0.3077 C   0  0  0  0  0  0  0  0  0  0  0  0
  -26.1015   98.9119   -0.0276 H   0  0  0  0  0  0  0  0  0  0  0  0
  -25.9068  102.4809    1.1994 C   0  0  0  0  0  0  0  0  0  0  0  0
  -26.5435  103.0833    0.4027 O   0  0  0  0  0  0  0  0  0  0  0  0
  -26.2606  102.5479    2.5717 N   0  0  0  0  0  0  0  0  0  0  0  0
  -25.6161  101.8411    3.6588 C   0  0  0  0  0  0  0  0  0  0  0  0
  -26.5891  102.0013    4.8266 C   0  0  0  0  0  0  0  0  0  0  0  0
  -27.6094  102.8440    4.4617 C   0  0  0  0  0  0  0  0  0  0  0  0
  -27.4233  103.3025    3.0103 C   0  0  0  0  0  0  0  0  0  0  0  0
  -28.6391  103.1620    5.3648 C   0  0  0  0  0  0  0  0  0  0  0  0
  -28.5876  102.6144    6.6335 C   0  0  0  0  0  0  0  0  0  0  0  0
  -29.5766  102.9176    7.5180 F   0  0  0  0  0  0  0  0  0  0  0  0
  -27.5597  101.7609    7.0110 C   0  0  0  0  0  0  0  0  0  0  0  0
  -26.5414  101.4471    6.1208 C   0  0  0  0  0  0  0  0  0  0  0  0
  -20.6747  102.9088    2.3188 C   0  0  0  0  0  0  0  0  0  0  0  0
  -20.8810  102.2066    0.9904 C   0  0  0  0  0  0  0  0  0  0  0  0
  -20.7328  103.2008   -0.1762 C   0  0  0  0  0  0  0  0  0  0  0  0
  9 10  2  0  0  0
  9  8  1  0  0  0
 10  6  1  0  0  0
 24 25  1  0  0  0
  8  7  1  0  0  0
  6  7  2  0  0  0
  6  4  1  0  0  0
  5  4  1  0  0  0
  7  1  1  0  0  0
  4  3  2  0  0  0
 13 12  2  0  0  0
  1 25  1  0  0  0
  1  2  2  0  0  0
  3  2  1  0  0  0
  3 12  1  0  0  0
 25 26  1  0  0  0
 12 14  1  0  0  0
 14 18  1  0  0  0
 14 15  1  0  0  0
 18 17  1  0  0  0
 15 16  1  0  0  0
 17 16  2  0  0  0
 17 19  1  0  0  0
 16 23  1  0  0  0
 19 20  2  0  0  0
 23 22  2  0  0  0
 20 22  1  0  0  0
 20 21  1  0  0  0
  5 11  1  0  0  0
M  END
> <minimizedAffinity>
-11.18817

$$$$
5UCJ_KU3_A_301


 26 29  0  0  0  0  0  0  0  0999 V2000
  -22.6103  102.0259    0.6438 C   0  0  0  0  0  0  0  0  0  0  0  0
  -22.6025  102.9565    1.6770 C   0  0  0  0  0  0  0  0  0  0  0  0
  -23.6431  102.9481    2.6164 C   0  0  0  0  0  0  0  0  0  0  0  0
  -24.6817  102.0311    2.5449 C   0  0  0  0  0  0  0  0  0  0  0  0
  -25.6913  102.0507    3.5062 O   0  0  0  0  0  0  0  0  0  0  0  0
  -24.7008  101.1017    1.4991 C   0  0  0  0  0  0  0  0  0  0  0  0
  -23.6749  101.1040    0.5600 C   0  0  0  0  0  0  0  0  0  0  0  0
  -23.9243  100.1426   -0.3220 O   0  0  0  0  0  0  0  0  0  0  0  0
  -25.0559   99.5099    0.0053 N   0  0  0  0  0  0  0  0  0  0  0  0
  -25.6190  100.0190    1.1070 C   0  0  0  0  0  0  0  0  0  0  0  0
  -26.3940  101.4325    3.4603 H   0  0  0  0  0  0  0  0  0  0  0  0
  -23.5986  103.9607    3.7358 C   0  0  0  0  0  0  0  0  0  0  0  0
  -24.5334  104.5493    4.1631 O   0  0  0  0  0  0  0  0  0  0  0  0
  -22.3026  104.2501    4.2354 N   0  0  0  0  0  0  0  0  0  0  0  0
  -21.0699  103.5939    3.8527 C   0  0  0  0  0  0  0  0  0  0  0  0
  -20.0705  104.0432    4.9182 C   0  0  0  0  0  0  0  0  0  0  0  0
  -20.6578  104.9791    5.7328 C   0  0  0  0  0  0  0  0  0  0  0  0
  -22.1091  105.2208    5.3003 C   0  0  0  0  0  0  0  0  0  0  0  0
  -19.9434  105.5590    6.7959 C   0  0  0  0  0  0  0  0  0  0  0  0
  -18.6301  105.1714    6.9887 C   0  0  0  0  0  0  0  0  0  0  0  0
  -17.9267  105.7284    8.0123 F   0  0  0  0  0  0  0  0  0  0  0  0
  -18.0282  104.2254    6.1701 C   0  0  0  0  0  0  0  0  0  0  0  0
  -18.7320  103.6529    5.1190 C   0  0  0  0  0  0  0  0  0  0  0  0
  -20.6472  100.7953   -0.4127 C   0  0  0  0  0  0  0  0  0  0  0  0
  -21.5313  102.0275   -0.4315 C   0  0  0  0  0  0  0  0  0  0  0  0
  -20.6931  103.2987   -0.2019 C   0  0  0  0  0  0  0  0  0  0  0  0
  9 10  2  0  0  0
  9  8  1  0  0  0
 10  6  1  0  0  0
 24 25  1  0  0  0
  8  7  1  0  0  0
  6  7  2  0  0  0
  6  4  1  0  0  0
  5  4  1  0  0  0
  7  1  1  0  0  0
  4  3  2  0  0  0
 13 12  2  0  0  0
  1 25  1  0  0  0
  1  2  2  0  0  0
  3  2  1  0  0  0
  3 12  1  0  0  0
 25 26  1  0  0  0
 12 14  1  0  0  0
 14 18  1  0  0  0
 14 15  1  0  0  0
 18 17  1  0  0  0
 15 16  1  0  0  0
 17 16  2  0  0  0
 17 19  1  0  0  0
 16 23  1  0  0  0
 19 20  2  0  0  0
 23 22  2  0  0  0
 20 22  1  0  0  0
 20 21  1  0  0  0
  5 11  1  0  0  0
M  END
> <minimizedAffinity>
-8.46459

$$$$
