4ABD_SW2_A_1252
  RCSB PDB12061711383D
Coordinates from PDB:4ABD:A:1252 Model:1 without hydrogens
 13 14  0  0  0  0            999 V2000
    1.8020  -15.9750   18.3730   C 0  0  0  0  0  0  0  0  0  0  0  0
    3.0920  -15.7910   19.0890   N 0  0  0  0  0  0  0  0  0  0  0  0
    1.7080  -15.0870   17.1570   C 0  0  0  0  0  0  0  0  0  0  0  0
    3.0760  -11.9760   15.5910   N 0  0  0  0  0  0  0  0  0  0  0  0
    1.0770  -15.5940   16.0440   C 0  0  0  0  0  0  0  0  0  0  0  0
    1.1010  -14.9570   14.8260   C 0  0  0  0  0  0  0  0  0  0  0  0
    1.7340  -13.7140   14.6810   C 0  0  0  0  0  0  0  0  0  0  0  0
    2.3580  -13.2090   15.7950   C 0  0  0  0  0  0  0  0  0  0  0  0
    2.8670  -11.0380   14.6150   C 0  0  0  0  0  0  0  0  0  0  0  0
    3.7200   -9.9510   14.7630   C 0  0  0  0  0  0  0  0  0  0  0  0
    4.4440  -10.3570   15.9070   C 0  0  0  0  0  0  0  0  0  0  0  0
    4.1250  -11.5900   16.3960   C 0  0  0  0  0  0  0  0  0  0  0  0
    2.3900  -13.8880   16.9880   C 0  0  0  0  0  0  0  0  0  0  0  0
  1  2  1  0  0  0  0
  1  3  1  0  0  0  0
  3  5  2  0  0  0  0
  3 13  1  0  0  0  0
  4  8  1  0  0  0  0
  4  9  1  0  0  0  0
  4 12  1  0  0  0  0
  5  6  1  0  0  0  0
  6  7  2  0  0  0  0
  7  8  1  0  0  0  0
  8 13  2  0  0  0  0
  9 10  2  0  0  0  0
 10 11  1  0  0  0  0
 11 12  2  0  0  0  0
A    1
C1
A    2
N1
A    3
C2
A    4
N2
A    5
C3
A    6
C4
A    7
C5
A    8
C6
A    9
C7
A   10
C8
A   11
C9
A   12
C10
A   13
C11
M  END
>  <InstanceId>
4ABD_SW2_A_1252

>  <ChemCompId>
SW2

>  <PdbId>
4ABD

>  <ChainId>
A

>  <ResidueNumber>
1252

>  <InsertionCode>


>  <Model>
1

>  <AltIds>


>  <MissingHeavyAtoms>
0

>  <ObservedFormula>
C11 N2

>  <Name>
1-[3-(1H-pyrrol-1-yl)phenyl]methanamine

>  <SystematicName>
(3-pyrrol-1-ylphenyl)methanamine

>  <Synonyms>


>  <Type>
NON-POLYMER

>  <Formula>
C11 H12 N2

>  <MolecularWeight>
172.226

>  <ModifiedDate>
2011-08-19

>  <Parent>


>  <OneLetterCode>


>  <SubcomponentList>


>  <AmbiguousFlag>
N

>  <InChI>
InChI=1S/C11H12N2/c12-9-10-4-3-5-11(8-10)13-6-1-2-7-13/h1-8H,9,12H2

>  <InChIKey>
XLBYUDUEHVKUKQ-UHFFFAOYSA-N

>  <SMILES>
c1ccn(c1)c2cccc(c2)CN

$$$$
