5J7Q_6H2_A_201


 19 21  0  0  0  0  0  0  0  0999 V2000
  -17.9389   -2.2535  -25.5405 C   0  0  0  0  0  0  0  0  0  0  0  0
  -17.9558   -1.6195  -26.7834 C   0  0  0  0  0  0  0  0  0  0  0  0
  -17.4927   -2.2737  -27.9165 C   0  0  0  0  0  0  0  0  0  0  0  0
  -16.9300   -3.5411  -27.8198 C   0  0  0  0  0  0  0  0  0  0  0  0
  -16.8471   -4.1763  -26.5719 C   0  0  0  0  0  0  0  0  0  0  0  0
  -17.3242   -3.5160  -25.4234 C   0  0  0  0  0  0  0  0  0  0  0  0
  -16.4913   -4.1494  -28.9668 O   0  0  0  0  0  0  0  0  0  0  0  0
  -17.5942   -1.6437  -29.1210 O   0  0  0  0  0  0  0  0  0  0  0  0
  -16.5578   -3.7038  -29.7883 H   0  0  0  0  0  0  0  0  0  0  0  0
  -17.2878   -2.0673  -29.8986 H   0  0  0  0  0  0  0  0  0  0  0  0
  -18.3463   -1.4686  -24.3523 C   0  0  0  0  0  0  0  0  0  0  0  0
  -19.0783   -1.9956  -23.3231 N   0  0  0  0  0  0  0  0  0  0  0  0
  -19.1456   -1.0454  -22.3839 C   0  0  0  0  0  0  0  0  0  0  0  0
  -18.4616    0.0830  -22.8173 N   0  0  0  0  0  0  0  0  0  0  0  0
  -17.9531   -0.2297  -24.0334 C   0  0  0  0  0  0  0  0  0  0  0  0
  -19.7551   -0.9592  -21.1464 C   0  0  0  0  0  0  0  0  0  0  0  0
  -19.6262    0.2018  -20.4130 C   0  0  0  0  0  0  0  0  0  0  0  0
  -18.9180    1.2957  -20.8741 C   0  0  0  0  0  0  0  0  0  0  0  0
  -18.3369    1.2202  -22.0900 C   0  0  0  0  0  0  0  0  0  0  0  0
  7  4  1  0  0  0
  8  3  1  0  0  0
  4  3  2  0  0  0
  4  5  1  0  0  0
  3  2  1  0  0  0
  5  6  2  0  0  0
  2  1  2  0  0  0
  6  1  1  0  0  0
  1 11  1  0  0  0
 11 15  2  0  0  0
 11 12  1  0  0  0
 15 14  1  0  0  0
 12 13  2  0  0  0
 14 13  1  0  0  0
 14 19  1  0  0  0
 13 16  1  0  0  0
 19 18  2  0  0  0
 16 17  2  0  0  0
 18 17  1  0  0  0
  7  9  1  0  0  0
  8 10  1  0  0  0
M  END
> <minimizedAffinity>
-8.48184

$$$$
5J7Q_6H2_A_201


 19 21  0  0  0  0  0  0  0  0999 V2000
  -18.5597   -0.4037  -22.9382 C   0  0  0  0  0  0  0  0  0  0  0  0
  -18.2900    0.8642  -22.4219 C   0  0  0  0  0  0  0  0  0  0  0  0
  -18.6493    1.1883  -21.1210 C   0  0  0  0  0  0  0  0  0  0  0  0
  -19.3555    0.2833  -20.3371 C   0  0  0  0  0  0  0  0  0  0  0  0
  -19.6910   -0.9769  -20.8538 C   0  0  0  0  0  0  0  0  0  0  0  0
  -19.3195   -1.3089  -22.1708 C   0  0  0  0  0  0  0  0  0  0  0  0
  -19.6838    0.6461  -19.0570 O   0  0  0  0  0  0  0  0  0  0  0  0
  -18.3025    2.4135  -20.6342 O   0  0  0  0  0  0  0  0  0  0  0  0
  -19.4482    1.4941  -18.7354 H   0  0  0  0  0  0  0  0  0  0  0  0
  -18.5352    2.6527  -19.7587 H   0  0  0  0  0  0  0  0  0  0  0  0
  -18.2490   -0.6559  -24.3643 C   0  0  0  0  0  0  0  0  0  0  0  0
  -18.5824    0.2134  -25.3672 N   0  0  0  0  0  0  0  0  0  0  0  0
  -18.0390   -0.2772  -26.4868 C   0  0  0  0  0  0  0  0  0  0  0  0
  -17.3660   -1.4568  -26.1962 N   0  0  0  0  0  0  0  0  0  0  0  0
  -17.4941   -1.6434  -24.8605 C   0  0  0  0  0  0  0  0  0  0  0  0
  -18.0413    0.1210  -27.8103 C   0  0  0  0  0  0  0  0  0  0  0  0
  -17.3640   -0.6379  -28.7418 C   0  0  0  0  0  0  0  0  0  0  0  0
  -16.6887   -1.7963  -28.4054 C   0  0  0  0  0  0  0  0  0  0  0  0
  -16.7001   -2.1966  -27.1165 C   0  0  0  0  0  0  0  0  0  0  0  0
  7  4  1  0  0  0
  8  3  1  0  0  0
  4  3  2  0  0  0
  4  5  1  0  0  0
  3  2  1  0  0  0
  5  6  2  0  0  0
  2  1  2  0  0  0
  6  1  1  0  0  0
  1 11  1  0  0  0
 11 15  2  0  0  0
 11 12  1  0  0  0
 15 14  1  0  0  0
 12 13  2  0  0  0
 14 13  1  0  0  0
 14 19  1  0  0  0
 13 16  1  0  0  0
 19 18  2  0  0  0
 16 17  2  0  0  0
 18 17  1  0  0  0
  7  9  1  0  0  0
  8 10  1  0  0  0
M  END
> <minimizedAffinity>
-8.35534

$$$$
5J7Q_6H2_A_201


 19 21  0  0  0  0  0  0  0  0999 V2000
  -18.0321   -1.8118  -25.6156 C   0  0  0  0  0  0  0  0  0  0  0  0
  -17.3605   -3.0332  -25.5527 C   0  0  0  0  0  0  0  0  0  0  0  0
  -17.0466   -3.7273  -26.7130 C   0  0  0  0  0  0  0  0  0  0  0  0
  -17.4663   -3.2578  -27.9522 C   0  0  0  0  0  0  0  0  0  0  0  0
  -18.1949   -2.0622  -28.0371 C   0  0  0  0  0  0  0  0  0  0  0  0
  -18.5065   -1.3537  -26.8608 C   0  0  0  0  0  0  0  0  0  0  0  0
  -17.1282   -3.9746  -29.0702 O   0  0  0  0  0  0  0  0  0  0  0  0
  -16.3270   -4.8804  -26.6091 O   0  0  0  0  0  0  0  0  0  0  0  0
  -16.6408   -4.7705  -28.9867 H   0  0  0  0  0  0  0  0  0  0  0  0
  -16.1043   -5.3646  -27.3798 H   0  0  0  0  0  0  0  0  0  0  0  0
  -18.4328   -1.1706  -24.3419 C   0  0  0  0  0  0  0  0  0  0  0  0
  -19.0643   -1.8444  -23.3319 N   0  0  0  0  0  0  0  0  0  0  0  0
  -19.1530   -0.9894  -22.3069 C   0  0  0  0  0  0  0  0  0  0  0  0
  -18.5830    0.2249  -22.6665 N   0  0  0  0  0  0  0  0  0  0  0  0
  -18.1194    0.0634  -23.9292 C   0  0  0  0  0  0  0  0  0  0  0  0
  -19.6983   -1.0628  -21.0391 C   0  0  0  0  0  0  0  0  0  0  0  0
  -19.6193    0.0357  -20.2087 C   0  0  0  0  0  0  0  0  0  0  0  0
  -19.0240    1.2202  -20.6002 C   0  0  0  0  0  0  0  0  0  0  0  0
  -18.5065    1.3000  -21.8442 C   0  0  0  0  0  0  0  0  0  0  0  0
  7  4  1  0  0  0
  8  3  1  0  0  0
  4  3  2  0  0  0
  4  5  1  0  0  0
  3  2  1  0  0  0
  5  6  2  0  0  0
  2  1  2  0  0  0
  6  1  1  0  0  0
  1 11  1  0  0  0
 11 15  2  0  0  0
 11 12  1  0  0  0
 15 14  1  0  0  0
 12 13  2  0  0  0
 14 13  1  0  0  0
 14 19  1  0  0  0
 13 16  1  0  0  0
 19 18  2  0  0  0
 16 17  2  0  0  0
 18 17  1  0  0  0
  7  9  1  0  0  0
  8 10  1  0  0  0
M  END
> <minimizedAffinity>
-8.22228

$$$$
5J7Q_6H2_A_201


 19 21  0  0  0  0  0  0  0  0999 V2000
  -18.2009   -1.0253  -23.0215 C   0  0  0  0  0  0  0  0  0  0  0  0
  -17.9922    0.3471  -22.8811 C   0  0  0  0  0  0  0  0  0  0  0  0
  -18.6314    1.0596  -21.8760 C   0  0  0  0  0  0  0  0  0  0  0  0
  -19.5520    0.4343  -21.0430 C   0  0  0  0  0  0  0  0  0  0  0  0
  -19.8241   -0.9325  -21.2023 C   0  0  0  0  0  0  0  0  0  0  0  0
  -19.1695   -1.6573  -22.2166 C   0  0  0  0  0  0  0  0  0  0  0  0
  -20.1541    1.1777  -20.0617 O   0  0  0  0  0  0  0  0  0  0  0  0
  -18.3433    2.3840  -21.7305 O   0  0  0  0  0  0  0  0  0  0  0  0
  -19.9554    2.0893  -19.9761 H   0  0  0  0  0  0  0  0  0  0  0  0
  -18.7635    2.8838  -21.0585 H   0  0  0  0  0  0  0  0  0  0  0  0
  -17.5751   -1.7108  -24.1760 C   0  0  0  0  0  0  0  0  0  0  0  0
  -17.5875   -3.0699  -24.3350 N   0  0  0  0  0  0  0  0  0  0  0  0
  -17.0488   -3.3134  -25.5350 C   0  0  0  0  0  0  0  0  0  0  0  0
  -16.6918   -2.1124  -26.1344 N   0  0  0  0  0  0  0  0  0  0  0  0
  -17.0624   -1.1366  -25.2708 C   0  0  0  0  0  0  0  0  0  0  0  0
  -16.7646   -4.4648  -26.2448 C   0  0  0  0  0  0  0  0  0  0  0  0
  -16.1868   -4.3597  -27.4929 C   0  0  0  0  0  0  0  0  0  0  0  0
  -15.8660   -3.1413  -28.0616 C   0  0  0  0  0  0  0  0  0  0  0  0
  -16.1263   -2.0164  -27.3627 C   0  0  0  0  0  0  0  0  0  0  0  0
  7  4  1  0  0  0
  8  3  1  0  0  0
  4  3  2  0  0  0
  4  5  1  0  0  0
  3  2  1  0  0  0
  5  6  2  0  0  0
  2  1  2  0  0  0
  6  1  1  0  0  0
  1 11  1  0  0  0
 11 15  2  0  0  0
 11 12  1  0  0  0
 15 14  1  0  0  0
 12 13  2  0  0  0
 14 13  1  0  0  0
 14 19  1  0  0  0
 13 16  1  0  0  0
 19 18  2  0  0  0
 16 17  2  0  0  0
 18 17  1  0  0  0
  7  9  1  0  0  0
  8 10  1  0  0  0
M  END
> <minimizedAffinity>
-7.56014

$$$$
5J7Q_6H2_A_201


 19 21  0  0  0  0  0  0  0  0999 V2000
  -17.0225   -1.8182  -25.4812 C   0  0  0  0  0  0  0  0  0  0  0  0
  -17.8469   -0.8758  -26.0969 C   0  0  0  0  0  0  0  0  0  0  0  0
  -18.7405   -0.1224  -25.3483 C   0  0  0  0  0  0  0  0  0  0  0  0
  -18.8870   -0.3500  -23.9848 C   0  0  0  0  0  0  0  0  0  0  0  0
  -18.1120   -1.3334  -23.3525 C   0  0  0  0  0  0  0  0  0  0  0  0
  -17.1995   -2.0923  -24.1104 C   0  0  0  0  0  0  0  0  0  0  0  0
  -19.7780    0.4223  -23.2865 O   0  0  0  0  0  0  0  0  0  0  0  0
  -19.4749    0.8366  -25.9801 O   0  0  0  0  0  0  0  0  0  0  0  0
  -20.2841    1.0727  -23.7322 H   0  0  0  0  0  0  0  0  0  0  0  0
  -20.0839    1.3566  -25.4936 H   0  0  0  0  0  0  0  0  0  0  0  0
  -16.1667   -2.6650  -26.3441 C   0  0  0  0  0  0  0  0  0  0  0  0
  -16.3799   -4.0047  -26.5240 N   0  0  0  0  0  0  0  0  0  0  0  0
  -15.5031   -4.4041  -27.4521 C   0  0  0  0  0  0  0  0  0  0  0  0
  -14.7329   -3.3217  -27.8573 N   0  0  0  0  0  0  0  0  0  0  0  0
  -15.1957   -2.2517  -27.1672 C   0  0  0  0  0  0  0  0  0  0  0  0
  -15.2079   -5.6226  -28.0338 C   0  0  0  0  0  0  0  0  0  0  0  0
  -14.2118   -5.6895  -28.9854 C   0  0  0  0  0  0  0  0  0  0  0  0
  -13.4823   -4.5818  -29.3748 C   0  0  0  0  0  0  0  0  0  0  0  0
  -13.7568   -3.3942  -28.7952 C   0  0  0  0  0  0  0  0  0  0  0  0
  7  4  1  0  0  0
  8  3  1  0  0  0
  4  3  2  0  0  0
  4  5  1  0  0  0
  3  2  1  0  0  0
  5  6  2  0  0  0
  2  1  2  0  0  0
  6  1  1  0  0  0
  1 11  1  0  0  0
 11 15  2  0  0  0
 11 12  1  0  0  0
 15 14  1  0  0  0
 12 13  2  0  0  0
 14 13  1  0  0  0
 14 19  1  0  0  0
 13 16  1  0  0  0
 19 18  2  0  0  0
 16 17  2  0  0  0
 18 17  1  0  0  0
  7  9  1  0  0  0
  8 10  1  0  0  0
M  END
> <minimizedAffinity>
-6.79756

$$$$
5J7Q_6H2_A_201


 19 21  0  0  0  0  0  0  0  0999 V2000
  -17.8404   -0.9391  -25.1598 C   0  0  0  0  0  0  0  0  0  0  0  0
  -18.7963   -0.0849  -24.6088 C   0  0  0  0  0  0  0  0  0  0  0  0
  -19.0191   -0.0639  -23.2391 C   0  0  0  0  0  0  0  0  0  0  0  0
  -18.3517   -0.9499  -22.4013 C   0  0  0  0  0  0  0  0  0  0  0  0
  -17.4289   -1.8598  -22.9381 C   0  0  0  0  0  0  0  0  0  0  0  0
  -17.1968   -1.8758  -24.3269 C   0  0  0  0  0  0  0  0  0  0  0  0
  -18.6006   -0.8883  -21.0551 O   0  0  0  0  0  0  0  0  0  0  0  0
  -19.9106    0.8366  -22.7367 O   0  0  0  0  0  0  0  0  0  0  0  0
  -19.2219   -0.2714  -20.7214 H   0  0  0  0  0  0  0  0  0  0  0  0
  -20.0760    0.8678  -21.8149 H   0  0  0  0  0  0  0  0  0  0  0  0
  -17.7223   -0.9933  -26.6354 C   0  0  0  0  0  0  0  0  0  0  0  0
  -17.3133    0.0708  -27.3922 N   0  0  0  0  0  0  0  0  0  0  0  0
  -17.2070   -0.3788  -28.6476 C   0  0  0  0  0  0  0  0  0  0  0  0
  -17.5514   -1.7237  -28.6882 N   0  0  0  0  0  0  0  0  0  0  0  0
  -17.8370   -2.0772  -27.4120 C   0  0  0  0  0  0  0  0  0  0  0  0
  -16.8696    0.2076  -29.8529 C   0  0  0  0  0  0  0  0  0  0  0  0
  -16.8614   -0.5633  -30.9965 C   0  0  0  0  0  0  0  0  0  0  0  0
  -17.1917   -1.9056  -30.9887 C   0  0  0  0  0  0  0  0  0  0  0  0
  -17.5387   -2.4761  -29.8158 C   0  0  0  0  0  0  0  0  0  0  0  0
  7  4  1  0  0  0
  8  3  1  0  0  0
  4  3  2  0  0  0
  4  5  1  0  0  0
  3  2  1  0  0  0
  5  6  2  0  0  0
  2  1  2  0  0  0
  6  1  1  0  0  0
  1 11  1  0  0  0
 11 15  2  0  0  0
 11 12  1  0  0  0
 15 14  1  0  0  0
 12 13  2  0  0  0
 14 13  1  0  0  0
 14 19  1  0  0  0
 13 16  1  0  0  0
 19 18  2  0  0  0
 16 17  2  0  0  0
 18 17  1  0  0  0
  7  9  1  0  0  0
  8 10  1  0  0  0
M  END
> <minimizedAffinity>
-6.73764

$$$$
5J7Q_6H2_A_201


 19 21  0  0  0  0  0  0  0  0999 V2000
  -17.7218   -1.2447  -25.3360 C   0  0  0  0  0  0  0  0  0  0  0  0
  -18.6867   -0.3141  -24.9491 C   0  0  0  0  0  0  0  0  0  0  0  0
  -18.9206   -0.0560  -23.6055 C   0  0  0  0  0  0  0  0  0  0  0  0
  -18.2551   -0.7778  -22.6215 C   0  0  0  0  0  0  0  0  0  0  0  0
  -17.3230   -1.7610  -22.9849 C   0  0  0  0  0  0  0  0  0  0  0  0
  -17.0796   -2.0174  -24.3479 C   0  0  0  0  0  0  0  0  0  0  0  0
  -18.5152   -0.4840  -21.3085 O   0  0  0  0  0  0  0  0  0  0  0  0
  -19.8212    0.9122  -23.2742 O   0  0  0  0  0  0  0  0  0  0  0  0
  -19.1426    0.1774  -21.0917 H   0  0  0  0  0  0  0  0  0  0  0  0
  -19.9941    1.1026  -22.3731 H   0  0  0  0  0  0  0  0  0  0  0  0
  -17.5915   -1.5546  -26.7785 C   0  0  0  0  0  0  0  0  0  0  0  0
  -18.0565   -2.7130  -27.3394 N   0  0  0  0  0  0  0  0  0  0  0  0
  -17.8797   -2.5895  -28.6596 C   0  0  0  0  0  0  0  0  0  0  0  0
  -17.3003   -1.3578  -28.9357 N   0  0  0  0  0  0  0  0  0  0  0  0
  -17.1639   -0.7307  -27.7426 C   0  0  0  0  0  0  0  0  0  0  0  0
  -18.1189   -3.4146  -29.7423 C   0  0  0  0  0  0  0  0  0  0  0  0
  -17.8078   -2.9679  -31.0096 C   0  0  0  0  0  0  0  0  0  0  0  0
  -17.2503   -1.7244  -31.2417 C   0  0  0  0  0  0  0  0  0  0  0  0
  -16.9993   -0.9241  -30.1843 C   0  0  0  0  0  0  0  0  0  0  0  0
  7  4  1  0  0  0
  8  3  1  0  0  0
  4  3  2  0  0  0
  4  5  1  0  0  0
  3  2  1  0  0  0
  5  6  2  0  0  0
  2  1  2  0  0  0
  6  1  1  0  0  0
  1 11  1  0  0  0
 11 15  2  0  0  0
 11 12  1  0  0  0
 15 14  1  0  0  0
 12 13  2  0  0  0
 14 13  1  0  0  0
 14 19  1  0  0  0
 13 16  1  0  0  0
 19 18  2  0  0  0
 16 17  2  0  0  0
 18 17  1  0  0  0
  7  9  1  0  0  0
  8 10  1  0  0  0
M  END
> <minimizedAffinity>
-6.67417

$$$$
5J7Q_6H2_A_201


 19 21  0  0  0  0  0  0  0  0999 V2000
  -17.6275   -1.7289  -25.3147 C   0  0  0  0  0  0  0  0  0  0  0  0
  -17.4759   -1.8765  -23.9356 C   0  0  0  0  0  0  0  0  0  0  0  0
  -18.1813   -1.0664  -23.0566 C   0  0  0  0  0  0  0  0  0  0  0  0
  -18.9892   -0.0411  -23.5348 C   0  0  0  0  0  0  0  0  0  0  0  0
  -19.1120    0.1661  -24.9166 C   0  0  0  0  0  0  0  0  0  0  0  0
  -18.4027   -0.6609  -25.8087 C   0  0  0  0  0  0  0  0  0  0  0  0
  -19.6701    0.7294  -22.6289 O   0  0  0  0  0  0  0  0  0  0  0  0
  -18.0575   -1.2927  -21.7181 O   0  0  0  0  0  0  0  0  0  0  0  0
  -19.5710    0.5708  -21.7108 H   0  0  0  0  0  0  0  0  0  0  0  0
  -18.5249   -0.7576  -21.1073 H   0  0  0  0  0  0  0  0  0  0  0  0
  -16.7703   -2.5490  -26.2017 C   0  0  0  0  0  0  0  0  0  0  0  0
  -15.7128   -2.0359  -26.9025 N   0  0  0  0  0  0  0  0  0  0  0  0
  -15.1057   -3.0768  -27.4835 C   0  0  0  0  0  0  0  0  0  0  0  0
  -15.7783   -4.2468  -27.1557 N   0  0  0  0  0  0  0  0  0  0  0  0
  -16.7902   -3.8807  -26.3326 C   0  0  0  0  0  0  0  0  0  0  0  0
  -14.0175   -3.2068  -28.3256 C   0  0  0  0  0  0  0  0  0  0  0  0
  -13.6478   -4.4636  -28.7571 C   0  0  0  0  0  0  0  0  0  0  0  0
  -14.3341   -5.6058  -28.3895 C   0  0  0  0  0  0  0  0  0  0  0  0
  -15.4078   -5.4794  -27.5815 C   0  0  0  0  0  0  0  0  0  0  0  0
  7  4  1  0  0  0
  8  3  1  0  0  0
  4  3  2  0  0  0
  4  5  1  0  0  0
  3  2  1  0  0  0
  5  6  2  0  0  0
  2  1  2  0  0  0
  6  1  1  0  0  0
  1 11  1  0  0  0
 11 15  2  0  0  0
 11 12  1  0  0  0
 15 14  1  0  0  0
 12 13  2  0  0  0
 14 13  1  0  0  0
 14 19  1  0  0  0
 13 16  1  0  0  0
 19 18  2  0  0  0
 16 17  2  0  0  0
 18 17  1  0  0  0
  7  9  1  0  0  0
  8 10  1  0  0  0
M  END
> <minimizedAffinity>
-6.48764

$$$$
5J7Q_6H2_A_201


 19 21  0  0  0  0  0  0  0  0999 V2000
  -17.9429   -1.8442  -28.2533 C   0  0  0  0  0  0  0  0  0  0  0  0
  -17.2464   -0.9216  -29.0348 C   0  0  0  0  0  0  0  0  0  0  0  0
  -16.9863   -1.1830  -30.3728 C   0  0  0  0  0  0  0  0  0  0  0  0
  -17.3440   -2.4022  -30.9367 C   0  0  0  0  0  0  0  0  0  0  0  0
  -17.9925   -3.3705  -30.1562 C   0  0  0  0  0  0  0  0  0  0  0  0
  -18.2638   -3.1023  -28.8007 C   0  0  0  0  0  0  0  0  0  0  0  0
  -17.0712   -2.6127  -32.2631 O   0  0  0  0  0  0  0  0  0  0  0  0
  -16.3663   -0.2236  -31.1166 O   0  0  0  0  0  0  0  0  0  0  0  0
  -16.6368   -1.9498  -32.7630 H   0  0  0  0  0  0  0  0  0  0  0  0
  -16.1812   -0.3793  -32.0219 H   0  0  0  0  0  0  0  0  0  0  0  0
  -18.0975   -1.5574  -26.8083 C   0  0  0  0  0  0  0  0  0  0  0  0
  -17.4156   -2.2351  -25.8345 N   0  0  0  0  0  0  0  0  0  0  0  0
  -17.7077   -1.6283  -24.6786 C   0  0  0  0  0  0  0  0  0  0  0  0
  -18.5757   -0.5707  -24.9176 N   0  0  0  0  0  0  0  0  0  0  0  0
  -18.7711   -0.5403  -26.2579 C   0  0  0  0  0  0  0  0  0  0  0  0
  -17.3588   -1.8533  -23.3604 C   0  0  0  0  0  0  0  0  0  0  0  0
  -17.8528   -1.0160  -22.3819 C   0  0  0  0  0  0  0  0  0  0  0  0
  -18.6992    0.0391  -22.6665 C   0  0  0  0  0  0  0  0  0  0  0  0
  -19.0555    0.2499  -23.9512 C   0  0  0  0  0  0  0  0  0  0  0  0
  7  4  1  0  0  0
  8  3  1  0  0  0
  4  3  2  0  0  0
  4  5  1  0  0  0
  3  2  1  0  0  0
  5  6  2  0  0  0
  2  1  2  0  0  0
  6  1  1  0  0  0
  1 11  1  0  0  0
 11 15  2  0  0  0
 11 12  1  0  0  0
 15 14  1  0  0  0
 12 13  2  0  0  0
 14 13  1  0  0  0
 14 19  1  0  0  0
 13 16  1  0  0  0
 19 18  2  0  0  0
 16 17  2  0  0  0
 18 17  1  0  0  0
  7  9  1  0  0  0
  8 10  1  0  0  0
M  END
> <minimizedAffinity>
-6.41436

$$$$
5J7Q_6H2_A_201


 19 21  0  0  0  0  0  0  0  0999 V2000
  -17.1290   -2.8758  -27.8848 C   0  0  0  0  0  0  0  0  0  0  0  0
  -15.9514   -3.6150  -28.0019 C   0  0  0  0  0  0  0  0  0  0  0  0
  -15.7058   -4.3775  -29.1354 C   0  0  0  0  0  0  0  0  0  0  0  0
  -16.6636   -4.4819  -30.1375 C   0  0  0  0  0  0  0  0  0  0  0  0
  -17.8809   -3.7957  -30.0159 C   0  0  0  0  0  0  0  0  0  0  0  0
  -18.1270   -3.0156  -28.8697 C   0  0  0  0  0  0  0  0  0  0  0  0
  -16.3739   -5.2422  -31.2402 O   0  0  0  0  0  0  0  0  0  0  0  0
  -14.5114   -5.0262  -29.2393 O   0  0  0  0  0  0  0  0  0  0  0  0
  -15.5533   -5.6910  -31.2974 H   0  0  0  0  0  0  0  0  0  0  0  0
  -14.3251   -5.5464  -29.9960 H   0  0  0  0  0  0  0  0  0  0  0  0
  -17.3830   -2.1673  -26.6090 C   0  0  0  0  0  0  0  0  0  0  0  0
  -18.2735   -1.1349  -26.4916 N   0  0  0  0  0  0  0  0  0  0  0  0
  -18.3305   -0.8332  -25.1896 C   0  0  0  0  0  0  0  0  0  0  0  0
  -17.4755   -1.6690  -24.4830 N   0  0  0  0  0  0  0  0  0  0  0  0
  -16.9266   -2.5048  -25.3970 C   0  0  0  0  0  0  0  0  0  0  0  0
  -19.0129    0.1160  -24.4523 C   0  0  0  0  0  0  0  0  0  0  0  0
  -18.8375    0.1589  -23.0849 C   0  0  0  0  0  0  0  0  0  0  0  0
  -17.9907   -0.7068  -22.4182 C   0  0  0  0  0  0  0  0  0  0  0  0
  -17.3097   -1.6229  -23.1383 C   0  0  0  0  0  0  0  0  0  0  0  0
  7  4  1  0  0  0
  8  3  1  0  0  0
  4  3  2  0  0  0
  4  5  1  0  0  0
  3  2  1  0  0  0
  5  6  2  0  0  0
  2  1  2  0  0  0
  6  1  1  0  0  0
  1 11  1  0  0  0
 11 15  2  0  0  0
 11 12  1  0  0  0
 15 14  1  0  0  0
 12 13  2  0  0  0
 14 13  1  0  0  0
 14 19  1  0  0  0
 13 16  1  0  0  0
 19 18  2  0  0  0
 16 17  2  0  0  0
 18 17  1  0  0  0
  7  9  1  0  0  0
  8 10  1  0  0  0
M  END
> <minimizedAffinity>
-6.20803

$$$$
