1NDY_FR3_A_1001


 26 28  0  0  0  0  0  0  0  0999 V2000
   50.6276   50.8138   19.4295 C   0  0  0  0  0  0  0  0  0  0  0  0
   50.5812   53.3432   20.2552 C   0  0  0  0  0  0  0  0  0  0  0  0
   50.4621   51.9460   20.4450 N   0  0  0  0  0  0  0  0  0  0  0  0
   50.4896   51.7980   21.7790 C   0  0  0  0  0  0  0  0  0  0  0  0
   50.6398   52.9694   22.4497 N   0  0  0  0  0  0  0  0  0  0  0  0
   50.7004   53.9230   21.4361 C   0  0  0  0  0  0  0  0  0  0  0  0
   50.8246   55.3382   21.8103 C   0  0  0  0  0  0  0  0  0  0  0  0
   49.8524   56.0384   21.6715 O   0  0  0  0  0  0  0  0  0  0  0  0
   51.9976   55.9316   22.1394 N   0  0  0  0  0  0  0  0  0  0  0  0
   52.8084   55.3863   22.2594 H   0  0  0  0  0  0  0  0  0  0  0  0
   52.0390   56.9080   22.2584 H   0  0  0  0  0  0  0  0  0  0  0  0
   51.8821   49.8363   19.8482 C   0  0  0  0  0  0  0  0  0  0  0  0
   51.4732   48.3961   19.8428 O   0  0  0  0  0  0  0  0  0  0  0  0
   50.7612   48.2598   20.4873 H   0  0  0  0  0  0  0  0  0  0  0  0
   49.3960   49.9167   19.3936 C   0  0  0  0  0  0  0  0  0  0  0  0
   48.9948   49.7272   17.8668 C   0  0  0  0  0  0  0  0  0  0  0  0
   47.7480   48.8515   17.7304 C   0  0  0  0  0  0  0  0  0  0  0  0
   47.1738   48.2466   18.8477 C   0  0  0  0  0  0  0  0  0  0  0  0
   45.9787   47.4790   18.7369 C   0  0  0  0  0  0  0  0  0  0  0  0
   45.3348   47.3975   17.4662 C   0  0  0  0  0  0  0  0  0  0  0  0
   45.9224   47.9988   16.3409 C   0  0  0  0  0  0  0  0  0  0  0  0
   47.0718   48.8054   16.4729 C   0  0  0  0  0  0  0  0  0  0  0  0
   45.2338   47.9628   15.0895 C   0  0  0  0  0  0  0  0  0  0  0  0
   47.6537   49.4145   15.3393 C   0  0  0  0  0  0  0  0  0  0  0  0
   45.8031   48.5947   13.9507 C   0  0  0  0  0  0  0  0  0  0  0  0
   47.0127   49.3570   14.1148 C   0  0  0  0  0  0  0  0  0  0  0  0
  2  3  1  0  0  0
  2  6  2  0  0  0
  3  4  1  0  0  0
  3  1  1  0  0  0
  4  5  2  0  0  0
  5  6  1  0  0  0
  6  7  1  0  0  0
  7  8  2  0  0  0
  7  9  1  0  0  0
  1 12  1  0  0  0
  1 15  1  0  0  0
 12 13  1  0  0  0
 15 16  1  0  0  0
 16 17  1  0  0  0
 17 18  2  0  0  0
 17 22  1  0  0  0
 18 19  1  0  0  0
 19 20  2  0  0  0
 20 21  1  0  0  0
 21 22  2  0  0  0
 21 23  1  0  0  0
 22 24  1  0  0  0
 23 25  2  0  0  0
 24 26  2  0  0  0
 25 26  1  0  0  0
  9 10  1  0  0  0
  9 11  1  0  0  0
 13 14  1  0  0  0
M  END
> <minimizedAffinity>
-9.27046

$$$$
1NDY_FR3_A_1001


 26 28  0  0  0  0  0  0  0  0999 V2000
   50.9286   50.6560   19.1287 C   0  0  0  0  0  0  0  0  0  0  0  0
   50.6384   53.1274   20.0718 C   0  0  0  0  0  0  0  0  0  0  0  0
   50.6482   51.7177   20.1939 N   0  0  0  0  0  0  0  0  0  0  0  0
   50.6761   51.5088   21.5197 C   0  0  0  0  0  0  0  0  0  0  0  0
   50.7098   52.6554   22.2469 N   0  0  0  0  0  0  0  0  0  0  0  0
   50.6913   53.6582   21.2802 C   0  0  0  0  0  0  0  0  0  0  0  0
   50.6792   55.0591   21.7223 C   0  0  0  0  0  0  0  0  0  0  0  0
   49.8278   55.7804   21.2646 O   0  0  0  0  0  0  0  0  0  0  0  0
   51.6561   55.6214   22.4747 N   0  0  0  0  0  0  0  0  0  0  0  0
   52.3648   55.0584   22.8618 H   0  0  0  0  0  0  0  0  0  0  0  0
   51.6570   56.5929   22.6341 H   0  0  0  0  0  0  0  0  0  0  0  0
   50.9040   49.1498   19.7887 C   0  0  0  0  0  0  0  0  0  0  0  0
   52.2505   48.5002   19.7090 O   0  0  0  0  0  0  0  0  0  0  0  0
   52.5132   48.4139   18.7792 H   0  0  0  0  0  0  0  0  0  0  0  0
   49.8516   50.6544   18.0503 C   0  0  0  0  0  0  0  0  0  0  0  0
   48.7879   49.5416   18.4476 C   0  0  0  0  0  0  0  0  0  0  0  0
   47.8675   49.2151   17.2702 C   0  0  0  0  0  0  0  0  0  0  0  0
   48.2095   49.5883   15.9710 C   0  0  0  0  0  0  0  0  0  0  0  0
   47.3867   49.2353   14.8628 C   0  0  0  0  0  0  0  0  0  0  0  0
   46.2348   48.4265   15.0976 C   0  0  0  0  0  0  0  0  0  0  0  0
   45.8877   48.0622   16.4091 C   0  0  0  0  0  0  0  0  0  0  0  0
   46.7404   48.3656   17.4907 C   0  0  0  0  0  0  0  0  0  0  0  0
   44.7686   47.1998   16.6219 C   0  0  0  0  0  0  0  0  0  0  0  0
   46.3905   47.9896   18.8063 C   0  0  0  0  0  0  0  0  0  0  0  0
   44.4261   46.7985   17.9418 C   0  0  0  0  0  0  0  0  0  0  0  0
   45.2890   47.1825   19.0276 C   0  0  0  0  0  0  0  0  0  0  0  0
  2  3  1  0  0  0
  2  6  2  0  0  0
  3  4  1  0  0  0
  3  1  1  0  0  0
  4  5  2  0  0  0
  5  6  1  0  0  0
  6  7  1  0  0  0
  7  8  2  0  0  0
  7  9  1  0  0  0
  1 12  1  0  0  0
  1 15  1  0  0  0
 12 13  1  0  0  0
 15 16  1  0  0  0
 16 17  1  0  0  0
 17 18  2  0  0  0
 17 22  1  0  0  0
 18 19  1  0  0  0
 19 20  2  0  0  0
 20 21  1  0  0  0
 21 22  2  0  0  0
 21 23  1  0  0  0
 22 24  1  0  0  0
 23 25  2  0  0  0
 24 26  2  0  0  0
 25 26  1  0  0  0
  9 10  1  0  0  0
  9 11  1  0  0  0
 13 14  1  0  0  0
M  END
> <minimizedAffinity>
-9.26859

$$$$
1NDY_FR3_A_1001


 26 28  0  0  0  0  0  0  0  0999 V2000
   50.3365   49.0412   20.1672 C   0  0  0  0  0  0  0  0  0  0  0  0
   49.3884   49.1224   17.6821 C   0  0  0  0  0  0  0  0  0  0  0  0
   49.3617   48.7103   19.0355 N   0  0  0  0  0  0  0  0  0  0  0  0
   48.1205   48.2264   19.2011 C   0  0  0  0  0  0  0  0  0  0  0  0
   47.3519   48.3167   18.0850 N   0  0  0  0  0  0  0  0  0  0  0  0
   48.2011   48.9000   17.1475 C   0  0  0  0  0  0  0  0  0  0  0  0
   47.6992   49.1148   15.7836 C   0  0  0  0  0  0  0  0  0  0  0  0
   46.8425   48.3674   15.3812 O   0  0  0  0  0  0  0  0  0  0  0  0
   48.2523   49.9852   14.9044 N   0  0  0  0  0  0  0  0  0  0  0  0
   48.9539   50.6078   15.2034 H   0  0  0  0  0  0  0  0  0  0  0  0
   47.9524   49.9951   13.9668 H   0  0  0  0  0  0  0  0  0  0  0  0
   51.8096   49.4540   19.5634 C   0  0  0  0  0  0  0  0  0  0  0  0
   52.8211   48.3803   19.8191 O   0  0  0  0  0  0  0  0  0  0  0  0
   52.9174   48.2479   20.7752 H   0  0  0  0  0  0  0  0  0  0  0  0
   49.8644   50.2471   20.9709 C   0  0  0  0  0  0  0  0  0  0  0  0
   50.7286   51.4957   20.4996 C   0  0  0  0  0  0  0  0  0  0  0  0
   49.8396   52.5820   19.8920 C   0  0  0  0  0  0  0  0  0  0  0  0
   48.9408   52.2808   18.8695 C   0  0  0  0  0  0  0  0  0  0  0  0
   48.0676   53.2744   18.3402 C   0  0  0  0  0  0  0  0  0  0  0  0
   48.0781   54.5752   18.9264 C   0  0  0  0  0  0  0  0  0  0  0  0
   48.9929   54.8778   19.9486 C   0  0  0  0  0  0  0  0  0  0  0  0
   49.8099   53.8719   20.5053 C   0  0  0  0  0  0  0  0  0  0  0  0
   48.9478   56.1642   20.5687 C   0  0  0  0  0  0  0  0  0  0  0  0
   50.7219   54.1799   21.5387 C   0  0  0  0  0  0  0  0  0  0  0  0
   49.8473   56.4717   21.6255 C   0  0  0  0  0  0  0  0  0  0  0  0
   50.7104   55.4334   22.1236 C   0  0  0  0  0  0  0  0  0  0  0  0
  2  3  1  0  0  0
  2  6  2  0  0  0
  3  4  1  0  0  0
  3  1  1  0  0  0
  4  5  2  0  0  0
  5  6  1  0  0  0
  6  7  1  0  0  0
  7  8  2  0  0  0
  7  9  1  0  0  0
  1 12  1  0  0  0
  1 15  1  0  0  0
 12 13  1  0  0  0
 15 16  1  0  0  0
 16 17  1  0  0  0
 17 18  2  0  0  0
 17 22  1  0  0  0
 18 19  1  0  0  0
 19 20  2  0  0  0
 20 21  1  0  0  0
 21 22  2  0  0  0
 21 23  1  0  0  0
 22 24  1  0  0  0
 23 25  2  0  0  0
 24 26  2  0  0  0
 25 26  1  0  0  0
  9 10  1  0  0  0
  9 11  1  0  0  0
 13 14  1  0  0  0
M  END
> <minimizedAffinity>
-8.56880

$$$$
1NDY_FR3_A_1001


 26 28  0  0  0  0  0  0  0  0999 V2000
   50.6585   50.0568   19.0400 C   0  0  0  0  0  0  0  0  0  0  0  0
   49.6536   52.4627   19.5721 C   0  0  0  0  0  0  0  0  0  0  0  0
   50.7004   51.5742   19.2300 N   0  0  0  0  0  0  0  0  0  0  0  0
   51.6780   52.3818   18.7890 C   0  0  0  0  0  0  0  0  0  0  0  0
   51.3378   53.6966   18.7974 N   0  0  0  0  0  0  0  0  0  0  0  0
   50.0376   53.6965   19.2974 C   0  0  0  0  0  0  0  0  0  0  0  0
   49.3565   54.9849   19.4821 C   0  0  0  0  0  0  0  0  0  0  0  0
   50.0434   55.9742   19.5444 O   0  0  0  0  0  0  0  0  0  0  0  0
   48.0338   55.1075   19.7505 N   0  0  0  0  0  0  0  0  0  0  0  0
   47.4476   54.3178   19.7078 H   0  0  0  0  0  0  0  0  0  0  0  0
   47.6592   55.9864   19.9881 H   0  0  0  0  0  0  0  0  0  0  0  0
   51.5255   49.2998   20.2148 C   0  0  0  0  0  0  0  0  0  0  0  0
   52.6094   48.4504   19.6273 O   0  0  0  0  0  0  0  0  0  0  0  0
   52.2148   47.7682   19.0617 H   0  0  0  0  0  0  0  0  0  0  0  0
   49.2368   49.5216   19.1630 C   0  0  0  0  0  0  0  0  0  0  0  0
   48.6468   49.4072   17.6910 C   0  0  0  0  0  0  0  0  0  0  0  0
   47.3515   48.5937   17.6794 C   0  0  0  0  0  0  0  0  0  0  0  0
   46.8163   48.0851   18.8622 C   0  0  0  0  0  0  0  0  0  0  0  0
   45.5795   47.3780   18.8666 C   0  0  0  0  0  0  0  0  0  0  0  0
   44.8564   47.2591   17.6422 C   0  0  0  0  0  0  0  0  0  0  0  0
   45.4044   47.7628   16.4509 C   0  0  0  0  0  0  0  0  0  0  0  0
   46.5989   48.5126   16.4679 C   0  0  0  0  0  0  0  0  0  0  0  0
   44.6403   47.6928   15.2456 C   0  0  0  0  0  0  0  0  0  0  0  0
   47.1410   49.0239   15.2681 C   0  0  0  0  0  0  0  0  0  0  0  0
   45.1707   48.2272   14.0400 C   0  0  0  0  0  0  0  0  0  0  0  0
   46.4249   48.9314   14.0882 C   0  0  0  0  0  0  0  0  0  0  0  0
  2  3  1  0  0  0
  2  6  2  0  0  0
  3  4  1  0  0  0
  3  1  1  0  0  0
  4  5  2  0  0  0
  5  6  1  0  0  0
  6  7  1  0  0  0
  7  8  2  0  0  0
  7  9  1  0  0  0
  1 12  1  0  0  0
  1 15  1  0  0  0
 12 13  1  0  0  0
 15 16  1  0  0  0
 16 17  1  0  0  0
 17 18  2  0  0  0
 17 22  1  0  0  0
 18 19  1  0  0  0
 19 20  2  0  0  0
 20 21  1  0  0  0
 21 22  2  0  0  0
 21 23  1  0  0  0
 22 24  1  0  0  0
 23 25  2  0  0  0
 24 26  2  0  0  0
 25 26  1  0  0  0
  9 10  1  0  0  0
  9 11  1  0  0  0
 13 14  1  0  0  0
M  END
> <minimizedAffinity>
-8.43935

$$$$
1NDY_FR3_A_1001


 26 28  0  0  0  0  0  0  0  0999 V2000
   50.5453   53.2535   18.7706 C   0  0  0  0  0  0  0  0  0  0  0  0
   51.7391   55.3924   19.8105 C   0  0  0  0  0  0  0  0  0  0  0  0
   50.8190   54.3177   19.8351 N   0  0  0  0  0  0  0  0  0  0  0  0
   50.4579   54.2313   21.1252 C   0  0  0  0  0  0  0  0  0  0  0  0
   51.0829   55.1356   21.9229 N   0  0  0  0  0  0  0  0  0  0  0  0
   51.8932   55.8470   21.0411 C   0  0  0  0  0  0  0  0  0  0  0  0
   52.7005   56.9554   21.5685 C   0  0  0  0  0  0  0  0  0  0  0  0
   52.6749   57.9994   20.9652 O   0  0  0  0  0  0  0  0  0  0  0  0
   53.5896   56.8252   22.5828 N   0  0  0  0  0  0  0  0  0  0  0  0
   53.6341   55.9848   23.0937 H   0  0  0  0  0  0  0  0  0  0  0  0
   54.1912   57.5711   22.8089 H   0  0  0  0  0  0  0  0  0  0  0  0
   51.8007   52.1957   18.6701 C   0  0  0  0  0  0  0  0  0  0  0  0
   52.1716   51.9274   17.2448 O   0  0  0  0  0  0  0  0  0  0  0  0
   51.4144   51.5360   16.7818 H   0  0  0  0  0  0  0  0  0  0  0  0
   49.3232   52.4150   19.1260 C   0  0  0  0  0  0  0  0  0  0  0  0
   48.7283   51.8480   17.7649 C   0  0  0  0  0  0  0  0  0  0  0  0
   48.4861   50.3404   17.8564 C   0  0  0  0  0  0  0  0  0  0  0  0
   48.7634   49.6420   19.0309 C   0  0  0  0  0  0  0  0  0  0  0  0
   48.4843   48.2494   19.1429 C   0  0  0  0  0  0  0  0  0  0  0  0
   47.8461   47.5907   18.0498 C   0  0  0  0  0  0  0  0  0  0  0  0
   47.5788   48.2951   16.8643 C   0  0  0  0  0  0  0  0  0  0  0  0
   47.8037   49.6853   16.7859 C   0  0  0  0  0  0  0  0  0  0  0  0
   46.8822   47.6390   15.8033 C   0  0  0  0  0  0  0  0  0  0  0  0
   47.5254   50.3901   15.5941 C   0  0  0  0  0  0  0  0  0  0  0  0
   46.5780   48.3503   14.6108 C   0  0  0  0  0  0  0  0  0  0  0  0
   46.8816   49.7556   14.5470 C   0  0  0  0  0  0  0  0  0  0  0  0
  2  3  1  0  0  0
  2  6  2  0  0  0
  3  4  1  0  0  0
  3  1  1  0  0  0
  4  5  2  0  0  0
  5  6  1  0  0  0
  6  7  1  0  0  0
  7  8  2  0  0  0
  7  9  1  0  0  0
  1 12  1  0  0  0
  1 15  1  0  0  0
 12 13  1  0  0  0
 15 16  1  0  0  0
 16 17  1  0  0  0
 17 18  2  0  0  0
 17 22  1  0  0  0
 18 19  1  0  0  0
 19 20  2  0  0  0
 20 21  1  0  0  0
 21 22  2  0  0  0
 21 23  1  0  0  0
 22 24  1  0  0  0
 23 25  2  0  0  0
 24 26  2  0  0  0
 25 26  1  0  0  0
  9 10  1  0  0  0
  9 11  1  0  0  0
 13 14  1  0  0  0
M  END
> <minimizedAffinity>
-8.28732

$$$$
1NDY_FR3_A_1001


 26 28  0  0  0  0  0  0  0  0999 V2000
   50.2771   52.0554   19.7144 C   0  0  0  0  0  0  0  0  0  0  0  0
   48.8265   50.0451   18.7470 C   0  0  0  0  0  0  0  0  0  0  0  0
   49.9348   50.5903   19.4375 N   0  0  0  0  0  0  0  0  0  0  0  0
   50.4628   49.5379   20.0824 C   0  0  0  0  0  0  0  0  0  0  0  0
   49.7770   48.3826   19.8836 N   0  0  0  0  0  0  0  0  0  0  0  0
   48.7402   48.7582   19.0324 C   0  0  0  0  0  0  0  0  0  0  0  0
   47.8036   47.7257   18.5690 C   0  0  0  0  0  0  0  0  0  0  0  0
   46.6760   47.7648   18.9951 O   0  0  0  0  0  0  0  0  0  0  0  0
   48.1711   46.6494   17.8321 N   0  0  0  0  0  0  0  0  0  0  0  0
   49.0849   46.5891   17.4707 H   0  0  0  0  0  0  0  0  0  0  0  0
   47.5243   45.9279   17.6581 H   0  0  0  0  0  0  0  0  0  0  0  0
   51.5215   52.5518   18.7605 C   0  0  0  0  0  0  0  0  0  0  0  0
   51.5184   51.8338   17.4469 O   0  0  0  0  0  0  0  0  0  0  0  0
   51.6210   50.8813   17.5988 H   0  0  0  0  0  0  0  0  0  0  0  0
   49.1060   52.9714   19.3792 C   0  0  0  0  0  0  0  0  0  0  0  0
   49.7137   54.3777   18.9540 C   0  0  0  0  0  0  0  0  0  0  0  0
   48.8779   55.5300   19.5138 C   0  0  0  0  0  0  0  0  0  0  0  0
   49.0924   56.0062   20.8066 C   0  0  0  0  0  0  0  0  0  0  0  0
   48.3589   57.1176   21.3131 C   0  0  0  0  0  0  0  0  0  0  0  0
   47.4445   57.7854   20.4447 C   0  0  0  0  0  0  0  0  0  0  0  0
   47.2231   57.2957   19.1469 C   0  0  0  0  0  0  0  0  0  0  0  0
   47.9971   56.2331   18.6360 C   0  0  0  0  0  0  0  0  0  0  0  0
   46.3532   58.0120   18.2685 C   0  0  0  0  0  0  0  0  0  0  0  0
   47.7759   55.7501   17.3273 C   0  0  0  0  0  0  0  0  0  0  0  0
   46.1453   57.5441   16.9425 C   0  0  0  0  0  0  0  0  0  0  0  0
   46.9097   56.4162   16.4790 C   0  0  0  0  0  0  0  0  0  0  0  0
  2  3  1  0  0  0
  2  6  2  0  0  0
  3  4  1  0  0  0
  3  1  1  0  0  0
  4  5  2  0  0  0
  5  6  1  0  0  0
  6  7  1  0  0  0
  7  8  2  0  0  0
  7  9  1  0  0  0
  1 12  1  0  0  0
  1 15  1  0  0  0
 12 13  1  0  0  0
 15 16  1  0  0  0
 16 17  1  0  0  0
 17 18  2  0  0  0
 17 22  1  0  0  0
 18 19  1  0  0  0
 19 20  2  0  0  0
 20 21  1  0  0  0
 21 22  2  0  0  0
 21 23  1  0  0  0
 22 24  1  0  0  0
 23 25  2  0  0  0
 24 26  2  0  0  0
 25 26  1  0  0  0
  9 10  1  0  0  0
  9 11  1  0  0  0
 13 14  1  0  0  0
M  END
> <minimizedAffinity>
-8.27871

$$$$
1NDY_FR3_A_1001


 26 28  0  0  0  0  0  0  0  0999 V2000
   50.3281   49.4357   20.3957 C   0  0  0  0  0  0  0  0  0  0  0  0
   49.5617   49.4324   17.8474 C   0  0  0  0  0  0  0  0  0  0  0  0
   49.4788   49.0119   19.1959 N   0  0  0  0  0  0  0  0  0  0  0  0
   48.2858   48.4006   19.2706 C   0  0  0  0  0  0  0  0  0  0  0  0
   47.5960   48.4171   18.1008 N   0  0  0  0  0  0  0  0  0  0  0  0
   48.4464   49.0909   17.2272 C   0  0  0  0  0  0  0  0  0  0  0  0
   48.0264   49.2603   15.8297 C   0  0  0  0  0  0  0  0  0  0  0  0
   46.9700   48.7787   15.5033 O   0  0  0  0  0  0  0  0  0  0  0  0
   48.8215   49.7735   14.8597 N   0  0  0  0  0  0  0  0  0  0  0  0
   49.6897   50.1734   15.0953 H   0  0  0  0  0  0  0  0  0  0  0  0
   48.5309   49.7464   13.9195 H   0  0  0  0  0  0  0  0  0  0  0  0
   51.8741   49.7504   19.9312 C   0  0  0  0  0  0  0  0  0  0  0  0
   52.6405   48.4848   19.7029 O   0  0  0  0  0  0  0  0  0  0  0  0
   52.6751   47.9746   20.5271 H   0  0  0  0  0  0  0  0  0  0  0  0
   49.8089   50.7284   21.0138 C   0  0  0  0  0  0  0  0  0  0  0  0
   50.0934   51.8964   19.9731 C   0  0  0  0  0  0  0  0  0  0  0  0
   50.0529   53.2641   20.6568 C   0  0  0  0  0  0  0  0  0  0  0  0
   50.7968   53.5087   21.8105 C   0  0  0  0  0  0  0  0  0  0  0  0
   50.8107   54.7971   22.4183 C   0  0  0  0  0  0  0  0  0  0  0  0
   50.1021   55.8599   21.7825 C   0  0  0  0  0  0  0  0  0  0  0  0
   49.3449   55.6068   20.6268 C   0  0  0  0  0  0  0  0  0  0  0  0
   49.3864   54.3438   20.0005 C   0  0  0  0  0  0  0  0  0  0  0  0
   48.6934   56.6934   19.9661 C   0  0  0  0  0  0  0  0  0  0  0  0
   48.6295   54.0973   18.8339 C   0  0  0  0  0  0  0  0  0  0  0  0
   47.9501   56.4553   18.7782 C   0  0  0  0  0  0  0  0  0  0  0  0
   47.9665   55.1355   18.2046 C   0  0  0  0  0  0  0  0  0  0  0  0
  2  3  1  0  0  0
  2  6  2  0  0  0
  3  4  1  0  0  0
  3  1  1  0  0  0
  4  5  2  0  0  0
  5  6  1  0  0  0
  6  7  1  0  0  0
  7  8  2  0  0  0
  7  9  1  0  0  0
  1 12  1  0  0  0
  1 15  1  0  0  0
 12 13  1  0  0  0
 15 16  1  0  0  0
 16 17  1  0  0  0
 17 18  2  0  0  0
 17 22  1  0  0  0
 18 19  1  0  0  0
 19 20  2  0  0  0
 20 21  1  0  0  0
 21 22  2  0  0  0
 21 23  1  0  0  0
 22 24  1  0  0  0
 23 25  2  0  0  0
 24 26  2  0  0  0
 25 26  1  0  0  0
  9 10  1  0  0  0
  9 11  1  0  0  0
 13 14  1  0  0  0
M  END
> <minimizedAffinity>
-8.12054

$$$$
1NDY_FR3_A_1001


 26 28  0  0  0  0  0  0  0  0999 V2000
   48.3233   50.3722   18.0286 C   0  0  0  0  0  0  0  0  0  0  0  0
   49.7845   51.4789   19.9578 C   0  0  0  0  0  0  0  0  0  0  0  0
   49.0262   51.5151   18.7636 N   0  0  0  0  0  0  0  0  0  0  0  0
   48.7791   52.8215   18.5777 C   0  0  0  0  0  0  0  0  0  0  0  0
   49.2895   53.6127   19.5564 N   0  0  0  0  0  0  0  0  0  0  0  0
   49.9143   52.7113   20.4153 C   0  0  0  0  0  0  0  0  0  0  0  0
   50.6214   53.2368   21.5909 C   0  0  0  0  0  0  0  0  0  0  0  0
   50.7188   52.5141   22.5514 O   0  0  0  0  0  0  0  0  0  0  0  0
   51.0185   54.5262   21.7185 N   0  0  0  0  0  0  0  0  0  0  0  0
   50.9511   55.1402   20.9520 H   0  0  0  0  0  0  0  0  0  0  0  0
   51.3745   54.8488   22.5778 H   0  0  0  0  0  0  0  0  0  0  0  0
   48.9815   50.1479   16.5381 C   0  0  0  0  0  0  0  0  0  0  0  0
   48.1082   50.7234   15.4670 O   0  0  0  0  0  0  0  0  0  0  0  0
   47.2450   50.2811   15.4812 H   0  0  0  0  0  0  0  0  0  0  0  0
   48.4994   49.0488   18.7637 C   0  0  0  0  0  0  0  0  0  0  0  0
   48.1329   47.8884   17.7405 C   0  0  0  0  0  0  0  0  0  0  0  0
   46.6410   47.5558   17.7974 C   0  0  0  0  0  0  0  0  0  0  0  0
   45.9967   47.3683   19.0196 C   0  0  0  0  0  0  0  0  0  0  0  0
   44.5956   47.1176   19.0826 C   0  0  0  0  0  0  0  0  0  0  0  0
   43.8440   47.1319   17.8698 C   0  0  0  0  0  0  0  0  0  0  0  0
   44.4985   47.3099   16.6397 C   0  0  0  0  0  0  0  0  0  0  0  0
   45.8744   47.6168   16.5935 C   0  0  0  0  0  0  0  0  0  0  0  0
   43.7249   47.3856   15.4409 C   0  0  0  0  0  0  0  0  0  0  0  0
   46.5257   47.8030   15.3542 C   0  0  0  0  0  0  0  0  0  0  0  0
   44.3727   47.5970   14.1934 C   0  0  0  0  0  0  0  0  0  0  0  0
   45.7905   47.8441   14.1832 C   0  0  0  0  0  0  0  0  0  0  0  0
  2  3  1  0  0  0
  2  6  2  0  0  0
  3  4  1  0  0  0
  3  1  1  0  0  0
  4  5  2  0  0  0
  5  6  1  0  0  0
  6  7  1  0  0  0
  7  8  2  0  0  0
  7  9  1  0  0  0
  1 12  1  0  0  0
  1 15  1  0  0  0
 12 13  1  0  0  0
 15 16  1  0  0  0
 16 17  1  0  0  0
 17 18  2  0  0  0
 17 22  1  0  0  0
 18 19  1  0  0  0
 19 20  2  0  0  0
 20 21  1  0  0  0
 21 22  2  0  0  0
 21 23  1  0  0  0
 22 24  1  0  0  0
 23 25  2  0  0  0
 24 26  2  0  0  0
 25 26  1  0  0  0
  9 10  1  0  0  0
  9 11  1  0  0  0
 13 14  1  0  0  0
M  END
> <minimizedAffinity>
-8.07308

$$$$
1NDY_FR3_A_1001


 26 28  0  0  0  0  0  0  0  0999 V2000
   48.8745   51.4857   18.6299 C   0  0  0  0  0  0  0  0  0  0  0  0
   49.6122   53.1279   20.5896 C   0  0  0  0  0  0  0  0  0  0  0  0
   49.8314   52.4021   19.3949 N   0  0  0  0  0  0  0  0  0  0  0  0
   50.9550   52.9386   18.8928 C   0  0  0  0  0  0  0  0  0  0  0  0
   51.4531   53.9528   19.6464 N   0  0  0  0  0  0  0  0  0  0  0  0
   50.5598   54.0401   20.7117 C   0  0  0  0  0  0  0  0  0  0  0  0
   50.8195   55.0296   21.7661 C   0  0  0  0  0  0  0  0  0  0  0  0
   50.9842   56.1751   21.4266 O   0  0  0  0  0  0  0  0  0  0  0  0
   51.0475   54.7083   23.0627 N   0  0  0  0  0  0  0  0  0  0  0  0
   50.9216   53.7814   23.3697 H   0  0  0  0  0  0  0  0  0  0  0  0
   51.3391   55.4019   23.6977 H   0  0  0  0  0  0  0  0  0  0  0  0
   48.0628   52.3281   17.4738 C   0  0  0  0  0  0  0  0  0  0  0  0
   47.9689   53.7802   17.8258 O   0  0  0  0  0  0  0  0  0  0  0  0
   47.4862   53.8798   18.6612 H   0  0  0  0  0  0  0  0  0  0  0  0
   49.6303   50.3882   17.8903 C   0  0  0  0  0  0  0  0  0  0  0  0
   48.8517   49.0255   18.1449 C   0  0  0  0  0  0  0  0  0  0  0  0
   47.7661   48.8069   17.0896 C   0  0  0  0  0  0  0  0  0  0  0  0
   47.9994   49.1151   15.7499 C   0  0  0  0  0  0  0  0  0  0  0  0
   47.0146   48.8583   14.7530 C   0  0  0  0  0  0  0  0  0  0  0  0
   45.8037   48.2102   15.1401 C   0  0  0  0  0  0  0  0  0  0  0  0
   45.5679   47.9117   16.4923 C   0  0  0  0  0  0  0  0  0  0  0  0
   46.5727   48.1151   17.4609 C   0  0  0  0  0  0  0  0  0  0  0  0
   44.3798   47.2059   16.8554 C   0  0  0  0  0  0  0  0  0  0  0  0
   46.3331   47.8053   18.8178 C   0  0  0  0  0  0  0  0  0  0  0  0
   44.1447   46.8702   18.2164 C   0  0  0  0  0  0  0  0  0  0  0  0
   45.1705   47.1522   19.1857 C   0  0  0  0  0  0  0  0  0  0  0  0
  2  3  1  0  0  0
  2  6  2  0  0  0
  3  4  1  0  0  0
  3  1  1  0  0  0
  4  5  2  0  0  0
  5  6  1  0  0  0
  6  7  1  0  0  0
  7  8  2  0  0  0
  7  9  1  0  0  0
  1 12  1  0  0  0
  1 15  1  0  0  0
 12 13  1  0  0  0
 15 16  1  0  0  0
 16 17  1  0  0  0
 17 18  2  0  0  0
 17 22  1  0  0  0
 18 19  1  0  0  0
 19 20  2  0  0  0
 20 21  1  0  0  0
 21 22  2  0  0  0
 21 23  1  0  0  0
 22 24  1  0  0  0
 23 25  2  0  0  0
 24 26  2  0  0  0
 25 26  1  0  0  0
  9 10  1  0  0  0
  9 11  1  0  0  0
 13 14  1  0  0  0
M  END
> <minimizedAffinity>
-7.92147

$$$$
1NDY_FR3_A_1001


 26 28  0  0  0  0  0  0  0  0999 V2000
   50.6898   54.2466   20.8358 C   0  0  0  0  0  0  0  0  0  0  0  0
   49.0068   56.2662   20.4239 C   0  0  0  0  0  0  0  0  0  0  0  0
   49.7492   55.1325   20.0168 N   0  0  0  0  0  0  0  0  0  0  0  0
   49.2069   54.7989   18.8348 C   0  0  0  0  0  0  0  0  0  0  0  0
   48.1743   55.6015   18.4683 N   0  0  0  0  0  0  0  0  0  0  0  0
   48.0809   56.5156   19.5153 C   0  0  0  0  0  0  0  0  0  0  0  0
   47.0711   57.5793   19.4304 C   0  0  0  0  0  0  0  0  0  0  0  0
   46.0167   57.3919   19.9850 O   0  0  0  0  0  0  0  0  0  0  0  0
   47.1906   58.6714   18.6370 N   0  0  0  0  0  0  0  0  0  0  0  0
   48.0390   58.8510   18.1711 H   0  0  0  0  0  0  0  0  0  0  0  0
   46.4289   59.2853   18.5266 H   0  0  0  0  0  0  0  0  0  0  0  0
   50.9080   54.8679   22.3429 C   0  0  0  0  0  0  0  0  0  0  0  0
   52.0135   55.8773   22.3590 O   0  0  0  0  0  0  0  0  0  0  0  0
   52.8428   55.4529   22.0887 H   0  0  0  0  0  0  0  0  0  0  0  0
   50.1025   52.8553   21.0412 C   0  0  0  0  0  0  0  0  0  0  0  0
   50.8248   51.8818   20.0123 C   0  0  0  0  0  0  0  0  0  0  0  0
   50.1589   50.5047   19.9978 C   0  0  0  0  0  0  0  0  0  0  0  0
   50.3642   49.6007   21.0394 C   0  0  0  0  0  0  0  0  0  0  0  0
   49.7003   48.3404   21.0620 C   0  0  0  0  0  0  0  0  0  0  0  0
   48.7603   48.0450   20.0300 C   0  0  0  0  0  0  0  0  0  0  0  0
   48.5648   48.9535   18.9766 C   0  0  0  0  0  0  0  0  0  0  0  0
   49.1811   50.2219   18.9955 C   0  0  0  0  0  0  0  0  0  0  0  0
   47.5745   48.6724   17.9858 C   0  0  0  0  0  0  0  0  0  0  0  0
   48.9745   51.1348   17.9379 C   0  0  0  0  0  0  0  0  0  0  0  0
   47.3453   49.5987   16.9324 C   0  0  0  0  0  0  0  0  0  0  0  0
   48.0423   50.8576   16.9541 C   0  0  0  0  0  0  0  0  0  0  0  0
  2  3  1  0  0  0
  2  6  2  0  0  0
  3  4  1  0  0  0
  3  1  1  0  0  0
  4  5  2  0  0  0
  5  6  1  0  0  0
  6  7  1  0  0  0
  7  8  2  0  0  0
  7  9  1  0  0  0
  1 12  1  0  0  0
  1 15  1  0  0  0
 12 13  1  0  0  0
 15 16  1  0  0  0
 16 17  1  0  0  0
 17 18  2  0  0  0
 17 22  1  0  0  0
 18 19  1  0  0  0
 19 20  2  0  0  0
 20 21  1  0  0  0
 21 22  2  0  0  0
 21 23  1  0  0  0
 22 24  1  0  0  0
 23 25  2  0  0  0
 24 26  2  0  0  0
 25 26  1  0  0  0
  9 10  1  0  0  0
  9 11  1  0  0  0
 13 14  1  0  0  0
M  END
> <minimizedAffinity>
-7.85331

$$$$
