4CA6_3EF_A_1630


 56 60  0  0  0  0  0  0  0  0999 V2000
    2.2751  -14.8676  -22.4664 C   0  0  0  0  0  0  0  0  0  0  0  0
    1.3407  -16.7949  -23.5382 O   0  0  0  0  0  0  0  0  0  0  0  0
    1.1245  -15.7796  -22.8735 C   0  0  0  0  0  0  0  0  0  0  0  0
   -0.1046  -15.3970  -22.4953 N   0  0  0  0  0  0  0  0  0  0  0  0
   -0.2057  -14.5940  -21.9348 H   0  0  0  0  0  0  0  0  0  0  0  0
   -1.3114  -16.1504  -22.8988 C   0  0  0  0  0  0  0  0  0  0  0  0
   -2.4667  -15.1689  -23.1517 C   0  0  0  0  0  0  0  0  0  0  0  0
   -2.9532  -14.5917  -22.1556 O   0  0  0  0  0  0  0  0  0  0  0  0
   -2.8445  -15.0201  -24.3366 O   0  0  0  0  0  0  0  0  0  0  0  0
   -2.4225  -15.4941  -25.0259 H   0  0  0  0  0  0  0  0  0  0  0  0
   -1.7758  -17.1815  -21.8597 C   0  0  0  0  0  0  0  0  0  0  0  0
   -2.8300  -18.0451  -22.1485 C   0  0  0  0  0  0  0  0  0  0  0  0
   -2.7970  -18.8725  -23.2760 C   0  0  0  0  0  0  0  0  0  0  0  0
   -3.9134  -18.1164  -21.2687 C   0  0  0  0  0  0  0  0  0  0  0  0
   -3.8588  -19.7514  -23.5274 C   0  0  0  0  0  0  0  0  0  0  0  0
   -4.9679  -18.9907  -21.5131 C   0  0  0  0  0  0  0  0  0  0  0  0
   -4.9419  -19.8068  -22.6400 C   0  0  0  0  0  0  0  0  0  0  0  0
   -5.9867  -20.6618  -22.8531 O   0  0  0  0  0  0  0  0  0  0  0  0
   -5.9892  -21.2200  -23.6057 H   0  0  0  0  0  0  0  0  0  0  0  0
    3.4458  -15.0798  -23.4323 C   0  0  0  0  0  0  0  0  0  0  0  0
    4.1397  -13.1129  -24.9372 C   0  0  0  0  0  0  0  0  0  0  0  0
    2.9436  -13.3032  -26.7767 N   0  0  0  0  0  0  0  0  0  0  0  0
    2.6148  -14.4868  -25.7238 O   0  0  0  0  0  0  0  0  0  0  0  0
    3.4042  -14.2089  -24.6978 C   0  0  0  0  0  0  0  0  0  0  0  0
    3.8584  -12.5738  -26.1488 C   0  0  0  0  0  0  0  0  0  0  0  0
    5.6614   -9.2538  -27.8681 C   0  0  0  0  0  0  0  0  0  0  0  0
    5.9384  -10.5365  -28.3513 C   0  0  0  0  0  0  0  0  0  0  0  0
    4.7834   -9.0994  -26.7902 C   0  0  0  0  0  0  0  0  0  0  0  0
    5.3325  -11.6509  -27.7639 C   0  0  0  0  0  0  0  0  0  0  0  0
    4.1883  -10.2176  -26.2092 C   0  0  0  0  0  0  0  0  0  0  0  0
    4.4669  -11.5086  -26.6823 C   0  0  0  0  0  0  0  0  0  0  0  0
    2.7982  -15.3159  -21.0789 C   0  0  0  0  0  0  0  0  0  0  0  0
    3.3974  -13.8559  -18.8928 O   0  0  0  0  0  0  0  0  0  0  0  0
    3.7730  -14.0650  -20.3137 P   0  0  0  0  0  0  0  0  0  0  0  0
    3.7918  -12.8727  -21.1782 O   0  0  0  0  0  0  0  0  0  0  0  0
    2.9165  -12.4549  -21.1718 H   0  0  0  0  0  0  0  0  0  0  0  0
    5.4668  -14.7791  -20.3940 C   0  0  0  0  0  0  0  0  0  0  0  0
    6.8734  -15.5198  -22.7099 O   0  0  0  0  0  0  0  0  0  0  0  0
    6.8390  -14.3187  -22.4056 C   0  0  0  0  0  0  0  0  0  0  0  0
    6.1963  -13.8943  -21.3034 N   0  0  0  0  0  0  0  0  0  0  0  0
    6.2177  -12.9321  -21.0961 H   0  0  0  0  0  0  0  0  0  0  0  0
    7.4895  -13.3738  -23.1334 O   0  0  0  0  0  0  0  0  0  0  0  0
    7.5729  -13.4479  -24.5643 C   0  0  0  0  0  0  0  0  0  0  0  0
    8.7068   -9.6445  -25.9526 C   0  0  0  0  0  0  0  0  0  0  0  0
    9.2644  -10.7838  -26.5363 C   0  0  0  0  0  0  0  0  0  0  0  0
    7.7745   -9.7518  -24.9150 C   0  0  0  0  0  0  0  0  0  0  0  0
    8.8876  -12.0528  -26.0752 C   0  0  0  0  0  0  0  0  0  0  0  0
    7.3956  -11.0190  -24.4534 C   0  0  0  0  0  0  0  0  0  0  0  0
    7.9496  -12.1726  -25.0345 C   0  0  0  0  0  0  0  0  0  0  0  0
    6.2299  -14.7994  -19.0445 C   0  0  0  0  0  0  0  0  0  0  0  0
    7.4963  -15.4410  -19.1669 C   0  0  0  0  0  0  0  0  0  0  0  0
    8.6829  -14.7432  -18.9362 C   0  0  0  0  0  0  0  0  0  0  0  0
    9.9335  -15.3687  -19.0724 C   0  0  0  0  0  0  0  0  0  0  0  0
   10.0198  -16.7160  -19.4314 C   0  0  0  0  0  0  0  0  0  0  0  0
    8.8367  -17.4215  -19.6577 C   0  0  0  0  0  0  0  0  0  0  0  0
    7.5860  -16.7952  -19.5314 C   0  0  0  0  0  0  0  0  0  0  0  0
  8  7  2  0  0  0
  7  6  1  0  0  0
  7  9  1  0  0  0
  6  4  1  0  0  0
  4  3  1  0  0  0
 11  6  1  0  0  0
 12 11  1  0  0  0
 13 12  2  0  0  0
 12 14  1  0  0  0
 18 17  1  0  0  0
 15 17  2  0  0  0
 17 16  1  0  0  0
 39 38  2  0  0  0
  3  2  2  0  0  0
 33 34  2  0  0  0
 34 35  1  0  0  0
 46 44  2  0  0  0
 44 45  1  0  0  0
 55 54  2  0  0  0
 53 54  1  0  0  0
 27 26  2  0  0  0
 26 28  1  0  0  0
 47 45  2  0  0  0
 48 46  1  0  0  0
 52 53  2  0  0  0
 56 55  1  0  0  0
 27 29  1  0  0  0
 28 30  2  0  0  0
 49 47  1  0  0  0
 48 49  2  0  0  0
 51 52  1  0  0  0
 51 56  2  0  0  0
 29 31  2  0  0  0
 30 31  1  0  0  0
 25 21  1  0  0  0
 21 24  2  0  0  0
 42 43  1  0  0  0
 43 49  1  0  0  0
 24 20  1  0  0  0
 20  1  1  0  0  0
 50 37  1  0  0  0
 50 51  1  0  0  0
  1 32  1  0  0  0
 32 34  1  0  0  0
 25 22  2  0  0  0
 22 23  1  0  0  0
 37 40  1  0  0  0
 40 39  1  0  0  0
 39 42  1  0  0  0
 23 24  1  0  0  0
  3  1  1  0  0  0
 31 25  1  0  0  0
 34 37  1  0  0  0
 15 13  1  0  0  0
 16 14  2  0  0  0
 35 36  1  0  0  0
 40 41  1  0  0  0
  4  5  1  0  0  0
 18 19  1  0  0  0
  9 10  1  0  0  0
M  END
> <minimizedAffinity>
-11.03078

$$$$
4CA6_3EF_A_1630


 56 60  0  0  0  0  0  0  0  0999 V2000
    2.5253  -16.0664  -22.5898 C   0  0  0  0  0  0  0  0  0  0  0  0
    0.9214  -16.5231  -24.3089 O   0  0  0  0  0  0  0  0  0  0  0  0
    1.1368  -16.4334  -23.0986 C   0  0  0  0  0  0  0  0  0  0  0  0
    0.1881  -16.6171  -22.1678 N   0  0  0  0  0  0  0  0  0  0  0  0
    0.4338  -16.5661  -21.2158 H   0  0  0  0  0  0  0  0  0  0  0  0
   -1.2173  -16.8944  -22.5351 C   0  0  0  0  0  0  0  0  0  0  0  0
   -1.9640  -15.5670  -22.7408 C   0  0  0  0  0  0  0  0  0  0  0  0
   -2.4820  -15.0417  -21.7319 O   0  0  0  0  0  0  0  0  0  0  0  0
   -2.0069  -15.1069  -23.9050 O   0  0  0  0  0  0  0  0  0  0  0  0
   -1.5896  -15.5673  -24.6063 H   0  0  0  0  0  0  0  0  0  0  0  0
   -1.9815  -17.7183  -21.4883 C   0  0  0  0  0  0  0  0  0  0  0  0
   -3.1181  -18.4368  -21.8521 C   0  0  0  0  0  0  0  0  0  0  0  0
   -4.2620  -18.4345  -21.0466 C   0  0  0  0  0  0  0  0  0  0  0  0
   -3.1270  -19.1304  -23.0651 C   0  0  0  0  0  0  0  0  0  0  0  0
   -5.4007  -19.1438  -21.4503 C   0  0  0  0  0  0  0  0  0  0  0  0
   -4.2574  -19.8329  -23.4712 C   0  0  0  0  0  0  0  0  0  0  0  0
   -5.3924  -19.8406  -22.6661 C   0  0  0  0  0  0  0  0  0  0  0  0
   -6.4918  -20.5324  -23.0913 O   0  0  0  0  0  0  0  0  0  0  0  0
   -7.2665  -20.5506  -22.5646 H   0  0  0  0  0  0  0  0  0  0  0  0
    2.4655  -15.8744  -21.0706 C   0  0  0  0  0  0  0  0  0  0  0  0
    4.9285  -15.8235  -20.3317 C   0  0  0  0  0  0  0  0  0  0  0  0
    5.2578  -13.8322  -19.4502 N   0  0  0  0  0  0  0  0  0  0  0  0
    3.7362  -14.0127  -19.9695 O   0  0  0  0  0  0  0  0  0  0  0  0
    3.7232  -15.2466  -20.4495 C   0  0  0  0  0  0  0  0  0  0  0  0
    5.8232  -15.0001  -19.7322 C   0  0  0  0  0  0  0  0  0  0  0  0
    9.8531  -15.8283  -19.1820 C   0  0  0  0  0  0  0  0  0  0  0  0
    8.9947  -16.8077  -19.6913 C   0  0  0  0  0  0  0  0  0  0  0  0
    9.3399  -14.5715  -18.8448 C   0  0  0  0  0  0  0  0  0  0  0  0
    7.6373  -16.5243  -19.8685 C   0  0  0  0  0  0  0  0  0  0  0  0
    7.9842  -14.3011  -19.0212 C   0  0  0  0  0  0  0  0  0  0  0  0
    7.1145  -15.2804  -19.5238 C   0  0  0  0  0  0  0  0  0  0  0  0
    2.9165  -14.6825  -23.1658 C   0  0  0  0  0  0  0  0  0  0  0  0
    2.8901  -13.8526  -25.7309 O   0  0  0  0  0  0  0  0  0  0  0  0
    3.5441  -14.8119  -24.8058 P   0  0  0  0  0  0  0  0  0  0  0  0
    3.5466  -16.2281  -25.2103 O   0  0  0  0  0  0  0  0  0  0  0  0
    2.6334  -16.5297  -25.3373 H   0  0  0  0  0  0  0  0  0  0  0  0
    5.3096  -14.3401  -24.5921 C   0  0  0  0  0  0  0  0  0  0  0  0
    7.2974  -14.4474  -26.5740 O   0  0  0  0  0  0  0  0  0  0  0  0
    6.5234  -13.4793  -26.5737 C   0  0  0  0  0  0  0  0  0  0  0  0
    5.5575  -13.3558  -25.6465 N   0  0  0  0  0  0  0  0  0  0  0  0
    4.9835  -12.5566  -25.6788 H   0  0  0  0  0  0  0  0  0  0  0  0
    6.6393  -12.4660  -27.4714 O   0  0  0  0  0  0  0  0  0  0  0  0
    5.6911  -12.2866  -28.5338 C   0  0  0  0  0  0  0  0  0  0  0  0
    3.6528   -8.6770  -27.8303 C   0  0  0  0  0  0  0  0  0  0  0  0
    2.9252   -9.8299  -28.1322 C   0  0  0  0  0  0  0  0  0  0  0  0
    5.0495   -8.7079  -27.7559 C   0  0  0  0  0  0  0  0  0  0  0  0
    3.6027  -11.0345  -28.3668 C   0  0  0  0  0  0  0  0  0  0  0  0
    5.7286   -9.9107  -27.9889 C   0  0  0  0  0  0  0  0  0  0  0  0
    5.0062  -11.0775  -28.2923 C   0  0  0  0  0  0  0  0  0  0  0  0
    5.6452  -13.6701  -23.2347 C   0  0  0  0  0  0  0  0  0  0  0  0
    7.0420  -13.7172  -22.9570 C   0  0  0  0  0  0  0  0  0  0  0  0
    7.7783  -14.8853  -23.1611 C   0  0  0  0  0  0  0  0  0  0  0  0
    9.1521  -14.9397  -22.8725 C   0  0  0  0  0  0  0  0  0  0  0  0
    9.8214  -13.8152  -22.3835 C   0  0  0  0  0  0  0  0  0  0  0  0
    9.0924  -12.6419  -22.1827 C   0  0  0  0  0  0  0  0  0  0  0  0
    7.7169  -12.5886  -22.4617 C   0  0  0  0  0  0  0  0  0  0  0  0
  8  7  2  0  0  0
  7  6  1  0  0  0
  7  9  1  0  0  0
  6  4  1  0  0  0
  4  3  1  0  0  0
 11  6  1  0  0  0
 12 11  1  0  0  0
 13 12  2  0  0  0
 12 14  1  0  0  0
 18 17  1  0  0  0
 15 17  2  0  0  0
 17 16  1  0  0  0
 39 38  2  0  0  0
  3  2  2  0  0  0
 33 34  2  0  0  0
 34 35  1  0  0  0
 46 44  2  0  0  0
 44 45  1  0  0  0
 55 54  2  0  0  0
 53 54  1  0  0  0
 27 26  2  0  0  0
 26 28  1  0  0  0
 47 45  2  0  0  0
 48 46  1  0  0  0
 52 53  2  0  0  0
 56 55  1  0  0  0
 27 29  1  0  0  0
 28 30  2  0  0  0
 49 47  1  0  0  0
 48 49  2  0  0  0
 51 52  1  0  0  0
 51 56  2  0  0  0
 29 31  2  0  0  0
 30 31  1  0  0  0
 25 21  1  0  0  0
 21 24  2  0  0  0
 42 43  1  0  0  0
 43 49  1  0  0  0
 24 20  1  0  0  0
 20  1  1  0  0  0
 50 37  1  0  0  0
 50 51  1  0  0  0
  1 32  1  0  0  0
 32 34  1  0  0  0
 25 22  2  0  0  0
 22 23  1  0  0  0
 37 40  1  0  0  0
 40 39  1  0  0  0
 39 42  1  0  0  0
 23 24  1  0  0  0
  3  1  1  0  0  0
 31 25  1  0  0  0
 34 37  1  0  0  0
 15 13  1  0  0  0
 16 14  2  0  0  0
 35 36  1  0  0  0
 40 41  1  0  0  0
  4  5  1  0  0  0
 18 19  1  0  0  0
  9 10  1  0  0  0
M  END
> <minimizedAffinity>
-10.98426

$$$$
4CA6_3EF_A_1630


 56 60  0  0  0  0  0  0  0  0999 V2000
    2.4521  -16.1505  -22.7071 C   0  0  0  0  0  0  0  0  0  0  0  0
    0.7878  -16.5283  -24.3876 O   0  0  0  0  0  0  0  0  0  0  0  0
    1.0404  -16.4710  -23.1825 C   0  0  0  0  0  0  0  0  0  0  0  0
    0.1146  -16.6514  -22.2283 N   0  0  0  0  0  0  0  0  0  0  0  0
    0.3890  -16.6278  -21.2831 H   0  0  0  0  0  0  0  0  0  0  0  0
   -1.3075  -16.8850  -22.5599 C   0  0  0  0  0  0  0  0  0  0  0  0
   -2.0229  -15.5349  -22.7250 C   0  0  0  0  0  0  0  0  0  0  0  0
   -2.4773  -14.9999  -21.6908 O   0  0  0  0  0  0  0  0  0  0  0  0
   -2.1064  -15.0675  -23.8840 O   0  0  0  0  0  0  0  0  0  0  0  0
   -1.7363  -15.5362  -24.6060 H   0  0  0  0  0  0  0  0  0  0  0  0
   -2.0647  -17.7039  -21.5041 C   0  0  0  0  0  0  0  0  0  0  0  0
   -3.2038  -18.4240  -21.8567 C   0  0  0  0  0  0  0  0  0  0  0  0
   -4.3706  -18.3506  -21.0884 C   0  0  0  0  0  0  0  0  0  0  0  0
   -3.1904  -19.1926  -23.0236 C   0  0  0  0  0  0  0  0  0  0  0  0
   -5.5106  -19.0640  -21.4816 C   0  0  0  0  0  0  0  0  0  0  0  0
   -4.3218  -19.8994  -23.4193 C   0  0  0  0  0  0  0  0  0  0  0  0
   -5.4799  -19.8363  -22.6505 C   0  0  0  0  0  0  0  0  0  0  0  0
   -6.5796  -20.5342  -23.0650 O   0  0  0  0  0  0  0  0  0  0  0  0
   -7.3697  -20.5055  -22.5621 H   0  0  0  0  0  0  0  0  0  0  0  0
    2.4694  -16.1269  -21.1750 C   0  0  0  0  0  0  0  0  0  0  0  0
    4.8170  -17.1686  -21.0386 C   0  0  0  0  0  0  0  0  0  0  0  0
    5.7123  -16.4082  -19.1755 N   0  0  0  0  0  0  0  0  0  0  0  0
    4.2184  -15.8296  -19.4013 O   0  0  0  0  0  0  0  0  0  0  0  0
    3.8443  -16.3902  -20.5410 C   0  0  0  0  0  0  0  0  0  0  0  0
    5.9053  -17.1910  -20.2306 C   0  0  0  0  0  0  0  0  0  0  0  0
    9.4096  -19.2857  -20.9798 C   0  0  0  0  0  0  0  0  0  0  0  0
    9.3080  -18.4596  -19.8561 C   0  0  0  0  0  0  0  0  0  0  0  0
    8.3259  -19.3887  -21.8582 C   0  0  0  0  0  0  0  0  0  0  0  0
    8.1272  -17.7521  -19.6128 C   0  0  0  0  0  0  0  0  0  0  0  0
    7.1550  -18.6756  -21.6085 C   0  0  0  0  0  0  0  0  0  0  0  0
    7.0474  -17.8381  -20.4881 C   0  0  0  0  0  0  0  0  0  0  0  0
    2.8095  -14.7085  -23.1463 C   0  0  0  0  0  0  0  0  0  0  0  0
    3.1687  -13.5458  -25.5523 O   0  0  0  0  0  0  0  0  0  0  0  0
    3.6166  -14.6840  -24.7110 P   0  0  0  0  0  0  0  0  0  0  0  0
    3.5401  -16.0258  -25.3136 O   0  0  0  0  0  0  0  0  0  0  0  0
    2.6255  -16.2089  -25.5800 H   0  0  0  0  0  0  0  0  0  0  0  0
    5.3787  -14.4354  -24.2433 C   0  0  0  0  0  0  0  0  0  0  0  0
    7.1682  -14.3271  -26.4059 O   0  0  0  0  0  0  0  0  0  0  0  0
    6.6468  -13.2692  -26.0246 C   0  0  0  0  0  0  0  0  0  0  0  0
    5.7921  -13.2445  -24.9870 N   0  0  0  0  0  0  0  0  0  0  0  0
    5.4228  -12.3745  -24.7113 H   0  0  0  0  0  0  0  0  0  0  0  0
    6.9479  -12.0731  -26.5945 O   0  0  0  0  0  0  0  0  0  0  0  0
    7.3001  -10.9278  -25.8044 C   0  0  0  0  0  0  0  0  0  0  0  0
   11.1426  -11.5878  -24.2302 C   0  0  0  0  0  0  0  0  0  0  0  0
   10.0209  -11.9174  -23.4667 C   0  0  0  0  0  0  0  0  0  0  0  0
   11.0048  -11.0443  -25.5119 C   0  0  0  0  0  0  0  0  0  0  0  0
    8.7389  -11.6984  -23.9897 C   0  0  0  0  0  0  0  0  0  0  0  0
    9.7247  -10.8257  -26.0370 C   0  0  0  0  0  0  0  0  0  0  0  0
    8.5886  -11.1549  -25.2778 C   0  0  0  0  0  0  0  0  0  0  0  0
    5.6200  -14.1570  -22.7373 C   0  0  0  0  0  0  0  0  0  0  0  0
    6.9542  -14.4754  -22.3517 C   0  0  0  0  0  0  0  0  0  0  0  0
    7.7487  -15.3164  -23.1323 C   0  0  0  0  0  0  0  0  0  0  0  0
    9.0588  -15.6455  -22.7461 C   0  0  0  0  0  0  0  0  0  0  0  0
    9.6060  -15.1252  -21.5708 C   0  0  0  0  0  0  0  0  0  0  0  0
    8.8190  -14.2785  -20.7883 C   0  0  0  0  0  0  0  0  0  0  0  0
    7.5058  -13.9562  -21.1680 C   0  0  0  0  0  0  0  0  0  0  0  0
  8  7  2  0  0  0
  7  6  1  0  0  0
  7  9  1  0  0  0
  6  4  1  0  0  0
  4  3  1  0  0  0
 11  6  1  0  0  0
 12 11  1  0  0  0
 13 12  2  0  0  0
 12 14  1  0  0  0
 18 17  1  0  0  0
 15 17  2  0  0  0
 17 16  1  0  0  0
 39 38  2  0  0  0
  3  2  2  0  0  0
 33 34  2  0  0  0
 34 35  1  0  0  0
 46 44  2  0  0  0
 44 45  1  0  0  0
 55 54  2  0  0  0
 53 54  1  0  0  0
 27 26  2  0  0  0
 26 28  1  0  0  0
 47 45  2  0  0  0
 48 46  1  0  0  0
 52 53  2  0  0  0
 56 55  1  0  0  0
 27 29  1  0  0  0
 28 30  2  0  0  0
 49 47  1  0  0  0
 48 49  2  0  0  0
 51 52  1  0  0  0
 51 56  2  0  0  0
 29 31  2  0  0  0
 30 31  1  0  0  0
 25 21  1  0  0  0
 21 24  2  0  0  0
 42 43  1  0  0  0
 43 49  1  0  0  0
 24 20  1  0  0  0
 20  1  1  0  0  0
 50 37  1  0  0  0
 50 51  1  0  0  0
  1 32  1  0  0  0
 32 34  1  0  0  0
 25 22  2  0  0  0
 22 23  1  0  0  0
 37 40  1  0  0  0
 40 39  1  0  0  0
 39 42  1  0  0  0
 23 24  1  0  0  0
  3  1  1  0  0  0
 31 25  1  0  0  0
 34 37  1  0  0  0
 15 13  1  0  0  0
 16 14  2  0  0  0
 35 36  1  0  0  0
 40 41  1  0  0  0
  4  5  1  0  0  0
 18 19  1  0  0  0
  9 10  1  0  0  0
M  END
> <minimizedAffinity>
-10.79276

$$$$
4CA6_3EF_A_1630


 56 60  0  0  0  0  0  0  0  0999 V2000
    2.5601  -15.8660  -22.2107 C   0  0  0  0  0  0  0  0  0  0  0  0
    0.6075  -14.4904  -22.0325 O   0  0  0  0  0  0  0  0  0  0  0  0
    1.0569  -15.6189  -22.2421 C   0  0  0  0  0  0  0  0  0  0  0  0
    0.2799  -16.6872  -22.4769 N   0  0  0  0  0  0  0  0  0  0  0  0
    0.7031  -17.5544  -22.6722 H   0  0  0  0  0  0  0  0  0  0  0  0
   -1.1958  -16.5956  -22.4499 C   0  0  0  0  0  0  0  0  0  0  0  0
   -1.7982  -17.8414  -23.1184 C   0  0  0  0  0  0  0  0  0  0  0  0
   -2.5884  -18.5289  -22.4364 O   0  0  0  0  0  0  0  0  0  0  0  0
   -1.4513  -18.0849  -24.2971 O   0  0  0  0  0  0  0  0  0  0  0  0
   -0.8516  -17.5144  -24.7362 H   0  0  0  0  0  0  0  0  0  0  0  0
   -1.7536  -15.3528  -23.1590 C   0  0  0  0  0  0  0  0  0  0  0  0
   -3.1268  -15.1216  -23.1965 C   0  0  0  0  0  0  0  0  0  0  0  0
   -3.7775  -14.8334  -24.4009 C   0  0  0  0  0  0  0  0  0  0  0  0
   -3.8684  -15.2275  -22.0169 C   0  0  0  0  0  0  0  0  0  0  0  0
   -5.1641  -14.6323  -24.4137 C   0  0  0  0  0  0  0  0  0  0  0  0
   -5.2461  -15.0322  -22.0264 C   0  0  0  0  0  0  0  0  0  0  0  0
   -5.8936  -14.7348  -23.2217 C   0  0  0  0  0  0  0  0  0  0  0  0
   -7.2483  -14.5546  -23.2049 O   0  0  0  0  0  0  0  0  0  0  0  0
   -7.7041  -14.3537  -23.9986 H   0  0  0  0  0  0  0  0  0  0  0  0
    3.0159  -15.9847  -20.7525 C   0  0  0  0  0  0  0  0  0  0  0  0
    5.4795  -15.6068  -20.1177 C   0  0  0  0  0  0  0  0  0  0  0  0
    6.5000  -17.5261  -20.4723 N   0  0  0  0  0  0  0  0  0  0  0  0
    4.9240  -17.6115  -20.8281 O   0  0  0  0  0  0  0  0  0  0  0  0
    4.4869  -16.3893  -20.5671 C   0  0  0  0  0  0  0  0  0  0  0  0
    6.6618  -16.2689  -20.0769 C   0  0  0  0  0  0  0  0  0  0  0  0
   10.2618  -14.6625  -18.7774 C   0  0  0  0  0  0  0  0  0  0  0  0
   10.2026  -15.9826  -19.2352 C   0  0  0  0  0  0  0  0  0  0  0  0
    9.0948  -13.8921  -18.7463 C   0  0  0  0  0  0  0  0  0  0  0  0
    8.9859  -16.5194  -19.6658 C   0  0  0  0  0  0  0  0  0  0  0  0
    7.8862  -14.4387  -19.1737 C   0  0  0  0  0  0  0  0  0  0  0  0
    7.8162  -15.7646  -19.6267 C   0  0  0  0  0  0  0  0  0  0  0  0
    3.2818  -14.6138  -22.7683 C   0  0  0  0  0  0  0  0  0  0  0  0
    3.0197  -13.8863  -25.3512 O   0  0  0  0  0  0  0  0  0  0  0  0
    3.7427  -14.8230  -24.4547 P   0  0  0  0  0  0  0  0  0  0  0  0
    3.6782  -16.2538  -24.7979 O   0  0  0  0  0  0  0  0  0  0  0  0
    2.7514  -16.5389  -24.8226 H   0  0  0  0  0  0  0  0  0  0  0  0
    5.5294  -14.3842  -24.4338 C   0  0  0  0  0  0  0  0  0  0  0  0
    7.3802  -14.4961  -26.5440 O   0  0  0  0  0  0  0  0  0  0  0  0
    6.5872  -13.5440  -26.5114 C   0  0  0  0  0  0  0  0  0  0  0  0
    5.6839  -13.4191  -25.5234 N   0  0  0  0  0  0  0  0  0  0  0  0
    5.0919  -12.6326  -25.5333 H   0  0  0  0  0  0  0  0  0  0  0  0
    6.6200  -12.5492  -27.4362 O   0  0  0  0  0  0  0  0  0  0  0  0
    5.5759  -12.3867  -28.4075 C   0  0  0  0  0  0  0  0  0  0  0  0
    3.8019   -8.6310  -27.7544 C   0  0  0  0  0  0  0  0  0  0  0  0
    3.0080   -9.7048  -28.1625 C   0  0  0  0  0  0  0  0  0  0  0  0
    5.1779   -8.7890  -27.5574 C   0  0  0  0  0  0  0  0  0  0  0  0
    3.5974  -10.9579  -28.3805 C   0  0  0  0  0  0  0  0  0  0  0  0
    5.7688  -10.0406  -27.7736 C   0  0  0  0  0  0  0  0  0  0  0  0
    4.9790  -11.1287  -28.1832 C   0  0  0  0  0  0  0  0  0  0  0  0
    6.0178  -13.7032  -23.1294 C   0  0  0  0  0  0  0  0  0  0  0  0
    7.4184  -13.8811  -22.9367 C   0  0  0  0  0  0  0  0  0  0  0  0
    8.2194  -12.8388  -22.4677 C   0  0  0  0  0  0  0  0  0  0  0  0
    9.6033  -13.0061  -22.2927 C   0  0  0  0  0  0  0  0  0  0  0  0
   10.2128  -14.2315  -22.5730 C   0  0  0  0  0  0  0  0  0  0  0  0
    9.4166  -15.2801  -23.0367 C   0  0  0  0  0  0  0  0  0  0  0  0
    8.0346  -15.1115  -23.2215 C   0  0  0  0  0  0  0  0  0  0  0  0
  8  7  2  0  0  0
  7  6  1  0  0  0
  7  9  1  0  0  0
  6  4  1  0  0  0
  4  3  1  0  0  0
 11  6  1  0  0  0
 12 11  1  0  0  0
 13 12  2  0  0  0
 12 14  1  0  0  0
 18 17  1  0  0  0
 15 17  2  0  0  0
 17 16  1  0  0  0
 39 38  2  0  0  0
  3  2  2  0  0  0
 33 34  2  0  0  0
 34 35  1  0  0  0
 46 44  2  0  0  0
 44 45  1  0  0  0
 55 54  2  0  0  0
 53 54  1  0  0  0
 27 26  2  0  0  0
 26 28  1  0  0  0
 47 45  2  0  0  0
 48 46  1  0  0  0
 52 53  2  0  0  0
 56 55  1  0  0  0
 27 29  1  0  0  0
 28 30  2  0  0  0
 49 47  1  0  0  0
 48 49  2  0  0  0
 51 52  1  0  0  0
 51 56  2  0  0  0
 29 31  2  0  0  0
 30 31  1  0  0  0
 25 21  1  0  0  0
 21 24  2  0  0  0
 42 43  1  0  0  0
 43 49  1  0  0  0
 24 20  1  0  0  0
 20  1  1  0  0  0
 50 37  1  0  0  0
 50 51  1  0  0  0
  1 32  1  0  0  0
 32 34  1  0  0  0
 25 22  2  0  0  0
 22 23  1  0  0  0
 37 40  1  0  0  0
 40 39  1  0  0  0
 39 42  1  0  0  0
 23 24  1  0  0  0
  3  1  1  0  0  0
 31 25  1  0  0  0
 34 37  1  0  0  0
 15 13  1  0  0  0
 16 14  2  0  0  0
 35 36  1  0  0  0
 40 41  1  0  0  0
  4  5  1  0  0  0
 18 19  1  0  0  0
  9 10  1  0  0  0
M  END
> <minimizedAffinity>
-10.71688

$$$$
4CA6_3EF_A_1630


 56 60  0  0  0  0  0  0  0  0999 V2000
    4.3932  -12.2352  -24.6824 C   0  0  0  0  0  0  0  0  0  0  0  0
    4.3003  -11.7954  -27.0350 O   0  0  0  0  0  0  0  0  0  0  0  0
    4.3445  -11.3191  -25.8989 C   0  0  0  0  0  0  0  0  0  0  0  0
    4.3818  -10.0001  -25.6562 N   0  0  0  0  0  0  0  0  0  0  0  0
    4.3805   -9.6837  -24.7239 H   0  0  0  0  0  0  0  0  0  0  0  0
    4.4249   -9.0092  -26.7531 C   0  0  0  0  0  0  0  0  0  0  0  0
    3.2263   -9.2296  -27.6893 C   0  0  0  0  0  0  0  0  0  0  0  0
    2.1100   -8.8342  -27.2895 O   0  0  0  0  0  0  0  0  0  0  0  0
    3.4497   -9.7951  -28.7844 O   0  0  0  0  0  0  0  0  0  0  0  0
    4.3207  -10.0601  -29.0057 H   0  0  0  0  0  0  0  0  0  0  0  0
    5.7087   -9.0694  -27.5938 C   0  0  0  0  0  0  0  0  0  0  0  0
    6.9524   -9.1588  -26.9728 C   0  0  0  0  0  0  0  0  0  0  0  0
    7.6431  -10.3739  -26.9119 C   0  0  0  0  0  0  0  0  0  0  0  0
    7.5360   -8.0035  -26.4461 C   0  0  0  0  0  0  0  0  0  0  0  0
    8.9048  -10.4293  -26.3053 C   0  0  0  0  0  0  0  0  0  0  0  0
    8.7906   -8.0540  -25.8462 C   0  0  0  0  0  0  0  0  0  0  0  0
    9.4743   -9.2639  -25.7751 C   0  0  0  0  0  0  0  0  0  0  0  0
   10.7080   -9.2849  -25.1872 O   0  0  0  0  0  0  0  0  0  0  0  0
   11.1856  -10.0890  -25.1289 H   0  0  0  0  0  0  0  0  0  0  0  0
    4.3323  -11.3809  -23.4117 C   0  0  0  0  0  0  0  0  0  0  0  0
    4.4357  -13.3071  -21.7105 C   0  0  0  0  0  0  0  0  0  0  0  0
    2.9542  -12.8239  -20.1541 N   0  0  0  0  0  0  0  0  0  0  0  0
    3.0060  -11.6875  -21.3045 O   0  0  0  0  0  0  0  0  0  0  0  0
    3.9261  -12.1431  -22.1405 C   0  0  0  0  0  0  0  0  0  0  0  0
    3.8551  -13.7133  -20.5547 C   0  0  0  0  0  0  0  0  0  0  0  0
    4.9885  -17.1141  -18.4622 C   0  0  0  0  0  0  0  0  0  0  0  0
    4.2047  -17.2236  -19.6151 C   0  0  0  0  0  0  0  0  0  0  0  0
    5.3750  -15.8479  -18.0107 C   0  0  0  0  0  0  0  0  0  0  0  0
    3.8213  -16.0740  -20.3118 C   0  0  0  0  0  0  0  0  0  0  0  0
    4.9835  -14.7080  -18.7104 C   0  0  0  0  0  0  0  0  0  0  0  0
    4.1903  -14.8082  -19.8632 C   0  0  0  0  0  0  0  0  0  0  0  0
    5.7740  -12.9364  -24.6427 C   0  0  0  0  0  0  0  0  0  0  0  0
    6.2711  -14.6063  -26.7003 O   0  0  0  0  0  0  0  0  0  0  0  0
    5.7034  -14.5561  -25.3295 P   0  0  0  0  0  0  0  0  0  0  0  0
    4.3442  -15.0953  -25.1534 O   0  0  0  0  0  0  0  0  0  0  0  0
    3.7302  -14.6207  -25.7353 H   0  0  0  0  0  0  0  0  0  0  0  0
    6.7837  -15.5161  -24.1907 C   0  0  0  0  0  0  0  0  0  0  0  0
    9.5608  -15.3103  -24.5598 O   0  0  0  0  0  0  0  0  0  0  0  0
    9.0031  -14.4719  -23.8369 C   0  0  0  0  0  0  0  0  0  0  0  0
    7.6796  -14.5179  -23.6048 N   0  0  0  0  0  0  0  0  0  0  0  0
    7.2903  -13.8405  -23.0057 H   0  0  0  0  0  0  0  0  0  0  0  0
    9.7002  -13.4964  -23.1979 O   0  0  0  0  0  0  0  0  0  0  0  0
    9.1732  -12.8239  -22.0446 C   0  0  0  0  0  0  0  0  0  0  0  0
    9.8134  -15.3142  -18.7179 C   0  0  0  0  0  0  0  0  0  0  0  0
    8.7671  -14.3899  -18.6935 C   0  0  0  0  0  0  0  0  0  0  0  0
   10.6487  -15.4245  -19.8347 C   0  0  0  0  0  0  0  0  0  0  0  0
    8.5517  -13.5588  -19.8017 C   0  0  0  0  0  0  0  0  0  0  0  0
   10.4346  -14.5959  -20.9436 C   0  0  0  0  0  0  0  0  0  0  0  0
    9.3836  -13.6628  -20.9305 C   0  0  0  0  0  0  0  0  0  0  0  0
    6.0402  -16.2214  -23.0273 C   0  0  0  0  0  0  0  0  0  0  0  0
    6.8847  -17.1472  -22.3490 C   0  0  0  0  0  0  0  0  0  0  0  0
    7.2775  -18.3417  -22.9547 C   0  0  0  0  0  0  0  0  0  0  0  0
    8.0964  -19.2641  -22.2822 C   0  0  0  0  0  0  0  0  0  0  0  0
    8.5510  -19.0003  -20.9878 C   0  0  0  0  0  0  0  0  0  0  0  0
    8.1668  -17.8048  -20.3783 C   0  0  0  0  0  0  0  0  0  0  0  0
    7.3403  -16.8860  -21.0456 C   0  0  0  0  0  0  0  0  0  0  0  0
  8  7  2  0  0  0
  7  6  1  0  0  0
  7  9  1  0  0  0
  6  4  1  0  0  0
  4  3  1  0  0  0
 11  6  1  0  0  0
 12 11  1  0  0  0
 13 12  2  0  0  0
 12 14  1  0  0  0
 18 17  1  0  0  0
 15 17  2  0  0  0
 17 16  1  0  0  0
 39 38  2  0  0  0
  3  2  2  0  0  0
 33 34  2  0  0  0
 34 35  1  0  0  0
 46 44  2  0  0  0
 44 45  1  0  0  0
 55 54  2  0  0  0
 53 54  1  0  0  0
 27 26  2  0  0  0
 26 28  1  0  0  0
 47 45  2  0  0  0
 48 46  1  0  0  0
 52 53  2  0  0  0
 56 55  1  0  0  0
 27 29  1  0  0  0
 28 30  2  0  0  0
 49 47  1  0  0  0
 48 49  2  0  0  0
 51 52  1  0  0  0
 51 56  2  0  0  0
 29 31  2  0  0  0
 30 31  1  0  0  0
 25 21  1  0  0  0
 21 24  2  0  0  0
 42 43  1  0  0  0
 43 49  1  0  0  0
 24 20  1  0  0  0
 20  1  1  0  0  0
 50 37  1  0  0  0
 50 51  1  0  0  0
  1 32  1  0  0  0
 32 34  1  0  0  0
 25 22  2  0  0  0
 22 23  1  0  0  0
 37 40  1  0  0  0
 40 39  1  0  0  0
 39 42  1  0  0  0
 23 24  1  0  0  0
  3  1  1  0  0  0
 31 25  1  0  0  0
 34 37  1  0  0  0
 15 13  1  0  0  0
 16 14  2  0  0  0
 35 36  1  0  0  0
 40 41  1  0  0  0
  4  5  1  0  0  0
 18 19  1  0  0  0
  9 10  1  0  0  0
M  END
> <minimizedAffinity>
-10.55849

$$$$
4CA6_3EF_A_1630


 56 60  0  0  0  0  0  0  0  0999 V2000
    2.1313  -14.9850  -22.5287 C   0  0  0  0  0  0  0  0  0  0  0  0
    1.0511  -16.8209  -23.6237 O   0  0  0  0  0  0  0  0  0  0  0  0
    0.9223  -15.8393  -22.8894 C   0  0  0  0  0  0  0  0  0  0  0  0
   -0.2594  -15.4438  -22.3920 N   0  0  0  0  0  0  0  0  0  0  0  0
   -0.2887  -14.6714  -21.7823 H   0  0  0  0  0  0  0  0  0  0  0  0
   -1.5188  -16.1383  -22.7360 C   0  0  0  0  0  0  0  0  0  0  0  0
   -2.6894  -15.1459  -22.6542 C   0  0  0  0  0  0  0  0  0  0  0  0
   -3.3676  -14.9772  -23.6904 O   0  0  0  0  0  0  0  0  0  0  0  0
   -2.8788  -14.5709  -21.5577 O   0  0  0  0  0  0  0  0  0  0  0  0
   -2.3205  -14.7569  -20.8285 H   0  0  0  0  0  0  0  0  0  0  0  0
   -1.8374  -17.3332  -21.8253 C   0  0  0  0  0  0  0  0  0  0  0  0
   -2.9141  -18.1690  -22.1128 C   0  0  0  0  0  0  0  0  0  0  0  0
   -2.9286  -18.9551  -23.2700 C   0  0  0  0  0  0  0  0  0  0  0  0
   -3.9718  -18.2554  -21.2037 C   0  0  0  0  0  0  0  0  0  0  0  0
   -4.0120  -19.8075  -23.5205 C   0  0  0  0  0  0  0  0  0  0  0  0
   -5.0477  -19.1036  -21.4473 C   0  0  0  0  0  0  0  0  0  0  0  0
   -5.0690  -19.8782  -22.6031 C   0  0  0  0  0  0  0  0  0  0  0  0
   -6.1339  -20.7084  -22.8151 O   0  0  0  0  0  0  0  0  0  0  0  0
   -6.1682  -21.2387  -23.5868 H   0  0  0  0  0  0  0  0  0  0  0  0
    3.2590  -15.2696  -23.5265 C   0  0  0  0  0  0  0  0  0  0  0  0
    4.2877  -13.2578  -24.7551 C   0  0  0  0  0  0  0  0  0  0  0  0
    3.1246  -13.0187  -26.6101 N   0  0  0  0  0  0  0  0  0  0  0  0
    2.5895  -14.2622  -25.7243 O   0  0  0  0  0  0  0  0  0  0  0  0
    3.3855  -14.2466  -24.6664 C   0  0  0  0  0  0  0  0  0  0  0  0
    4.1247  -12.5291  -25.8866 C   0  0  0  0  0  0  0  0  0  0  0  0
    6.5033   -9.3833  -27.1806 C   0  0  0  0  0  0  0  0  0  0  0  0
    7.0090  -10.6868  -27.1570 C   0  0  0  0  0  0  0  0  0  0  0  0
    5.1940   -9.1454  -26.7501 C   0  0  0  0  0  0  0  0  0  0  0  0
    6.2048  -11.7410  -26.7143 C   0  0  0  0  0  0  0  0  0  0  0  0
    4.4022  -10.2030  -26.3065 C   0  0  0  0  0  0  0  0  0  0  0  0
    4.9042  -11.5125  -26.2716 C   0  0  0  0  0  0  0  0  0  0  0  0
    2.6724  -15.4449  -21.1519 C   0  0  0  0  0  0  0  0  0  0  0  0
    3.2669  -13.9094  -19.0169 O   0  0  0  0  0  0  0  0  0  0  0  0
    3.6893  -14.2158  -20.4067 P   0  0  0  0  0  0  0  0  0  0  0  0
    3.8192  -13.0743  -21.3283 O   0  0  0  0  0  0  0  0  0  0  0  0
    2.9720  -12.6051  -21.3832 H   0  0  0  0  0  0  0  0  0  0  0  0
    5.3374  -15.0332  -20.3729 C   0  0  0  0  0  0  0  0  0  0  0  0
    6.4928  -16.0153  -22.7375 O   0  0  0  0  0  0  0  0  0  0  0  0
    6.6527  -14.8174  -22.4621 C   0  0  0  0  0  0  0  0  0  0  0  0
    6.1400  -14.2829  -21.3400 N   0  0  0  0  0  0  0  0  0  0  0  0
    6.3146  -13.3312  -21.1581 H   0  0  0  0  0  0  0  0  0  0  0  0
    7.3960  -13.9927  -23.2453 O   0  0  0  0  0  0  0  0  0  0  0  0
    8.2485  -14.5016  -24.2817 C   0  0  0  0  0  0  0  0  0  0  0  0
   11.8448  -15.7030  -22.4645 C   0  0  0  0  0  0  0  0  0  0  0  0
   10.9156  -16.6693  -22.8552 C   0  0  0  0  0  0  0  0  0  0  0  0
   11.5965  -14.3420  -22.6723 C   0  0  0  0  0  0  0  0  0  0  0  0
    9.7161  -16.2709  -23.4615 C   0  0  0  0  0  0  0  0  0  0  0  0
   10.3990  -13.9417  -23.2791 C   0  0  0  0  0  0  0  0  0  0  0  0
    9.4571  -14.9059  -23.6774 C   0  0  0  0  0  0  0  0  0  0  0  0
    6.0676  -14.9711  -19.0066 C   0  0  0  0  0  0  0  0  0  0  0  0
    7.4198  -15.4073  -19.1136 C   0  0  0  0  0  0  0  0  0  0  0  0
    7.7279  -16.7046  -19.5262 C   0  0  0  0  0  0  0  0  0  0  0  0
    9.0597  -17.1429  -19.6166 C   0  0  0  0  0  0  0  0  0  0  0  0
   10.1147  -16.2815  -19.3064 C   0  0  0  0  0  0  0  0  0  0  0  0
    9.8139  -14.9807  -18.8987 C   0  0  0  0  0  0  0  0  0  0  0  0
    8.4829  -14.5440  -18.7986 C   0  0  0  0  0  0  0  0  0  0  0  0
  8  7  2  0  0  0
  7  6  1  0  0  0
  7  9  1  0  0  0
  6  4  1  0  0  0
  4  3  1  0  0  0
 11  6  1  0  0  0
 12 11  1  0  0  0
 13 12  2  0  0  0
 12 14  1  0  0  0
 18 17  1  0  0  0
 15 17  2  0  0  0
 17 16  1  0  0  0
 39 38  2  0  0  0
  3  2  2  0  0  0
 33 34  2  0  0  0
 34 35  1  0  0  0
 46 44  2  0  0  0
 44 45  1  0  0  0
 55 54  2  0  0  0
 53 54  1  0  0  0
 27 26  2  0  0  0
 26 28  1  0  0  0
 47 45  2  0  0  0
 48 46  1  0  0  0
 52 53  2  0  0  0
 56 55  1  0  0  0
 27 29  1  0  0  0
 28 30  2  0  0  0
 49 47  1  0  0  0
 48 49  2  0  0  0
 51 52  1  0  0  0
 51 56  2  0  0  0
 29 31  2  0  0  0
 30 31  1  0  0  0
 25 21  1  0  0  0
 21 24  2  0  0  0
 42 43  1  0  0  0
 43 49  1  0  0  0
 24 20  1  0  0  0
 20  1  1  0  0  0
 50 37  1  0  0  0
 50 51  1  0  0  0
  1 32  1  0  0  0
 32 34  1  0  0  0
 25 22  2  0  0  0
 22 23  1  0  0  0
 37 40  1  0  0  0
 40 39  1  0  0  0
 39 42  1  0  0  0
 23 24  1  0  0  0
  3  1  1  0  0  0
 31 25  1  0  0  0
 34 37  1  0  0  0
 15 13  1  0  0  0
 16 14  2  0  0  0
 35 36  1  0  0  0
 40 41  1  0  0  0
  4  5  1  0  0  0
 18 19  1  0  0  0
  9 10  1  0  0  0
M  END
> <minimizedAffinity>
-10.44161

$$$$
4CA6_3EF_A_1630


 56 60  0  0  0  0  0  0  0  0999 V2000
    5.0678  -11.2520  -23.3491 C   0  0  0  0  0  0  0  0  0  0  0  0
    4.1083   -9.7323  -24.9323 O   0  0  0  0  0  0  0  0  0  0  0  0
    4.7123  -10.7925  -24.7576 C   0  0  0  0  0  0  0  0  0  0  0  0
    5.0651  -11.6109  -25.7606 N   0  0  0  0  0  0  0  0  0  0  0  0
    5.5778  -12.4263  -25.5566 H   0  0  0  0  0  0  0  0  0  0  0  0
    4.7038  -11.3197  -27.1647 C   0  0  0  0  0  0  0  0  0  0  0  0
    4.4883  -12.6395  -27.9220 C   0  0  0  0  0  0  0  0  0  0  0  0
    3.3652  -12.8239  -28.4385 O   0  0  0  0  0  0  0  0  0  0  0  0
    5.4501  -13.4408  -27.9641 O   0  0  0  0  0  0  0  0  0  0  0  0
    6.2607  -13.2220  -27.5481 H   0  0  0  0  0  0  0  0  0  0  0  0
    5.7597  -10.4992  -27.9200 C   0  0  0  0  0  0  0  0  0  0  0  0
    6.9105  -10.0632  -27.2672 C   0  0  0  0  0  0  0  0  0  0  0  0
    7.0030   -8.7633  -26.7584 C   0  0  0  0  0  0  0  0  0  0  0  0
    7.9675  -10.9575  -27.0785 C   0  0  0  0  0  0  0  0  0  0  0  0
    8.1618   -8.3599  -26.0821 C   0  0  0  0  0  0  0  0  0  0  0  0
    9.1184  -10.5616  -26.4039 C   0  0  0  0  0  0  0  0  0  0  0  0
    9.2166   -9.2657  -25.9066 C   0  0  0  0  0  0  0  0  0  0  0  0
   10.3548   -8.9043  -25.2417 O   0  0  0  0  0  0  0  0  0  0  0  0
   10.4415   -8.0366  -24.8988 H   0  0  0  0  0  0  0  0  0  0  0  0
    6.5881  -11.1815  -23.1701 C   0  0  0  0  0  0  0  0  0  0  0  0
    7.7222  -13.2557  -22.1571 C   0  0  0  0  0  0  0  0  0  0  0  0
    8.3126  -14.5193  -23.8617 N   0  0  0  0  0  0  0  0  0  0  0  0
    7.5752  -13.1640  -24.3485 O   0  0  0  0  0  0  0  0  0  0  0  0
    7.3066  -12.5393  -23.2124 C   0  0  0  0  0  0  0  0  0  0  0  0
    8.3253  -14.4084  -22.5386 C   0  0  0  0  0  0  0  0  0  0  0  0
    9.8670  -17.2559  -19.9418 C   0  0  0  0  0  0  0  0  0  0  0  0
   10.1735  -17.3051  -21.3053 C   0  0  0  0  0  0  0  0  0  0  0  0
    9.0241  -16.2481  -19.4620 C   0  0  0  0  0  0  0  0  0  0  0  0
    9.6461  -16.3467  -22.1755 C   0  0  0  0  0  0  0  0  0  0  0  0
    8.5002  -15.3003  -20.3390 C   0  0  0  0  0  0  0  0  0  0  0  0
    8.7957  -15.3470  -21.7096 C   0  0  0  0  0  0  0  0  0  0  0  0
    4.7046  -12.7513  -23.2083 C   0  0  0  0  0  0  0  0  0  0  0  0
    2.6243  -12.1875  -21.5885 O   0  0  0  0  0  0  0  0  0  0  0  0
    3.8103  -13.0697  -21.7254 P   0  0  0  0  0  0  0  0  0  0  0  0
    4.7509  -13.0987  -20.5924 O   0  0  0  0  0  0  0  0  0  0  0  0
    5.0791  -12.2020  -20.4216 H   0  0  0  0  0  0  0  0  0  0  0  0
    3.2498  -14.8056  -21.9665 C   0  0  0  0  0  0  0  0  0  0  0  0
    1.1723  -16.6537  -21.5676 O   0  0  0  0  0  0  0  0  0  0  0  0
    0.9146  -15.6072  -22.1797 C   0  0  0  0  0  0  0  0  0  0  0  0
    1.8631  -14.6848  -22.4190 N   0  0  0  0  0  0  0  0  0  0  0  0
    1.6101  -13.8811  -22.9283 H   0  0  0  0  0  0  0  0  0  0  0  0
   -0.3203  -15.3574  -22.6882 O   0  0  0  0  0  0  0  0  0  0  0  0
   -1.2664  -16.4104  -22.9250 C   0  0  0  0  0  0  0  0  0  0  0  0
   -5.1096  -14.7529  -22.5231 C   0  0  0  0  0  0  0  0  0  0  0  0
   -4.3665  -14.4942  -23.6766 C   0  0  0  0  0  0  0  0  0  0  0  0
   -4.5939  -15.5580  -21.5018 C   0  0  0  0  0  0  0  0  0  0  0  0
   -3.0851  -15.0460  -23.8127 C   0  0  0  0  0  0  0  0  0  0  0  0
   -3.3141  -16.1114  -21.6362 C   0  0  0  0  0  0  0  0  0  0  0  0
   -2.5578  -15.8587  -22.7936 C   0  0  0  0  0  0  0  0  0  0  0  0
    4.0298  -15.5980  -23.0470 C   0  0  0  0  0  0  0  0  0  0  0  0
    4.9200  -16.5451  -22.4633 C   0  0  0  0  0  0  0  0  0  0  0  0
    5.8440  -17.2417  -23.2437 C   0  0  0  0  0  0  0  0  0  0  0  0
    6.7116  -18.1883  -22.6736 C   0  0  0  0  0  0  0  0  0  0  0  0
    6.6792  -18.4474  -21.3013 C   0  0  0  0  0  0  0  0  0  0  0  0
    5.7616  -17.7499  -20.5139 C   0  0  0  0  0  0  0  0  0  0  0  0
    4.8870  -16.8103  -21.0837 C   0  0  0  0  0  0  0  0  0  0  0  0
  8  7  2  0  0  0
  7  6  1  0  0  0
  7  9  1  0  0  0
  6  4  1  0  0  0
  4  3  1  0  0  0
 11  6  1  0  0  0
 12 11  1  0  0  0
 13 12  2  0  0  0
 12 14  1  0  0  0
 18 17  1  0  0  0
 15 17  2  0  0  0
 17 16  1  0  0  0
 39 38  2  0  0  0
  3  2  2  0  0  0
 33 34  2  0  0  0
 34 35  1  0  0  0
 46 44  2  0  0  0
 44 45  1  0  0  0
 55 54  2  0  0  0
 53 54  1  0  0  0
 27 26  2  0  0  0
 26 28  1  0  0  0
 47 45  2  0  0  0
 48 46  1  0  0  0
 52 53  2  0  0  0
 56 55  1  0  0  0
 27 29  1  0  0  0
 28 30  2  0  0  0
 49 47  1  0  0  0
 48 49  2  0  0  0
 51 52  1  0  0  0
 51 56  2  0  0  0
 29 31  2  0  0  0
 30 31  1  0  0  0
 25 21  1  0  0  0
 21 24  2  0  0  0
 42 43  1  0  0  0
 43 49  1  0  0  0
 24 20  1  0  0  0
 20  1  1  0  0  0
 50 37  1  0  0  0
 50 51  1  0  0  0
  1 32  1  0  0  0
 32 34  1  0  0  0
 25 22  2  0  0  0
 22 23  1  0  0  0
 37 40  1  0  0  0
 40 39  1  0  0  0
 39 42  1  0  0  0
 23 24  1  0  0  0
  3  1  1  0  0  0
 31 25  1  0  0  0
 34 37  1  0  0  0
 15 13  1  0  0  0
 16 14  2  0  0  0
 35 36  1  0  0  0
 40 41  1  0  0  0
  4  5  1  0  0  0
 18 19  1  0  0  0
  9 10  1  0  0  0
M  END
> <minimizedAffinity>
-10.36950

$$$$
4CA6_3EF_A_1630


 56 60  0  0  0  0  0  0  0  0999 V2000
    4.5716  -12.8112  -23.8254 C   0  0  0  0  0  0  0  0  0  0  0  0
    5.0816  -12.6395  -26.1593 O   0  0  0  0  0  0  0  0  0  0  0  0
    4.8900  -12.0393  -25.0998 C   0  0  0  0  0  0  0  0  0  0  0  0
    4.9740  -10.7051  -24.9858 N   0  0  0  0  0  0  0  0  0  0  0  0
    4.7743  -10.2844  -24.1184 H   0  0  0  0  0  0  0  0  0  0  0  0
    5.3586   -9.8502  -26.1295 C   0  0  0  0  0  0  0  0  0  0  0  0
    4.1810   -9.7495  -27.1119 C   0  0  0  0  0  0  0  0  0  0  0  0
    3.2594   -8.9579  -26.8183 O   0  0  0  0  0  0  0  0  0  0  0  0
    4.2234  -10.4713  -28.1347 O   0  0  0  0  0  0  0  0  0  0  0  0
    4.9553  -11.0386  -28.2777 H   0  0  0  0  0  0  0  0  0  0  0  0
    6.5852  -10.3598  -26.9005 C   0  0  0  0  0  0  0  0  0  0  0  0
    7.8614   -9.9127  -26.5661 C   0  0  0  0  0  0  0  0  0  0  0  0
    8.0788   -8.5943  -26.1517 C   0  0  0  0  0  0  0  0  0  0  0  0
    8.9300  -10.8125  -26.6011 C   0  0  0  0  0  0  0  0  0  0  0  0
    9.3685   -8.1790  -25.7949 C   0  0  0  0  0  0  0  0  0  0  0  0
   10.2115  -10.4047  -26.2439 C   0  0  0  0  0  0  0  0  0  0  0  0
   10.4316   -9.0908  -25.8418 C   0  0  0  0  0  0  0  0  0  0  0  0
   11.6983   -8.7176  -25.4894 O   0  0  0  0  0  0  0  0  0  0  0  0
   11.8684   -7.8378  -25.2156 H   0  0  0  0  0  0  0  0  0  0  0  0
    5.4490  -12.2791  -22.6873 C   0  0  0  0  0  0  0  0  0  0  0  0
    7.6433  -13.6196  -22.7430 C   0  0  0  0  0  0  0  0  0  0  0  0
    9.2110  -12.1949  -23.3454 N   0  0  0  0  0  0  0  0  0  0  0  0
    7.7575  -11.4885  -23.2694 O   0  0  0  0  0  0  0  0  0  0  0  0
    6.9595  -12.4750  -22.8913 C   0  0  0  0  0  0  0  0  0  0  0  0
    8.9648  -13.4515  -22.9942 C   0  0  0  0  0  0  0  0  0  0  0  0
   11.7762  -16.5017  -22.8480 C   0  0  0  0  0  0  0  0  0  0  0  0
   12.0517  -15.2598  -22.2672 C   0  0  0  0  0  0  0  0  0  0  0  0
   10.5512  -16.7032  -23.4924 C   0  0  0  0  0  0  0  0  0  0  0  0
   11.1031  -14.2348  -22.3252 C   0  0  0  0  0  0  0  0  0  0  0  0
    9.6143  -15.6731  -23.5483 C   0  0  0  0  0  0  0  0  0  0  0  0
    9.8858  -14.4215  -22.9755 C   0  0  0  0  0  0  0  0  0  0  0  0
    4.9972  -14.2881  -24.0189 C   0  0  0  0  0  0  0  0  0  0  0  0
    3.7179  -16.1452  -25.4968 O   0  0  0  0  0  0  0  0  0  0  0  0
    3.6068  -15.3427  -24.2528 P   0  0  0  0  0  0  0  0  0  0  0  0
    2.3724  -14.5588  -24.0761 O   0  0  0  0  0  0  0  0  0  0  0  0
    2.2683  -13.9472  -24.8218 H   0  0  0  0  0  0  0  0  0  0  0  0
    3.7111  -16.4635  -22.7973 C   0  0  0  0  0  0  0  0  0  0  0  0
    5.8679  -18.0945  -23.5582 O   0  0  0  0  0  0  0  0  0  0  0  0
    6.0873  -17.1664  -22.7665 C   0  0  0  0  0  0  0  0  0  0  0  0
    5.1000  -16.3551  -22.3484 N   0  0  0  0  0  0  0  0  0  0  0  0
    5.3244  -15.6467  -21.7026 H   0  0  0  0  0  0  0  0  0  0  0  0
    7.3195  -16.9496  -22.2366 O   0  0  0  0  0  0  0  0  0  0  0  0
    7.7170  -17.5325  -20.9867 C   0  0  0  0  0  0  0  0  0  0  0  0
    9.6701  -14.5549  -18.7512 C   0  0  0  0  0  0  0  0  0  0  0  0
   10.3234  -15.7623  -19.0069 C   0  0  0  0  0  0  0  0  0  0  0  0
    8.3768  -14.3221  -19.2312 C   0  0  0  0  0  0  0  0  0  0  0  0
    9.6741  -16.7562  -19.7522 C   0  0  0  0  0  0  0  0  0  0  0  0
    7.7266  -15.3135  -19.9772 C   0  0  0  0  0  0  0  0  0  0  0  0
    8.3751  -16.5321  -20.2417 C   0  0  0  0  0  0  0  0  0  0  0  0
    2.7997  -16.0710  -21.6061 C   0  0  0  0  0  0  0  0  0  0  0  0
    3.5489  -15.8970  -20.4067 C   0  0  0  0  0  0  0  0  0  0  0  0
    3.7126  -14.6338  -19.8360 C   0  0  0  0  0  0  0  0  0  0  0  0
    4.4647  -14.4568  -18.6627 C   0  0  0  0  0  0  0  0  0  0  0  0
    5.0598  -15.5495  -18.0275 C   0  0  0  0  0  0  0  0  0  0  0  0
    4.8952  -16.8166  -18.5896 C   0  0  0  0  0  0  0  0  0  0  0  0
    4.1517  -16.9940  -19.7678 C   0  0  0  0  0  0  0  0  0  0  0  0
  8  7  2  0  0  0
  7  6  1  0  0  0
  7  9  1  0  0  0
  6  4  1  0  0  0
  4  3  1  0  0  0
 11  6  1  0  0  0
 12 11  1  0  0  0
 13 12  2  0  0  0
 12 14  1  0  0  0
 18 17  1  0  0  0
 15 17  2  0  0  0
 17 16  1  0  0  0
 39 38  2  0  0  0
  3  2  2  0  0  0
 33 34  2  0  0  0
 34 35  1  0  0  0
 46 44  2  0  0  0
 44 45  1  0  0  0
 55 54  2  0  0  0
 53 54  1  0  0  0
 27 26  2  0  0  0
 26 28  1  0  0  0
 47 45  2  0  0  0
 48 46  1  0  0  0
 52 53  2  0  0  0
 56 55  1  0  0  0
 27 29  1  0  0  0
 28 30  2  0  0  0
 49 47  1  0  0  0
 48 49  2  0  0  0
 51 52  1  0  0  0
 51 56  2  0  0  0
 29 31  2  0  0  0
 30 31  1  0  0  0
 25 21  1  0  0  0
 21 24  2  0  0  0
 42 43  1  0  0  0
 43 49  1  0  0  0
 24 20  1  0  0  0
 20  1  1  0  0  0
 50 37  1  0  0  0
 50 51  1  0  0  0
  1 32  1  0  0  0
 32 34  1  0  0  0
 25 22  2  0  0  0
 22 23  1  0  0  0
 37 40  1  0  0  0
 40 39  1  0  0  0
 39 42  1  0  0  0
 23 24  1  0  0  0
  3  1  1  0  0  0
 31 25  1  0  0  0
 34 37  1  0  0  0
 15 13  1  0  0  0
 16 14  2  0  0  0
 35 36  1  0  0  0
 40 41  1  0  0  0
  4  5  1  0  0  0
 18 19  1  0  0  0
  9 10  1  0  0  0
M  END
> <minimizedAffinity>
-10.34902

$$$$
4CA6_3EF_A_1630


 56 60  0  0  0  0  0  0  0  0999 V2000
   -2.0376  -16.8537  -22.7911 C   0  0  0  0  0  0  0  0  0  0  0  0
    0.1240  -17.8114  -23.1745 O   0  0  0  0  0  0  0  0  0  0  0  0
   -0.5158  -16.8085  -22.8515 C   0  0  0  0  0  0  0  0  0  0  0  0
    0.0621  -15.6466  -22.5108 N   0  0  0  0  0  0  0  0  0  0  0  0
   -0.5072  -14.8723  -22.2972 H   0  0  0  0  0  0  0  0  0  0  0  0
    1.5322  -15.4990  -22.4481 C   0  0  0  0  0  0  0  0  0  0  0  0
    2.1361  -15.7997  -23.8289 C   0  0  0  0  0  0  0  0  0  0  0  0
    3.2303  -16.4032  -23.8537 O   0  0  0  0  0  0  0  0  0  0  0  0
    1.4938  -15.4141  -24.8327 O   0  0  0  0  0  0  0  0  0  0  0  0
    0.6778  -14.9667  -24.7233 H   0  0  0  0  0  0  0  0  0  0  0  0
    2.2050  -16.4190  -21.4187 C   0  0  0  0  0  0  0  0  0  0  0  0
    3.3397  -15.9941  -20.7316 C   0  0  0  0  0  0  0  0  0  0  0  0
    4.4632  -16.8193  -20.6135 C   0  0  0  0  0  0  0  0  0  0  0  0
    3.3686  -14.7042  -20.1948 C   0  0  0  0  0  0  0  0  0  0  0  0
    5.6013  -16.3559  -19.9405 C   0  0  0  0  0  0  0  0  0  0  0  0
    4.4985  -14.2392  -19.5290 C   0  0  0  0  0  0  0  0  0  0  0  0
    5.6130  -15.0625  -19.4011 C   0  0  0  0  0  0  0  0  0  0  0  0
    6.7125  -14.5791  -18.7489 O   0  0  0  0  0  0  0  0  0  0  0  0
    7.4736  -15.1169  -18.6516 H   0  0  0  0  0  0  0  0  0  0  0  0
   -2.5351  -15.7178  -21.8908 C   0  0  0  0  0  0  0  0  0  0  0  0
   -4.4174  -14.5889  -23.2315 C   0  0  0  0  0  0  0  0  0  0  0  0
   -6.2560  -14.8679  -22.0515 N   0  0  0  0  0  0  0  0  0  0  0  0
   -4.9729  -15.5363  -21.3274 O   0  0  0  0  0  0  0  0  0  0  0  0
   -3.9793  -15.2666  -22.1599 C   0  0  0  0  0  0  0  0  0  0  0  0
   -5.7486  -14.3422  -23.1602 C   0  0  0  0  0  0  0  0  0  0  0  0
   -7.9311  -12.3629  -26.0839 C   0  0  0  0  0  0  0  0  0  0  0  0
   -8.2886  -12.2470  -24.7369 C   0  0  0  0  0  0  0  0  0  0  0  0
   -6.8410  -13.1638  -26.4399 C   0  0  0  0  0  0  0  0  0  0  0  0
   -7.5531  -12.9211  -23.7578 C   0  0  0  0  0  0  0  0  0  0  0  0
   -6.1174  -13.8350  -25.4561 C   0  0  0  0  0  0  0  0  0  0  0  0
   -6.4741  -13.7309  -24.1033 C   0  0  0  0  0  0  0  0  0  0  0  0
   -2.4687  -18.1617  -22.0819 C   0  0  0  0  0  0  0  0  0  0  0  0
   -3.1962  -20.1753  -23.7207 O   0  0  0  0  0  0  0  0  0  0  0  0
   -3.7281  -19.0053  -22.9778 P   0  0  0  0  0  0  0  0  0  0  0  0
   -4.5071  -18.0246  -23.7528 O   0  0  0  0  0  0  0  0  0  0  0  0
   -3.9631  -17.6802  -24.4783 H   0  0  0  0  0  0  0  0  0  0  0  0
   -4.8411  -19.5941  -21.6361 C   0  0  0  0  0  0  0  0  0  0  0  0
   -6.6768  -18.0464  -20.1784 O   0  0  0  0  0  0  0  0  0  0  0  0
   -7.0025  -18.4259  -21.3125 C   0  0  0  0  0  0  0  0  0  0  0  0
   -6.1795  -19.1813  -22.0608 N   0  0  0  0  0  0  0  0  0  0  0  0
   -6.4956  -19.4737  -22.9461 H   0  0  0  0  0  0  0  0  0  0  0  0
   -8.2231  -18.1482  -21.8407 O   0  0  0  0  0  0  0  0  0  0  0  0
   -8.7248  -18.8460  -22.9902 C   0  0  0  0  0  0  0  0  0  0  0  0
   -8.8972  -16.0821  -26.1540 C   0  0  0  0  0  0  0  0  0  0  0  0
   -8.0178  -17.1638  -26.2332 C   0  0  0  0  0  0  0  0  0  0  0  0
   -9.7230  -15.9078  -25.0382 C   0  0  0  0  0  0  0  0  0  0  0  0
   -7.9589  -18.0866  -25.1796 C   0  0  0  0  0  0  0  0  0  0  0  0
   -9.6667  -16.8294  -23.9848 C   0  0  0  0  0  0  0  0  0  0  0  0
   -8.7861  -17.9226  -24.0545 C   0  0  0  0  0  0  0  0  0  0  0  0
   -4.8642  -21.1315  -21.4366 C   0  0  0  0  0  0  0  0  0  0  0  0
   -5.4186  -21.4888  -20.1736 C   0  0  0  0  0  0  0  0  0  0  0  0
   -4.8892  -20.9831  -18.9852 C   0  0  0  0  0  0  0  0  0  0  0  0
   -5.4231  -21.3466  -17.7376 C   0  0  0  0  0  0  0  0  0  0  0  0
   -6.5119  -22.2182  -17.6563 C   0  0  0  0  0  0  0  0  0  0  0  0
   -7.0500  -22.7230  -18.8412 C   0  0  0  0  0  0  0  0  0  0  0  0
   -6.5114  -22.3682  -20.0888 C   0  0  0  0  0  0  0  0  0  0  0  0
  8  7  2  0  0  0
  7  6  1  0  0  0
  7  9  1  0  0  0
  6  4  1  0  0  0
  4  3  1  0  0  0
 11  6  1  0  0  0
 12 11  1  0  0  0
 13 12  2  0  0  0
 12 14  1  0  0  0
 18 17  1  0  0  0
 15 17  2  0  0  0
 17 16  1  0  0  0
 39 38  2  0  0  0
  3  2  2  0  0  0
 33 34  2  0  0  0
 34 35  1  0  0  0
 46 44  2  0  0  0
 44 45  1  0  0  0
 55 54  2  0  0  0
 53 54  1  0  0  0
 27 26  2  0  0  0
 26 28  1  0  0  0
 47 45  2  0  0  0
 48 46  1  0  0  0
 52 53  2  0  0  0
 56 55  1  0  0  0
 27 29  1  0  0  0
 28 30  2  0  0  0
 49 47  1  0  0  0
 48 49  2  0  0  0
 51 52  1  0  0  0
 51 56  2  0  0  0
 29 31  2  0  0  0
 30 31  1  0  0  0
 25 21  1  0  0  0
 21 24  2  0  0  0
 42 43  1  0  0  0
 43 49  1  0  0  0
 24 20  1  0  0  0
 20  1  1  0  0  0
 50 37  1  0  0  0
 50 51  1  0  0  0
  1 32  1  0  0  0
 32 34  1  0  0  0
 25 22  2  0  0  0
 22 23  1  0  0  0
 37 40  1  0  0  0
 40 39  1  0  0  0
 39 42  1  0  0  0
 23 24  1  0  0  0
  3  1  1  0  0  0
 31 25  1  0  0  0
 34 37  1  0  0  0
 15 13  1  0  0  0
 16 14  2  0  0  0
 35 36  1  0  0  0
 40 41  1  0  0  0
  4  5  1  0  0  0
 18 19  1  0  0  0
  9 10  1  0  0  0
M  END
> <minimizedAffinity>
-10.32256

$$$$
4CA6_3EF_A_1630


 56 60  0  0  0  0  0  0  0  0999 V2000
    2.6364  -15.5605  -22.5692 C   0  0  0  0  0  0  0  0  0  0  0  0
    1.1699  -16.2182  -24.3450 O   0  0  0  0  0  0  0  0  0  0  0  0
    1.3175  -16.0786  -23.1292 C   0  0  0  0  0  0  0  0  0  0  0  0
    0.3489  -16.3359  -22.2372 N   0  0  0  0  0  0  0  0  0  0  0  0
    0.5428  -16.2377  -21.2770 H   0  0  0  0  0  0  0  0  0  0  0  0
   -1.0025  -16.7631  -22.6593 C   0  0  0  0  0  0  0  0  0  0  0  0
   -1.8434  -15.5260  -23.0120 C   0  0  0  0  0  0  0  0  0  0  0  0
   -1.8610  -14.5924  -22.1811 O   0  0  0  0  0  0  0  0  0  0  0  0
   -2.4573  -15.5415  -24.1037 O   0  0  0  0  0  0  0  0  0  0  0  0
   -2.3885  -16.2853  -24.6693 H   0  0  0  0  0  0  0  0  0  0  0  0
   -1.7591  -17.5706  -21.5943 C   0  0  0  0  0  0  0  0  0  0  0  0
   -2.8960  -18.2978  -21.9394 C   0  0  0  0  0  0  0  0  0  0  0  0
   -4.0382  -18.2777  -21.1319 C   0  0  0  0  0  0  0  0  0  0  0  0
   -2.9069  -19.0187  -23.1364 C   0  0  0  0  0  0  0  0  0  0  0  0
   -5.1774  -18.9966  -21.5172 C   0  0  0  0  0  0  0  0  0  0  0  0
   -4.0377  -19.7308  -23.5241 C   0  0  0  0  0  0  0  0  0  0  0  0
   -5.1711  -19.7208  -22.7169 C   0  0  0  0  0  0  0  0  0  0  0  0
   -6.2710  -20.4226  -23.1241 O   0  0  0  0  0  0  0  0  0  0  0  0
   -7.0446  -20.4292  -22.5956 H   0  0  0  0  0  0  0  0  0  0  0  0
    2.3960  -15.0009  -21.1631 C   0  0  0  0  0  0  0  0  0  0  0  0
    4.8628  -15.2116  -20.4664 C   0  0  0  0  0  0  0  0  0  0  0  0
    5.2380  -13.5652  -19.0525 N   0  0  0  0  0  0  0  0  0  0  0  0
    3.7106  -13.5596  -19.5859 O   0  0  0  0  0  0  0  0  0  0  0  0
    3.6694  -14.6025  -20.4006 C   0  0  0  0  0  0  0  0  0  0  0  0
    5.7774  -14.6128  -19.6646 C   0  0  0  0  0  0  0  0  0  0  0  0
    9.7483  -15.7436  -19.2380 C   0  0  0  0  0  0  0  0  0  0  0  0
    9.3545  -14.4312  -18.9584 C   0  0  0  0  0  0  0  0  0  0  0  0
    8.7958  -16.6688  -19.6776 C   0  0  0  0  0  0  0  0  0  0  0  0
    8.0167  -14.0553  -19.1099 C   0  0  0  0  0  0  0  0  0  0  0  0
    7.4656  -16.2822  -19.8295 C   0  0  0  0  0  0  0  0  0  0  0  0
    7.0634  -14.9657  -19.5592 C   0  0  0  0  0  0  0  0  0  0  0  0
    3.0981  -14.3519  -23.4212 C   0  0  0  0  0  0  0  0  0  0  0  0
    3.7527  -15.1414  -25.9148 O   0  0  0  0  0  0  0  0  0  0  0  0
    4.3333  -14.8106  -24.5892 P   0  0  0  0  0  0  0  0  0  0  0  0
    5.2198  -15.8181  -23.9822 O   0  0  0  0  0  0  0  0  0  0  0  0
    4.7387  -16.6546  -23.8836 H   0  0  0  0  0  0  0  0  0  0  0  0
    5.3330  -13.2725  -24.7322 C   0  0  0  0  0  0  0  0  0  0  0  0
    6.2922  -11.8627  -22.4999 O   0  0  0  0  0  0  0  0  0  0  0  0
    6.9423  -12.8401  -22.8980 C   0  0  0  0  0  0  0  0  0  0  0  0
    6.5499  -13.5525  -23.9687 N   0  0  0  0  0  0  0  0  0  0  0  0
    7.1141  -14.3064  -24.2558 H   0  0  0  0  0  0  0  0  0  0  0  0
    8.1101  -13.2134  -22.3125 O   0  0  0  0  0  0  0  0  0  0  0  0
    9.3597  -13.1557  -23.0163 C   0  0  0  0  0  0  0  0  0  0  0  0
   11.1424  -16.9524  -22.7234 C   0  0  0  0  0  0  0  0  0  0  0  0
    9.8049  -16.8490  -23.1108 C   0  0  0  0  0  0  0  0  0  0  0  0
   11.8972  -15.8104  -22.4348 C   0  0  0  0  0  0  0  0  0  0  0  0
    9.2086  -15.5841  -23.2093 C   0  0  0  0  0  0  0  0  0  0  0  0
   11.3037  -14.5453  -22.5337 C   0  0  0  0  0  0  0  0  0  0  0  0
    9.9584  -14.4294  -22.9239 C   0  0  0  0  0  0  0  0  0  0  0  0
    5.7585  -12.9040  -26.1769 C   0  0  0  0  0  0  0  0  0  0  0  0
    5.4842  -11.5374  -26.4726 C   0  0  0  0  0  0  0  0  0  0  0  0
    6.2459  -10.8358  -27.4084 C   0  0  0  0  0  0  0  0  0  0  0  0
    5.9886   -9.4836  -27.6899 C   0  0  0  0  0  0  0  0  0  0  0  0
    4.9494   -8.8081  -27.0456 C   0  0  0  0  0  0  0  0  0  0  0  0
    4.1798   -9.5054  -26.1129 C   0  0  0  0  0  0  0  0  0  0  0  0
    4.4418  -10.8545  -25.8233 C   0  0  0  0  0  0  0  0  0  0  0  0
  8  7  2  0  0  0
  7  6  1  0  0  0
  7  9  1  0  0  0
  6  4  1  0  0  0
  4  3  1  0  0  0
 11  6  1  0  0  0
 12 11  1  0  0  0
 13 12  2  0  0  0
 12 14  1  0  0  0
 18 17  1  0  0  0
 15 17  2  0  0  0
 17 16  1  0  0  0
 39 38  2  0  0  0
  3  2  2  0  0  0
 33 34  2  0  0  0
 34 35  1  0  0  0
 46 44  2  0  0  0
 44 45  1  0  0  0
 55 54  2  0  0  0
 53 54  1  0  0  0
 27 26  2  0  0  0
 26 28  1  0  0  0
 47 45  2  0  0  0
 48 46  1  0  0  0
 52 53  2  0  0  0
 56 55  1  0  0  0
 27 29  1  0  0  0
 28 30  2  0  0  0
 49 47  1  0  0  0
 48 49  2  0  0  0
 51 52  1  0  0  0
 51 56  2  0  0  0
 29 31  2  0  0  0
 30 31  1  0  0  0
 25 21  1  0  0  0
 21 24  2  0  0  0
 42 43  1  0  0  0
 43 49  1  0  0  0
 24 20  1  0  0  0
 20  1  1  0  0  0
 50 37  1  0  0  0
 50 51  1  0  0  0
  1 32  1  0  0  0
 32 34  1  0  0  0
 25 22  2  0  0  0
 22 23  1  0  0  0
 37 40  1  0  0  0
 40 39  1  0  0  0
 39 42  1  0  0  0
 23 24  1  0  0  0
  3  1  1  0  0  0
 31 25  1  0  0  0
 34 37  1  0  0  0
 15 13  1  0  0  0
 16 14  2  0  0  0
 35 36  1  0  0  0
 40 41  1  0  0  0
  4  5  1  0  0  0
 18 19  1  0  0  0
  9 10  1  0  0  0
M  END
> <minimizedAffinity>
-10.29288

$$$$
