4CA6_3EF_A_1630
  RCSB PDB12061712003D
Coordinates from PDB:4CA6:A:1630 Model:1 without hydrogens
 51 55  0  0  0  0            999 V2000
   -3.3780  -19.2170  -24.0470   O 0  0  0  0  0  0  0  0  0  0  0  0
   -6.0450  -22.1200  -18.3190   C 0  0  0  0  0  0  0  0  0  0  0  0
   -6.6400  -22.5630  -19.5020   C 0  0  0  0  0  0  0  0  0  0  0  0
   -4.9170  -21.2930  -18.3480   C 0  0  0  0  0  0  0  0  0  0  0  0
   -6.1020  -22.1720  -20.7360   C 0  0  0  0  0  0  0  0  0  0  0  0
   -4.3770  -20.9020  -19.5800   C 0  0  0  0  0  0  0  0  0  0  0  0
   -4.4270  -20.9430  -22.0170   C 0  0  0  0  0  0  0  0  0  0  0  0
   -4.3310  -19.5110  -22.0050   O 0  0  0  0  0  0  0  0  0  0  0  0
   -3.5320  -18.8410  -22.8760   C 0  0  0  0  0  0  0  0  0  0  0  0
   -4.9670  -21.3430  -20.7770   C 0  0  0  0  0  0  0  0  0  0  0  0
   -0.1880  -17.3580  -21.3500   O 0  0  0  0  0  0  0  0  0  0  0  0
   -0.3800  -17.4140  -22.8210   P 0  0  0  0  0  0  0  0  0  0  0  0
   -0.2130  -18.7290  -23.4630   O 0  0  0  0  0  0  0  0  0  0  0  0
   -2.0860  -16.8600  -23.2310   C 0  0  0  0  0  0  0  0  0  0  0  0
   -2.9550  -17.7150  -22.4210   N 0  0  0  0  0  0  0  0  0  0  0  0
   -2.3990  -15.3870  -22.8620   C 0  0  0  0  0  0  0  0  0  0  0  0
   -3.7560  -15.0530  -23.1400   C 0  0  0  0  0  0  0  0  0  0  0  0
   -4.1510  -14.6450  -24.4150   C 0  0  0  0  0  0  0  0  0  0  0  0
   -5.4850  -14.2990  -24.6880   C 0  0  0  0  0  0  0  0  0  0  0  0
   -6.4570  -14.3680  -23.6870   C 0  0  0  0  0  0  0  0  0  0  0  0
   -6.0700  -14.7810  -22.4110   C 0  0  0  0  0  0  0  0  0  0  0  0
   -4.7350  -15.1180  -22.1340   C 0  0  0  0  0  0  0  0  0  0  0  0
    1.0900  -14.1300  -22.0130   O 0  0  0  0  0  0  0  0  0  0  0  0
    9.4530  -19.0240  -22.0400   C 0  0  0  0  0  0  0  0  0  0  0  0
    8.1090  -19.3960  -21.9360   C 0  0  0  0  0  0  0  0  0  0  0  0
    9.7790  -17.7450  -22.5030   C 0  0  0  0  0  0  0  0  0  0  0  0
    7.1040  -18.4960  -22.3020   C 0  0  0  0  0  0  0  0  0  0  0  0
    8.7690  -16.8540  -22.8610   C 0  0  0  0  0  0  0  0  0  0  0  0
    5.1620  -16.7090  -23.3680   C 0  0  0  0  0  0  0  0  0  0  0  0
    2.9490  -15.6610  -24.1550   C 0  0  0  0  0  0  0  0  0  0  0  0
    0.6150  -16.2310  -23.6640   C 0  0  0  0  0  0  0  0  0  0  0  0
    6.6570  -15.0930  -23.4330   N 0  0  0  0  0  0  0  0  0  0  0  0
    5.1990  -14.5790  -23.9100   O 0  0  0  0  0  0  0  0  0  0  0  0
    1.9680  -14.9940  -21.9680   C 0  0  0  0  0  0  0  0  0  0  0  0
    4.4440  -15.6610  -23.7990   C 0  0  0  0  0  0  0  0  0  0  0  0
    7.4180  -17.2160  -22.7520   C 0  0  0  0  0  0  0  0  0  0  0  0
    6.4550  -16.3720  -23.1390   C 0  0  0  0  0  0  0  0  0  0  0  0
    2.0170  -16.0960  -23.0190   C 0  0  0  0  0  0  0  0  0  0  0  0
    2.9340  -15.0120  -21.0370   N 0  0  0  0  0  0  0  0  0  0  0  0
    3.0460  -13.9510  -20.0130   C 0  0  0  0  0  0  0  0  0  0  0  0
    3.6130  -12.6760  -20.6570   C 0  0  0  0  0  0  0  0  0  0  0  0
    3.5250  -11.6170  -19.9990   O 0  0  0  0  0  0  0  0  0  0  0  0
    3.9420  -14.3280  -18.8240   C 0  0  0  0  0  0  0  0  0  0  0  0
    4.9440  -15.2840  -18.9740   C 0  0  0  0  0  0  0  0  0  0  0  0
    6.2810  -14.9080  -19.1420   C 0  0  0  0  0  0  0  0  0  0  0  0
    4.6090  -16.6390  -18.9070   C 0  0  0  0  0  0  0  0  0  0  0  0
    7.2720  -15.8910  -19.2630   C 0  0  0  0  0  0  0  0  0  0  0  0
    5.5910  -17.6180  -19.0230   C 0  0  0  0  0  0  0  0  0  0  0  0
    6.9200  -17.2460  -19.2010   C 0  0  0  0  0  0  0  0  0  0  0  0
    7.8660  -18.2270  -19.3050   O 0  0  0  0  0  0  0  0  0  0  0  0
    4.1180  -12.7850  -21.7980   O 0  0  0  0  0  0  0  0  0  0  0  0
 42 41  2  0  0  0  0
 41 40  1  0  0  0  0
 41 51  1  0  0  0  0
 40 39  1  0  0  0  0
 39 34  1  0  0  0  0
 43 40  1  0  0  0  0
 44 43  1  0  0  0  0
 45 44  2  0  0  0  0
 44 46  1  0  0  0  0
 50 49  1  0  0  0  0
 47 49  2  0  0  0  0
 49 48  1  0  0  0  0
  9  1  2  0  0  0  0
 34 23  2  0  0  0  0
 11 12  2  0  0  0  0
 12 13  1  0  0  0  0
  4  2  2  0  0  0  0
  2  3  1  0  0  0  0
 21 20  2  0  0  0  0
 19 20  1  0  0  0  0
 25 24  2  0  0  0  0
 24 26  1  0  0  0  0
  5  3  2  0  0  0  0
  6  4  1  0  0  0  0
 18 19  2  0  0  0  0
 22 21  1  0  0  0  0
 25 27  1  0  0  0  0
 26 28  2  0  0  0  0
 10  5  1  0  0  0  0
  6 10  2  0  0  0  0
 17 18  1  0  0  0  0
 17 22  2  0  0  0  0
 27 36  2  0  0  0  0
 28 36  1  0  0  0  0
 37 29  1  0  0  0  0
 29 35  2  0  0  0  0
  8  7  1  0  0  0  0
  7 10  1  0  0  0  0
 35 30  1  0  0  0  0
 30 38  1  0  0  0  0
 16 14  1  0  0  0  0
 16 17  1  0  0  0  0
 38 31  1  0  0  0  0
 31 12  1  0  0  0  0
 37 32  2  0  0  0  0
 32 33  1  0  0  0  0
 14 15  1  0  0  0  0
 15  9  1  0  0  0  0
  9  8  1  0  0  0  0
 33 35  1  0  0  0  0
 34 38  1  0  0  0  0
 36 37  1  0  0  0  0
 12 14  1  0  0  0  0
 47 45  1  0  0  0  0
 48 46  2  0  0  0  0
A    1
OAB
A    2
CAH
A    3
CAK
A    4
CAL
A    5
CAQ
A    6
CAR
A    7
CBB
A    8
OBJ
A    9
CBM
A   10
CBP
A   11
OAD
A   12
PBY
A   13
OAG
A   14
CBX
A   15
NBI
A   16
CBE
A   17
CBQ
A   18
CAS
A   19
CAM
A   20
CAI
A   21
CAN
A   22
CAT
A   23
OAC
A   24
CAJ
A   25
CAO
A   26
CAP
A   27
CAU
A   28
CAV
A   29
CBA
A   30
CBC
A   31
CBF
A   32
NBG
A   33
OBK
A   34
CBN
A   35
CBS
A   36
CBT
A   37
CBU
A   38
CBV
A   39
N
A   40
CA
A   41
C
A   42
O
A   43
CB
A   44
CG
A   45
CD1
A   46
CD2
A   47
CE1
A   48
CE2
A   49
CZ
A   50
OH
A   51
OXT
M  END
>  <InstanceId>
4CA6_3EF_A_1630

>  <ChemCompId>
3EF

>  <PdbId>
4CA6

>  <ChainId>
A

>  <ResidueNumber>
1630

>  <InsertionCode>


>  <Model>
1

>  <AltIds>


>  <MissingHeavyAtoms>
0

>  <ObservedFormula>
C38 N3 O9 P

>  <Name>
N-{(2S)-3-[(S)-[(1R)-1-{[(benzyloxy)carbonyl]amino}-2-phenylethyl](hydroxy)phosphoryl]-2-[(3-phenyl-1,2-oxazol-5-yl)methyl]propanoyl}-L-tyrosine

>  <SystematicName>
(2S)-3-(4-hydroxyphenyl)-2-[[(2S)-2-[[oxidanyl-[(1R)-2-phenyl-1-(phenylmethoxycarbonylamino)ethyl]phosphoryl]methyl]-3-(3-phenyl-1,2-oxazol-5-yl)propanoyl]amino]propanoic acid

>  <Synonyms>


>  <Type>
NON-POLYMER

>  <Formula>
C38 H38 N3 O9 P

>  <MolecularWeight>
711.697

>  <ModifiedDate>
2013-12-06

>  <Parent>


>  <OneLetterCode>


>  <SubcomponentList>
PHQ PPH 1JK TYR

>  <AmbiguousFlag>
N

>  <InChI>
InChI=1S/C38H38N3O9P/c42-31-18-16-27(17-19-31)20-34(37(44)45)39-36(43)30(22-32-23-33(41-50-32)29-14-8-3-9-15-29)25-51(47,48)35(21-26-10-4-1-5-11-26)40-38(46)49-24-28-12-6-2-7-13-28/h1-19,23,30,34-35,42H,20-22,24-25H2,(H,39,43)(H,40,46)(H,44,45)(H,47,48)/t30-,34+,35-/m1/s1

>  <InChIKey>
ZPFSKFCSVXPMBD-JHOVWCEZSA-N

>  <SMILES>
c1ccc(cc1)C[C@H](NC(=O)OCc2ccccc2)P(=O)(C[C@@H](Cc3cc(no3)c4ccccc4)C(=O)N[C@@H](Cc5ccc(cc5)O)C(=O)O)O

$$$$
