4M13_1E0_A_701
  RCSB PDB12061713403D
Coordinates from PDB:4M13:A:701 Model:1 without hydrogens
 26 28  0  0  0  0            999 V2000
   -4.8280    8.2800   13.1770   N 0  0  0  0  0  0  0  0  0  0  0  0
   -5.9160    7.6250   13.6250   N 0  0  0  0  0  0  0  0  0  0  0  0
   -5.4400    6.7140   14.5300   C 0  0  0  0  0  0  0  0  0  0  0  0
   -4.0100    6.8140   14.6280   C 0  0  0  0  0  0  0  0  0  0  0  0
   -3.6290    7.8300   13.7450   C 0  0  0  0  0  0  0  0  0  0  0  0
   -3.2400    6.0040   15.4490   N 0  0  0  0  0  0  0  0  0  0  0  0
   -1.8430    6.1290   15.5270   C 0  0  0  0  0  0  0  0  0  0  0  0
   -1.2110    5.2470   16.3970   N 0  0  0  0  0  0  0  0  0  0  0  0
   -1.1960    6.9640   14.8830   O 0  0  0  0  0  0  0  0  0  0  0  0
   -6.2960    5.7880   15.2740   C 0  0  0  0  0  0  0  0  0  0  0  0
   -7.6370    5.7640   14.9730   N 0  0  0  0  0  0  0  0  0  0  0  0
   -5.8340    5.0530   16.1550   O 0  0  0  0  0  0  0  0  0  0  0  0
   -4.9340    9.3780   12.2570   C 0  0  0  0  0  0  0  0  0  0  0  0
   -4.3100    9.2630   11.0400   C 0  0  0  0  0  0  0  0  0  0  0  0
   -4.4000   10.3270   10.1180   C 0  0  0  0  0  0  0  0  0  0  0  0
   -5.1070   11.4550   10.4330   C 0  0  0  0  0  0  0  0  0  0  0  0
   -5.6720   10.5390   12.6270   C 0  0  0  0  0  0  0  0  0  0  0  0
   -5.7440   11.5830   11.6900   C 0  0  0  0  0  0  0  0  0  0  0  0
   -6.4560   12.7680   12.0260   C 0  0  0  0  0  0  0  0  0  0  0  0
   -7.0740   12.8930   13.2320   C 0  0  0  0  0  0  0  0  0  0  0  0
   -7.0070   11.8140   14.1660   C 0  0  0  0  0  0  0  0  0  0  0  0
   -6.3150   10.6670   13.8840   C 0  0  0  0  0  0  0  0  0  0  0  0
   -7.6780   12.0670   15.3210   O 0  0  0  0  0  0  0  0  0  0  0  0
   -7.6970   11.0380   16.2960   C 0  0  0  0  0  0  0  0  0  0  0  0
   -8.3910   11.6470   17.5180   C 0  0  0  0  0  0  0  0  0  0  0  0
   -7.5530   12.7660   18.1140   C 0  0  0  0  0  0  0  0  0  0  0  0
 15 16  2  0  0  0  0
 15 14  1  0  0  0  0
 16 18  1  0  0  0  0
 14 13  2  0  0  0  0
 18 19  2  0  0  0  0
 18 17  1  0  0  0  0
 19 20  1  0  0  0  0
 13 17  1  0  0  0  0
 13  1  1  0  0  0  0
 17 22  2  0  0  0  0
  1  2  1  0  0  0  0
  1  5  1  0  0  0  0
 20 21  2  0  0  0  0
  2  3  2  0  0  0  0
  5  4  2  0  0  0  0
 22 21  1  0  0  0  0
 21 23  1  0  0  0  0
  3  4  1  0  0  0  0
  3 10  1  0  0  0  0
  4  6  1  0  0  0  0
  9  7  2  0  0  0  0
 11 10  1  0  0  0  0
 10 12  2  0  0  0  0
 23 24  1  0  0  0  0
  6  7  1  0  0  0  0
  7  8  1  0  0  0  0
 24 25  1  0  0  0  0
 25 26  1  0  0  0  0
A    1
N1
A    2
N2
A    3
C1
A    4
C2
A    5
C3
A    6
N3
A    7
C4
A    8
N4
A    9
O1
A   10
C5
A   11
N5
A   12
O2
A   13
C6
A   14
C7
A   15
C8
A   16
C9
A   17
C10
A   18
C11
A   19
C12
A   20
C13
A   21
C14
A   22
C15
A   23
O3
A   24
C16
A   25
C17
A   26
C18
M  END
>  <InstanceId>
4M13_1E0_A_701

>  <ChemCompId>
1E0

>  <PdbId>
4M13

>  <ChainId>
A

>  <ResidueNumber>
701

>  <InsertionCode>


>  <Model>
1

>  <AltIds>


>  <MissingHeavyAtoms>
0

>  <ObservedFormula>
C18 N5 O3

>  <Name>
4-(carbamoylamino)-1-(7-propoxynaphthalen-1-yl)-1H-pyrazole-3-carboxamide

>  <SystematicName>
4-(aminocarbonylamino)-1-(7-propoxynaphthalen-1-yl)pyrazole-3-carboxamide

>  <Synonyms>


>  <Type>
NON-POLYMER

>  <Formula>
C18 H19 N5 O3

>  <MolecularWeight>
353.375

>  <ModifiedDate>
2014-03-28

>  <Parent>


>  <OneLetterCode>


>  <SubcomponentList>


>  <AmbiguousFlag>
N

>  <InChI>
InChI=1S/C18H19N5O3/c1-2-8-26-12-7-6-11-4-3-5-15(13(11)9-12)23-10-14(21-18(20)25)16(22-23)17(19)24/h3-7,9-10H,2,8H2,1H3,(H2,19,24)(H3,20,21,25)

>  <InChIKey>
HDLCJAZFKRTKGX-UHFFFAOYSA-N

>  <SMILES>
CCCOc1ccc2cccc(c2c1)n3cc(c(n3)C(=O)N)NC(=O)N

$$$$
