1STC_STU_E_351


 37 44  0  0  0  0  0  0  0  0999 V2000
    5.8483   25.4916   30.6326 O   0  0  0  0  0  0  0  0  0  0  0  0
    6.3268   26.6831   29.9973 C   0  0  0  0  0  0  0  0  0  0  0  0
    5.8729   26.7808   28.5392 C   0  0  0  0  0  0  0  0  0  0  0  0
    5.0328   25.5949   28.0822 C   0  0  0  0  0  0  0  0  0  0  0  0
    5.6503   24.2632   28.4969 C   0  0  0  0  0  0  0  0  0  0  0  0
    6.0353   24.2095   30.0009 C   0  0  0  0  0  0  0  0  0  0  0  0
    4.9175   23.4581   30.7329 C   0  0  0  0  0  0  0  0  0  0  0  0
    7.3851   23.6450   30.3096 N   0  0  0  0  0  0  0  0  0  0  0  0
    8.5321   24.4215   30.4256 C   0  0  0  0  0  0  0  0  0  0  0  0
    8.7185   25.8357   30.3436 C   0  0  0  0  0  0  0  0  0  0  0  0
   10.0303   26.3859   30.3528 C   0  0  0  0  0  0  0  0  0  0  0  0
   11.1561   25.4951   30.4187 C   0  0  0  0  0  0  0  0  0  0  0  0
   10.9681   24.1265   30.5284 C   0  0  0  0  0  0  0  0  0  0  0  0
    9.6658   23.5704   30.5286 C   0  0  0  0  0  0  0  0  0  0  0  0
    9.1813   22.2235   30.5165 C   0  0  0  0  0  0  0  0  0  0  0  0
    7.7709   22.2836   30.3604 C   0  0  0  0  0  0  0  0  0  0  0  0
    7.0387   21.0707   30.2084 C   0  0  0  0  0  0  0  0  0  0  0  0
    7.7271   19.8605   30.1807 C   0  0  0  0  0  0  0  0  0  0  0  0
    9.1207   19.8152   30.3267 C   0  0  0  0  0  0  0  0  0  0  0  0
    9.8568   20.9759   30.4959 C   0  0  0  0  0  0  0  0  0  0  0  0
   12.2847   23.4398   30.8021 C   0  0  0  0  0  0  0  0  0  0  0  0
   13.1898   24.5641   30.8017 N   0  0  0  0  0  0  0  0  0  0  0  0
   12.6102   25.7440   30.5736 C   0  0  0  0  0  0  0  0  0  0  0  0
   13.2028   26.7950   30.5820 O   0  0  0  0  0  0  0  0  0  0  0  0
    9.8692   27.8073   30.1871 C   0  0  0  0  0  0  0  0  0  0  0  0
    8.4731   28.0628   30.1019 C   0  0  0  0  0  0  0  0  0  0  0  0
    7.9848   29.3579   29.8419 C   0  0  0  0  0  0  0  0  0  0  0  0
    8.9187   30.4071   29.6770 C   0  0  0  0  0  0  0  0  0  0  0  0
   10.2940   30.1700   29.7744 C   0  0  0  0  0  0  0  0  0  0  0  0
   10.7806   28.8939   30.0267 C   0  0  0  0  0  0  0  0  0  0  0  0
    7.7797   26.8463   30.1973 N   0  0  0  0  0  0  0  0  0  0  0  0
   14.1572   24.4681   30.9573 H   0  0  0  0  0  0  0  0  0  0  0  0
    4.6123   25.5745   26.6851 N   0  0  0  0  0  0  0  0  0  0  0  0
    3.2102   25.2185   26.5152 C   0  0  0  0  0  0  0  0  0  0  0  0
    5.1831   24.8935   26.1843 H   0  0  0  0  0  0  0  0  0  0  0  0
    6.9385   24.1687   27.8453 O   0  0  0  0  0  0  0  0  0  0  0  0
    7.1639   23.1800   26.8401 C   0  0  0  0  0  0  0  0  0  0  0  0
  1  2  1  0  0  0
  1  6  1  0  0  0
  2  3  1  0  0  0
  2 31  1  0  0  0
  3  4  1  0  0  0
  4  5  1  0  0  0
  4 33  1  0  0  0
  5  6  1  0  0  0
  5 36  1  0  0  0
  6  7  1  0  0  0
  6  8  1  0  0  0
  8  9  1  0  0  0
  8 16  1  0  0  0
  9 10  2  0  0  0
  9 14  1  0  0  0
 10 11  1  0  0  0
 10 31  1  0  0  0
 11 12  2  0  0  0
 11 25  1  0  0  0
 12 13  1  0  0  0
 12 23  1  0  0  0
 13 14  2  0  0  0
 13 21  1  0  0  0
 14 15  1  0  0  0
 15 16  2  0  0  0
 15 20  1  0  0  0
 16 17  1  0  0  0
 17 18  2  0  0  0
 18 19  1  0  0  0
 19 20  2  0  0  0
 21 22  1  0  0  0
 22 23  1  0  0  0
 23 24  2  0  0  0
 25 26  2  0  0  0
 25 30  1  0  0  0
 26 27  1  0  0  0
 26 31  1  0  0  0
 27 28  2  0  0  0
 28 29  1  0  0  0
 29 30  2  0  0  0
 36 37  1  0  0  0
 33 34  1  0  0  0
 22 32  1  0  0  0
 33 35  1  0  0  0
M  END
> <minimizedAffinity>
-13.69337

$$$$
1STC_STU_E_351


 37 44  0  0  0  0  0  0  0  0999 V2000
    4.8839   24.6975   29.8976 O   0  0  0  0  0  0  0  0  0  0  0  0
    5.0312   25.8987   29.1310 C   0  0  0  0  0  0  0  0  0  0  0  0
    4.7564   25.6701   27.6430 C   0  0  0  0  0  0  0  0  0  0  0  0
    4.4046   24.2273   27.3035 C   0  0  0  0  0  0  0  0  0  0  0  0
    5.3590   23.2360   27.9617 C   0  0  0  0  0  0  0  0  0  0  0  0
    5.5492   23.4880   29.4827 C   0  0  0  0  0  0  0  0  0  0  0  0
    4.6485   22.4959   30.2272 C   0  0  0  0  0  0  0  0  0  0  0  0
    6.9587   23.4470   29.9801 N   0  0  0  0  0  0  0  0  0  0  0  0
    7.7726   24.5702   30.0698 C   0  0  0  0  0  0  0  0  0  0  0  0
    7.5050   25.9458   29.7914 C   0  0  0  0  0  0  0  0  0  0  0  0
    8.5595   26.9002   29.8231 C   0  0  0  0  0  0  0  0  0  0  0  0
    9.8937   26.4511   30.1122 C   0  0  0  0  0  0  0  0  0  0  0  0
   10.1416   25.1207   30.4109 C   0  0  0  0  0  0  0  0  0  0  0  0
    9.0968   24.1652   30.3902 C   0  0  0  0  0  0  0  0  0  0  0  0
    9.0747   22.7419   30.5416 C   0  0  0  0  0  0  0  0  0  0  0  0
    7.7507   22.3085   30.2656 C   0  0  0  0  0  0  0  0  0  0  0  0
    7.4706   20.9117   30.2392 C   0  0  0  0  0  0  0  0  0  0  0  0
    8.5081   20.0066   30.4491 C   0  0  0  0  0  0  0  0  0  0  0  0
    9.8129   20.4472   30.7116 C   0  0  0  0  0  0  0  0  0  0  0  0
   10.1111   21.7985   30.7630 C   0  0  0  0  0  0  0  0  0  0  0  0
   11.5636   24.9503   30.8894 C   0  0  0  0  0  0  0  0  0  0  0  0
   12.0534   26.3045   30.7928 N   0  0  0  0  0  0  0  0  0  0  0  0
   11.1599   27.1880   30.3442 C   0  0  0  0  0  0  0  0  0  0  0  0
   11.3787   28.3702   30.2421 O   0  0  0  0  0  0  0  0  0  0  0  0
    7.9737   28.1567   29.4334 C   0  0  0  0  0  0  0  0  0  0  0  0
    6.5917   27.9190   29.1990 C   0  0  0  0  0  0  0  0  0  0  0  0
    5.7509   28.9371   28.7090 C   0  0  0  0  0  0  0  0  0  0  0  0
    6.3126   30.2117   28.4638 C   0  0  0  0  0  0  0  0  0  0  0  0
    7.6676   30.4611   28.7058 C   0  0  0  0  0  0  0  0  0  0  0  0
    8.5016   29.4593   29.1852 C   0  0  0  0  0  0  0  0  0  0  0  0
    6.3181   26.5603   29.4201 N   0  0  0  0  0  0  0  0  0  0  0  0
   12.9731   26.5562   31.0381 H   0  0  0  0  0  0  0  0  0  0  0  0
    4.1913   23.9064   25.8961 N   0  0  0  0  0  0  0  0  0  0  0  0
    2.8345   23.4603   25.6107 C   0  0  0  0  0  0  0  0  0  0  0  0
    4.8394   23.1648   25.6305 H   0  0  0  0  0  0  0  0  0  0  0  0
    6.6805   23.5031   27.4373 O   0  0  0  0  0  0  0  0  0  0  0  0
    7.3728   22.5018   26.6910 C   0  0  0  0  0  0  0  0  0  0  0  0
  1  2  1  0  0  0
  1  6  1  0  0  0
  2  3  1  0  0  0
  2 31  1  0  0  0
  3  4  1  0  0  0
  4  5  1  0  0  0
  4 33  1  0  0  0
  5  6  1  0  0  0
  5 36  1  0  0  0
  6  7  1  0  0  0
  6  8  1  0  0  0
  8  9  1  0  0  0
  8 16  1  0  0  0
  9 10  2  0  0  0
  9 14  1  0  0  0
 10 11  1  0  0  0
 10 31  1  0  0  0
 11 12  2  0  0  0
 11 25  1  0  0  0
 12 13  1  0  0  0
 12 23  1  0  0  0
 13 14  2  0  0  0
 13 21  1  0  0  0
 14 15  1  0  0  0
 15 16  2  0  0  0
 15 20  1  0  0  0
 16 17  1  0  0  0
 17 18  2  0  0  0
 18 19  1  0  0  0
 19 20  2  0  0  0
 21 22  1  0  0  0
 22 23  1  0  0  0
 23 24  2  0  0  0
 25 26  2  0  0  0
 25 30  1  0  0  0
 26 27  1  0  0  0
 26 31  1  0  0  0
 27 28  2  0  0  0
 28 29  1  0  0  0
 29 30  2  0  0  0
 36 37  1  0  0  0
 33 34  1  0  0  0
 22 32  1  0  0  0
 33 35  1  0  0  0
M  END
> <minimizedAffinity>
-11.96317

$$$$
1STC_STU_E_351


 37 44  0  0  0  0  0  0  0  0999 V2000
    5.0103   25.1198   30.0275 O   0  0  0  0  0  0  0  0  0  0  0  0
    4.9442   26.2746   29.1824 C   0  0  0  0  0  0  0  0  0  0  0  0
    4.6653   25.9059   27.7236 C   0  0  0  0  0  0  0  0  0  0  0  0
    4.5351   24.4063   27.4887 C   0  0  0  0  0  0  0  0  0  0  0  0
    5.6525   23.6220   28.1691 C   0  0  0  0  0  0  0  0  0  0  0  0
    5.8453   24.0028   29.6627 C   0  0  0  0  0  0  0  0  0  0  0  0
    5.1342   22.9357   30.5026 C   0  0  0  0  0  0  0  0  0  0  0  0
    7.2577   24.2148   30.1055 N   0  0  0  0  0  0  0  0  0  0  0  0
    7.8869   25.4541   30.0928 C   0  0  0  0  0  0  0  0  0  0  0  0
    7.3980   26.7496   29.7401 C   0  0  0  0  0  0  0  0  0  0  0  0
    8.2896   27.8558   29.6706 C   0  0  0  0  0  0  0  0  0  0  0  0
    9.6858   27.6398   29.9341 C   0  0  0  0  0  0  0  0  0  0  0  0
   10.1487   26.3874   30.3049 C   0  0  0  0  0  0  0  0  0  0  0  0
    9.2672   25.2821   30.3851 C   0  0  0  0  0  0  0  0  0  0  0  0
    9.4738   23.8862   30.6257 C   0  0  0  0  0  0  0  0  0  0  0  0
    8.2270   23.2349   30.4298 C   0  0  0  0  0  0  0  0  0  0  0  0
    8.1696   21.8130   30.5016 C   0  0  0  0  0  0  0  0  0  0  0  0
    9.3424   21.0962   30.7261 C   0  0  0  0  0  0  0  0  0  0  0  0
   10.5687   21.7506   30.9089 C   0  0  0  0  0  0  0  0  0  0  0  0
   10.6519   23.1321   30.8642 C   0  0  0  0  0  0  0  0  0  0  0  0
   11.5932   26.4724   30.7365 C   0  0  0  0  0  0  0  0  0  0  0  0
   11.8607   27.8765   30.5364 N   0  0  0  0  0  0  0  0  0  0  0  0
   10.8265   28.5783   30.0694 C   0  0  0  0  0  0  0  0  0  0  0  0
   10.8534   29.7704   29.8853 O   0  0  0  0  0  0  0  0  0  0  0  0
    7.5022   28.9770   29.2268 C   0  0  0  0  0  0  0  0  0  0  0  0
    6.1686   28.5124   29.0626 C   0  0  0  0  0  0  0  0  0  0  0  0
    5.1640   29.3522   28.5438 C   0  0  0  0  0  0  0  0  0  0  0  0
    5.5106   30.6790   28.1977 C   0  0  0  0  0  0  0  0  0  0  0  0
    6.8160   31.1514   28.3699 C   0  0  0  0  0  0  0  0  0  0  0  0
    7.8110   30.3259   28.8773 C   0  0  0  0  0  0  0  0  0  0  0  0
    6.1189   27.1459   29.3785 N   0  0  0  0  0  0  0  0  0  0  0  0
   12.7361   28.2838   30.7290 H   0  0  0  0  0  0  0  0  0  0  0  0
    4.3338   23.9617   26.1136 N   0  0  0  0  0  0  0  0  0  0  0  0
    2.9330   23.7353   25.7852 C   0  0  0  0  0  0  0  0  0  0  0  0
    4.8444   23.0894   25.9765 H   0  0  0  0  0  0  0  0  0  0  0  0
    6.8995   24.0548   27.5771 O   0  0  0  0  0  0  0  0  0  0  0  0
    7.6460   23.1663   26.7451 C   0  0  0  0  0  0  0  0  0  0  0  0
  1  2  1  0  0  0
  1  6  1  0  0  0
  2  3  1  0  0  0
  2 31  1  0  0  0
  3  4  1  0  0  0
  4  5  1  0  0  0
  4 33  1  0  0  0
  5  6  1  0  0  0
  5 36  1  0  0  0
  6  7  1  0  0  0
  6  8  1  0  0  0
  8  9  1  0  0  0
  8 16  1  0  0  0
  9 10  2  0  0  0
  9 14  1  0  0  0
 10 11  1  0  0  0
 10 31  1  0  0  0
 11 12  2  0  0  0
 11 25  1  0  0  0
 12 13  1  0  0  0
 12 23  1  0  0  0
 13 14  2  0  0  0
 13 21  1  0  0  0
 14 15  1  0  0  0
 15 16  2  0  0  0
 15 20  1  0  0  0
 16 17  1  0  0  0
 17 18  2  0  0  0
 18 19  1  0  0  0
 19 20  2  0  0  0
 21 22  1  0  0  0
 22 23  1  0  0  0
 23 24  2  0  0  0
 25 26  2  0  0  0
 25 30  1  0  0  0
 26 27  1  0  0  0
 26 31  1  0  0  0
 27 28  2  0  0  0
 28 29  1  0  0  0
 29 30  2  0  0  0
 36 37  1  0  0  0
 33 34  1  0  0  0
 22 32  1  0  0  0
 33 35  1  0  0  0
M  END
> <minimizedAffinity>
-11.90593

$$$$
1STC_STU_E_351


 37 44  0  0  0  0  0  0  0  0999 V2000
    4.2173   22.2912   30.2966 O   0  0  0  0  0  0  0  0  0  0  0  0
    3.2647   22.8493   29.3839 C   0  0  0  0  0  0  0  0  0  0  0  0
    3.2439   22.1060   28.0464 C   0  0  0  0  0  0  0  0  0  0  0  0
    4.2408   20.9563   27.9733 C   0  0  0  0  0  0  0  0  0  0  0  0
    5.6192   21.3615   28.4856 C   0  0  0  0  0  0  0  0  0  0  0  0
    5.5754   22.0589   29.8730 C   0  0  0  0  0  0  0  0  0  0  0  0
    5.9388   21.0061   30.9262 C   0  0  0  0  0  0  0  0  0  0  0  0
    6.4044   23.2960   30.0084 N   0  0  0  0  0  0  0  0  0  0  0  0
    5.9179   24.5749   29.7640 C   0  0  0  0  0  0  0  0  0  0  0  0
    4.6115   25.0274   29.4033 C   0  0  0  0  0  0  0  0  0  0  0  0
    4.3958   26.3918   29.0632 C   0  0  0  0  0  0  0  0  0  0  0  0
    5.5154   27.2927   29.0640 C   0  0  0  0  0  0  0  0  0  0  0  0
    6.7741   26.8544   29.4439 C   0  0  0  0  0  0  0  0  0  0  0  0
    6.9966   25.5001   29.7922 C   0  0  0  0  0  0  0  0  0  0  0  0
    8.1783   24.7565   30.1079 C   0  0  0  0  0  0  0  0  0  0  0  0
    7.8013   23.3917   30.2192 C   0  0  0  0  0  0  0  0  0  0  0  0
    8.8120   22.4086   30.4244 C   0  0  0  0  0  0  0  0  0  0  0  0
   10.1458   22.8057   30.4747 C   0  0  0  0  0  0  0  0  0  0  0  0
   10.5058   24.1553   30.3544 C   0  0  0  0  0  0  0  0  0  0  0  0
    9.5441   25.1352   30.1741 C   0  0  0  0  0  0  0  0  0  0  0  0
    7.7171   28.0266   29.5731 C   0  0  0  0  0  0  0  0  0  0  0  0
    6.8522   29.1211   29.2026 N   0  0  0  0  0  0  0  0  0  0  0  0
    5.6057   28.7629   28.8895 C   0  0  0  0  0  0  0  0  0  0  0  0
    4.7352   29.5470   28.6007 O   0  0  0  0  0  0  0  0  0  0  0  0
    3.0095   26.4961   28.6876 C   0  0  0  0  0  0  0  0  0  0  0  0
    2.4389   25.2017   28.8307 C   0  0  0  0  0  0  0  0  0  0  0  0
    1.1073   24.9470   28.4491 C   0  0  0  0  0  0  0  0  0  0  0  0
    0.3423   26.0160   27.9273 C   0  0  0  0  0  0  0  0  0  0  0  0
    0.8886   27.2972   27.7968 C   0  0  0  0  0  0  0  0  0  0  0  0
    2.2024   27.5524   28.1680 C   0  0  0  0  0  0  0  0  0  0  0  0
    3.4315   24.3109   29.2679 N   0  0  0  0  0  0  0  0  0  0  0  0
    7.1575   30.0569   29.1827 H   0  0  0  0  0  0  0  0  0  0  0  0
    4.3341   20.2340   26.7089 N   0  0  0  0  0  0  0  0  0  0  0  0
    3.0985   19.5529   26.3471 C   0  0  0  0  0  0  0  0  0  0  0  0
    5.0771   19.5393   26.7860 H   0  0  0  0  0  0  0  0  0  0  0  0
    6.1011   22.4189   27.6240 O   0  0  0  0  0  0  0  0  0  0  0  0
    7.3417   22.2725   26.9325 C   0  0  0  0  0  0  0  0  0  0  0  0
  1  2  1  0  0  0
  1  6  1  0  0  0
  2  3  1  0  0  0
  2 31  1  0  0  0
  3  4  1  0  0  0
  4  5  1  0  0  0
  4 33  1  0  0  0
  5  6  1  0  0  0
  5 36  1  0  0  0
  6  7  1  0  0  0
  6  8  1  0  0  0
  8  9  1  0  0  0
  8 16  1  0  0  0
  9 10  2  0  0  0
  9 14  1  0  0  0
 10 11  1  0  0  0
 10 31  1  0  0  0
 11 12  2  0  0  0
 11 25  1  0  0  0
 12 13  1  0  0  0
 12 23  1  0  0  0
 13 14  2  0  0  0
 13 21  1  0  0  0
 14 15  1  0  0  0
 15 16  2  0  0  0
 15 20  1  0  0  0
 16 17  1  0  0  0
 17 18  2  0  0  0
 18 19  1  0  0  0
 19 20  2  0  0  0
 21 22  1  0  0  0
 22 23  1  0  0  0
 23 24  2  0  0  0
 25 26  2  0  0  0
 25 30  1  0  0  0
 26 27  1  0  0  0
 26 31  1  0  0  0
 27 28  2  0  0  0
 28 29  1  0  0  0
 29 30  2  0  0  0
 36 37  1  0  0  0
 33 34  1  0  0  0
 22 32  1  0  0  0
 33 35  1  0  0  0
M  END
> <minimizedAffinity>
-10.93746

$$$$
