2Z1W_BDI_A_600


 18 19  0  0  0  0  0  0  0  0999 V2000
   15.2908   16.8535   20.4424 N   0  0  0  0  0  0  0  0  0  0  0  0
   14.0472   16.6535   19.9489 C   0  0  0  0  0  0  0  0  0  0  0  0
   13.1081   16.6154   20.8796 N   0  0  0  0  0  0  0  0  0  0  0  0
   13.7178   16.7934   22.0483 C   0  0  0  0  0  0  0  0  0  0  0  0
   13.2018   16.8501   23.4545 C   0  0  0  0  0  0  0  0  0  0  0  0
   14.1413   17.0504   24.3991 N   0  0  0  0  0  0  0  0  0  0  0  0
   15.5250   17.2021   24.1454 N   0  0  0  0  0  0  0  0  0  0  0  0
   16.0769   17.1647   22.8893 C   0  0  0  0  0  0  0  0  0  0  0  0
   17.2616   17.2985   22.7022 O   0  0  0  0  0  0  0  0  0  0  0  0
   15.1497   16.9504   21.7658 C   0  0  0  0  0  0  0  0  0  0  0  0
   11.9895   16.7142   23.6568 O   0  0  0  0  0  0  0  0  0  0  0  0
   12.1435   16.4813   20.7351 H   0  0  0  0  0  0  0  0  0  0  0  0
   13.8427   17.0946   25.3361 H   0  0  0  0  0  0  0  0  0  0  0  0
   16.1256   17.3422   24.9129 H   0  0  0  0  0  0  0  0  0  0  0  0
   13.7246   16.4462   18.4982 C   0  0  0  0  0  0  0  0  0  0  0  0
   14.0180   17.6981   17.6803 C   0  0  0  0  0  0  0  0  0  0  0  0
   15.3468   17.4867   16.9207 C   0  0  0  0  0  0  0  0  0  0  0  0
   16.3495   18.5086   17.3829 C   0  0  0  0  0  0  0  0  0  0  0  0
  1  2  2  0  0  0
  1 10  1  0  0  0
  2 15  1  0  0  0
  2  3  1  0  0  0
 15 16  1  0  0  0
 16 17  1  0  0  0
 17 18  1  0  0  0
  3  4  1  0  0  0
  4  5  1  0  0  0
  4 10  2  0  0  0
  5  6  1  0  0  0
  5 11  2  0  0  0
  6  7  1  0  0  0
  7  8  1  0  0  0
  8  9  2  0  0  0
  8 10  1  0  0  0
  3 12  1  0  0  0
  6 13  1  0  0  0
  7 14  1  0  0  0
M  END
> <minimizedAffinity>
-7.15935

$$$$
2Z1W_BDI_A_600


 18 19  0  0  0  0  0  0  0  0999 V2000
   15.6416   16.9991   20.1488 N   0  0  0  0  0  0  0  0  0  0  0  0
   16.9150   17.2744   19.7849 C   0  0  0  0  0  0  0  0  0  0  0  0
   17.7310   17.4565   20.8099 N   0  0  0  0  0  0  0  0  0  0  0  0
   17.0029   17.3036   21.9126 C   0  0  0  0  0  0  0  0  0  0  0  0
   17.3511   17.3859   23.3682 C   0  0  0  0  0  0  0  0  0  0  0  0
   16.3250   17.1668   24.2133 N   0  0  0  0  0  0  0  0  0  0  0  0
   14.9977   16.8777   23.8175 N   0  0  0  0  0  0  0  0  0  0  0  0
   14.5977   16.7829   22.5080 C   0  0  0  0  0  0  0  0  0  0  0  0
   13.4580   16.5334   22.1993 O   0  0  0  0  0  0  0  0  0  0  0  0
   15.6317   17.0030   21.4832 C   0  0  0  0  0  0  0  0  0  0  0  0
   18.5160   17.6409   23.6950 O   0  0  0  0  0  0  0  0  0  0  0  0
   18.6921   17.6651   20.7653 H   0  0  0  0  0  0  0  0  0  0  0  0
   16.5128   17.2113   25.1787 H   0  0  0  0  0  0  0  0  0  0  0  0
   14.3233   16.7365   24.5208 H   0  0  0  0  0  0  0  0  0  0  0  0
   17.3902   17.4125   18.3683 C   0  0  0  0  0  0  0  0  0  0  0  0
   17.4540   18.8750   17.9447 C   0  0  0  0  0  0  0  0  0  0  0  0
   16.8332   19.0044   16.5357 C   0  0  0  0  0  0  0  0  0  0  0  0
   15.4476   18.4185   16.5494 C   0  0  0  0  0  0  0  0  0  0  0  0
  1  2  2  0  0  0
  1 10  1  0  0  0
  2 15  1  0  0  0
  2  3  1  0  0  0
 15 16  1  0  0  0
 16 17  1  0  0  0
 17 18  1  0  0  0
  3  4  1  0  0  0
  4  5  1  0  0  0
  4 10  2  0  0  0
  5  6  1  0  0  0
  5 11  2  0  0  0
  6  7  1  0  0  0
  7  8  1  0  0  0
  8  9  2  0  0  0
  8 10  1  0  0  0
  3 12  1  0  0  0
  6 13  1  0  0  0
  7 14  1  0  0  0
M  END
> <minimizedAffinity>
-7.12891

$$$$
2Z1W_BDI_A_600


 18 19  0  0  0  0  0  0  0  0999 V2000
   15.3141   17.0356   20.3117 N   0  0  0  0  0  0  0  0  0  0  0  0
   14.0394   16.7976   19.9263 C   0  0  0  0  0  0  0  0  0  0  0  0
   13.2083   16.6035   20.9369 N   0  0  0  0  0  0  0  0  0  0  0  0
   13.9268   16.7095   22.0512 C   0  0  0  0  0  0  0  0  0  0  0  0
   13.5605   16.5931   23.5001 C   0  0  0  0  0  0  0  0  0  0  0  0
   14.5812   16.7663   24.3621 N   0  0  0  0  0  0  0  0  0  0  0  0
   15.9187   17.0387   23.9891 N   0  0  0  0  0  0  0  0  0  0  0  0
   16.3354   17.1623   22.6873 C   0  0  0  0  0  0  0  0  0  0  0  0
   17.4834   17.3965   22.3981 O   0  0  0  0  0  0  0  0  0  0  0  0
   15.3087   16.9934   21.6454 C   0  0  0  0  0  0  0  0  0  0  0  0
   12.3868   16.3534   23.8068 O   0  0  0  0  0  0  0  0  0  0  0  0
   12.2436   16.4166   20.8759 H   0  0  0  0  0  0  0  0  0  0  0  0
   14.3816   16.6983   25.3237 H   0  0  0  0  0  0  0  0  0  0  0  0
   16.5877   17.1455   24.7033 H   0  0  0  0  0  0  0  0  0  0  0  0
   13.5776   16.7100   18.5013 C   0  0  0  0  0  0  0  0  0  0  0  0
   13.7773   15.3079   17.9387 C   0  0  0  0  0  0  0  0  0  0  0  0
   12.4633   14.8609   17.2596 C   0  0  0  0  0  0  0  0  0  0  0  0
   12.3864   15.4654   15.8840 C   0  0  0  0  0  0  0  0  0  0  0  0
  1  2  2  0  0  0
  1 10  1  0  0  0
  2 15  1  0  0  0
  2  3  1  0  0  0
 15 16  1  0  0  0
 16 17  1  0  0  0
 17 18  1  0  0  0
  3  4  1  0  0  0
  4  5  1  0  0  0
  4 10  2  0  0  0
  5  6  1  0  0  0
  5 11  2  0  0  0
  6  7  1  0  0  0
  7  8  1  0  0  0
  8  9  2  0  0  0
  8 10  1  0  0  0
  3 12  1  0  0  0
  6 13  1  0  0  0
  7 14  1  0  0  0
M  END
> <minimizedAffinity>
-7.06287

$$$$
2Z1W_BDI_A_600


 18 19  0  0  0  0  0  0  0  0999 V2000
   16.2871   17.0298   19.9658 N   0  0  0  0  0  0  0  0  0  0  0  0
   14.9367   16.9498   19.9774 C   0  0  0  0  0  0  0  0  0  0  0  0
   14.4178   16.9336   21.1940 N   0  0  0  0  0  0  0  0  0  0  0  0
   15.4360   17.0037   22.0471 C   0  0  0  0  0  0  0  0  0  0  0  0
   15.4948   17.0252   23.5447 C   0  0  0  0  0  0  0  0  0  0  0  0
   16.7347   17.1046   24.0657 N   0  0  0  0  0  0  0  0  0  0  0  0
   17.9286   17.1651   23.3088 N   0  0  0  0  0  0  0  0  0  0  0  0
   17.9612   17.1524   21.9367 C   0  0  0  0  0  0  0  0  0  0  0  0
   18.9951   17.2066   21.3166 O   0  0  0  0  0  0  0  0  0  0  0  0
   16.6640   17.0675   21.2453 C   0  0  0  0  0  0  0  0  0  0  0  0
   14.4411   16.9701   24.1893 O   0  0  0  0  0  0  0  0  0  0  0  0
   13.4620   16.8799   21.4239 H   0  0  0  0  0  0  0  0  0  0  0  0
   16.8161   17.1219   25.0466 H   0  0  0  0  0  0  0  0  0  0  0  0
   18.7838   17.2194   23.7934 H   0  0  0  0  0  0  0  0  0  0  0  0
   14.0744   16.8437   18.7540 C   0  0  0  0  0  0  0  0  0  0  0  0
   14.6327   17.6785   17.6078 C   0  0  0  0  0  0  0  0  0  0  0  0
   13.5059   17.9098   16.5762 C   0  0  0  0  0  0  0  0  0  0  0  0
   14.0119   18.8129   15.4844 C   0  0  0  0  0  0  0  0  0  0  0  0
  1  2  2  0  0  0
  1 10  1  0  0  0
  2 15  1  0  0  0
  2  3  1  0  0  0
 15 16  1  0  0  0
 16 17  1  0  0  0
 17 18  1  0  0  0
  3  4  1  0  0  0
  4  5  1  0  0  0
  4 10  2  0  0  0
  5  6  1  0  0  0
  5 11  2  0  0  0
  6  7  1  0  0  0
  7  8  1  0  0  0
  8  9  2  0  0  0
  8 10  1  0  0  0
  3 12  1  0  0  0
  6 13  1  0  0  0
  7 14  1  0  0  0
M  END
> <minimizedAffinity>
-6.68921

$$$$
2Z1W_BDI_A_600


 18 19  0  0  0  0  0  0  0  0999 V2000
   14.4445   16.7850   20.6900 N   0  0  0  0  0  0  0  0  0  0  0  0
   15.3435   16.8234   19.6798 C   0  0  0  0  0  0  0  0  0  0  0  0
   16.5923   16.9764   20.0879 N   0  0  0  0  0  0  0  0  0  0  0  0
   16.5568   17.0464   21.4158 C   0  0  0  0  0  0  0  0  0  0  0  0
   17.6343   17.2157   22.4441 C   0  0  0  0  0  0  0  0  0  0  0  0
   17.2051   17.2415   23.7208 N   0  0  0  0  0  0  0  0  0  0  0  0
   15.8538   17.1237   24.1233 N   0  0  0  0  0  0  0  0  0  0  0  0
   14.8099   16.9644   23.2467 C   0  0  0  0  0  0  0  0  0  0  0  0
   13.6660   16.8651   23.6186 O   0  0  0  0  0  0  0  0  0  0  0  0
   15.1497   16.9208   21.8147 C   0  0  0  0  0  0  0  0  0  0  0  0
   18.8094   17.3183   22.0732 O   0  0  0  0  0  0  0  0  0  0  0  0
   17.3938   17.0286   19.5185 H   0  0  0  0  0  0  0  0  0  0  0  0
   17.8826   17.3506   24.4268 H   0  0  0  0  0  0  0  0  0  0  0  0
   15.6510   17.1579   25.0861 H   0  0  0  0  0  0  0  0  0  0  0  0
   14.9971   16.7473   18.2218 C   0  0  0  0  0  0  0  0  0  0  0  0
   13.5519   17.1614   17.9726 C   0  0  0  0  0  0  0  0  0  0  0  0
   12.8546   16.0442   17.1644 C   0  0  0  0  0  0  0  0  0  0  0  0
   12.7916   14.7945   17.9997 C   0  0  0  0  0  0  0  0  0  0  0  0
  1  2  2  0  0  0
  1 10  1  0  0  0
  2 15  1  0  0  0
  2  3  1  0  0  0
 15 16  1  0  0  0
 16 17  1  0  0  0
 17 18  1  0  0  0
  3  4  1  0  0  0
  4  5  1  0  0  0
  4 10  2  0  0  0
  5  6  1  0  0  0
  5 11  2  0  0  0
  6  7  1  0  0  0
  7  8  1  0  0  0
  8  9  2  0  0  0
  8 10  1  0  0  0
  3 12  1  0  0  0
  6 13  1  0  0  0
  7 14  1  0  0  0
M  END
> <minimizedAffinity>
-6.68325

$$$$
2Z1W_BDI_A_600


 18 19  0  0  0  0  0  0  0  0999 V2000
   14.7215   17.3218   17.8143 N   0  0  0  0  0  0  0  0  0  0  0  0
   15.8317   17.8258   17.2283 C   0  0  0  0  0  0  0  0  0  0  0  0
   15.9827   17.4501   15.9690 N   0  0  0  0  0  0  0  0  0  0  0  0
   14.9499   16.6648   15.6758 C   0  0  0  0  0  0  0  0  0  0  0  0
   14.5609   15.9391   14.4233 C   0  0  0  0  0  0  0  0  0  0  0  0
   13.4208   15.2263   14.5079 N   0  0  0  0  0  0  0  0  0  0  0  0
   12.6098   15.1304   15.6633 N   0  0  0  0  0  0  0  0  0  0  0  0
   12.8939   15.7640   16.8471 C   0  0  0  0  0  0  0  0  0  0  0  0
   12.1827   15.6654   17.8172 O   0  0  0  0  0  0  0  0  0  0  0  0
   14.1200   16.5785   16.8836 C   0  0  0  0  0  0  0  0  0  0  0  0
   15.2828   16.0337   13.4239 O   0  0  0  0  0  0  0  0  0  0  0  0
   16.7180   17.7030   15.3651 H   0  0  0  0  0  0  0  0  0  0  0  0
   13.1303   14.7352   13.7056 H   0  0  0  0  0  0  0  0  0  0  0  0
   11.7961   14.5782   15.6154 H   0  0  0  0  0  0  0  0  0  0  0  0
   16.8436   18.6949   17.9156 C   0  0  0  0  0  0  0  0  0  0  0  0
   16.9840   18.3252   19.3873 C   0  0  0  0  0  0  0  0  0  0  0  0
   18.0313   17.1959   19.5108 C   0  0  0  0  0  0  0  0  0  0  0  0
   19.3534   17.7888   19.9160 C   0  0  0  0  0  0  0  0  0  0  0  0
  1  2  2  0  0  0
  1 10  1  0  0  0
  2 15  1  0  0  0
  2  3  1  0  0  0
 15 16  1  0  0  0
 16 17  1  0  0  0
 17 18  1  0  0  0
  3  4  1  0  0  0
  4  5  1  0  0  0
  4 10  2  0  0  0
  5  6  1  0  0  0
  5 11  2  0  0  0
  6  7  1  0  0  0
  7  8  1  0  0  0
  8  9  2  0  0  0
  8 10  1  0  0  0
  3 12  1  0  0  0
  6 13  1  0  0  0
  7 14  1  0  0  0
M  END
> <minimizedAffinity>
-6.16468

$$$$
2Z1W_BDI_A_600


 18 19  0  0  0  0  0  0  0  0999 V2000
   15.7347   17.2713   16.3103 N   0  0  0  0  0  0  0  0  0  0  0  0
   15.5284   17.3864   17.6422 C   0  0  0  0  0  0  0  0  0  0  0  0
   14.4782   16.7092   18.0758 N   0  0  0  0  0  0  0  0  0  0  0  0
   13.9430   16.1099   17.0157 C   0  0  0  0  0  0  0  0  0  0  0  0
   12.7518   15.2132   16.8609 C   0  0  0  0  0  0  0  0  0  0  0  0
   12.5151   14.7915   15.6035 N   0  0  0  0  0  0  0  0  0  0  0  0
   13.2948   15.1352   14.4739 N   0  0  0  0  0  0  0  0  0  0  0  0
   14.3997   15.9473   14.5306 C   0  0  0  0  0  0  0  0  0  0  0  0
   15.0474   16.2229   13.5503 O   0  0  0  0  0  0  0  0  0  0  0  0
   14.7646   16.4758   15.8556 C   0  0  0  0  0  0  0  0  0  0  0  0
   12.0817   14.9249   17.8592 O   0  0  0  0  0  0  0  0  0  0  0  0
   14.1548   16.6585   19.0043 H   0  0  0  0  0  0  0  0  0  0  0  0
   11.7415   14.1997   15.4598 H   0  0  0  0  0  0  0  0  0  0  0  0
   13.0299   14.7714   13.5982 H   0  0  0  0  0  0  0  0  0  0  0  0
   16.3595   18.2250   18.5684 C   0  0  0  0  0  0  0  0  0  0  0  0
   16.2460   17.7397   20.0084 C   0  0  0  0  0  0  0  0  0  0  0  0
   17.6572   17.7384   20.6376 C   0  0  0  0  0  0  0  0  0  0  0  0
   18.6873   17.6742   19.5429 C   0  0  0  0  0  0  0  0  0  0  0  0
  1  2  2  0  0  0
  1 10  1  0  0  0
  2 15  1  0  0  0
  2  3  1  0  0  0
 15 16  1  0  0  0
 16 17  1  0  0  0
 17 18  1  0  0  0
  3  4  1  0  0  0
  4  5  1  0  0  0
  4 10  2  0  0  0
  5  6  1  0  0  0
  5 11  2  0  0  0
  6  7  1  0  0  0
  7  8  1  0  0  0
  8  9  2  0  0  0
  8 10  1  0  0  0
  3 12  1  0  0  0
  6 13  1  0  0  0
  7 14  1  0  0  0
M  END
> <minimizedAffinity>
-5.99612

$$$$
2Z1W_BDI_A_600


 18 19  0  0  0  0  0  0  0  0999 V2000
   16.0243   17.5731   18.6888 N   0  0  0  0  0  0  0  0  0  0  0  0
   15.9559   17.2539   20.0016 C   0  0  0  0  0  0  0  0  0  0  0  0
   15.1412   16.2443   20.2593 N   0  0  0  0  0  0  0  0  0  0  0  0
   14.6317   15.8545   19.0940 C   0  0  0  0  0  0  0  0  0  0  0  0
   13.6602   14.7720   18.7318 C   0  0  0  0  0  0  0  0  0  0  0  0
   13.3768   14.6762   17.4182 N   0  0  0  0  0  0  0  0  0  0  0  0
   13.9219   15.5056   16.4097 N   0  0  0  0  0  0  0  0  0  0  0  0
   14.8172   16.5160   16.6570 C   0  0  0  0  0  0  0  0  0  0  0  0
   15.2673   17.2075   15.7763 O   0  0  0  0  0  0  0  0  0  0  0  0
   15.2089   16.7234   18.0611 C   0  0  0  0  0  0  0  0  0  0  0  0
   13.1933   14.0580   19.6269 O   0  0  0  0  0  0  0  0  0  0  0  0
   14.9490   15.8560   21.1433 H   0  0  0  0  0  0  0  0  0  0  0  0
   12.7428   13.9766   17.1391 H   0  0  0  0  0  0  0  0  0  0  0  0
   13.6433   15.3491   15.4785 H   0  0  0  0  0  0  0  0  0  0  0  0
   16.6828   17.9765   21.0976 C   0  0  0  0  0  0  0  0  0  0  0  0
   17.8712   17.1672   21.6025 C   0  0  0  0  0  0  0  0  0  0  0  0
   17.8056   17.1109   23.1452 C   0  0  0  0  0  0  0  0  0  0  0  0
   16.4641   17.6156   23.6024 C   0  0  0  0  0  0  0  0  0  0  0  0
  1  2  2  0  0  0
  1 10  1  0  0  0
  2 15  1  0  0  0
  2  3  1  0  0  0
 15 16  1  0  0  0
 16 17  1  0  0  0
 17 18  1  0  0  0
  3  4  1  0  0  0
  4  5  1  0  0  0
  4 10  2  0  0  0
  5  6  1  0  0  0
  5 11  2  0  0  0
  6  7  1  0  0  0
  7  8  1  0  0  0
  8  9  2  0  0  0
  8 10  1  0  0  0
  3 12  1  0  0  0
  6 13  1  0  0  0
  7 14  1  0  0  0
M  END
> <minimizedAffinity>
-5.94338

$$$$
2Z1W_BDI_A_600


 18 19  0  0  0  0  0  0  0  0999 V2000
   15.5734   17.9608   18.6950 N   0  0  0  0  0  0  0  0  0  0  0  0
   16.4222   18.3521   17.7171 C   0  0  0  0  0  0  0  0  0  0  0  0
   17.6963   18.2948   18.0677 N   0  0  0  0  0  0  0  0  0  0  0  0
   17.7303   17.8526   19.3218 C   0  0  0  0  0  0  0  0  0  0  0  0
   18.8649   17.5789   20.2622 C   0  0  0  0  0  0  0  0  0  0  0  0
   18.5013   17.1290   21.4789 N   0  0  0  0  0  0  0  0  0  0  0  0
   17.1669   16.9122   21.8965 N   0  0  0  0  0  0  0  0  0  0  0  0
   16.0737   17.1360   21.0974 C   0  0  0  0  0  0  0  0  0  0  0  0
   14.9458   16.9410   21.4798 O   0  0  0  0  0  0  0  0  0  0  0  0
   16.3396   17.6319   19.7368 C   0  0  0  0  0  0  0  0  0  0  0  0
   20.0243   17.7755   19.8800 O   0  0  0  0  0  0  0  0  0  0  0  0
   18.4704   18.5335   17.5082 H   0  0  0  0  0  0  0  0  0  0  0  0
   19.2179   16.9366   22.1261 H   0  0  0  0  0  0  0  0  0  0  0  0
   17.0140   16.5824   22.8114 H   0  0  0  0  0  0  0  0  0  0  0  0
   16.0007   18.8514   16.3662 C   0  0  0  0  0  0  0  0  0  0  0  0
   14.7083   18.1867   15.9077 C   0  0  0  0  0  0  0  0  0  0  0  0
   15.0458   16.7775   15.3714 C   0  0  0  0  0  0  0  0  0  0  0  0
   14.8094   16.7433   13.8860 C   0  0  0  0  0  0  0  0  0  0  0  0
  1  2  2  0  0  0
  1 10  1  0  0  0
  2 15  1  0  0  0
  2  3  1  0  0  0
 15 16  1  0  0  0
 16 17  1  0  0  0
 17 18  1  0  0  0
  3  4  1  0  0  0
  4  5  1  0  0  0
  4 10  2  0  0  0
  5  6  1  0  0  0
  5 11  2  0  0  0
  6  7  1  0  0  0
  7  8  1  0  0  0
  8  9  2  0  0  0
  8 10  1  0  0  0
  3 12  1  0  0  0
  6 13  1  0  0  0
  7 14  1  0  0  0
M  END
> <minimizedAffinity>
-5.87881

$$$$
2Z1W_BDI_A_600


 18 19  0  0  0  0  0  0  0  0999 V2000
   17.6952   18.2785   18.0235 N   0  0  0  0  0  0  0  0  0  0  0  0
   16.3767   18.3294   17.7252 C   0  0  0  0  0  0  0  0  0  0  0  0
   15.5935   17.9516   18.7220 N   0  0  0  0  0  0  0  0  0  0  0  0
   16.3911   17.6302   19.7369 C   0  0  0  0  0  0  0  0  0  0  0  0
   16.1068   17.1369   21.1235 C   0  0  0  0  0  0  0  0  0  0  0  0
   17.1961   16.9156   21.8846 N   0  0  0  0  0  0  0  0  0  0  0  0
   18.5322   17.1142   21.4633 N   0  0  0  0  0  0  0  0  0  0  0  0
   18.8769   17.5643   20.2134 C   0  0  0  0  0  0  0  0  0  0  0  0
   20.0259   17.7260   19.8814 O   0  0  0  0  0  0  0  0  0  0  0  0
   17.7706   17.8438   19.2828 C   0  0  0  0  0  0  0  0  0  0  0  0
   14.9329   16.9681   21.4734 O   0  0  0  0  0  0  0  0  0  0  0  0
   14.6097   17.9152   18.7142 H   0  0  0  0  0  0  0  0  0  0  0  0
   17.0517   16.5914   22.8029 H   0  0  0  0  0  0  0  0  0  0  0  0
   19.2550   16.9185   22.1024 H   0  0  0  0  0  0  0  0  0  0  0  0
   15.8149   18.7277   16.3921 C   0  0  0  0  0  0  0  0  0  0  0  0
   15.6686   17.5235   15.4696 C   0  0  0  0  0  0  0  0  0  0  0  0
   16.6665   17.6783   14.3001 C   0  0  0  0  0  0  0  0  0  0  0  0
   16.1968   16.8497   13.1355 C   0  0  0  0  0  0  0  0  0  0  0  0
  1  2  2  0  0  0
  1 10  1  0  0  0
  2 15  1  0  0  0
  2  3  1  0  0  0
 15 16  1  0  0  0
 16 17  1  0  0  0
 17 18  1  0  0  0
  3  4  1  0  0  0
  4  5  1  0  0  0
  4 10  2  0  0  0
  5  6  1  0  0  0
  5 11  2  0  0  0
  6  7  1  0  0  0
  7  8  1  0  0  0
  8  9  2  0  0  0
  8 10  1  0  0  0
  3 12  1  0  0  0
  6 13  1  0  0  0
  7 14  1  0  0  0
M  END
> <minimizedAffinity>
-5.83750

$$$$
