2WER_RDC_A_1215
  RCSB PDB12061707143D
Coordinates from PDB:2WER:A:1215 Model:1 without hydrogens
 25 27  0  0  0  0            999 V2000
    2.4670   55.6290   -5.8180   C 0  0  0  0  0  0  0  0  0  0  0  0
    3.3400   55.7540   -4.6350   C 0  0  0  0  0  0  0  0  0  0  0  0
    4.4930   56.7030   -4.7240   C 0  0  0  0  0  0  0  0  0  0  0  0
    5.3540   56.7790   -3.6090   C 0  0  0  0  0  0  0  0  0  0  0  0
    5.2010   55.9860   -2.4510   C 0  0  0  0  0  0  0  0  0  0  0  0
    4.0870   55.0300   -2.3550   C 0  0  0  0  0  0  0  0  0  0  0  0
    3.1550   54.8830   -3.4730   C 0  0  0  0  0  0  0  0  0  0  0  0
    1.9820   53.9180   -3.3330   C 0  0  0  0  0  0  0  0  0  0  0  0
    2.2760   52.5170   -2.8750   C 0  0  0  0  0  0  0  0  0  0  0  0
    3.3010   51.6600   -3.5130   C 0  0  0  0  0  0  0  0  0  0  0  0
    3.7450   51.9540   -4.7360   C 0  0  0  0  0  0  0  0  0  0  0  0
    4.7190   51.0940   -5.4250   C 0  0  0  0  0  0  0  0  0  0  0  0
    5.0800   51.3330   -6.6980   C 0  0  0  0  0  0  0  0  0  0  0  0
    4.6000   52.5250   -7.4910   C 0  0  0  0  0  0  0  0  0  0  0  0
    3.2050   52.3500   -8.1070   C 0  0  0  0  0  0  0  0  0  0  0  0
    2.4720   53.6300   -8.5250   C 0  0  0  0  0  0  0  0  0  0  0  0
    1.5290   54.1460   -7.4170   C 0  0  0  0  0  0  0  0  0  0  0  0
    0.4480   53.1520   -7.0600   C 0  0  0  0  0  0  0  0  0  0  0  0
    2.3150   54.2610   -6.2360   O 0  0  0  0  0  0  0  0  0  0  0  0
    2.0100   56.5370   -6.4310   O 0  0  0  0  0  0  0  0  0  0  0  0
    4.5850   57.4710   -5.8400   O 0  0  0  0  0  0  0  0  0  0  0  0
    6.0380   56.0470   -1.3980   O 0  0  0  0  0  0  0  0  0  0  0  0
    3.8020   54.1210   -0.9030  Cl 0  0  0  0  0  0  0  0  0  0  0  0
    1.5720   52.0720   -1.9900   O 0  0  0  0  0  0  0  0  0  0  0  0
    4.4290   52.2310   -8.8790   O 0  0  0  0  0  0  0  0  0  0  0  0
  1  2  1  0  0  0  0
  1 19  1  0  0  0  0
  1 20  2  0  0  0  0
  2  3  2  0  0  0  0
  2  7  1  0  0  0  0
  3  4  1  0  0  0  0
  3 21  1  0  0  0  0
  4  5  2  0  0  0  0
  5  6  1  0  0  0  0
  5 22  1  0  0  0  0
  6  7  2  0  0  0  0
  6 23  1  0  0  0  0
  7  8  1  0  0  0  0
  8  9  1  0  0  0  0
  9 10  1  0  0  0  0
  9 24  2  0  0  0  0
 10 11  2  0  0  0  0
 11 12  1  0  0  0  0
 12 13  2  0  0  0  0
 13 14  1  0  0  0  0
 14 15  1  0  0  0  0
 14 25  1  0  0  0  0
 15 16  1  0  0  0  0
 15 25  1  0  0  0  0
 16 17  1  0  0  0  0
 17 18  1  0  0  0  0
 17 19  1  0  0  0  0
A    1
C1
A    2
C2
A    3
C3
A    4
C4
A    5
C5
A    6
C6
A    7
C7
A    8
C8
A    9
C9
A   10
C10
A   11
C11
A   12
C12
A   13
C13
A   14
C14
A   15
C15
A   16
C16
A   17
C17
A   18
C18
A   19
O1
A   20
O2
A   21
O3
A   22
O4
A   23
CL1
A   24
O5
A   25
O6
M  END
>  <InstanceId>
2WER_RDC_A_1215

>  <ChemCompId>
RDC

>  <PdbId>
2WER

>  <ChainId>
A

>  <ResidueNumber>
1215

>  <InsertionCode>


>  <Model>
1

>  <AltIds>


>  <MissingHeavyAtoms>
0

>  <ObservedFormula>
C18 O6 Cl

>  <Name>
RADICICOL

>  <SystematicName>


>  <Synonyms>
MONORDEN

>  <Type>
NON-POLYMER

>  <Formula>
C18 H17 Cl O6

>  <MolecularWeight>
364.777

>  <ModifiedDate>
2011-06-04

>  <Parent>


>  <OneLetterCode>


>  <SubcomponentList>


>  <AmbiguousFlag>
N

>  <InChI>
InChI=1S/C18H17ClO6/c1-9-6-15-14(25-15)5-3-2-4-10(20)7-11-16(18(23)24-9)12(21)8-13(22)17(11)19/h2-5,8-9,14-15,21-22H,6-7H2,1H3/b4-2+,5-3-/t9-,14-,15-/m1/s1

>  <InChIKey>
WYZWZEOGROVVHK-GTMNPGAYSA-N

>  <SMILES>
C[C@@H]1C[C@@H]2[C@H](O2)\C=C/C=C/C(=O)Cc3c(c(cc(c3Cl)O)O)C(=O)O1

$$$$
