2WER_RDC_A_1215


 27 29  0  0  0  0  0  0  0  0999 V2000
    2.2851   55.3110   -5.8213 C   0  0  0  0  0  0  0  0  0  0  0  0
    3.0367   55.3265   -4.5517 C   0  0  0  0  0  0  0  0  0  0  0  0
    4.1909   56.2720   -4.4432 C   0  0  0  0  0  0  0  0  0  0  0  0
    4.9374   56.2447   -3.2464 C   0  0  0  0  0  0  0  0  0  0  0  0
    4.6725   55.3546   -2.1830 C   0  0  0  0  0  0  0  0  0  0  0  0
    3.5564   54.4012   -2.2814 C   0  0  0  0  0  0  0  0  0  0  0  0
    2.7397   54.3585   -3.4943 C   0  0  0  0  0  0  0  0  0  0  0  0
    1.5606   53.3927   -3.5556 C   0  0  0  0  0  0  0  0  0  0  0  0
    1.8109   51.9552   -3.1953 C   0  0  0  0  0  0  0  0  0  0  0  0
    2.8957   51.1505   -3.8017 C   0  0  0  0  0  0  0  0  0  0  0  0
    3.4576   51.5472   -4.9446 C   0  0  0  0  0  0  0  0  0  0  0  0
    4.4967   50.7443   -5.6069 C   0  0  0  0  0  0  0  0  0  0  0  0
    4.9811   51.0911   -6.8123 C   0  0  0  0  0  0  0  0  0  0  0  0
    4.5793   52.3510   -7.5413 C   0  0  0  0  0  0  0  0  0  0  0  0
    3.2523   52.2396   -8.3047 C   0  0  0  0  0  0  0  0  0  0  0  0
    2.5615   53.5560   -8.6792 C   0  0  0  0  0  0  0  0  0  0  0  0
    1.5126   53.9795   -7.6287 C   0  0  0  0  0  0  0  0  0  0  0  0
    0.4037   52.9652   -7.4683 C   0  0  0  0  0  0  0  0  0  0  0  0
    2.1779   53.9857   -6.3704 O   0  0  0  0  0  0  0  0  0  0  0  0
    1.8889   56.2720   -6.3945 O   0  0  0  0  0  0  0  0  0  0  0  0
    4.3910   57.1339   -5.4732 O   0  0  0  0  0  0  0  0  0  0  0  0
    5.4013   55.3179   -1.0514 O   0  0  0  0  0  0  0  0  0  0  0  0
    3.1314   53.3708   -0.9497 Cl  0  0  0  0  0  0  0  0  0  0  0  0
    1.0239   51.4393   -2.4263 O   0  0  0  0  0  0  0  0  0  0  0  0
    4.5468   52.1804   -8.9598 O   0  0  0  0  0  0  0  0  0  0  0  0
    3.8493   57.0859   -6.2362 H   0  0  0  0  0  0  0  0  0  0  0  0
    6.1231   55.9049   -0.9398 H   0  0  0  0  0  0  0  0  0  0  0  0
  1  2  1  0  0  0
  1 19  1  0  0  0
  1 20  2  0  0  0
  2  3  2  0  0  0
  2  7  1  0  0  0
  3  4  1  0  0  0
  3 21  1  0  0  0
  4  5  2  0  0  0
  5  6  1  0  0  0
  5 22  1  0  0  0
  6  7  2  0  0  0
  6 23  1  0  0  0
  7  8  1  0  0  0
  8  9  1  0  0  0
  9 10  1  0  0  0
  9 24  2  0  0  0
 10 11  2  0  0  0
 11 12  1  0  0  0
 12 13  2  0  0  0
 13 14  1  0  0  0
 14 15  1  0  0  0
 14 25  1  0  0  0
 15 16  1  0  0  0
 15 25  1  0  0  0
 16 17  1  0  0  0
 17 18  1  0  0  0
 17 19  1  0  0  0
 21 26  1  0  0  0
 22 27  1  0  0  0
M  END
> <minimizedAffinity>
-9.49663

$$$$
2WER_RDC_A_1215


 27 29  0  0  0  0  0  0  0  0999 V2000
    0.9317   52.9367   -6.2131 C   0  0  0  0  0  0  0  0  0  0  0  0
    1.7111   53.8032   -5.3082 C   0  0  0  0  0  0  0  0  0  0  0  0
    2.3463   55.0232   -5.8964 C   0  0  0  0  0  0  0  0  0  0  0  0
    3.1332   55.8191   -5.0375 C   0  0  0  0  0  0  0  0  0  0  0  0
    3.3748   55.5002   -3.6836 C   0  0  0  0  0  0  0  0  0  0  0  0
    2.7780   54.2918   -3.0938 C   0  0  0  0  0  0  0  0  0  0  0  0
    1.9571   53.4071   -3.9205 C   0  0  0  0  0  0  0  0  0  0  0  0
    1.3124   52.1840   -3.2760 C   0  0  0  0  0  0  0  0  0  0  0  0
    2.1914   51.2701   -2.4691 C   0  0  0  0  0  0  0  0  0  0  0  0
    3.4596   50.7086   -2.9872 C   0  0  0  0  0  0  0  0  0  0  0  0
    3.6912   50.6922   -4.3008 C   0  0  0  0  0  0  0  0  0  0  0  0
    4.9127   50.0902   -4.8562 C   0  0  0  0  0  0  0  0  0  0  0  0
    5.0908   49.9771   -6.1841 C   0  0  0  0  0  0  0  0  0  0  0  0
    4.1203   50.5217   -7.2049 C   0  0  0  0  0  0  0  0  0  0  0  0
    2.9110   49.6141   -7.4696 C   0  0  0  0  0  0  0  0  0  0  0  0
    1.6881   50.2701   -8.1212 C   0  0  0  0  0  0  0  0  0  0  0  0
    0.6564   50.7415   -7.0741 C   0  0  0  0  0  0  0  0  0  0  0  0
    0.1153   49.6069   -6.2350 C   0  0  0  0  0  0  0  0  0  0  0  0
    1.3613   51.5652   -6.1519 O   0  0  0  0  0  0  0  0  0  0  0  0
    0.1095   53.3130   -6.9822 O   0  0  0  0  0  0  0  0  0  0  0  0
    2.0617   55.3124   -7.1922 O   0  0  0  0  0  0  0  0  0  0  0  0
    4.1441   56.2519   -2.8735 O   0  0  0  0  0  0  0  0  0  0  0  0
    2.9604   53.9286   -1.4054 Cl  0  0  0  0  0  0  0  0  0  0  0  0
    1.7767   50.9368   -1.3765 O   0  0  0  0  0  0  0  0  0  0  0  0
    4.0401   49.7089   -8.3776 O   0  0  0  0  0  0  0  0  0  0  0  0
    1.5294   54.7289   -7.6964 H   0  0  0  0  0  0  0  0  0  0  0  0
    4.5471   57.0318   -3.2012 H   0  0  0  0  0  0  0  0  0  0  0  0
  1  2  1  0  0  0
  1 19  1  0  0  0
  1 20  2  0  0  0
  2  3  2  0  0  0
  2  7  1  0  0  0
  3  4  1  0  0  0
  3 21  1  0  0  0
  4  5  2  0  0  0
  5  6  1  0  0  0
  5 22  1  0  0  0
  6  7  2  0  0  0
  6 23  1  0  0  0
  7  8  1  0  0  0
  8  9  1  0  0  0
  9 10  1  0  0  0
  9 24  2  0  0  0
 10 11  2  0  0  0
 11 12  1  0  0  0
 12 13  2  0  0  0
 13 14  1  0  0  0
 14 15  1  0  0  0
 14 25  1  0  0  0
 15 16  1  0  0  0
 15 25  1  0  0  0
 16 17  1  0  0  0
 17 18  1  0  0  0
 17 19  1  0  0  0
 21 26  1  0  0  0
 22 27  1  0  0  0
M  END
> <minimizedAffinity>
-7.82181

$$$$
2WER_RDC_A_1215


 27 29  0  0  0  0  0  0  0  0999 V2000
    3.6285   56.2281   -5.3844 C   0  0  0  0  0  0  0  0  0  0  0  0
    2.9069   55.3278   -6.3043 C   0  0  0  0  0  0  0  0  0  0  0  0
    1.5929   55.7983   -6.8426 C   0  0  0  0  0  0  0  0  0  0  0  0
    0.8835   54.9115   -7.6798 C   0  0  0  0  0  0  0  0  0  0  0  0
    1.3319   53.6102   -7.9943 C   0  0  0  0  0  0  0  0  0  0  0  0
    2.6102   53.1213   -7.4549 C   0  0  0  0  0  0  0  0  0  0  0  0
    3.4018   53.9759   -6.5698 C   0  0  0  0  0  0  0  0  0  0  0  0
    4.7449   53.4645   -6.0586 C   0  0  0  0  0  0  0  0  0  0  0  0
    4.7838   52.0994   -5.4309 C   0  0  0  0  0  0  0  0  0  0  0  0
    3.8671   51.6869   -4.3438 C   0  0  0  0  0  0  0  0  0  0  0  0
    3.2221   52.6124   -3.6320 C   0  0  0  0  0  0  0  0  0  0  0  0
    2.3490   52.2434   -2.5074 C   0  0  0  0  0  0  0  0  0  0  0  0
    1.7888   53.1821   -1.7245 C   0  0  0  0  0  0  0  0  0  0  0  0
    1.9276   54.6653   -1.9715 C   0  0  0  0  0  0  0  0  0  0  0  0
    3.2396   55.2692   -1.4518 C   0  0  0  0  0  0  0  0  0  0  0  0
    3.6561   56.6213   -2.0425 C   0  0  0  0  0  0  0  0  0  0  0  0
    4.6181   56.4594   -3.2389 C   0  0  0  0  0  0  0  0  0  0  0  0
    5.9051   55.7616   -2.8636 C   0  0  0  0  0  0  0  0  0  0  0  0
    3.9828   55.5731   -4.1537 O   0  0  0  0  0  0  0  0  0  0  0  0
    3.8221   57.3845   -5.5694 O   0  0  0  0  0  0  0  0  0  0  0  0
    1.2141   57.0676   -6.5441 O   0  0  0  0  0  0  0  0  0  0  0  0
    0.6408   52.7598   -8.7767 O   0  0  0  0  0  0  0  0  0  0  0  0
    3.2468   51.5712   -7.9106 Cl  0  0  0  0  0  0  0  0  0  0  0  0
    5.6673   51.3520   -5.8019 O   0  0  0  0  0  0  0  0  0  0  0  0
    1.9717   55.4239   -0.7612 O   0  0  0  0  0  0  0  0  0  0  0  0
    1.7435   57.5935   -5.9775 H   0  0  0  0  0  0  0  0  0  0  0  0
   -0.1795   53.0233   -9.1449 H   0  0  0  0  0  0  0  0  0  0  0  0
  1  2  1  0  0  0
  1 19  1  0  0  0
  1 20  2  0  0  0
  2  3  2  0  0  0
  2  7  1  0  0  0
  3  4  1  0  0  0
  3 21  1  0  0  0
  4  5  2  0  0  0
  5  6  1  0  0  0
  5 22  1  0  0  0
  6  7  2  0  0  0
  6 23  1  0  0  0
  7  8  1  0  0  0
  8  9  1  0  0  0
  9 10  1  0  0  0
  9 24  2  0  0  0
 10 11  2  0  0  0
 11 12  1  0  0  0
 12 13  2  0  0  0
 13 14  1  0  0  0
 14 15  1  0  0  0
 14 25  1  0  0  0
 15 16  1  0  0  0
 15 25  1  0  0  0
 16 17  1  0  0  0
 17 18  1  0  0  0
 17 19  1  0  0  0
 21 26  1  0  0  0
 22 27  1  0  0  0
M  END
> <minimizedAffinity>
-7.66295

$$$$
2WER_RDC_A_1215


 27 29  0  0  0  0  0  0  0  0999 V2000
    2.2221   49.3729   -5.5241 C   0  0  0  0  0  0  0  0  0  0  0  0
    1.4746   48.8137   -4.3814 C   0  0  0  0  0  0  0  0  0  0  0  0
    0.0010   48.6177   -4.5487 C   0  0  0  0  0  0  0  0  0  0  0  0
   -0.7162   48.1321   -3.4351 C   0  0  0  0  0  0  0  0  0  0  0  0
   -0.1226   47.8651   -2.1823 C   0  0  0  0  0  0  0  0  0  0  0  0
    1.3210   48.0745   -1.9917 C   0  0  0  0  0  0  0  0  0  0  0  0
    2.1345   48.5863   -3.0946 C   0  0  0  0  0  0  0  0  0  0  0  0
    3.6365   48.7532   -2.8872 C   0  0  0  0  0  0  0  0  0  0  0  0
    4.0981   49.5064   -1.6712 C   0  0  0  0  0  0  0  0  0  0  0  0
    3.5903   50.8512   -1.3165 C   0  0  0  0  0  0  0  0  0  0  0  0
    2.9855   51.5980   -2.2415 C   0  0  0  0  0  0  0  0  0  0  0  0
    2.5203   52.9608   -1.9422 C   0  0  0  0  0  0  0  0  0  0  0  0
    2.0115   53.7494   -2.9051 C   0  0  0  0  0  0  0  0  0  0  0  0
    1.7938   53.2932   -4.3280 C   0  0  0  0  0  0  0  0  0  0  0  0
    3.0539   53.3404   -5.2032 C   0  0  0  0  0  0  0  0  0  0  0  0
    3.0356   52.4946   -6.4817 C   0  0  0  0  0  0  0  0  0  0  0  0
    3.6685   51.1033   -6.2654 C   0  0  0  0  0  0  0  0  0  0  0  0
    5.1181   51.1798   -5.8448 C   0  0  0  0  0  0  0  0  0  0  0  0
    3.0014   50.5227   -5.1502 O   0  0  0  0  0  0  0  0  0  0  0  0
    2.1350   49.0002   -6.6478 O   0  0  0  0  0  0  0  0  0  0  0  0
   -0.5248   48.8537   -5.7782 O   0  0  0  0  0  0  0  0  0  0  0  0
   -0.8153   47.4219   -1.1161 O   0  0  0  0  0  0  0  0  0  0  0  0
    2.1042   47.6502   -0.5010 Cl  0  0  0  0  0  0  0  0  0  0  0  0
    4.9825   48.9940   -1.0137 O   0  0  0  0  0  0  0  0  0  0  0  0
    2.0022   54.3385   -5.2799 O   0  0  0  0  0  0  0  0  0  0  0  0
    0.0216   49.1775   -6.4671 H   0  0  0  0  0  0  0  0  0  0  0  0
   -1.7377   47.2726   -1.1857 H   0  0  0  0  0  0  0  0  0  0  0  0
  1  2  1  0  0  0
  1 19  1  0  0  0
  1 20  2  0  0  0
  2  3  2  0  0  0
  2  7  1  0  0  0
  3  4  1  0  0  0
  3 21  1  0  0  0
  4  5  2  0  0  0
  5  6  1  0  0  0
  5 22  1  0  0  0
  6  7  2  0  0  0
  6 23  1  0  0  0
  7  8  1  0  0  0
  8  9  1  0  0  0
  9 10  1  0  0  0
  9 24  2  0  0  0
 10 11  2  0  0  0
 11 12  1  0  0  0
 12 13  2  0  0  0
 13 14  1  0  0  0
 14 15  1  0  0  0
 14 25  1  0  0  0
 15 16  1  0  0  0
 15 25  1  0  0  0
 16 17  1  0  0  0
 17 18  1  0  0  0
 17 19  1  0  0  0
 21 26  1  0  0  0
 22 27  1  0  0  0
M  END
> <minimizedAffinity>
-7.58693

$$$$
2WER_RDC_A_1215


 27 29  0  0  0  0  0  0  0  0999 V2000
    2.9735   52.3264   -3.5957 C   0  0  0  0  0  0  0  0  0  0  0  0
    3.3907   52.2268   -5.0075 C   0  0  0  0  0  0  0  0  0  0  0  0
    4.4818   51.2585   -5.3391 C   0  0  0  0  0  0  0  0  0  0  0  0
    4.9120   51.2058   -6.6817 C   0  0  0  0  0  0  0  0  0  0  0  0
    4.3955   52.0379   -7.6985 C   0  0  0  0  0  0  0  0  0  0  0  0
    3.3389   53.0128   -7.3866 C   0  0  0  0  0  0  0  0  0  0  0  0
    2.8447   53.1374   -6.0153 C   0  0  0  0  0  0  0  0  0  0  0  0
    1.7179   54.1236   -5.7245 C   0  0  0  0  0  0  0  0  0  0  0  0
    1.8740   55.5341   -6.2195 C   0  0  0  0  0  0  0  0  0  0  0  0
    3.0755   56.3549   -5.9456 C   0  0  0  0  0  0  0  0  0  0  0  0
    3.9001   56.0152   -4.9537 C   0  0  0  0  0  0  0  0  0  0  0  0
    5.0709   56.8381   -4.6146 C   0  0  0  0  0  0  0  0  0  0  0  0
    5.8357   56.5529   -3.5461 C   0  0  0  0  0  0  0  0  0  0  0  0
    5.6233   55.3431   -2.6677 C   0  0  0  0  0  0  0  0  0  0  0  0
    4.5243   55.5187   -1.6107 C   0  0  0  0  0  0  0  0  0  0  0  0
    3.9447   54.2369   -1.0013 C   0  0  0  0  0  0  0  0  0  0  0  0
    2.6697   53.7708   -1.7363 C   0  0  0  0  0  0  0  0  0  0  0  0
    1.5566   54.7916   -1.6800 C   0  0  0  0  0  0  0  0  0  0  0  0
    3.0060   53.6823   -3.1164 O   0  0  0  0  0  0  0  0  0  0  0  0
    2.7288   51.4060   -2.8872 O   0  0  0  0  0  0  0  0  0  0  0  0
    4.9273   50.4537   -4.3404 O   0  0  0  0  0  0  0  0  0  0  0  0
    4.8245   51.9985   -8.9743 O   0  0  0  0  0  0  0  0  0  0  0  0
    2.6015   53.9722   -8.6322 Cl  0  0  0  0  0  0  0  0  0  0  0  0
    0.9231   56.0178   -6.8015 O   0  0  0  0  0  0  0  0  0  0  0  0
    5.9400   55.5947   -1.2971 O   0  0  0  0  0  0  0  0  0  0  0  0
    4.5894   50.5536   -3.4721 H   0  0  0  0  0  0  0  0  0  0  0  0
    5.4961   51.3949   -9.2243 H   0  0  0  0  0  0  0  0  0  0  0  0
  1  2  1  0  0  0
  1 19  1  0  0  0
  1 20  2  0  0  0
  2  3  2  0  0  0
  2  7  1  0  0  0
  3  4  1  0  0  0
  3 21  1  0  0  0
  4  5  2  0  0  0
  5  6  1  0  0  0
  5 22  1  0  0  0
  6  7  2  0  0  0
  6 23  1  0  0  0
  7  8  1  0  0  0
  8  9  1  0  0  0
  9 10  1  0  0  0
  9 24  2  0  0  0
 10 11  2  0  0  0
 11 12  1  0  0  0
 12 13  2  0  0  0
 13 14  1  0  0  0
 14 15  1  0  0  0
 14 25  1  0  0  0
 15 16  1  0  0  0
 15 25  1  0  0  0
 16 17  1  0  0  0
 17 18  1  0  0  0
 17 19  1  0  0  0
 21 26  1  0  0  0
 22 27  1  0  0  0
M  END
> <minimizedAffinity>
-7.48834

$$$$
2WER_RDC_A_1215


 27 29  0  0  0  0  0  0  0  0999 V2000
    3.6447   51.9965   -2.9890 C   0  0  0  0  0  0  0  0  0  0  0  0
    3.3418   52.5922   -4.3045 C   0  0  0  0  0  0  0  0  0  0  0  0
    2.3146   53.6787   -4.3513 C   0  0  0  0  0  0  0  0  0  0  0  0
    1.9917   54.2077   -5.6187 C   0  0  0  0  0  0  0  0  0  0  0  0
    2.5557   53.7391   -6.8251 C   0  0  0  0  0  0  0  0  0  0  0  0
    3.5499   52.6551   -6.8012 C   0  0  0  0  0  0  0  0  0  0  0  0
    3.9317   52.0450   -5.5275 C   0  0  0  0  0  0  0  0  0  0  0  0
    4.9970   50.9533   -5.5229 C   0  0  0  0  0  0  0  0  0  0  0  0
    4.8300   49.8051   -6.4782 C   0  0  0  0  0  0  0  0  0  0  0  0
    3.5827   49.0132   -6.5747 C   0  0  0  0  0  0  0  0  0  0  0  0
    2.6963   49.0461   -5.5784 C   0  0  0  0  0  0  0  0  0  0  0  0
    1.4744   48.2283   -5.6125 C   0  0  0  0  0  0  0  0  0  0  0  0
    0.6397   48.1806   -4.5594 C   0  0  0  0  0  0  0  0  0  0  0  0
    0.8260   49.0072   -3.3096 C   0  0  0  0  0  0  0  0  0  0  0  0
    1.8331   48.4195   -2.3113 C   0  0  0  0  0  0  0  0  0  0  0  0
    2.4086   49.3830   -1.2669 C   0  0  0  0  0  0  0  0  0  0  0  0
    3.7524   49.9933   -1.7196 C   0  0  0  0  0  0  0  0  0  0  0  0
    4.8210   48.9491   -1.9476 C   0  0  0  0  0  0  0  0  0  0  0  0
    3.5273   50.5629   -3.0043 O   0  0  0  0  0  0  0  0  0  0  0  0
    3.8662   52.6070   -1.9953 O   0  0  0  0  0  0  0  0  0  0  0  0
    1.8217   54.1236   -3.1668 O   0  0  0  0  0  0  0  0  0  0  0  0
    2.2284   54.2329   -8.0343 O   0  0  0  0  0  0  0  0  0  0  0  0
    4.3471   52.1311   -8.2522 Cl  0  0  0  0  0  0  0  0  0  0  0  0
    5.8055   49.4910   -7.1315 O   0  0  0  0  0  0  0  0  0  0  0  0
    0.3955   48.3265   -2.1292 O   0  0  0  0  0  0  0  0  0  0  0  0
    2.0877   53.7161   -2.3660 H   0  0  0  0  0  0  0  0  0  0  0  0
    1.5999   54.9244   -8.1036 H   0  0  0  0  0  0  0  0  0  0  0  0
  1  2  1  0  0  0
  1 19  1  0  0  0
  1 20  2  0  0  0
  2  3  2  0  0  0
  2  7  1  0  0  0
  3  4  1  0  0  0
  3 21  1  0  0  0
  4  5  2  0  0  0
  5  6  1  0  0  0
  5 22  1  0  0  0
  6  7  2  0  0  0
  6 23  1  0  0  0
  7  8  1  0  0  0
  8  9  1  0  0  0
  9 10  1  0  0  0
  9 24  2  0  0  0
 10 11  2  0  0  0
 11 12  1  0  0  0
 12 13  2  0  0  0
 13 14  1  0  0  0
 14 15  1  0  0  0
 14 25  1  0  0  0
 15 16  1  0  0  0
 15 25  1  0  0  0
 16 17  1  0  0  0
 17 18  1  0  0  0
 17 19  1  0  0  0
 21 26  1  0  0  0
 22 27  1  0  0  0
M  END
> <minimizedAffinity>
-7.31402

$$$$
2WER_RDC_A_1215


 27 29  0  0  0  0  0  0  0  0999 V2000
    1.2052   49.4078   -4.6943 C   0  0  0  0  0  0  0  0  0  0  0  0
    2.2749   49.2792   -3.6861 C   0  0  0  0  0  0  0  0  0  0  0  0
    2.0398   49.9007   -2.3458 C   0  0  0  0  0  0  0  0  0  0  0  0
    3.0870   49.8196   -1.4040 C   0  0  0  0  0  0  0  0  0  0  0  0
    4.3372   49.2237   -1.6784 C   0  0  0  0  0  0  0  0  0  0  0  0
    4.5953   48.6284   -2.9987 C   0  0  0  0  0  0  0  0  0  0  0  0
    3.5642   48.6802   -4.0351 C   0  0  0  0  0  0  0  0  0  0  0  0
    3.8381   48.0172   -5.3813 C   0  0  0  0  0  0  0  0  0  0  0  0
    5.1231   48.3571   -6.0830 C   0  0  0  0  0  0  0  0  0  0  0  0
    5.5587   49.7495   -6.3349 C   0  0  0  0  0  0  0  0  0  0  0  0
    4.6708   50.7434   -6.2803 C   0  0  0  0  0  0  0  0  0  0  0  0
    5.0542   52.1309   -6.5817 C   0  0  0  0  0  0  0  0  0  0  0  0
    4.1352   53.1111   -6.6331 C   0  0  0  0  0  0  0  0  0  0  0  0
    2.6751   52.9029   -6.3089 C   0  0  0  0  0  0  0  0  0  0  0  0
    1.8524   52.3145   -7.4635 C   0  0  0  0  0  0  0  0  0  0  0  0
    0.5143   51.6643   -7.0932 C   0  0  0  0  0  0  0  0  0  0  0  0
    0.6487   50.1409   -6.8826 C   0  0  0  0  0  0  0  0  0  0  0  0
    1.1265   49.4197   -8.1219 C   0  0  0  0  0  0  0  0  0  0  0  0
    1.6923   49.9529   -5.9332 O   0  0  0  0  0  0  0  0  0  0  0  0
    0.0544   49.1880   -4.5038 O   0  0  0  0  0  0  0  0  0  0  0  0
    0.8130   50.4334   -2.1109 O   0  0  0  0  0  0  0  0  0  0  0  0
    5.3413   49.1677   -0.7830 O   0  0  0  0  0  0  0  0  0  0  0  0
    6.0777   47.7883   -3.3343 Cl  0  0  0  0  0  0  0  0  0  0  0  0
    5.7721   47.4257   -6.5167 O   0  0  0  0  0  0  0  0  0  0  0  0
    1.8123   53.7204   -7.1024 O   0  0  0  0  0  0  0  0  0  0  0  0
    0.1707   50.4491   -2.7929 H   0  0  0  0  0  0  0  0  0  0  0  0
    5.2271   49.5326    0.0724 H   0  0  0  0  0  0  0  0  0  0  0  0
  1  2  1  0  0  0
  1 19  1  0  0  0
  1 20  2  0  0  0
  2  3  2  0  0  0
  2  7  1  0  0  0
  3  4  1  0  0  0
  3 21  1  0  0  0
  4  5  2  0  0  0
  5  6  1  0  0  0
  5 22  1  0  0  0
  6  7  2  0  0  0
  6 23  1  0  0  0
  7  8  1  0  0  0
  8  9  1  0  0  0
  9 10  1  0  0  0
  9 24  2  0  0  0
 10 11  2  0  0  0
 11 12  1  0  0  0
 12 13  2  0  0  0
 13 14  1  0  0  0
 14 15  1  0  0  0
 14 25  1  0  0  0
 15 16  1  0  0  0
 15 25  1  0  0  0
 16 17  1  0  0  0
 17 18  1  0  0  0
 17 19  1  0  0  0
 21 26  1  0  0  0
 22 27  1  0  0  0
M  END
> <minimizedAffinity>
-7.28637

$$$$
2WER_RDC_A_1215


 27 29  0  0  0  0  0  0  0  0999 V2000
    2.5017   54.5604   -6.7481 C   0  0  0  0  0  0  0  0  0  0  0  0
    2.1034   53.2223   -7.2258 C   0  0  0  0  0  0  0  0  0  0  0  0
    0.6670   53.0176   -7.5901 C   0  0  0  0  0  0  0  0  0  0  0  0
    0.2822   51.7225   -7.9961 C   0  0  0  0  0  0  0  0  0  0  0  0
    1.1673   50.6232   -8.0355 C   0  0  0  0  0  0  0  0  0  0  0  0
    2.5781   50.7998   -7.6579 C   0  0  0  0  0  0  0  0  0  0  0  0
    3.0551   52.1099   -7.2151 C   0  0  0  0  0  0  0  0  0  0  0  0
    4.5315   52.2795   -6.8713 C   0  0  0  0  0  0  0  0  0  0  0  0
    5.1498   51.2910   -5.9228 C   0  0  0  0  0  0  0  0  0  0  0  0
    4.5644   50.9689   -4.6015 C   0  0  0  0  0  0  0  0  0  0  0  0
    3.6792   51.7986   -4.0471 C   0  0  0  0  0  0  0  0  0  0  0  0
    3.1206   51.5419   -2.7111 C   0  0  0  0  0  0  0  0  0  0  0  0
    2.3145   52.4350   -2.1107 C   0  0  0  0  0  0  0  0  0  0  0  0
    1.8482   53.7116   -2.7687 C   0  0  0  0  0  0  0  0  0  0  0  0
    2.8669   54.8583   -2.7091 C   0  0  0  0  0  0  0  0  0  0  0  0
    2.6753   56.0016   -3.7123 C   0  0  0  0  0  0  0  0  0  0  0  0
    3.5138   55.7964   -4.9921 C   0  0  0  0  0  0  0  0  0  0  0  0
    4.9983   55.7382   -4.7149 C   0  0  0  0  0  0  0  0  0  0  0  0
    3.1899   54.5016   -5.4863 O   0  0  0  0  0  0  0  0  0  0  0  0
    2.2170   55.5872   -7.2714 O   0  0  0  0  0  0  0  0  0  0  0  0
   -0.1433   54.1070   -7.5714 O   0  0  0  0  0  0  0  0  0  0  0  0
    0.7902   49.3840   -8.4033 O   0  0  0  0  0  0  0  0  0  0  0  0
    3.7193   49.4988   -7.8022 Cl  0  0  0  0  0  0  0  0  0  0  0  0
    6.2159   50.8099   -6.2526 O   0  0  0  0  0  0  0  0  0  0  0  0
    1.7049   54.7893   -1.8412 O   0  0  0  0  0  0  0  0  0  0  0  0
    0.1910   54.9348   -7.2868 H   0  0  0  0  0  0  0  0  0  0  0  0
   -0.0977   49.2193   -8.6530 H   0  0  0  0  0  0  0  0  0  0  0  0
  1  2  1  0  0  0
  1 19  1  0  0  0
  1 20  2  0  0  0
  2  3  2  0  0  0
  2  7  1  0  0  0
  3  4  1  0  0  0
  3 21  1  0  0  0
  4  5  2  0  0  0
  5  6  1  0  0  0
  5 22  1  0  0  0
  6  7  2  0  0  0
  6 23  1  0  0  0
  7  8  1  0  0  0
  8  9  1  0  0  0
  9 10  1  0  0  0
  9 24  2  0  0  0
 10 11  2  0  0  0
 11 12  1  0  0  0
 12 13  2  0  0  0
 13 14  1  0  0  0
 14 15  1  0  0  0
 14 25  1  0  0  0
 15 16  1  0  0  0
 15 25  1  0  0  0
 16 17  1  0  0  0
 17 18  1  0  0  0
 17 19  1  0  0  0
 21 26  1  0  0  0
 22 27  1  0  0  0
M  END
> <minimizedAffinity>
-7.06148

$$$$
2WER_RDC_A_1215


 27 29  0  0  0  0  0  0  0  0999 V2000
    3.9603   51.7821   -4.2362 C   0  0  0  0  0  0  0  0  0  0  0  0
    3.4976   52.7751   -3.2477 C   0  0  0  0  0  0  0  0  0  0  0  0
    2.5735   52.3002   -2.1714 C   0  0  0  0  0  0  0  0  0  0  0  0
    2.0934   53.2648   -1.2608 C   0  0  0  0  0  0  0  0  0  0  0  0
    2.4094   54.6384   -1.3423 C   0  0  0  0  0  0  0  0  0  0  0  0
    3.2975   55.1279   -2.4081 C   0  0  0  0  0  0  0  0  0  0  0  0
    3.8297   54.1928   -3.3993 C   0  0  0  0  0  0  0  0  0  0  0  0
    4.7838   54.7157   -4.4684 C   0  0  0  0  0  0  0  0  0  0  0  0
    4.3645   55.9279   -5.2518 C   0  0  0  0  0  0  0  0  0  0  0  0
    3.0552   56.0313   -5.9352 C   0  0  0  0  0  0  0  0  0  0  0  0
    2.3505   54.9280   -6.1911 C   0  0  0  0  0  0  0  0  0  0  0  0
    1.0742   54.9855   -6.9195 C   0  0  0  0  0  0  0  0  0  0  0  0
    0.4227   53.8631   -7.2714 C   0  0  0  0  0  0  0  0  0  0  0  0
    0.8819   52.4771   -6.8864 C   0  0  0  0  0  0  0  0  0  0  0  0
    1.9851   51.9069   -7.7885 C   0  0  0  0  0  0  0  0  0  0  0  0
    2.8047   50.7423   -7.2207 C   0  0  0  0  0  0  0  0  0  0  0  0
    4.1031   51.2252   -6.5396 C   0  0  0  0  0  0  0  0  0  0  0  0
    5.0264   51.9517   -7.4903 C   0  0  0  0  0  0  0  0  0  0  0  0
    3.7197   52.2116   -5.5878 O   0  0  0  0  0  0  0  0  0  0  0  0
    4.3934   50.7078   -3.9767 O   0  0  0  0  0  0  0  0  0  0  0  0
    2.3218   50.9674   -2.1076 O   0  0  0  0  0  0  0  0  0  0  0  0
    1.9314   55.5586   -0.4833 O   0  0  0  0  0  0  0  0  0  0  0  0
    3.7978   56.7896   -2.4721 Cl  0  0  0  0  0  0  0  0  0  0  0  0
    5.1889   56.8124   -5.3734 O   0  0  0  0  0  0  0  0  0  0  0  0
    0.5944   51.5023   -7.8910 O   0  0  0  0  0  0  0  0  0  0  0  0
    2.6798   50.3915   -2.7543 H   0  0  0  0  0  0  0  0  0  0  0  0
    1.3616   55.2979    0.2134 H   0  0  0  0  0  0  0  0  0  0  0  0
  1  2  1  0  0  0
  1 19  1  0  0  0
  1 20  2  0  0  0
  2  3  2  0  0  0
  2  7  1  0  0  0
  3  4  1  0  0  0
  3 21  1  0  0  0
  4  5  2  0  0  0
  5  6  1  0  0  0
  5 22  1  0  0  0
  6  7  2  0  0  0
  6 23  1  0  0  0
  7  8  1  0  0  0
  8  9  1  0  0  0
  9 10  1  0  0  0
  9 24  2  0  0  0
 10 11  2  0  0  0
 11 12  1  0  0  0
 12 13  2  0  0  0
 13 14  1  0  0  0
 14 15  1  0  0  0
 14 25  1  0  0  0
 15 16  1  0  0  0
 15 25  1  0  0  0
 16 17  1  0  0  0
 17 18  1  0  0  0
 17 19  1  0  0  0
 21 26  1  0  0  0
 22 27  1  0  0  0
M  END
> <minimizedAffinity>
-6.93559

$$$$
2WER_RDC_A_1215


 27 29  0  0  0  0  0  0  0  0999 V2000
    1.9565   52.6953   -3.8429 C   0  0  0  0  0  0  0  0  0  0  0  0
    2.2713   51.5327   -2.9906 C   0  0  0  0  0  0  0  0  0  0  0  0
    3.3685   51.6891   -1.9858 C   0  0  0  0  0  0  0  0  0  0  0  0
    3.6997   50.5581   -1.2103 C   0  0  0  0  0  0  0  0  0  0  0  0
    3.0800   49.2989   -1.3648 C   0  0  0  0  0  0  0  0  0  0  0  0
    2.0155   49.1197   -2.3641 C   0  0  0  0  0  0  0  0  0  0  0  0
    1.6201   50.2411   -3.2163 C   0  0  0  0  0  0  0  0  0  0  0  0
    0.4836   50.0438   -4.2144 C   0  0  0  0  0  0  0  0  0  0  0  0
    0.5524   48.8545   -5.1308 C   0  0  0  0  0  0  0  0  0  0  0  0
    1.7409   48.5424   -5.9568 C   0  0  0  0  0  0  0  0  0  0  0  0
    2.6483   49.4895   -6.1996 C   0  0  0  0  0  0  0  0  0  0  0  0
    3.8111   49.2336   -7.0630 C   0  0  0  0  0  0  0  0  0  0  0  0
    4.6626   50.2202   -7.3937 C   0  0  0  0  0  0  0  0  0  0  0  0
    4.5590   51.6267   -6.8543 C   0  0  0  0  0  0  0  0  0  0  0  0
    3.5358   52.5068   -7.5854 C   0  0  0  0  0  0  0  0  0  0  0  0
    3.0488   53.7570   -6.8435 C   0  0  0  0  0  0  0  0  0  0  0  0
    1.7402   53.4971   -6.0669 C   0  0  0  0  0  0  0  0  0  0  0  0
    0.5988   53.0835   -6.9671 C   0  0  0  0  0  0  0  0  0  0  0  0
    1.9763   52.3616   -5.2420 O   0  0  0  0  0  0  0  0  0  0  0  0
    1.7978   53.8059   -3.4551 O   0  0  0  0  0  0  0  0  0  0  0  0
    3.9151   52.9241   -1.8452 O   0  0  0  0  0  0  0  0  0  0  0  0
    3.4144   48.2168   -0.6367 O   0  0  0  0  0  0  0  0  0  0  0  0
    1.1542   47.6182   -2.5041 Cl  0  0  0  0  0  0  0  0  0  0  0  0
   -0.4556   48.1832   -5.2321 O   0  0  0  0  0  0  0  0  0  0  0  0
    4.9672   52.6130   -7.8045 O   0  0  0  0  0  0  0  0  0  0  0  0
    3.6391   53.6248   -2.4027 H   0  0  0  0  0  0  0  0  0  0  0  0
    4.0867   48.2787    0.0131 H   0  0  0  0  0  0  0  0  0  0  0  0
  1  2  1  0  0  0
  1 19  1  0  0  0
  1 20  2  0  0  0
  2  3  2  0  0  0
  2  7  1  0  0  0
  3  4  1  0  0  0
  3 21  1  0  0  0
  4  5  2  0  0  0
  5  6  1  0  0  0
  5 22  1  0  0  0
  6  7  2  0  0  0
  6 23  1  0  0  0
  7  8  1  0  0  0
  8  9  1  0  0  0
  9 10  1  0  0  0
  9 24  2  0  0  0
 10 11  2  0  0  0
 11 12  1  0  0  0
 12 13  2  0  0  0
 13 14  1  0  0  0
 14 15  1  0  0  0
 14 25  1  0  0  0
 15 16  1  0  0  0
 15 25  1  0  0  0
 16 17  1  0  0  0
 17 18  1  0  0  0
 17 19  1  0  0  0
 21 26  1  0  0  0
 22 27  1  0  0  0
M  END
> <minimizedAffinity>
-6.82130

$$$$
