4M8Y_KGQ_A_201


 51 54  0  0  0  0  0  0  0  0999 V2000
  -12.1206   52.5936    3.8487 C   0  0  0  0  0  0  0  0  0  0  0  0
  -11.8378   52.4180    2.4275 N   0  0  0  0  0  0  0  0  0  0  0  0
  -12.4726   53.0794    1.4677 C   0  0  0  0  0  0  0  0  0  0  0  0
  -13.3564   53.9086    1.6804 O   0  0  0  0  0  0  0  0  0  0  0  0
  -11.1392   51.7750    2.1671 H   0  0  0  0  0  0  0  0  0  0  0  0
  -12.0581   52.8129    0.2018 O   0  0  0  0  0  0  0  0  0  0  0  0
  -13.2840   51.3918   -1.3287 C   0  0  0  0  0  0  0  0  0  0  0  0
  -13.0560   52.8118   -0.8194 C   0  0  0  0  0  0  0  0  0  0  0  0
  -12.3859   53.4655   -1.9963 C   0  0  0  0  0  0  0  0  0  0  0  0
  -11.5052   52.4577   -2.5472 O   0  0  0  0  0  0  0  0  0  0  0  0
  -12.1697   51.1699   -2.3711 C   0  0  0  0  0  0  0  0  0  0  0  0
  -11.2424   50.2268   -1.7578 O   0  0  0  0  0  0  0  0  0  0  0  0
  -12.0587   49.3742   -0.9231 C   0  0  0  0  0  0  0  0  0  0  0  0
  -13.0057   50.3514   -0.2416 C   0  0  0  0  0  0  0  0  0  0  0  0
  -11.2462   53.7442    4.3582 C   0  0  0  0  0  0  0  0  0  0  0  0
   -9.9345   53.5854    3.8202 O   0  0  0  0  0  0  0  0  0  0  0  0
   -9.5573   52.7472    4.1299 H   0  0  0  0  0  0  0  0  0  0  0  0
  -11.1350   53.7829    5.8781 C   0  0  0  0  0  0  0  0  0  0  0  0
  -11.9609   54.8415    6.4875 N   0  0  0  0  0  0  0  0  0  0  0  0
  -12.9683   54.1440    7.5571 S   0  0  0  0  0  0  0  0  0  0  0  0
  -12.5814   52.7060    7.7555 O   0  0  0  0  0  0  0  0  0  0  0  0
  -14.3811   54.2212    7.0386 O   0  0  0  0  0  0  0  0  0  0  0  0
  -12.8597   55.0300    9.0825 C   0  0  0  0  0  0  0  0  0  0  0  0
  -13.0376   56.4138    9.0966 C   0  0  0  0  0  0  0  0  0  0  0  0
  -12.9362   57.1302   10.2838 C   0  0  0  0  0  0  0  0  0  0  0  0
  -12.6530   56.4553   11.4674 C   0  0  0  0  0  0  0  0  0  0  0  0
  -12.4712   55.0765   11.4597 C   0  0  0  0  0  0  0  0  0  0  0  0
  -12.5761   54.3647   10.2710 C   0  0  0  0  0  0  0  0  0  0  0  0
  -12.5532   57.1360   12.6367 O   0  0  0  0  0  0  0  0  0  0  0  0
  -13.7989   57.7185   13.0238 C   0  0  0  0  0  0  0  0  0  0  0  0
  -12.7522   55.5702    5.4882 C   0  0  0  0  0  0  0  0  0  0  0  0
  -12.4616   57.0576    5.5803 C   0  0  0  0  0  0  0  0  0  0  0  0
  -11.5902   57.5330    4.4302 C   0  0  0  0  0  0  0  0  0  0  0  0
  -13.7727   57.8193    5.5760 C   0  0  0  0  0  0  0  0  0  0  0  0
  -11.8250   51.2613    4.5549 C   0  0  0  0  0  0  0  0  0  0  0  0
  -12.4744   50.0739    3.8276 C   0  0  0  0  0  0  0  0  0  0  0  0
  -11.6912   49.0732    3.2746 C   0  0  0  0  0  0  0  0  0  0  0  0
  -12.2981   48.0038    2.6148 C   0  0  0  0  0  0  0  0  0  0  0  0
  -13.6810   47.9261    2.4961 C   0  0  0  0  0  0  0  0  0  0  0  0
  -14.4608   48.9369    3.0440 C   0  0  0  0  0  0  0  0  0  0  0  0
  -13.8585   50.0004    3.7038 C   0  0  0  0  0  0  0  0  0  0  0  0
  -14.2600   46.8677    1.8634 O   0  0  0  0  0  0  0  0  0  0  0  0
  -14.8541   47.3249    0.6236 C   0  0  0  0  0  0  0  0  0  0  0  0
  -14.7541   46.1173   -0.7734 P   0  0  0  0  0  0  0  0  0  0  0  0
  -13.7335   44.9094   -0.3422 O   0  0  0  0  0  0  0  0  0  0  0  0
  -16.1846   45.4632   -1.0428 O   0  0  0  0  0  0  0  0  0  0  0  0
  -17.1897   45.6217   -0.0321 C   0  0  0  0  0  0  0  0  0  0  0  0
  -18.3915   46.3938   -0.5773 C   0  0  0  0  0  0  0  0  0  0  0  0
  -14.0551   46.8306   -2.0567 O   0  0  0  0  0  0  0  0  0  0  0  0
  -14.7787   47.1768   -3.2147 C   0  0  0  0  0  0  0  0  0  0  0  0
  -15.1035   48.6689   -3.1549 C   0  0  0  0  0  0  0  0  0  0  0  0
  2  1  1  0  0  0
  2  3  1  0  0  0
  7 14  1  0  0  0
  7  8  1  0  0  0
  7 11  1  0  0  0
 42 43  1  0  0  0
 42 39  1  0  0  0
  1 35  1  0  0  0
  1 15  1  0  0  0
 35 36  1  0  0  0
 36 37  2  0  0  0
 36 41  1  0  0  0
 37 38  1  0  0  0
 38 39  2  0  0  0
 39 40  1  0  0  0
 43 44  1  0  0  0
 44 46  1  0  0  0
 44 49  1  0  0  0
 44 45  2  0  0  0
 49 50  1  0  0  0
 50 51  1  0  0  0
 46 47  1  0  0  0
 47 48  1  0  0  0
 40 41  2  0  0  0
 15 18  1  0  0  0
 15 16  1  0  0  0
 18 19  1  0  0  0
 19 20  1  0  0  0
 19 31  1  0  0  0
 31 32  1  0  0  0
 32 34  1  0  0  0
 32 33  1  0  0  0
 20 22  2  0  0  0
 20 23  1  0  0  0
 20 21  2  0  0  0
 23 28  2  0  0  0
 23 24  1  0  0  0
 24 25  2  0  0  0
 25 26  1  0  0  0
 26 29  1  0  0  0
 26 27  2  0  0  0
 29 30  1  0  0  0
 27 28  1  0  0  0
  3  4  2  0  0  0
  3  6  1  0  0  0
  6  8  1  0  0  0
  8  9  1  0  0  0
  9 10  1  0  0  0
 10 11  1  0  0  0
 11 12  1  0  0  0
 12 13  1  0  0  0
 13 14  1  0  0  0
  2  5  1  0  0  0
 16 17  1  0  0  0
M  END
> <minimizedAffinity>
-8.68027

$$$$
4M8Y_KGQ_A_201


 51 54  0  0  0  0  0  0  0  0999 V2000
  -12.0701   54.4767    4.2288 C   0  0  0  0  0  0  0  0  0  0  0  0
  -11.8040   54.6575    5.6526 N   0  0  0  0  0  0  0  0  0  0  0  0
  -12.4651   54.0157    6.6080 C   0  0  0  0  0  0  0  0  0  0  0  0
  -13.3616   53.2021    6.3887 O   0  0  0  0  0  0  0  0  0  0  0  0
  -11.0968   55.2888    5.9183 H   0  0  0  0  0  0  0  0  0  0  0  0
  -12.0633   54.2836    7.8777 O   0  0  0  0  0  0  0  0  0  0  0  0
  -13.3254   55.6705    9.4102 C   0  0  0  0  0  0  0  0  0  0  0  0
  -13.0669   54.2586    8.8931 C   0  0  0  0  0  0  0  0  0  0  0  0
  -12.3909   53.6103   10.0697 C   0  0  0  0  0  0  0  0  0  0  0  0
  -11.5332   54.6313   10.6322 O   0  0  0  0  0  0  0  0  0  0  0  0
  -12.2215   55.9071   10.4605 C   0  0  0  0  0  0  0  0  0  0  0  0
  -11.3093   56.8720    9.8588 O   0  0  0  0  0  0  0  0  0  0  0  0
  -12.1373   57.7141    9.0248 C   0  0  0  0  0  0  0  0  0  0  0  0
  -13.0611   56.7232    8.3315 C   0  0  0  0  0  0  0  0  0  0  0  0
  -11.1642   53.3477    3.7261 C   0  0  0  0  0  0  0  0  0  0  0  0
   -9.8540   53.5538    4.2513 O   0  0  0  0  0  0  0  0  0  0  0  0
   -9.5056   54.3995    3.9284 H   0  0  0  0  0  0  0  0  0  0  0  0
  -11.0638   53.2938    2.2059 C   0  0  0  0  0  0  0  0  0  0  0  0
  -11.9367   52.2663    1.6088 N   0  0  0  0  0  0  0  0  0  0  0  0
  -12.9716   53.0081    0.5967 S   0  0  0  0  0  0  0  0  0  0  0  0
  -12.6153   54.4631    0.4832 O   0  0  0  0  0  0  0  0  0  0  0  0
  -14.3757   52.8705    1.1263 O   0  0  0  0  0  0  0  0  0  0  0  0
  -12.8659   52.2204   -0.9819 C   0  0  0  0  0  0  0  0  0  0  0  0
  -12.6892   52.9902   -2.1322 C   0  0  0  0  0  0  0  0  0  0  0  0
  -12.6237   52.3899   -3.3845 C   0  0  0  0  0  0  0  0  0  0  0  0
  -12.7373   51.0067   -3.4864 C   0  0  0  0  0  0  0  0  0  0  0  0
  -12.9172   50.2340   -2.3440 C   0  0  0  0  0  0  0  0  0  0  0  0
  -12.9794   50.8384   -1.0945 C   0  0  0  0  0  0  0  0  0  0  0  0
  -12.6728   50.4019   -4.6990 O   0  0  0  0  0  0  0  0  0  0  0  0
  -13.7699   49.5119   -4.9113 C   0  0  0  0  0  0  0  0  0  0  0  0
  -12.7023   51.5325    2.6243 C   0  0  0  0  0  0  0  0  0  0  0  0
  -12.4972   50.0383    2.4494 C   0  0  0  0  0  0  0  0  0  0  0  0
  -11.8641   49.4094    3.6789 C   0  0  0  0  0  0  0  0  0  0  0  0
  -13.8369   49.3837    2.1737 C   0  0  0  0  0  0  0  0  0  0  0  0
  -11.7999   55.8165    3.5264 C   0  0  0  0  0  0  0  0  0  0  0  0
  -12.4364   56.9942    4.2802 C   0  0  0  0  0  0  0  0  0  0  0  0
  -13.8125   57.0788    4.4212 C   0  0  0  0  0  0  0  0  0  0  0  0
  -14.3735   58.1573    5.1062 C   0  0  0  0  0  0  0  0  0  0  0  0
  -13.5737   59.1571    5.6479 C   0  0  0  0  0  0  0  0  0  0  0  0
  -12.1955   59.0722    5.4955 C   0  0  0  0  0  0  0  0  0  0  0  0
  -11.6353   57.9978    4.8165 C   0  0  0  0  0  0  0  0  0  0  0  0
  -14.1346   60.1955    6.3282 O   0  0  0  0  0  0  0  0  0  0  0  0
  -15.0617   59.6718    7.3106 C   0  0  0  0  0  0  0  0  0  0  0  0
  -15.1262   60.6211    8.8964 P   0  0  0  0  0  0  0  0  0  0  0  0
  -14.7200   59.6111   10.1218 O   0  0  0  0  0  0  0  0  0  0  0  0
  -14.0565   61.8052    8.8763 O   0  0  0  0  0  0  0  0  0  0  0  0
  -12.8426   61.6178    9.6167 C   0  0  0  0  0  0  0  0  0  0  0  0
  -11.7038   61.1852    8.6927 C   0  0  0  0  0  0  0  0  0  0  0  0
  -16.6607   61.0660    9.1991 O   0  0  0  0  0  0  0  0  0  0  0  0
  -17.4779   61.6695    8.2233 C   0  0  0  0  0  0  0  0  0  0  0  0
  -18.8807   61.0725    8.3297 C   0  0  0  0  0  0  0  0  0  0  0  0
  2  1  1  0  0  0
  2  3  1  0  0  0
  7 14  1  0  0  0
  7  8  1  0  0  0
  7 11  1  0  0  0
 42 43  1  0  0  0
 42 39  1  0  0  0
  1 35  1  0  0  0
  1 15  1  0  0  0
 35 36  1  0  0  0
 36 37  2  0  0  0
 36 41  1  0  0  0
 37 38  1  0  0  0
 38 39  2  0  0  0
 39 40  1  0  0  0
 43 44  1  0  0  0
 44 46  1  0  0  0
 44 49  1  0  0  0
 44 45  2  0  0  0
 49 50  1  0  0  0
 50 51  1  0  0  0
 46 47  1  0  0  0
 47 48  1  0  0  0
 40 41  2  0  0  0
 15 18  1  0  0  0
 15 16  1  0  0  0
 18 19  1  0  0  0
 19 20  1  0  0  0
 19 31  1  0  0  0
 31 32  1  0  0  0
 32 34  1  0  0  0
 32 33  1  0  0  0
 20 22  2  0  0  0
 20 23  1  0  0  0
 20 21  2  0  0  0
 23 28  2  0  0  0
 23 24  1  0  0  0
 24 25  2  0  0  0
 25 26  1  0  0  0
 26 29  1  0  0  0
 26 27  2  0  0  0
 29 30  1  0  0  0
 27 28  1  0  0  0
  3  4  2  0  0  0
  3  6  1  0  0  0
  6  8  1  0  0  0
  8  9  1  0  0  0
  9 10  1  0  0  0
 10 11  1  0  0  0
 11 12  1  0  0  0
 12 13  1  0  0  0
 13 14  1  0  0  0
  2  5  1  0  0  0
 16 17  1  0  0  0
M  END
> <minimizedAffinity>
-8.39494

$$$$
4M8Y_KGQ_A_201


 51 54  0  0  0  0  0  0  0  0999 V2000
  -12.8249   51.1443   -1.0264 C   0  0  0  0  0  0  0  0  0  0  0  0
  -13.2866   50.4964   -2.2502 N   0  0  0  0  0  0  0  0  0  0  0  0
  -12.7419   50.7097   -3.4416 C   0  0  0  0  0  0  0  0  0  0  0  0
  -11.7920   51.4683   -3.6314 O   0  0  0  0  0  0  0  0  0  0  0  0
  -14.0421   49.8681   -2.1886 H   0  0  0  0  0  0  0  0  0  0  0  0
  -13.2793   49.9973   -4.4658 O   0  0  0  0  0  0  0  0  0  0  0  0
  -15.1036   48.4265   -4.7291 C   0  0  0  0  0  0  0  0  0  0  0  0
  -14.7020   49.8798   -4.4962 C   0  0  0  0  0  0  0  0  0  0  0  0
  -15.1022   50.5295   -5.7921 C   0  0  0  0  0  0  0  0  0  0  0  0
  -14.7792   49.5658   -6.8224 O   0  0  0  0  0  0  0  0  0  0  0  0
  -15.0225   48.2418   -6.2578 C   0  0  0  0  0  0  0  0  0  0  0  0
  -13.8579   47.3958   -6.4884 O   0  0  0  0  0  0  0  0  0  0  0  0
  -13.7844   46.5226   -5.3385 C   0  0  0  0  0  0  0  0  0  0  0  0
  -14.0608   47.4566   -4.1692 C   0  0  0  0  0  0  0  0  0  0  0  0
  -12.3542   50.0455   -0.0676 C   0  0  0  0  0  0  0  0  0  0  0  0
  -11.0476   49.6316   -0.4636 O   0  0  0  0  0  0  0  0  0  0  0  0
  -11.0823   49.2671   -1.3618 H   0  0  0  0  0  0  0  0  0  0  0  0
  -13.2618   48.8207   -0.0702 C   0  0  0  0  0  0  0  0  0  0  0  0
  -14.1098   48.7319    1.1328 N   0  0  0  0  0  0  0  0  0  0  0  0
  -13.1616   48.3276    2.3911 S   0  0  0  0  0  0  0  0  0  0  0  0
  -11.8414   47.8167    1.8881 O   0  0  0  0  0  0  0  0  0  0  0  0
  -13.8408   47.2581    3.2070 O   0  0  0  0  0  0  0  0  0  0  0  0
  -12.9275   49.7635    3.3945 C   0  0  0  0  0  0  0  0  0  0  0  0
  -14.0085   50.3124    4.0853 C   0  0  0  0  0  0  0  0  0  0  0  0
  -13.8477   51.4531    4.8636 C   0  0  0  0  0  0  0  0  0  0  0  0
  -12.5938   52.0504    4.9505 C   0  0  0  0  0  0  0  0  0  0  0  0
  -11.5130   51.5103    4.2617 C   0  0  0  0  0  0  0  0  0  0  0  0
  -11.6782   50.3686    3.4871 C   0  0  0  0  0  0  0  0  0  0  0  0
  -12.4159   53.1621    5.7074 O   0  0  0  0  0  0  0  0  0  0  0  0
  -11.9596   52.8451    7.0234 C   0  0  0  0  0  0  0  0  0  0  0  0
  -15.1704   47.7267    0.9893 C   0  0  0  0  0  0  0  0  0  0  0  0
  -14.8978   46.8545   -0.2233 C   0  0  0  0  0  0  0  0  0  0  0  0
  -14.4908   45.4465    0.1762 C   0  0  0  0  0  0  0  0  0  0  0  0
  -16.1448   46.8004   -1.0844 C   0  0  0  0  0  0  0  0  0  0  0  0
  -13.9921   51.9691   -0.4621 C   0  0  0  0  0  0  0  0  0  0  0  0
  -13.5230   52.9573    0.6167 C   0  0  0  0  0  0  0  0  0  0  0  0
  -14.3798   53.3491    1.6331 C   0  0  0  0  0  0  0  0  0  0  0  0
  -13.9377   54.2501    2.6028 C   0  0  0  0  0  0  0  0  0  0  0  0
  -12.6488   54.7693    2.5646 C   0  0  0  0  0  0  0  0  0  0  0  0
  -11.7972   54.3805    1.5382 C   0  0  0  0  0  0  0  0  0  0  0  0
  -12.2345   53.4814    0.5740 C   0  0  0  0  0  0  0  0  0  0  0  0
  -12.2259   55.6354    3.5274 O   0  0  0  0  0  0  0  0  0  0  0  0
  -13.3628   56.3849    4.0220 C   0  0  0  0  0  0  0  0  0  0  0  0
  -13.0708   57.2683    5.6202 P   0  0  0  0  0  0  0  0  0  0  0  0
  -14.4161   58.1282    5.9903 O   0  0  0  0  0  0  0  0  0  0  0  0
  -12.8340   56.2177    6.7979 O   0  0  0  0  0  0  0  0  0  0  0  0
  -13.0351   56.6705    8.1438 C   0  0  0  0  0  0  0  0  0  0  0  0
  -12.1250   55.9153    9.1128 C   0  0  0  0  0  0  0  0  0  0  0  0
  -11.8966   58.3753    5.4202 O   0  0  0  0  0  0  0  0  0  0  0  0
  -11.9648   59.6599    5.9942 C   0  0  0  0  0  0  0  0  0  0  0  0
  -11.1375   59.6610    7.2791 C   0  0  0  0  0  0  0  0  0  0  0  0
  2  1  1  0  0  0
  2  3  1  0  0  0
  7 14  1  0  0  0
  7  8  1  0  0  0
  7 11  1  0  0  0
 42 43  1  0  0  0
 42 39  1  0  0  0
  1 35  1  0  0  0
  1 15  1  0  0  0
 35 36  1  0  0  0
 36 37  2  0  0  0
 36 41  1  0  0  0
 37 38  1  0  0  0
 38 39  2  0  0  0
 39 40  1  0  0  0
 43 44  1  0  0  0
 44 46  1  0  0  0
 44 49  1  0  0  0
 44 45  2  0  0  0
 49 50  1  0  0  0
 50 51  1  0  0  0
 46 47  1  0  0  0
 47 48  1  0  0  0
 40 41  2  0  0  0
 15 18  1  0  0  0
 15 16  1  0  0  0
 18 19  1  0  0  0
 19 20  1  0  0  0
 19 31  1  0  0  0
 31 32  1  0  0  0
 32 34  1  0  0  0
 32 33  1  0  0  0
 20 22  2  0  0  0
 20 23  1  0  0  0
 20 21  2  0  0  0
 23 28  2  0  0  0
 23 24  1  0  0  0
 24 25  2  0  0  0
 25 26  1  0  0  0
 26 29  1  0  0  0
 26 27  2  0  0  0
 29 30  1  0  0  0
 27 28  1  0  0  0
  3  4  2  0  0  0
  3  6  1  0  0  0
  6  8  1  0  0  0
  8  9  1  0  0  0
  9 10  1  0  0  0
 10 11  1  0  0  0
 11 12  1  0  0  0
 12 13  1  0  0  0
 13 14  1  0  0  0
  2  5  1  0  0  0
 16 17  1  0  0  0
M  END
> <minimizedAffinity>
-8.22089

$$$$
4M8Y_KGQ_A_201


 51 54  0  0  0  0  0  0  0  0999 V2000
  -14.1873   55.2662    3.7864 C   0  0  0  0  0  0  0  0  0  0  0  0
  -13.9165   56.1578    4.9099 N   0  0  0  0  0  0  0  0  0  0  0  0
  -13.9955   57.4803    4.8302 C   0  0  0  0  0  0  0  0  0  0  0  0
  -14.3099   58.0844    3.8055 O   0  0  0  0  0  0  0  0  0  0  0  0
  -13.6619   55.7571    5.7723 H   0  0  0  0  0  0  0  0  0  0  0  0
  -13.7400   58.1515    5.9833 O   0  0  0  0  0  0  0  0  0  0  0  0
  -12.9340   60.3502    6.6005 C   0  0  0  0  0  0  0  0  0  0  0  0
  -14.0848   59.5367    6.0161 C   0  0  0  0  0  0  0  0  0  0  0  0
  -15.1238   59.6368    7.0987 C   0  0  0  0  0  0  0  0  0  0  0  0
  -14.3910   59.5622    8.3445 O   0  0  0  0  0  0  0  0  0  0  0  0
  -13.1138   60.2351    8.1276 C   0  0  0  0  0  0  0  0  0  0  0  0
  -12.0297   59.3748    8.5856 O   0  0  0  0  0  0  0  0  0  0  0  0
  -10.9236   59.6447    7.6945 C   0  0  0  0  0  0  0  0  0  0  0  0
  -11.5805   59.6926    6.3226 C   0  0  0  0  0  0  0  0  0  0  0  0
  -14.5728   53.8987    4.3604 C   0  0  0  0  0  0  0  0  0  0  0  0
  -15.9927   53.7716    4.3061 O   0  0  0  0  0  0  0  0  0  0  0  0
  -16.4003   54.4636    4.8501 H   0  0  0  0  0  0  0  0  0  0  0  0
  -14.1340   53.7128    5.8084 C   0  0  0  0  0  0  0  0  0  0  0  0
  -13.0673   52.7063    5.9605 N   0  0  0  0  0  0  0  0  0  0  0  0
  -11.7777   53.4341    6.6336 S   0  0  0  0  0  0  0  0  0  0  0  0
  -11.1818   54.4119    5.6610 O   0  0  0  0  0  0  0  0  0  0  0  0
  -10.7502   52.3944    6.9999 O   0  0  0  0  0  0  0  0  0  0  0  0
  -12.3109   54.2660    8.0989 C   0  0  0  0  0  0  0  0  0  0  0  0
  -12.3536   55.6603    8.1299 C   0  0  0  0  0  0  0  0  0  0  0  0
  -12.7513   56.3325    9.2800 C   0  0  0  0  0  0  0  0  0  0  0  0
  -13.1084   55.6025   10.4097 C   0  0  0  0  0  0  0  0  0  0  0  0
  -13.0646   54.2126   10.3865 C   0  0  0  0  0  0  0  0  0  0  0  0
  -12.6688   53.5453    9.2338 C   0  0  0  0  0  0  0  0  0  0  0  0
  -13.5023   56.2400   11.5406 O   0  0  0  0  0  0  0  0  0  0  0  0
  -13.9567   57.5680   11.2747 C   0  0  0  0  0  0  0  0  0  0  0  0
  -12.6704   52.1219    4.6734 C   0  0  0  0  0  0  0  0  0  0  0  0
  -12.8967   50.6206    4.6934 C   0  0  0  0  0  0  0  0  0  0  0  0
  -14.2371   50.2454    4.0847 C   0  0  0  0  0  0  0  0  0  0  0  0
  -11.7794   49.9413    3.9257 C   0  0  0  0  0  0  0  0  0  0  0  0
  -12.9236   55.2125    2.9138 C   0  0  0  0  0  0  0  0  0  0  0  0
  -13.0948   54.2608    1.7200 C   0  0  0  0  0  0  0  0  0  0  0  0
  -12.1465   54.2203    0.7101 C   0  0  0  0  0  0  0  0  0  0  0  0
  -12.3200   53.3519   -0.3684 C   0  0  0  0  0  0  0  0  0  0  0  0
  -13.4353   52.5264   -0.4521 C   0  0  0  0  0  0  0  0  0  0  0  0
  -14.3875   52.5779    0.5582 C   0  0  0  0  0  0  0  0  0  0  0  0
  -14.2149   53.4394    1.6339 C   0  0  0  0  0  0  0  0  0  0  0  0
  -13.5830   51.6719   -1.5028 O   0  0  0  0  0  0  0  0  0  0  0  0
  -12.3796   50.8769   -1.6388 C   0  0  0  0  0  0  0  0  0  0  0  0
  -12.4812   49.1866   -0.8955 P   0  0  0  0  0  0  0  0  0  0  0  0
  -10.9729   48.5461   -0.8566 O   0  0  0  0  0  0  0  0  0  0  0  0
  -13.0038   49.2746    0.6098 O   0  0  0  0  0  0  0  0  0  0  0  0
  -13.8734   48.2330    1.0742 C   0  0  0  0  0  0  0  0  0  0  0  0
  -13.0672   47.0690    1.6510 C   0  0  0  0  0  0  0  0  0  0  0  0
  -13.3345   48.2128   -1.8793 O   0  0  0  0  0  0  0  0  0  0  0  0
  -13.8121   48.6388   -3.1342 C   0  0  0  0  0  0  0  0  0  0  0  0
  -15.3343   48.5038   -3.1444 C   0  0  0  0  0  0  0  0  0  0  0  0
  2  1  1  0  0  0
  2  3  1  0  0  0
  7 14  1  0  0  0
  7  8  1  0  0  0
  7 11  1  0  0  0
 42 43  1  0  0  0
 42 39  1  0  0  0
  1 35  1  0  0  0
  1 15  1  0  0  0
 35 36  1  0  0  0
 36 37  2  0  0  0
 36 41  1  0  0  0
 37 38  1  0  0  0
 38 39  2  0  0  0
 39 40  1  0  0  0
 43 44  1  0  0  0
 44 46  1  0  0  0
 44 49  1  0  0  0
 44 45  2  0  0  0
 49 50  1  0  0  0
 50 51  1  0  0  0
 46 47  1  0  0  0
 47 48  1  0  0  0
 40 41  2  0  0  0
 15 18  1  0  0  0
 15 16  1  0  0  0
 18 19  1  0  0  0
 19 20  1  0  0  0
 19 31  1  0  0  0
 31 32  1  0  0  0
 32 34  1  0  0  0
 32 33  1  0  0  0
 20 22  2  0  0  0
 20 23  1  0  0  0
 20 21  2  0  0  0
 23 28  2  0  0  0
 23 24  1  0  0  0
 24 25  2  0  0  0
 25 26  1  0  0  0
 26 29  1  0  0  0
 26 27  2  0  0  0
 29 30  1  0  0  0
 27 28  1  0  0  0
  3  4  2  0  0  0
  3  6  1  0  0  0
  6  8  1  0  0  0
  8  9  1  0  0  0
  9 10  1  0  0  0
 10 11  1  0  0  0
 11 12  1  0  0  0
 12 13  1  0  0  0
 13 14  1  0  0  0
  2  5  1  0  0  0
 16 17  1  0  0  0
M  END
> <minimizedAffinity>
-8.14348

$$$$
4M8Y_KGQ_A_201


 51 54  0  0  0  0  0  0  0  0999 V2000
  -12.0911   54.0174    4.2911 C   0  0  0  0  0  0  0  0  0  0  0  0
  -11.8406   54.4036    5.6763 N   0  0  0  0  0  0  0  0  0  0  0  0
  -12.4169   53.8136    6.7163 C   0  0  0  0  0  0  0  0  0  0  0  0
  -13.2131   52.8809    6.6166 O   0  0  0  0  0  0  0  0  0  0  0  0
  -11.2109   55.1405    5.8483 H   0  0  0  0  0  0  0  0  0  0  0  0
  -12.0427   54.2821    7.9352 O   0  0  0  0  0  0  0  0  0  0  0  0
  -13.2941   55.7753    9.3737 C   0  0  0  0  0  0  0  0  0  0  0  0
  -13.0491   54.3311    8.9468 C   0  0  0  0  0  0  0  0  0  0  0  0
  -12.3832   53.7508   10.1639 C   0  0  0  0  0  0  0  0  0  0  0  0
  -11.5162   54.7961   10.6643 O   0  0  0  0  0  0  0  0  0  0  0  0
  -12.1906   56.0657   10.4108 C   0  0  0  0  0  0  0  0  0  0  0  0
  -11.2666   56.9815    9.7529 O   0  0  0  0  0  0  0  0  0  0  0  0
  -12.0834   57.7783    8.8652 C   0  0  0  0  0  0  0  0  0  0  0  0
  -13.0158   56.7556    8.2321 C   0  0  0  0  0  0  0  0  0  0  0  0
  -11.1366   52.8687    3.9486 C   0  0  0  0  0  0  0  0  0  0  0  0
   -9.8476   53.4185    3.6821 O   0  0  0  0  0  0  0  0  0  0  0  0
   -9.9021   54.0156    2.9196 H   0  0  0  0  0  0  0  0  0  0  0  0
  -11.5754   52.0712    2.7257 C   0  0  0  0  0  0  0  0  0  0  0  0
  -13.0257   51.8064    2.7029 N   0  0  0  0  0  0  0  0  0  0  0  0
  -13.3072   50.4583    3.5683 S   0  0  0  0  0  0  0  0  0  0  0  0
  -14.6266   50.5764    4.2769 O   0  0  0  0  0  0  0  0  0  0  0  0
  -12.2048   50.2722    4.5787 O   0  0  0  0  0  0  0  0  0  0  0  0
  -13.3204   49.0802    2.4619 C   0  0  0  0  0  0  0  0  0  0  0  0
  -14.5351   48.5629    2.0106 C   0  0  0  0  0  0  0  0  0  0  0  0
  -14.5658   47.4669    1.1558 C   0  0  0  0  0  0  0  0  0  0  0  0
  -13.3697   46.8826    0.7500 C   0  0  0  0  0  0  0  0  0  0  0  0
  -12.1556   47.3912    1.1990 C   0  0  0  0  0  0  0  0  0  0  0  0
  -12.1301   48.4884    2.0512 C   0  0  0  0  0  0  0  0  0  0  0  0
  -13.3786   45.8145   -0.0864 O   0  0  0  0  0  0  0  0  0  0  0  0
  -14.0799   44.7031    0.4738 C   0  0  0  0  0  0  0  0  0  0  0  0
  -13.5317   51.6144    1.3380 C   0  0  0  0  0  0  0  0  0  0  0  0
  -12.5064   52.1041    0.3309 C   0  0  0  0  0  0  0  0  0  0  0  0
  -12.2101   51.0542   -0.7264 C   0  0  0  0  0  0  0  0  0  0  0  0
  -13.0272   53.3641   -0.3329 C   0  0  0  0  0  0  0  0  0  0  0  0
  -11.8727   55.2577    3.4107 C   0  0  0  0  0  0  0  0  0  0  0  0
  -12.4070   56.5334    4.0797 C   0  0  0  0  0  0  0  0  0  0  0  0
  -13.7676   56.7079    4.2772 C   0  0  0  0  0  0  0  0  0  0  0  0
  -14.2353   57.8745    4.8836 C   0  0  0  0  0  0  0  0  0  0  0  0
  -13.3575   58.8728    5.2903 C   0  0  0  0  0  0  0  0  0  0  0  0
  -11.9954   58.6968    5.0813 C   0  0  0  0  0  0  0  0  0  0  0  0
  -11.5279   57.5349    4.4807 C   0  0  0  0  0  0  0  0  0  0  0  0
  -13.8274   59.9990    5.8958 O   0  0  0  0  0  0  0  0  0  0  0  0
  -14.8485   59.6296    6.8550 C   0  0  0  0  0  0  0  0  0  0  0  0
  -14.9062   60.6888    8.3697 P   0  0  0  0  0  0  0  0  0  0  0  0
  -13.5268   61.5716    8.4376 O   0  0  0  0  0  0  0  0  0  0  0  0
  -16.1271   61.7128    8.2827 O   0  0  0  0  0  0  0  0  0  0  0  0
  -17.4517   61.1657    8.2279 C   0  0  0  0  0  0  0  0  0  0  0  0
  -18.0879   61.1424    9.6180 C   0  0  0  0  0  0  0  0  0  0  0  0
  -14.8751   59.7439    9.6927 O   0  0  0  0  0  0  0  0  0  0  0  0
  -14.4081   60.2054   10.9390 C   0  0  0  0  0  0  0  0  0  0  0  0
  -14.0498   58.9950   11.8005 C   0  0  0  0  0  0  0  0  0  0  0  0
  2  1  1  0  0  0
  2  3  1  0  0  0
  7 14  1  0  0  0
  7  8  1  0  0  0
  7 11  1  0  0  0
 42 43  1  0  0  0
 42 39  1  0  0  0
  1 35  1  0  0  0
  1 15  1  0  0  0
 35 36  1  0  0  0
 36 37  2  0  0  0
 36 41  1  0  0  0
 37 38  1  0  0  0
 38 39  2  0  0  0
 39 40  1  0  0  0
 43 44  1  0  0  0
 44 46  1  0  0  0
 44 49  1  0  0  0
 44 45  2  0  0  0
 49 50  1  0  0  0
 50 51  1  0  0  0
 46 47  1  0  0  0
 47 48  1  0  0  0
 40 41  2  0  0  0
 15 18  1  0  0  0
 15 16  1  0  0  0
 18 19  1  0  0  0
 19 20  1  0  0  0
 19 31  1  0  0  0
 31 32  1  0  0  0
 32 34  1  0  0  0
 32 33  1  0  0  0
 20 22  2  0  0  0
 20 23  1  0  0  0
 20 21  2  0  0  0
 23 28  2  0  0  0
 23 24  1  0  0  0
 24 25  2  0  0  0
 25 26  1  0  0  0
 26 29  1  0  0  0
 26 27  2  0  0  0
 29 30  1  0  0  0
 27 28  1  0  0  0
  3  4  2  0  0  0
  3  6  1  0  0  0
  6  8  1  0  0  0
  8  9  1  0  0  0
  9 10  1  0  0  0
 10 11  1  0  0  0
 11 12  1  0  0  0
 12 13  1  0  0  0
 13 14  1  0  0  0
  2  5  1  0  0  0
 16 17  1  0  0  0
M  END
> <minimizedAffinity>
-8.10134

$$$$
4M8Y_KGQ_A_201


 51 54  0  0  0  0  0  0  0  0999 V2000
  -13.2648   50.9644    3.6525 C   0  0  0  0  0  0  0  0  0  0  0  0
  -12.7293   51.7631    2.5543 N   0  0  0  0  0  0  0  0  0  0  0  0
  -13.0112   51.5343    1.2777 C   0  0  0  0  0  0  0  0  0  0  0  0
  -13.7549   50.6322    0.8943 O   0  0  0  0  0  0  0  0  0  0  0  0
  -12.1271   52.5109    2.7720 H   0  0  0  0  0  0  0  0  0  0  0  0
  -12.4489   52.3967    0.3914 O   0  0  0  0  0  0  0  0  0  0  0  0
  -13.4885   53.1820   -1.6500 C   0  0  0  0  0  0  0  0  0  0  0  0
  -13.2959   53.4087   -0.1536 C   0  0  0  0  0  0  0  0  0  0  0  0
  -12.4529   54.6539   -0.1288 C   0  0  0  0  0  0  0  0  0  0  0  0
  -11.5313   54.5175   -1.2363 O   0  0  0  0  0  0  0  0  0  0  0  0
  -12.2470   53.8231   -2.3023 C   0  0  0  0  0  0  0  0  0  0  0  0
  -11.4382   52.7093   -2.7826 O   0  0  0  0  0  0  0  0  0  0  0  0
  -12.3840   51.6810   -3.1545 C   0  0  0  0  0  0  0  0  0  0  0  0
  -13.3901   51.6986   -2.0128 C   0  0  0  0  0  0  0  0  0  0  0  0
  -13.4987   51.9042    4.8400 C   0  0  0  0  0  0  0  0  0  0  0  0
  -14.8088   52.4570    4.7256 O   0  0  0  0  0  0  0  0  0  0  0  0
  -14.8726   52.9704    3.9051 H   0  0  0  0  0  0  0  0  0  0  0  0
  -12.5006   53.0551    4.8973 C   0  0  0  0  0  0  0  0  0  0  0  0
  -13.0715   54.2816    5.4837 N   0  0  0  0  0  0  0  0  0  0  0  0
  -13.1854   55.3990    4.3072 S   0  0  0  0  0  0  0  0  0  0  0  0
  -14.4970   55.2490    3.5902 O   0  0  0  0  0  0  0  0  0  0  0  0
  -12.0514   55.2167    3.3316 O   0  0  0  0  0  0  0  0  0  0  0  0
  -13.0642   56.9995    5.0469 C   0  0  0  0  0  0  0  0  0  0  0  0
  -14.1217   57.4936    5.8114 C   0  0  0  0  0  0  0  0  0  0  0  0
  -14.0526   58.7583    6.3846 C   0  0  0  0  0  0  0  0  0  0  0  0
  -12.9151   59.5360    6.1898 C   0  0  0  0  0  0  0  0  0  0  0  0
  -11.8589   59.0507    5.4260 C   0  0  0  0  0  0  0  0  0  0  0  0
  -11.9317   57.7850    4.8574 C   0  0  0  0  0  0  0  0  0  0  0  0
  -12.8272   60.7713    6.7435 O   0  0  0  0  0  0  0  0  0  0  0  0
  -11.4830   61.1059    7.0928 C   0  0  0  0  0  0  0  0  0  0  0  0
  -12.2407   54.8135    6.5712 C   0  0  0  0  0  0  0  0  0  0  0  0
  -12.8838   54.5080    7.9123 C   0  0  0  0  0  0  0  0  0  0  0  0
  -14.3840   54.3061    7.7841 C   0  0  0  0  0  0  0  0  0  0  0  0
  -12.2486   53.2595    8.4928 C   0  0  0  0  0  0  0  0  0  0  0  0
  -12.2512   49.8518    3.9624 C   0  0  0  0  0  0  0  0  0  0  0  0
  -12.4589   48.6243    3.0621 C   0  0  0  0  0  0  0  0  0  0  0  0
  -13.5839   47.8278    3.2060 C   0  0  0  0  0  0  0  0  0  0  0  0
  -13.7545   46.7148    2.3817 C   0  0  0  0  0  0  0  0  0  0  0  0
  -12.8089   46.3849    1.4176 C   0  0  0  0  0  0  0  0  0  0  0  0
  -11.6784   47.1813    1.2841 C   0  0  0  0  0  0  0  0  0  0  0  0
  -11.5086   48.2912    2.1016 C   0  0  0  0  0  0  0  0  0  0  0  0
  -12.9969   45.3047    0.6091 O   0  0  0  0  0  0  0  0  0  0  0  0
  -14.4183   45.0703    0.4556 C   0  0  0  0  0  0  0  0  0  0  0  0
  -15.2083   45.9934   -0.9385 P   0  0  0  0  0  0  0  0  0  0  0  0
  -15.8173   44.9047   -2.0017 O   0  0  0  0  0  0  0  0  0  0  0  0
  -16.4272   46.8716   -0.4003 O   0  0  0  0  0  0  0  0  0  0  0  0
  -17.7452   46.5254   -0.8474 C   0  0  0  0  0  0  0  0  0  0  0  0
  -18.4925   45.7335    0.2260 C   0  0  0  0  0  0  0  0  0  0  0  0
  -14.0678   46.8065   -1.7646 O   0  0  0  0  0  0  0  0  0  0  0  0
  -14.1223   48.2016   -1.9522 C   0  0  0  0  0  0  0  0  0  0  0  0
  -15.0268   48.4945   -3.1487 C   0  0  0  0  0  0  0  0  0  0  0  0
  2  1  1  0  0  0
  2  3  1  0  0  0
  7 14  1  0  0  0
  7  8  1  0  0  0
  7 11  1  0  0  0
 42 43  1  0  0  0
 42 39  1  0  0  0
  1 35  1  0  0  0
  1 15  1  0  0  0
 35 36  1  0  0  0
 36 37  2  0  0  0
 36 41  1  0  0  0
 37 38  1  0  0  0
 38 39  2  0  0  0
 39 40  1  0  0  0
 43 44  1  0  0  0
 44 46  1  0  0  0
 44 49  1  0  0  0
 44 45  2  0  0  0
 49 50  1  0  0  0
 50 51  1  0  0  0
 46 47  1  0  0  0
 47 48  1  0  0  0
 40 41  2  0  0  0
 15 18  1  0  0  0
 15 16  1  0  0  0
 18 19  1  0  0  0
 19 20  1  0  0  0
 19 31  1  0  0  0
 31 32  1  0  0  0
 32 34  1  0  0  0
 32 33  1  0  0  0
 20 22  2  0  0  0
 20 23  1  0  0  0
 20 21  2  0  0  0
 23 28  2  0  0  0
 23 24  1  0  0  0
 24 25  2  0  0  0
 25 26  1  0  0  0
 26 29  1  0  0  0
 26 27  2  0  0  0
 29 30  1  0  0  0
 27 28  1  0  0  0
  3  4  2  0  0  0
  3  6  1  0  0  0
  6  8  1  0  0  0
  8  9  1  0  0  0
  9 10  1  0  0  0
 10 11  1  0  0  0
 11 12  1  0  0  0
 12 13  1  0  0  0
 13 14  1  0  0  0
  2  5  1  0  0  0
 16 17  1  0  0  0
M  END
> <minimizedAffinity>
-7.85958

$$$$
4M8Y_KGQ_A_201


 51 54  0  0  0  0  0  0  0  0999 V2000
  -12.2859   46.9938    1.0080 C   0  0  0  0  0  0  0  0  0  0  0  0
  -12.3418   48.3021    0.3631 N   0  0  0  0  0  0  0  0  0  0  0  0
  -11.3506   48.8026   -0.3640 C   0  0  0  0  0  0  0  0  0  0  0  0
  -10.2910   48.2124   -0.5711 O   0  0  0  0  0  0  0  0  0  0  0  0
  -13.1578   48.8417    0.4732 H   0  0  0  0  0  0  0  0  0  0  0  0
  -11.5879   50.0212   -0.9154 O   0  0  0  0  0  0  0  0  0  0  0  0
  -13.4378   51.3432   -1.7489 C   0  0  0  0  0  0  0  0  0  0  0  0
  -12.7958   50.6801   -0.5341 C   0  0  0  0  0  0  0  0  0  0  0  0
  -12.3363   51.8668    0.2673 C   0  0  0  0  0  0  0  0  0  0  0  0
  -11.8586   52.8268   -0.7047 O   0  0  0  0  0  0  0  0  0  0  0  0
  -12.7056   52.6933   -1.8861 C   0  0  0  0  0  0  0  0  0  0  0  0
  -11.8663   52.5645   -3.0712 O   0  0  0  0  0  0  0  0  0  0  0  0
  -12.5943   51.6904   -3.9635 C   0  0  0  0  0  0  0  0  0  0  0  0
  -13.1067   50.5936   -3.0412 C   0  0  0  0  0  0  0  0  0  0  0  0
  -13.6635   46.3405    0.8547 C   0  0  0  0  0  0  0  0  0  0  0  0
  -13.4920   45.0688    0.2315 O   0  0  0  0  0  0  0  0  0  0  0  0
  -13.1052   45.1900   -0.6497 H   0  0  0  0  0  0  0  0  0  0  0  0
  -14.6233   47.1622    0.0016 C   0  0  0  0  0  0  0  0  0  0  0  0
  -15.4832   46.3294   -0.8593 N   0  0  0  0  0  0  0  0  0  0  0  0
  -14.8572   46.3397   -2.3605 S   0  0  0  0  0  0  0  0  0  0  0  0
  -14.2776   44.9905   -2.6779 O   0  0  0  0  0  0  0  0  0  0  0  0
  -13.7774   47.3873   -2.4459 O   0  0  0  0  0  0  0  0  0  0  0  0
  -16.1483   46.7415   -3.4984 C   0  0  0  0  0  0  0  0  0  0  0  0
  -16.2094   48.0185   -4.0576 C   0  0  0  0  0  0  0  0  0  0  0  0
  -17.2290   48.3590   -4.9392 C   0  0  0  0  0  0  0  0  0  0  0  0
  -18.1970   47.4131   -5.2632 C   0  0  0  0  0  0  0  0  0  0  0  0
  -18.1438   46.1396   -4.7066 C   0  0  0  0  0  0  0  0  0  0  0  0
  -17.1213   45.8033   -3.8280 C   0  0  0  0  0  0  0  0  0  0  0  0
  -19.1980   47.7251   -6.1240 O   0  0  0  0  0  0  0  0  0  0  0  0
  -20.2171   46.7241   -6.1437 C   0  0  0  0  0  0  0  0  0  0  0  0
  -16.8630   46.8286   -0.9118 C   0  0  0  0  0  0  0  0  0  0  0  0
  -17.7693   45.9366   -0.0822 C   0  0  0  0  0  0  0  0  0  0  0  0
  -19.2143   46.0171   -0.5444 C   0  0  0  0  0  0  0  0  0  0  0  0
  -17.2806   44.5047   -0.1821 C   0  0  0  0  0  0  0  0  0  0  0  0
  -11.8880   47.2103    2.4764 C   0  0  0  0  0  0  0  0  0  0  0  0
  -12.5596   48.4574    3.0713 C   0  0  0  0  0  0  0  0  0  0  0  0
  -11.8410   49.6301    3.2425 C   0  0  0  0  0  0  0  0  0  0  0  0
  -12.4664   50.7522    3.7875 C   0  0  0  0  0  0  0  0  0  0  0  0
  -13.8025   50.7138    4.1694 C   0  0  0  0  0  0  0  0  0  0  0  0
  -14.5155   49.5330    4.0044 C   0  0  0  0  0  0  0  0  0  0  0  0
  -13.8954   48.4161    3.4592 C   0  0  0  0  0  0  0  0  0  0  0  0
  -14.4041   51.8221    4.6849 O   0  0  0  0  0  0  0  0  0  0  0  0
  -13.4710   52.5036    5.5589 C   0  0  0  0  0  0  0  0  0  0  0  0
  -13.8010   54.3091    5.7854 P   0  0  0  0  0  0  0  0  0  0  0  0
  -12.3655   55.1000    5.8027 O   0  0  0  0  0  0  0  0  0  0  0  0
  -14.6459   54.8756    4.5558 O   0  0  0  0  0  0  0  0  0  0  0  0
  -13.9441   55.6283    3.5568 C   0  0  0  0  0  0  0  0  0  0  0  0
  -13.4398   54.7126    2.4411 C   0  0  0  0  0  0  0  0  0  0  0  0
  -14.4465   54.5612    7.2564 O   0  0  0  0  0  0  0  0  0  0  0  0
  -13.6871   55.0404    8.3418 C   0  0  0  0  0  0  0  0  0  0  0  0
  -13.3212   53.8571    9.2370 C   0  0  0  0  0  0  0  0  0  0  0  0
  2  1  1  0  0  0
  2  3  1  0  0  0
  7 14  1  0  0  0
  7  8  1  0  0  0
  7 11  1  0  0  0
 42 43  1  0  0  0
 42 39  1  0  0  0
  1 35  1  0  0  0
  1 15  1  0  0  0
 35 36  1  0  0  0
 36 37  2  0  0  0
 36 41  1  0  0  0
 37 38  1  0  0  0
 38 39  2  0  0  0
 39 40  1  0  0  0
 43 44  1  0  0  0
 44 46  1  0  0  0
 44 49  1  0  0  0
 44 45  2  0  0  0
 49 50  1  0  0  0
 50 51  1  0  0  0
 46 47  1  0  0  0
 47 48  1  0  0  0
 40 41  2  0  0  0
 15 18  1  0  0  0
 15 16  1  0  0  0
 18 19  1  0  0  0
 19 20  1  0  0  0
 19 31  1  0  0  0
 31 32  1  0  0  0
 32 34  1  0  0  0
 32 33  1  0  0  0
 20 22  2  0  0  0
 20 23  1  0  0  0
 20 21  2  0  0  0
 23 28  2  0  0  0
 23 24  1  0  0  0
 24 25  2  0  0  0
 25 26  1  0  0  0
 26 29  1  0  0  0
 26 27  2  0  0  0
 29 30  1  0  0  0
 27 28  1  0  0  0
  3  4  2  0  0  0
  3  6  1  0  0  0
  6  8  1  0  0  0
  8  9  1  0  0  0
  9 10  1  0  0  0
 10 11  1  0  0  0
 11 12  1  0  0  0
 12 13  1  0  0  0
 13 14  1  0  0  0
  2  5  1  0  0  0
 16 17  1  0  0  0
M  END
> <minimizedAffinity>
-7.54264

$$$$
4M8Y_KGQ_A_201


 51 54  0  0  0  0  0  0  0  0999 V2000
  -12.9716   53.4495    3.9917 C   0  0  0  0  0  0  0  0  0  0  0  0
  -12.7088   53.2325    2.5723 N   0  0  0  0  0  0  0  0  0  0  0  0
  -13.6636   53.1700    1.6524 C   0  0  0  0  0  0  0  0  0  0  0  0
  -14.8617   53.2944    1.9032 O   0  0  0  0  0  0  0  0  0  0  0  0
  -11.7741   53.1269    2.2821 H   0  0  0  0  0  0  0  0  0  0  0  0
  -13.2342   52.9934    0.3758 O   0  0  0  0  0  0  0  0  0  0  0  0
  -11.7131   52.1127   -1.2901 C   0  0  0  0  0  0  0  0  0  0  0  0
  -12.0982   52.1497    0.1857 C   0  0  0  0  0  0  0  0  0  0  0  0
  -12.6248   50.7590    0.4096 C   0  0  0  0  0  0  0  0  0  0  0  0
  -13.3527   50.4238   -0.7956 O   0  0  0  0  0  0  0  0  0  0  0  0
  -12.6460   51.0517   -1.9079 C   0  0  0  0  0  0  0  0  0  0  0  0
  -13.5958   51.7950   -2.7269 O   0  0  0  0  0  0  0  0  0  0  0  0
  -12.8623   52.9380   -3.2226 C   0  0  0  0  0  0  0  0  0  0  0  0
  -12.0865   53.4142   -2.0031 C   0  0  0  0  0  0  0  0  0  0  0  0
  -12.4259   54.8333    4.3594 C   0  0  0  0  0  0  0  0  0  0  0  0
  -11.5455   55.2607    3.3215 O   0  0  0  0  0  0  0  0  0  0  0  0
  -10.8022   54.6412    3.2526 H   0  0  0  0  0  0  0  0  0  0  0  0
  -11.6517   54.8410    5.6726 C   0  0  0  0  0  0  0  0  0  0  0  0
  -12.2431   55.7377    6.6827 N   0  0  0  0  0  0  0  0  0  0  0  0
  -13.0370   54.8227    7.7681 S   0  0  0  0  0  0  0  0  0  0  0  0
  -12.3996   53.4648    7.8501 O   0  0  0  0  0  0  0  0  0  0  0  0
  -14.4769   54.6814    7.3466 O   0  0  0  0  0  0  0  0  0  0  0  0
  -12.9674   55.6345    9.3364 C   0  0  0  0  0  0  0  0  0  0  0  0
  -13.3886   56.9597    9.4523 C   0  0  0  0  0  0  0  0  0  0  0  0
  -13.3227   57.6209   10.6735 C   0  0  0  0  0  0  0  0  0  0  0  0
  -12.8296   56.9500   11.7885 C   0  0  0  0  0  0  0  0  0  0  0  0
  -12.4048   55.6301   11.6790 C   0  0  0  0  0  0  0  0  0  0  0  0
  -12.4751   54.9728   10.4568 C   0  0  0  0  0  0  0  0  0  0  0  0
  -12.7603   57.5769   12.9896 O   0  0  0  0  0  0  0  0  0  0  0  0
  -14.0424   58.0233   13.4341 C   0  0  0  0  0  0  0  0  0  0  0  0
  -13.1808   56.6986    6.0884 C   0  0  0  0  0  0  0  0  0  0  0  0
  -12.4231   57.9030    5.5586 C   0  0  0  0  0  0  0  0  0  0  0  0
  -13.2099   58.6352    4.4849 C   0  0  0  0  0  0  0  0  0  0  0  0
  -12.1279   58.8469    6.7081 C   0  0  0  0  0  0  0  0  0  0  0  0
  -12.2944   52.3135    4.7741 C   0  0  0  0  0  0  0  0  0  0  0  0
  -12.7475   50.9313    4.2795 C   0  0  0  0  0  0  0  0  0  0  0  0
  -11.8187   50.0022    3.8381 C   0  0  0  0  0  0  0  0  0  0  0  0
  -12.2485   48.7527    3.3893 C   0  0  0  0  0  0  0  0  0  0  0  0
  -13.5989   48.4229    3.3710 C   0  0  0  0  0  0  0  0  0  0  0  0
  -14.5263   49.3615    3.8056 C   0  0  0  0  0  0  0  0  0  0  0  0
  -14.1000   50.6045    4.2556 C   0  0  0  0  0  0  0  0  0  0  0  0
  -14.0023   47.1933    2.9455 O   0  0  0  0  0  0  0  0  0  0  0  0
  -14.5181   47.3053    1.5963 C   0  0  0  0  0  0  0  0  0  0  0  0
  -13.4910   46.4717    0.3040 P   0  0  0  0  0  0  0  0  0  0  0  0
  -12.2075   47.4322   -0.0371 O   0  0  0  0  0  0  0  0  0  0  0  0
  -12.9206   45.0880    0.8580 O   0  0  0  0  0  0  0  0  0  0  0  0
  -13.8693   44.0955    1.2725 C   0  0  0  0  0  0  0  0  0  0  0  0
  -13.3826   42.6928    0.9075 C   0  0  0  0  0  0  0  0  0  0  0  0
  -14.3361   46.3781   -1.0822 O   0  0  0  0  0  0  0  0  0  0  0  0
  -15.0260   47.4816   -1.6214 C   0  0  0  0  0  0  0  0  0  0  0  0
  -14.3997   47.8322   -2.9706 C   0  0  0  0  0  0  0  0  0  0  0  0
  2  1  1  0  0  0
  2  3  1  0  0  0
  7 14  1  0  0  0
  7  8  1  0  0  0
  7 11  1  0  0  0
 42 43  1  0  0  0
 42 39  1  0  0  0
  1 35  1  0  0  0
  1 15  1  0  0  0
 35 36  1  0  0  0
 36 37  2  0  0  0
 36 41  1  0  0  0
 37 38  1  0  0  0
 38 39  2  0  0  0
 39 40  1  0  0  0
 43 44  1  0  0  0
 44 46  1  0  0  0
 44 49  1  0  0  0
 44 45  2  0  0  0
 49 50  1  0  0  0
 50 51  1  0  0  0
 46 47  1  0  0  0
 47 48  1  0  0  0
 40 41  2  0  0  0
 15 18  1  0  0  0
 15 16  1  0  0  0
 18 19  1  0  0  0
 19 20  1  0  0  0
 19 31  1  0  0  0
 31 32  1  0  0  0
 32 34  1  0  0  0
 32 33  1  0  0  0
 20 22  2  0  0  0
 20 23  1  0  0  0
 20 21  2  0  0  0
 23 28  2  0  0  0
 23 24  1  0  0  0
 24 25  2  0  0  0
 25 26  1  0  0  0
 26 29  1  0  0  0
 26 27  2  0  0  0
 29 30  1  0  0  0
 27 28  1  0  0  0
  3  4  2  0  0  0
  3  6  1  0  0  0
  6  8  1  0  0  0
  8  9  1  0  0  0
  9 10  1  0  0  0
 10 11  1  0  0  0
 11 12  1  0  0  0
 12 13  1  0  0  0
 13 14  1  0  0  0
  2  5  1  0  0  0
 16 17  1  0  0  0
M  END
> <minimizedAffinity>
-7.51498

$$$$
4M8Y_KGQ_A_201


 51 54  0  0  0  0  0  0  0  0999 V2000
  -13.5060   46.9581    0.6720 C   0  0  0  0  0  0  0  0  0  0  0  0
  -13.6582   48.3047    0.1295 N   0  0  0  0  0  0  0  0  0  0  0  0
  -12.6874   48.9535   -0.5015 C   0  0  0  0  0  0  0  0  0  0  0  0
  -11.5674   48.4833   -0.6968 O   0  0  0  0  0  0  0  0  0  0  0  0
  -14.5268   48.7554    0.2375 H   0  0  0  0  0  0  0  0  0  0  0  0
  -13.0157   50.1866   -0.9677 O   0  0  0  0  0  0  0  0  0  0  0  0
  -12.3349   52.3593   -0.1430 C   0  0  0  0  0  0  0  0  0  0  0  0
  -11.9723   51.1601   -1.0137 C   0  0  0  0  0  0  0  0  0  0  0  0
  -12.0619   51.7376   -2.3994 C   0  0  0  0  0  0  0  0  0  0  0  0
  -13.1984   52.6332   -2.3711 O   0  0  0  0  0  0  0  0  0  0  0  0
  -13.2346   53.2326   -1.0405 C   0  0  0  0  0  0  0  0  0  0  0  0
  -14.5782   53.1060   -0.4891 O   0  0  0  0  0  0  0  0  0  0  0  0
  -14.3939   52.9380    0.9350 C   0  0  0  0  0  0  0  0  0  0  0  0
  -13.2354   51.9553    1.0264 C   0  0  0  0  0  0  0  0  0  0  0  0
  -14.3668   46.0153   -0.1755 C   0  0  0  0  0  0  0  0  0  0  0  0
  -13.7166   44.7471   -0.2394 O   0  0  0  0  0  0  0  0  0  0  0  0
  -12.8520   44.8482   -0.6673 H   0  0  0  0  0  0  0  0  0  0  0  0
  -14.5751   46.5149   -1.6007 C   0  0  0  0  0  0  0  0  0  0  0  0
  -15.9274   47.0572   -1.8271 N   0  0  0  0  0  0  0  0  0  0  0  0
  -16.9297   45.8103   -2.1206 S   0  0  0  0  0  0  0  0  0  0  0  0
  -16.1313   44.5529   -2.3172 O   0  0  0  0  0  0  0  0  0  0  0  0
  -17.7363   46.0969   -3.3608 O   0  0  0  0  0  0  0  0  0  0  0  0
  -18.0231   45.6397   -0.7426 C   0  0  0  0  0  0  0  0  0  0  0  0
  -18.6384   46.7682   -0.1998 C   0  0  0  0  0  0  0  0  0  0  0  0
  -19.4860   46.6561    0.8965 C   0  0  0  0  0  0  0  0  0  0  0  0
  -19.7188   45.4030    1.4553 C   0  0  0  0  0  0  0  0  0  0  0  0
  -19.1058   44.2746    0.9212 C   0  0  0  0  0  0  0  0  0  0  0  0
  -18.2615   44.3916   -0.1761 C   0  0  0  0  0  0  0  0  0  0  0  0
  -20.5452   45.2725    2.5233 O   0  0  0  0  0  0  0  0  0  0  0  0
  -20.3684   44.0191    3.1855 C   0  0  0  0  0  0  0  0  0  0  0  0
  -15.9686   47.9836   -2.9655 C   0  0  0  0  0  0  0  0  0  0  0  0
  -14.6789   47.8859   -3.7608 C   0  0  0  0  0  0  0  0  0  0  0  0
  -14.8765   47.1282   -5.0626 C   0  0  0  0  0  0  0  0  0  0  0  0
  -14.1723   49.2843   -4.0560 C   0  0  0  0  0  0  0  0  0  0  0  0
  -13.9353   46.9944    2.1470 C   0  0  0  0  0  0  0  0  0  0  0  0
  -13.3396   48.2031    2.8848 C   0  0  0  0  0  0  0  0  0  0  0  0
  -14.1665   49.1691    3.4361 C   0  0  0  0  0  0  0  0  0  0  0  0
  -13.6078   50.2620    4.1000 C   0  0  0  0  0  0  0  0  0  0  0  0
  -12.2296   50.4038    4.2142 C   0  0  0  0  0  0  0  0  0  0  0  0
  -11.4052   49.4375    3.6515 C   0  0  0  0  0  0  0  0  0  0  0  0
  -11.9597   48.3474    2.9931 C   0  0  0  0  0  0  0  0  0  0  0  0
  -11.6990   51.4676    4.8794 O   0  0  0  0  0  0  0  0  0  0  0  0
  -12.6984   52.5121    4.9751 C   0  0  0  0  0  0  0  0  0  0  0  0
  -12.0218   54.2331    4.9661 P   0  0  0  0  0  0  0  0  0  0  0  0
  -10.3851   54.1464    4.9495 O   0  0  0  0  0  0  0  0  0  0  0  0
  -12.4749   54.9989    3.6413 O   0  0  0  0  0  0  0  0  0  0  0  0
  -13.8316   55.4586    3.5695 C   0  0  0  0  0  0  0  0  0  0  0  0
  -13.9079   56.9664    3.8108 C   0  0  0  0  0  0  0  0  0  0  0  0
  -12.3973   54.9699    6.3663 O   0  0  0  0  0  0  0  0  0  0  0  0
  -12.5279   54.2648    7.5787 C   0  0  0  0  0  0  0  0  0  0  0  0
  -13.9922   54.3153    8.0132 C   0  0  0  0  0  0  0  0  0  0  0  0
  2  1  1  0  0  0
  2  3  1  0  0  0
  7 14  1  0  0  0
  7  8  1  0  0  0
  7 11  1  0  0  0
 42 43  1  0  0  0
 42 39  1  0  0  0
  1 35  1  0  0  0
  1 15  1  0  0  0
 35 36  1  0  0  0
 36 37  2  0  0  0
 36 41  1  0  0  0
 37 38  1  0  0  0
 38 39  2  0  0  0
 39 40  1  0  0  0
 43 44  1  0  0  0
 44 46  1  0  0  0
 44 49  1  0  0  0
 44 45  2  0  0  0
 49 50  1  0  0  0
 50 51  1  0  0  0
 46 47  1  0  0  0
 47 48  1  0  0  0
 40 41  2  0  0  0
 15 18  1  0  0  0
 15 16  1  0  0  0
 18 19  1  0  0  0
 19 20  1  0  0  0
 19 31  1  0  0  0
 31 32  1  0  0  0
 32 34  1  0  0  0
 32 33  1  0  0  0
 20 22  2  0  0  0
 20 23  1  0  0  0
 20 21  2  0  0  0
 23 28  2  0  0  0
 23 24  1  0  0  0
 24 25  2  0  0  0
 25 26  1  0  0  0
 26 29  1  0  0  0
 26 27  2  0  0  0
 29 30  1  0  0  0
 27 28  1  0  0  0
  3  4  2  0  0  0
  3  6  1  0  0  0
  6  8  1  0  0  0
  8  9  1  0  0  0
  9 10  1  0  0  0
 10 11  1  0  0  0
 11 12  1  0  0  0
 12 13  1  0  0  0
 13 14  1  0  0  0
  2  5  1  0  0  0
 16 17  1  0  0  0
M  END
> <minimizedAffinity>
-7.49191

$$$$
4M8Y_KGQ_A_201


 51 54  0  0  0  0  0  0  0  0999 V2000
  -13.3814   50.9039    3.5418 C   0  0  0  0  0  0  0  0  0  0  0  0
  -12.8361   51.6288    2.3982 N   0  0  0  0  0  0  0  0  0  0  0  0
  -13.1486   51.3506    1.1386 C   0  0  0  0  0  0  0  0  0  0  0  0
  -13.9318   50.4600    0.8109 O   0  0  0  0  0  0  0  0  0  0  0  0
  -12.2030   52.3628    2.5702 H   0  0  0  0  0  0  0  0  0  0  0  0
  -12.5705   52.1481    0.2032 O   0  0  0  0  0  0  0  0  0  0  0  0
  -13.5163   52.8616   -1.9089 C   0  0  0  0  0  0  0  0  0  0  0  0
  -13.4022   53.1323   -0.4118 C   0  0  0  0  0  0  0  0  0  0  0  0
  -12.5777   54.3897   -0.3804 C   0  0  0  0  0  0  0  0  0  0  0  0
  -11.5999   54.2361   -1.4362 O   0  0  0  0  0  0  0  0  0  0  0  0
  -12.2522   53.5022   -2.5165 C   0  0  0  0  0  0  0  0  0  0  0  0
  -11.4058   52.3873   -2.9240 O   0  0  0  0  0  0  0  0  0  0  0  0
  -12.3183   51.3356   -3.3133 C   0  0  0  0  0  0  0  0  0  0  0  0
  -13.3806   51.3703   -2.2242 C   0  0  0  0  0  0  0  0  0  0  0  0
  -13.5782   51.9110    4.6798 C   0  0  0  0  0  0  0  0  0  0  0  0
  -14.8808   52.4798    4.5576 O   0  0  0  0  0  0  0  0  0  0  0  0
  -14.9506   52.9489    3.7114 H   0  0  0  0  0  0  0  0  0  0  0  0
  -12.5601   53.0454    4.6571 C   0  0  0  0  0  0  0  0  0  0  0  0
  -13.0523   54.2719    5.3110 N   0  0  0  0  0  0  0  0  0  0  0  0
  -13.1455   55.4424    4.1855 S   0  0  0  0  0  0  0  0  0  0  0  0
  -14.4515   55.3369    3.4505 O   0  0  0  0  0  0  0  0  0  0  0  0
  -12.0039   55.2946    3.2131 O   0  0  0  0  0  0  0  0  0  0  0  0
  -13.0179   57.0066    4.9984 C   0  0  0  0  0  0  0  0  0  0  0  0
  -14.0735   57.4693    5.7848 C   0  0  0  0  0  0  0  0  0  0  0  0
  -13.9992   58.7059    6.4158 C   0  0  0  0  0  0  0  0  0  0  0  0
  -12.8584   59.4870    6.2571 C   0  0  0  0  0  0  0  0  0  0  0  0
  -11.8042   59.0332    5.4717 C   0  0  0  0  0  0  0  0  0  0  0  0
  -11.8821   57.7954    4.8452 C   0  0  0  0  0  0  0  0  0  0  0  0
  -12.7655   60.6951    6.8672 O   0  0  0  0  0  0  0  0  0  0  0  0
  -13.9037   61.5167    6.6018 C   0  0  0  0  0  0  0  0  0  0  0  0
  -12.1647   54.7165    6.3928 C   0  0  0  0  0  0  0  0  0  0  0  0
  -12.8039   54.4287    7.7397 C   0  0  0  0  0  0  0  0  0  0  0  0
  -14.3183   54.3596    7.6407 C   0  0  0  0  0  0  0  0  0  0  0  0
  -12.2666   53.1144    8.2717 C   0  0  0  0  0  0  0  0  0  0  0  0
  -12.3946   49.7822    3.9013 C   0  0  0  0  0  0  0  0  0  0  0  0
  -12.5812   48.5492    3.0040 C   0  0  0  0  0  0  0  0  0  0  0  0
  -13.7796   47.8531    3.0043 C   0  0  0  0  0  0  0  0  0  0  0  0
  -13.9303   46.7334    2.1852 C   0  0  0  0  0  0  0  0  0  0  0  0
  -12.8930   46.2973    1.3688 C   0  0  0  0  0  0  0  0  0  0  0  0
  -11.6907   46.9932    1.3796 C   0  0  0  0  0  0  0  0  0  0  0  0
  -11.5401   48.1097    2.1919 C   0  0  0  0  0  0  0  0  0  0  0  0
  -13.0603   45.2122    0.5624 O   0  0  0  0  0  0  0  0  0  0  0  0
  -14.0960   44.3651    1.1178 C   0  0  0  0  0  0  0  0  0  0  0  0
  -15.2597   43.6483   -0.1280 P   0  0  0  0  0  0  0  0  0  0  0  0
  -15.1836   44.5561   -1.4906 O   0  0  0  0  0  0  0  0  0  0  0  0
  -14.8127   42.1658   -0.5140 O   0  0  0  0  0  0  0  0  0  0  0  0
  -13.4100   41.8673   -0.4942 C   0  0  0  0  0  0  0  0  0  0  0  0
  -13.1502   40.5224    0.1851 C   0  0  0  0  0  0  0  0  0  0  0  0
  -16.7878   43.8045    0.4056 O   0  0  0  0  0  0  0  0  0  0  0  0
  -17.6448   42.6994    0.5748 C   0  0  0  0  0  0  0  0  0  0  0  0
  -17.3074   42.0238    1.9034 C   0  0  0  0  0  0  0  0  0  0  0  0
  2  1  1  0  0  0
  2  3  1  0  0  0
  7 14  1  0  0  0
  7  8  1  0  0  0
  7 11  1  0  0  0
 42 43  1  0  0  0
 42 39  1  0  0  0
  1 35  1  0  0  0
  1 15  1  0  0  0
 35 36  1  0  0  0
 36 37  2  0  0  0
 36 41  1  0  0  0
 37 38  1  0  0  0
 38 39  2  0  0  0
 39 40  1  0  0  0
 43 44  1  0  0  0
 44 46  1  0  0  0
 44 49  1  0  0  0
 44 45  2  0  0  0
 49 50  1  0  0  0
 50 51  1  0  0  0
 46 47  1  0  0  0
 47 48  1  0  0  0
 40 41  2  0  0  0
 15 18  1  0  0  0
 15 16  1  0  0  0
 18 19  1  0  0  0
 19 20  1  0  0  0
 19 31  1  0  0  0
 31 32  1  0  0  0
 32 34  1  0  0  0
 32 33  1  0  0  0
 20 22  2  0  0  0
 20 23  1  0  0  0
 20 21  2  0  0  0
 23 28  2  0  0  0
 23 24  1  0  0  0
 24 25  2  0  0  0
 25 26  1  0  0  0
 26 29  1  0  0  0
 26 27  2  0  0  0
 29 30  1  0  0  0
 27 28  1  0  0  0
  3  4  2  0  0  0
  3  6  1  0  0  0
  6  8  1  0  0  0
  8  9  1  0  0  0
  9 10  1  0  0  0
 10 11  1  0  0  0
 11 12  1  0  0  0
 12 13  1  0  0  0
 13 14  1  0  0  0
  2  5  1  0  0  0
 16 17  1  0  0  0
M  END
> <minimizedAffinity>
-7.41705

$$$$
