4BI6_PGA_A_401
  RCSB PDB12061711513D
Coordinates from PDB:4BI6:A:401 Model:1 without hydrogens
  9  8  0  0  0  0            999 V2000
   -1.6930  -19.8400  -35.5630   P 0  0  0  0  0  0  0  0  0  0  0  0
   -2.2440  -18.3250  -35.5200   O 0  0  0  0  0  0  0  0  0  0  0  0
   -2.5460  -20.6000  -36.5420   O 0  0  0  0  0  0  0  0  0  0  0  0
   -0.2550  -19.7700  -36.0210   O 0  0  0  0  0  0  0  0  0  0  0  0
   -1.7650  -20.4060  -34.1650   O 0  0  0  0  0  0  0  0  0  0  0  0
   -3.5220  -18.0180  -34.9980   C 0  0  0  0  0  0  0  0  0  0  0  0
   -3.9070  -16.6280  -35.4500   C 0  0  0  0  0  0  0  0  0  0  0  0
   -5.0940  -16.3220  -35.6500   O 0  0  0  0  0  0  0  0  0  0  0  0
   -3.0320  -15.7580  -35.6300   O 0  0  0  0  0  0  0  0  0  0  0  0
  1  2  1  0  0  0  0
  1  3  2  0  0  0  0
  1  4  1  0  0  0  0
  1  5  1  0  0  0  0
  2  6  1  0  0  0  0
  6  7  1  0  0  0  0
  7  8  2  0  0  0  0
  7  9  1  0  0  0  0
A    1
P
A    2
O1P
A    3
O2P
A    4
O3P
A    5
O4P
A    6
C2
A    7
C1
A    8
O1
A    9
O2
M  END
>  <InstanceId>
4BI6_PGA_A_401

>  <ChemCompId>
PGA

>  <PdbId>
4BI6

>  <ChainId>
A

>  <ResidueNumber>
401

>  <InsertionCode>


>  <Model>
1

>  <AltIds>


>  <MissingHeavyAtoms>
0

>  <ObservedFormula>
C2 O6 P

>  <Name>
2-PHOSPHOGLYCOLIC ACID

>  <SystematicName>
2-phosphonooxyethanoic acid

>  <Synonyms>


>  <Type>
NON-POLYMER

>  <Formula>
C2 H5 O6 P

>  <MolecularWeight>
156.031

>  <ModifiedDate>
2011-06-04

>  <Parent>


>  <OneLetterCode>


>  <SubcomponentList>


>  <AmbiguousFlag>
N

>  <InChI>
InChI=1S/C2H5O6P/c3-2(4)1-8-9(5,6)7/h1H2,(H,3,4)(H2,5,6,7)

>  <InChIKey>
ASCFNMCAHFUBCO-UHFFFAOYSA-N

>  <SMILES>
C(C(=O)O)OP(=O)(O)O

$$$$
