1Y6R_MTM_A_233
  RCSB PDB12061704433D
Coordinates from PDB:1Y6R:A:233 Model:1 without hydrogens
 20 22  0  0  0  0            999 V2000
   56.1860   68.8130   22.6840   C 0  0  0  0  0  0  0  0  0  0  0  0
   55.5290   70.4750   23.0530   S 0  0  0  0  0  0  0  0  0  0  0  0
   56.3140   71.4030   21.7230   C 0  0  0  0  0  0  0  0  0  0  0  0
   57.7350   71.8840   22.0160   C 0  0  0  0  0  0  0  0  0  0  0  0
   58.2590   72.4490   20.7680   N 0  0  0  0  0  0  0  0  0  0  0  0
   57.6410   74.2710   22.1260   C 0  0  0  0  0  0  0  0  0  0  0  0
   58.5200   75.3560   22.5470   O 0  0  0  0  0  0  0  0  0  0  0  0
   57.8380   72.9880   23.0550   C 0  0  0  0  0  0  0  0  0  0  0  0
   59.1850   72.9790   23.6720   O 0  0  0  0  0  0  0  0  0  0  0  0
   57.9360   73.8660   20.6330   C 0  0  0  0  0  0  0  0  0  0  0  0
   56.7680   73.9840   19.6620   C 0  0  0  0  0  0  0  0  0  0  0  0
   56.8230   73.7360   18.2890   C 0  0  0  0  0  0  0  0  0  0  0  0
   55.6520   73.9030   17.6480   N 0  0  0  0  0  0  0  0  0  0  0  0
   54.7790   74.2740   18.6310   C 0  0  0  0  0  0  0  0  0  0  0  0
   53.3840   74.5950   18.6450   C 0  0  0  0  0  0  0  0  0  0  0  0
   52.6230   74.5700   17.5430   N 0  0  0  0  0  0  0  0  0  0  0  0
   52.8250   74.9360   19.8680   N 0  0  0  0  0  0  0  0  0  0  0  0
   53.5740   74.9600   20.9940   C 0  0  0  0  0  0  0  0  0  0  0  0
   54.8910   74.6740   21.0960   N 0  0  0  0  0  0  0  0  0  0  0  0
   55.4340   74.3380   19.8780   C 0  0  0  0  0  0  0  0  0  0  0  0
  1  2  1  0  0  0  0
  2  3  1  0  0  0  0
  3  4  1  0  0  0  0
  4  5  1  0  0  0  0
  4  8  1  0  0  0  0
  5 10  1  0  0  0  0
  6  7  1  0  0  0  0
  6  8  1  0  0  0  0
  6 10  1  0  0  0  0
  8  9  1  0  0  0  0
 10 11  1  0  0  0  0
 11 12  2  0  0  0  0
 11 20  1  0  0  0  0
 12 13  1  0  0  0  0
 13 14  1  0  0  0  0
 14 15  1  0  0  0  0
 14 20  2  0  0  0  0
 15 16  1  0  0  0  0
 15 17  1  0  0  0  0
 17 18  1  0  0  0  0
 18 19  2  0  0  0  0
 19 20  1  0  0  0  0
A    1
CS
A    2
S5'
A    3
C5'
A    4
C4'
A    5
N4'
A    6
C2'
A    7
O2'
A    8
C3'
A    9
O3'
A   10
C1'
A   11
C9
A   12
C8
A   13
N7
A   14
C5
A   15
C6
A   16
N6
A   17
N1
A   18
C2
A   19
N3
A   20
C4
M  END
>  <InstanceId>
1Y6R_MTM_A_233

>  <ChemCompId>
MTM

>  <PdbId>
1Y6R

>  <ChainId>
A

>  <ResidueNumber>
233

>  <InsertionCode>


>  <Model>
1

>  <AltIds>


>  <MissingHeavyAtoms>
0

>  <ObservedFormula>
C12 N5 O2 S

>  <Name>
(3S,4R)-2-(4-AMINO-5H-PYRROLO[3,2-D]PYRIMIDIN-7-YL)-5-[(METHYLSULFANYL)METHYL]PYRROLIDINE-3,4-DIOL

>  <SystematicName>
(2S,3S,4R,5S)-2-(4-amino-4,5-dihydro-3H-pyrrolo[4,5-d]pyrimidin-7-yl)-5-(methylsulfanylmethyl)pyrrolidine-3,4-diol

>  <Synonyms>
(1S)-1-(9-DEAZAADENIN-9-YL)-1,4,5-TRIDEOXY-1,4-IMINO-5-METHYLTHIO-D-RIBITOL

>  <Type>
NON-POLYMER

>  <Formula>
C12 H19 N5 O2 S

>  <MolecularWeight>
297.377

>  <ModifiedDate>
2011-06-04

>  <Parent>


>  <OneLetterCode>


>  <SubcomponentList>


>  <AmbiguousFlag>
N

>  <InChI>
InChI=1S/C12H19N5O2S/c1-20-3-6-10(18)11(19)8(17-6)5-2-14-9-7(5)15-4-16-12(9)13/h2,4,6,8,10-12,14,17-19H,3,13H2,1H3,(H,15,16)/t6-,8+,10-,11+,12?/m1/s1

>  <InChIKey>
YLCQGEBEQIBOOJ-BOFBLULFSA-N

>  <SMILES>
CSC[C@@H]1[C@H]([C@H]([C@@H](N1)c2c[nH]c3c2N=CNC3N)O)O

$$$$
