3EWC_MCF_A_373
  RCSB PDB12061708303D
Coordinates from PDB:3EWC:A:373 Model:1 without hydrogens
 21 23  0  0  0  0            999 V2000
   -8.5720   25.3470  -11.9680   O 0  0  0  0  0  0  0  0  0  0  0  0
   -7.2380   25.2030  -12.5040   C 0  0  0  0  0  0  0  0  0  0  0  0
   -7.0260   23.9890  -13.4160   C 0  0  0  0  0  0  0  0  0  0  0  0
   -7.5600   22.7840  -12.7820   N 0  0  0  0  0  0  0  0  0  0  0  0
   -7.0020   22.1630  -11.7120   C 0  0  0  0  0  0  0  0  0  0  0  0
   -6.1950   22.6390  -10.8310   N 0  0  0  0  0  0  0  0  0  0  0  0
   -5.7160   23.9210  -10.7050   C 0  0  0  0  0  0  0  0  0  0  0  0
   -6.2370   25.0970  -11.4450   C 0  0  0  0  0  0  0  0  0  0  0  0
   -5.5130   26.1050  -10.9690   N 0  0  0  0  0  0  0  0  0  0  0  0
   -4.6640   25.6360  -10.0140   C 0  0  0  0  0  0  0  0  0  0  0  0
   -4.7800   24.3160   -9.8320   N 0  0  0  0  0  0  0  0  0  0  0  0
   -3.9490   23.6200   -8.8190   C 0  0  0  0  0  0  0  0  0  0  0  0
   -4.4260   22.2450   -8.4020   C 0  0  0  0  0  0  0  0  0  0  0  0
   -5.2880   22.4130   -7.2720   O 0  0  0  0  0  0  0  0  0  0  0  0
   -2.5760   23.5090   -9.2240   O 0  0  0  0  0  0  0  0  0  0  0  0
   -2.1300   22.1900   -8.9420   C 0  0  0  0  0  0  0  0  0  0  0  0
   -3.1320   21.5820   -7.9700   C 0  0  0  0  0  0  0  0  0  0  0  0
   -2.9080   21.9950   -6.6060   O 0  0  0  0  0  0  0  0  0  0  0  0
   -1.7430   21.3560  -10.1550   C 0  0  0  0  0  0  0  0  0  0  0  0
   -0.4360   20.2860   -9.6220   S 0  0  0  0  0  0  0  0  0  0  0  0
   -1.0440   18.6650   -9.3520   C 0  0  0  0  0  0  0  0  0  0  0  0
  2  1  1  0  0  0  0
  3  2  1  0  0  0  0
  2  8  1  0  0  0  0
  3  4  1  0  0  0  0
  4  5  1  0  0  0  0
  5  6  2  0  0  0  0
  6  7  1  0  0  0  0
  8  7  2  0  0  0  0
  7 11  1  0  0  0  0
  8  9  1  0  0  0  0
  9 10  2  0  0  0  0
 10 11  1  0  0  0  0
 11 12  1  0  0  0  0
 15 12  1  0  0  0  0
 12 13  1  0  0  0  0
 13 17  1  0  0  0  0
 13 14  1  0  0  0  0
 15 16  1  0  0  0  0
 19 16  1  0  0  0  0
 16 17  1  0  0  0  0
 17 18  1  0  0  0  0
 19 20  1  0  0  0  0
 20 21  1  0  0  0  0
A    1
O8
A    2
C8
A    3
C7
A    4
N6
A    5
C5
A    6
N4
A    7
C10
A    8
C9
A    9
N1
A   10
C2
A   11
N3
A   12
C1S
A   13
C2S
A   14
O2S
A   15
O4S
A   16
C4S
A   17
C3S
A   18
O3S
A   19
C5S
A   20
S5S
A   21
C6S
M  END
>  <InstanceId>
3EWC_MCF_A_373

>  <ChemCompId>
MCF

>  <PdbId>
3EWC

>  <ChainId>
A

>  <ResidueNumber>
373

>  <InsertionCode>


>  <Model>
1

>  <AltIds>


>  <MissingHeavyAtoms>
0

>  <ObservedFormula>
C12 N4 O4 S

>  <Name>
(8R)-3-(5-S-methyl-5-thio-beta-D-ribofuranosyl)-3,6,7,8-tetrahydroimidazo[4,5-d][1,3]diazepin-8-ol

>  <SystematicName>
(2R,3R,4S,5S)-2-[(8R)-8-hydroxy-7,8-dihydro-6H-imidazo[5,4-d][1,3]diazepin-3-yl]-5-(methylsulfanylmethyl)oxolane-3,4-diol

>  <Synonyms>


>  <Type>
NON-POLYMER

>  <Formula>
C12 H18 N4 O4 S

>  <MolecularWeight>
314.361

>  <ModifiedDate>
2011-06-04

>  <Parent>


>  <OneLetterCode>


>  <SubcomponentList>


>  <AmbiguousFlag>
N

>  <InChI>
InChI=1S/C12H18N4O4S/c1-21-3-7-9(18)10(19)12(20-7)16-5-15-8-6(17)2-13-4-14-11(8)16/h4-7,9-10,12,17-19H,2-3H2,1H3,(H,13,14)/t6-,7-,9-,10-,12-/m1/s1

>  <InChIKey>
QLPPCUVJNCMYFD-SANHVUMCSA-N

>  <SMILES>
CSC[C@@H]1[C@H]([C@H]([C@@H](O1)n2cnc3c2N=CNC[C@H]3O)O)O

$$$$
