3EWC_MCF_A_373


 25 27  0  0  0  0  0  0  0  0999 V2000
   -8.5057   25.1472  -11.8777 O   0  0  0  0  0  0  0  0  0  0  0  0
   -7.1704   25.0463  -12.4203 C   0  0  0  0  0  0  0  0  0  0  0  0
   -6.9361   23.8644  -13.3683 C   0  0  0  0  0  0  0  0  0  0  0  0
   -7.4439   22.6306  -12.7693 N   0  0  0  0  0  0  0  0  0  0  0  0
   -6.8708   21.9897  -11.7193 C   0  0  0  0  0  0  0  0  0  0  0  0
   -6.0714   22.4557  -10.8261 N   0  0  0  0  0  0  0  0  0  0  0  0
   -5.6182   23.7429  -10.6630 C   0  0  0  0  0  0  0  0  0  0  0  0
   -6.1648   24.9294  -11.3669 C   0  0  0  0  0  0  0  0  0  0  0  0
   -5.4602   25.9374  -10.8626 N   0  0  0  0  0  0  0  0  0  0  0  0
   -4.5995   25.4578   -9.9235 C   0  0  0  0  0  0  0  0  0  0  0  0
   -4.6882   24.1309   -9.7805 N   0  0  0  0  0  0  0  0  0  0  0  0
   -9.1447   25.2231  -12.6035 H   0  0  0  0  0  0  0  0  0  0  0  0
   -8.2596   22.2369  -13.1553 H   0  0  0  0  0  0  0  0  0  0  0  0
   -3.8407   23.4222   -8.7902 C   0  0  0  0  0  0  0  0  0  0  0  0
   -4.3469   22.0714   -8.3309 C   0  0  0  0  0  0  0  0  0  0  0  0
   -5.1557   22.2870   -7.1700 O   0  0  0  0  0  0  0  0  0  0  0  0
   -2.4900   23.2572   -9.2483 O   0  0  0  0  0  0  0  0  0  0  0  0
   -2.0782   21.9280   -8.9621 C   0  0  0  0  0  0  0  0  0  0  0  0
   -3.0598   21.3705   -7.9403 C   0  0  0  0  0  0  0  0  0  0  0  0
   -2.7661   21.7968   -6.5936 O   0  0  0  0  0  0  0  0  0  0  0  0
   -4.6462   22.7799   -6.5080 H   0  0  0  0  0  0  0  0  0  0  0  0
   -2.7591   22.7660   -6.5556 H   0  0  0  0  0  0  0  0  0  0  0  0
   -1.7699   21.0621  -10.1754 C   0  0  0  0  0  0  0  0  0  0  0  0
   -0.8797   19.6573   -9.5662 S   0  0  0  0  0  0  0  0  0  0  0  0
    0.8397   19.9927   -9.5265 C   0  0  0  0  0  0  0  0  0  0  0  0
  2  1  1  0  0  0
  3  2  1  0  0  0
  2  8  1  0  0  0
  3  4  1  0  0  0
  4  5  1  0  0  0
  5  6  2  0  0  0
  6  7  1  0  0  0
  8  7  2  0  0  0
  7 11  1  0  0  0
  8  9  1  0  0  0
  9 10  2  0  0  0
 10 11  1  0  0  0
 11 14  1  0  0  0
 17 14  1  0  0  0
 14 15  1  0  0  0
 15 19  1  0  0  0
 15 16  1  0  0  0
 17 18  1  0  0  0
 23 18  1  0  0  0
 18 19  1  0  0  0
 19 20  1  0  0  0
 23 24  1  0  0  0
 24 25  1  0  0  0
  1 12  1  0  0  0
  4 13  1  0  0  0
 16 21  1  0  0  0
 20 22  1  0  0  0
M  END
> <minimizedAffinity>
-8.45042

$$$$
3EWC_MCF_A_373


 25 27  0  0  0  0  0  0  0  0999 V2000
   -8.2760   25.4263  -11.7520 O   0  0  0  0  0  0  0  0  0  0  0  0
   -6.9403   25.3348  -12.2953 C   0  0  0  0  0  0  0  0  0  0  0  0
   -6.8077   24.4929  -13.5697 C   0  0  0  0  0  0  0  0  0  0  0  0
   -7.4829   23.2071  -13.3959 N   0  0  0  0  0  0  0  0  0  0  0  0
   -7.0345   22.2010  -12.6031 C   0  0  0  0  0  0  0  0  0  0  0  0
   -6.2240   22.2570  -11.6062 N   0  0  0  0  0  0  0  0  0  0  0  0
   -5.6289   23.3593  -11.0408 C   0  0  0  0  0  0  0  0  0  0  0  0
   -6.0010   24.7661  -11.3315 C   0  0  0  0  0  0  0  0  0  0  0  0
   -5.2039   25.4665  -10.5309 N   0  0  0  0  0  0  0  0  0  0  0  0
   -4.4464   24.6108   -9.7914 C   0  0  0  0  0  0  0  0  0  0  0  0
   -4.6976   23.3288  -10.0785 N   0  0  0  0  0  0  0  0  0  0  0  0
   -8.8703   25.8069  -12.4174 H   0  0  0  0  0  0  0  0  0  0  0  0
   -8.3224   23.0612  -13.8890 H   0  0  0  0  0  0  0  0  0  0  0  0
   -3.9825   22.2433   -9.3633 C   0  0  0  0  0  0  0  0  0  0  0  0
   -2.5597   22.5497   -8.9463 C   0  0  0  0  0  0  0  0  0  0  0  0
   -1.6996   22.1287  -10.0099 O   0  0  0  0  0  0  0  0  0  0  0  0
   -4.6974   21.7929   -8.2024 O   0  0  0  0  0  0  0  0  0  0  0  0
   -3.7740   21.6565   -7.1315 C   0  0  0  0  0  0  0  0  0  0  0  0
   -2.3814   21.6385   -7.7469 C   0  0  0  0  0  0  0  0  0  0  0  0
   -2.0221   20.3461   -8.2776 O   0  0  0  0  0  0  0  0  0  0  0  0
   -1.8738   21.1973  -10.2172 H   0  0  0  0  0  0  0  0  0  0  0  0
   -2.6809   20.0717   -8.9345 H   0  0  0  0  0  0  0  0  0  0  0  0
   -4.0004   22.5876   -5.9488 C   0  0  0  0  0  0  0  0  0  0  0  0
   -2.5558   23.6066   -5.8391 S   0  0  0  0  0  0  0  0  0  0  0  0
   -2.7751   25.0803   -6.7612 C   0  0  0  0  0  0  0  0  0  0  0  0
  2  1  1  0  0  0
  3  2  1  0  0  0
  2  8  1  0  0  0
  3  4  1  0  0  0
  4  5  1  0  0  0
  5  6  2  0  0  0
  6  7  1  0  0  0
  8  7  2  0  0  0
  7 11  1  0  0  0
  8  9  1  0  0  0
  9 10  2  0  0  0
 10 11  1  0  0  0
 11 14  1  0  0  0
 17 14  1  0  0  0
 14 15  1  0  0  0
 15 19  1  0  0  0
 15 16  1  0  0  0
 17 18  1  0  0  0
 23 18  1  0  0  0
 18 19  1  0  0  0
 19 20  1  0  0  0
 23 24  1  0  0  0
 24 25  1  0  0  0
  1 12  1  0  0  0
  4 13  1  0  0  0
 16 21  1  0  0  0
 20 22  1  0  0  0
M  END
> <minimizedAffinity>
-8.02868

$$$$
3EWC_MCF_A_373


 25 27  0  0  0  0  0  0  0  0999 V2000
   -1.8821   20.1398   -8.1372 O   0  0  0  0  0  0  0  0  0  0  0  0
   -1.7612   21.5672   -8.3257 C   0  0  0  0  0  0  0  0  0  0  0  0
   -1.9259   22.4117   -7.0568 C   0  0  0  0  0  0  0  0  0  0  0  0
   -3.1220   21.9939   -6.3260 N   0  0  0  0  0  0  0  0  0  0  0  0
   -4.3956   22.2307   -6.7306 C   0  0  0  0  0  0  0  0  0  0  0  0
   -4.8342   22.4872   -7.9121 N   0  0  0  0  0  0  0  0  0  0  0  0
   -4.1384   22.5430   -9.0959 C   0  0  0  0  0  0  0  0  0  0  0  0
   -2.7434   22.0726   -9.2821 C   0  0  0  0  0  0  0  0  0  0  0  0
   -2.5195   22.2790  -10.5760 N   0  0  0  0  0  0  0  0  0  0  0  0
   -3.6463   22.7805  -11.1519 C   0  0  0  0  0  0  0  0  0  0  0  0
   -4.6421   22.9373  -10.2728 N   0  0  0  0  0  0  0  0  0  0  0  0
   -1.2167   19.8405   -7.4981 H   0  0  0  0  0  0  0  0  0  0  0  0
   -2.9941   21.5062   -5.4804 H   0  0  0  0  0  0  0  0  0  0  0  0
   -5.9600   23.4573  -10.7133 C   0  0  0  0  0  0  0  0  0  0  0  0
   -5.9877   24.1283  -12.0701 C   0  0  0  0  0  0  0  0  0  0  0  0
   -5.7421   25.5233  -11.8653 O   0  0  0  0  0  0  0  0  0  0  0  0
   -6.9775   22.4444  -10.6988 O   0  0  0  0  0  0  0  0  0  0  0  0
   -7.7303   22.5471  -11.8991 C   0  0  0  0  0  0  0  0  0  0  0  0
   -7.4277   23.9148  -12.4960 C   0  0  0  0  0  0  0  0  0  0  0  0
   -8.1878   24.9742  -11.8785 O   0  0  0  0  0  0  0  0  0  0  0  0
   -6.3792   25.8728  -11.2226 H   0  0  0  0  0  0  0  0  0  0  0  0
   -8.0161   24.9812  -10.9238 H   0  0  0  0  0  0  0  0  0  0  0  0
   -7.6446   21.3467  -12.8309 C   0  0  0  0  0  0  0  0  0  0  0  0
   -8.5868   20.0578  -12.0639 S   0  0  0  0  0  0  0  0  0  0  0  0
   -9.7646   19.4093  -13.1875 C   0  0  0  0  0  0  0  0  0  0  0  0
  2  1  1  0  0  0
  3  2  1  0  0  0
  2  8  1  0  0  0
  3  4  1  0  0  0
  4  5  1  0  0  0
  5  6  2  0  0  0
  6  7  1  0  0  0
  8  7  2  0  0  0
  7 11  1  0  0  0
  8  9  1  0  0  0
  9 10  2  0  0  0
 10 11  1  0  0  0
 11 14  1  0  0  0
 17 14  1  0  0  0
 14 15  1  0  0  0
 15 19  1  0  0  0
 15 16  1  0  0  0
 17 18  1  0  0  0
 23 18  1  0  0  0
 18 19  1  0  0  0
 19 20  1  0  0  0
 23 24  1  0  0  0
 24 25  1  0  0  0
  1 12  1  0  0  0
  4 13  1  0  0  0
 16 21  1  0  0  0
 20 22  1  0  0  0
M  END
> <minimizedAffinity>
-6.56556

$$$$
3EWC_MCF_A_373


 25 27  0  0  0  0  0  0  0  0999 V2000
   -5.7343   24.2601  -14.0560 O   0  0  0  0  0  0  0  0  0  0  0  0
   -6.2946   23.4332  -13.0120 C   0  0  0  0  0  0  0  0  0  0  0  0
   -7.5029   24.0301  -12.2812 C   0  0  0  0  0  0  0  0  0  0  0  0
   -7.2179   25.4072  -11.8792 N   0  0  0  0  0  0  0  0  0  0  0  0
   -6.3591   25.7602  -10.8893 C   0  0  0  0  0  0  0  0  0  0  0  0
   -5.3852   25.0878  -10.3859 N   0  0  0  0  0  0  0  0  0  0  0  0
   -4.9177   23.8469  -10.7472 C   0  0  0  0  0  0  0  0  0  0  0  0
   -5.3083   23.1201  -11.9806 C   0  0  0  0  0  0  0  0  0  0  0  0
   -4.5793   22.0099  -11.9269 N   0  0  0  0  0  0  0  0  0  0  0  0
   -3.7911   22.0438  -10.8177 C   0  0  0  0  0  0  0  0  0  0  0  0
   -3.9740   23.1547  -10.0956 N   0  0  0  0  0  0  0  0  0  0  0  0
   -6.4153   24.4471  -14.7209 H   0  0  0  0  0  0  0  0  0  0  0  0
   -7.6821   26.1295  -12.3609 H   0  0  0  0  0  0  0  0  0  0  0  0
   -3.1915   23.3841   -8.8562 C   0  0  0  0  0  0  0  0  0  0  0  0
   -3.6746   22.6515   -7.6225 C   0  0  0  0  0  0  0  0  0  0  0  0
   -4.5989   23.5100   -6.9466 O   0  0  0  0  0  0  0  0  0  0  0  0
   -1.7973   23.0885   -9.0298 O   0  0  0  0  0  0  0  0  0  0  0  0
   -1.3520   22.3462   -7.9033 C   0  0  0  0  0  0  0  0  0  0  0  0
   -2.3985   22.5270   -6.8121 C   0  0  0  0  0  0  0  0  0  0  0  0
   -2.2541   23.7738   -6.1010 O   0  0  0  0  0  0  0  0  0  0  0  0
   -4.1782   24.3670   -6.7752 H   0  0  0  0  0  0  0  0  0  0  0  0
   -2.2965   24.5114   -6.7296 H   0  0  0  0  0  0  0  0  0  0  0  0
   -0.8897   20.9259   -8.1959 C   0  0  0  0  0  0  0  0  0  0  0  0
   -0.1931   20.9588   -9.8241 S   0  0  0  0  0  0  0  0  0  0  0  0
    1.0767   19.7604   -9.9706 C   0  0  0  0  0  0  0  0  0  0  0  0
  2  1  1  0  0  0
  3  2  1  0  0  0
  2  8  1  0  0  0
  3  4  1  0  0  0
  4  5  1  0  0  0
  5  6  2  0  0  0
  6  7  1  0  0  0
  8  7  2  0  0  0
  7 11  1  0  0  0
  8  9  1  0  0  0
  9 10  2  0  0  0
 10 11  1  0  0  0
 11 14  1  0  0  0
 17 14  1  0  0  0
 14 15  1  0  0  0
 15 19  1  0  0  0
 15 16  1  0  0  0
 17 18  1  0  0  0
 23 18  1  0  0  0
 18 19  1  0  0  0
 19 20  1  0  0  0
 23 24  1  0  0  0
 24 25  1  0  0  0
  1 12  1  0  0  0
  4 13  1  0  0  0
 16 21  1  0  0  0
 20 22  1  0  0  0
M  END
> <minimizedAffinity>
-6.44046

$$$$
3EWC_MCF_A_373


 25 27  0  0  0  0  0  0  0  0999 V2000
   -0.7380   21.9994   -7.8108 O   0  0  0  0  0  0  0  0  0  0  0  0
   -1.7381   21.0321   -8.2004 C   0  0  0  0  0  0  0  0  0  0  0  0
   -1.4524   20.2850   -9.5083 C   0  0  0  0  0  0  0  0  0  0  0  0
   -1.0816   21.2329  -10.5586 N   0  0  0  0  0  0  0  0  0  0  0  0
   -1.9412   22.0945  -11.1592 C   0  0  0  0  0  0  0  0  0  0  0  0
   -3.0711   22.5374  -10.7338 N   0  0  0  0  0  0  0  0  0  0  0  0
   -3.6933   22.2969   -9.5322 C   0  0  0  0  0  0  0  0  0  0  0  0
   -3.0535   21.6474   -8.3614 C   0  0  0  0  0  0  0  0  0  0  0  0
   -4.0067   21.6754   -7.4355 N   0  0  0  0  0  0  0  0  0  0  0  0
   -5.1045   22.3022   -7.9403 C   0  0  0  0  0  0  0  0  0  0  0  0
   -4.9299   22.6960   -9.2065 N   0  0  0  0  0  0  0  0  0  0  0  0
    0.1195   21.5566   -7.7136 H   0  0  0  0  0  0  0  0  0  0  0  0
   -0.1415   21.2470  -10.8506 H   0  0  0  0  0  0  0  0  0  0  0  0
   -6.0097   23.4142   -9.9271 C   0  0  0  0  0  0  0  0  0  0  0  0
   -5.5894   24.1653  -11.1726 C   0  0  0  0  0  0  0  0  0  0  0  0
   -5.2538   25.4994  -10.7778 O   0  0  0  0  0  0  0  0  0  0  0  0
   -7.0997   22.5482  -10.2783 O   0  0  0  0  0  0  0  0  0  0  0  0
   -7.4789   22.8249  -11.6191 C   0  0  0  0  0  0  0  0  0  0  0  0
   -6.8725   24.1738  -11.9815 C   0  0  0  0  0  0  0  0  0  0  0  0
   -7.6481   25.2854  -11.4878 O   0  0  0  0  0  0  0  0  0  0  0  0
   -5.9988   25.8909  -10.2955 H   0  0  0  0  0  0  0  0  0  0  0  0
   -7.7445   25.2104  -10.5255 H   0  0  0  0  0  0  0  0  0  0  0  0
   -7.2772   21.6835  -12.6057 C   0  0  0  0  0  0  0  0  0  0  0  0
   -8.2686   20.3397  -12.0156 S   0  0  0  0  0  0  0  0  0  0  0  0
   -9.3718   19.7985  -13.2647 C   0  0  0  0  0  0  0  0  0  0  0  0
  2  1  1  0  0  0
  3  2  1  0  0  0
  2  8  1  0  0  0
  3  4  1  0  0  0
  4  5  1  0  0  0
  5  6  2  0  0  0
  6  7  1  0  0  0
  8  7  2  0  0  0
  7 11  1  0  0  0
  8  9  1  0  0  0
  9 10  2  0  0  0
 10 11  1  0  0  0
 11 14  1  0  0  0
 17 14  1  0  0  0
 14 15  1  0  0  0
 15 19  1  0  0  0
 15 16  1  0  0  0
 17 18  1  0  0  0
 23 18  1  0  0  0
 18 19  1  0  0  0
 19 20  1  0  0  0
 23 24  1  0  0  0
 24 25  1  0  0  0
  1 12  1  0  0  0
  4 13  1  0  0  0
 16 21  1  0  0  0
 20 22  1  0  0  0
M  END
> <minimizedAffinity>
-5.63062

$$$$
