3KV2_NNH_A_901
  RCSB PDB12061709313D
Coordinates from PDB:3KV2:A:901 Model:1 without hydrogens
 12 11  0  0  0  0            999 V2000
   25.9850   -9.8980   -2.9660   N 0  0  0  0  0  0  0  0  0  0  0  0
   25.5890   -9.8810   -4.3640   C 0  0  0  0  0  0  0  0  0  0  0  0
   24.1130   -9.4890   -4.5470   C 0  0  0  0  0  0  0  0  0  0  0  0
   23.3360   -9.2110   -3.6570   O 0  0  0  0  0  0  0  0  0  0  0  0
   25.8450  -11.2720   -4.9030   C 0  0  0  0  0  0  0  0  0  0  0  0
   25.0820  -12.5130   -4.5800   C 0  0  0  0  0  0  0  0  0  0  0  0
   25.3350  -13.6680   -5.4720   N 0  0  0  0  0  0  0  0  0  0  0  0
   25.3700  -14.9930   -5.1650   C 0  0  0  0  0  0  0  0  0  0  0  0
   25.1380  -15.4010   -3.8210   N 0  0  0  0  0  0  0  0  0  0  0  0
   25.6130  -15.9740   -6.0600   N 0  0  0  0  0  0  0  0  0  0  0  0
   25.1690  -16.6460   -3.5170   O 0  0  0  0  0  0  0  0  0  0  0  0
   23.7530   -9.4850   -5.8500   O 0  0  0  0  0  0  0  0  0  0  0  0
  1  2  1  0  0  0  0
  2  3  1  0  0  0  0
  2  5  1  0  0  0  0
  3  4  2  0  0  0  0
  3 12  1  0  0  0  0
  5  6  1  0  0  0  0
  6  7  1  0  0  0  0
  7  8  1  0  0  0  0
  8  9  1  0  0  0  0
  8 10  2  0  0  0  0
  9 11  1  0  0  0  0
A    1
N
A    2
CA
A    3
C
A    4
O
A    5
CB
A    6
CG
A    7
ND
A    8
CE
A    9
NH1
A   10
NH2
A   11
OH1
A   12
OXT
M  END
>  <InstanceId>
3KV2_NNH_A_901

>  <ChemCompId>
NNH

>  <PdbId>
3KV2

>  <ChainId>
A

>  <ResidueNumber>
901

>  <InsertionCode>


>  <Model>
1

>  <AltIds>


>  <MissingHeavyAtoms>
0

>  <ObservedFormula>
C5 N4 O3

>  <Name>
NOR-N-OMEGA-HYDROXY-L-ARGININE

>  <SystematicName>
(2S)-2-amino-4-[(N-hydroxycarbamimidoyl)amino]butanoic acid

>  <Synonyms>


>  <Type>
L-PEPTIDE LINKING

>  <Formula>
C5 H12 N4 O3

>  <MolecularWeight>
176.174

>  <ModifiedDate>
2011-06-04

>  <Parent>
ARG

>  <OneLetterCode>
R

>  <SubcomponentList>


>  <AmbiguousFlag>
N

>  <InChI>
InChI=1S/C5H12N4O3/c6-3(4(10)11)1-2-8-5(7)9-12/h3,12H,1-2,6H2,(H,10,11)(H3,7,8,9)/t3-/m0/s1

>  <InChIKey>
KOBHCUDVWOTEKO-VKHMYHEASA-N

>  <SMILES>
[H]/N=C(/NCC[C@@H](C(=O)O)N)\NO

$$$$
