3KV2_NNH_A_901


 19 18  0  0  0  0  0  0  0  0999 V2000
   25.2413  -13.1938   -4.5879 C   0  0  0  0  0  0  0  0  0  0  0  0
   24.2315  -14.2760   -4.5354 N   0  0  0  0  0  0  0  0  0  0  0  0
   23.3165  -13.9924   -4.3083 H   0  0  0  0  0  0  0  0  0  0  0  0
   24.3947  -15.6083   -4.7579 C   0  0  0  0  0  0  0  0  0  0  0  0
   23.4970  -16.5529   -4.4054 N   0  0  0  0  0  0  0  0  0  0  0  0
   22.6597  -16.2935   -3.9572 H   0  0  0  0  0  0  0  0  0  0  0  0
   25.5796  -16.0650   -5.4015 N   0  0  0  0  0  0  0  0  0  0  0  0
   25.5956  -17.2142   -5.9693 O   0  0  0  0  0  0  0  0  0  0  0  0
   26.3853  -15.4994   -5.4104 H   0  0  0  0  0  0  0  0  0  0  0  0
   24.7283  -17.6368   -5.8686 H   0  0  0  0  0  0  0  0  0  0  0  0
   24.8542  -11.9200   -3.9139 C   0  0  0  0  0  0  0  0  0  0  0  0
   24.3836  -10.6021   -1.9901 N   0  0  0  0  0  0  0  0  0  0  0  0
   25.4461  -11.3468   -2.6442 C   0  0  0  0  0  0  0  0  0  0  0  0
   24.7371  -10.1948   -1.1243 H   0  0  0  0  0  0  0  0  0  0  0  0
   23.6084  -11.2304   -1.7785 H   0  0  0  0  0  0  0  0  0  0  0  0
   26.6659  -10.4652   -2.9615 C   0  0  0  0  0  0  0  0  0  0  0  0
   27.0680  -10.1811   -4.0708 O   0  0  0  0  0  0  0  0  0  0  0  0
   27.2697  -10.0208   -1.8366 O   0  0  0  0  0  0  0  0  0  0  0  0
   26.9307  -10.2610   -0.9967 H   0  0  0  0  0  0  0  0  0  0  0  0
 12 13  1  0  0  0
 13 16  1  0  0  0
 13 11  1  0  0  0
 16 17  2  0  0  0
 16 18  1  0  0  0
 11  1  1  0  0  0
  1  2  1  0  0  0
  2  4  1  0  0  0
  4  7  1  0  0  0
  4  5  2  0  0  0
  7  8  1  0  0  0
 12 14  1  0  0  0
 12 15  1  0  0  0
  2  3  1  0  0  0
  7  9  1  0  0  0
  5  6  1  0  0  0
  8 10  1  0  0  0
 18 19  1  0  0  0
M  END
> <minimizedAffinity>
-7.59762

$$$$
3KV2_NNH_A_901


 19 18  0  0  0  0  0  0  0  0999 V2000
   25.5762  -13.6479   -5.2024 C   0  0  0  0  0  0  0  0  0  0  0  0
   24.5499  -14.5820   -4.6850 N   0  0  0  0  0  0  0  0  0  0  0  0
   23.8150  -14.1671   -4.1780 H   0  0  0  0  0  0  0  0  0  0  0  0
   24.4832  -15.9348   -4.8140 C   0  0  0  0  0  0  0  0  0  0  0  0
   23.4135  -16.6796   -4.4627 N   0  0  0  0  0  0  0  0  0  0  0  0
   22.6138  -16.2458   -4.0863 H   0  0  0  0  0  0  0  0  0  0  0  0
   25.5992  -16.6373   -5.3503 N   0  0  0  0  0  0  0  0  0  0  0  0
   25.5836  -17.0231   -6.5728 O   0  0  0  0  0  0  0  0  0  0  0  0
   26.3815  -16.8265   -4.7835 H   0  0  0  0  0  0  0  0  0  0  0  0
   24.7465  -16.7581   -6.9848 H   0  0  0  0  0  0  0  0  0  0  0  0
   25.1920  -12.2060   -5.2014 C   0  0  0  0  0  0  0  0  0  0  0  0
   25.0100  -12.0203   -2.8367 N   0  0  0  0  0  0  0  0  0  0  0  0
   25.2748  -11.2437   -4.0361 C   0  0  0  0  0  0  0  0  0  0  0  0
   25.0552  -11.4107   -2.0201 H   0  0  0  0  0  0  0  0  0  0  0  0
   25.7080  -12.7588   -2.7488 H   0  0  0  0  0  0  0  0  0  0  0  0
   24.2773  -10.0865   -4.2132 C   0  0  0  0  0  0  0  0  0  0  0  0
   24.0339   -9.2262   -3.3924 O   0  0  0  0  0  0  0  0  0  0  0  0
   23.6745  -10.1247   -5.4226 O   0  0  0  0  0  0  0  0  0  0  0  0
   23.8879  -10.8045   -6.0312 H   0  0  0  0  0  0  0  0  0  0  0  0
 12 13  1  0  0  0
 13 16  1  0  0  0
 13 11  1  0  0  0
 16 17  2  0  0  0
 16 18  1  0  0  0
 11  1  1  0  0  0
  1  2  1  0  0  0
  2  4  1  0  0  0
  4  7  1  0  0  0
  4  5  2  0  0  0
  7  8  1  0  0  0
 12 14  1  0  0  0
 12 15  1  0  0  0
  2  3  1  0  0  0
  7  9  1  0  0  0
  5  6  1  0  0  0
  8 10  1  0  0  0
 18 19  1  0  0  0
M  END
> <minimizedAffinity>
-7.48267

$$$$
3KV2_NNH_A_901


 19 18  0  0  0  0  0  0  0  0999 V2000
   25.2124  -13.0081   -4.5615 C   0  0  0  0  0  0  0  0  0  0  0  0
   25.4857  -14.2459   -5.3276 N   0  0  0  0  0  0  0  0  0  0  0  0
   26.0752  -14.1402   -6.1090 H   0  0  0  0  0  0  0  0  0  0  0  0
   25.0339  -15.5089   -5.0998 C   0  0  0  0  0  0  0  0  0  0  0  0
   25.7026  -16.6290   -5.4471 N   0  0  0  0  0  0  0  0  0  0  0  0
   26.5767  -16.5616   -5.8950 H   0  0  0  0  0  0  0  0  0  0  0  0
   23.7773  -15.6916   -4.4562 N   0  0  0  0  0  0  0  0  0  0  0  0
   23.2218  -16.8469   -4.4560 O   0  0  0  0  0  0  0  0  0  0  0  0
   23.3357  -14.9321   -4.0120 H   0  0  0  0  0  0  0  0  0  0  0  0
   23.7849  -17.4766   -4.9328 H   0  0  0  0  0  0  0  0  0  0  0  0
   25.0766  -11.7649   -5.3757 C   0  0  0  0  0  0  0  0  0  0  0  0
   23.5946  -10.5769   -6.8080 N   0  0  0  0  0  0  0  0  0  0  0  0
   23.8918  -10.8235   -5.4072 C   0  0  0  0  0  0  0  0  0  0  0  0
   22.7982   -9.9437   -6.8802 H   0  0  0  0  0  0  0  0  0  0  0  0
   23.3704  -11.4590   -7.2685 H   0  0  0  0  0  0  0  0  0  0  0  0
   24.2055   -9.5273   -4.6408 C   0  0  0  0  0  0  0  0  0  0  0  0
   24.2860   -8.4173   -5.1251 O   0  0  0  0  0  0  0  0  0  0  0  0
   24.3900   -9.7569   -3.3215 O   0  0  0  0  0  0  0  0  0  0  0  0
   24.3200  -10.6279   -2.9832 H   0  0  0  0  0  0  0  0  0  0  0  0
 12 13  1  0  0  0
 13 16  1  0  0  0
 13 11  1  0  0  0
 16 17  2  0  0  0
 16 18  1  0  0  0
 11  1  1  0  0  0
  1  2  1  0  0  0
  2  4  1  0  0  0
  4  7  1  0  0  0
  4  5  2  0  0  0
  7  8  1  0  0  0
 12 14  1  0  0  0
 12 15  1  0  0  0
  2  3  1  0  0  0
  7  9  1  0  0  0
  5  6  1  0  0  0
  8 10  1  0  0  0
 18 19  1  0  0  0
M  END
> <minimizedAffinity>
-7.38477

$$$$
3KV2_NNH_A_901


 19 18  0  0  0  0  0  0  0  0999 V2000
   24.8683  -13.0987   -4.8880 C   0  0  0  0  0  0  0  0  0  0  0  0
   25.5626  -14.3976   -5.0441 N   0  0  0  0  0  0  0  0  0  0  0  0
   26.5338  -14.3443   -5.1964 H   0  0  0  0  0  0  0  0  0  0  0  0
   25.0427  -15.6543   -5.0059 C   0  0  0  0  0  0  0  0  0  0  0  0
   25.6831  -16.7553   -5.4534 N   0  0  0  0  0  0  0  0  0  0  0  0
   26.5863  -16.6775   -5.8372 H   0  0  0  0  0  0  0  0  0  0  0  0
   23.7405  -15.8512   -4.4654 N   0  0  0  0  0  0  0  0  0  0  0  0
   23.3155  -17.0394   -4.2398 O   0  0  0  0  0  0  0  0  0  0  0  0
   23.1673  -15.0761   -4.2652 H   0  0  0  0  0  0  0  0  0  0  0  0
   23.9988  -17.6803   -4.4908 H   0  0  0  0  0  0  0  0  0  0  0  0
   25.3369  -12.2516   -3.7525 C   0  0  0  0  0  0  0  0  0  0  0  0
   26.8174  -10.5011   -3.1171 N   0  0  0  0  0  0  0  0  0  0  0  0
   25.5384  -10.7515   -3.7599 C   0  0  0  0  0  0  0  0  0  0  0  0
   26.9979   -9.4974   -3.0985 H   0  0  0  0  0  0  0  0  0  0  0  0
   27.5578  -10.9700   -3.6391 H   0  0  0  0  0  0  0  0  0  0  0  0
   24.3771  -10.0423   -3.0429 C   0  0  0  0  0  0  0  0  0  0  0  0
   23.6978   -9.1480   -3.5033 O   0  0  0  0  0  0  0  0  0  0  0  0
   24.1807  -10.5338   -1.7990 O   0  0  0  0  0  0  0  0  0  0  0  0
   24.7252  -11.2251   -1.4770 H   0  0  0  0  0  0  0  0  0  0  0  0
 12 13  1  0  0  0
 13 16  1  0  0  0
 13 11  1  0  0  0
 16 17  2  0  0  0
 16 18  1  0  0  0
 11  1  1  0  0  0
  1  2  1  0  0  0
  2  4  1  0  0  0
  4  7  1  0  0  0
  4  5  2  0  0  0
  7  8  1  0  0  0
 12 14  1  0  0  0
 12 15  1  0  0  0
  2  3  1  0  0  0
  7  9  1  0  0  0
  5  6  1  0  0  0
  8 10  1  0  0  0
 18 19  1  0  0  0
M  END
> <minimizedAffinity>
-7.35815

$$$$
3KV2_NNH_A_901


 19 18  0  0  0  0  0  0  0  0999 V2000
   26.1660  -10.0751   -4.6054 C   0  0  0  0  0  0  0  0  0  0  0  0
   25.5484  -10.0332   -3.2598 N   0  0  0  0  0  0  0  0  0  0  0  0
   24.8797   -9.3240   -3.1214 H   0  0  0  0  0  0  0  0  0  0  0  0
   25.7782  -10.8402   -2.1888 C   0  0  0  0  0  0  0  0  0  0  0  0
   24.8812  -11.7189   -1.6934 N   0  0  0  0  0  0  0  0  0  0  0  0
   23.9944  -11.8059   -2.1121 H   0  0  0  0  0  0  0  0  0  0  0  0
   27.0370  -10.7746   -1.5271 N   0  0  0  0  0  0  0  0  0  0  0  0
   27.7447   -9.7085   -1.6047 O   0  0  0  0  0  0  0  0  0  0  0  0
   27.3635  -11.5467   -1.0109 H   0  0  0  0  0  0  0  0  0  0  0  0
   27.2806   -9.0511   -2.1464 H   0  0  0  0  0  0  0  0  0  0  0  0
   26.6989  -11.4035   -5.0271 C   0  0  0  0  0  0  0  0  0  0  0  0
   25.0172  -11.6401   -6.6930 N   0  0  0  0  0  0  0  0  0  0  0  0
   26.0570  -12.3756   -5.9935 C   0  0  0  0  0  0  0  0  0  0  0  0
   24.5535  -12.2576   -7.3594 H   0  0  0  0  0  0  0  0  0  0  0  0
   25.4336  -10.8535   -7.1913 H   0  0  0  0  0  0  0  0  0  0  0  0
   25.5027  -13.6004   -5.2464 C   0  0  0  0  0  0  0  0  0  0  0  0
   25.7493  -14.7608   -5.5030 O   0  0  0  0  0  0  0  0  0  0  0  0
   24.6804  -13.2413   -4.2353 O   0  0  0  0  0  0  0  0  0  0  0  0
   24.5132  -12.3349   -4.0668 H   0  0  0  0  0  0  0  0  0  0  0  0
 12 13  1  0  0  0
 13 16  1  0  0  0
 13 11  1  0  0  0
 16 17  2  0  0  0
 16 18  1  0  0  0
 11  1  1  0  0  0
  1  2  1  0  0  0
  2  4  1  0  0  0
  4  7  1  0  0  0
  4  5  2  0  0  0
  7  8  1  0  0  0
 12 14  1  0  0  0
 12 15  1  0  0  0
  2  3  1  0  0  0
  7  9  1  0  0  0
  5  6  1  0  0  0
  8 10  1  0  0  0
 18 19  1  0  0  0
M  END
> <minimizedAffinity>
-6.58781

$$$$
3KV2_NNH_A_901


 19 18  0  0  0  0  0  0  0  0999 V2000
   25.3242  -13.0367   -5.1191 C   0  0  0  0  0  0  0  0  0  0  0  0
   24.5263  -14.1699   -4.5965 N   0  0  0  0  0  0  0  0  0  0  0  0
   23.8108  -13.9296   -3.9645 H   0  0  0  0  0  0  0  0  0  0  0  0
   24.6464  -15.4972   -4.8700 C   0  0  0  0  0  0  0  0  0  0  0  0
   25.7527  -16.0683   -5.3920 N   0  0  0  0  0  0  0  0  0  0  0  0
   26.5409  -15.5158   -5.5989 H   0  0  0  0  0  0  0  0  0  0  0  0
   23.5502  -16.3642   -4.5992 N   0  0  0  0  0  0  0  0  0  0  0  0
   23.7443  -17.6274   -4.4995 O   0  0  0  0  0  0  0  0  0  0  0  0
   22.6446  -15.9943   -4.4888 H   0  0  0  0  0  0  0  0  0  0  0  0
   24.6851  -17.8216   -4.6341 H   0  0  0  0  0  0  0  0  0  0  0  0
   24.8135  -11.6778   -4.7742 C   0  0  0  0  0  0  0  0  0  0  0  0
   22.9880  -10.5920   -5.8457 N   0  0  0  0  0  0  0  0  0  0  0  0
   24.4372  -10.5755   -5.7408 C   0  0  0  0  0  0  0  0  0  0  0  0
   22.6855   -9.8618   -6.4904 H   0  0  0  0  0  0  0  0  0  0  0  0
   22.5786  -10.4250   -4.9266 H   0  0  0  0  0  0  0  0  0  0  0  0
   25.1226  -10.7866   -7.1014 C   0  0  0  0  0  0  0  0  0  0  0  0
   26.3073  -10.6526   -7.3288 O   0  0  0  0  0  0  0  0  0  0  0  0
   24.2386  -11.1508   -8.0571 O   0  0  0  0  0  0  0  0  0  0  0  0
   23.3309  -11.2444   -7.8445 H   0  0  0  0  0  0  0  0  0  0  0  0
 12 13  1  0  0  0
 13 16  1  0  0  0
 13 11  1  0  0  0
 16 17  2  0  0  0
 16 18  1  0  0  0
 11  1  1  0  0  0
  1  2  1  0  0  0
  2  4  1  0  0  0
  4  7  1  0  0  0
  4  5  2  0  0  0
  7  8  1  0  0  0
 12 14  1  0  0  0
 12 15  1  0  0  0
  2  3  1  0  0  0
  7  9  1  0  0  0
  5  6  1  0  0  0
  8 10  1  0  0  0
 18 19  1  0  0  0
M  END
> <minimizedAffinity>
-6.58581

$$$$
3KV2_NNH_A_901


 19 18  0  0  0  0  0  0  0  0999 V2000
   24.9169  -10.4523   -6.2952 C   0  0  0  0  0  0  0  0  0  0  0  0
   24.8741   -8.9721   -6.2660 N   0  0  0  0  0  0  0  0  0  0  0  0
   24.5029   -8.5421   -7.0701 H   0  0  0  0  0  0  0  0  0  0  0  0
   25.2772   -8.1251   -5.2806 C   0  0  0  0  0  0  0  0  0  0  0  0
   26.5609   -7.9650   -4.8945 N   0  0  0  0  0  0  0  0  0  0  0  0
   27.2753   -8.4793   -5.3352 H   0  0  0  0  0  0  0  0  0  0  0  0
   24.3042   -7.3450   -4.5939 N   0  0  0  0  0  0  0  0  0  0  0  0
   23.1638   -7.8550   -4.3063 O   0  0  0  0  0  0  0  0  0  0  0  0
   24.5068   -6.4156   -4.3404 H   0  0  0  0  0  0  0  0  0  0  0  0
   23.1295   -8.7706   -4.6246 H   0  0  0  0  0  0  0  0  0  0  0  0
   24.3938  -11.1348   -5.0757 C   0  0  0  0  0  0  0  0  0  0  0  0
   24.9947  -13.0815   -3.8473 N   0  0  0  0  0  0  0  0  0  0  0  0
   25.2019  -11.6442   -3.9017 C   0  0  0  0  0  0  0  0  0  0  0  0
   25.5229  -13.4718   -3.0669 H   0  0  0  0  0  0  0  0  0  0  0  0
   25.3138  -13.5041   -4.7191 H   0  0  0  0  0  0  0  0  0  0  0  0
   24.7736  -10.9440   -2.6009 C   0  0  0  0  0  0  0  0  0  0  0  0
   24.3798   -9.7999   -2.5062 O   0  0  0  0  0  0  0  0  0  0  0  0
   24.8841  -11.7627   -1.5308 O   0  0  0  0  0  0  0  0  0  0  0  0
   25.1921  -12.6406   -1.6424 H   0  0  0  0  0  0  0  0  0  0  0  0
 12 13  1  0  0  0
 13 16  1  0  0  0
 13 11  1  0  0  0
 16 17  2  0  0  0
 16 18  1  0  0  0
 11  1  1  0  0  0
  1  2  1  0  0  0
  2  4  1  0  0  0
  4  7  1  0  0  0
  4  5  2  0  0  0
  7  8  1  0  0  0
 12 14  1  0  0  0
 12 15  1  0  0  0
  2  3  1  0  0  0
  7  9  1  0  0  0
  5  6  1  0  0  0
  8 10  1  0  0  0
 18 19  1  0  0  0
M  END
> <minimizedAffinity>
-6.48307

$$$$
3KV2_NNH_A_901


 19 18  0  0  0  0  0  0  0  0999 V2000
   24.9578  -11.5092   -4.9352 C   0  0  0  0  0  0  0  0  0  0  0  0
   24.9692  -11.8617   -3.4967 N   0  0  0  0  0  0  0  0  0  0  0  0
   24.7791  -12.8051   -3.2891 H   0  0  0  0  0  0  0  0  0  0  0  0
   25.2062  -11.0608   -2.4227 C   0  0  0  0  0  0  0  0  0  0  0  0
   24.2860  -10.2454   -1.8653 N   0  0  0  0  0  0  0  0  0  0  0  0
   23.3749  -10.2052   -2.2361 H   0  0  0  0  0  0  0  0  0  0  0  0
   26.4996  -11.0611   -1.8279 N   0  0  0  0  0  0  0  0  0  0  0  0
   27.2217  -10.0026   -1.8686 O   0  0  0  0  0  0  0  0  0  0  0  0
   26.8390  -11.8728   -1.3861 H   0  0  0  0  0  0  0  0  0  0  0  0
   26.7415   -9.3015   -2.3363 H   0  0  0  0  0  0  0  0  0  0  0  0
   24.2958  -10.2158   -5.2750 C   0  0  0  0  0  0  0  0  0  0  0  0
   26.1367   -8.9613   -4.4403 N   0  0  0  0  0  0  0  0  0  0  0  0
   24.9121   -8.8348   -5.2122 C   0  0  0  0  0  0  0  0  0  0  0  0
   26.5902   -8.0503   -4.3705 H   0  0  0  0  0  0  0  0  0  0  0  0
   26.7641   -9.6188   -4.9035 H   0  0  0  0  0  0  0  0  0  0  0  0
   23.9309   -7.8283   -4.5878 C   0  0  0  0  0  0  0  0  0  0  0  0
   22.9125   -8.1066   -3.9889 O   0  0  0  0  0  0  0  0  0  0  0  0
   24.3317   -6.5517   -4.7804 O   0  0  0  0  0  0  0  0  0  0  0  0
   25.1242   -6.3750   -5.2480 H   0  0  0  0  0  0  0  0  0  0  0  0
 12 13  1  0  0  0
 13 16  1  0  0  0
 13 11  1  0  0  0
 16 17  2  0  0  0
 16 18  1  0  0  0
 11  1  1  0  0  0
  1  2  1  0  0  0
  2  4  1  0  0  0
  4  7  1  0  0  0
  4  5  2  0  0  0
  7  8  1  0  0  0
 12 14  1  0  0  0
 12 15  1  0  0  0
  2  3  1  0  0  0
  7  9  1  0  0  0
  5  6  1  0  0  0
  8 10  1  0  0  0
 18 19  1  0  0  0
M  END
> <minimizedAffinity>
-6.42322

$$$$
3KV2_NNH_A_901


 19 18  0  0  0  0  0  0  0  0999 V2000
   24.8575   -9.7051   -5.4734 C   0  0  0  0  0  0  0  0  0  0  0  0
   24.4413   -8.8877   -4.3104 N   0  0  0  0  0  0  0  0  0  0  0  0
   25.0008   -8.9788   -3.5055 H   0  0  0  0  0  0  0  0  0  0  0  0
   23.3922   -8.0284   -4.2018 C   0  0  0  0  0  0  0  0  0  0  0  0
   23.4872   -6.6904   -4.3546 N   0  0  0  0  0  0  0  0  0  0  0  0
   24.3579   -6.2789   -4.5590 H   0  0  0  0  0  0  0  0  0  0  0  0
   22.0986   -8.5450   -3.9077 N   0  0  0  0  0  0  0  0  0  0  0  0
   21.4596   -9.2114   -4.7970 O   0  0  0  0  0  0  0  0  0  0  0  0
   21.6955   -8.3907   -3.0229 H   0  0  0  0  0  0  0  0  0  0  0  0
   21.9949   -9.2700   -5.6038 H   0  0  0  0  0  0  0  0  0  0  0  0
   24.4289  -11.1341   -5.4412 C   0  0  0  0  0  0  0  0  0  0  0  0
   25.6567  -11.5067   -3.4379 N   0  0  0  0  0  0  0  0  0  0  0  0
   24.7657  -12.1607   -4.3812 C   0  0  0  0  0  0  0  0  0  0  0  0
   25.9126  -12.1634   -2.7005 H   0  0  0  0  0  0  0  0  0  0  0  0
   25.1848  -10.7011   -3.0270 H   0  0  0  0  0  0  0  0  0  0  0  0
   25.4025  -13.4092   -5.0149 C   0  0  0  0  0  0  0  0  0  0  0  0
   26.2495  -13.4114   -5.8841 O   0  0  0  0  0  0  0  0  0  0  0  0
   24.9046  -14.5493   -4.4861 O   0  0  0  0  0  0  0  0  0  0  0  0
   24.2510  -14.5086   -3.8160 H   0  0  0  0  0  0  0  0  0  0  0  0
 12 13  1  0  0  0
 13 16  1  0  0  0
 13 11  1  0  0  0
 16 17  2  0  0  0
 16 18  1  0  0  0
 11  1  1  0  0  0
  1  2  1  0  0  0
  2  4  1  0  0  0
  4  7  1  0  0  0
  4  5  2  0  0  0
  7  8  1  0  0  0
 12 14  1  0  0  0
 12 15  1  0  0  0
  2  3  1  0  0  0
  7  9  1  0  0  0
  5  6  1  0  0  0
  8 10  1  0  0  0
 18 19  1  0  0  0
M  END
> <minimizedAffinity>
-6.41007

$$$$
3KV2_NNH_A_901


 19 18  0  0  0  0  0  0  0  0999 V2000
   25.8561  -11.9819   -4.6977 C   0  0  0  0  0  0  0  0  0  0  0  0
   25.1983  -11.9778   -3.3707 N   0  0  0  0  0  0  0  0  0  0  0  0
   24.6137  -12.7476   -3.1842 H   0  0  0  0  0  0  0  0  0  0  0  0
   25.2909  -11.0562   -2.3741 C   0  0  0  0  0  0  0  0  0  0  0  0
   24.2907  -10.2245   -2.0132 N   0  0  0  0  0  0  0  0  0  0  0  0
   23.4255  -10.2628   -2.4814 H   0  0  0  0  0  0  0  0  0  0  0  0
   26.5099  -10.9381   -1.6483 N   0  0  0  0  0  0  0  0  0  0  0  0
   27.3525  -10.0235   -1.9595 O   0  0  0  0  0  0  0  0  0  0  0  0
   26.7054  -11.5577   -0.9087 H   0  0  0  0  0  0  0  0  0  0  0  0
   27.0074   -9.5053   -2.7034 H   0  0  0  0  0  0  0  0  0  0  0  0
   26.1994  -10.6386   -5.2493 C   0  0  0  0  0  0  0  0  0  0  0  0
   24.1287   -9.4703   -5.1682 N   0  0  0  0  0  0  0  0  0  0  0  0
   25.2836   -9.7097   -6.0170 C   0  0  0  0  0  0  0  0  0  0  0  0
   23.4792   -8.8457   -5.6460 H   0  0  0  0  0  0  0  0  0  0  0  0
   24.4323   -9.0412   -4.2941 H   0  0  0  0  0  0  0  0  0  0  0  0
   24.8939  -10.3256   -7.3714 C   0  0  0  0  0  0  0  0  0  0  0  0
   25.6306  -10.4685   -8.3253 O   0  0  0  0  0  0  0  0  0  0  0  0
   23.5972  -10.7070   -7.3944 O   0  0  0  0  0  0  0  0  0  0  0  0
   23.0582  -10.5809   -6.6383 H   0  0  0  0  0  0  0  0  0  0  0  0
 12 13  1  0  0  0
 13 16  1  0  0  0
 13 11  1  0  0  0
 16 17  2  0  0  0
 16 18  1  0  0  0
 11  1  1  0  0  0
  1  2  1  0  0  0
  2  4  1  0  0  0
  4  7  1  0  0  0
  4  5  2  0  0  0
  7  8  1  0  0  0
 12 14  1  0  0  0
 12 15  1  0  0  0
  2  3  1  0  0  0
  7  9  1  0  0  0
  5  6  1  0  0  0
  8 10  1  0  0  0
 18 19  1  0  0  0
M  END
> <minimizedAffinity>
-6.37930

$$$$
