2R2W_4PG_U_300


 23 24  0  0  0  0  0  0  0  0999 V2000
   31.7722    5.8508   28.0273 C   0  0  0  0  0  0  0  0  0  0  0  0
   31.0416    6.9863   27.5487 C   0  0  0  0  0  0  0  0  0  0  0  0
   31.2426    5.0912   29.1018 C   0  0  0  0  0  0  0  0  0  0  0  0
   29.8045    7.3502   28.1384 C   0  0  0  0  0  0  0  0  0  0  0  0
   29.2580    6.5976   29.2177 C   0  0  0  0  0  0  0  0  0  0  0  0
   29.9952    5.4561   29.6988 C   0  0  0  0  0  0  0  0  0  0  0  0
   32.9660    5.4820   27.4481 N   0  0  0  0  0  0  0  0  0  0  0  0
   33.1906    5.9448   26.6087 H   0  0  0  0  0  0  0  0  0  0  0  0
   33.8393    4.6062   27.8561 C   0  0  0  0  0  0  0  0  0  0  0  0
   33.4232    3.4003   27.9228 N   0  0  0  0  0  0  0  0  0  0  0  0
   35.0579    4.8454   28.1771 N   0  0  0  0  0  0  0  0  0  0  0  0
   34.0304    2.6860   28.2234 H   0  0  0  0  0  0  0  0  0  0  0  0
   32.4954    3.1852   27.6735 H   0  0  0  0  0  0  0  0  0  0  0  0
   35.6416    4.1109   28.4752 H   0  0  0  0  0  0  0  0  0  0  0  0
   27.8977    7.0488   29.8159 C   0  0  0  0  0  0  0  0  0  0  0  0
   26.9533    7.7140   28.8265 C   0  0  0  0  0  0  0  0  0  0  0  0
   26.2382    6.9856   28.1487 O   0  0  0  0  0  0  0  0  0  0  0  0
   26.8682    9.2326   28.6511 C   0  0  0  0  0  0  0  0  0  0  0  0
   25.8373    9.7951   27.8338 C   0  0  0  0  0  0  0  0  0  0  0  0
   25.7392   11.2041   27.6552 C   0  0  0  0  0  0  0  0  0  0  0  0
   26.6725   12.0740   28.2960 C   0  0  0  0  0  0  0  0  0  0  0  0
   27.7006   11.5310   29.1116 C   0  0  0  0  0  0  0  0  0  0  0  0
   27.8003   10.1197   29.2915 C   0  0  0  0  0  0  0  0  0  0  0  0
 10  9  1  0  0  0
  3  6  2  0  0  0
  3  1  1  0  0  0
  9 11  2  0  0  0
  9  7  1  0  0  0
  7  1  1  0  0  0
 17 16  2  0  0  0
  6  5  1  0  0  0
  1  2  2  0  0  0
 16 15  1  0  0  0
 16 18  1  0  0  0
  5 15  1  0  0  0
  5  4  2  0  0  0
  2  4  1  0  0  0
 19 18  2  0  0  0
 19 20  1  0  0  0
 18 23  1  0  0  0
 20 21  2  0  0  0
 23 22  2  0  0  0
 21 22  1  0  0  0
  7  8  1  0  0  0
 10 12  1  0  0  0
 10 13  1  0  0  0
 11 14  1  0  0  0
M  END
> <minimizedAffinity>
-7.95503

$$$$
2R2W_4PG_U_300


 23 24  0  0  0  0  0  0  0  0999 V2000
   31.9228    5.8896   28.2776 C   0  0  0  0  0  0  0  0  0  0  0  0
   31.3608    5.0806   29.3179 C   0  0  0  0  0  0  0  0  0  0  0  0
   31.1363    6.9208   27.7031 C   0  0  0  0  0  0  0  0  0  0  0  0
   30.0357    5.3039   29.7704 C   0  0  0  0  0  0  0  0  0  0  0  0
   29.2325    6.3359   29.2047 C   0  0  0  0  0  0  0  0  0  0  0  0
   29.7992    7.1480   28.1573 C   0  0  0  0  0  0  0  0  0  0  0  0
   33.2148    5.6890   27.8450 N   0  0  0  0  0  0  0  0  0  0  0  0
   33.6221    6.4442   27.3624 H   0  0  0  0  0  0  0  0  0  0  0  0
   33.9727    4.6394   27.9856 C   0  0  0  0  0  0  0  0  0  0  0  0
   33.3925    3.5129   27.8241 N   0  0  0  0  0  0  0  0  0  0  0  0
   35.2270    4.6420   28.2536 N   0  0  0  0  0  0  0  0  0  0  0  0
   33.9053    2.6775   27.9156 H   0  0  0  0  0  0  0  0  0  0  0  0
   32.4326    3.4801   27.6081 H   0  0  0  0  0  0  0  0  0  0  0  0
   35.7137    3.7906   28.3402 H   0  0  0  0  0  0  0  0  0  0  0  0
   27.7907    6.5287   29.7484 C   0  0  0  0  0  0  0  0  0  0  0  0
   26.9081    7.4414   28.9110 C   0  0  0  0  0  0  0  0  0  0  0  0
   26.1804    6.9161   28.0768 O   0  0  0  0  0  0  0  0  0  0  0  0
   26.8990    8.9641   29.0705 C   0  0  0  0  0  0  0  0  0  0  0  0
   27.5422    9.5624   30.1999 C   0  0  0  0  0  0  0  0  0  0  0  0
   27.5455   10.9759   30.3696 C   0  0  0  0  0  0  0  0  0  0  0  0
   26.9055   11.8144   29.4075 C   0  0  0  0  0  0  0  0  0  0  0  0
   26.2640   11.2356   28.2804 C   0  0  0  0  0  0  0  0  0  0  0  0
   26.2597    9.8198   28.1088 C   0  0  0  0  0  0  0  0  0  0  0  0
 10  9  1  0  0  0
  3  6  2  0  0  0
  3  1  1  0  0  0
  9 11  2  0  0  0
  9  7  1  0  0  0
  7  1  1  0  0  0
 17 16  2  0  0  0
  6  5  1  0  0  0
  1  2  2  0  0  0
 16 15  1  0  0  0
 16 18  1  0  0  0
  5 15  1  0  0  0
  5  4  2  0  0  0
  2  4  1  0  0  0
 19 18  2  0  0  0
 19 20  1  0  0  0
 18 23  1  0  0  0
 20 21  2  0  0  0
 23 22  2  0  0  0
 21 22  1  0  0  0
  7  8  1  0  0  0
 10 12  1  0  0  0
 10 13  1  0  0  0
 11 14  1  0  0  0
M  END
> <minimizedAffinity>
-7.91536

$$$$
2R2W_4PG_U_300


 23 24  0  0  0  0  0  0  0  0999 V2000
   31.7549    5.3552   28.7668 C   0  0  0  0  0  0  0  0  0  0  0  0
   31.6542    6.5041   27.9168 C   0  0  0  0  0  0  0  0  0  0  0  0
   30.6564    5.0104   29.5953 C   0  0  0  0  0  0  0  0  0  0  0  0
   30.4738    7.2895   27.9007 C   0  0  0  0  0  0  0  0  0  0  0  0
   29.3611    6.9565   28.7259 C   0  0  0  0  0  0  0  0  0  0  0  0
   29.4646    5.8010   29.5815 C   0  0  0  0  0  0  0  0  0  0  0  0
   32.8920    4.5785   28.7749 N   0  0  0  0  0  0  0  0  0  0  0  0
   32.9037    3.8513   29.4385 H   0  0  0  0  0  0  0  0  0  0  0  0
   33.9541    4.6719   28.0270 C   0  0  0  0  0  0  0  0  0  0  0  0
   33.7428    4.6972   26.7675 N   0  0  0  0  0  0  0  0  0  0  0  0
   35.1658    4.7518   28.4399 N   0  0  0  0  0  0  0  0  0  0  0  0
   34.5003    4.7667   26.1426 H   0  0  0  0  0  0  0  0  0  0  0  0
   32.8224    4.6471   26.4217 H   0  0  0  0  0  0  0  0  0  0  0  0
   35.9034    4.8195   27.7913 H   0  0  0  0  0  0  0  0  0  0  0  0
   28.0978    7.8572   28.6576 C   0  0  0  0  0  0  0  0  0  0  0  0
   27.9214    8.8019   29.8364 C   0  0  0  0  0  0  0  0  0  0  0  0
   26.8994    8.6909   30.5033 O   0  0  0  0  0  0  0  0  0  0  0  0
   28.9561    9.8667   30.2103 C   0  0  0  0  0  0  0  0  0  0  0  0
   29.9746    9.5602   31.1672 C   0  0  0  0  0  0  0  0  0  0  0  0
   30.9465   10.5348   31.5312 C   0  0  0  0  0  0  0  0  0  0  0  0
   30.9151   11.8336   30.9392 C   0  0  0  0  0  0  0  0  0  0  0  0
   29.9112   12.1526   29.9867 C   0  0  0  0  0  0  0  0  0  0  0  0
   28.9367   11.1775   29.6209 C   0  0  0  0  0  0  0  0  0  0  0  0
 10  9  1  0  0  0
  3  6  2  0  0  0
  3  1  1  0  0  0
  9 11  2  0  0  0
  9  7  1  0  0  0
  7  1  1  0  0  0
 17 16  2  0  0  0
  6  5  1  0  0  0
  1  2  2  0  0  0
 16 15  1  0  0  0
 16 18  1  0  0  0
  5 15  1  0  0  0
  5  4  2  0  0  0
  2  4  1  0  0  0
 19 18  2  0  0  0
 19 20  1  0  0  0
 18 23  1  0  0  0
 20 21  2  0  0  0
 23 22  2  0  0  0
 21 22  1  0  0  0
  7  8  1  0  0  0
 10 12  1  0  0  0
 10 13  1  0  0  0
 11 14  1  0  0  0
M  END
> <minimizedAffinity>
-7.51977

$$$$
2R2W_4PG_U_300


 23 24  0  0  0  0  0  0  0  0999 V2000
   31.1099    6.7595   28.5750 C   0  0  0  0  0  0  0  0  0  0  0  0
   30.9938    7.9853   29.3073 C   0  0  0  0  0  0  0  0  0  0  0  0
   29.9344    6.0371   28.2461 C   0  0  0  0  0  0  0  0  0  0  0  0
   29.7221    8.4741   29.7005 C   0  0  0  0  0  0  0  0  0  0  0  0
   28.5315    7.7613   29.3774 C   0  0  0  0  0  0  0  0  0  0  0  0
   28.6504    6.5275   28.6418 C   0  0  0  0  0  0  0  0  0  0  0  0
   32.3406    6.2877   28.1755 N   0  0  0  0  0  0  0  0  0  0  0  0
   32.9264    6.9481   27.7396 H   0  0  0  0  0  0  0  0  0  0  0  0
   32.8373    5.0897   28.2941 C   0  0  0  0  0  0  0  0  0  0  0  0
   33.6359    4.7280   27.3651 N   0  0  0  0  0  0  0  0  0  0  0  0
   32.6073    4.2663   29.2502 N   0  0  0  0  0  0  0  0  0  0  0  0
   34.0485    3.8344   27.3908 H   0  0  0  0  0  0  0  0  0  0  0  0
   33.8388    5.3426   26.6233 H   0  0  0  0  0  0  0  0  0  0  0  0
   33.0335    3.3788   29.2488 H   0  0  0  0  0  0  0  0  0  0  0  0
   27.1711    8.3539   29.8358 C   0  0  0  0  0  0  0  0  0  0  0  0
   26.2864    8.8689   28.7109 C   0  0  0  0  0  0  0  0  0  0  0  0
   25.4903    8.0827   28.2113 O   0  0  0  0  0  0  0  0  0  0  0  0
   26.3560   10.3072   28.1908 C   0  0  0  0  0  0  0  0  0  0  0  0
   27.3940   11.1779   28.6507 C   0  0  0  0  0  0  0  0  0  0  0  0
   27.4778   12.5195   28.1819 C   0  0  0  0  0  0  0  0  0  0  0  0
   26.5228   13.0105   27.2409 C   0  0  0  0  0  0  0  0  0  0  0  0
   25.4875   12.1580   26.7739 C   0  0  0  0  0  0  0  0  0  0  0  0
   25.4019   10.8137   27.2425 C   0  0  0  0  0  0  0  0  0  0  0  0
 10  9  1  0  0  0
  3  6  2  0  0  0
  3  1  1  0  0  0
  9 11  2  0  0  0
  9  7  1  0  0  0
  7  1  1  0  0  0
 17 16  2  0  0  0
  6  5  1  0  0  0
  1  2  2  0  0  0
 16 15  1  0  0  0
 16 18  1  0  0  0
  5 15  1  0  0  0
  5  4  2  0  0  0
  2  4  1  0  0  0
 19 18  2  0  0  0
 19 20  1  0  0  0
 18 23  1  0  0  0
 20 21  2  0  0  0
 23 22  2  0  0  0
 21 22  1  0  0  0
  7  8  1  0  0  0
 10 12  1  0  0  0
 10 13  1  0  0  0
 11 14  1  0  0  0
M  END
> <minimizedAffinity>
-7.37907

$$$$
2R2W_4PG_U_300


 23 24  0  0  0  0  0  0  0  0999 V2000
   30.6178    6.1439   28.5357 C   0  0  0  0  0  0  0  0  0  0  0  0
   31.0762    7.4375   28.9468 C   0  0  0  0  0  0  0  0  0  0  0  0
   29.3032    5.7358   28.8780 C   0  0  0  0  0  0  0  0  0  0  0  0
   30.2303    8.3021   29.6867 C   0  0  0  0  0  0  0  0  0  0  0  0
   28.9069    7.9081   30.0379 C   0  0  0  0  0  0  0  0  0  0  0  0
   28.4478    6.6057   29.6246 C   0  0  0  0  0  0  0  0  0  0  0  0
   31.4283    5.3060   27.8025 N   0  0  0  0  0  0  0  0  0  0  0  0
   31.0814    5.0478   26.9180 H   0  0  0  0  0  0  0  0  0  0  0  0
   32.5898    4.8074   28.1163 C   0  0  0  0  0  0  0  0  0  0  0  0
   32.6729    4.2903   29.2813 N   0  0  0  0  0  0  0  0  0  0  0  0
   33.6298    4.7812   27.3660 N   0  0  0  0  0  0  0  0  0  0  0  0
   33.5218    3.8947   29.5848 H   0  0  0  0  0  0  0  0  0  0  0  0
   31.8881    4.2873   29.8757 H   0  0  0  0  0  0  0  0  0  0  0  0
   34.4655    4.3796   27.6970 H   0  0  0  0  0  0  0  0  0  0  0  0
   28.0321    8.9042   30.8467 C   0  0  0  0  0  0  0  0  0  0  0  0
   27.8249   10.2574   30.1839 C   0  0  0  0  0  0  0  0  0  0  0  0
   28.5285   11.1867   30.5616 O   0  0  0  0  0  0  0  0  0  0  0  0
   26.7870   10.4937   29.0834 C   0  0  0  0  0  0  0  0  0  0  0  0
   25.7599    9.5236   28.8575 C   0  0  0  0  0  0  0  0  0  0  0  0
   24.7849    9.7215   27.8392 C   0  0  0  0  0  0  0  0  0  0  0  0
   24.8217   10.8980   27.0312 C   0  0  0  0  0  0  0  0  0  0  0  0
   25.8341   11.8709   27.2442 C   0  0  0  0  0  0  0  0  0  0  0  0
   26.8118   11.6742   28.2638 C   0  0  0  0  0  0  0  0  0  0  0  0
 10  9  1  0  0  0
  3  6  2  0  0  0
  3  1  1  0  0  0
  9 11  2  0  0  0
  9  7  1  0  0  0
  7  1  1  0  0  0
 17 16  2  0  0  0
  6  5  1  0  0  0
  1  2  2  0  0  0
 16 15  1  0  0  0
 16 18  1  0  0  0
  5 15  1  0  0  0
  5  4  2  0  0  0
  2  4  1  0  0  0
 19 18  2  0  0  0
 19 20  1  0  0  0
 18 23  1  0  0  0
 20 21  2  0  0  0
 23 22  2  0  0  0
 21 22  1  0  0  0
  7  8  1  0  0  0
 10 12  1  0  0  0
 10 13  1  0  0  0
 11 14  1  0  0  0
M  END
> <minimizedAffinity>
-7.02498

$$$$
2R2W_4PG_U_300


 23 24  0  0  0  0  0  0  0  0999 V2000
   30.0677    6.3130   28.8943 C   0  0  0  0  0  0  0  0  0  0  0  0
   28.6905    6.1604   29.2581 C   0  0  0  0  0  0  0  0  0  0  0  0
   30.7405    7.5170   29.2255 C   0  0  0  0  0  0  0  0  0  0  0  0
   28.0045    7.1969   29.9405 C   0  0  0  0  0  0  0  0  0  0  0  0
   28.6657    8.4121   30.2814 C   0  0  0  0  0  0  0  0  0  0  0  0
   30.0510    8.5644   29.9134 C   0  0  0  0  0  0  0  0  0  0  0  0
   30.7445    5.3036   28.2464 N   0  0  0  0  0  0  0  0  0  0  0  0
   30.1829    4.6768   27.7356 H   0  0  0  0  0  0  0  0  0  0  0  0
   32.0240    5.0629   28.2153 C   0  0  0  0  0  0  0  0  0  0  0  0
   32.4912    4.4256   29.2189 N   0  0  0  0  0  0  0  0  0  0  0  0
   32.8336    5.3932   27.2769 N   0  0  0  0  0  0  0  0  0  0  0  0
   33.4507    4.2094   29.2615 H   0  0  0  0  0  0  0  0  0  0  0  0
   31.8917    4.1506   29.9498 H   0  0  0  0  0  0  0  0  0  0  0  0
   33.7885    5.1643   27.3474 H   0  0  0  0  0  0  0  0  0  0  0  0
   27.8568    9.5054   31.0312 C   0  0  0  0  0  0  0  0  0  0  0  0
   27.5270   10.7377   30.2031 C   0  0  0  0  0  0  0  0  0  0  0  0
   28.1397   11.7689   30.4535 O   0  0  0  0  0  0  0  0  0  0  0  0
   26.4756   10.7344   29.0902 C   0  0  0  0  0  0  0  0  0  0  0  0
   26.5168   11.7398   28.0731 C   0  0  0  0  0  0  0  0  0  0  0  0
   25.5489   11.7572   27.0291 C   0  0  0  0  0  0  0  0  0  0  0  0
   24.5241   10.7642   26.9858 C   0  0  0  0  0  0  0  0  0  0  0  0
   24.4707    9.7587   27.9873 C   0  0  0  0  0  0  0  0  0  0  0  0
   25.4395    9.7398   29.0340 C   0  0  0  0  0  0  0  0  0  0  0  0
 10  9  1  0  0  0
  3  6  2  0  0  0
  3  1  1  0  0  0
  9 11  2  0  0  0
  9  7  1  0  0  0
  7  1  1  0  0  0
 17 16  2  0  0  0
  6  5  1  0  0  0
  1  2  2  0  0  0
 16 15  1  0  0  0
 16 18  1  0  0  0
  5 15  1  0  0  0
  5  4  2  0  0  0
  2  4  1  0  0  0
 19 18  2  0  0  0
 19 20  1  0  0  0
 18 23  1  0  0  0
 20 21  2  0  0  0
 23 22  2  0  0  0
 21 22  1  0  0  0
  7  8  1  0  0  0
 10 12  1  0  0  0
 10 13  1  0  0  0
 11 14  1  0  0  0
M  END
> <minimizedAffinity>
-6.96072

$$$$
2R2W_4PG_U_300


 23 24  0  0  0  0  0  0  0  0999 V2000
   29.5589    7.4368   29.3094 C   0  0  0  0  0  0  0  0  0  0  0  0
   28.4070    7.0317   28.5600 C   0  0  0  0  0  0  0  0  0  0  0  0
   29.4693    8.5730   30.1537 C   0  0  0  0  0  0  0  0  0  0  0  0
   27.1909    7.7543   28.6577 C   0  0  0  0  0  0  0  0  0  0  0  0
   27.0838    8.8972   29.5016 C   0  0  0  0  0  0  0  0  0  0  0  0
   28.2441    9.3041   30.2539 C   0  0  0  0  0  0  0  0  0  0  0  0
   30.7381    6.7296   29.2321 N   0  0  0  0  0  0  0  0  0  0  0  0
   31.0525    6.3363   30.0780 H   0  0  0  0  0  0  0  0  0  0  0  0
   31.4951    6.5087   28.1957 C   0  0  0  0  0  0  0  0  0  0  0  0
   31.5987    5.2870   27.8371 N   0  0  0  0  0  0  0  0  0  0  0  0
   32.1207    7.3958   27.5126 N   0  0  0  0  0  0  0  0  0  0  0  0
   32.1551    5.0473   27.0611 H   0  0  0  0  0  0  0  0  0  0  0  0
   31.1220    4.5853   28.3367 H   0  0  0  0  0  0  0  0  0  0  0  0
   32.6707    7.1262   26.7418 H   0  0  0  0  0  0  0  0  0  0  0  0
   25.7220    9.6413   29.5645 C   0  0  0  0  0  0  0  0  0  0  0  0
   25.0200    9.8042   28.2251 C   0  0  0  0  0  0  0  0  0  0  0  0
   24.1853    8.9617   27.9170 O   0  0  0  0  0  0  0  0  0  0  0  0
   25.3155   10.9613   27.2671 C   0  0  0  0  0  0  0  0  0  0  0  0
   24.7407   10.9612   25.9569 C   0  0  0  0  0  0  0  0  0  0  0  0
   25.0024   12.0259   25.0486 C   0  0  0  0  0  0  0  0  0  0  0  0
   25.8436   13.1110   25.4401 C   0  0  0  0  0  0  0  0  0  0  0  0
   26.4204   13.1262   26.7378 C   0  0  0  0  0  0  0  0  0  0  0  0
   26.1594   12.0604   27.6489 C   0  0  0  0  0  0  0  0  0  0  0  0
 10  9  1  0  0  0
  3  6  2  0  0  0
  3  1  1  0  0  0
  9 11  2  0  0  0
  9  7  1  0  0  0
  7  1  1  0  0  0
 17 16  2  0  0  0
  6  5  1  0  0  0
  1  2  2  0  0  0
 16 15  1  0  0  0
 16 18  1  0  0  0
  5 15  1  0  0  0
  5  4  2  0  0  0
  2  4  1  0  0  0
 19 18  2  0  0  0
 19 20  1  0  0  0
 18 23  1  0  0  0
 20 21  2  0  0  0
 23 22  2  0  0  0
 21 22  1  0  0  0
  7  8  1  0  0  0
 10 12  1  0  0  0
 10 13  1  0  0  0
 11 14  1  0  0  0
M  END
> <minimizedAffinity>
-6.95730

$$$$
2R2W_4PG_U_300


 23 24  0  0  0  0  0  0  0  0999 V2000
   30.1081   11.5424   30.8549 C   0  0  0  0  0  0  0  0  0  0  0  0
   29.6588   10.4781   31.7022 C   0  0  0  0  0  0  0  0  0  0  0  0
   29.4290   11.7870   29.6339 C   0  0  0  0  0  0  0  0  0  0  0  0
   28.5502    9.6768   31.3291 C   0  0  0  0  0  0  0  0  0  0  0  0
   27.8565    9.9096   30.1066 C   0  0  0  0  0  0  0  0  0  0  0  0
   28.3107   10.9800   29.2547 C   0  0  0  0  0  0  0  0  0  0  0  0
   31.1737   12.3352   31.2192 N   0  0  0  0  0  0  0  0  0  0  0  0
   31.4115   13.0453   30.5801 H   0  0  0  0  0  0  0  0  0  0  0  0
   31.9105   12.2763   32.2914 C   0  0  0  0  0  0  0  0  0  0  0  0
   32.9359   11.5182   32.2165 N   0  0  0  0  0  0  0  0  0  0  0  0
   31.7050   12.9111   33.3868 N   0  0  0  0  0  0  0  0  0  0  0  0
   33.5376   11.4262   32.9903 H   0  0  0  0  0  0  0  0  0  0  0  0
   33.1244   11.0259   31.3850 H   0  0  0  0  0  0  0  0  0  0  0  0
   32.3235   12.7986   34.1445 H   0  0  0  0  0  0  0  0  0  0  0  0
   26.6487    8.9970   29.7597 C   0  0  0  0  0  0  0  0  0  0  0  0
   26.9903    7.7758   28.9199 C   0  0  0  0  0  0  0  0  0  0  0  0
   26.1237    7.3446   28.1686 O   0  0  0  0  0  0  0  0  0  0  0  0
   28.3527    7.0798   28.9808 C   0  0  0  0  0  0  0  0  0  0  0  0
   29.4033    7.5003   28.1053 C   0  0  0  0  0  0  0  0  0  0  0  0
   30.6778    6.8671   28.1433 C   0  0  0  0  0  0  0  0  0  0  0  0
   30.9215    5.8022   29.0626 C   0  0  0  0  0  0  0  0  0  0  0  0
   29.8893    5.3745   29.9391 C   0  0  0  0  0  0  0  0  0  0  0  0
   28.6118    6.0077   29.9023 C   0  0  0  0  0  0  0  0  0  0  0  0
 10  9  1  0  0  0
  3  6  2  0  0  0
  3  1  1  0  0  0
  9 11  2  0  0  0
  9  7  1  0  0  0
  7  1  1  0  0  0
 17 16  2  0  0  0
  6  5  1  0  0  0
  1  2  2  0  0  0
 16 15  1  0  0  0
 16 18  1  0  0  0
  5 15  1  0  0  0
  5  4  2  0  0  0
  2  4  1  0  0  0
 19 18  2  0  0  0
 19 20  1  0  0  0
 18 23  1  0  0  0
 20 21  2  0  0  0
 23 22  2  0  0  0
 21 22  1  0  0  0
  7  8  1  0  0  0
 10 12  1  0  0  0
 10 13  1  0  0  0
 11 14  1  0  0  0
M  END
> <minimizedAffinity>
-6.90177

$$$$
2R2W_4PG_U_300


 23 24  0  0  0  0  0  0  0  0999 V2000
   30.4767    6.0092   28.4795 C   0  0  0  0  0  0  0  0  0  0  0  0
   30.9386    7.3036   28.8843 C   0  0  0  0  0  0  0  0  0  0  0  0
   29.1112    5.6735   28.6657 C   0  0  0  0  0  0  0  0  0  0  0  0
   30.0460    8.2403   29.4642 C   0  0  0  0  0  0  0  0  0  0  0  0
   28.6713    7.9194   29.6574 C   0  0  0  0  0  0  0  0  0  0  0  0
   28.2086    6.6162   29.2508 C   0  0  0  0  0  0  0  0  0  0  0  0
   31.3347    5.1009   27.9003 N   0  0  0  0  0  0  0  0  0  0  0  0
   31.0028    4.6672   27.0812 H   0  0  0  0  0  0  0  0  0  0  0  0
   32.5241    4.7358   28.2853 C   0  0  0  0  0  0  0  0  0  0  0  0
   32.6002    4.2590   29.4678 N   0  0  0  0  0  0  0  0  0  0  0  0
   33.5986    4.8013   27.5879 N   0  0  0  0  0  0  0  0  0  0  0  0
   33.4689    3.9629   29.8242 H   0  0  0  0  0  0  0  0  0  0  0  0
   31.7903    4.1877   30.0229 H   0  0  0  0  0  0  0  0  0  0  0  0
   34.4534    4.4986   27.9712 H   0  0  0  0  0  0  0  0  0  0  0  0
   27.7473    8.9922   30.2955 C   0  0  0  0  0  0  0  0  0  0  0  0
   28.3926    9.8184   31.3973 C   0  0  0  0  0  0  0  0  0  0  0  0
   27.9223    9.7245   32.5250 O   0  0  0  0  0  0  0  0  0  0  0  0
   29.5853   10.7462   31.1505 C   0  0  0  0  0  0  0  0  0  0  0  0
   30.7676   10.6072   31.9443 C   0  0  0  0  0  0  0  0  0  0  0  0
   31.8885   11.4593   31.7335 C   0  0  0  0  0  0  0  0  0  0  0  0
   31.8437   12.4643   30.7205 C   0  0  0  0  0  0  0  0  0  0  0  0
   30.6779   12.6137   29.9234 C   0  0  0  0  0  0  0  0  0  0  0  0
   29.5541   11.7610   30.1332 C   0  0  0  0  0  0  0  0  0  0  0  0
 10  9  1  0  0  0
  3  6  2  0  0  0
  3  1  1  0  0  0
  9 11  2  0  0  0
  9  7  1  0  0  0
  7  1  1  0  0  0
 17 16  2  0  0  0
  6  5  1  0  0  0
  1  2  2  0  0  0
 16 15  1  0  0  0
 16 18  1  0  0  0
  5 15  1  0  0  0
  5  4  2  0  0  0
  2  4  1  0  0  0
 19 18  2  0  0  0
 19 20  1  0  0  0
 18 23  1  0  0  0
 20 21  2  0  0  0
 23 22  2  0  0  0
 21 22  1  0  0  0
  7  8  1  0  0  0
 10 12  1  0  0  0
 10 13  1  0  0  0
 11 14  1  0  0  0
M  END
> <minimizedAffinity>
-6.89933

$$$$
2R2W_4PG_U_300


 23 24  0  0  0  0  0  0  0  0999 V2000
   29.1842    6.4831   29.5209 C   0  0  0  0  0  0  0  0  0  0  0  0
   29.5417    7.8468   29.7754 C   0  0  0  0  0  0  0  0  0  0  0  0
   27.9416    6.1992   28.8986 C   0  0  0  0  0  0  0  0  0  0  0  0
   28.6677    8.9026   29.4120 C   0  0  0  0  0  0  0  0  0  0  0  0
   27.4164    8.6349   28.7855 C   0  0  0  0  0  0  0  0  0  0  0  0
   27.0578    7.2621   28.5313 C   0  0  0  0  0  0  0  0  0  0  0  0
   30.0357    5.4539   29.8561 N   0  0  0  0  0  0  0  0  0  0  0  0
   29.9060    5.0721   30.7542 H   0  0  0  0  0  0  0  0  0  0  0  0
   30.9886    4.9154   29.1504 C   0  0  0  0  0  0  0  0  0  0  0  0
   31.7616    4.1185   29.7822 N   0  0  0  0  0  0  0  0  0  0  0  0
   31.2034    5.1037   27.9000 N   0  0  0  0  0  0  0  0  0  0  0  0
   32.5038    3.6757   29.3107 H   0  0  0  0  0  0  0  0  0  0  0  0
   31.6152    3.9471   30.7405 H   0  0  0  0  0  0  0  0  0  0  0  0
   31.9542    4.6479   27.4553 H   0  0  0  0  0  0  0  0  0  0  0  0
   26.5081    9.8375   28.4107 C   0  0  0  0  0  0  0  0  0  0  0  0
   25.5089   10.2428   29.4833 C   0  0  0  0  0  0  0  0  0  0  0  0
   24.4934    9.5663   29.5960 O   0  0  0  0  0  0  0  0  0  0  0  0
   25.7234   11.4441   30.4080 C   0  0  0  0  0  0  0  0  0  0  0  0
   24.6754   12.4029   30.5792 C   0  0  0  0  0  0  0  0  0  0  0  0
   24.8526   13.5284   31.4328 C   0  0  0  0  0  0  0  0  0  0  0  0
   26.0841   13.7102   32.1320 C   0  0  0  0  0  0  0  0  0  0  0  0
   27.1333   12.7664   31.9736 C   0  0  0  0  0  0  0  0  0  0  0  0
   26.9575   11.6383   31.1188 C   0  0  0  0  0  0  0  0  0  0  0  0
 10  9  1  0  0  0
  3  6  2  0  0  0
  3  1  1  0  0  0
  9 11  2  0  0  0
  9  7  1  0  0  0
  7  1  1  0  0  0
 17 16  2  0  0  0
  6  5  1  0  0  0
  1  2  2  0  0  0
 16 15  1  0  0  0
 16 18  1  0  0  0
  5 15  1  0  0  0
  5  4  2  0  0  0
  2  4  1  0  0  0
 19 18  2  0  0  0
 19 20  1  0  0  0
 18 23  1  0  0  0
 20 21  2  0  0  0
 23 22  2  0  0  0
 21 22  1  0  0  0
  7  8  1  0  0  0
 10 12  1  0  0  0
 10 13  1  0  0  0
 11 14  1  0  0  0
M  END
> <minimizedAffinity>
-6.79266

$$$$
