5DW2_5GD_A_201
  RCSB PDB12061717223D
Coordinates from PDB:5DW2:A:201 Model:1 without hydrogens
 31 34  0  0  0  0            999 V2000
   11.7660    6.6960    1.2920   C 0  0  0  0  0  0  0  0  0  0  0  0
   13.9430    5.5810    1.1680   C 0  0  0  0  0  0  0  0  0  0  0  0
   10.4360    6.9260    0.8240   C 0  0  0  0  0  0  0  0  0  0  0  0
    9.9710    6.1760   -0.1870   C 0  0  0  0  0  0  0  0  0  0  0  0
   13.0700    9.1250    4.4080   C 0  0  0  0  0  0  0  0  0  0  0  0
   13.1750    9.4050    8.7900   C 0  0  0  0  0  0  0  0  0  0  0  0
   13.3470    9.6500    5.6560   C 0  0  0  0  0  0  0  0  0  0  0  0
   14.0610    8.9380    6.6050   C 0  0  0  0  0  0  0  0  0  0  0  0
   12.8410   11.0990    5.9150   C 0  0  0  0  0  0  0  0  0  0  0  0
   13.5130   10.4270    9.8870   C 0  0  0  0  0  0  0  0  0  0  0  0
   15.2580   11.3440   11.4990   C 0  0  0  0  0  0  0  0  0  0  0  0
   15.2120    6.9520    7.4830   C 0  0  0  0  0  0  0  0  0  0  0  0
   14.2170    7.1070    5.1420   C 0  0  0  0  0  0  0  0  0  0  0  0
   12.0630    4.9870   -0.3990   C 0  0  0  0  0  0  0  0  0  0  0  0
   14.9530    8.9860   11.1050   C 0  0  0  0  0  0  0  0  0  0  0  0
   14.4810    7.6380    6.4030   C 0  0  0  0  0  0  0  0  0  0  0  0
   12.2720    3.0900   -1.8340   C 0  0  0  0  0  0  0  0  0  0  0  0
   14.8290    4.8410    0.6880   O 0  0  0  0  0  0  0  0  0  0  0  0
   12.5590    5.7490    0.6360   C 0  0  0  0  0  0  0  0  0  0  0  0
   12.8350    4.0050   -0.9100   O 0  0  0  0  0  0  0  0  0  0  0  0
   10.7480    5.2290   -0.8300   C 0  0  0  0  0  0  0  0  0  0  0  0
    8.7150    6.2870   -0.7290   O 0  0  0  0  0  0  0  0  0  0  0  0
    7.7840    7.2060   -0.1490   C 0  0  0  0  0  0  0  0  0  0  0  0
   14.2440    6.3210    2.2970   N 0  0  0  0  0  0  0  0  0  0  0  0
   13.3000    7.2000    2.8730   C 0  0  0  0  0  0  0  0  0  0  0  0
   12.1620    7.4520    2.3700   N 0  0  0  0  0  0  0  0  0  0  0  0
   13.5590    7.8090    4.1120   C 0  0  0  0  0  0  0  0  0  0  0  0
   14.2700    9.4910    7.8520   O 0  0  0  0  0  0  0  0  0  0  0  0
   14.8550   10.2900   10.4720   N 0  0  0  0  0  0  0  0  0  0  0  0
   15.9590    9.2180   12.2480   C 0  0  0  0  0  0  0  0  0  0  0  0
   16.3320   10.6940   12.4080   C 0  0  0  0  0  0  0  0  0  0  0  0
 17 20  1  0  0  0  0
 20 14  1  0  0  0  0
 18  2  2  0  0  0  0
 14 21  2  0  0  0  0
 14 19  1  0  0  0  0
  2 19  1  0  0  0  0
  2 24  1  0  0  0  0
 21  4  1  0  0  0  0
 19  1  2  0  0  0  0
 24 25  1  0  0  0  0
  4 22  1  0  0  0  0
  4  3  2  0  0  0  0
  1  3  1  0  0  0  0
  1 26  1  0  0  0  0
 25 26  2  0  0  0  0
 25 27  1  0  0  0  0
 22 23  1  0  0  0  0
 13 27  2  0  0  0  0
 13 16  1  0  0  0  0
 12 16  1  0  0  0  0
 27  5  1  0  0  0  0
 16  8  2  0  0  0  0
  5  7  2  0  0  0  0
  8  7  1  0  0  0  0
  8 28  1  0  0  0  0
  7  9  1  0  0  0  0
 28  6  1  0  0  0  0
 15 30  1  0  0  0  0
 15 29  1  0  0  0  0
  6 10  1  0  0  0  0
 30 31  1  0  0  0  0
 29 10  1  0  0  0  0
 29 11  1  0  0  0  0
 31 11  1  0  0  0  0
A    1
C3
A    2
C5
A    3
C2
A    4
C1
A    5
C8
A    6
C12
A    7
C9
A    8
C11
A    9
C10
A   10
C13
A   11
C14
A   12
C19
A   13
C20
A   14
C21
A   15
C17
A   16
C18
A   17
C22
A   18
O1
A   19
C4
A   20
O3
A   21
C23
A   22
O
A   23
C
A   24
N
A   25
C6
A   26
N1
A   27
C7
A   28
O2
A   29
N2
A   30
C16
A   31
C15
M  END
>  <InstanceId>
5DW2_5GD_A_201

>  <ChemCompId>
5GD

>  <PdbId>
5DW2

>  <ChainId>
A

>  <ResidueNumber>
201

>  <InsertionCode>


>  <Model>
1

>  <AltIds>


>  <MissingHeavyAtoms>
0

>  <ObservedFormula>
C24 N3 O4

>  <Name>
2-{3,5-dimethyl-4-[2-(pyrrolidin-1-yl)ethoxy]phenyl}-5,7-dimethoxyquinazolin-4(3H)-one

>  <SystematicName>
2-[3,5-dimethyl-4-(2-pyrrolidin-1-ylethoxy)phenyl]-5,7-dimethoxy-3H-quinazolin-4-one

>  <Synonyms>


>  <Type>
NON-POLYMER

>  <Formula>
C24 H29 N3 O4

>  <MolecularWeight>
423.505

>  <ModifiedDate>
2016-06-17

>  <Parent>


>  <OneLetterCode>


>  <SubcomponentList>


>  <AmbiguousFlag>
N

>  <InChI>
InChI=1S/C24H29N3O4/c1-15-11-17(12-16(2)22(15)31-10-9-27-7-5-6-8-27)23-25-19-13-18(29-3)14-20(30-4)21(19)24(28)26-23/h11-14H,5-10H2,1-4H3,(H,25,26,28)

>  <InChIKey>
PQZDYFRDRHRZGF-UHFFFAOYSA-N

>  <SMILES>
Cc1cc(cc(c1OCCN2CCCC2)C)C3=Nc4cc(cc(c4C(=O)N3)OC)OC

$$$$
