1L83_BNZ_A_400


  6  6  0  0  0  0  0  0  0  0999 V2000
   25.8975    4.7634    4.5293 C   0  0  0  0  0  0  0  0  0  0  0  0
   26.6172    5.4310    3.5475 C   0  0  0  0  0  0  0  0  0  0  0  0
   27.2532    6.6272    3.8508 C   0  0  0  0  0  0  0  0  0  0  0  0
   27.1959    7.1293    5.1509 C   0  0  0  0  0  0  0  0  0  0  0  0
   26.5091    6.4392    6.1513 C   0  0  0  0  0  0  0  0  0  0  0  0
   25.8394    5.2646    5.8299 C   0  0  0  0  0  0  0  0  0  0  0  0
  1  2  2  0  0  0
  1  6  1  0  0  0
  2  3  1  0  0  0
  3  4  2  0  0  0
  4  5  1  0  0  0
  5  6  2  0  0  0
M  END
> <minimizedAffinity>
-5.46871

$$$$
1L83_BNZ_A_400


  6  6  0  0  0  0  0  0  0  0999 V2000
   25.8955    5.3738    5.9582 C   0  0  0  0  0  0  0  0  0  0  0  0
   26.5720    6.5685    6.1645 C   0  0  0  0  0  0  0  0  0  0  0  0
   27.2553    7.1653    5.1136 C   0  0  0  0  0  0  0  0  0  0  0  0
   27.2242    6.5790    3.8483 C   0  0  0  0  0  0  0  0  0  0  0  0
   26.5097    5.4004    3.6269 C   0  0  0  0  0  0  0  0  0  0  0  0
   25.8637    4.7863    4.6933 C   0  0  0  0  0  0  0  0  0  0  0  0
  1  2  2  0  0  0
  1  6  1  0  0  0
  2  3  1  0  0  0
  3  4  2  0  0  0
  4  5  1  0  0  0
  5  6  2  0  0  0
M  END
> <minimizedAffinity>
-5.46694

$$$$
1L83_BNZ_A_400


  6  6  0  0  0  0  0  0  0  0999 V2000
   27.1923    7.1324    5.1484 C   0  0  0  0  0  0  0  0  0  0  0  0
   27.2474    6.6369    3.8526 C   0  0  0  0  0  0  0  0  0  0  0  0
   26.6302    5.4312    3.5478 C   0  0  0  0  0  0  0  0  0  0  0  0
   25.9264    4.7460    4.5382 C   0  0  0  0  0  0  0  0  0  0  0  0
   25.8327    5.2623    5.8317 C   0  0  0  0  0  0  0  0  0  0  0  0
   26.4889    6.4481    6.1398 C   0  0  0  0  0  0  0  0  0  0  0  0
  1  2  2  0  0  0
  1  6  1  0  0  0
  2  3  1  0  0  0
  3  4  2  0  0  0
  4  5  1  0  0  0
  5  6  2  0  0  0
M  END
> <minimizedAffinity>
-5.46486

$$$$
1L83_BNZ_A_400


  6  6  0  0  0  0  0  0  0  0999 V2000
   26.5904    6.5387    6.1928 C   0  0  0  0  0  0  0  0  0  0  0  0
   27.2310    7.1865    5.1452 C   0  0  0  0  0  0  0  0  0  0  0  0
   27.2159    6.6266    3.8749 C   0  0  0  0  0  0  0  0  0  0  0  0
   26.5236    5.4362    3.6532 C   0  0  0  0  0  0  0  0  0  0  0  0
   25.8423    4.8040    4.6947 C   0  0  0  0  0  0  0  0  0  0  0  0
   25.8978    5.3480    5.9724 C   0  0  0  0  0  0  0  0  0  0  0  0
  1  2  2  0  0  0
  1  6  1  0  0  0
  2  3  1  0  0  0
  3  4  2  0  0  0
  4  5  1  0  0  0
  5  6  2  0  0  0
M  END
> <minimizedAffinity>
-5.46279

$$$$
1L83_BNZ_A_400


  6  6  0  0  0  0  0  0  0  0999 V2000
   26.6339    6.6106    6.1373 C   0  0  0  0  0  0  0  0  0  0  0  0
   25.9254    5.4245    6.0003 C   0  0  0  0  0  0  0  0  0  0  0  0
   25.8353    4.8139    4.7567 C   0  0  0  0  0  0  0  0  0  0  0  0
   26.4904    5.3774    3.6618 C   0  0  0  0  0  0  0  0  0  0  0  0
   27.2392    6.5468    3.8044 C   0  0  0  0  0  0  0  0  0  0  0  0
   27.2895    7.1752    5.0430 C   0  0  0  0  0  0  0  0  0  0  0  0
  1  2  2  0  0  0
  1  6  1  0  0  0
  2  3  1  0  0  0
  3  4  2  0  0  0
  4  5  1  0  0  0
  5  6  2  0  0  0
M  END
> <minimizedAffinity>
-5.45671

$$$$
1L83_BNZ_A_400


  6  6  0  0  0  0  0  0  0  0999 V2000
   26.6563    5.5633    3.5489 C   0  0  0  0  0  0  0  0  0  0  0  0
   25.9157    4.8064    4.4468 C   0  0  0  0  0  0  0  0  0  0  0  0
   25.8223    5.2054    5.7733 C   0  0  0  0  0  0  0  0  0  0  0  0
   26.4419    6.3854    6.1847 C   0  0  0  0  0  0  0  0  0  0  0  0
   27.1517    7.1716    5.2754 C   0  0  0  0  0  0  0  0  0  0  0  0
   27.2766    6.7435    3.9591 C   0  0  0  0  0  0  0  0  0  0  0  0
  1  2  2  0  0  0
  1  6  1  0  0  0
  2  3  1  0  0  0
  3  4  2  0  0  0
  4  5  1  0  0  0
  5  6  2  0  0  0
M  END
> <minimizedAffinity>
-5.45294

$$$$
1L83_BNZ_A_400


  6  6  0  0  0  0  0  0  0  0999 V2000
   26.6622    5.5797    3.5490 C   0  0  0  0  0  0  0  0  0  0  0  0
   27.2920    6.7471    3.9591 C   0  0  0  0  0  0  0  0  0  0  0  0
   27.1687    7.1724    5.2749 C   0  0  0  0  0  0  0  0  0  0  0  0
   26.4443    6.4020    6.1846 C   0  0  0  0  0  0  0  0  0  0  0  0
   25.8454    5.2057    5.7864 C   0  0  0  0  0  0  0  0  0  0  0  0
   25.9373    4.8085    4.4577 C   0  0  0  0  0  0  0  0  0  0  0  0
  1  2  2  0  0  0
  1  6  1  0  0  0
  2  3  1  0  0  0
  3  4  2  0  0  0
  4  5  1  0  0  0
  5  6  2  0  0  0
M  END
> <minimizedAffinity>
-5.45246

$$$$
1L83_BNZ_A_400


  6  6  0  0  0  0  0  0  0  0999 V2000
   26.1322    5.9270    5.2866 C   0  0  0  0  0  0  0  0  0  0  0  0
   26.9383    6.9728    4.8574 C   0  0  0  0  0  0  0  0  0  0  0  0
   27.6531    6.8524    3.6735 C   0  0  0  0  0  0  0  0  0  0  0  0
   27.5255    5.6958    2.9044 C   0  0  0  0  0  0  0  0  0  0  0  0
   26.6830    4.6596    3.3109 C   0  0  0  0  0  0  0  0  0  0  0  0
   26.0038    4.7697    4.5184 C   0  0  0  0  0  0  0  0  0  0  0  0
  1  2  2  0  0  0
  1  6  1  0  0  0
  2  3  1  0  0  0
  3  4  2  0  0  0
  4  5  1  0  0  0
  5  6  2  0  0  0
M  END
> <minimizedAffinity>
-5.00279

$$$$
1L83_BNZ_A_400


  6  6  0  0  0  0  0  0  0  0999 V2000
   27.5394    7.1094    4.9671 C   0  0  0  0  0  0  0  0  0  0  0  0
   26.8930    6.9628    6.1871 C   0  0  0  0  0  0  0  0  0  0  0  0
   25.8929    6.0102    6.3282 C   0  0  0  0  0  0  0  0  0  0  0  0
   25.5722    5.1813    5.2532 C   0  0  0  0  0  0  0  0  0  0  0  0
   26.2494    5.2968    4.0380 C   0  0  0  0  0  0  0  0  0  0  0  0
   27.2196    6.2811    3.8912 C   0  0  0  0  0  0  0  0  0  0  0  0
  1  2  2  0  0  0
  1  6  1  0  0  0
  2  3  1  0  0  0
  3  4  2  0  0  0
  4  5  1  0  0  0
  5  6  2  0  0  0
M  END
> <minimizedAffinity>
-4.97467

$$$$
