4RWW_2BA_A_2001
  RCSB PDB12061714423D
Coordinates from PDB:4RWW:A:2001 Model:1 without hydrogens
 44 50  0  0  0  0            999 V2000
   59.7810   74.0240  -87.8770   P 0  0  0  0  0  0  0  0  0  0  0  0
   59.2200   73.4190  -86.6290   O 0  0  0  0  0  0  0  0  0  0  0  0
   60.9150   75.0240  -87.8200   O 0  0  0  0  0  0  0  0  0  0  0  0
   58.6440   74.7680  -88.7320   O 0  0  0  0  0  0  0  0  0  0  0  0
   57.3730   74.1040  -88.9500   C 0  0  0  0  0  0  0  0  0  0  0  0
   56.4560   75.0190  -89.7280   C 0  0  0  0  0  0  0  0  0  0  0  0
   56.1990   76.2010  -88.9960   O 0  0  0  0  0  0  0  0  0  0  0  0
   57.0340   75.5140  -91.0460   C 0  0  0  0  0  0  0  0  0  0  0  0
   56.8820   74.4940  -92.0320   O 0  0  0  0  0  0  0  0  0  0  0  0
   56.3110   76.8140  -91.3340   C 0  0  0  0  0  0  0  0  0  0  0  0
   55.2740   76.6680  -92.2980   O 0  0  0  0  0  0  0  0  0  0  0  0
   55.6910   77.0620  -89.9740   C 0  0  0  0  0  0  0  0  0  0  0  0
   55.7950   78.4100  -89.5790   N 0  0  0  0  0  0  0  0  0  0  0  0
   54.7220   79.2080  -89.2090   C 0  0  0  0  0  0  0  0  0  0  0  0
   55.1510   80.3930  -88.7350   N 0  0  0  0  0  0  0  0  0  0  0  0
   56.5100   80.2740  -88.7870   C 0  0  0  0  0  0  0  0  0  0  0  0
   57.5690   81.1860  -88.4280   C 0  0  0  0  0  0  0  0  0  0  0  0
   57.2750   82.4130  -87.9730   N 0  0  0  0  0  0  0  0  0  0  0  0
   58.8240   80.7590  -88.6150   N 0  0  0  0  0  0  0  0  0  0  0  0
   59.1000   79.5320  -89.0250   C 0  0  0  0  0  0  0  0  0  0  0  0
   58.2090   78.6310  -89.4410   N 0  0  0  0  0  0  0  0  0  0  0  0
   56.8980   78.9730  -89.2690   C 0  0  0  0  0  0  0  0  0  0  0  0
   57.9910   74.2830  -93.1730   P 0  0  0  0  0  0  0  0  0  0  0  0
   58.4360   75.5820  -93.7190   O 0  0  0  0  0  0  0  0  0  0  0  0
   57.4580   73.2410  -94.1480   O 0  0  0  0  0  0  0  0  0  0  0  0
   59.2580   73.6410  -92.3970   O 0  0  0  0  0  0  0  0  0  0  0  0
   59.2440   72.3340  -91.8230   C 0  0  0  0  0  0  0  0  0  0  0  0
   60.5710   72.1280  -91.1510   C 0  0  0  0  0  0  0  0  0  0  0  0
   61.6340   72.1950  -92.1210   O 0  0  0  0  0  0  0  0  0  0  0  0
   60.9120   73.1610  -90.0990   C 0  0  0  0  0  0  0  0  0  0  0  0
   60.2730   72.8290  -88.8700   O 0  0  0  0  0  0  0  0  0  0  0  0
   62.4370   73.0600  -90.0160   C 0  0  0  0  0  0  0  0  0  0  0  0
   62.8360   71.9040  -89.2700   O 0  0  0  0  0  0  0  0  0  0  0  0
   62.7730   72.8040  -91.4730   C 0  0  0  0  0  0  0  0  0  0  0  0
   63.0300   74.0500  -92.1930   N 0  0  0  0  0  0  0  0  0  0  0  0
   62.1360   74.9580  -92.7600   C 0  0  0  0  0  0  0  0  0  0  0  0
   62.7960   75.9420  -93.4120   N 0  0  0  0  0  0  0  0  0  0  0  0
   64.1320   75.8120  -93.0470   C 0  0  0  0  0  0  0  0  0  0  0  0
   65.3320   76.5150  -93.4440   C 0  0  0  0  0  0  0  0  0  0  0  0
   65.2470   77.6500  -94.1910   N 0  0  0  0  0  0  0  0  0  0  0  0
   66.5080   75.9990  -93.0570   N 0  0  0  0  0  0  0  0  0  0  0  0
   66.5470   74.8780  -92.3200   C 0  0  0  0  0  0  0  0  0  0  0  0
   65.4690   74.1310  -91.9760   N 0  0  0  0  0  0  0  0  0  0  0  0
   64.2630   74.5630  -92.3650   C 0  0  0  0  0  0  0  0  0  0  0  0
  1  2  2  0  0  0  0
  1  3  1  0  0  0  0
  1  4  1  0  0  0  0
  1 31  1  0  0  0  0
  4  5  1  0  0  0  0
  5  6  1  0  0  0  0
  6  7  1  0  0  0  0
  6  8  1  0  0  0  0
  7 12  1  0  0  0  0
  8  9  1  0  0  0  0
  8 10  1  0  0  0  0
  9 23  1  0  0  0  0
 10 11  1  0  0  0  0
 10 12  1  0  0  0  0
 12 13  1  0  0  0  0
 13 14  1  0  0  0  0
 13 22  1  0  0  0  0
 14 15  2  0  0  0  0
 15 16  1  0  0  0  0
 16 17  2  0  0  0  0
 16 22  1  0  0  0  0
 17 18  1  0  0  0  0
 17 19  1  0  0  0  0
 19 20  2  0  0  0  0
 20 21  1  0  0  0  0
 21 22  2  0  0  0  0
 23 24  2  0  0  0  0
 23 25  1  0  0  0  0
 23 26  1  0  0  0  0
 26 27  1  0  0  0  0
 27 28  1  0  0  0  0
 28 29  1  0  0  0  0
 28 30  1  0  0  0  0
 29 34  1  0  0  0  0
 30 31  1  0  0  0  0
 30 32  1  0  0  0  0
 32 33  1  0  0  0  0
 32 34  1  0  0  0  0
 34 35  1  0  0  0  0
 35 36  1  0  0  0  0
 35 44  1  0  0  0  0
 36 37  2  0  0  0  0
 37 38  1  0  0  0  0
 38 39  2  0  0  0  0
 38 44  1  0  0  0  0
 39 40  1  0  0  0  0
 39 41  1  0  0  0  0
 41 42  2  0  0  0  0
 42 43  1  0  0  0  0
 43 44  2  0  0  0  0
A    1
P
A    2
O1P
A    3
O2P
A    4
O5'
A    5
C5'
A    6
C4'
A    7
O4'
A    8
C3'
A    9
O3'
A   10
C2'
A   11
O2'
A   12
C1'
A   13
N9
A   14
C8
A   15
N7
A   16
C5
A   17
C6
A   18
N6
A   19
N1
A   20
C2
A   21
N3
A   22
C4
A   23
P1
A   24
O1P1
A   25
O2P1
A   26
O5'1
A   27
C5'1
A   28
C4'1
A   29
O4'1
A   30
C3'1
A   31
O3'1
A   32
C2'1
A   33
O2'1
A   34
C1'1
A   35
N91
A   36
C81
A   37
N71
A   38
C51
A   39
C61
A   40
N61
A   41
N11
A   42
C21
A   43
N31
A   44
C41
M  END
>  <InstanceId>
4RWW_2BA_A_2001

>  <ChemCompId>
2BA

>  <PdbId>
4RWW

>  <ChainId>
A

>  <ResidueNumber>
2001

>  <InsertionCode>


>  <Model>
1

>  <AltIds>


>  <MissingHeavyAtoms>
0

>  <ObservedFormula>
C20 N10 O12 P2

>  <Name>
(2R,3R,3aS,5R,7aR,9R,10R,10aS,12R,14aR)-2,9-bis(6-amino-9H-purin-9-yl)octahydro-2H,7H-difuro[3,2-d:3',2'-j][1,3,7,9,2,8]tetraoxadiphosphacyclododecine-3,5,10,12-tetrol 5,12-dioxide

>  <SystematicName>


>  <Synonyms>
bis-(3',5')-cyclic-dimeric-Adenosine-monophosphate

>  <Type>
NON-POLYMER

>  <Formula>
C20 H24 N10 O12 P2

>  <MolecularWeight>
658.412

>  <ModifiedDate>
2011-06-04

>  <Parent>


>  <OneLetterCode>


>  <SubcomponentList>


>  <AmbiguousFlag>
N

>  <InChI>
InChI=1S/C20H24N10O12P2/c21-15-9-17(25-3-23-15)29(5-27-9)19-11(31)13-7(39-19)1-37-43(33,34)42-14-8(2-38-44(35,36)41-13)40-20(12(14)32)30-6-28-10-16(22)24-4-26-18(10)30/h3-8,11-14,19-20,31-32H,1-2H2,(H,33,34)(H,35,36)(H2,21,23,25)(H2,22,24,26)/t7-,8-,11-,12-,13-,14-,19-,20-/m1/s1

>  <InChIKey>
PDXMFTWFFKBFIN-XPWFQUROSA-N

>  <SMILES>
c1nc(c2c(n1)n(cn2)[C@H]3[C@@H]([C@H]4[C@H](O3)CO[P@](=O)(O[C@@H]5[C@@H](CO[P@](=O)(O4)O)O[C@H]([C@@H]5O)n6cnc7c6ncnc7N)O)O)N

$$$$
