2W47_UNF_A_1138
  RCSB PDB12061707113D
Coordinates from PDB:2W47:A:1138 Model:1 without hydrogens
 24 25  0  0  0  0            999 V2000
   -1.6660   16.2910    9.7560   C 0  0  0  0  0  0  0  0  0  0  0  0
   -2.1860   17.5440    9.0590   C 0  0  0  0  0  0  0  0  0  0  0  0
   -1.7040   17.5670    7.6140   C 0  0  0  0  0  0  0  0  0  0  0  0
   -0.1890   17.5130    7.6320   C 0  0  0  0  0  0  0  0  0  0  0  0
    0.4560   16.7810    8.5700   C 0  0  0  0  0  0  0  0  0  0  0  0
    1.7680   16.5540    8.4920   C 0  0  0  0  0  0  0  0  0  0  0  0
   -2.2090   15.1360    9.1100   O 0  0  0  0  0  0  0  0  0  0  0  0
   -3.6130   17.5680    9.1240   O 0  0  0  0  0  0  0  0  0  0  0  0
   -2.1830   18.7470    6.9540   O 0  0  0  0  0  0  0  0  0  0  0  0
   -0.2350   16.2310    9.7290   O 0  0  0  0  0  0  0  0  0  0  0  0
    2.3230   15.8720    9.3980   O 0  0  0  0  0  0  0  0  0  0  0  0
   -3.6910   12.0660    8.3570   C 0  0  0  0  0  0  0  0  0  0  0  0
   -2.3940   12.5410    7.6960   C 0  0  0  0  0  0  0  0  0  0  0  0
   -1.3470   12.9050    8.7520   C 0  0  0  0  0  0  0  0  0  0  0  0
   -1.9160   13.8990    9.7670   C 0  0  0  0  0  0  0  0  0  0  0  0
   -3.1940   13.3090   10.3790   C 0  0  0  0  0  0  0  0  0  0  0  0
   -3.8160   14.2420   11.3830   C 0  0  0  0  0  0  0  0  0  0  0  0
   -3.4930   10.7820    8.9700   O 0  0  0  0  0  0  0  0  0  0  0  0
   -1.8890   11.5220    6.8280   O 0  0  0  0  0  0  0  0  0  0  0  0
   -0.1720   13.4310    8.1210   O 0  0  0  0  0  0  0  0  0  0  0  0
   -4.1350   13.0210    9.3320   O 0  0  0  0  0  0  0  0  0  0  0  0
   -3.1310   14.6390   12.3520   O 0  0  0  0  0  0  0  0  0  0  0  0
   -5.0070   14.5950   11.2200   O 0  0  0  0  0  0  0  0  0  0  0  0
    2.4090   17.0340    7.5220   O 0  0  0  0  0  0  0  0  0  0  0  0
  1  2  1  0  0  0  0
  1  7  1  0  0  0  0
  1 10  1  0  0  0  0
  2  3  1  0  0  0  0
  2  8  1  0  0  0  0
  3  4  1  0  0  0  0
  3  9  1  0  0  0  0
  4  5  2  0  0  0  0
  5  6  1  0  0  0  0
  5 10  1  0  0  0  0
  6 11  2  0  0  0  0
  6 24  1  0  0  0  0
  7 15  1  0  0  0  0
 12 13  1  0  0  0  0
 12 18  1  0  0  0  0
 12 21  1  0  0  0  0
 13 14  1  0  0  0  0
 13 19  1  0  0  0  0
 14 15  1  0  0  0  0
 14 20  1  0  0  0  0
 15 16  1  0  0  0  0
 16 17  1  0  0  0  0
 16 21  1  0  0  0  0
 17 22  1  0  0  0  0
 17 23  2  0  0  0  0
A    1
C1
A    2
C2
A    3
C3
A    4
C4
A    5
C5
A    6
C6
A    7
O1
A    8
O2
A    9
O3
A   10
O5
A   11
O6
A   12
C1'
A   13
C2'
A   14
C3'
A   15
C4'
A   16
C5'
A   17
C6'
A   18
O1'
A   19
O2'
A   20
O3'
A   21
O5'
A   22
O6'
A   23
OAC
A   24
OAN
M  END
>  <InstanceId>
2W47_UNF_A_1138

>  <ChemCompId>
UNF

>  <PdbId>
2W47

>  <ChainId>
A

>  <ResidueNumber>
1138

>  <InsertionCode>


>  <Model>
1

>  <AltIds>


>  <MissingHeavyAtoms>
0

>  <ObservedFormula>
C12 O12

>  <Name>
4-O-(4-deoxy-beta-L-threo-hex-4-enopyranuronosyl)-beta-D-galactopyranuronic acid

>  <SystematicName>
(4S,5R,6S)-6-[(2S,3R,4R,5R,6R)-2-carboxy-4,5,6-trihydroxy-oxan-3-yl]oxy-4,5-dihydroxy-5,6-dihydro-4H-pyran-2-carboxylic acid

>  <Synonyms>


>  <Type>
non-polymer

>  <Formula>
C12 H16 O12

>  <MolecularWeight>
352.248

>  <ModifiedDate>
2011-06-04

>  <Parent>


>  <OneLetterCode>


>  <SubcomponentList>


>  <AmbiguousFlag>


>  <InChI>
InChI=1S/C12H16O12/c13-2-1-3(9(17)18)22-12(4(2)14)24-7-5(15)6(16)11(21)23-8(7)10(19)20/h1-2,4-8,11-16,21H,(H,17,18)(H,19,20)/t2-,4+,5+,6+,7+,8-,11+,12+/m0/s1

>  <InChIKey>
LLVVMXFNKAHVEZ-KMBKDFKYSA-N

>  <SMILES>
C1=C(O[C@@H]([C@@H]([C@H]1O)O)O[C@@H]2[C@@H]([C@H]([C@@H](O[C@@H]2C(=O)O)O)O)O)C(=O)O

$$$$
