2QMG_SC6_A_1


 47 51  0  0  0  0  0  0  0  0999 V2000
   22.3022   10.8308   23.1612 C   0  0  0  0  0  0  0  0  0  0  0  0
   23.3721   13.0919   23.4745 C   0  0  0  0  0  0  0  0  0  0  0  0
   23.4524   11.7153   23.4734 N   0  0  0  0  0  0  0  0  0  0  0  0
   22.3219   13.6830   23.2146 O   0  0  0  0  0  0  0  0  0  0  0  0
   24.3170   11.2978   23.6908 H   0  0  0  0  0  0  0  0  0  0  0  0
   27.0323   15.1799   24.4337 C   0  0  0  0  0  0  0  0  0  0  0  0
   25.7979   15.6591   24.9458 C   0  0  0  0  0  0  0  0  0  0  0  0
   24.5924   14.9648   24.6276 C   0  0  0  0  0  0  0  0  0  0  0  0
   24.6210   13.8001   23.8017 C   0  0  0  0  0  0  0  0  0  0  0  0
   25.8527   13.3453   23.3118 C   0  0  0  0  0  0  0  0  0  0  0  0
   27.0663   14.0208   23.6098 C   0  0  0  0  0  0  0  0  0  0  0  0
   25.7722   16.8902   25.8145 C   0  0  0  0  0  0  0  0  0  0  0  0
   28.3447   13.4946   23.0721 C   0  0  0  0  0  0  0  0  0  0  0  0
   28.5139   13.3182   21.6820 N   0  0  0  0  0  0  0  0  0  0  0  0
   29.2587   13.1948   23.8375 O   0  0  0  0  0  0  0  0  0  0  0  0
   27.5639   13.6107   20.5921 C   0  0  0  0  0  0  0  0  0  0  0  0
   28.5053   14.2048   19.5393 C   0  0  0  0  0  0  0  0  0  0  0  0
   29.8216   13.4245   19.7068 C   0  0  0  0  0  0  0  0  0  0  0  0
   29.7559   12.7871   21.1087 C   0  0  0  0  0  0  0  0  0  0  0  0
   29.6769   11.2406   20.9973 C   0  0  0  0  0  0  0  0  0  0  0  0
   29.7681    9.7000   22.8323 C   0  0  0  0  0  0  0  0  0  0  0  0
   30.4589   10.6203   22.0123 O   0  0  0  0  0  0  0  0  0  0  0  0
   21.8030   10.0655   24.4091 C   0  0  0  0  0  0  0  0  0  0  0  0
   20.7404    9.2317   24.0104 O   0  0  0  0  0  0  0  0  0  0  0  0
   20.0098    9.7759   23.6774 H   0  0  0  0  0  0  0  0  0  0  0  0
   19.1039   11.6786   26.4376 C   0  0  0  0  0  0  0  0  0  0  0  0
   20.0227   11.0916   27.4982 C   0  0  0  0  0  0  0  0  0  0  0  0
   20.8686   10.1707   26.7352 N   0  0  0  0  0  0  0  0  0  0  0  0
   20.0344   11.8116   25.2198 C   0  0  0  0  0  0  0  0  0  0  0  0
   21.2775   10.9611   25.5650 C   0  0  0  0  0  0  0  0  0  0  0  0
   20.3423    9.3447   26.4503 H   0  0  0  0  0  0  0  0  0  0  0  0
   18.0700   10.7119   26.2520 O   0  0  0  0  0  0  0  0  0  0  0  0
   17.2324   10.7897   25.1251 C   0  0  0  0  0  0  0  0  0  0  0  0
   16.6101   11.9767   24.6017 C   0  0  0  0  0  0  0  0  0  0  0  0
   15.7893   11.8989   23.4527 C   0  0  0  0  0  0  0  0  0  0  0  0
   15.5814   10.6507   22.8145 C   0  0  0  0  0  0  0  0  0  0  0  0
   16.1940    9.4836   23.3292 C   0  0  0  0  0  0  0  0  0  0  0  0
   17.0138    9.5581   24.4762 C   0  0  0  0  0  0  0  0  0  0  0  0
   22.7252    9.8384   22.0558 C   0  0  0  0  0  0  0  0  0  0  0  0
   23.4847   10.4506   20.9041 C   0  0  0  0  0  0  0  0  0  0  0  0
   22.8475   11.4097   20.0720 C   0  0  0  0  0  0  0  0  0  0  0  0
   23.5588   11.9836   18.9978 C   0  0  0  0  0  0  0  0  0  0  0  0
   24.8946   11.6411   18.7068 C   0  0  0  0  0  0  0  0  0  0  0  0
   25.5142   10.6840   19.5425 C   0  0  0  0  0  0  0  0  0  0  0  0
   24.8391   10.0837   20.6306 C   0  0  0  0  0  0  0  0  0  0  0  0
   22.9411   12.8813   18.2335 F   0  0  0  0  0  0  0  0  0  0  0  0
   26.7735   10.3406   19.2931 F   0  0  0  0  0  0  0  0  0  0  0  0
  6 11  1  0  0  0
  6  7  2  0  0  0
  7  8  1  0  0  0
  7 12  1  0  0  0
  8  9  2  0  0  0
  9 10  1  0  0  0
  9  2  1  0  0  0
 10 11  2  0  0  0
 11 13  1  0  0  0
 13 14  1  0  0  0
 13 15  2  0  0  0
 14 16  1  0  0  0
 14 19  1  0  0  0
 16 17  1  0  0  0
 17 18  1  0  0  0
 18 19  1  0  0  0
 19 20  1  0  0  0
 20 22  1  0  0  0
  2  4  2  0  0  0
  2  3  1  0  0  0
  3  1  1  0  0  0
  1 39  1  0  0  0
  1 23  1  0  0  0
 23 24  1  0  0  0
 23 30  1  0  0  0
 39 40  1  0  0  0
 40 45  2  0  0  0
 40 41  1  0  0  0
 41 42  2  0  0  0
 42 43  1  0  0  0
 42 46  1  0  0  0
 43 44  2  0  0  0
 44 47  1  0  0  0
 44 45  1  0  0  0
 26 29  1  0  0  0
 26 32  1  0  0  0
 26 27  1  0  0  0
 27 28  1  0  0  0
 28 30  1  0  0  0
 29 30  1  0  0  0
 32 33  1  0  0  0
 33 38  2  0  0  0
 33 34  1  0  0  0
 34 35  2  0  0  0
 35 36  1  0  0  0
 36 37  2  0  0  0
 37 38  1  0  0  0
 21 22  1  0  0  0
  3  5  1  0  0  0
 24 25  1  0  0  0
 28 31  1  0  0  0
M  END
> <minimizedAffinity>
-12.63545

$$$$
2QMG_SC6_A_1


 47 51  0  0  0  0  0  0  0  0999 V2000
   22.4345   10.8607   23.0758 C   0  0  0  0  0  0  0  0  0  0  0  0
   23.4170   13.1671   23.3418 C   0  0  0  0  0  0  0  0  0  0  0  0
   23.5511   11.7949   23.3646 N   0  0  0  0  0  0  0  0  0  0  0  0
   22.3430   13.7120   23.0784 O   0  0  0  0  0  0  0  0  0  0  0  0
   24.4327   11.4153   23.5836 H   0  0  0  0  0  0  0  0  0  0  0  0
   26.9979   15.4130   24.2417 C   0  0  0  0  0  0  0  0  0  0  0  0
   25.8044   15.6798   24.9626 C   0  0  0  0  0  0  0  0  0  0  0  0
   24.6252   14.9339   24.6628 C   0  0  0  0  0  0  0  0  0  0  0  0
   24.6392   13.9292   23.6480 C   0  0  0  0  0  0  0  0  0  0  0  0
   25.8310   13.6824   22.9533 C   0  0  0  0  0  0  0  0  0  0  0  0
   27.0171   14.4139   23.2292 C   0  0  0  0  0  0  0  0  0  0  0  0
   25.7935   16.7428   26.0305 C   0  0  0  0  0  0  0  0  0  0  0  0
   28.2548   14.1095   22.4702 C   0  0  0  0  0  0  0  0  0  0  0  0
   29.4096   14.9024   22.6431 N   0  0  0  0  0  0  0  0  0  0  0  0
   28.2753   13.1729   21.6743 O   0  0  0  0  0  0  0  0  0  0  0  0
   29.6094   16.0597   23.5356 C   0  0  0  0  0  0  0  0  0  0  0  0
   31.0312   15.7933   24.0411 C   0  0  0  0  0  0  0  0  0  0  0  0
   31.7587   15.1555   22.8439 C   0  0  0  0  0  0  0  0  0  0  0  0
   30.6499   14.6457   21.9022 C   0  0  0  0  0  0  0  0  0  0  0  0
   30.6567   15.4483   20.5733 C   0  0  0  0  0  0  0  0  0  0  0  0
   29.3273   15.3084   18.5827 C   0  0  0  0  0  0  0  0  0  0  0  0
   30.1783   14.6483   19.4974 O   0  0  0  0  0  0  0  0  0  0  0  0
   21.9859   10.0851   24.3364 C   0  0  0  0  0  0  0  0  0  0  0  0
   20.9664    9.1911   23.9559 O   0  0  0  0  0  0  0  0  0  0  0  0
   20.2054    9.6916   23.6223 H   0  0  0  0  0  0  0  0  0  0  0  0
   19.2187   11.6332   26.3235 C   0  0  0  0  0  0  0  0  0  0  0  0
   20.1318   11.0625   27.3979 C   0  0  0  0  0  0  0  0  0  0  0  0
   21.0102   10.1625   26.6467 N   0  0  0  0  0  0  0  0  0  0  0  0
   20.1666   11.7901   25.1221 C   0  0  0  0  0  0  0  0  0  0  0  0
   21.4217   10.9653   25.4859 C   0  0  0  0  0  0  0  0  0  0  0  0
   20.5066    9.3264   26.3504 H   0  0  0  0  0  0  0  0  0  0  0  0
   18.2091   10.6451   26.1175 O   0  0  0  0  0  0  0  0  0  0  0  0
   17.3419   10.7489   25.0154 C   0  0  0  0  0  0  0  0  0  0  0  0
   17.0436    9.7144   24.0609 C   0  0  0  0  0  0  0  0  0  0  0  0
   16.1447    9.9678   22.9989 C   0  0  0  0  0  0  0  0  0  0  0  0
   15.5351   11.2413   22.8760 C   0  0  0  0  0  0  0  0  0  0  0  0
   15.8283   12.2582   23.8152 C   0  0  0  0  0  0  0  0  0  0  0  0
   16.7254   12.0084   24.8764 C   0  0  0  0  0  0  0  0  0  0  0  0
   22.8827    9.8781   21.9715 C   0  0  0  0  0  0  0  0  0  0  0  0
   23.5922   10.5134   20.8005 C   0  0  0  0  0  0  0  0  0  0  0  0
   24.9291   10.1379   20.5003 C   0  0  0  0  0  0  0  0  0  0  0  0
   25.5903   10.7296   19.4041 C   0  0  0  0  0  0  0  0  0  0  0  0
   24.9751   11.6942   18.5810 C   0  0  0  0  0  0  0  0  0  0  0  0
   23.6455   12.0588   18.8937 C   0  0  0  0  0  0  0  0  0  0  0  0
   22.9444   11.4907   19.9826 C   0  0  0  0  0  0  0  0  0  0  0  0
   26.8418   10.3602   19.1415 F   0  0  0  0  0  0  0  0  0  0  0  0
   23.0387   12.9659   18.1355 F   0  0  0  0  0  0  0  0  0  0  0  0
  6 11  1  0  0  0
  6  7  2  0  0  0
  7  8  1  0  0  0
  7 12  1  0  0  0
  8  9  2  0  0  0
  9 10  1  0  0  0
  9  2  1  0  0  0
 10 11  2  0  0  0
 11 13  1  0  0  0
 13 14  1  0  0  0
 13 15  2  0  0  0
 14 16  1  0  0  0
 14 19  1  0  0  0
 16 17  1  0  0  0
 17 18  1  0  0  0
 18 19  1  0  0  0
 19 20  1  0  0  0
 20 22  1  0  0  0
  2  4  2  0  0  0
  2  3  1  0  0  0
  3  1  1  0  0  0
  1 39  1  0  0  0
  1 23  1  0  0  0
 23 24  1  0  0  0
 23 30  1  0  0  0
 39 40  1  0  0  0
 40 45  2  0  0  0
 40 41  1  0  0  0
 41 42  2  0  0  0
 42 43  1  0  0  0
 42 46  1  0  0  0
 43 44  2  0  0  0
 44 47  1  0  0  0
 44 45  1  0  0  0
 26 29  1  0  0  0
 26 32  1  0  0  0
 26 27  1  0  0  0
 27 28  1  0  0  0
 28 30  1  0  0  0
 29 30  1  0  0  0
 32 33  1  0  0  0
 33 38  2  0  0  0
 33 34  1  0  0  0
 34 35  2  0  0  0
 35 36  1  0  0  0
 36 37  2  0  0  0
 37 38  1  0  0  0
 21 22  1  0  0  0
  3  5  1  0  0  0
 24 25  1  0  0  0
 28 31  1  0  0  0
M  END
> <minimizedAffinity>
-11.30934

$$$$
2QMG_SC6_A_1


 47 51  0  0  0  0  0  0  0  0999 V2000
   22.3906   10.9633   23.1299 C   0  0  0  0  0  0  0  0  0  0  0  0
   23.6970   13.1093   23.3391 C   0  0  0  0  0  0  0  0  0  0  0  0
   23.6337   11.7326   23.3864 N   0  0  0  0  0  0  0  0  0  0  0  0
   22.7080   13.7980   23.0792 O   0  0  0  0  0  0  0  0  0  0  0  0
   24.4552   11.2345   23.6014 H   0  0  0  0  0  0  0  0  0  0  0  0
   27.5843   14.8142   24.1507 C   0  0  0  0  0  0  0  0  0  0  0  0
   27.4911   13.5963   23.4271 C   0  0  0  0  0  0  0  0  0  0  0  0
   26.2049   13.0386   23.1601 C   0  0  0  0  0  0  0  0  0  0  0  0
   25.0201   13.6936   23.6150 C   0  0  0  0  0  0  0  0  0  0  0  0
   25.1390   14.8966   24.3240 C   0  0  0  0  0  0  0  0  0  0  0  0
   26.4074   15.4702   24.6069 C   0  0  0  0  0  0  0  0  0  0  0  0
   28.7439   12.9072   22.9517 C   0  0  0  0  0  0  0  0  0  0  0  0
   26.4788   16.7492   25.3551 C   0  0  0  0  0  0  0  0  0  0  0  0
   27.6621   17.5184   25.3395 N   0  0  0  0  0  0  0  0  0  0  0  0
   25.5110   17.1377   26.0057 O   0  0  0  0  0  0  0  0  0  0  0  0
   28.9288   17.2492   24.6331 C   0  0  0  0  0  0  0  0  0  0  0  0
   29.2913   18.6550   24.1430 C   0  0  0  0  0  0  0  0  0  0  0  0
   28.8017   19.5962   25.2583 C   0  0  0  0  0  0  0  0  0  0  0  0
   27.7809   18.7815   26.0769 C   0  0  0  0  0  0  0  0  0  0  0  0
   28.3212   18.5181   27.5083 C   0  0  0  0  0  0  0  0  0  0  0  0
   27.4936   20.4898   28.5930 C   0  0  0  0  0  0  0  0  0  0  0  0
   27.4545   19.0814   28.4871 O   0  0  0  0  0  0  0  0  0  0  0  0
   21.9396   10.1585   24.3713 C   0  0  0  0  0  0  0  0  0  0  0  0
   20.9133    9.2815   23.9703 O   0  0  0  0  0  0  0  0  0  0  0  0
   20.1550    9.7954   23.6515 H   0  0  0  0  0  0  0  0  0  0  0  0
   19.1870   11.6560   26.4167 C   0  0  0  0  0  0  0  0  0  0  0  0
   20.1119   11.0656   27.4700 C   0  0  0  0  0  0  0  0  0  0  0  0
   20.9857   10.1843   26.6918 N   0  0  0  0  0  0  0  0  0  0  0  0
   20.1231   11.8411   25.2099 C   0  0  0  0  0  0  0  0  0  0  0  0
   21.3839   11.0127   25.5444 C   0  0  0  0  0  0  0  0  0  0  0  0
   20.4817    9.3531   26.3827 H   0  0  0  0  0  0  0  0  0  0  0  0
   18.1784   10.6694   26.1994 O   0  0  0  0  0  0  0  0  0  0  0  0
   17.3117   10.7845   25.0980 C   0  0  0  0  0  0  0  0  0  0  0  0
   17.0336    9.7682   24.1181 C   0  0  0  0  0  0  0  0  0  0  0  0
   16.1325   10.0313   23.0603 C   0  0  0  0  0  0  0  0  0  0  0  0
   15.5007   11.2964   22.9667 C   0  0  0  0  0  0  0  0  0  0  0  0
   15.7739   12.2953   23.9309 C   0  0  0  0  0  0  0  0  0  0  0  0
   16.6731   12.0358   24.9879 C   0  0  0  0  0  0  0  0  0  0  0  0
   22.6312   10.0162   21.9338 C   0  0  0  0  0  0  0  0  0  0  0  0
   23.4905   10.5852   20.8311 C   0  0  0  0  0  0  0  0  0  0  0  0
   22.9460   11.5507   19.9424 C   0  0  0  0  0  0  0  0  0  0  0  0
   23.7504   12.0842   18.9141 C   0  0  0  0  0  0  0  0  0  0  0  0
   25.0915   11.6945   18.7241 C   0  0  0  0  0  0  0  0  0  0  0  0
   25.6182   10.7316   19.6151 C   0  0  0  0  0  0  0  0  0  0  0  0
   24.8480   10.1708   20.6603 C   0  0  0  0  0  0  0  0  0  0  0  0
   23.2186   12.9888   18.0953 F   0  0  0  0  0  0  0  0  0  0  0  0
   26.8800   10.3442   19.4612 F   0  0  0  0  0  0  0  0  0  0  0  0
  6 11  1  0  0  0
  6  7  2  0  0  0
  7  8  1  0  0  0
  7 12  1  0  0  0
  8  9  2  0  0  0
  9 10  1  0  0  0
  9  2  1  0  0  0
 10 11  2  0  0  0
 11 13  1  0  0  0
 13 14  1  0  0  0
 13 15  2  0  0  0
 14 16  1  0  0  0
 14 19  1  0  0  0
 16 17  1  0  0  0
 17 18  1  0  0  0
 18 19  1  0  0  0
 19 20  1  0  0  0
 20 22  1  0  0  0
  2  4  2  0  0  0
  2  3  1  0  0  0
  3  1  1  0  0  0
  1 39  1  0  0  0
  1 23  1  0  0  0
 23 24  1  0  0  0
 23 30  1  0  0  0
 39 40  1  0  0  0
 40 45  2  0  0  0
 40 41  1  0  0  0
 41 42  2  0  0  0
 42 43  1  0  0  0
 42 46  1  0  0  0
 43 44  2  0  0  0
 44 47  1  0  0  0
 44 45  1  0  0  0
 26 29  1  0  0  0
 26 32  1  0  0  0
 26 27  1  0  0  0
 27 28  1  0  0  0
 28 30  1  0  0  0
 29 30  1  0  0  0
 32 33  1  0  0  0
 33 38  2  0  0  0
 33 34  1  0  0  0
 34 35  2  0  0  0
 35 36  1  0  0  0
 36 37  2  0  0  0
 37 38  1  0  0  0
 21 22  1  0  0  0
  3  5  1  0  0  0
 24 25  1  0  0  0
 28 31  1  0  0  0
M  END
> <minimizedAffinity>
-10.93196

$$$$
2QMG_SC6_A_1


 47 51  0  0  0  0  0  0  0  0999 V2000
   26.9571   14.5216   24.5380 C   0  0  0  0  0  0  0  0  0  0  0  0
   25.1136   13.6723   23.0428 C   0  0  0  0  0  0  0  0  0  0  0  0
   25.9326   13.5234   24.1421 N   0  0  0  0  0  0  0  0  0  0  0  0
   25.1846   14.6589   22.3069 O   0  0  0  0  0  0  0  0  0  0  0  0
   25.8326   12.7133   24.6926 H   0  0  0  0  0  0  0  0  0  0  0  0
   22.2916   10.4706   22.3631 C   0  0  0  0  0  0  0  0  0  0  0  0
   23.0452   10.9826   21.2743 C   0  0  0  0  0  0  0  0  0  0  0  0
   23.9772   12.0386   21.5046 C   0  0  0  0  0  0  0  0  0  0  0  0
   24.1531   12.5798   22.8144 C   0  0  0  0  0  0  0  0  0  0  0  0
   23.3997   12.0544   23.8729 C   0  0  0  0  0  0  0  0  0  0  0  0
   22.4623   11.0067   23.6696 C   0  0  0  0  0  0  0  0  0  0  0  0
   22.8542   10.4104   19.8935 C   0  0  0  0  0  0  0  0  0  0  0  0
   21.6945   10.4808   24.8248 C   0  0  0  0  0  0  0  0  0  0  0  0
   20.5064   11.1195   25.2405 N   0  0  0  0  0  0  0  0  0  0  0  0
   22.0986    9.4938   25.4359 O   0  0  0  0  0  0  0  0  0  0  0  0
   19.8422   12.3017   24.6600 C   0  0  0  0  0  0  0  0  0  0  0  0
   18.3715   11.8822   24.7529 C   0  0  0  0  0  0  0  0  0  0  0  0
   18.2796   11.0640   26.0535 C   0  0  0  0  0  0  0  0  0  0  0  0
   19.7242   10.6418   26.3865 C   0  0  0  0  0  0  0  0  0  0  0  0
   20.2042   11.3352   27.6900 C   0  0  0  0  0  0  0  0  0  0  0  0
   22.0308   12.8390   28.0787 C   0  0  0  0  0  0  0  0  0  0  0  0
   21.6097   11.5583   27.6556 O   0  0  0  0  0  0  0  0  0  0  0  0
   28.3627   13.8898   24.6694 C   0  0  0  0  0  0  0  0  0  0  0  0
   29.0338   14.5399   25.7231 O   0  0  0  0  0  0  0  0  0  0  0  0
   29.1436   15.4789   25.5059 H   0  0  0  0  0  0  0  0  0  0  0  0
   28.9928   13.7841   20.9823 C   0  0  0  0  0  0  0  0  0  0  0  0
   29.6516   15.0889   21.4034 C   0  0  0  0  0  0  0  0  0  0  0  0
   29.1142   15.3164   22.7471 N   0  0  0  0  0  0  0  0  0  0  0  0
   28.9653   12.9803   22.2938 C   0  0  0  0  0  0  0  0  0  0  0  0
   29.2604   14.0108   23.4068 C   0  0  0  0  0  0  0  0  0  0  0  0
   28.1338   15.5946   22.7043 H   0  0  0  0  0  0  0  0  0  0  0  0
   27.6925   14.1465   20.5179 O   0  0  0  0  0  0  0  0  0  0  0  0
   26.9673   13.2593   19.7029 C   0  0  0  0  0  0  0  0  0  0  0  0
   27.1674   11.8385   19.5950 C   0  0  0  0  0  0  0  0  0  0  0  0
   26.3542   11.0720   18.7282 C   0  0  0  0  0  0  0  0  0  0  0  0
   25.3393   11.7035   17.9669 C   0  0  0  0  0  0  0  0  0  0  0  0
   25.1424   13.1007   18.0738 C   0  0  0  0  0  0  0  0  0  0  0  0
   25.9527   13.8686   18.9380 C   0  0  0  0  0  0  0  0  0  0  0  0
   26.5307   15.1665   25.8751 C   0  0  0  0  0  0  0  0  0  0  0  0
   26.2308   16.6441   25.8048 C   0  0  0  0  0  0  0  0  0  0  0  0
   27.1992   17.5805   26.2563 C   0  0  0  0  0  0  0  0  0  0  0  0
   26.9196   18.9611   26.1874 C   0  0  0  0  0  0  0  0  0  0  0  0
   25.7017   19.4617   25.6847 C   0  0  0  0  0  0  0  0  0  0  0  0
   24.7476   18.5175   25.2413 C   0  0  0  0  0  0  0  0  0  0  0  0
   24.9861   17.1244   25.2913 C   0  0  0  0  0  0  0  0  0  0  0  0
   27.8432   19.8191   26.6145 F   0  0  0  0  0  0  0  0  0  0  0  0
   23.5895   18.9591   24.7619 F   0  0  0  0  0  0  0  0  0  0  0  0
  6 11  1  0  0  0
  6  7  2  0  0  0
  7  8  1  0  0  0
  7 12  1  0  0  0
  8  9  2  0  0  0
  9 10  1  0  0  0
  9  2  1  0  0  0
 10 11  2  0  0  0
 11 13  1  0  0  0
 13 14  1  0  0  0
 13 15  2  0  0  0
 14 16  1  0  0  0
 14 19  1  0  0  0
 16 17  1  0  0  0
 17 18  1  0  0  0
 18 19  1  0  0  0
 19 20  1  0  0  0
 20 22  1  0  0  0
  2  4  2  0  0  0
  2  3  1  0  0  0
  3  1  1  0  0  0
  1 39  1  0  0  0
  1 23  1  0  0  0
 23 24  1  0  0  0
 23 30  1  0  0  0
 39 40  1  0  0  0
 40 45  2  0  0  0
 40 41  1  0  0  0
 41 42  2  0  0  0
 42 43  1  0  0  0
 42 46  1  0  0  0
 43 44  2  0  0  0
 44 47  1  0  0  0
 44 45  1  0  0  0
 26 29  1  0  0  0
 26 32  1  0  0  0
 26 27  1  0  0  0
 27 28  1  0  0  0
 28 30  1  0  0  0
 29 30  1  0  0  0
 32 33  1  0  0  0
 33 38  2  0  0  0
 33 34  1  0  0  0
 34 35  2  0  0  0
 35 36  1  0  0  0
 36 37  2  0  0  0
 37 38  1  0  0  0
 21 22  1  0  0  0
  3  5  1  0  0  0
 24 25  1  0  0  0
 28 31  1  0  0  0
M  END
> <minimizedAffinity>
-10.34953

$$$$
2QMG_SC6_A_1


 47 51  0  0  0  0  0  0  0  0999 V2000
   26.0225   13.7240   23.4913 C   0  0  0  0  0  0  0  0  0  0  0  0
   23.5616   13.4289   23.9524 C   0  0  0  0  0  0  0  0  0  0  0  0
   24.8809   13.2090   24.2878 N   0  0  0  0  0  0  0  0  0  0  0  0
   23.2432   14.0753   22.9520 O   0  0  0  0  0  0  0  0  0  0  0  0
   25.0756   12.6834   25.0972 H   0  0  0  0  0  0  0  0  0  0  0  0
   20.6535   11.7114   26.6485 C   0  0  0  0  0  0  0  0  0  0  0  0
   21.7839   12.3885   27.1769 C   0  0  0  0  0  0  0  0  0  0  0  0
   22.7402   12.9556   26.2821 C   0  0  0  0  0  0  0  0  0  0  0  0
   22.5680   12.8448   24.8688 C   0  0  0  0  0  0  0  0  0  0  0  0
   21.4417   12.1746   24.3725 C   0  0  0  0  0  0  0  0  0  0  0  0
   20.4776   11.5974   25.2416 C   0  0  0  0  0  0  0  0  0  0  0  0
   21.9630   12.5004   28.6688 C   0  0  0  0  0  0  0  0  0  0  0  0
   19.2991   10.9044   24.6658 C   0  0  0  0  0  0  0  0  0  0  0  0
   18.0048   11.4421   24.8326 N   0  0  0  0  0  0  0  0  0  0  0  0
   19.4432    9.8487   24.0529 O   0  0  0  0  0  0  0  0  0  0  0  0
   17.6026   12.6832   25.5209 C   0  0  0  0  0  0  0  0  0  0  0  0
   16.5244   13.2071   24.5666 C   0  0  0  0  0  0  0  0  0  0  0  0
   15.8312   11.9427   24.0278 C   0  0  0  0  0  0  0  0  0  0  0  0
   16.8106   10.7822   24.2926 C   0  0  0  0  0  0  0  0  0  0  0  0
   16.2186    9.8025   25.3413 C   0  0  0  0  0  0  0  0  0  0  0  0
   15.6170    8.4229   23.4748 C   0  0  0  0  0  0  0  0  0  0  0  0
   16.1037    8.4911   24.7995 O   0  0  0  0  0  0  0  0  0  0  0  0
   26.4972   12.7036   22.4304 C   0  0  0  0  0  0  0  0  0  0  0  0
   27.7049   12.1378   22.8825 O   0  0  0  0  0  0  0  0  0  0  0  0
   28.3789   12.8314   22.9575 H   0  0  0  0  0  0  0  0  0  0  0  0
   26.1123   12.8068   18.7097 C   0  0  0  0  0  0  0  0  0  0  0  0
   25.8728   14.2526   19.1174 C   0  0  0  0  0  0  0  0  0  0  0  0
   25.6678   14.1622   20.5650 N   0  0  0  0  0  0  0  0  0  0  0  0
   26.9264   12.2524   19.8914 C   0  0  0  0  0  0  0  0  0  0  0  0
   26.7656   13.2964   21.0194 C   0  0  0  0  0  0  0  0  0  0  0  0
   24.7624   13.7438   20.7787 H   0  0  0  0  0  0  0  0  0  0  0  0
   24.8145   12.2226   18.5980 O   0  0  0  0  0  0  0  0  0  0  0  0
   24.3608   11.3301   19.5854 C   0  0  0  0  0  0  0  0  0  0  0  0
   24.9494   10.0629   19.9291 C   0  0  0  0  0  0  0  0  0  0  0  0
   24.3785    9.2703   20.9518 C   0  0  0  0  0  0  0  0  0  0  0  0
   23.2268    9.7258   21.6407 C   0  0  0  0  0  0  0  0  0  0  0  0
   22.6487   10.9723   21.3029 C   0  0  0  0  0  0  0  0  0  0  0  0
   23.2162   11.7657   20.2823 C   0  0  0  0  0  0  0  0  0  0  0  0
   27.1788   14.0772   24.4524 C   0  0  0  0  0  0  0  0  0  0  0  0
   27.0608   15.4222   25.1270 C   0  0  0  0  0  0  0  0  0  0  0  0
   28.1067   15.8788   25.9732 C   0  0  0  0  0  0  0  0  0  0  0  0
   27.9971   17.1371   26.6007 C   0  0  0  0  0  0  0  0  0  0  0  0
   26.8772   17.9746   26.4249 C   0  0  0  0  0  0  0  0  0  0  0  0
   25.8442   17.5055   25.5815 C   0  0  0  0  0  0  0  0  0  0  0  0
   25.9125   16.2512   24.9319 C   0  0  0  0  0  0  0  0  0  0  0  0
   28.9907   17.5440   27.3874 F   0  0  0  0  0  0  0  0  0  0  0  0
   24.7753   18.2731   25.3961 F   0  0  0  0  0  0  0  0  0  0  0  0
  6 11  1  0  0  0
  6  7  2  0  0  0
  7  8  1  0  0  0
  7 12  1  0  0  0
  8  9  2  0  0  0
  9 10  1  0  0  0
  9  2  1  0  0  0
 10 11  2  0  0  0
 11 13  1  0  0  0
 13 14  1  0  0  0
 13 15  2  0  0  0
 14 16  1  0  0  0
 14 19  1  0  0  0
 16 17  1  0  0  0
 17 18  1  0  0  0
 18 19  1  0  0  0
 19 20  1  0  0  0
 20 22  1  0  0  0
  2  4  2  0  0  0
  2  3  1  0  0  0
  3  1  1  0  0  0
  1 39  1  0  0  0
  1 23  1  0  0  0
 23 24  1  0  0  0
 23 30  1  0  0  0
 39 40  1  0  0  0
 40 45  2  0  0  0
 40 41  1  0  0  0
 41 42  2  0  0  0
 42 43  1  0  0  0
 42 46  1  0  0  0
 43 44  2  0  0  0
 44 47  1  0  0  0
 44 45  1  0  0  0
 26 29  1  0  0  0
 26 32  1  0  0  0
 26 27  1  0  0  0
 27 28  1  0  0  0
 28 30  1  0  0  0
 29 30  1  0  0  0
 32 33  1  0  0  0
 33 38  2  0  0  0
 33 34  1  0  0  0
 34 35  2  0  0  0
 35 36  1  0  0  0
 36 37  2  0  0  0
 37 38  1  0  0  0
 21 22  1  0  0  0
  3  5  1  0  0  0
 24 25  1  0  0  0
 28 31  1  0  0  0
M  END
> <minimizedAffinity>
-9.87516

$$$$
2QMG_SC6_A_1


 47 51  0  0  0  0  0  0  0  0999 V2000
   23.7201   11.5831   21.7901 C   0  0  0  0  0  0  0  0  0  0  0  0
   24.1910   13.6624   23.1355 C   0  0  0  0  0  0  0  0  0  0  0  0
   24.6306   12.5364   22.4718 N   0  0  0  0  0  0  0  0  0  0  0  0
   22.9944   13.9503   23.2072 O   0  0  0  0  0  0  0  0  0  0  0  0
   25.5981   12.3557   22.4490 H   0  0  0  0  0  0  0  0  0  0  0  0
   27.2766   16.1061   24.9200 C   0  0  0  0  0  0  0  0  0  0  0  0
   25.9120   16.4120   25.1647 C   0  0  0  0  0  0  0  0  0  0  0  0
   24.8971   15.6007   24.5746 C   0  0  0  0  0  0  0  0  0  0  0  0
   25.2444   14.4920   23.7442 C   0  0  0  0  0  0  0  0  0  0  0  0
   26.5987   14.2087   23.5211 C   0  0  0  0  0  0  0  0  0  0  0  0
   27.6280   15.0034   24.0929 C   0  0  0  0  0  0  0  0  0  0  0  0
   25.5502   17.5846   26.0392 C   0  0  0  0  0  0  0  0  0  0  0  0
   29.0466   14.6573   23.8316 C   0  0  0  0  0  0  0  0  0  0  0  0
   30.0497   15.6459   23.9244 N   0  0  0  0  0  0  0  0  0  0  0  0
   29.3534   13.5092   23.5174 O   0  0  0  0  0  0  0  0  0  0  0  0
   29.9119   17.0698   24.2840 C   0  0  0  0  0  0  0  0  0  0  0  0
   31.1494   17.2668   25.1656 C   0  0  0  0  0  0  0  0  0  0  0  0
   32.2253   16.3631   24.5369 C   0  0  0  0  0  0  0  0  0  0  0  0
   31.4626   15.3506   23.6600 C   0  0  0  0  0  0  0  0  0  0  0  0
   31.7871   15.5812   22.1595 C   0  0  0  0  0  0  0  0  0  0  0  0
   33.7318   16.4452   21.0545 C   0  0  0  0  0  0  0  0  0  0  0  0
   33.1866   15.4728   21.9226 O   0  0  0  0  0  0  0  0  0  0  0  0
   23.4355   10.3328   22.6549 C   0  0  0  0  0  0  0  0  0  0  0  0
   23.5669    9.1973   21.8325 O   0  0  0  0  0  0  0  0  0  0  0  0
   22.9045    9.2322   21.1247 H   0  0  0  0  0  0  0  0  0  0  0  0
   21.0461   10.4651   25.5317 C   0  0  0  0  0  0  0  0  0  0  0  0
   20.3987   11.3856   24.5083 C   0  0  0  0  0  0  0  0  0  0  0  0
   21.4751   11.6223   23.5433 N   0  0  0  0  0  0  0  0  0  0  0  0
   21.9434    9.5688   24.6609 C   0  0  0  0  0  0  0  0  0  0  0  0
   22.0188   10.2799   23.2910 C   0  0  0  0  0  0  0  0  0  0  0  0
   22.1885   12.2355   23.9375 H   0  0  0  0  0  0  0  0  0  0  0  0
   21.7841   11.3227   26.4023 O   0  0  0  0  0  0  0  0  0  0  0  0
   21.1485   11.9112   27.5100 C   0  0  0  0  0  0  0  0  0  0  0  0
   21.6501   13.0002   28.3055 C   0  0  0  0  0  0  0  0  0  0  0  0
   20.8930   13.4892   29.3954 C   0  0  0  0  0  0  0  0  0  0  0  0
   19.6376   12.9077   29.7028 C   0  0  0  0  0  0  0  0  0  0  0  0
   19.1444   11.8373   28.9199 C   0  0  0  0  0  0  0  0  0  0  0  0
   19.8980   11.3467   27.8314 C   0  0  0  0  0  0  0  0  0  0  0  0
   24.3516   11.1715   20.4419 C   0  0  0  0  0  0  0  0  0  0  0  0
   25.8449   11.3702   20.3489 C   0  0  0  0  0  0  0  0  0  0  0  0
   26.3667   12.6630   20.0755 C   0  0  0  0  0  0  0  0  0  0  0  0
   27.7623   12.8485   19.9918 C   0  0  0  0  0  0  0  0  0  0  0  0
   28.6774   11.7912   20.1678 C   0  0  0  0  0  0  0  0  0  0  0  0
   28.1428   10.5105   20.4372 C   0  0  0  0  0  0  0  0  0  0  0  0
   26.7508   10.2792   20.5305 C   0  0  0  0  0  0  0  0  0  0  0  0
   28.2273   14.0693   19.7365 F   0  0  0  0  0  0  0  0  0  0  0  0
   28.9809    9.4935   20.6080 F   0  0  0  0  0  0  0  0  0  0  0  0
  6 11  1  0  0  0
  6  7  2  0  0  0
  7  8  1  0  0  0
  7 12  1  0  0  0
  8  9  2  0  0  0
  9 10  1  0  0  0
  9  2  1  0  0  0
 10 11  2  0  0  0
 11 13  1  0  0  0
 13 14  1  0  0  0
 13 15  2  0  0  0
 14 16  1  0  0  0
 14 19  1  0  0  0
 16 17  1  0  0  0
 17 18  1  0  0  0
 18 19  1  0  0  0
 19 20  1  0  0  0
 20 22  1  0  0  0
  2  4  2  0  0  0
  2  3  1  0  0  0
  3  1  1  0  0  0
  1 39  1  0  0  0
  1 23  1  0  0  0
 23 24  1  0  0  0
 23 30  1  0  0  0
 39 40  1  0  0  0
 40 45  2  0  0  0
 40 41  1  0  0  0
 41 42  2  0  0  0
 42 43  1  0  0  0
 42 46  1  0  0  0
 43 44  2  0  0  0
 44 47  1  0  0  0
 44 45  1  0  0  0
 26 29  1  0  0  0
 26 32  1  0  0  0
 26 27  1  0  0  0
 27 28  1  0  0  0
 28 30  1  0  0  0
 29 30  1  0  0  0
 32 33  1  0  0  0
 33 38  2  0  0  0
 33 34  1  0  0  0
 34 35  2  0  0  0
 35 36  1  0  0  0
 36 37  2  0  0  0
 37 38  1  0  0  0
 21 22  1  0  0  0
  3  5  1  0  0  0
 24 25  1  0  0  0
 28 31  1  0  0  0
M  END
> <minimizedAffinity>
-9.70329

$$$$
2QMG_SC6_A_1


 47 51  0  0  0  0  0  0  0  0999 V2000
   23.9136   13.1374   24.0235 C   0  0  0  0  0  0  0  0  0  0  0  0
   24.7910   14.8793   25.6208 C   0  0  0  0  0  0  0  0  0  0  0  0
   24.5904   14.4208   24.3359 N   0  0  0  0  0  0  0  0  0  0  0  0
   24.4169   14.2397   26.6061 O   0  0  0  0  0  0  0  0  0  0  0  0
   24.9126   14.9731   23.5873 H   0  0  0  0  0  0  0  0  0  0  0  0
   26.7917   18.6968   25.9374 C   0  0  0  0  0  0  0  0  0  0  0  0
   25.3855   18.6570   25.7466 C   0  0  0  0  0  0  0  0  0  0  0  0
   24.7295   17.3937   25.6446 C   0  0  0  0  0  0  0  0  0  0  0  0
   25.4749   16.1787   25.7313 C   0  0  0  0  0  0  0  0  0  0  0  0
   26.8615   16.2451   25.9236 C   0  0  0  0  0  0  0  0  0  0  0  0
   27.5391   17.4896   26.0236 C   0  0  0  0  0  0  0  0  0  0  0  0
   24.6034   19.9416   25.6527 C   0  0  0  0  0  0  0  0  0  0  0  0
   29.0075   17.5055   26.2339 C   0  0  0  0  0  0  0  0  0  0  0  0
   29.8823   17.6661   25.1378 N   0  0  0  0  0  0  0  0  0  0  0  0
   29.4702   17.3631   27.3637 O   0  0  0  0  0  0  0  0  0  0  0  0
   29.5515   17.8538   23.7126 C   0  0  0  0  0  0  0  0  0  0  0  0
   30.5899   18.9063   23.3107 C   0  0  0  0  0  0  0  0  0  0  0  0
   31.8391   18.5601   24.1408 C   0  0  0  0  0  0  0  0  0  0  0  0
   31.3408   17.6730   25.2987 C   0  0  0  0  0  0  0  0  0  0  0  0
   31.9028   16.2327   25.1581 C   0  0  0  0  0  0  0  0  0  0  0  0
   33.0397   15.2438   23.2929 C   0  0  0  0  0  0  0  0  0  0  0  0
   33.0507   16.2180   24.3163 O   0  0  0  0  0  0  0  0  0  0  0  0
   24.4255   12.5179   22.7020 C   0  0  0  0  0  0  0  0  0  0  0  0
   24.6783   13.5688   21.7994 O   0  0  0  0  0  0  0  0  0  0  0  0
   23.8514   14.0399   21.6119 H   0  0  0  0  0  0  0  0  0  0  0  0
   23.1177   10.5996   19.7673 C   0  0  0  0  0  0  0  0  0  0  0  0
   23.1598    9.5511   20.8685 C   0  0  0  0  0  0  0  0  0  0  0  0
   23.9888   10.1813   21.8988 N   0  0  0  0  0  0  0  0  0  0  0  0
   23.0558   11.9181   20.5576 C   0  0  0  0  0  0  0  0  0  0  0  0
   23.4382   11.5402   22.0065 C   0  0  0  0  0  0  0  0  0  0  0  0
   24.9675   10.2071   21.6126 H   0  0  0  0  0  0  0  0  0  0  0  0
   24.3352   10.4370   19.0398 O   0  0  0  0  0  0  0  0  0  0  0  0
   25.2319   11.5142   18.9252 C   0  0  0  0  0  0  0  0  0  0  0  0
   25.0157   12.7332   18.1921 C   0  0  0  0  0  0  0  0  0  0  0  0
   26.0156   13.7332   18.1691 C   0  0  0  0  0  0  0  0  0  0  0  0
   27.2308   13.5354   18.8710 C   0  0  0  0  0  0  0  0  0  0  0  0
   27.4427   12.3367   19.5924 C   0  0  0  0  0  0  0  0  0  0  0  0
   26.4466   11.3366   19.6170 C   0  0  0  0  0  0  0  0  0  0  0  0
   22.3910   13.3853   23.9464 C   0  0  0  0  0  0  0  0  0  0  0  0
   21.5576   12.5364   24.8753 C   0  0  0  0  0  0  0  0  0  0  0  0
   21.8760   12.4876   26.2590 C   0  0  0  0  0  0  0  0  0  0  0  0
   21.0949   11.6965   27.1270 C   0  0  0  0  0  0  0  0  0  0  0  0
   19.9961   10.9381   26.6754 C   0  0  0  0  0  0  0  0  0  0  0  0
   19.6932   10.9956   25.2958 C   0  0  0  0  0  0  0  0  0  0  0  0
   20.4488   11.7757   24.3899 C   0  0  0  0  0  0  0  0  0  0  0  0
   21.4115   11.6684   28.4195 F   0  0  0  0  0  0  0  0  0  0  0  0
   18.6626   10.2912   24.8400 F   0  0  0  0  0  0  0  0  0  0  0  0
  6 11  1  0  0  0
  6  7  2  0  0  0
  7  8  1  0  0  0
  7 12  1  0  0  0
  8  9  2  0  0  0
  9 10  1  0  0  0
  9  2  1  0  0  0
 10 11  2  0  0  0
 11 13  1  0  0  0
 13 14  1  0  0  0
 13 15  2  0  0  0
 14 16  1  0  0  0
 14 19  1  0  0  0
 16 17  1  0  0  0
 17 18  1  0  0  0
 18 19  1  0  0  0
 19 20  1  0  0  0
 20 22  1  0  0  0
  2  4  2  0  0  0
  2  3  1  0  0  0
  3  1  1  0  0  0
  1 39  1  0  0  0
  1 23  1  0  0  0
 23 24  1  0  0  0
 23 30  1  0  0  0
 39 40  1  0  0  0
 40 45  2  0  0  0
 40 41  1  0  0  0
 41 42  2  0  0  0
 42 43  1  0  0  0
 42 46  1  0  0  0
 43 44  2  0  0  0
 44 47  1  0  0  0
 44 45  1  0  0  0
 26 29  1  0  0  0
 26 32  1  0  0  0
 26 27  1  0  0  0
 27 28  1  0  0  0
 28 30  1  0  0  0
 29 30  1  0  0  0
 32 33  1  0  0  0
 33 38  2  0  0  0
 33 34  1  0  0  0
 34 35  2  0  0  0
 35 36  1  0  0  0
 36 37  2  0  0  0
 37 38  1  0  0  0
 21 22  1  0  0  0
  3  5  1  0  0  0
 24 25  1  0  0  0
 28 31  1  0  0  0
M  END
> <minimizedAffinity>
-9.67746

$$$$
