4J28_EAT_A_501
  RCSB PDB12061713063D
Coordinates from PDB:4J28:A:501 Model:1 without hydrogens
 17 19  0  0  0  0            999 V2000
  -14.3980   11.8290   30.6670   O 0  0  0  0  0  0  0  0  0  0  0  0
  -15.1960   10.9630   31.5210   C 0  0  0  0  0  0  0  0  0  0  0  0
  -15.2410    9.4850   31.1220   C 0  0  0  0  0  0  0  0  0  0  0  0
  -15.6130    9.3150   29.7820   O 0  0  0  0  0  0  0  0  0  0  0  0
  -16.3110    8.9670   32.0810   C 0  0  0  0  0  0  0  0  0  0  0  0
  -16.6550    7.5210   31.7740   C 0  0  0  0  0  0  0  0  0  0  0  0
  -17.3640    9.9750   31.9120   N 0  0  0  0  0  0  0  0  0  0  0  0
  -16.6470   11.2900   31.4340   C 0  0  0  0  0  0  0  0  0  0  0  0
  -17.0720   12.4840   32.3370   C 0  0  0  0  0  0  0  0  0  0  0  0
  -17.7010   13.6120   31.9810   N 0  0  0  0  0  0  0  0  0  0  0  0
  -17.9440   14.2980   33.1210   C 0  0  0  0  0  0  0  0  0  0  0  0
  -18.5230   15.5000   33.3730   C 0  0  0  0  0  0  0  0  0  0  0  0
  -18.6340   15.9980   34.6850   C 0  0  0  0  0  0  0  0  0  0  0  0
  -18.1330   15.2330   35.7310   C 0  0  0  0  0  0  0  0  0  0  0  0
  -17.5300   14.0140   35.4140   C 0  0  0  0  0  0  0  0  0  0  0  0
  -17.4400   13.5900   34.1400   C 0  0  0  0  0  0  0  0  0  0  0  0
  -16.9180   12.4730   33.6410   N 0  0  0  0  0  0  0  0  0  0  0  0
  4  3  1  0  0  0  0
  1  2  1  0  0  0  0
  3  2  1  0  0  0  0
  3  5  1  0  0  0  0
  8  2  1  0  0  0  0
  8  7  1  0  0  0  0
  8  9  1  0  0  0  0
  6  5  1  0  0  0  0
  7  5  1  0  0  0  0
 10  9  1  0  0  0  0
 10 11  1  0  0  0  0
  9 17  2  0  0  0  0
 11 12  1  0  0  0  0
 11 16  2  0  0  0  0
 12 13  2  0  0  0  0
 17 16  1  0  0  0  0
 16 15  1  0  0  0  0
 13 14  1  0  0  0  0
 15 14  2  0  0  0  0
A    1
OAD
A    2
CAG
A    3
CAA
A    4
OAC
A    5
CAF
A    6
CAB
A    7
NAH
A    8
CAE
A    9
CAP
A   10
NAQ
A   11
CAM
A   12
CAN
A   13
CAI
A   14
CAJ
A   15
CAK
A   16
CAL
A   17
NAO
M  END
>  <InstanceId>
4J28_EAT_A_501

>  <ChemCompId>
EAT

>  <PdbId>
4J28

>  <ChainId>
A

>  <ResidueNumber>
501

>  <InsertionCode>


>  <Model>
1

>  <AltIds>


>  <MissingHeavyAtoms>
0

>  <ObservedFormula>
C12 N3 O2

>  <Name>
(2S,3S,4R,5S)-2-(1H-benzimidazol-2-yl)-5-methylpyrrolidine-3,4-diol

>  <SystematicName>
(2S,3S,4R,5S)-2-(1H-benzimidazol-2-yl)-5-methyl-pyrrolidine-3,4-diol

>  <Synonyms>


>  <Type>
NON-POLYMER

>  <Formula>
C12 H15 N3 O2

>  <MolecularWeight>
233.266

>  <ModifiedDate>
2013-05-03

>  <Parent>


>  <OneLetterCode>


>  <SubcomponentList>


>  <AmbiguousFlag>
N

>  <InChI>
InChI=1S/C12H15N3O2/c1-6-10(16)11(17)9(13-6)12-14-7-4-2-3-5-8(7)15-12/h2-6,9-11,13,16-17H,1H3,(H,14,15)/t6-,9+,10+,11-/m0/s1

>  <InChIKey>
WKDUAKZZRFRSAE-HCPDIIQCSA-N

>  <SMILES>
C[C@H]1[C@H]([C@H]([C@@H](N1)c2[nH]c3ccccc3n2)O)O

$$$$
