4MME_29Q_A_603
  RCSB PDB12061713453D
Coordinates from PDB:4MME:A:603 Model:1 without hydrogens
 20 23  0  0  0  0            999 V2000
  100.3790   19.6420   30.8160  Cl 0  0  0  0  0  0  0  0  0  0  0  0
  101.2710   20.4260   32.1850   C 0  0  0  0  0  0  0  0  0  0  0  0
  100.8190   20.3510   33.5130   C 0  0  0  0  0  0  0  0  0  0  0  0
  101.5270   20.9880   34.5560   C 0  0  0  0  0  0  0  0  0  0  0  0
  102.4030   21.1290   31.8960   C 0  0  0  0  0  0  0  0  0  0  0  0
  103.1010   21.7590   32.9330   C 0  0  0  0  0  0  0  0  0  0  0  0
  102.6950   21.6830   34.2580   C 0  0  0  0  0  0  0  0  0  0  0  0
  103.5100   22.4590   35.2620   C 0  0  0  0  0  0  0  0  0  0  0  0
  104.5730   23.1170   34.5470   O 0  0  0  0  0  0  0  0  0  0  0  0
  102.6350   23.4890   35.9670   C 0  0  0  0  0  0  0  0  0  0  0  0
  101.7450   24.4010   35.4000   C 0  0  0  0  0  0  0  0  0  0  0  0
  101.0290   25.3160   36.1990   C 0  0  0  0  0  0  0  0  0  0  0  0
  101.2090   25.3220   37.5830   C 0  0  0  0  0  0  0  0  0  0  0  0
  102.1230   24.4150   38.1840   C 0  0  0  0  0  0  0  0  0  0  0  0
  102.8010   23.5260   37.3550   C 0  0  0  0  0  0  0  0  0  0  0  0
  103.8000   22.4380   37.5390   C 0  0  0  0  0  0  0  0  0  0  0  0
  104.1540   21.8270   36.4340   N 0  0  0  0  0  0  0  0  0  0  0  0
  105.1350   20.7930   36.4880   C 0  0  0  0  0  0  0  0  0  0  0  0
  105.3030   20.7650   38.0340   C 0  0  0  0  0  0  0  0  0  0  0  0
  104.4690   21.8590   38.5790   N 0  0  0  0  0  0  0  0  0  0  0  0
  1  2  1  0  0  0  0
  5  2  2  0  0  0  0
  5  6  1  0  0  0  0
  2  3  1  0  0  0  0
  6  7  2  0  0  0  0
  3  4  2  0  0  0  0
  7  4  1  0  0  0  0
  7  8  1  0  0  0  0
  9  8  1  0  0  0  0
  8 10  1  0  0  0  0
  8 17  1  0  0  0  0
 11 10  2  0  0  0  0
 11 12  1  0  0  0  0
 10 15  1  0  0  0  0
 12 13  2  0  0  0  0
 17 18  1  0  0  0  0
 17 16  1  0  0  0  0
 18 19  1  0  0  0  0
 15 16  1  0  0  0  0
 15 14  2  0  0  0  0
 16 20  2  0  0  0  0
 13 14  1  0  0  0  0
 19 20  1  0  0  0  0
A    1
CL
A    2
C13
A    3
C12
A    4
C11
A    5
C14
A    6
C15
A    7
C10
A    8
C
A    9
O
A   10
C5
A   11
C6
A   12
C7
A   13
C8
A   14
C9
A   15
C4
A   16
C1
A   17
N
A   18
C3
A   19
C2
A   20
N1
M  END
>  <InstanceId>
4MME_29Q_A_603

>  <ChemCompId>
29Q

>  <PdbId>
4MME

>  <ChainId>
A

>  <ResidueNumber>
603

>  <InsertionCode>


>  <Model>
1

>  <AltIds>


>  <MissingHeavyAtoms>
0

>  <ObservedFormula>
C16 N2 O Cl

>  <Name>
(5R)-5-(4-chlorophenyl)-2,5-dihydro-3H-imidazo[2,1-a]isoindol-5-ol

>  <SystematicName>
(5R)-5-(4-chlorophenyl)-2,3-dihydroimidazo[1,2-b]isoindol-5-ol

>  <Synonyms>


>  <Type>
NON-POLYMER

>  <Formula>
C16 H13 Cl N2 O

>  <MolecularWeight>
284.74

>  <ModifiedDate>
2013-10-11

>  <Parent>


>  <OneLetterCode>


>  <SubcomponentList>


>  <AmbiguousFlag>
N

>  <InChI>
InChI=1S/C16H13ClN2O/c17-12-7-5-11(6-8-12)16(20)14-4-2-1-3-13(14)15-18-9-10-19(15)16/h1-8,20H,9-10H2/t16-/m1/s1

>  <InChIKey>
ZPXSCAKFGYXMGA-MRXNPFEDSA-N

>  <SMILES>
c1ccc2c(c1)C3=NCCN3[C@]2(c4ccc(cc4)Cl)O

$$$$
