4BF1_9FK_A_271


 26 29  0  0  0  0  0  0  0  0999 V2000
   -4.8700    5.4568   12.3177 C   0  0  0  0  0  0  0  0  0  0  0  0
   -5.5842    6.6463   12.3108 C   0  0  0  0  0  0  0  0  0  0  0  0
   -5.2446    7.1487   11.0901 N   0  0  0  0  0  0  0  0  0  0  0  0
   -4.4007    6.3304   10.3695 N   0  0  0  0  0  0  0  0  0  0  0  0
   -4.1772    5.2290   11.1520 N   0  0  0  0  0  0  0  0  0  0  0  0
   -5.6144    8.3472   10.5719 C   0  0  0  0  0  0  0  0  0  0  0  0
   -4.9499    9.5169   10.8036 C   0  0  0  0  0  0  0  0  0  0  0  0
   -5.3410   10.7591   10.3345 C   0  0  0  0  0  0  0  0  0  0  0  0
   -6.4253   10.8723    9.4578 C   0  0  0  0  0  0  0  0  0  0  0  0
   -7.0703    9.7012    9.0519 C   0  0  0  0  0  0  0  0  0  0  0  0
   -6.7367    8.3966    9.6136 C   0  0  0  0  0  0  0  0  0  0  0  0
   -8.1288    9.7633    8.1779 C   0  0  0  0  0  0  0  0  0  0  0  0
   -8.8600    8.6298    7.8292 C   0  0  0  0  0  0  0  0  0  0  0  0
   -8.4968    7.3832    8.3335 C   0  0  0  0  0  0  0  0  0  0  0  0
   -7.4481    7.2659    9.2350 C   0  0  0  0  0  0  0  0  0  0  0  0
   -4.7878    2.4305   14.8700 C   0  0  0  0  0  0  0  0  0  0  0  0
   -4.4080    2.8367   13.2333 S   0  0  0  0  0  0  0  0  0  0  0  0
   -4.9185    4.4275   13.3642 C   0  0  0  0  0  0  0  0  0  0  0  0
   -5.4194    4.6726   14.6412 C   0  0  0  0  0  0  0  0  0  0  0  0
   -5.4146    3.5629   15.4711 C   0  0  0  0  0  0  0  0  0  0  0  0
   -3.4056    1.1598   16.5330 O   0  0  0  0  0  0  0  0  0  0  0  0
   -4.5410    0.9040   15.6267 S   0  0  0  0  0  0  0  0  0  0  0  0
   -4.3558    0.0105   14.5431 O   0  0  0  0  0  0  0  0  0  0  0  0
   -5.8230    0.4111   16.4810 N   0  0  0  0  0  0  0  0  0  0  0  0
   -5.6213   -0.4944   16.9050 H   0  0  0  0  0  0  0  0  0  0  0  0
   -6.6304    0.3250   15.8636 H   0  0  0  0  0  0  0  0  0  0  0  0
 21 22  2  0  0  0
 22 23  2  0  0  0
 22 24  1  0  0  0
 22 16  1  0  0  0
 16 17  1  0  0  0
 16 20  2  0  0  0
 17 18  1  0  0  0
 18 19  2  0  0  0
 18  1  1  0  0  0
 19 20  1  0  0  0
  1  2  2  0  0  0
  1  5  1  0  0  0
  2  3  1  0  0  0
  3  4  1  0  0  0
  3  6  1  0  0  0
  4  5  2  0  0  0
  6  7  1  0  0  0
  6 11  2  0  0  0
  7  8  2  0  0  0
  8  9  1  0  0  0
  9 10  2  0  0  0
 10 11  1  0  0  0
 10 12  1  0  0  0
 11 15  1  0  0  0
 12 13  2  0  0  0
 13 14  1  0  0  0
 14 15  2  0  0  0
 24 25  1  0  0  0
 24 26  1  0  0  0
M  END
> <minimizedAffinity>
-8.36140

$$$$
4BF1_9FK_A_271


 26 29  0  0  0  0  0  0  0  0999 V2000
   -2.9213    3.8239   11.5637 C   0  0  0  0  0  0  0  0  0  0  0  0
   -3.1329    4.2502   12.8670 C   0  0  0  0  0  0  0  0  0  0  0  0
   -4.3907    3.7780   13.0963 N   0  0  0  0  0  0  0  0  0  0  0  0
   -4.9252    3.0852   12.0306 N   0  0  0  0  0  0  0  0  0  0  0  0
   -3.9688    3.0956   11.0506 N   0  0  0  0  0  0  0  0  0  0  0  0
   -5.1382    3.9629   14.2137 C   0  0  0  0  0  0  0  0  0  0  0  0
   -5.8207    5.1113   14.4942 C   0  0  0  0  0  0  0  0  0  0  0  0
   -6.5410    5.3446   15.6530 C   0  0  0  0  0  0  0  0  0  0  0  0
   -6.7142    4.3232   16.5931 C   0  0  0  0  0  0  0  0  0  0  0  0
   -6.1704    3.0675   16.3105 C   0  0  0  0  0  0  0  0  0  0  0  0
   -5.3247    2.8323   15.1451 C   0  0  0  0  0  0  0  0  0  0  0  0
   -6.3310    2.0301   17.1970 C   0  0  0  0  0  0  0  0  0  0  0  0
   -5.7194    0.7941   16.9989 C   0  0  0  0  0  0  0  0  0  0  0  0
   -4.9572    0.5686   15.8550 C   0  0  0  0  0  0  0  0  0  0  0  0
   -4.7462    1.5875   14.9364 C   0  0  0  0  0  0  0  0  0  0  0  0
    0.6425    4.1064    9.8612 C   0  0  0  0  0  0  0  0  0  0  0  0
   -0.1129    3.8686   11.3977 S   0  0  0  0  0  0  0  0  0  0  0  0
   -1.6754    3.9692   10.8000 C   0  0  0  0  0  0  0  0  0  0  0  0
   -1.6551    4.2198    9.4294 C   0  0  0  0  0  0  0  0  0  0  0  0
   -0.3820    4.3623    8.9012 C   0  0  0  0  0  0  0  0  0  0  0  0
    2.9242    4.2209   10.8963 O   0  0  0  0  0  0  0  0  0  0  0  0
    2.3351    4.1236    9.5474 S   0  0  0  0  0  0  0  0  0  0  0  0
    2.5067    5.2083    8.6527 O   0  0  0  0  0  0  0  0  0  0  0  0
    2.8534    2.7751    8.8198 N   0  0  0  0  0  0  0  0  0  0  0  0
    3.8586    2.8403    8.6591 H   0  0  0  0  0  0  0  0  0  0  0  0
    2.3729    2.6644    7.9269 H   0  0  0  0  0  0  0  0  0  0  0  0
 21 22  2  0  0  0
 22 23  2  0  0  0
 22 24  1  0  0  0
 22 16  1  0  0  0
 16 17  1  0  0  0
 16 20  2  0  0  0
 17 18  1  0  0  0
 18 19  2  0  0  0
 18  1  1  0  0  0
 19 20  1  0  0  0
  1  2  2  0  0  0
  1  5  1  0  0  0
  2  3  1  0  0  0
  3  4  1  0  0  0
  3  6  1  0  0  0
  4  5  2  0  0  0
  6  7  1  0  0  0
  6 11  2  0  0  0
  7  8  2  0  0  0
  8  9  1  0  0  0
  9 10  2  0  0  0
 10 11  1  0  0  0
 10 12  1  0  0  0
 11 15  1  0  0  0
 12 13  2  0  0  0
 13 14  1  0  0  0
 14 15  2  0  0  0
 24 25  1  0  0  0
 24 26  1  0  0  0
M  END
> <minimizedAffinity>
-7.98681

$$$$
4BF1_9FK_A_271


 26 29  0  0  0  0  0  0  0  0999 V2000
   -4.8989    4.7966   13.2605 C   0  0  0  0  0  0  0  0  0  0  0  0
   -4.9667    6.1824   13.2773 C   0  0  0  0  0  0  0  0  0  0  0  0
   -4.8871    6.4648   11.9463 N   0  0  0  0  0  0  0  0  0  0  0  0
   -4.8004    5.3449   11.1466 N   0  0  0  0  0  0  0  0  0  0  0  0
   -4.8307    4.2686   11.9926 N   0  0  0  0  0  0  0  0  0  0  0  0
   -4.8434    7.6958   11.3769 C   0  0  0  0  0  0  0  0  0  0  0  0
   -3.7993    8.5642   11.5151 C   0  0  0  0  0  0  0  0  0  0  0  0
   -3.7573    9.8456   10.9931 C   0  0  0  0  0  0  0  0  0  0  0  0
   -4.7821   10.2999   10.1563 C   0  0  0  0  0  0  0  0  0  0  0  0
   -5.8187    9.4167    9.8436 C   0  0  0  0  0  0  0  0  0  0  0  0
   -5.9309    8.1008   10.4638 C   0  0  0  0  0  0  0  0  0  0  0  0
   -6.8372    9.8142    9.0113 C   0  0  0  0  0  0  0  0  0  0  0  0
   -7.9377    8.9987    8.7570 C   0  0  0  0  0  0  0  0  0  0  0  0
   -8.0053    7.7244    9.3155 C   0  0  0  0  0  0  0  0  0  0  0  0
   -7.0137    7.2797   10.1788 C   0  0  0  0  0  0  0  0  0  0  0  0
   -5.6753    2.4531   16.3563 C   0  0  0  0  0  0  0  0  0  0  0  0
   -6.4475    3.5053   15.2229 S   0  0  0  0  0  0  0  0  0  0  0  0
   -5.0308    3.9122   14.4255 C   0  0  0  0  0  0  0  0  0  0  0  0
   -3.9399    3.2856   15.0247 C   0  0  0  0  0  0  0  0  0  0  0  0
   -4.2674    2.5233   16.1345 C   0  0  0  0  0  0  0  0  0  0  0  0
   -7.7636    1.2262   17.0083 O   0  0  0  0  0  0  0  0  0  0  0  0
   -6.4492    1.5448   17.5972 S   0  0  0  0  0  0  0  0  0  0  0  0
   -6.4012    2.3981   18.7270 O   0  0  0  0  0  0  0  0  0  0  0  0
   -5.6647    0.1768   17.9574 N   0  0  0  0  0  0  0  0  0  0  0  0
   -6.1658   -0.3183   18.6951 H   0  0  0  0  0  0  0  0  0  0  0  0
   -4.7220    0.3995   18.2770 H   0  0  0  0  0  0  0  0  0  0  0  0
 21 22  2  0  0  0
 22 23  2  0  0  0
 22 24  1  0  0  0
 22 16  1  0  0  0
 16 17  1  0  0  0
 16 20  2  0  0  0
 17 18  1  0  0  0
 18 19  2  0  0  0
 18  1  1  0  0  0
 19 20  1  0  0  0
  1  2  2  0  0  0
  1  5  1  0  0  0
  2  3  1  0  0  0
  3  4  1  0  0  0
  3  6  1  0  0  0
  4  5  2  0  0  0
  6  7  1  0  0  0
  6 11  2  0  0  0
  7  8  2  0  0  0
  8  9  1  0  0  0
  9 10  2  0  0  0
 10 11  1  0  0  0
 10 12  1  0  0  0
 11 15  1  0  0  0
 12 13  2  0  0  0
 13 14  1  0  0  0
 14 15  2  0  0  0
 24 25  1  0  0  0
 24 26  1  0  0  0
M  END
> <minimizedAffinity>
-7.98046

$$$$
4BF1_9FK_A_271


 26 29  0  0  0  0  0  0  0  0999 V2000
   -3.8251    5.0645   14.0594 C   0  0  0  0  0  0  0  0  0  0  0  0
   -2.4975    5.3555   14.3382 C   0  0  0  0  0  0  0  0  0  0  0  0
   -2.1927    6.1981   13.3112 N   0  0  0  0  0  0  0  0  0  0  0  0
   -3.2511    6.4417   12.4617 N   0  0  0  0  0  0  0  0  0  0  0  0
   -4.3099    5.7284   12.9570 N   0  0  0  0  0  0  0  0  0  0  0  0
   -0.9830    6.7526   13.0452 C   0  0  0  0  0  0  0  0  0  0  0  0
   -0.1303    6.2982   12.0809 C   0  0  0  0  0  0  0  0  0  0  0  0
    1.1314    6.8097   11.8308 C   0  0  0  0  0  0  0  0  0  0  0  0
    1.5762    7.9509   12.5067 C   0  0  0  0  0  0  0  0  0  0  0  0
    0.7025    8.5670   13.4065 C   0  0  0  0  0  0  0  0  0  0  0  0
   -0.5889    7.9853   13.7564 C   0  0  0  0  0  0  0  0  0  0  0  0
    1.0905    9.7004   14.0796 C   0  0  0  0  0  0  0  0  0  0  0  0
    0.2878   10.2844   15.0571 C   0  0  0  0  0  0  0  0  0  0  0  0
   -0.9650    9.7470   15.3432 C   0  0  0  0  0  0  0  0  0  0  0  0
   -1.3986    8.5921   14.7071 C   0  0  0  0  0  0  0  0  0  0  0  0
   -5.9169    2.6399   16.3886 C   0  0  0  0  0  0  0  0  0  0  0  0
   -4.3662    2.8022   15.6425 S   0  0  0  0  0  0  0  0  0  0  0  0
   -4.7252    4.2580   14.8938 C   0  0  0  0  0  0  0  0  0  0  0  0
   -6.0394    4.6323   15.1665 C   0  0  0  0  0  0  0  0  0  0  0  0
   -6.7368    3.7186   15.9404 C   0  0  0  0  0  0  0  0  0  0  0  0
   -7.8277    1.1430   17.0207 O   0  0  0  0  0  0  0  0  0  0  0  0
   -6.4243    1.3589   17.4207 S   0  0  0  0  0  0  0  0  0  0  0  0
   -6.1578    1.8437   18.7248 O   0  0  0  0  0  0  0  0  0  0  0  0
   -5.5766   -0.0007   17.1987 N   0  0  0  0  0  0  0  0  0  0  0  0
   -5.9186   -0.7221   17.8335 H   0  0  0  0  0  0  0  0  0  0  0  0
   -4.5904    0.1788   17.3877 H   0  0  0  0  0  0  0  0  0  0  0  0
 21 22  2  0  0  0
 22 23  2  0  0  0
 22 24  1  0  0  0
 22 16  1  0  0  0
 16 17  1  0  0  0
 16 20  2  0  0  0
 17 18  1  0  0  0
 18 19  2  0  0  0
 18  1  1  0  0  0
 19 20  1  0  0  0
  1  2  2  0  0  0
  1  5  1  0  0  0
  2  3  1  0  0  0
  3  4  1  0  0  0
  3  6  1  0  0  0
  4  5  2  0  0  0
  6  7  1  0  0  0
  6 11  2  0  0  0
  7  8  2  0  0  0
  8  9  1  0  0  0
  9 10  2  0  0  0
 10 11  1  0  0  0
 10 12  1  0  0  0
 11 15  1  0  0  0
 12 13  2  0  0  0
 13 14  1  0  0  0
 14 15  2  0  0  0
 24 25  1  0  0  0
 24 26  1  0  0  0
M  END
> <minimizedAffinity>
-7.81169

$$$$
4BF1_9FK_A_271


 26 29  0  0  0  0  0  0  0  0999 V2000
   -4.9779    4.7938   13.3344 C   0  0  0  0  0  0  0  0  0  0  0  0
   -5.2160    6.1605   13.3523 C   0  0  0  0  0  0  0  0  0  0  0  0
   -5.1336    6.4583   12.0248 N   0  0  0  0  0  0  0  0  0  0  0  0
   -4.8869    5.3622   11.2254 N   0  0  0  0  0  0  0  0  0  0  0  0
   -4.8089    4.2854   12.0679 N   0  0  0  0  0  0  0  0  0  0  0  0
   -5.2252    7.6886   11.4596 C   0  0  0  0  0  0  0  0  0  0  0  0
   -6.3957    8.2489   11.0361 C   0  0  0  0  0  0  0  0  0  0  0  0
   -6.5065    9.4756   10.4045 C   0  0  0  0  0  0  0  0  0  0  0  0
   -5.3852   10.3004   10.2645 C   0  0  0  0  0  0  0  0  0  0  0  0
   -4.1734    9.8634   10.8057 C   0  0  0  0  0  0  0  0  0  0  0  0
   -4.0162    8.5330   11.3836 C   0  0  0  0  0  0  0  0  0  0  0  0
   -3.0501   10.6486   10.7072 C   0  0  0  0  0  0  0  0  0  0  0  0
   -1.8039   10.2047   11.1441 C   0  0  0  0  0  0  0  0  0  0  0  0
   -1.6796    8.9523   11.7410 C   0  0  0  0  0  0  0  0  0  0  0  0
   -2.7779    8.1105   11.8482 C   0  0  0  0  0  0  0  0  0  0  0  0
   -5.5508    2.4025   16.4381 C   0  0  0  0  0  0  0  0  0  0  0  0
   -6.3976    3.4607   15.3652 S   0  0  0  0  0  0  0  0  0  0  0  0
   -5.0334    3.8931   14.4931 C   0  0  0  0  0  0  0  0  0  0  0  0
   -3.9035    3.2707   15.0201 C   0  0  0  0  0  0  0  0  0  0  0  0
   -4.1588    2.4907   16.1366 C   0  0  0  0  0  0  0  0  0  0  0  0
   -6.3797    2.4481   18.8050 O   0  0  0  0  0  0  0  0  0  0  0  0
   -6.2426    1.4701   17.7092 S   0  0  0  0  0  0  0  0  0  0  0  0
   -5.3398    0.3907   17.8727 O   0  0  0  0  0  0  0  0  0  0  0  0
   -7.6946    0.8675   17.3285 N   0  0  0  0  0  0  0  0  0  0  0  0
   -8.0550    0.3266   18.1147 H   0  0  0  0  0  0  0  0  0  0  0  0
   -7.6084    0.2633   16.5113 H   0  0  0  0  0  0  0  0  0  0  0  0
 21 22  2  0  0  0
 22 23  2  0  0  0
 22 24  1  0  0  0
 22 16  1  0  0  0
 16 17  1  0  0  0
 16 20  2  0  0  0
 17 18  1  0  0  0
 18 19  2  0  0  0
 18  1  1  0  0  0
 19 20  1  0  0  0
  1  2  2  0  0  0
  1  5  1  0  0  0
  2  3  1  0  0  0
  3  4  1  0  0  0
  3  6  1  0  0  0
  4  5  2  0  0  0
  6  7  1  0  0  0
  6 11  2  0  0  0
  7  8  2  0  0  0
  8  9  1  0  0  0
  9 10  2  0  0  0
 10 11  1  0  0  0
 10 12  1  0  0  0
 11 15  1  0  0  0
 12 13  2  0  0  0
 13 14  1  0  0  0
 14 15  2  0  0  0
 24 25  1  0  0  0
 24 26  1  0  0  0
M  END
> <minimizedAffinity>
-7.70793

$$$$
4BF1_9FK_A_271


 26 29  0  0  0  0  0  0  0  0999 V2000
   -3.8258    5.0114   14.0254 C   0  0  0  0  0  0  0  0  0  0  0  0
   -2.4871    5.2826   14.2693 C   0  0  0  0  0  0  0  0  0  0  0  0
   -2.1835    6.0802   13.2066 N   0  0  0  0  0  0  0  0  0  0  0  0
   -3.2522    6.3163   12.3680 N   0  0  0  0  0  0  0  0  0  0  0  0
   -4.3167    5.6453   12.9083 N   0  0  0  0  0  0  0  0  0  0  0  0
   -0.9673    6.5974   12.8987 C   0  0  0  0  0  0  0  0  0  0  0  0
   -0.5156    7.8051   13.3467 C   0  0  0  0  0  0  0  0  0  0  0  0
    0.6952    8.3791   12.9995 C   0  0  0  0  0  0  0  0  0  0  0  0
    1.6176    7.6658   12.2266 C   0  0  0  0  0  0  0  0  0  0  0  0
    1.2927    6.3601   11.8499 C   0  0  0  0  0  0  0  0  0  0  0  0
   -0.0173    5.7774   12.1205 C   0  0  0  0  0  0  0  0  0  0  0  0
    2.1760    5.6160   11.1055 C   0  0  0  0  0  0  0  0  0  0  0  0
    1.8471    4.3499   10.6262 C   0  0  0  0  0  0  0  0  0  0  0  0
    0.6119    3.7859   10.9367 C   0  0  0  0  0  0  0  0  0  0  0  0
   -0.3255    4.5012   11.6688 C   0  0  0  0  0  0  0  0  0  0  0  0
   -5.9422    2.6908   16.4369 C   0  0  0  0  0  0  0  0  0  0  0  0
   -4.4519    2.7393   15.5626 S   0  0  0  0  0  0  0  0  0  0  0  0
   -4.7272    4.2561   14.9051 C   0  0  0  0  0  0  0  0  0  0  0  0
   -5.9701    4.7407   15.3076 C   0  0  0  0  0  0  0  0  0  0  0  0
   -6.6863    3.8624   16.1050 C   0  0  0  0  0  0  0  0  0  0  0  0
   -7.8479    1.1480   16.9654 O   0  0  0  0  0  0  0  0  0  0  0  0
   -6.4845    1.4171   17.4602 S   0  0  0  0  0  0  0  0  0  0  0  0
   -6.3283    1.9384   18.7681 O   0  0  0  0  0  0  0  0  0  0  0  0
   -5.5823    0.0806   17.3326 N   0  0  0  0  0  0  0  0  0  0  0  0
   -5.9477   -0.6373   17.9582 H   0  0  0  0  0  0  0  0  0  0  0  0
   -4.6184    0.2954   17.5878 H   0  0  0  0  0  0  0  0  0  0  0  0
 21 22  2  0  0  0
 22 23  2  0  0  0
 22 24  1  0  0  0
 22 16  1  0  0  0
 16 17  1  0  0  0
 16 20  2  0  0  0
 17 18  1  0  0  0
 18 19  2  0  0  0
 18  1  1  0  0  0
 19 20  1  0  0  0
  1  2  2  0  0  0
  1  5  1  0  0  0
  2  3  1  0  0  0
  3  4  1  0  0  0
  3  6  1  0  0  0
  4  5  2  0  0  0
  6  7  1  0  0  0
  6 11  2  0  0  0
  7  8  2  0  0  0
  8  9  1  0  0  0
  9 10  2  0  0  0
 10 11  1  0  0  0
 10 12  1  0  0  0
 11 15  1  0  0  0
 12 13  2  0  0  0
 13 14  1  0  0  0
 14 15  2  0  0  0
 24 25  1  0  0  0
 24 26  1  0  0  0
M  END
> <minimizedAffinity>
-7.69845

$$$$
4BF1_9FK_A_271


 26 29  0  0  0  0  0  0  0  0999 V2000
   -2.5071    4.2698   12.4340 C   0  0  0  0  0  0  0  0  0  0  0  0
   -2.8987    4.4235   13.7562 C   0  0  0  0  0  0  0  0  0  0  0  0
   -4.2083    4.0523   13.6864 N   0  0  0  0  0  0  0  0  0  0  0  0
   -4.6092    3.6697   12.4238 N   0  0  0  0  0  0  0  0  0  0  0  0
   -3.5062    3.7886   11.6209 N   0  0  0  0  0  0  0  0  0  0  0  0
   -5.1142    4.0704   14.6967 C   0  0  0  0  0  0  0  0  0  0  0  0
   -5.9046    5.1429   14.9942 C   0  0  0  0  0  0  0  0  0  0  0  0
   -6.7925    5.2056   16.0542 C   0  0  0  0  0  0  0  0  0  0  0  0
   -7.0253    4.0766   16.8467 C   0  0  0  0  0  0  0  0  0  0  0  0
   -6.3645    2.8908   16.5157 C   0  0  0  0  0  0  0  0  0  0  0  0
   -5.3516    2.8333   15.4671 C   0  0  0  0  0  0  0  0  0  0  0  0
   -6.5764    1.7524   17.2555 C   0  0  0  0  0  0  0  0  0  0  0  0
   -5.8616    0.5801   17.0194 C   0  0  0  0  0  0  0  0  0  0  0  0
   -4.9348    0.5255   15.9810 C   0  0  0  0  0  0  0  0  0  0  0  0
   -4.6675    1.6516   15.2150 C   0  0  0  0  0  0  0  0  0  0  0  0
    1.1992    5.0650   11.2893 C   0  0  0  0  0  0  0  0  0  0  0  0
   -0.0899    5.6983   12.2511 S   0  0  0  0  0  0  0  0  0  0  0  0
   -1.1450    4.4411   11.9122 C   0  0  0  0  0  0  0  0  0  0  0  0
   -0.5531    3.5343   11.0353 C   0  0  0  0  0  0  0  0  0  0  0  0
    0.7217    3.8938   10.6283 C   0  0  0  0  0  0  0  0  0  0  0  0
    2.7452    6.2084    9.6788 O   0  0  0  0  0  0  0  0  0  0  0  0
    2.7592    5.7638   11.0853 S   0  0  0  0  0  0  0  0  0  0  0  0
    3.6501    4.7282   11.4603 O   0  0  0  0  0  0  0  0  0  0  0  0
    3.0124    7.0315   12.0576 N   0  0  0  0  0  0  0  0  0  0  0  0
    3.9480    7.4036   11.8944 H   0  0  0  0  0  0  0  0  0  0  0  0
    2.9289    6.7360   13.0302 H   0  0  0  0  0  0  0  0  0  0  0  0
 21 22  2  0  0  0
 22 23  2  0  0  0
 22 24  1  0  0  0
 22 16  1  0  0  0
 16 17  1  0  0  0
 16 20  2  0  0  0
 17 18  1  0  0  0
 18 19  2  0  0  0
 18  1  1  0  0  0
 19 20  1  0  0  0
  1  2  2  0  0  0
  1  5  1  0  0  0
  2  3  1  0  0  0
  3  4  1  0  0  0
  3  6  1  0  0  0
  4  5  2  0  0  0
  6  7  1  0  0  0
  6 11  2  0  0  0
  7  8  2  0  0  0
  8  9  1  0  0  0
  9 10  2  0  0  0
 10 11  1  0  0  0
 10 12  1  0  0  0
 11 15  1  0  0  0
 12 13  2  0  0  0
 13 14  1  0  0  0
 14 15  2  0  0  0
 24 25  1  0  0  0
 24 26  1  0  0  0
M  END
> <minimizedAffinity>
-7.34967

$$$$
4BF1_9FK_A_271


 26 29  0  0  0  0  0  0  0  0999 V2000
   -3.8944    4.0749   13.3638 C   0  0  0  0  0  0  0  0  0  0  0  0
   -2.5120    4.1850   13.4081 C   0  0  0  0  0  0  0  0  0  0  0  0
   -2.2533    4.7304   12.1861 N   0  0  0  0  0  0  0  0  0  0  0  0
   -3.3849    4.9701   11.4356 N   0  0  0  0  0  0  0  0  0  0  0  0
   -4.4446    4.5681   12.2042 N   0  0  0  0  0  0  0  0  0  0  0  0
   -1.0330    5.0011   11.6577 C   0  0  0  0  0  0  0  0  0  0  0  0
   -0.4468    4.2610   10.6718 C   0  0  0  0  0  0  0  0  0  0  0  0
    0.8196    4.4823   10.1586 C   0  0  0  0  0  0  0  0  0  0  0  0
    1.5568    5.6019   10.5590 C   0  0  0  0  0  0  0  0  0  0  0  0
    0.9657    6.4939   11.4575 C   0  0  0  0  0  0  0  0  0  0  0  0
   -0.3239    6.2241   12.0842 C   0  0  0  0  0  0  0  0  0  0  0  0
    1.6460    7.6162   11.8647 C   0  0  0  0  0  0  0  0  0  0  0  0
    1.1319    8.4745   12.8342 C   0  0  0  0  0  0  0  0  0  0  0  0
   -0.1239    8.2315   13.3856 C   0  0  0  0  0  0  0  0  0  0  0  0
   -0.8456    7.1022   13.0247 C   0  0  0  0  0  0  0  0  0  0  0  0
   -5.9892    2.5139   16.3394 C   0  0  0  0  0  0  0  0  0  0  0  0
   -4.7320    2.1303   15.2169 S   0  0  0  0  0  0  0  0  0  0  0  0
   -4.7597    3.6265   14.4625 C   0  0  0  0  0  0  0  0  0  0  0  0
   -5.7466    4.4344   15.0238 C   0  0  0  0  0  0  0  0  0  0  0  0
   -6.4815    3.8153   16.0222 C   0  0  0  0  0  0  0  0  0  0  0  0
   -7.9431    1.1151   17.0584 O   0  0  0  0  0  0  0  0  0  0  0  0
   -6.6090    1.4818   17.5700 S   0  0  0  0  0  0  0  0  0  0  0  0
   -6.5261    2.2648   18.7477 O   0  0  0  0  0  0  0  0  0  0  0  0
   -5.7178    0.1484   17.7801 N   0  0  0  0  0  0  0  0  0  0  0  0
   -6.1298   -0.4232   18.5177 H   0  0  0  0  0  0  0  0  0  0  0  0
   -4.7686    0.4119   18.0444 H   0  0  0  0  0  0  0  0  0  0  0  0
 21 22  2  0  0  0
 22 23  2  0  0  0
 22 24  1  0  0  0
 22 16  1  0  0  0
 16 17  1  0  0  0
 16 20  2  0  0  0
 17 18  1  0  0  0
 18 19  2  0  0  0
 18  1  1  0  0  0
 19 20  1  0  0  0
  1  2  2  0  0  0
  1  5  1  0  0  0
  2  3  1  0  0  0
  3  4  1  0  0  0
  3  6  1  0  0  0
  4  5  2  0  0  0
  6  7  1  0  0  0
  6 11  2  0  0  0
  7  8  2  0  0  0
  8  9  1  0  0  0
  9 10  2  0  0  0
 10 11  1  0  0  0
 10 12  1  0  0  0
 11 15  1  0  0  0
 12 13  2  0  0  0
 13 14  1  0  0  0
 14 15  2  0  0  0
 24 25  1  0  0  0
 24 26  1  0  0  0
M  END
> <minimizedAffinity>
-7.29181

$$$$
4BF1_9FK_A_271


 26 29  0  0  0  0  0  0  0  0999 V2000
   -4.7000    5.3764   13.7234 C   0  0  0  0  0  0  0  0  0  0  0  0
   -3.8640    6.4400   14.0316 C   0  0  0  0  0  0  0  0  0  0  0  0
   -3.7671    7.0568   12.8201 N   0  0  0  0  0  0  0  0  0  0  0  0
   -4.5037    6.4462   11.8271 N   0  0  0  0  0  0  0  0  0  0  0  0
   -5.1231    5.3757   12.4150 N   0  0  0  0  0  0  0  0  0  0  0  0
   -3.0087    8.1405   12.5170 C   0  0  0  0  0  0  0  0  0  0  0  0
   -3.0631    8.8009   11.3236 C   0  0  0  0  0  0  0  0  0  0  0  0
   -2.2592    9.8708   10.9702 C   0  0  0  0  0  0  0  0  0  0  0  0
   -1.3859   10.4358   11.9058 C   0  0  0  0  0  0  0  0  0  0  0  0
   -1.3771    9.9109   13.2008 C   0  0  0  0  0  0  0  0  0  0  0  0
   -2.1418    8.7219   13.5616 C   0  0  0  0  0  0  0  0  0  0  0  0
   -0.5483   10.4460   14.1572 C   0  0  0  0  0  0  0  0  0  0  0  0
   -0.4377    9.8869   15.4285 C   0  0  0  0  0  0  0  0  0  0  0  0
   -1.2131    8.7827   15.7745 C   0  0  0  0  0  0  0  0  0  0  0  0
   -2.0524    8.1905   14.8412 C   0  0  0  0  0  0  0  0  0  0  0  0
   -5.8534    2.4734   16.1568 C   0  0  0  0  0  0  0  0  0  0  0  0
   -4.7774    2.7963   14.8431 S   0  0  0  0  0  0  0  0  0  0  0  0
   -5.2395    4.3986   14.6772 C   0  0  0  0  0  0  0  0  0  0  0  0
   -6.2436    4.7109   15.5916 C   0  0  0  0  0  0  0  0  0  0  0  0
   -6.6425    3.6418   16.3777 C   0  0  0  0  0  0  0  0  0  0  0  0
   -5.4822    1.2927   18.3385 O   0  0  0  0  0  0  0  0  0  0  0  0
   -6.0169    0.9811   16.9994 S   0  0  0  0  0  0  0  0  0  0  0  0
   -5.3183    0.0522   16.1896 O   0  0  0  0  0  0  0  0  0  0  0  0
   -7.5545    0.4944   17.1237 N   0  0  0  0  0  0  0  0  0  0  0  0
   -7.5911   -0.3906   17.6294 H   0  0  0  0  0  0  0  0  0  0  0  0
   -7.9480    0.3695   16.1910 H   0  0  0  0  0  0  0  0  0  0  0  0
 21 22  2  0  0  0
 22 23  2  0  0  0
 22 24  1  0  0  0
 22 16  1  0  0  0
 16 17  1  0  0  0
 16 20  2  0  0  0
 17 18  1  0  0  0
 18 19  2  0  0  0
 18  1  1  0  0  0
 19 20  1  0  0  0
  1  2  2  0  0  0
  1  5  1  0  0  0
  2  3  1  0  0  0
  3  4  1  0  0  0
  3  6  1  0  0  0
  4  5  2  0  0  0
  6  7  1  0  0  0
  6 11  2  0  0  0
  7  8  2  0  0  0
  8  9  1  0  0  0
  9 10  2  0  0  0
 10 11  1  0  0  0
 10 12  1  0  0  0
 11 15  1  0  0  0
 12 13  2  0  0  0
 13 14  1  0  0  0
 14 15  2  0  0  0
 24 25  1  0  0  0
 24 26  1  0  0  0
M  END
> <minimizedAffinity>
-7.23949

$$$$
4BF1_9FK_A_271


 26 29  0  0  0  0  0  0  0  0999 V2000
   -2.0605    6.9436   14.4484 C   0  0  0  0  0  0  0  0  0  0  0  0
   -2.0845    8.1579   15.1191 C   0  0  0  0  0  0  0  0  0  0  0  0
   -1.1107    8.8429   14.4557 N   0  0  0  0  0  0  0  0  0  0  0  0
   -0.5317    8.1277   13.4288 N   0  0  0  0  0  0  0  0  0  0  0  0
   -1.1599    6.9110   13.4099 N   0  0  0  0  0  0  0  0  0  0  0  0
   -0.6574   10.0906   14.7376 C   0  0  0  0  0  0  0  0  0  0  0  0
    0.3409   10.3566   15.6299 C   0  0  0  0  0  0  0  0  0  0  0  0
    0.7797   11.6227   15.9769 C   0  0  0  0  0  0  0  0  0  0  0  0
    0.2806   12.7484   15.3131 C   0  0  0  0  0  0  0  0  0  0  0  0
   -0.6391   12.5510   14.2798 C   0  0  0  0  0  0  0  0  0  0  0  0
   -1.1872   11.2350   13.9694 C   0  0  0  0  0  0  0  0  0  0  0  0
   -1.1424   13.6265   13.5885 C   0  0  0  0  0  0  0  0  0  0  0  0
   -2.1346   13.4784   12.6217 C   0  0  0  0  0  0  0  0  0  0  0  0
   -2.6108   12.2095   12.3000 C   0  0  0  0  0  0  0  0  0  0  0  0
   -2.1512   11.0907   12.9807 C   0  0  0  0  0  0  0  0  0  0  0  0
   -4.1811    3.6591   15.0770 C   0  0  0  0  0  0  0  0  0  0  0  0
   -2.5649    4.1953   14.7799 S   0  0  0  0  0  0  0  0  0  0  0  0
   -2.9754    5.8166   14.6716 C   0  0  0  0  0  0  0  0  0  0  0  0
   -4.3509    5.9797   14.8240 C   0  0  0  0  0  0  0  0  0  0  0  0
   -5.0449    4.7914   14.9863 C   0  0  0  0  0  0  0  0  0  0  0  0
   -4.5183    1.4090   14.0213 O   0  0  0  0  0  0  0  0  0  0  0  0
   -4.6846    2.0351   15.3466 S   0  0  0  0  0  0  0  0  0  0  0  0
   -5.9921    2.1652   15.8759 O   0  0  0  0  0  0  0  0  0  0  0  0
   -3.7681    1.2651   16.4345 N   0  0  0  0  0  0  0  0  0  0  0  0
   -4.1106    0.3117   16.5538 H   0  0  0  0  0  0  0  0  0  0  0  0
   -3.8140    1.7570   17.3269 H   0  0  0  0  0  0  0  0  0  0  0  0
 21 22  2  0  0  0
 22 23  2  0  0  0
 22 24  1  0  0  0
 22 16  1  0  0  0
 16 17  1  0  0  0
 16 20  2  0  0  0
 17 18  1  0  0  0
 18 19  2  0  0  0
 18  1  1  0  0  0
 19 20  1  0  0  0
  1  2  2  0  0  0
  1  5  1  0  0  0
  2  3  1  0  0  0
  3  4  1  0  0  0
  3  6  1  0  0  0
  4  5  2  0  0  0
  6  7  1  0  0  0
  6 11  2  0  0  0
  7  8  2  0  0  0
  8  9  1  0  0  0
  9 10  2  0  0  0
 10 11  1  0  0  0
 10 12  1  0  0  0
 11 15  1  0  0  0
 12 13  2  0  0  0
 13 14  1  0  0  0
 14 15  2  0  0  0
 24 25  1  0  0  0
 24 26  1  0  0  0
M  END
> <minimizedAffinity>
-7.10229

$$$$
