5FLO_J4K_A_1263


 15 16  0  0  0  0  0  0  0  0999 V2000
   -3.0483    4.2262   14.5176 O   0  0  0  0  0  0  0  0  0  0  0  0
   -3.9072    2.3284   15.8569 C   0  0  0  0  0  0  0  0  0  0  0  0
   -4.9457    1.6853   16.4384 C   0  0  0  0  0  0  0  0  0  0  0  0
   -6.1946    2.2009   16.3271 C   0  0  0  0  0  0  0  0  0  0  0  0
   -6.4057    3.3643   15.6448 C   0  0  0  0  0  0  0  0  0  0  0  0
   -5.3347    3.9736   15.0583 C   0  0  0  0  0  0  0  0  0  0  0  0
   -4.0683    3.4813   15.1430 C   0  0  0  0  0  0  0  0  0  0  0  0
   -7.5867    1.3890   17.0110 Cl  0  0  0  0  0  0  0  0  0  0  0  0
   -3.3151    4.4368   13.1345 C   0  0  0  0  0  0  0  0  0  0  0  0
   -2.5379    3.4737   12.4124 C   0  0  0  0  0  0  0  0  0  0  0  0
   -2.8543    2.2749   12.0251 N   0  0  0  0  0  0  0  0  0  0  0  0
   -1.7502    1.7765   11.4015 N   0  0  0  0  0  0  0  0  0  0  0  0
   -0.8032    2.7244   11.4568 N   0  0  0  0  0  0  0  0  0  0  0  0
   -1.2946    3.8269   12.1146 N   0  0  0  0  0  0  0  0  0  0  0  0
   -3.7171    1.8190   12.1556 H   0  0  0  0  0  0  0  0  0  0  0  0
  2  3  2  0  0  0
  2  7  1  0  0  0
  3  4  1  0  0  0
  4  5  2  0  0  0
  4  8  1  0  0  0
  5  6  1  0  0  0
  6  7  2  0  0  0
  7  1  1  0  0  0
  1  9  1  0  0  0
  9 10  1  0  0  0
 10 11  1  0  0  0
 10 14  2  0  0  0
 11 12  1  0  0  0
 12 13  2  0  0  0
 13 14  1  0  0  0
 11 15  1  0  0  0
M  END
> <minimizedAffinity>
-6.24532

$$$$
5FLO_J4K_A_1263


 15 16  0  0  0  0  0  0  0  0999 V2000
   -4.3883    3.0208   12.9885 O   0  0  0  0  0  0  0  0  0  0  0  0
   -6.0389    3.5854   14.7464 C   0  0  0  0  0  0  0  0  0  0  0  0
   -6.5031    3.4245   16.0068 C   0  0  0  0  0  0  0  0  0  0  0  0
   -5.8659    2.5728   16.8474 C   0  0  0  0  0  0  0  0  0  0  0  0
   -4.7718    1.8732   16.4267 C   0  0  0  0  0  0  0  0  0  0  0  0
   -4.3245    2.0762   15.1535 C   0  0  0  0  0  0  0  0  0  0  0  0
   -4.9344    2.9283   14.2845 C   0  0  0  0  0  0  0  0  0  0  0  0
   -6.3851    2.3607   18.5058 Cl  0  0  0  0  0  0  0  0  0  0  0  0
   -5.2957    2.5552   11.9944 C   0  0  0  0  0  0  0  0  0  0  0  0
   -4.6798    1.4215   11.3711 C   0  0  0  0  0  0  0  0  0  0  0  0
   -4.3939    0.2558   11.8676 N   0  0  0  0  0  0  0  0  0  0  0  0
   -3.7958   -0.4450   10.8639 N   0  0  0  0  0  0  0  0  0  0  0  0
   -3.7462    0.3616    9.7936 N   0  0  0  0  0  0  0  0  0  0  0  0
   -4.3078    1.5764   10.1075 N   0  0  0  0  0  0  0  0  0  0  0  0
   -4.5731   -0.0578   12.7834 H   0  0  0  0  0  0  0  0  0  0  0  0
  2  3  2  0  0  0
  2  7  1  0  0  0
  3  4  1  0  0  0
  4  5  2  0  0  0
  4  8  1  0  0  0
  5  6  1  0  0  0
  6  7  2  0  0  0
  7  1  1  0  0  0
  1  9  1  0  0  0
  9 10  1  0  0  0
 10 11  1  0  0  0
 10 14  2  0  0  0
 11 12  1  0  0  0
 12 13  2  0  0  0
 13 14  1  0  0  0
 11 15  1  0  0  0
M  END
> <minimizedAffinity>
-6.20716

$$$$
5FLO_J4K_A_1263


 15 16  0  0  0  0  0  0  0  0999 V2000
   -3.8737    5.1012   13.8040 O   0  0  0  0  0  0  0  0  0  0  0  0
   -5.9358    4.4507   15.0114 C   0  0  0  0  0  0  0  0  0  0  0  0
   -6.5790    3.6116   15.8554 C   0  0  0  0  0  0  0  0  0  0  0  0
   -5.9081    2.5618   16.3902 C   0  0  0  0  0  0  0  0  0  0  0  0
   -4.5982    2.3429   16.0739 C   0  0  0  0  0  0  0  0  0  0  0  0
   -3.9806    3.2217   15.2321 C   0  0  0  0  0  0  0  0  0  0  0  0
   -4.6202    4.2902   14.6822 C   0  0  0  0  0  0  0  0  0  0  0  0
   -6.6682    1.4715   17.5295 Cl  0  0  0  0  0  0  0  0  0  0  0  0
   -4.5894    5.3878   12.6065 C   0  0  0  0  0  0  0  0  0  0  0  0
   -4.2312    4.3749   11.6585 C   0  0  0  0  0  0  0  0  0  0  0  0
   -3.0868    3.7942   11.4580 N   0  0  0  0  0  0  0  0  0  0  0  0
   -3.2800    2.9269   10.4251 N   0  0  0  0  0  0  0  0  0  0  0  0
   -4.5613    3.0427   10.0461 N   0  0  0  0  0  0  0  0  0  0  0  0
   -5.1891    3.9814   10.8298 N   0  0  0  0  0  0  0  0  0  0  0  0
   -2.2496    3.9493   11.9521 H   0  0  0  0  0  0  0  0  0  0  0  0
  2  3  2  0  0  0
  2  7  1  0  0  0
  3  4  1  0  0  0
  4  5  2  0  0  0
  4  8  1  0  0  0
  5  6  1  0  0  0
  6  7  2  0  0  0
  7  1  1  0  0  0
  1  9  1  0  0  0
  9 10  1  0  0  0
 10 11  1  0  0  0
 10 14  2  0  0  0
 11 12  1  0  0  0
 12 13  2  0  0  0
 13 14  1  0  0  0
 11 15  1  0  0  0
M  END
> <minimizedAffinity>
-5.93224

$$$$
5FLO_J4K_A_1263


 15 16  0  0  0  0  0  0  0  0999 V2000
   -3.8366    1.9029   13.0509 O   0  0  0  0  0  0  0  0  0  0  0  0
   -4.2924    1.1540   15.3671 C   0  0  0  0  0  0  0  0  0  0  0  0
   -4.9393    1.3241   16.5430 C   0  0  0  0  0  0  0  0  0  0  0  0
   -5.7922    2.3678   16.6888 C   0  0  0  0  0  0  0  0  0  0  0  0
   -5.9912    3.2484   15.6648 C   0  0  0  0  0  0  0  0  0  0  0  0
   -5.3330    3.0325   14.4891 C   0  0  0  0  0  0  0  0  0  0  0  0
   -4.4751    1.9918   14.3042 C   0  0  0  0  0  0  0  0  0  0  0  0
   -6.6992    2.6119   18.1662 Cl  0  0  0  0  0  0  0  0  0  0  0  0
   -4.7516    2.0798   11.9739 C   0  0  0  0  0  0  0  0  0  0  0  0
   -4.1052    2.9287   11.0176 C   0  0  0  0  0  0  0  0  0  0  0  0
   -2.8393    3.1428   10.8209 N   0  0  0  0  0  0  0  0  0  0  0  0
   -2.7635    4.0529    9.8099 N   0  0  0  0  0  0  0  0  0  0  0  0
   -4.0209    4.3499    9.4502 N   0  0  0  0  0  0  0  0  0  0  0  0
   -4.9018    3.6360   10.2275 N   0  0  0  0  0  0  0  0  0  0  0  0
   -2.0870    2.7310   11.3044 H   0  0  0  0  0  0  0  0  0  0  0  0
  2  3  2  0  0  0
  2  7  1  0  0  0
  3  4  1  0  0  0
  4  5  2  0  0  0
  4  8  1  0  0  0
  5  6  1  0  0  0
  6  7  2  0  0  0
  7  1  1  0  0  0
  1  9  1  0  0  0
  9 10  1  0  0  0
 10 11  1  0  0  0
 10 14  2  0  0  0
 11 12  1  0  0  0
 12 13  2  0  0  0
 13 14  1  0  0  0
 11 15  1  0  0  0
M  END
> <minimizedAffinity>
-5.92089

$$$$
5FLO_J4K_A_1263


 15 16  0  0  0  0  0  0  0  0999 V2000
   -6.5629    3.4754   14.9324 O   0  0  0  0  0  0  0  0  0  0  0  0
   -4.1554    3.7640   14.4280 C   0  0  0  0  0  0  0  0  0  0  0  0
   -3.0940    4.5786   14.2283 C   0  0  0  0  0  0  0  0  0  0  0  0
   -3.2609    5.9216   14.3088 C   0  0  0  0  0  0  0  0  0  0  0  0
   -4.4897    6.4523   14.5777 C   0  0  0  0  0  0  0  0  0  0  0  0
   -5.5314    5.5966   14.7896 C   0  0  0  0  0  0  0  0  0  0  0  0
   -5.3995    4.2432   14.7239 C   0  0  0  0  0  0  0  0  0  0  0  0
   -1.9172    7.0266   14.1134 Cl  0  0  0  0  0  0  0  0  0  0  0  0
   -6.9710    3.4878   16.2968 C   0  0  0  0  0  0  0  0  0  0  0  0
   -6.4164    2.3149   16.9048 C   0  0  0  0  0  0  0  0  0  0  0  0
   -5.5161    2.2098   17.8352 N   0  0  0  0  0  0  0  0  0  0  0  0
   -5.3307    0.8743   18.0312 N   0  0  0  0  0  0  0  0  0  0  0  0
   -6.1448    0.2330   17.1800 N   0  0  0  0  0  0  0  0  0  0  0  0
   -6.8494    1.1512   16.4383 N   0  0  0  0  0  0  0  0  0  0  0  0
   -5.0602    2.9458   18.3038 H   0  0  0  0  0  0  0  0  0  0  0  0
  2  3  2  0  0  0
  2  7  1  0  0  0
  3  4  1  0  0  0
  4  5  2  0  0  0
  4  8  1  0  0  0
  5  6  1  0  0  0
  6  7  2  0  0  0
  7  1  1  0  0  0
  1  9  1  0  0  0
  9 10  1  0  0  0
 10 11  1  0  0  0
 10 14  2  0  0  0
 11 12  1  0  0  0
 12 13  2  0  0  0
 13 14  1  0  0  0
 11 15  1  0  0  0
M  END
> <minimizedAffinity>
-5.91210

$$$$
5FLO_J4K_A_1263


 15 16  0  0  0  0  0  0  0  0999 V2000
   -4.0128    5.0007   13.7466 O   0  0  0  0  0  0  0  0  0  0  0  0
   -4.0594    3.0631   15.2883 C   0  0  0  0  0  0  0  0  0  0  0  0
   -4.7303    2.2927   16.1750 C   0  0  0  0  0  0  0  0  0  0  0  0
   -6.0170    2.5933   16.4784 C   0  0  0  0  0  0  0  0  0  0  0  0
   -6.6309    3.6695   15.9051 C   0  0  0  0  0  0  0  0  0  0  0  0
   -5.9255    4.4116   15.0028 C   0  0  0  0  0  0  0  0  0  0  0  0
   -4.6350    4.1353   14.6686 C   0  0  0  0  0  0  0  0  0  0  0  0
   -6.9557    1.6050   17.5769 Cl  0  0  0  0  0  0  0  0  0  0  0  0
   -4.9245    5.4689   12.7576 C   0  0  0  0  0  0  0  0  0  0  0  0
   -4.5819    4.8076   11.5336 C   0  0  0  0  0  0  0  0  0  0  0  0
   -3.8145    5.2041   10.5635 N   0  0  0  0  0  0  0  0  0  0  0  0
   -3.8467    4.2137    9.6284 N   0  0  0  0  0  0  0  0  0  0  0  0
   -4.6594    3.2548   10.0961 N   0  0  0  0  0  0  0  0  0  0  0  0
   -5.1495    3.6271   11.3253 N   0  0  0  0  0  0  0  0  0  0  0  0
   -3.3114    6.0489   10.5139 H   0  0  0  0  0  0  0  0  0  0  0  0
  2  3  2  0  0  0
  2  7  1  0  0  0
  3  4  1  0  0  0
  4  5  2  0  0  0
  4  8  1  0  0  0
  5  6  1  0  0  0
  6  7  2  0  0  0
  7  1  1  0  0  0
  1  9  1  0  0  0
  9 10  1  0  0  0
 10 11  1  0  0  0
 10 14  2  0  0  0
 11 12  1  0  0  0
 12 13  2  0  0  0
 13 14  1  0  0  0
 11 15  1  0  0  0
M  END
> <minimizedAffinity>
-5.79609

$$$$
5FLO_J4K_A_1263


 15 16  0  0  0  0  0  0  0  0999 V2000
   -5.8877    4.2562   14.0520 O   0  0  0  0  0  0  0  0  0  0  0  0
   -4.2383    6.0060   14.6447 C   0  0  0  0  0  0  0  0  0  0  0  0
   -3.4754    7.0624   14.2812 C   0  0  0  0  0  0  0  0  0  0  0  0
   -3.5195    7.5063   13.0009 C   0  0  0  0  0  0  0  0  0  0  0  0
   -4.3166    6.8889   12.0805 C   0  0  0  0  0  0  0  0  0  0  0  0
   -5.0836    5.8374   12.4908 C   0  0  0  0  0  0  0  0  0  0  0  0
   -5.0706    5.3692   13.7691 C   0  0  0  0  0  0  0  0  0  0  0  0
   -2.5974    8.9006   12.4810 Cl  0  0  0  0  0  0  0  0  0  0  0  0
   -5.2958    3.0369   13.6145 C   0  0  0  0  0  0  0  0  0  0  0  0
   -4.8681    2.3398   14.7911 C   0  0  0  0  0  0  0  0  0  0  0  0
   -5.4015    2.3060   15.9749 N   0  0  0  0  0  0  0  0  0  0  0  0
   -4.5886    1.5173   16.7322 N   0  0  0  0  0  0  0  0  0  0  0  0
   -3.5805    1.1164   15.9439 N   0  0  0  0  0  0  0  0  0  0  0  0
   -3.7425    1.6461   14.6858 N   0  0  0  0  0  0  0  0  0  0  0  0
   -6.2259    2.7585   16.2660 H   0  0  0  0  0  0  0  0  0  0  0  0
  2  3  2  0  0  0
  2  7  1  0  0  0
  3  4  1  0  0  0
  4  5  2  0  0  0
  4  8  1  0  0  0
  5  6  1  0  0  0
  6  7  2  0  0  0
  7  1  1  0  0  0
  1  9  1  0  0  0
  9 10  1  0  0  0
 10 11  1  0  0  0
 10 14  2  0  0  0
 11 12  1  0  0  0
 12 13  2  0  0  0
 13 14  1  0  0  0
 11 15  1  0  0  0
M  END
> <minimizedAffinity>
-5.76551

$$$$
5FLO_J4K_A_1263


 15 16  0  0  0  0  0  0  0  0999 V2000
   -6.8706    3.3156   15.5539 O   0  0  0  0  0  0  0  0  0  0  0  0
   -5.6950    4.0425   13.4989 C   0  0  0  0  0  0  0  0  0  0  0  0
   -5.0115    4.9912   12.8186 C   0  0  0  0  0  0  0  0  0  0  0  0
   -4.7650    6.1864   13.4091 C   0  0  0  0  0  0  0  0  0  0  0  0
   -5.2103    6.4390   14.6746 C   0  0  0  0  0  0  0  0  0  0  0  0
   -5.8813    5.4501   15.3336 C   0  0  0  0  0  0  0  0  0  0  0  0
   -6.1405    4.2359   14.7752 C   0  0  0  0  0  0  0  0  0  0  0  0
   -3.8405    7.4351   12.6023 Cl  0  0  0  0  0  0  0  0  0  0  0  0
   -6.1469    2.9049   16.7098 C   0  0  0  0  0  0  0  0  0  0  0  0
   -5.1743    1.9489   16.2704 C   0  0  0  0  0  0  0  0  0  0  0  0
   -3.8901    2.0790   16.1257 N   0  0  0  0  0  0  0  0  0  0  0  0
   -3.4400    0.8808   15.6589 N   0  0  0  0  0  0  0  0  0  0  0  0
   -4.5072    0.0776   15.5375 N   0  0  0  0  0  0  0  0  0  0  0  0
   -5.6389    0.7563   15.9225 N   0  0  0  0  0  0  0  0  0  0  0  0
   -3.3512    2.8808   16.3150 H   0  0  0  0  0  0  0  0  0  0  0  0
  2  3  2  0  0  0
  2  7  1  0  0  0
  3  4  1  0  0  0
  4  5  2  0  0  0
  4  8  1  0  0  0
  5  6  1  0  0  0
  6  7  2  0  0  0
  7  1  1  0  0  0
  1  9  1  0  0  0
  9 10  1  0  0  0
 10 11  1  0  0  0
 10 14  2  0  0  0
 11 12  1  0  0  0
 12 13  2  0  0  0
 13 14  1  0  0  0
 11 15  1  0  0  0
M  END
> <minimizedAffinity>
-5.68131

$$$$
5FLO_J4K_A_1263


 15 16  0  0  0  0  0  0  0  0999 V2000
   -4.5215    4.5023   14.8143 O   0  0  0  0  0  0  0  0  0  0  0  0
   -3.8541    6.8802   14.6295 C   0  0  0  0  0  0  0  0  0  0  0  0
   -2.9461    7.8125   14.2606 C   0  0  0  0  0  0  0  0  0  0  0  0
   -1.7752    7.4175   13.7029 C   0  0  0  0  0  0  0  0  0  0  0  0
   -1.5057    6.0913   13.5235 C   0  0  0  0  0  0  0  0  0  0  0  0
   -2.4545    5.1827   13.8932 C   0  0  0  0  0  0  0  0  0  0  0  0
   -3.6438    5.5429   14.4493 C   0  0  0  0  0  0  0  0  0  0  0  0
   -0.5825    8.5763   13.1558 Cl  0  0  0  0  0  0  0  0  0  0  0  0
   -4.5824    3.4844   13.8200 C   0  0  0  0  0  0  0  0  0  0  0  0
   -4.3017    2.2443   14.4806 C   0  0  0  0  0  0  0  0  0  0  0  0
   -4.5492    1.0273   14.0999 N   0  0  0  0  0  0  0  0  0  0  0  0
   -4.1038    0.2204   15.1033 N   0  0  0  0  0  0  0  0  0  0  0  0
   -3.6075    1.0176   16.0608 N   0  0  0  0  0  0  0  0  0  0  0  0
   -3.7347    2.3313   15.6765 N   0  0  0  0  0  0  0  0  0  0  0  0
   -4.9727    0.7452   13.2571 H   0  0  0  0  0  0  0  0  0  0  0  0
  2  3  2  0  0  0
  2  7  1  0  0  0
  3  4  1  0  0  0
  4  5  2  0  0  0
  4  8  1  0  0  0
  5  6  1  0  0  0
  6  7  2  0  0  0
  7  1  1  0  0  0
  1  9  1  0  0  0
  9 10  1  0  0  0
 10 11  1  0  0  0
 10 14  2  0  0  0
 11 12  1  0  0  0
 12 13  2  0  0  0
 13 14  1  0  0  0
 11 15  1  0  0  0
M  END
> <minimizedAffinity>
-5.60941

$$$$
5FLO_J4K_A_1263


 15 16  0  0  0  0  0  0  0  0999 V2000
   -5.4881    3.6081   12.3371 O   0  0  0  0  0  0  0  0  0  0  0  0
   -4.4925    1.5015   13.1766 C   0  0  0  0  0  0  0  0  0  0  0  0
   -4.0227    0.2557   12.9372 C   0  0  0  0  0  0  0  0  0  0  0  0
   -4.0302   -0.2266   11.6702 C   0  0  0  0  0  0  0  0  0  0  0  0
   -4.5169    0.5301   10.6435 C   0  0  0  0  0  0  0  0  0  0  0  0
   -4.9660    1.7880   10.9236 C   0  0  0  0  0  0  0  0  0  0  0  0
   -4.9671    2.3078   12.1817 C   0  0  0  0  0  0  0  0  0  0  0  0
   -3.3875   -1.8093   11.2872 Cl  0  0  0  0  0  0  0  0  0  0  0  0
   -4.5050    4.6083   12.0894 C   0  0  0  0  0  0  0  0  0  0  0  0
   -5.1535    5.6514   11.3515 C   0  0  0  0  0  0  0  0  0  0  0  0
   -5.4546    6.8611   11.7159 N   0  0  0  0  0  0  0  0  0  0  0  0
   -6.0828    7.4308   10.6496 N   0  0  0  0  0  0  0  0  0  0  0  0
   -6.1335    6.5055    9.6800 N   0  0  0  0  0  0  0  0  0  0  0  0
   -5.5426    5.3453   10.1210 N   0  0  0  0  0  0  0  0  0  0  0  0
   -5.2670    7.2813   12.5863 H   0  0  0  0  0  0  0  0  0  0  0  0
  2  3  2  0  0  0
  2  7  1  0  0  0
  3  4  1  0  0  0
  4  5  2  0  0  0
  4  8  1  0  0  0
  5  6  1  0  0  0
  6  7  2  0  0  0
  7  1  1  0  0  0
  1  9  1  0  0  0
  9 10  1  0  0  0
 10 11  1  0  0  0
 10 14  2  0  0  0
 11 12  1  0  0  0
 12 13  2  0  0  0
 13 14  1  0  0  0
 11 15  1  0  0  0
M  END
> <minimizedAffinity>
-5.59161

$$$$
