5FLO_J4K_A_1263
  RCSB PDB12061717433D
Coordinates from PDB:5FLO:A:1263 Model:1 without hydrogens
 14 15  0  0  0  0            999 V2000
   -5.0290    3.3550   14.5780   C 0  0  0  0  0  0  0  0  0  0  0  0
   -5.5660    4.5560   14.2630   C 0  0  0  0  0  0  0  0  0  0  0  0
   -6.0330    4.7680   13.0080   C 0  0  0  0  0  0  0  0  0  0  0  0
   -5.9540    3.7850   12.0640   C 0  0  0  0  0  0  0  0  0  0  0  0
   -5.4210    2.5820   12.4260   C 0  0  0  0  0  0  0  0  0  0  0  0
   -4.9490    2.3310   13.6780   C 0  0  0  0  0  0  0  0  0  0  0  0
   -4.3950    1.0560   13.9100   O 0  0  0  0  0  0  0  0  0  0  0  0
   -3.7350    0.9840   15.1700   C 0  0  0  0  0  0  0  0  0  0  0  0
   -4.7530    1.0660   16.1750   C 0  0  0  0  0  0  0  0  0  0  0  0
   -4.7830    1.7640   17.2700   N 0  0  0  0  0  0  0  0  0  0  0  0
   -5.9640    1.4610   17.8780   N 0  0  0  0  0  0  0  0  0  0  0  0
   -6.5920    0.5680   17.0990   N 0  0  0  0  0  0  0  0  0  0  0  0
   -5.8180    0.2960   15.9960   N 0  0  0  0  0  0  0  0  0  0  0  0
   -6.7870    6.2810   12.5530  Cl 0  0  0  0  0  0  0  0  0  0  0  0
  1  2  2  0  0  0  0
  1  6  1  0  0  0  0
  2  3  1  0  0  0  0
  3  4  2  0  0  0  0
  3 14  1  0  0  0  0
  4  5  1  0  0  0  0
  5  6  2  0  0  0  0
  6  7  1  0  0  0  0
  7  8  1  0  0  0  0
  8  9  1  0  0  0  0
  9 10  1  0  0  0  0
  9 13  2  0  0  0  0
 10 11  1  0  0  0  0
 11 12  2  0  0  0  0
 12 13  1  0  0  0  0
A    1
C1
A    2
C2
A    3
C3
A    4
C4
A    5
C5
A    6
C6
A    7
O7
A    8
C8
A    9
C9
A   10
N10
A   11
N11
A   12
N12
A   13
N13
A   14
CL1
M  END
>  <InstanceId>
5FLO_J4K_A_1263

>  <ChemCompId>
J4K

>  <PdbId>
5FLO

>  <ChainId>
A

>  <ResidueNumber>
1263

>  <InsertionCode>


>  <Model>
1

>  <AltIds>


>  <MissingHeavyAtoms>
0

>  <ObservedFormula>
C8 N4 O Cl

>  <Name>
5-[(4-chloranylphenoxy)methyl]-1H-1,2,3,4-tetrazole

>  <SystematicName>
5-[(4-chloranylphenoxy)methyl]-1H-1,2,3,4-tetrazole

>  <Synonyms>


>  <Type>
NON-POLYMER

>  <Formula>
C8 H7 Cl N4 O

>  <MolecularWeight>
210.62

>  <ModifiedDate>
2016-02-26

>  <Parent>


>  <OneLetterCode>


>  <SubcomponentList>


>  <AmbiguousFlag>
N

>  <InChI>
InChI=1S/C8H7ClN4O/c9-6-1-3-7(4-2-6)14-5-8-10-12-13-11-8/h1-4H,5H2,(H,10,11,12,13)

>  <InChIKey>
LAEFYQOLGWVFTE-UHFFFAOYSA-N

>  <SMILES>
c1cc(ccc1OCc2[nH]nnn2)Cl

$$$$
