4ASJ_N6A_A_1294


 30 32  0  0  0  0  0  0  0  0999 V2000
   34.8056    3.8614   11.1529 N   0  0  0  0  0  0  0  0  0  0  0  0
   34.7201    4.0734    9.8173 C   0  0  0  0  0  0  0  0  0  0  0  0
   34.8389    3.0988    8.9216 N   0  0  0  0  0  0  0  0  0  0  0  0
   34.6809    4.8913   11.9982 C   0  0  0  0  0  0  0  0  0  0  0  0
   34.7298    4.7111   13.2078 O   0  0  0  0  0  0  0  0  0  0  0  0
   34.5329    6.1929   11.5677 N   0  0  0  0  0  0  0  0  0  0  0  0
   34.4751    6.4697   10.2233 C   0  0  0  0  0  0  0  0  0  0  0  0
   34.3156    7.6272    9.8805 O   0  0  0  0  0  0  0  0  0  0  0  0
   34.5728    5.3905    9.3416 C   0  0  0  0  0  0  0  0  0  0  0  0
   34.9435    2.1664    9.2197 H   0  0  0  0  0  0  0  0  0  0  0  0
   34.8223    3.3093    7.9600 H   0  0  0  0  0  0  0  0  0  0  0  0
   34.4686    6.9240   12.2239 H   0  0  0  0  0  0  0  0  0  0  0  0
   34.4162    5.6510    8.0691 N   0  0  0  0  0  0  0  0  0  0  0  0
   35.6918    5.9584    7.3880 C   0  0  0  0  0  0  0  0  0  0  0  0
   33.0498    5.3874    7.2323 S   0  0  0  0  0  0  0  0  0  0  0  0
   32.6735    6.5453    6.3455 O   0  0  0  0  0  0  0  0  0  0  0  0
   33.2804    4.2163    6.3319 O   0  0  0  0  0  0  0  0  0  0  0  0
   31.7169    4.9690    8.4556 C   0  0  0  0  0  0  0  0  0  0  0  0
   31.3502    3.6500    8.6612 C   0  0  0  0  0  0  0  0  0  0  0  0
   30.3689    3.3146    9.5796 C   0  0  0  0  0  0  0  0  0  0  0  0
   29.7027    4.3162   10.2759 C   0  0  0  0  0  0  0  0  0  0  0  0
   30.0226    5.6367   10.0497 C   0  0  0  0  0  0  0  0  0  0  0  0
   31.0265    5.9593    9.1378 C   0  0  0  0  0  0  0  0  0  0  0  0
   35.0107    2.5188   11.7131 C   0  0  0  0  0  0  0  0  0  0  0  0
   32.6916    2.1635   12.4835 C   0  0  0  0  0  0  0  0  0  0  0  0
   31.4981    1.4187   12.4644 C   0  0  0  0  0  0  0  0  0  0  0  0
   31.3984    0.2951   11.6508 C   0  0  0  0  0  0  0  0  0  0  0  0
   32.4874   -0.0980   10.8703 C   0  0  0  0  0  0  0  0  0  0  0  0
   33.6653    0.6497   10.9062 C   0  0  0  0  0  0  0  0  0  0  0  0
   33.8007    1.7837   11.7132 C   0  0  0  0  0  0  0  0  0  0  0  0
 25 26  1  0  0  0
 25 30  2  0  0  0
 26 27  2  0  0  0
 27 28  1  0  0  0
 28 29  2  0  0  0
 29 30  1  0  0  0
 30 24  1  0  0  0
 24  1  1  0  0  0
  1  2  1  0  0  0
  1  4  1  0  0  0
  2  3  1  0  0  0
  2  9  2  0  0  0
  4  5  2  0  0  0
  4  6  1  0  0  0
  6  7  1  0  0  0
  7  8  2  0  0  0
  7  9  1  0  0  0
  9 13  1  0  0  0
 13 14  1  0  0  0
 13 15  1  0  0  0
 15 16  2  0  0  0
 15 17  2  0  0  0
 15 18  1  0  0  0
 18 19  1  0  0  0
 18 23  2  0  0  0
 19 20  2  0  0  0
 20 21  1  0  0  0
 21 22  2  0  0  0
 22 23  1  0  0  0
  3 10  1  0  0  0
  3 11  1  0  0  0
  6 12  1  0  0  0
M  END
> <minimizedAffinity>
0.00000

$$$$
4ASJ_N6A_A_1294


 30 32  0  0  0  0  0  0  0  0999 V2000
   33.9359    8.4837   10.7570 N   0  0  0  0  0  0  0  0  0  0  0  0
   33.4542    8.5882   12.0191 C   0  0  0  0  0  0  0  0  0  0  0  0
   32.5348    9.4813   12.3703 N   0  0  0  0  0  0  0  0  0  0  0  0
   34.8655    7.5633   10.4749 C   0  0  0  0  0  0  0  0  0  0  0  0
   35.2908    7.4398    9.3339 O   0  0  0  0  0  0  0  0  0  0  0  0
   35.4167    6.7440   11.4374 N   0  0  0  0  0  0  0  0  0  0  0  0
   34.9906    6.8313   12.7404 C   0  0  0  0  0  0  0  0  0  0  0  0
   35.4795    6.0728   13.5578 O   0  0  0  0  0  0  0  0  0  0  0  0
   33.9968    7.7701   13.0285 C   0  0  0  0  0  0  0  0  0  0  0  0
   32.1346   10.0694   11.6897 H   0  0  0  0  0  0  0  0  0  0  0  0
   32.2539    9.5547   13.3110 H   0  0  0  0  0  0  0  0  0  0  0  0
   36.1159    6.0963   11.1906 H   0  0  0  0  0  0  0  0  0  0  0  0
   33.5265    7.7769   14.2493 N   0  0  0  0  0  0  0  0  0  0  0  0
   34.2671    8.6938   15.1415 C   0  0  0  0  0  0  0  0  0  0  0  0
   32.1185    7.1062   14.7019 S   0  0  0  0  0  0  0  0  0  0  0  0
   32.2228    6.3423   15.9958 O   0  0  0  0  0  0  0  0  0  0  0  0
   31.1371    8.2098   14.9346 O   0  0  0  0  0  0  0  0  0  0  0  0
   31.5279    6.0445   13.2975 C   0  0  0  0  0  0  0  0  0  0  0  0
   30.5402    6.5058   12.4441 C   0  0  0  0  0  0  0  0  0  0  0  0
   30.0956    5.7363   11.3815 C   0  0  0  0  0  0  0  0  0  0  0  0
   30.6101    4.4594   11.1900 C   0  0  0  0  0  0  0  0  0  0  0  0
   31.5600    3.9666   12.0572 C   0  0  0  0  0  0  0  0  0  0  0  0
   32.0136    4.7595   13.1103 C   0  0  0  0  0  0  0  0  0  0  0  0
   33.4500    9.3422    9.6682 C   0  0  0  0  0  0  0  0  0  0  0  0
   32.0068    7.6246    8.6363 C   0  0  0  0  0  0  0  0  0  0  0  0
   30.7443    7.2021    8.1809 C   0  0  0  0  0  0  0  0  0  0  0  0
   29.6462    8.0458    8.3090 C   0  0  0  0  0  0  0  0  0  0  0  0
   29.8043    9.3133    8.8729 C   0  0  0  0  0  0  0  0  0  0  0  0
   31.0649    9.7178    9.3141 C   0  0  0  0  0  0  0  0  0  0  0  0
   32.1907    8.8960    9.1997 C   0  0  0  0  0  0  0  0  0  0  0  0
 25 26  1  0  0  0
 25 30  2  0  0  0
 26 27  2  0  0  0
 27 28  1  0  0  0
 28 29  2  0  0  0
 29 30  1  0  0  0
 30 24  1  0  0  0
 24  1  1  0  0  0
  1  2  1  0  0  0
  1  4  1  0  0  0
  2  3  1  0  0  0
  2  9  2  0  0  0
  4  5  2  0  0  0
  4  6  1  0  0  0
  6  7  1  0  0  0
  7  8  2  0  0  0
  7  9  1  0  0  0
  9 13  1  0  0  0
 13 14  1  0  0  0
 13 15  1  0  0  0
 15 16  2  0  0  0
 15 17  2  0  0  0
 15 18  1  0  0  0
 18 19  1  0  0  0
 18 23  2  0  0  0
 19 20  2  0  0  0
 20 21  1  0  0  0
 21 22  2  0  0  0
 22 23  1  0  0  0
  3 10  1  0  0  0
  3 11  1  0  0  0
  6 12  1  0  0  0
M  END
> <minimizedAffinity>
0.00175

$$$$
4ASJ_N6A_A_1294


 30 32  0  0  0  0  0  0  0  0999 V2000
   36.7009    6.0148    9.4915 N   0  0  0  0  0  0  0  0  0  0  0  0
   37.7189    5.2410    9.9396 C   0  0  0  0  0  0  0  0  0  0  0  0
   38.6599    5.6904   10.7635 N   0  0  0  0  0  0  0  0  0  0  0  0
   35.7900    5.4972    8.6589 C   0  0  0  0  0  0  0  0  0  0  0  0
   34.8504    6.1766    8.2667 O   0  0  0  0  0  0  0  0  0  0  0  0
   35.8739    4.2097    8.1724 N   0  0  0  0  0  0  0  0  0  0  0  0
   36.9050    3.3920    8.5662 C   0  0  0  0  0  0  0  0  0  0  0  0
   36.9314    2.2524    8.1383 O   0  0  0  0  0  0  0  0  0  0  0  0
   37.8381    3.9222    9.4608 C   0  0  0  0  0  0  0  0  0  0  0  0
   38.6075    6.6077   11.1171 H   0  0  0  0  0  0  0  0  0  0  0  0
   39.4094    5.1059   11.0203 H   0  0  0  0  0  0  0  0  0  0  0  0
   35.1945    3.8764    7.5425 H   0  0  0  0  0  0  0  0  0  0  0  0
   38.7579    3.1063    9.9077 N   0  0  0  0  0  0  0  0  0  0  0  0
   39.9800    3.1129    9.0759 C   0  0  0  0  0  0  0  0  0  0  0  0
   38.7243    2.3807   11.3600 S   0  0  0  0  0  0  0  0  0  0  0  0
   39.0663    0.9154   11.2907 O   0  0  0  0  0  0  0  0  0  0  0  0
   39.7657    3.0228   12.2194 O   0  0  0  0  0  0  0  0  0  0  0  0
   37.0470    2.6830   12.0974 C   0  0  0  0  0  0  0  0  0  0  0  0
   36.8756    3.6667   13.0564 C   0  0  0  0  0  0  0  0  0  0  0  0
   35.6304    3.9188   13.6085 C   0  0  0  0  0  0  0  0  0  0  0  0
   34.5388    3.1439   13.2345 C   0  0  0  0  0  0  0  0  0  0  0  0
   34.7010    2.1304   12.3159 C   0  0  0  0  0  0  0  0  0  0  0  0
   35.9554    1.9008   11.7526 C   0  0  0  0  0  0  0  0  0  0  0  0
   36.5481    7.4144    9.9114 C   0  0  0  0  0  0  0  0  0  0  0  0
   34.6819    7.0522   11.4874 C   0  0  0  0  0  0  0  0  0  0  0  0
   34.1445    7.1360   12.7851 C   0  0  0  0  0  0  0  0  0  0  0  0
   34.9204    7.6418   13.8225 C   0  0  0  0  0  0  0  0  0  0  0  0
   36.2220    8.0793   13.5687 C   0  0  0  0  0  0  0  0  0  0  0  0
   36.7366    7.9937   12.2744 C   0  0  0  0  0  0  0  0  0  0  0  0
   35.9843    7.4918   11.2077 C   0  0  0  0  0  0  0  0  0  0  0  0
 25 26  1  0  0  0
 25 30  2  0  0  0
 26 27  2  0  0  0
 27 28  1  0  0  0
 28 29  2  0  0  0
 29 30  1  0  0  0
 30 24  1  0  0  0
 24  1  1  0  0  0
  1  2  1  0  0  0
  1  4  1  0  0  0
  2  3  1  0  0  0
  2  9  2  0  0  0
  4  5  2  0  0  0
  4  6  1  0  0  0
  6  7  1  0  0  0
  7  8  2  0  0  0
  7  9  1  0  0  0
  9 13  1  0  0  0
 13 14  1  0  0  0
 13 15  1  0  0  0
 15 16  2  0  0  0
 15 17  2  0  0  0
 15 18  1  0  0  0
 18 19  1  0  0  0
 18 23  2  0  0  0
 19 20  2  0  0  0
 20 21  1  0  0  0
 21 22  2  0  0  0
 22 23  1  0  0  0
  3 10  1  0  0  0
  3 11  1  0  0  0
  6 12  1  0  0  0
M  END
> <minimizedAffinity>
0.00218

$$$$
4ASJ_N6A_A_1294


 30 32  0  0  0  0  0  0  0  0999 V2000
   36.4157    0.8628   10.2821 N   0  0  0  0  0  0  0  0  0  0  0  0
   35.3244    0.6736   11.0625 C   0  0  0  0  0  0  0  0  0  0  0  0
   35.0042    1.4838   12.0662 N   0  0  0  0  0  0  0  0  0  0  0  0
   36.6803    0.0037    9.2907 C   0  0  0  0  0  0  0  0  0  0  0  0
   37.6478    0.1765    8.5612 O   0  0  0  0  0  0  0  0  0  0  0  0
   35.9199   -1.1233    9.0607 N   0  0  0  0  0  0  0  0  0  0  0  0
   34.8219   -1.3832    9.8442 C   0  0  0  0  0  0  0  0  0  0  0  0
   34.1577   -2.3727    9.5942 O   0  0  0  0  0  0  0  0  0  0  0  0
   34.5270   -0.4689   10.8587 C   0  0  0  0  0  0  0  0  0  0  0  0
   35.5404    2.2916   12.2370 H   0  0  0  0  0  0  0  0  0  0  0  0
   34.2307    1.2762   12.6388 H   0  0  0  0  0  0  0  0  0  0  0  0
   36.1641   -1.7420    8.3349 H   0  0  0  0  0  0  0  0  0  0  0  0
   33.4246   -0.6705   11.5337 N   0  0  0  0  0  0  0  0  0  0  0  0
   33.6364   -1.5004   12.7385 C   0  0  0  0  0  0  0  0  0  0  0  0
   32.0291    0.1214   11.2836 S   0  0  0  0  0  0  0  0  0  0  0  0
   30.8336   -0.7944   11.2524 O   0  0  0  0  0  0  0  0  0  0  0  0
   31.8202    1.0587   12.4295 O   0  0  0  0  0  0  0  0  0  0  0  0
   32.2142    1.0990    9.7157 C   0  0  0  0  0  0  0  0  0  0  0  0
   32.4913    2.4544    9.7695 C   0  0  0  0  0  0  0  0  0  0  0  0
   32.6480    3.1994    8.6122 C   0  0  0  0  0  0  0  0  0  0  0  0
   32.4784    2.5943    7.3725 C   0  0  0  0  0  0  0  0  0  0  0  0
   32.1567    1.2569    7.3014 C   0  0  0  0  0  0  0  0  0  0  0  0
   32.0223    0.5140    8.4734 C   0  0  0  0  0  0  0  0  0  0  0  0
   37.3180    2.0061   10.4751 C   0  0  0  0  0  0  0  0  0  0  0  0
   36.5364    3.3295    8.5422 C   0  0  0  0  0  0  0  0  0  0  0  0
   35.9804    4.5087    8.0131 C   0  0  0  0  0  0  0  0  0  0  0  0
   35.6237    5.5472    8.8665 C   0  0  0  0  0  0  0  0  0  0  0  0
   35.8341    5.4220   10.2412 C   0  0  0  0  0  0  0  0  0  0  0  0
   36.3918    4.2473   10.7478 C   0  0  0  0  0  0  0  0  0  0  0  0
   36.7633    3.1840    9.9189 C   0  0  0  0  0  0  0  0  0  0  0  0
 25 26  1  0  0  0
 25 30  2  0  0  0
 26 27  2  0  0  0
 27 28  1  0  0  0
 28 29  2  0  0  0
 29 30  1  0  0  0
 30 24  1  0  0  0
 24  1  1  0  0  0
  1  2  1  0  0  0
  1  4  1  0  0  0
  2  3  1  0  0  0
  2  9  2  0  0  0
  4  5  2  0  0  0
  4  6  1  0  0  0
  6  7  1  0  0  0
  7  8  2  0  0  0
  7  9  1  0  0  0
  9 13  1  0  0  0
 13 14  1  0  0  0
 13 15  1  0  0  0
 15 16  2  0  0  0
 15 17  2  0  0  0
 15 18  1  0  0  0
 18 19  1  0  0  0
 18 23  2  0  0  0
 19 20  2  0  0  0
 20 21  1  0  0  0
 21 22  2  0  0  0
 22 23  1  0  0  0
  3 10  1  0  0  0
  3 11  1  0  0  0
  6 12  1  0  0  0
M  END
> <minimizedAffinity>
0.00237

$$$$
4ASJ_N6A_A_1294


 30 32  0  0  0  0  0  0  0  0999 V2000
   36.0235    7.9447    9.6079 N   0  0  0  0  0  0  0  0  0  0  0  0
   37.0463    7.0564    9.5821 C   0  0  0  0  0  0  0  0  0  0  0  0
   37.4963    6.5044    8.4600 N   0  0  0  0  0  0  0  0  0  0  0  0
   35.6188    8.4580   10.7756 C   0  0  0  0  0  0  0  0  0  0  0  0
   34.7137    9.2811   10.8116 O   0  0  0  0  0  0  0  0  0  0  0  0
   36.1572    8.0706   11.9846 N   0  0  0  0  0  0  0  0  0  0  0  0
   37.1733    7.1468   12.0199 C   0  0  0  0  0  0  0  0  0  0  0  0
   37.6434    6.8497   13.1031 O   0  0  0  0  0  0  0  0  0  0  0  0
   37.6177    6.6352   10.7982 C   0  0  0  0  0  0  0  0  0  0  0  0
   37.1189    6.7758    7.5922 H   0  0  0  0  0  0  0  0  0  0  0  0
   38.2070    5.8241    8.4966 H   0  0  0  0  0  0  0  0  0  0  0  0
   35.8133    8.4563   12.8226 H   0  0  0  0  0  0  0  0  0  0  0  0
   38.6508    5.8334   10.8340 N   0  0  0  0  0  0  0  0  0  0  0  0
   38.2666    4.4127   10.9731 C   0  0  0  0  0  0  0  0  0  0  0  0
   40.1727    6.2690   10.4719 S   0  0  0  0  0  0  0  0  0  0  0  0
   41.1848    5.7264   11.4464 O   0  0  0  0  0  0  0  0  0  0  0  0
   40.5116    5.6894    9.1360 O   0  0  0  0  0  0  0  0  0  0  0  0
   40.2136    8.1225   10.3659 C   0  0  0  0  0  0  0  0  0  0  0  0
   40.2074    8.7491    9.1314 C   0  0  0  0  0  0  0  0  0  0  0  0
   40.2224   10.1306    9.0298 C   0  0  0  0  0  0  0  0  0  0  0  0
   40.2934   10.9074   10.1802 C   0  0  0  0  0  0  0  0  0  0  0  0
   40.3472   10.2994   11.4150 C   0  0  0  0  0  0  0  0  0  0  0  0
   40.3105    8.9086   11.5039 C   0  0  0  0  0  0  0  0  0  0  0  0
   35.3495    8.3867    8.3795 C   0  0  0  0  0  0  0  0  0  0  0  0
   36.4801   10.5790    8.2635 C   0  0  0  0  0  0  0  0  0  0  0  0
   37.2633   11.5145    7.5627 C   0  0  0  0  0  0  0  0  0  0  0  0
   37.7269   11.2096    6.2874 C   0  0  0  0  0  0  0  0  0  0  0  0
   37.3995    9.9848    5.7022 C   0  0  0  0  0  0  0  0  0  0  0  0
   36.6171    9.0713    6.4099 C   0  0  0  0  0  0  0  0  0  0  0  0
   36.1331    9.3454    7.6930 C   0  0  0  0  0  0  0  0  0  0  0  0
 25 26  1  0  0  0
 25 30  2  0  0  0
 26 27  2  0  0  0
 27 28  1  0  0  0
 28 29  2  0  0  0
 29 30  1  0  0  0
 30 24  1  0  0  0
 24  1  1  0  0  0
  1  2  1  0  0  0
  1  4  1  0  0  0
  2  3  1  0  0  0
  2  9  2  0  0  0
  4  5  2  0  0  0
  4  6  1  0  0  0
  6  7  1  0  0  0
  7  8  2  0  0  0
  7  9  1  0  0  0
  9 13  1  0  0  0
 13 14  1  0  0  0
 13 15  1  0  0  0
 15 16  2  0  0  0
 15 17  2  0  0  0
 15 18  1  0  0  0
 18 19  1  0  0  0
 18 23  2  0  0  0
 19 20  2  0  0  0
 20 21  1  0  0  0
 21 22  2  0  0  0
 22 23  1  0  0  0
  3 10  1  0  0  0
  3 11  1  0  0  0
  6 12  1  0  0  0
M  END
> <minimizedAffinity>
0.00325

$$$$
4ASJ_N6A_A_1294


 30 32  0  0  0  0  0  0  0  0999 V2000
   32.5627    3.7710    7.5167 N   0  0  0  0  0  0  0  0  0  0  0  0
   31.8462    2.8967    8.2638 C   0  0  0  0  0  0  0  0  0  0  0  0
   30.8353    3.2697    9.0417 N   0  0  0  0  0  0  0  0  0  0  0  0
   33.5718    3.3257    6.7588 C   0  0  0  0  0  0  0  0  0  0  0  0
   34.2110    4.1000    6.0587 O   0  0  0  0  0  0  0  0  0  0  0  0
   33.9691    2.0053    6.7506 N   0  0  0  0  0  0  0  0  0  0  0  0
   33.3001    1.0816    7.5163 C   0  0  0  0  0  0  0  0  0  0  0  0
   33.6609   -0.0801    7.4625 O   0  0  0  0  0  0  0  0  0  0  0  0
   32.2260    1.5410    8.2826 C   0  0  0  0  0  0  0  0  0  0  0  0
   30.5437    4.2099    9.0530 H   0  0  0  0  0  0  0  0  0  0  0  0
   30.3780    2.6057    9.6068 H   0  0  0  0  0  0  0  0  0  0  0  0
   34.7325    1.7246    6.1960 H   0  0  0  0  0  0  0  0  0  0  0  0
   31.5332    0.6392    8.9293 N   0  0  0  0  0  0  0  0  0  0  0  0
   32.0444    0.3975   10.2952 C   0  0  0  0  0  0  0  0  0  0  0  0
   30.1004    0.0496    8.4432 S   0  0  0  0  0  0  0  0  0  0  0  0
   29.9967   -1.4444    8.6045 O   0  0  0  0  0  0  0  0  0  0  0  0
   29.0388    0.6481    9.3093 O   0  0  0  0  0  0  0  0  0  0  0  0
   29.8391    0.5927    6.6868 C   0  0  0  0  0  0  0  0  0  0  0  0
   29.0095    1.6649    6.4061 C   0  0  0  0  0  0  0  0  0  0  0  0
   28.8124    2.0959    5.1044 C   0  0  0  0  0  0  0  0  0  0  0  0
   29.4157    1.4165    4.0526 C   0  0  0  0  0  0  0  0  0  0  0  0
   30.2072    0.3191    4.3104 C   0  0  0  0  0  0  0  0  0  0  0  0
   30.4138   -0.0915    5.6266 C   0  0  0  0  0  0  0  0  0  0  0  0
   32.2515    5.2067    7.4923 C   0  0  0  0  0  0  0  0  0  0  0  0
   31.1153    5.1635    5.3002 C   0  0  0  0  0  0  0  0  0  0  0  0
   29.9849    5.4250    4.5044 C   0  0  0  0  0  0  0  0  0  0  0  0
   28.8440    5.9702    5.0833 C   0  0  0  0  0  0  0  0  0  0  0  0
   28.8312    6.2711    6.4468 C   0  0  0  0  0  0  0  0  0  0  0  0
   29.9635    6.0101    7.2197 C   0  0  0  0  0  0  0  0  0  0  0  0
   31.1278    5.4638    6.6705 C   0  0  0  0  0  0  0  0  0  0  0  0
 25 26  1  0  0  0
 25 30  2  0  0  0
 26 27  2  0  0  0
 27 28  1  0  0  0
 28 29  2  0  0  0
 29 30  1  0  0  0
 30 24  1  0  0  0
 24  1  1  0  0  0
  1  2  1  0  0  0
  1  4  1  0  0  0
  2  3  1  0  0  0
  2  9  2  0  0  0
  4  5  2  0  0  0
  4  6  1  0  0  0
  6  7  1  0  0  0
  7  8  2  0  0  0
  7  9  1  0  0  0
  9 13  1  0  0  0
 13 14  1  0  0  0
 13 15  1  0  0  0
 15 16  2  0  0  0
 15 17  2  0  0  0
 15 18  1  0  0  0
 18 19  1  0  0  0
 18 23  2  0  0  0
 19 20  2  0  0  0
 20 21  1  0  0  0
 21 22  2  0  0  0
 22 23  1  0  0  0
  3 10  1  0  0  0
  3 11  1  0  0  0
  6 12  1  0  0  0
M  END
> <minimizedAffinity>
0.00397

$$$$
4ASJ_N6A_A_1294


 30 32  0  0  0  0  0  0  0  0999 V2000
   33.1497    2.9513    8.0432 N   0  0  0  0  0  0  0  0  0  0  0  0
   32.7461    3.9820    8.8246 C   0  0  0  0  0  0  0  0  0  0  0  0
   32.6293    3.8855   10.1450 N   0  0  0  0  0  0  0  0  0  0  0  0
   33.2405    3.1181    6.7185 C   0  0  0  0  0  0  0  0  0  0  0  0
   33.6286    2.2041    6.0029 O   0  0  0  0  0  0  0  0  0  0  0  0
   32.8734    4.2890    6.0896 N   0  0  0  0  0  0  0  0  0  0  0  0
   32.4237    5.3551    6.8301 C   0  0  0  0  0  0  0  0  0  0  0  0
   32.1352    6.3824    6.2436 O   0  0  0  0  0  0  0  0  0  0  0  0
   32.3597    5.1917    8.2162 C   0  0  0  0  0  0  0  0  0  0  0  0
   32.8903    3.0539   10.6028 H   0  0  0  0  0  0  0  0  0  0  0  0
   32.2817    4.6456   10.6653 H   0  0  0  0  0  0  0  0  0  0  0  0
   32.9336    4.3611    5.1096 H   0  0  0  0  0  0  0  0  0  0  0  0
   32.0269    6.2428    8.9203 N   0  0  0  0  0  0  0  0  0  0  0  0
   30.5688    6.3434    9.1418 C   0  0  0  0  0  0  0  0  0  0  0  0
   33.0745    7.1848    9.7278 S   0  0  0  0  0  0  0  0  0  0  0  0
   32.8018    8.6547    9.5447 O   0  0  0  0  0  0  0  0  0  0  0  0
   32.9193    6.8995   11.1873 O   0  0  0  0  0  0  0  0  0  0  0  0
   34.7860    6.7087    9.1872 C   0  0  0  0  0  0  0  0  0  0  0  0
   35.5702    5.8998    9.9920 C   0  0  0  0  0  0  0  0  0  0  0  0
   36.8439    5.5205    9.6011 C   0  0  0  0  0  0  0  0  0  0  0  0
   37.3695    5.9944    8.4049 C   0  0  0  0  0  0  0  0  0  0  0  0
   36.6206    6.8376    7.6140 C   0  0  0  0  0  0  0  0  0  0  0  0
   35.3323    7.1948    8.0093 C   0  0  0  0  0  0  0  0  0  0  0  0
   33.5175    1.6467    8.6098 C   0  0  0  0  0  0  0  0  0  0  0  0
   35.9574    1.9742    8.4158 C   0  0  0  0  0  0  0  0  0  0  0  0
   37.2351    2.0176    9.0034 C   0  0  0  0  0  0  0  0  0  0  0  0
   37.3743    1.8012   10.3701 C   0  0  0  0  0  0  0  0  0  0  0  0
   36.2489    1.5254   11.1494 C   0  0  0  0  0  0  0  0  0  0  0  0
   34.9901    1.4808   10.5486 C   0  0  0  0  0  0  0  0  0  0  0  0
   34.8136    1.6923    9.1775 C   0  0  0  0  0  0  0  0  0  0  0  0
 25 26  1  0  0  0
 25 30  2  0  0  0
 26 27  2  0  0  0
 27 28  1  0  0  0
 28 29  2  0  0  0
 29 30  1  0  0  0
 30 24  1  0  0  0
 24  1  1  0  0  0
  1  2  1  0  0  0
  1  4  1  0  0  0
  2  3  1  0  0  0
  2  9  2  0  0  0
  4  5  2  0  0  0
  4  6  1  0  0  0
  6  7  1  0  0  0
  7  8  2  0  0  0
  7  9  1  0  0  0
  9 13  1  0  0  0
 13 14  1  0  0  0
 13 15  1  0  0  0
 15 16  2  0  0  0
 15 17  2  0  0  0
 15 18  1  0  0  0
 18 19  1  0  0  0
 18 23  2  0  0  0
 19 20  2  0  0  0
 20 21  1  0  0  0
 21 22  2  0  0  0
 22 23  1  0  0  0
  3 10  1  0  0  0
  3 11  1  0  0  0
  6 12  1  0  0  0
M  END
> <minimizedAffinity>
0.00447

$$$$
4ASJ_N6A_A_1294


 30 32  0  0  0  0  0  0  0  0999 V2000
   38.7329    0.0563   15.5174 N   0  0  0  0  0  0  0  0  0  0  0  0
   39.6287   -0.4944   14.6630 C   0  0  0  0  0  0  0  0  0  0  0  0
   40.3435   -1.5742   14.9621 N   0  0  0  0  0  0  0  0  0  0  0  0
   38.0504    1.1477   15.1515 C   0  0  0  0  0  0  0  0  0  0  0  0
   37.2191    1.6409   15.9024 O   0  0  0  0  0  0  0  0  0  0  0  0
   38.2652    1.7913   13.9511 N   0  0  0  0  0  0  0  0  0  0  0  0
   39.1872    1.2963   13.0612 C   0  0  0  0  0  0  0  0  0  0  0  0
   39.3301    1.8745   11.9992 O   0  0  0  0  0  0  0  0  0  0  0  0
   39.8764    0.1382   13.4297 C   0  0  0  0  0  0  0  0  0  0  0  0
   40.1960   -2.0411   15.8162 H   0  0  0  0  0  0  0  0  0  0  0  0
   41.0204   -1.9072   14.3296 H   0  0  0  0  0  0  0  0  0  0  0  0
   37.7575    2.6059   13.7317 H   0  0  0  0  0  0  0  0  0  0  0  0
   40.6779   -0.3820   12.5360 N   0  0  0  0  0  0  0  0  0  0  0  0
   42.0592    0.1345   12.6382 C   0  0  0  0  0  0  0  0  0  0  0  0
   40.3176   -1.6620   11.6039 S   0  0  0  0  0  0  0  0  0  0  0  0
   40.6985   -1.4611   10.1606 O   0  0  0  0  0  0  0  0  0  0  0  0
   41.1118   -2.8286   12.0976 O   0  0  0  0  0  0  0  0  0  0  0  0
   38.5073   -2.0167   11.8166 C   0  0  0  0  0  0  0  0  0  0  0  0
   38.0921   -3.0383   12.6535 C   0  0  0  0  0  0  0  0  0  0  0  0
   36.7464   -3.3102   12.8381 C   0  0  0  0  0  0  0  0  0  0  0  0
   35.7918   -2.5815   12.1383 C   0  0  0  0  0  0  0  0  0  0  0  0
   36.1891   -1.5922   11.2661 C   0  0  0  0  0  0  0  0  0  0  0  0
   37.5459   -1.3151   11.1054 C   0  0  0  0  0  0  0  0  0  0  0  0
   38.4651   -0.5242   16.8402 C   0  0  0  0  0  0  0  0  0  0  0  0
   36.2977   -1.5639   16.2749 C   0  0  0  0  0  0  0  0  0  0  0  0
   35.4790   -2.7035   16.1718 C   0  0  0  0  0  0  0  0  0  0  0  0
   35.9901   -3.9534   16.5045 C   0  0  0  0  0  0  0  0  0  0  0  0
   37.3067   -4.0696   16.9549 C   0  0  0  0  0  0  0  0  0  0  0  0
   38.1026   -2.9277   17.0562 C   0  0  0  0  0  0  0  0  0  0  0  0
   37.6210   -1.6556   16.7313 C   0  0  0  0  0  0  0  0  0  0  0  0
 25 26  1  0  0  0
 25 30  2  0  0  0
 26 27  2  0  0  0
 27 28  1  0  0  0
 28 29  2  0  0  0
 29 30  1  0  0  0
 30 24  1  0  0  0
 24  1  1  0  0  0
  1  2  1  0  0  0
  1  4  1  0  0  0
  2  3  1  0  0  0
  2  9  2  0  0  0
  4  5  2  0  0  0
  4  6  1  0  0  0
  6  7  1  0  0  0
  7  8  2  0  0  0
  7  9  1  0  0  0
  9 13  1  0  0  0
 13 14  1  0  0  0
 13 15  1  0  0  0
 15 16  2  0  0  0
 15 17  2  0  0  0
 15 18  1  0  0  0
 18 19  1  0  0  0
 18 23  2  0  0  0
 19 20  2  0  0  0
 20 21  1  0  0  0
 21 22  2  0  0  0
 22 23  1  0  0  0
  3 10  1  0  0  0
  3 11  1  0  0  0
  6 12  1  0  0  0
M  END
> <minimizedAffinity>
0.00463

$$$$
4ASJ_N6A_A_1294


 30 32  0  0  0  0  0  0  0  0999 V2000
   35.3782    9.8073   12.9307 N   0  0  0  0  0  0  0  0  0  0  0  0
   36.0706    8.7684   12.4043 C   0  0  0  0  0  0  0  0  0  0  0  0
   35.9308    7.5171   12.8295 N   0  0  0  0  0  0  0  0  0  0  0  0
   35.5726   11.0435   12.4564 C   0  0  0  0  0  0  0  0  0  0  0  0
   34.9354   11.9877   12.9042 O   0  0  0  0  0  0  0  0  0  0  0  0
   36.5088   11.3285   11.4849 N   0  0  0  0  0  0  0  0  0  0  0  0
   37.2637   10.3181   10.9406 C   0  0  0  0  0  0  0  0  0  0  0  0
   38.0606   10.6028   10.0651 O   0  0  0  0  0  0  0  0  0  0  0  0
   37.0377    9.0228   11.4130 C   0  0  0  0  0  0  0  0  0  0  0  0
   35.2640    7.3040   13.5217 H   0  0  0  0  0  0  0  0  0  0  0  0
   36.4941    6.8032   12.4522 H   0  0  0  0  0  0  0  0  0  0  0  0
   36.6361   12.2563   11.1813 H   0  0  0  0  0  0  0  0  0  0  0  0
   37.6883    8.0554   10.8192 N   0  0  0  0  0  0  0  0  0  0  0  0
   38.9872    7.7626   11.4613 C   0  0  0  0  0  0  0  0  0  0  0  0
   37.0547    7.0672    9.6972 S   0  0  0  0  0  0  0  0  0  0  0  0
   37.9652    6.8639    8.5146 O   0  0  0  0  0  0  0  0  0  0  0  0
   36.8611    5.7237   10.3240 O   0  0  0  0  0  0  0  0  0  0  0  0
   35.4031    7.7615    9.2090 C   0  0  0  0  0  0  0  0  0  0  0  0
   34.2395    7.2183    9.7265 C   0  0  0  0  0  0  0  0  0  0  0  0
   32.9979    7.7305    9.3873 C   0  0  0  0  0  0  0  0  0  0  0  0
   32.9071    8.7758    8.4758 C   0  0  0  0  0  0  0  0  0  0  0  0
   34.0522    9.2976    7.9157 C   0  0  0  0  0  0  0  0  0  0  0  0
   35.2966    8.7866    8.2816 C   0  0  0  0  0  0  0  0  0  0  0  0
   34.3920    9.6177   14.0031 C   0  0  0  0  0  0  0  0  0  0  0  0
   32.3753    9.8475   12.5967 C   0  0  0  0  0  0  0  0  0  0  0  0
   31.1717    9.3226   12.0912 C   0  0  0  0  0  0  0  0  0  0  0  0
   30.7707    8.0414   12.4543 C   0  0  0  0  0  0  0  0  0  0  0  0
   31.5548    7.2890   13.3311 C   0  0  0  0  0  0  0  0  0  0  0  0
   32.7427    7.8278   13.8270 C   0  0  0  0  0  0  0  0  0  0  0  0
   33.1755    9.1126   13.4840 C   0  0  0  0  0  0  0  0  0  0  0  0
 25 26  1  0  0  0
 25 30  2  0  0  0
 26 27  2  0  0  0
 27 28  1  0  0  0
 28 29  2  0  0  0
 29 30  1  0  0  0
 30 24  1  0  0  0
 24  1  1  0  0  0
  1  2  1  0  0  0
  1  4  1  0  0  0
  2  3  1  0  0  0
  2  9  2  0  0  0
  4  5  2  0  0  0
  4  6  1  0  0  0
  6  7  1  0  0  0
  7  8  2  0  0  0
  7  9  1  0  0  0
  9 13  1  0  0  0
 13 14  1  0  0  0
 13 15  1  0  0  0
 15 16  2  0  0  0
 15 17  2  0  0  0
 15 18  1  0  0  0
 18 19  1  0  0  0
 18 23  2  0  0  0
 19 20  2  0  0  0
 20 21  1  0  0  0
 21 22  2  0  0  0
 22 23  1  0  0  0
  3 10  1  0  0  0
  3 11  1  0  0  0
  6 12  1  0  0  0
M  END
> <minimizedAffinity>
0.00508

$$$$
4ASJ_N6A_A_1294


 30 32  0  0  0  0  0  0  0  0999 V2000
   30.7320    3.2377    9.9270 N   0  0  0  0  0  0  0  0  0  0  0  0
   30.5763    2.2005   10.7849 C   0  0  0  0  0  0  0  0  0  0  0  0
   31.2003    1.0370   10.6330 N   0  0  0  0  0  0  0  0  0  0  0  0
   30.0681    4.3802   10.1389 C   0  0  0  0  0  0  0  0  0  0  0  0
   30.2189    5.3344    9.3873 O   0  0  0  0  0  0  0  0  0  0  0  0
   29.1652    4.5355   11.1695 N   0  0  0  0  0  0  0  0  0  0  0  0
   28.9421    3.5040   12.0489 C   0  0  0  0  0  0  0  0  0  0  0  0
   28.1590    3.6865   12.9632 O   0  0  0  0  0  0  0  0  0  0  0  0
   29.6595    2.3223   11.8466 C   0  0  0  0  0  0  0  0  0  0  0  0
   31.8477    0.9175    9.9010 H   0  0  0  0  0  0  0  0  0  0  0  0
   31.0151    0.2946   11.2526 H   0  0  0  0  0  0  0  0  0  0  0  0
   28.6803    5.3857   11.2750 H   0  0  0  0  0  0  0  0  0  0  0  0
   29.5161    1.3828   12.7457 N   0  0  0  0  0  0  0  0  0  0  0  0
   28.4185    0.4465   12.4231 C   0  0  0  0  0  0  0  0  0  0  0  0
   30.5804    1.0663   13.9306 S   0  0  0  0  0  0  0  0  0  0  0  0
   29.9202    0.8372   15.2649 O   0  0  0  0  0  0  0  0  0  0  0  0
   31.2929   -0.2012   13.5826 O   0  0  0  0  0  0  0  0  0  0  0  0
   31.8008    2.4652   13.9744 C   0  0  0  0  0  0  0  0  0  0  0  0
   33.0553    2.3121   13.4092 C   0  0  0  0  0  0  0  0  0  0  0  0
   33.9754    3.3477   13.4177 C   0  0  0  0  0  0  0  0  0  0  0  0
   33.6597    4.5475   14.0441 C   0  0  0  0  0  0  0  0  0  0  0  0
   32.4332    4.7009   14.6520 C   0  0  0  0  0  0  0  0  0  0  0  0
   31.5087    3.6580   14.6182 C   0  0  0  0  0  0  0  0  0  0  0  0
   31.6335    3.1580    8.7697 C   0  0  0  0  0  0  0  0  0  0  0  0
   33.4460    4.4930    9.7849 C   0  0  0  0  0  0  0  0  0  0  0  0
   34.7902    4.6300   10.1776 C   0  0  0  0  0  0  0  0  0  0  0  0
   35.6784    3.5786    9.9780 C   0  0  0  0  0  0  0  0  0  0  0  0
   35.2369    2.3995    9.3741 C   0  0  0  0  0  0  0  0  0  0  0  0
   33.9014    2.2835    8.9860 C   0  0  0  0  0  0  0  0  0  0  0  0
   32.9817    3.3206    9.1703 C   0  0  0  0  0  0  0  0  0  0  0  0
 25 26  1  0  0  0
 25 30  2  0  0  0
 26 27  2  0  0  0
 27 28  1  0  0  0
 28 29  2  0  0  0
 29 30  1  0  0  0
 30 24  1  0  0  0
 24  1  1  0  0  0
  1  2  1  0  0  0
  1  4  1  0  0  0
  2  3  1  0  0  0
  2  9  2  0  0  0
  4  5  2  0  0  0
  4  6  1  0  0  0
  6  7  1  0  0  0
  7  8  2  0  0  0
  7  9  1  0  0  0
  9 13  1  0  0  0
 13 14  1  0  0  0
 13 15  1  0  0  0
 15 16  2  0  0  0
 15 17  2  0  0  0
 15 18  1  0  0  0
 18 19  1  0  0  0
 18 23  2  0  0  0
 19 20  2  0  0  0
 20 21  1  0  0  0
 21 22  2  0  0  0
 22 23  1  0  0  0
  3 10  1  0  0  0
  3 11  1  0  0  0
  6 12  1  0  0  0
M  END
> <minimizedAffinity>
0.00518

$$$$
