4ASJ_N6A_A_1294
  RCSB PDB12061711433D
Coordinates from PDB:4ASJ:A:1294 Model:1 without hydrogens
 27 29  0  0  0  0            999 V2000
   38.1180    5.5880   12.1920   C 0  0  0  0  0  0  0  0  0  0  0  0
   37.5080    6.5860   12.9740   C 0  0  0  0  0  0  0  0  0  0  0  0
   37.0900    7.7710   12.3780   C 0  0  0  0  0  0  0  0  0  0  0  0
   37.2620    7.9580   11.0050   C 0  0  0  0  0  0  0  0  0  0  0  0
   37.8640    6.9550   10.2440   C 0  0  0  0  0  0  0  0  0  0  0  0
   38.2950    5.7510   10.8100   C 0  0  0  0  0  0  0  0  0  0  0  0
   38.9090    4.7630   10.0030   C 0  0  0  0  0  0  0  0  0  0  0  0
   38.1210    3.5230   10.0060   N 0  0  0  0  0  0  0  0  0  0  0  0
   37.1590    3.2850    9.0820   C 0  0  0  0  0  0  0  0  0  0  0  0
   36.8410    4.1550    8.1290   N 0  0  0  0  0  0  0  0  0  0  0  0
   38.3860    2.6030   10.9410   C 0  0  0  0  0  0  0  0  0  0  0  0
   39.2700    2.7930   11.7660   O 0  0  0  0  0  0  0  0  0  0  0  0
   37.6700    1.4300   11.0540   N 0  0  0  0  0  0  0  0  0  0  0  0
   36.6600    1.1530   10.1650   C 0  0  0  0  0  0  0  0  0  0  0  0
   36.0680    0.0950   10.2780   O 0  0  0  0  0  0  0  0  0  0  0  0
   36.4050    2.0990    9.1690   C 0  0  0  0  0  0  0  0  0  0  0  0
   35.5110    1.7820    8.2680   N 0  0  0  0  0  0  0  0  0  0  0  0
   35.9810    0.7290    7.3430   C 0  0  0  0  0  0  0  0  0  0  0  0
   33.9550    2.2450    8.3060   S 0  0  0  0  0  0  0  0  0  0  0  0
   33.7890    3.7420    8.2950   O 0  0  0  0  0  0  0  0  0  0  0  0
   33.2920    1.7320    7.0680   O 0  0  0  0  0  0  0  0  0  0  0  0
   33.1730    1.4560    9.7940   C 0  0  0  0  0  0  0  0  0  0  0  0
   32.3670    0.3400    9.6470   C 0  0  0  0  0  0  0  0  0  0  0  0
   31.7860   -0.2730   10.7450   C 0  0  0  0  0  0  0  0  0  0  0  0
   31.9710    0.2630   12.0140   C 0  0  0  0  0  0  0  0  0  0  0  0
   32.7320    1.4000   12.1730   C 0  0  0  0  0  0  0  0  0  0  0  0
   33.3280    1.9950   11.0620   C 0  0  0  0  0  0  0  0  0  0  0  0
  1  2  1  0  0  0  0
  1  6  2  0  0  0  0
  2  3  2  0  0  0  0
  3  4  1  0  0  0  0
  4  5  2  0  0  0  0
  5  6  1  0  0  0  0
  6  7  1  0  0  0  0
  7  8  1  0  0  0  0
  8  9  1  0  0  0  0
  8 11  1  0  0  0  0
  9 10  1  0  0  0  0
  9 16  2  0  0  0  0
 11 12  2  0  0  0  0
 11 13  1  0  0  0  0
 13 14  1  0  0  0  0
 14 15  2  0  0  0  0
 14 16  1  0  0  0  0
 16 17  1  0  0  0  0
 17 18  1  0  0  0  0
 17 19  1  0  0  0  0
 19 20  2  0  0  0  0
 19 21  2  0  0  0  0
 19 22  1  0  0  0  0
 22 23  1  0  0  0  0
 22 27  2  0  0  0  0
 23 24  2  0  0  0  0
 24 25  1  0  0  0  0
 25 26  2  0  0  0  0
 26 27  1  0  0  0  0
A    1
CAW
A    2
CAX
A    3
CBA
A    4
CAZ
A    5
CAY
A    6
CAV
A    7
CAU
A    8
NAN
A    9
CAO
A   10
NAP
A   11
CAM
A   12
OAL
A   13
NAD
A   14
CAE
A   15
OAA
A   16
CAF
A   17
NAG
A   18
CAB
A   19
SAH
A   20
OAQ
A   21
OAC
A   22
CAI
A   23
CAJ
A   24
CAK
A   25
CAT
A   26
CAS
A   27
CAR
M  END
>  <InstanceId>
4ASJ_N6A_A_1294

>  <ChemCompId>
N6A

>  <PdbId>
4ASJ

>  <ChainId>
A

>  <ResidueNumber>
1294

>  <InsertionCode>


>  <Model>
1

>  <AltIds>


>  <MissingHeavyAtoms>
0

>  <ObservedFormula>
C18 N4 O4 S

>  <Name>
N-(6-amino-1-benzyl-2,4-dioxo-1,2,3,4-tetrahydropyrimidin-5-yl)-N-methylbenzenesulfonamide

>  <SystematicName>
N-[6-azanyl-2,4-bis(oxidanylidene)-1-(phenylmethyl)pyrimidin-5-yl]-N-methyl-benzenesulfonamide

>  <Synonyms>


>  <Type>
non-polymer

>  <Formula>
C18 H18 N4 O4 S

>  <MolecularWeight>
386.425

>  <ModifiedDate>
2014-09-05

>  <Parent>


>  <OneLetterCode>


>  <SubcomponentList>


>  <AmbiguousFlag>
N

>  <InChI>
InChI=1S/C18H18N4O4S/c1-21(27(25,26)14-10-6-3-7-11-14)15-16(19)22(18(24)20-17(15)23)12-13-8-4-2-5-9-13/h2-11H,12,19H2,1H3,(H,20,23,24)

>  <InChIKey>
NTXAKLDOOQBMCR-UHFFFAOYSA-N

>  <SMILES>
CN(C1=C(N(C(=O)NC1=O)Cc2ccccc2)N)S(=O)(=O)c3ccccc3

$$$$
