1TJP_HPF_A_1001


 24 24  0  0  0  0  0  0  0  0999 V2000
   48.8431   28.1194   13.8690 C   0  0  0  0  0  0  0  0  0  0  0  0
   49.6568   29.2732   13.6808 O   0  0  0  0  0  0  0  0  0  0  0  0
   49.4594   29.9243   14.3722 H   0  0  0  0  0  0  0  0  0  0  0  0
   47.3580   28.4778   13.7026 C   0  0  0  0  0  0  0  0  0  0  0  0
   46.6998   27.5109   14.5723 O   0  0  0  0  0  0  0  0  0  0  0  0
   46.9245   26.6121   14.2850 H   0  0  0  0  0  0  0  0  0  0  0  0
   46.8514   28.2630   12.2994 C   0  0  0  0  0  0  0  0  0  0  0  0
   48.0317   28.0983   11.4445 O   0  0  0  0  0  0  0  0  0  0  0  0
   48.2220   29.1953   10.2752 P   0  0  0  0  0  0  0  0  0  0  0  0
   48.7237   28.3904    8.9673 O   0  0  0  0  0  0  0  0  0  0  0  0
   46.8019   29.9601   10.0026 O   0  0  0  0  0  0  0  0  0  0  0  0
   49.2723   30.0766   10.8523 O   0  0  0  0  0  0  0  0  0  0  0  0
   48.0027   27.8339    8.6338 H   0  0  0  0  0  0  0  0  0  0  0  0
   46.1636   29.3330    9.6282 H   0  0  0  0  0  0  0  0  0  0  0  0
   49.1734   27.4779   15.1650 N   0  0  0  0  0  0  0  0  0  0  0  0
   48.7973   27.8098   16.0122 H   0  0  0  0  0  0  0  0  0  0  0  0
   52.3706   25.4605   15.1420 C   0  0  0  0  0  0  0  0  0  0  0  0
   51.9039   24.0856   15.0589 C   0  0  0  0  0  0  0  0  0  0  0  0
   50.4683   23.9482   15.0299 C   0  0  0  0  0  0  0  0  0  0  0  0
   49.5497   25.0281   15.0579 C   0  0  0  0  0  0  0  0  0  0  0  0
   50.0866   26.3250   15.1312 C   0  0  0  0  0  0  0  0  0  0  0  0
   51.4523   26.5449   15.1802 C   0  0  0  0  0  0  0  0  0  0  0  0
   51.9311   27.8195   15.2641 O   0  0  0  0  0  0  0  0  0  0  0  0
   52.8550   27.9716   15.2975 H   0  0  0  0  0  0  0  0  0  0  0  0
 17 18  2  0  0  0
 17 22  1  0  0  0
 18 19  1  0  0  0
 19 20  2  0  0  0
 20 21  1  0  0  0
 21 22  2  0  0  0
 21 15  1  0  0  0
 22 23  1  0  0  0
 15  1  1  0  0  0
  1  4  1  0  0  0
  1  2  1  0  0  0
  4  7  1  0  0  0
  4  5  1  0  0  0
  7  8  1  0  0  0
  8  9  1  0  0  0
  9 10  1  0  0  0
  9 11  1  0  0  0
  9 12  2  0  0  0
 23 24  1  0  0  0
 15 16  1  0  0  0
 10 13  1  0  0  0
 11 14  1  0  0  0
  2  3  1  0  0  0
  5  6  1  0  0  0
M  END
> <minimizedAffinity>
-8.91567

$$$$
1TJP_HPF_A_1001


 24 24  0  0  0  0  0  0  0  0999 V2000
   47.4973   28.7481   13.6086 C   0  0  0  0  0  0  0  0  0  0  0  0
   46.5966   29.2816   14.5744 O   0  0  0  0  0  0  0  0  0  0  0  0
   45.7977   28.7325   14.6096 H   0  0  0  0  0  0  0  0  0  0  0  0
   46.8767   28.8117   12.2041 C   0  0  0  0  0  0  0  0  0  0  0  0
   46.0996   27.5801   12.1454 O   0  0  0  0  0  0  0  0  0  0  0  0
   46.6866   26.8205   12.2845 H   0  0  0  0  0  0  0  0  0  0  0  0
   47.9034   28.7681   11.1015 C   0  0  0  0  0  0  0  0  0  0  0  0
   47.9247   30.1014   10.4907 O   0  0  0  0  0  0  0  0  0  0  0  0
   47.0294   30.2890    9.1603 P   0  0  0  0  0  0  0  0  0  0  0  0
   46.4125   31.7806    9.2282 O   0  0  0  0  0  0  0  0  0  0  0  0
   47.9657   30.0852    7.8345 O   0  0  0  0  0  0  0  0  0  0  0  0
   46.0014   29.2277    9.3328 O   0  0  0  0  0  0  0  0  0  0  0  0
   47.1232   32.4301    9.1104 H   0  0  0  0  0  0  0  0  0  0  0  0
   48.6117   30.8068    7.7808 H   0  0  0  0  0  0  0  0  0  0  0  0
   47.9309   27.3911   14.0220 N   0  0  0  0  0  0  0  0  0  0  0  0
   47.3199   26.6207   13.9745 H   0  0  0  0  0  0  0  0  0  0  0  0
   51.1613   25.7882   15.1568 C   0  0  0  0  0  0  0  0  0  0  0  0
   52.0161   26.9251   15.4605 C   0  0  0  0  0  0  0  0  0  0  0  0
   51.3988   28.2083   15.2304 C   0  0  0  0  0  0  0  0  0  0  0  0
   50.0719   28.3985   14.7680 C   0  0  0  0  0  0  0  0  0  0  0  0
   49.3125   27.2451   14.5058 C   0  0  0  0  0  0  0  0  0  0  0  0
   49.8340   25.9752   14.6837 C   0  0  0  0  0  0  0  0  0  0  0  0
   49.0669   24.8823   14.4049 O   0  0  0  0  0  0  0  0  0  0  0  0
   49.4170   24.0214   14.5242 H   0  0  0  0  0  0  0  0  0  0  0  0
 17 18  2  0  0  0
 17 22  1  0  0  0
 18 19  1  0  0  0
 19 20  2  0  0  0
 20 21  1  0  0  0
 21 22  2  0  0  0
 21 15  1  0  0  0
 22 23  1  0  0  0
 15  1  1  0  0  0
  1  4  1  0  0  0
  1  2  1  0  0  0
  4  7  1  0  0  0
  4  5  1  0  0  0
  7  8  1  0  0  0
  8  9  1  0  0  0
  9 10  1  0  0  0
  9 11  1  0  0  0
  9 12  2  0  0  0
 23 24  1  0  0  0
 15 16  1  0  0  0
 10 13  1  0  0  0
 11 14  1  0  0  0
  2  3  1  0  0  0
  5  6  1  0  0  0
M  END
> <minimizedAffinity>
-8.07290

$$$$
1TJP_HPF_A_1001


 24 24  0  0  0  0  0  0  0  0999 V2000
   49.6936   28.0966   14.0626 C   0  0  0  0  0  0  0  0  0  0  0  0
   50.4976   29.1334   14.6171 O   0  0  0  0  0  0  0  0  0  0  0  0
   49.9868   29.6162   15.2856 H   0  0  0  0  0  0  0  0  0  0  0  0
   48.4849   28.6924   13.3239 C   0  0  0  0  0  0  0  0  0  0  0  0
   47.3999   27.8062   13.7261 O   0  0  0  0  0  0  0  0  0  0  0  0
   47.6128   26.8961   13.4667 H   0  0  0  0  0  0  0  0  0  0  0  0
   48.6140   28.6201   11.8240 C   0  0  0  0  0  0  0  0  0  0  0  0
   47.9576   29.8158   11.2851 O   0  0  0  0  0  0  0  0  0  0  0  0
   47.2692   29.6564    9.8334 P   0  0  0  0  0  0  0  0  0  0  0  0
   48.2990   28.8023    8.9278 O   0  0  0  0  0  0  0  0  0  0  0  0
   45.8299   28.8945    9.9882 O   0  0  0  0  0  0  0  0  0  0  0  0
   47.1495   31.0732    9.3958 O   0  0  0  0  0  0  0  0  0  0  0  0
   48.3382   27.8903    9.2558 H   0  0  0  0  0  0  0  0  0  0  0  0
   45.9776   27.9796   10.2746 H   0  0  0  0  0  0  0  0  0  0  0  0
   49.3397   27.1165   15.1183 N   0  0  0  0  0  0  0  0  0  0  0  0
   48.6535   27.3170   15.7951 H   0  0  0  0  0  0  0  0  0  0  0  0
   52.1749   24.6157   15.1005 C   0  0  0  0  0  0  0  0  0  0  0  0
   51.4940   23.3306   15.0901 C   0  0  0  0  0  0  0  0  0  0  0  0
   50.0547   23.4228   15.1045 C   0  0  0  0  0  0  0  0  0  0  0  0
   49.3199   24.6357   15.1090 C   0  0  0  0  0  0  0  0  0  0  0  0
   50.0574   25.8323   15.1113 C   0  0  0  0  0  0  0  0  0  0  0  0
   51.4416   25.8333   15.1150 C   0  0  0  0  0  0  0  0  0  0  0  0
   52.1185   27.0175   15.1304 O   0  0  0  0  0  0  0  0  0  0  0  0
   53.0555   27.0215   15.1330 H   0  0  0  0  0  0  0  0  0  0  0  0
 17 18  2  0  0  0
 17 22  1  0  0  0
 18 19  1  0  0  0
 19 20  2  0  0  0
 20 21  1  0  0  0
 21 22  2  0  0  0
 21 15  1  0  0  0
 22 23  1  0  0  0
 15  1  1  0  0  0
  1  4  1  0  0  0
  1  2  1  0  0  0
  4  7  1  0  0  0
  4  5  1  0  0  0
  7  8  1  0  0  0
  8  9  1  0  0  0
  9 10  1  0  0  0
  9 11  1  0  0  0
  9 12  2  0  0  0
 23 24  1  0  0  0
 15 16  1  0  0  0
 10 13  1  0  0  0
 11 14  1  0  0  0
  2  3  1  0  0  0
  5  6  1  0  0  0
M  END
> <minimizedAffinity>
-7.66886

$$$$
1TJP_HPF_A_1001


 24 24  0  0  0  0  0  0  0  0999 V2000
   49.1097   28.2062   13.9343 C   0  0  0  0  0  0  0  0  0  0  0  0
   49.7820   29.4224   13.6219 O   0  0  0  0  0  0  0  0  0  0  0  0
   49.5655   30.0922   14.2893 H   0  0  0  0  0  0  0  0  0  0  0  0
   47.5871   28.4013   13.8610 C   0  0  0  0  0  0  0  0  0  0  0  0
   47.0902   27.3429   14.7312 O   0  0  0  0  0  0  0  0  0  0  0  0
   47.3952   26.4832   14.4014 H   0  0  0  0  0  0  0  0  0  0  0  0
   47.0271   28.1710   12.4807 C   0  0  0  0  0  0  0  0  0  0  0  0
   47.2778   29.3954   11.7132 O   0  0  0  0  0  0  0  0  0  0  0  0
   48.1359   29.2217   10.3566 P   0  0  0  0  0  0  0  0  0  0  0  0
   48.4432   27.6427   10.2063 O   0  0  0  0  0  0  0  0  0  0  0  0
   47.2768   29.7908    9.0862 O   0  0  0  0  0  0  0  0  0  0  0  0
   49.3519   30.0229   10.6606 O   0  0  0  0  0  0  0  0  0  0  0  0
   47.6192   27.1703   10.0093 H   0  0  0  0  0  0  0  0  0  0  0  0
   46.5011   29.2266    8.9416 H   0  0  0  0  0  0  0  0  0  0  0  0
   49.5949   27.6839   15.2350 N   0  0  0  0  0  0  0  0  0  0  0  0
   49.3285   28.1002   16.0865 H   0  0  0  0  0  0  0  0  0  0  0  0
   50.7714   24.0929   15.1208 C   0  0  0  0  0  0  0  0  0  0  0  0
   52.2210   24.2099   15.1357 C   0  0  0  0  0  0  0  0  0  0  0  0
   52.7052   25.5682   15.1713 C   0  0  0  0  0  0  0  0  0  0  0  0
   51.8815   26.7218   15.2092 C   0  0  0  0  0  0  0  0  0  0  0  0
   50.4909   26.5176   15.1992 C   0  0  0  0  0  0  0  0  0  0  0  0
   49.9428   25.2476   15.1486 C   0  0  0  0  0  0  0  0  0  0  0  0
   48.5875   25.0945   15.1275 O   0  0  0  0  0  0  0  0  0  0  0  0
   48.2134   24.2361   15.0933 H   0  0  0  0  0  0  0  0  0  0  0  0
 17 18  2  0  0  0
 17 22  1  0  0  0
 18 19  1  0  0  0
 19 20  2  0  0  0
 20 21  1  0  0  0
 21 22  2  0  0  0
 21 15  1  0  0  0
 22 23  1  0  0  0
 15  1  1  0  0  0
  1  4  1  0  0  0
  1  2  1  0  0  0
  4  7  1  0  0  0
  4  5  1  0  0  0
  7  8  1  0  0  0
  8  9  1  0  0  0
  9 10  1  0  0  0
  9 11  1  0  0  0
  9 12  2  0  0  0
 23 24  1  0  0  0
 15 16  1  0  0  0
 10 13  1  0  0  0
 11 14  1  0  0  0
  2  3  1  0  0  0
  5  6  1  0  0  0
M  END
> <minimizedAffinity>
-7.58030

$$$$
1TJP_HPF_A_1001


 24 24  0  0  0  0  0  0  0  0999 V2000
   48.0819   27.9873   14.0513 C   0  0  0  0  0  0  0  0  0  0  0  0
   47.7204   29.3627   13.9716 O   0  0  0  0  0  0  0  0  0  0  0  0
   48.4366   29.8612   13.5481 H   0  0  0  0  0  0  0  0  0  0  0  0
   49.3138   27.8081   14.9525 C   0  0  0  0  0  0  0  0  0  0  0  0
   50.2642   28.7538   14.3809 O   0  0  0  0  0  0  0  0  0  0  0  0
   50.4199   28.5326   13.4494 H   0  0  0  0  0  0  0  0  0  0  0  0
   49.9167   26.4296   14.8627 C   0  0  0  0  0  0  0  0  0  0  0  0
   51.3454   26.5729   15.1615 O   0  0  0  0  0  0  0  0  0  0  0  0
   52.2513   25.2525   14.9551 P   0  0  0  0  0  0  0  0  0  0  0  0
   52.6206   25.1896   13.3836 O   0  0  0  0  0  0  0  0  0  0  0  0
   53.5934   25.3559   15.8846 O   0  0  0  0  0  0  0  0  0  0  0  0
   51.3173   24.1735   15.3750 O   0  0  0  0  0  0  0  0  0  0  0  0
   53.2296   25.9124   13.1654 H   0  0  0  0  0  0  0  0  0  0  0  0
   54.1573   26.0751   15.5594 H   0  0  0  0  0  0  0  0  0  0  0  0
   48.2398   27.4295   12.6859 N   0  0  0  0  0  0  0  0  0  0  0  0
   48.6131   26.5305   12.5391 H   0  0  0  0  0  0  0  0  0  0  0  0
   46.0085   29.2558   10.2408 C   0  0  0  0  0  0  0  0  0  0  0  0
   46.9497   29.9249    9.3567 C   0  0  0  0  0  0  0  0  0  0  0  0
   48.3355   29.7009    9.6882 C   0  0  0  0  0  0  0  0  0  0  0  0
   48.7923   28.8923   10.7598 C   0  0  0  0  0  0  0  0  0  0  0  0
   47.8150   28.2764   11.5605 C   0  0  0  0  0  0  0  0  0  0  0  0
   46.4629   28.4525   11.3219 C   0  0  0  0  0  0  0  0  0  0  0  0
   45.5472   27.8468   12.1314 O   0  0  0  0  0  0  0  0  0  0  0  0
   44.6312   27.9640   11.9725 H   0  0  0  0  0  0  0  0  0  0  0  0
 17 18  2  0  0  0
 17 22  1  0  0  0
 18 19  1  0  0  0
 19 20  2  0  0  0
 20 21  1  0  0  0
 21 22  2  0  0  0
 21 15  1  0  0  0
 22 23  1  0  0  0
 15  1  1  0  0  0
  1  4  1  0  0  0
  1  2  1  0  0  0
  4  7  1  0  0  0
  4  5  1  0  0  0
  7  8  1  0  0  0
  8  9  1  0  0  0
  9 10  1  0  0  0
  9 11  1  0  0  0
  9 12  2  0  0  0
 23 24  1  0  0  0
 15 16  1  0  0  0
 10 13  1  0  0  0
 11 14  1  0  0  0
  2  3  1  0  0  0
  5  6  1  0  0  0
M  END
> <minimizedAffinity>
-6.25568

$$$$
1TJP_HPF_A_1001


 24 24  0  0  0  0  0  0  0  0999 V2000
   49.7989   27.1267   14.6441 C   0  0  0  0  0  0  0  0  0  0  0  0
   48.7868   26.3465   15.2731 O   0  0  0  0  0  0  0  0  0  0  0  0
   48.5628   26.7389   16.1314 H   0  0  0  0  0  0  0  0  0  0  0  0
   51.0919   27.0975   15.4742 C   0  0  0  0  0  0  0  0  0  0  0  0
   51.7425   28.3441   15.0905 O   0  0  0  0  0  0  0  0  0  0  0  0
   51.8881   28.3510   14.1316 H   0  0  0  0  0  0  0  0  0  0  0  0
   52.0080   25.9599   15.1021 C   0  0  0  0  0  0  0  0  0  0  0  0
   51.2203   25.0340   14.2817 O   0  0  0  0  0  0  0  0  0  0  0  0
   50.9533   23.5730   14.9150 P   0  0  0  0  0  0  0  0  0  0  0  0
   49.3506   23.4134   15.0425 O   0  0  0  0  0  0  0  0  0  0  0  0
   51.5963   22.4261   13.9418 O   0  0  0  0  0  0  0  0  0  0  0  0
   51.6318   23.6842   16.2342 O   0  0  0  0  0  0  0  0  0  0  0  0
   48.9610   23.3455   14.1568 H   0  0  0  0  0  0  0  0  0  0  0  0
   51.1109   22.4052   13.1023 H   0  0  0  0  0  0  0  0  0  0  0  0
   49.2831   28.4898   14.3678 N   0  0  0  0  0  0  0  0  0  0  0  0
   49.4476   29.2361   14.9885 H   0  0  0  0  0  0  0  0  0  0  0  0
   46.4074   28.4607   11.9138 C   0  0  0  0  0  0  0  0  0  0  0  0
   46.9849   29.0316   10.7073 C   0  0  0  0  0  0  0  0  0  0  0  0
   48.3703   29.4118   10.8364 C   0  0  0  0  0  0  0  0  0  0  0  0
   49.1506   29.2463   12.0088 C   0  0  0  0  0  0  0  0  0  0  0  0
   48.5155   28.6795   13.1273 C   0  0  0  0  0  0  0  0  0  0  0  0
   47.1840   28.3025   13.0938 C   0  0  0  0  0  0  0  0  0  0  0  0
   46.6028   27.7681   14.2062 O   0  0  0  0  0  0  0  0  0  0  0  0
   45.7017   27.5119   14.1867 H   0  0  0  0  0  0  0  0  0  0  0  0
 17 18  2  0  0  0
 17 22  1  0  0  0
 18 19  1  0  0  0
 19 20  2  0  0  0
 20 21  1  0  0  0
 21 22  2  0  0  0
 21 15  1  0  0  0
 22 23  1  0  0  0
 15  1  1  0  0  0
  1  4  1  0  0  0
  1  2  1  0  0  0
  4  7  1  0  0  0
  4  5  1  0  0  0
  7  8  1  0  0  0
  8  9  1  0  0  0
  9 10  1  0  0  0
  9 11  1  0  0  0
  9 12  2  0  0  0
 23 24  1  0  0  0
 15 16  1  0  0  0
 10 13  1  0  0  0
 11 14  1  0  0  0
  2  3  1  0  0  0
  5  6  1  0  0  0
M  END
> <minimizedAffinity>
-6.17986

$$$$
1TJP_HPF_A_1001


 24 24  0  0  0  0  0  0  0  0999 V2000
   48.4803   27.6006   13.9958 C   0  0  0  0  0  0  0  0  0  0  0  0
   48.0803   28.4088   15.0983 O   0  0  0  0  0  0  0  0  0  0  0  0
   48.8440   28.9084   15.4269 H   0  0  0  0  0  0  0  0  0  0  0  0
   49.5109   26.5529   14.4451 C   0  0  0  0  0  0  0  0  0  0  0  0
   48.9306   26.0490   15.6835 O   0  0  0  0  0  0  0  0  0  0  0  0
   48.8140   26.7823   16.3077 H   0  0  0  0  0  0  0  0  0  0  0  0
   50.8568   27.1486   14.7695 C   0  0  0  0  0  0  0  0  0  0  0  0
   51.5211   26.2173   15.6874 O   0  0  0  0  0  0  0  0  0  0  0  0
   52.4637   25.0975   15.0060 P   0  0  0  0  0  0  0  0  0  0  0  0
   51.7295   23.6769   15.2363 O   0  0  0  0  0  0  0  0  0  0  0  0
   52.6478   25.4283   13.4146 O   0  0  0  0  0  0  0  0  0  0  0  0
   53.7187   25.2360   15.7927 O   0  0  0  0  0  0  0  0  0  0  0  0
   50.9207   23.6406   14.7020 H   0  0  0  0  0  0  0  0  0  0  0  0
   51.7972   25.3199   12.9613 H   0  0  0  0  0  0  0  0  0  0  0  0
   48.9367   28.4643   12.8795 N   0  0  0  0  0  0  0  0  0  0  0  0
   49.8592   28.8058   12.8393 H   0  0  0  0  0  0  0  0  0  0  0  0
   47.4512   29.8107    9.6743 C   0  0  0  0  0  0  0  0  0  0  0  0
   46.0464   29.4473    9.7723 C   0  0  0  0  0  0  0  0  0  0  0  0
   45.7035   28.7261   10.9735 C   0  0  0  0  0  0  0  0  0  0  0  0
   46.6152   28.3931   12.0074 C   0  0  0  0  0  0  0  0  0  0  0  0
   47.9528   28.7890   11.8351 C   0  0  0  0  0  0  0  0  0  0  0  0
   48.3697   29.4697   10.7042 C   0  0  0  0  0  0  0  0  0  0  0  0
   49.6803   29.8240   10.5709 O   0  0  0  0  0  0  0  0  0  0  0  0
   49.9656   30.2849    9.8066 H   0  0  0  0  0  0  0  0  0  0  0  0
 17 18  2  0  0  0
 17 22  1  0  0  0
 18 19  1  0  0  0
 19 20  2  0  0  0
 20 21  1  0  0  0
 21 22  2  0  0  0
 21 15  1  0  0  0
 22 23  1  0  0  0
 15  1  1  0  0  0
  1  4  1  0  0  0
  1  2  1  0  0  0
  4  7  1  0  0  0
  4  5  1  0  0  0
  7  8  1  0  0  0
  8  9  1  0  0  0
  9 10  1  0  0  0
  9 11  1  0  0  0
  9 12  2  0  0  0
 23 24  1  0  0  0
 15 16  1  0  0  0
 10 13  1  0  0  0
 11 14  1  0  0  0
  2  3  1  0  0  0
  5  6  1  0  0  0
M  END
> <minimizedAffinity>
-5.91718

$$$$
