5D26_L28_A_201


 34 35  0  0  0  0  0  0  0  0999 V2000
    4.1489   57.5818   20.9136 C   0  0  0  0  0  0  0  0  0  0  0  0
    4.1638   56.6599   21.8781 N   0  0  0  0  0  0  0  0  0  0  0  0
    3.5115   57.4349   19.8937 O   0  0  0  0  0  0  0  0  0  0  0  0
    4.8397   56.7659   22.5859 H   0  0  0  0  0  0  0  0  0  0  0  0
    1.4636   54.6375   23.2239 C   0  0  0  0  0  0  0  0  0  0  0  0
    1.4542   53.5123   22.4106 C   0  0  0  0  0  0  0  0  0  0  0  0
    3.3040   54.4285   21.1566 C   0  0  0  0  0  0  0  0  0  0  0  0
    3.3226   55.5744   21.9763 C   0  0  0  0  0  0  0  0  0  0  0  0
    2.3836   55.6607   22.9975 C   0  0  0  0  0  0  0  0  0  0  0  0
    2.3780   53.3795   21.3756 C   0  0  0  0  0  0  0  0  0  0  0  0
    2.3782   56.7634   23.7937 O   0  0  0  0  0  0  0  0  0  0  0  0
    2.9953   57.4525   23.6439 H   0  0  0  0  0  0  0  0  0  0  0  0
    1.8629   50.9889   21.2851 O   0  0  0  0  0  0  0  0  0  0  0  0
    3.6553   51.7515   20.0034 O   0  0  0  0  0  0  0  0  0  0  0  0
    2.3284   52.0539   20.4438 S   0  0  0  0  0  0  0  0  0  0  0  0
    1.3980   52.2681   19.2403 N   0  0  0  0  0  0  0  0  0  0  0  0
    1.4455   50.5748   17.4328 C   0  0  0  0  0  0  0  0  0  0  0  0
    0.6991   51.1360   18.6275 C   0  0  0  0  0  0  0  0  0  0  0  0
   -0.3222   53.9532   18.9031 C   0  0  0  0  0  0  0  0  0  0  0  0
    1.1449   53.6151   18.7281 C   0  0  0  0  0  0  0  0  0  0  0  0
    5.3957   61.0361   21.5515 C   0  0  0  0  0  0  0  0  0  0  0  0
    4.4129   60.0757   21.8257 C   0  0  0  0  0  0  0  0  0  0  0  0
    4.8622   58.8913   21.0247 C   0  0  0  0  0  0  0  0  0  0  0  0
    6.3746   60.4394   20.6104 C   0  0  0  0  0  0  0  0  0  0  0  0
    7.6066   61.0740   20.0185 C   0  0  0  0  0  0  0  0  0  0  0  0
    5.9747   59.1936   20.3468 N   0  0  0  0  0  0  0  0  0  0  0  0
    6.4379   58.5780   19.7338 H   0  0  0  0  0  0  0  0  0  0  0  0
    5.5351   62.4392   22.0637 C   0  0  0  0  0  0  0  0  0  0  0  0
    5.8632   63.3371   21.3010 O   0  0  0  0  0  0  0  0  0  0  0  0
    5.3154   62.7654   23.4194 N   0  0  0  0  0  0  0  0  0  0  0  0
    5.4150   63.6962   23.7241 H   0  0  0  0  0  0  0  0  0  0  0  0
    5.0627   62.0620   24.0602 H   0  0  0  0  0  0  0  0  0  0  0  0
    3.5674   59.8433   24.1613 C   0  0  0  0  0  0  0  0  0  0  0  0
    3.1978   60.1833   22.7261 C   0  0  0  0  0  0  0  0  0  0  0  0
 17 18  1  0  0  0
 25 24  1  0  0  0
 13 15  2  0  0  0
 26 24  1  0  0  0
 26 23  1  0  0  0
 24 21  2  0  0  0
 18 16  1  0  0  0
  3  1  2  0  0  0
 29 28  2  0  0  0
 16 15  1  0  0  0
 16 20  1  0  0  0
 15 14  2  0  0  0
 15 10  1  0  0  0
 23  1  1  0  0  0
 23 22  2  0  0  0
 21 28  1  0  0  0
 21 22  1  0  0  0
  1  2  1  0  0  0
 28 30  1  0  0  0
  7 10  2  0  0  0
  7  8  1  0  0  0
 22 34  1  0  0  0
 20 19  1  0  0  0
 10  6  1  0  0  0
  2  8  1  0  0  0
  8  9  2  0  0  0
 34 33  1  0  0  0
  6  5  2  0  0  0
  9  5  1  0  0  0
  9 11  1  0  0  0
 26 27  1  0  0  0
  2  4  1  0  0  0
 11 12  1  0  0  0
 30 31  1  0  0  0
 30 32  1  0  0  0
M  END
> <minimizedAffinity>
-7.62138

$$$$
5D26_L28_A_201


 34 35  0  0  0  0  0  0  0  0999 V2000
    4.0988   57.5059   20.9794 C   0  0  0  0  0  0  0  0  0  0  0  0
    4.0379   56.6519   22.0027 N   0  0  0  0  0  0  0  0  0  0  0  0
    3.5159   57.3025   19.9369 O   0  0  0  0  0  0  0  0  0  0  0  0
    4.6758   56.7924   22.7394 H   0  0  0  0  0  0  0  0  0  0  0  0
    1.3831   54.6645   23.4842 C   0  0  0  0  0  0  0  0  0  0  0  0
    1.2634   53.5787   22.6274 C   0  0  0  0  0  0  0  0  0  0  0  0
    3.0367   54.4868   21.2620 C   0  0  0  0  0  0  0  0  0  0  0  0
    3.1669   55.5927   22.1253 C   0  0  0  0  0  0  0  0  0  0  0  0
    2.3197   55.6647   23.2248 C   0  0  0  0  0  0  0  0  0  0  0  0
    2.0925   53.4615   21.5134 C   0  0  0  0  0  0  0  0  0  0  0  0
    2.4224   56.7294   24.0650 O   0  0  0  0  0  0  0  0  0  0  0  0
    3.0508   57.4028   23.8931 H   0  0  0  0  0  0  0  0  0  0  0  0
    2.1939   52.6514   19.2064 O   0  0  0  0  0  0  0  0  0  0  0  0
    0.5559   51.7413   20.5942 O   0  0  0  0  0  0  0  0  0  0  0  0
    1.9153   52.1823   20.5335 S   0  0  0  0  0  0  0  0  0  0  0  0
    2.8675   51.0477   20.9408 N   0  0  0  0  0  0  0  0  0  0  0  0
    4.6323   49.7191   19.8196 C   0  0  0  0  0  0  0  0  0  0  0  0
    4.2553   51.0348   20.4724 C   0  0  0  0  0  0  0  0  0  0  0  0
    3.0429   50.2188   23.2198 C   0  0  0  0  0  0  0  0  0  0  0  0
    2.4213   49.9965   21.8555 C   0  0  0  0  0  0  0  0  0  0  0  0
    5.4122   60.9555   21.4983 C   0  0  0  0  0  0  0  0  0  0  0  0
    4.4156   60.0215   21.8116 C   0  0  0  0  0  0  0  0  0  0  0  0
    4.8360   58.8053   21.0431 C   0  0  0  0  0  0  0  0  0  0  0  0
    6.3708   60.3129   20.5666 C   0  0  0  0  0  0  0  0  0  0  0  0
    7.6075   60.9071   19.9434 C   0  0  0  0  0  0  0  0  0  0  0  0
    5.9466   59.0669   20.3454 N   0  0  0  0  0  0  0  0  0  0  0  0
    6.3926   58.4247   19.7473 H   0  0  0  0  0  0  0  0  0  0  0  0
    5.5812   62.3710   21.9656 C   0  0  0  0  0  0  0  0  0  0  0  0
    5.9547   63.2317   21.1813 O   0  0  0  0  0  0  0  0  0  0  0  0
    5.3385   62.7506   23.3034 N   0  0  0  0  0  0  0  0  0  0  0  0
    5.4587   63.6882   23.5785 H   0  0  0  0  0  0  0  0  0  0  0  0
    5.0492   62.0777   23.9612 H   0  0  0  0  0  0  0  0  0  0  0  0
    3.5822   59.8434   24.1562 C   0  0  0  0  0  0  0  0  0  0  0  0
    3.2119   60.1783   22.7200 C   0  0  0  0  0  0  0  0  0  0  0  0
 17 18  1  0  0  0
 25 24  1  0  0  0
 13 15  2  0  0  0
 26 24  1  0  0  0
 26 23  1  0  0  0
 24 21  2  0  0  0
 18 16  1  0  0  0
  3  1  2  0  0  0
 29 28  2  0  0  0
 16 15  1  0  0  0
 16 20  1  0  0  0
 15 14  2  0  0  0
 15 10  1  0  0  0
 23  1  1  0  0  0
 23 22  2  0  0  0
 21 28  1  0  0  0
 21 22  1  0  0  0
  1  2  1  0  0  0
 28 30  1  0  0  0
  7 10  2  0  0  0
  7  8  1  0  0  0
 22 34  1  0  0  0
 20 19  1  0  0  0
 10  6  1  0  0  0
  2  8  1  0  0  0
  8  9  2  0  0  0
 34 33  1  0  0  0
  6  5  2  0  0  0
  9  5  1  0  0  0
  9 11  1  0  0  0
 26 27  1  0  0  0
  2  4  1  0  0  0
 11 12  1  0  0  0
 30 31  1  0  0  0
 30 32  1  0  0  0
M  END
> <minimizedAffinity>
-7.47887

$$$$
5D26_L28_A_201


 34 35  0  0  0  0  0  0  0  0999 V2000
    3.8301   58.9157   24.0280 C   0  0  0  0  0  0  0  0  0  0  0  0
    4.5543   58.1588   23.2015 N   0  0  0  0  0  0  0  0  0  0  0  0
    2.6675   59.1766   23.8082 O   0  0  0  0  0  0  0  0  0  0  0  0
    5.5274   58.1418   23.3496 H   0  0  0  0  0  0  0  0  0  0  0  0
    3.6627   57.3775   19.7682 C   0  0  0  0  0  0  0  0  0  0  0  0
    3.1619   56.0847   19.8411 C   0  0  0  0  0  0  0  0  0  0  0  0
    3.5588   56.0871   22.2235 C   0  0  0  0  0  0  0  0  0  0  0  0
    4.0684   57.3993   22.1610 C   0  0  0  0  0  0  0  0  0  0  0  0
    4.1206   58.0198   20.9183 C   0  0  0  0  0  0  0  0  0  0  0  0
    3.0872   55.4226   21.0652 C   0  0  0  0  0  0  0  0  0  0  0  0
    4.6185   59.2828   20.8348 O   0  0  0  0  0  0  0  0  0  0  0  0
    4.9269   59.7167   21.6059 H   0  0  0  0  0  0  0  0  0  0  0  0
    2.1948   53.6366   22.4802 O   0  0  0  0  0  0  0  0  0  0  0  0
    3.5269   53.0108   20.6716 O   0  0  0  0  0  0  0  0  0  0  0  0
    2.5034   53.9108   21.1061 S   0  0  0  0  0  0  0  0  0  0  0  0
    1.2598   53.7824   20.2135 N   0  0  0  0  0  0  0  0  0  0  0  0
    0.4775   51.8710   18.8456 C   0  0  0  0  0  0  0  0  0  0  0  0
    1.3419   53.1151   18.9121 C   0  0  0  0  0  0  0  0  0  0  0  0
   -0.5876   55.2715   19.6827 C   0  0  0  0  0  0  0  0  0  0  0  0
   -0.0403   54.2674   20.6774 C   0  0  0  0  0  0  0  0  0  0  0  0
    5.2839   60.8218   26.8822 C   0  0  0  0  0  0  0  0  0  0  0  0
    4.8647   60.8517   25.5455 C   0  0  0  0  0  0  0  0  0  0  0  0
    4.3625   59.4583   25.3156 C   0  0  0  0  0  0  0  0  0  0  0  0
    5.0507   59.4550   27.4089 C   0  0  0  0  0  0  0  0  0  0  0  0
    5.3397   58.9250   28.7896 C   0  0  0  0  0  0  0  0  0  0  0  0
    4.5264   58.7252   26.4220 N   0  0  0  0  0  0  0  0  0  0  0  0
    4.2913   57.7723   26.4986 H   0  0  0  0  0  0  0  0  0  0  0  0
    5.8704   61.9132   27.7281 C   0  0  0  0  0  0  0  0  0  0  0  0
    6.9713   61.7638   28.2392 O   0  0  0  0  0  0  0  0  0  0  0  0
    5.1805   63.1196   27.9756 N   0  0  0  0  0  0  0  0  0  0  0  0
    5.5930   63.8166   28.5353 H   0  0  0  0  0  0  0  0  0  0  0  0
    4.2869   63.2640   27.5885 H   0  0  0  0  0  0  0  0  0  0  0  0
    3.5621   62.7537   24.5919 C   0  0  0  0  0  0  0  0  0  0  0  0
    4.8863   62.0068   24.5637 C   0  0  0  0  0  0  0  0  0  0  0  0
 17 18  1  0  0  0
 25 24  1  0  0  0
 13 15  2  0  0  0
 26 24  1  0  0  0
 26 23  1  0  0  0
 24 21  2  0  0  0
 18 16  1  0  0  0
  3  1  2  0  0  0
 29 28  2  0  0  0
 16 15  1  0  0  0
 16 20  1  0  0  0
 15 14  2  0  0  0
 15 10  1  0  0  0
 23  1  1  0  0  0
 23 22  2  0  0  0
 21 28  1  0  0  0
 21 22  1  0  0  0
  1  2  1  0  0  0
 28 30  1  0  0  0
  7 10  2  0  0  0
  7  8  1  0  0  0
 22 34  1  0  0  0
 20 19  1  0  0  0
 10  6  1  0  0  0
  2  8  1  0  0  0
  8  9  2  0  0  0
 34 33  1  0  0  0
  6  5  2  0  0  0
  9  5  1  0  0  0
  9 11  1  0  0  0
 26 27  1  0  0  0
  2  4  1  0  0  0
 11 12  1  0  0  0
 30 31  1  0  0  0
 30 32  1  0  0  0
M  END
> <minimizedAffinity>
-7.17654

$$$$
5D26_L28_A_201


 34 35  0  0  0  0  0  0  0  0999 V2000
    2.7259   54.8510   21.4487 C   0  0  0  0  0  0  0  0  0  0  0  0
    3.8107   55.6062   21.2664 N   0  0  0  0  0  0  0  0  0  0  0  0
    1.8447   55.1667   22.2180 O   0  0  0  0  0  0  0  0  0  0  0  0
    4.5581   55.2008   20.7702 H   0  0  0  0  0  0  0  0  0  0  0  0
    4.4616   59.1692   20.9940 C   0  0  0  0  0  0  0  0  0  0  0  0
    4.3664   59.6252   22.3019 C   0  0  0  0  0  0  0  0  0  0  0  0
    3.8880   57.3727   23.0307 C   0  0  0  0  0  0  0  0  0  0  0  0
    3.9829   56.8992   21.7070 C   0  0  0  0  0  0  0  0  0  0  0  0
    4.2598   57.8203   20.7035 C   0  0  0  0  0  0  0  0  0  0  0  0
    4.0933   58.7389   23.3422 C   0  0  0  0  0  0  0  0  0  0  0  0
    4.3455   57.3852   19.4176 O   0  0  0  0  0  0  0  0  0  0  0  0
    4.2104   56.4794   19.2195 H   0  0  0  0  0  0  0  0  0  0  0  0
    5.2610   59.8878   25.1602 O   0  0  0  0  0  0  0  0  0  0  0  0
    3.7400   58.2197   25.7445 O   0  0  0  0  0  0  0  0  0  0  0  0
    3.9826   59.3128   24.8543 S   0  0  0  0  0  0  0  0  0  0  0  0
    2.8574   60.3533   24.9612 N   0  0  0  0  0  0  0  0  0  0  0  0
    0.4523   60.4885   25.5389 C   0  0  0  0  0  0  0  0  0  0  0  0
    1.4939   60.0229   24.5402 C   0  0  0  0  0  0  0  0  0  0  0  0
    3.3068   62.6845   24.4364 C   0  0  0  0  0  0  0  0  0  0  0  0
    3.1164   61.6694   25.5457 C   0  0  0  0  0  0  0  0  0  0  0  0
    1.6279   52.0641   19.2303 C   0  0  0  0  0  0  0  0  0  0  0  0
    1.5207   53.4262   19.5412 C   0  0  0  0  0  0  0  0  0  0  0  0
    2.4723   53.5891   20.6876 C   0  0  0  0  0  0  0  0  0  0  0  0
    2.5947   51.4501   20.1728 C   0  0  0  0  0  0  0  0  0  0  0  0
    3.0437   50.0134   20.2450 C   0  0  0  0  0  0  0  0  0  0  0  0
    3.0233   52.4100   20.9952 N   0  0  0  0  0  0  0  0  0  0  0  0
    3.6613   52.2685   21.7315 H   0  0  0  0  0  0  0  0  0  0  0  0
    0.9426   51.2679   18.1594 C   0  0  0  0  0  0  0  0  0  0  0  0
    1.5950   50.7943   17.2397 O   0  0  0  0  0  0  0  0  0  0  0  0
   -0.4529   51.0556   18.1630 N   0  0  0  0  0  0  0  0  0  0  0  0
   -0.8724   50.5281   17.4453 H   0  0  0  0  0  0  0  0  0  0  0  0
   -1.0066   51.4350   18.8832 H   0  0  0  0  0  0  0  0  0  0  0  0
   -0.5513   54.8034   19.7260 C   0  0  0  0  0  0  0  0  0  0  0  0
    0.6719   54.4930   18.8776 C   0  0  0  0  0  0  0  0  0  0  0  0
 17 18  1  0  0  0
 25 24  1  0  0  0
 13 15  2  0  0  0
 26 24  1  0  0  0
 26 23  1  0  0  0
 24 21  2  0  0  0
 18 16  1  0  0  0
  3  1  2  0  0  0
 29 28  2  0  0  0
 16 15  1  0  0  0
 16 20  1  0  0  0
 15 14  2  0  0  0
 15 10  1  0  0  0
 23  1  1  0  0  0
 23 22  2  0  0  0
 21 28  1  0  0  0
 21 22  1  0  0  0
  1  2  1  0  0  0
 28 30  1  0  0  0
  7 10  2  0  0  0
  7  8  1  0  0  0
 22 34  1  0  0  0
 20 19  1  0  0  0
 10  6  1  0  0  0
  2  8  1  0  0  0
  8  9  2  0  0  0
 34 33  1  0  0  0
  6  5  2  0  0  0
  9  5  1  0  0  0
  9 11  1  0  0  0
 26 27  1  0  0  0
  2  4  1  0  0  0
 11 12  1  0  0  0
 30 31  1  0  0  0
 30 32  1  0  0  0
M  END
> <minimizedAffinity>
-6.83671

$$$$
5D26_L28_A_201


 34 35  0  0  0  0  0  0  0  0999 V2000
    3.8680   57.5937   23.8409 C   0  0  0  0  0  0  0  0  0  0  0  0
    2.6221   57.1220   23.7661 N   0  0  0  0  0  0  0  0  0  0  0  0
    4.8241   56.8636   23.9852 O   0  0  0  0  0  0  0  0  0  0  0  0
    1.8918   57.7790   23.8319 H   0  0  0  0  0  0  0  0  0  0  0  0
    1.3011   53.8791   24.7308 C   0  0  0  0  0  0  0  0  0  0  0  0
    1.4131   53.1176   23.5753 C   0  0  0  0  0  0  0  0  0  0  0  0
    2.3705   55.0214   22.4383 C   0  0  0  0  0  0  0  0  0  0  0  0
    2.2619   55.8029   23.6056 C   0  0  0  0  0  0  0  0  0  0  0  0
    1.7126   55.2115   24.7373 C   0  0  0  0  0  0  0  0  0  0  0  0
    1.9599   53.6661   22.4166 C   0  0  0  0  0  0  0  0  0  0  0  0
    1.5896   55.9518   25.8716 O   0  0  0  0  0  0  0  0  0  0  0  0
    1.8652   56.8473   25.8788 H   0  0  0  0  0  0  0  0  0  0  0  0
    1.8542   51.3933   21.5157 O   0  0  0  0  0  0  0  0  0  0  0  0
    3.3870   52.8619   20.5507 O   0  0  0  0  0  0  0  0  0  0  0  0
    2.0657   52.7459   21.0862 S   0  0  0  0  0  0  0  0  0  0  0  0
    1.0229   53.1746   20.0427 N   0  0  0  0  0  0  0  0  0  0  0  0
   -0.8567   51.9433   18.9999 C   0  0  0  0  0  0  0  0  0  0  0  0
   -0.3780   52.7687   20.1784 C   0  0  0  0  0  0  0  0  0  0  0  0
    0.7509   55.4061   19.1161 C   0  0  0  0  0  0  0  0  0  0  0  0
    1.4002   54.0490   18.9320 C   0  0  0  0  0  0  0  0  0  0  0  0
    4.9344   61.0338   22.8808 C   0  0  0  0  0  0  0  0  0  0  0  0
    4.7676   59.7028   22.4758 C   0  0  0  0  0  0  0  0  0  0  0  0
    4.2019   59.0442   23.6975 C   0  0  0  0  0  0  0  0  0  0  0  0
    4.4978   61.1447   24.2940 C   0  0  0  0  0  0  0  0  0  0  0  0
    4.4878   62.3675   25.1746 C   0  0  0  0  0  0  0  0  0  0  0  0
    4.1021   59.9335   24.6913 N   0  0  0  0  0  0  0  0  0  0  0  0
    3.7791   59.7225   25.5971 H   0  0  0  0  0  0  0  0  0  0  0  0
    5.4464   62.2142   22.1093 C   0  0  0  0  0  0  0  0  0  0  0  0
    6.6364   62.4939   22.1412 O   0  0  0  0  0  0  0  0  0  0  0  0
    4.5895   63.0392   21.3492 N   0  0  0  0  0  0  0  0  0  0  0  0
    4.9569   63.8066   20.8539 H   0  0  0  0  0  0  0  0  0  0  0  0
    3.6246   62.8471   21.3144 H   0  0  0  0  0  0  0  0  0  0  0  0
    3.8097   58.4192   20.5630 C   0  0  0  0  0  0  0  0  0  0  0  0
    5.0615   59.0706   21.1294 C   0  0  0  0  0  0  0  0  0  0  0  0
 17 18  1  0  0  0
 25 24  1  0  0  0
 13 15  2  0  0  0
 26 24  1  0  0  0
 26 23  1  0  0  0
 24 21  2  0  0  0
 18 16  1  0  0  0
  3  1  2  0  0  0
 29 28  2  0  0  0
 16 15  1  0  0  0
 16 20  1  0  0  0
 15 14  2  0  0  0
 15 10  1  0  0  0
 23  1  1  0  0  0
 23 22  2  0  0  0
 21 28  1  0  0  0
 21 22  1  0  0  0
  1  2  1  0  0  0
 28 30  1  0  0  0
  7 10  2  0  0  0
  7  8  1  0  0  0
 22 34  1  0  0  0
 20 19  1  0  0  0
 10  6  1  0  0  0
  2  8  1  0  0  0
  8  9  2  0  0  0
 34 33  1  0  0  0
  6  5  2  0  0  0
  9  5  1  0  0  0
  9 11  1  0  0  0
 26 27  1  0  0  0
  2  4  1  0  0  0
 11 12  1  0  0  0
 30 31  1  0  0  0
 30 32  1  0  0  0
M  END
> <minimizedAffinity>
-6.81004

$$$$
5D26_L28_A_201


 34 35  0  0  0  0  0  0  0  0999 V2000
    3.8516   57.5676   22.9059 C   0  0  0  0  0  0  0  0  0  0  0  0
    3.6048   58.7415   22.3216 N   0  0  0  0  0  0  0  0  0  0  0  0
    4.6433   57.4565   23.8163 O   0  0  0  0  0  0  0  0  0  0  0  0
    3.0937   58.7223   21.4804 H   0  0  0  0  0  0  0  0  0  0  0  0
    5.5071   61.8351   22.3838 C   0  0  0  0  0  0  0  0  0  0  0  0
    4.9950   62.5180   23.4787 C   0  0  0  0  0  0  0  0  0  0  0  0
    3.4850   60.6791   23.8935 C   0  0  0  0  0  0  0  0  0  0  0  0
    3.9979   59.9771   22.7846 C   0  0  0  0  0  0  0  0  0  0  0  0
    5.0021   60.5820   22.0378 C   0  0  0  0  0  0  0  0  0  0  0  0
    3.9894   61.9509   24.2594 C   0  0  0  0  0  0  0  0  0  0  0  0
    5.5038   59.9254   20.9575 O   0  0  0  0  0  0  0  0  0  0  0  0
    5.1664   59.0834   20.7228 H   0  0  0  0  0  0  0  0  0  0  0  0
    2.0965   62.2727   25.7766 O   0  0  0  0  0  0  0  0  0  0  0  0
    3.3130   64.1639   25.1595 O   0  0  0  0  0  0  0  0  0  0  0  0
    3.4130   62.7845   25.5247 S   0  0  0  0  0  0  0  0  0  0  0  0
    4.3257   62.6171   26.7490 N   0  0  0  0  0  0  0  0  0  0  0  0
    5.6583   60.5962   27.2751 C   0  0  0  0  0  0  0  0  0  0  0  0
    4.3604   61.3514   27.4855 C   0  0  0  0  0  0  0  0  0  0  0  0
    4.9932   64.0136   28.6241 C   0  0  0  0  0  0  0  0  0  0  0  0
    5.2226   63.6976   27.1596 C   0  0  0  0  0  0  0  0  0  0  0  0
    2.2985   54.5514   21.3619 C   0  0  0  0  0  0  0  0  0  0  0  0
    3.1398   55.6577   21.1835 C   0  0  0  0  0  0  0  0  0  0  0  0
    3.1405   56.3055   22.5350 C   0  0  0  0  0  0  0  0  0  0  0  0
    1.8117   54.5626   22.7628 C   0  0  0  0  0  0  0  0  0  0  0  0
    0.8830   53.5852   23.4361 C   0  0  0  0  0  0  0  0  0  0  0  0
    2.3413   55.6287   23.3666 N   0  0  0  0  0  0  0  0  0  0  0  0
    2.1664   55.8833   24.3014 H   0  0  0  0  0  0  0  0  0  0  0  0
    1.8978   53.4840   20.3868 C   0  0  0  0  0  0  0  0  0  0  0  0
    2.6861   52.5948   20.0981 O   0  0  0  0  0  0  0  0  0  0  0  0
    0.6303   53.4765   19.7657 N   0  0  0  0  0  0  0  0  0  0  0  0
    0.3978   52.7616   19.1300 H   0  0  0  0  0  0  0  0  0  0  0  0
   -0.0213   54.1862   19.9681 H   0  0  0  0  0  0  0  0  0  0  0  0
    2.9863   56.9147   19.0340 C   0  0  0  0  0  0  0  0  0  0  0  0
    3.8908   56.0956   19.9413 C   0  0  0  0  0  0  0  0  0  0  0  0
 17 18  1  0  0  0
 25 24  1  0  0  0
 13 15  2  0  0  0
 26 24  1  0  0  0
 26 23  1  0  0  0
 24 21  2  0  0  0
 18 16  1  0  0  0
  3  1  2  0  0  0
 29 28  2  0  0  0
 16 15  1  0  0  0
 16 20  1  0  0  0
 15 14  2  0  0  0
 15 10  1  0  0  0
 23  1  1  0  0  0
 23 22  2  0  0  0
 21 28  1  0  0  0
 21 22  1  0  0  0
  1  2  1  0  0  0
 28 30  1  0  0  0
  7 10  2  0  0  0
  7  8  1  0  0  0
 22 34  1  0  0  0
 20 19  1  0  0  0
 10  6  1  0  0  0
  2  8  1  0  0  0
  8  9  2  0  0  0
 34 33  1  0  0  0
  6  5  2  0  0  0
  9  5  1  0  0  0
  9 11  1  0  0  0
 26 27  1  0  0  0
  2  4  1  0  0  0
 11 12  1  0  0  0
 30 31  1  0  0  0
 30 32  1  0  0  0
M  END
> <minimizedAffinity>
-6.78755

$$$$
5D26_L28_A_201


 34 35  0  0  0  0  0  0  0  0999 V2000
    2.7529   54.9480   21.4840 C   0  0  0  0  0  0  0  0  0  0  0  0
    3.8491   55.6854   21.2970 N   0  0  0  0  0  0  0  0  0  0  0  0
    1.8844   55.2735   22.2636 O   0  0  0  0  0  0  0  0  0  0  0  0
    4.5847   55.2706   20.7911 H   0  0  0  0  0  0  0  0  0  0  0  0
    4.4687   59.2549   21.0372 C   0  0  0  0  0  0  0  0  0  0  0  0
    4.4644   59.6896   22.3557 C   0  0  0  0  0  0  0  0  0  0  0  0
    4.0451   57.4239   23.0798 C   0  0  0  0  0  0  0  0  0  0  0  0
    4.0480   56.9719   21.7453 C   0  0  0  0  0  0  0  0  0  0  0  0
    4.2510   57.9099   20.7398 C   0  0  0  0  0  0  0  0  0  0  0  0
    4.2678   58.7858   23.3982 C   0  0  0  0  0  0  0  0  0  0  0  0
    4.2474   57.4957   19.4443 O   0  0  0  0  0  0  0  0  0  0  0  0
    4.1013   56.5926   19.2416 H   0  0  0  0  0  0  0  0  0  0  0  0
    2.9201   59.7684   25.1890 O   0  0  0  0  0  0  0  0  0  0  0  0
    5.1392   60.4618   25.0098 O   0  0  0  0  0  0  0  0  0  0  0  0
    4.2619   59.3352   24.9234 S   0  0  0  0  0  0  0  0  0  0  0  0
    4.7019   58.2347   25.9008 N   0  0  0  0  0  0  0  0  0  0  0  0
    6.9340   58.1261   26.9695 C   0  0  0  0  0  0  0  0  0  0  0  0
    6.0500   57.6669   25.8262 C   0  0  0  0  0  0  0  0  0  0  0  0
    3.1372   56.4874   26.5416 C   0  0  0  0  0  0  0  0  0  0  0  0
    3.8029   57.7822   26.9628 C   0  0  0  0  0  0  0  0  0  0  0  0
    1.5830   52.1960   19.2588 C   0  0  0  0  0  0  0  0  0  0  0  0
    1.5001   53.5569   19.5823 C   0  0  0  0  0  0  0  0  0  0  0  0
    2.4701   53.6964   20.7163 C   0  0  0  0  0  0  0  0  0  0  0  0
    2.5541   51.5602   20.1822 C   0  0  0  0  0  0  0  0  0  0  0  0
    2.9831   50.1166   20.2361 C   0  0  0  0  0  0  0  0  0  0  0  0
    3.0082   52.5069   21.0062 N   0  0  0  0  0  0  0  0  0  0  0  0
    3.6546   52.3501   21.7321 H   0  0  0  0  0  0  0  0  0  0  0  0
    0.8710   51.4188   18.1913 C   0  0  0  0  0  0  0  0  0  0  0  0
    1.5034   50.9429   17.2590 O   0  0  0  0  0  0  0  0  0  0  0  0
   -0.5273   51.2275   18.2126 N   0  0  0  0  0  0  0  0  0  0  0  0
   -0.9647   50.7122   17.4968 H   0  0  0  0  0  0  0  0  0  0  0  0
   -1.0653   51.6094   18.9434 H   0  0  0  0  0  0  0  0  0  0  0  0
   -0.5728   54.9301   19.7855 C   0  0  0  0  0  0  0  0  0  0  0  0
    0.6574   54.6413   18.9398 C   0  0  0  0  0  0  0  0  0  0  0  0
 17 18  1  0  0  0
 25 24  1  0  0  0
 13 15  2  0  0  0
 26 24  1  0  0  0
 26 23  1  0  0  0
 24 21  2  0  0  0
 18 16  1  0  0  0
  3  1  2  0  0  0
 29 28  2  0  0  0
 16 15  1  0  0  0
 16 20  1  0  0  0
 15 14  2  0  0  0
 15 10  1  0  0  0
 23  1  1  0  0  0
 23 22  2  0  0  0
 21 28  1  0  0  0
 21 22  1  0  0  0
  1  2  1  0  0  0
 28 30  1  0  0  0
  7 10  2  0  0  0
  7  8  1  0  0  0
 22 34  1  0  0  0
 20 19  1  0  0  0
 10  6  1  0  0  0
  2  8  1  0  0  0
  8  9  2  0  0  0
 34 33  1  0  0  0
  6  5  2  0  0  0
  9  5  1  0  0  0
  9 11  1  0  0  0
 26 27  1  0  0  0
  2  4  1  0  0  0
 11 12  1  0  0  0
 30 31  1  0  0  0
 30 32  1  0  0  0
M  END
> <minimizedAffinity>
-6.78116

$$$$
5D26_L28_A_201


 34 35  0  0  0  0  0  0  0  0999 V2000
    3.8744   57.1830   21.3970 C   0  0  0  0  0  0  0  0  0  0  0  0
    2.8751   56.8932   20.5617 N   0  0  0  0  0  0  0  0  0  0  0  0
    4.2689   56.3925   22.2261 O   0  0  0  0  0  0  0  0  0  0  0  0
    2.4936   57.6404   20.0464 H   0  0  0  0  0  0  0  0  0  0  0  0
    1.4377   54.1525   18.6604 C   0  0  0  0  0  0  0  0  0  0  0  0
    1.2070   53.1711   19.6149 C   0  0  0  0  0  0  0  0  0  0  0  0
    2.0895   54.6444   21.3132 C   0  0  0  0  0  0  0  0  0  0  0  0
    2.3273   55.6475   20.3527 C   0  0  0  0  0  0  0  0  0  0  0  0
    2.0029   55.3728   19.0293 C   0  0  0  0  0  0  0  0  0  0  0  0
    1.5133   53.4012   20.9549 C   0  0  0  0  0  0  0  0  0  0  0  0
    2.2341   56.3241   18.0850 O   0  0  0  0  0  0  0  0  0  0  0  0
    2.6137   57.1449   18.3301 H   0  0  0  0  0  0  0  0  0  0  0  0
   -0.1895   52.0925   22.1278 O   0  0  0  0  0  0  0  0  0  0  0  0
    1.7454   52.6419   23.3075 O   0  0  0  0  0  0  0  0  0  0  0  0
    1.2361   52.2264   22.0369 S   0  0  0  0  0  0  0  0  0  0  0  0
    1.8979   50.9120   21.5960 N   0  0  0  0  0  0  0  0  0  0  0  0
    4.0826   50.8255   20.4314 C   0  0  0  0  0  0  0  0  0  0  0  0
    3.3413   50.7159   21.7497 C   0  0  0  0  0  0  0  0  0  0  0  0
    1.2163   48.6123   21.9940 C   0  0  0  0  0  0  0  0  0  0  0  0
    1.0873   49.8109   21.0754 C   0  0  0  0  0  0  0  0  0  0  0  0
    5.2727   60.6262   21.6839 C   0  0  0  0  0  0  0  0  0  0  0  0
    4.3006   59.7161   22.1201 C   0  0  0  0  0  0  0  0  0  0  0  0
    4.6295   58.4728   21.3504 C   0  0  0  0  0  0  0  0  0  0  0  0
    6.1280   59.9438   20.6826 C   0  0  0  0  0  0  0  0  0  0  0  0
    7.3048   60.5022   19.9247 C   0  0  0  0  0  0  0  0  0  0  0  0
    5.6695   58.6984   20.5405 N   0  0  0  0  0  0  0  0  0  0  0  0
    6.0474   58.0332   19.9209 H   0  0  0  0  0  0  0  0  0  0  0  0
    5.5033   62.0517   22.0907 C   0  0  0  0  0  0  0  0  0  0  0  0
    5.7642   62.8933   21.2428 O   0  0  0  0  0  0  0  0  0  0  0  0
    5.4473   62.4624   23.4401 N   0  0  0  0  0  0  0  0  0  0  0  0
    5.6033   63.4058   23.6744 H   0  0  0  0  0  0  0  0  0  0  0  0
    5.2521   61.8054   24.1469 H   0  0  0  0  0  0  0  0  0  0  0  0
    3.6289   59.4120   24.5034 C   0  0  0  0  0  0  0  0  0  0  0  0
    3.1934   59.9159   23.1364 C   0  0  0  0  0  0  0  0  0  0  0  0
 17 18  1  0  0  0
 25 24  1  0  0  0
 13 15  2  0  0  0
 26 24  1  0  0  0
 26 23  1  0  0  0
 24 21  2  0  0  0
 18 16  1  0  0  0
  3  1  2  0  0  0
 29 28  2  0  0  0
 16 15  1  0  0  0
 16 20  1  0  0  0
 15 14  2  0  0  0
 15 10  1  0  0  0
 23  1  1  0  0  0
 23 22  2  0  0  0
 21 28  1  0  0  0
 21 22  1  0  0  0
  1  2  1  0  0  0
 28 30  1  0  0  0
  7 10  2  0  0  0
  7  8  1  0  0  0
 22 34  1  0  0  0
 20 19  1  0  0  0
 10  6  1  0  0  0
  2  8  1  0  0  0
  8  9  2  0  0  0
 34 33  1  0  0  0
  6  5  2  0  0  0
  9  5  1  0  0  0
  9 11  1  0  0  0
 26 27  1  0  0  0
  2  4  1  0  0  0
 11 12  1  0  0  0
 30 31  1  0  0  0
 30 32  1  0  0  0
M  END
> <minimizedAffinity>
-6.72248

$$$$
5D26_L28_A_201


 34 35  0  0  0  0  0  0  0  0999 V2000
    2.3998   54.8167   21.0412 C   0  0  0  0  0  0  0  0  0  0  0  0
    3.5410   55.4840   20.8608 N   0  0  0  0  0  0  0  0  0  0  0  0
    1.6597   55.0486   21.9720 O   0  0  0  0  0  0  0  0  0  0  0  0
    4.1699   55.1207   20.1962 H   0  0  0  0  0  0  0  0  0  0  0  0
    4.5932   58.9438   21.2006 C   0  0  0  0  0  0  0  0  0  0  0  0
    4.7061   59.1234   22.5727 C   0  0  0  0  0  0  0  0  0  0  0  0
    4.0389   56.8264   22.9076 C   0  0  0  0  0  0  0  0  0  0  0  0
    3.9217   56.6331   21.5168 C   0  0  0  0  0  0  0  0  0  0  0  0
    4.1936   57.7119   20.6836 C   0  0  0  0  0  0  0  0  0  0  0  0
    4.4465   58.0704   23.4480 C   0  0  0  0  0  0  0  0  0  0  0  0
    4.0765   57.5489   19.3383 O   0  0  0  0  0  0  0  0  0  0  0  0
    3.8082   56.7223   18.9881 H   0  0  0  0  0  0  0  0  0  0  0  0
    5.3856   59.5025   25.1960 O   0  0  0  0  0  0  0  0  0  0  0  0
    5.2698   57.2141   25.6283 O   0  0  0  0  0  0  0  0  0  0  0  0
    4.5821   58.3237   25.0434 S   0  0  0  0  0  0  0  0  0  0  0  0
    3.1983   58.4986   25.6871 N   0  0  0  0  0  0  0  0  0  0  0  0
    1.7541   56.4973   25.4736 C   0  0  0  0  0  0  0  0  0  0  0  0
    2.5611   57.3878   26.3982 C   0  0  0  0  0  0  0  0  0  0  0  0
    1.5332   59.8216   24.5085 C   0  0  0  0  0  0  0  0  0  0  0  0
    2.5235   59.7964   25.6555 C   0  0  0  0  0  0  0  0  0  0  0  0
    1.5609   51.7985   19.0213 C   0  0  0  0  0  0  0  0  0  0  0  0
    2.2228   52.3091   20.1458 C   0  0  0  0  0  0  0  0  0  0  0  0
    1.9055   53.7729   20.0914 C   0  0  0  0  0  0  0  0  0  0  0  0
    0.8951   52.9266   18.3256 C   0  0  0  0  0  0  0  0  0  0  0  0
    0.0641   52.8883   17.0690 C   0  0  0  0  0  0  0  0  0  0  0  0
    1.1634   54.0397   19.0113 N   0  0  0  0  0  0  0  0  0  0  0  0
    0.8555   54.9392   18.7556 H   0  0  0  0  0  0  0  0  0  0  0  0
    1.4702   50.3873   18.5202 C   0  0  0  0  0  0  0  0  0  0  0  0
    0.6011   49.6422   18.9502 O   0  0  0  0  0  0  0  0  0  0  0  0
    2.3762   49.8724   17.5681 N   0  0  0  0  0  0  0  0  0  0  0  0
    2.2897   48.9416   17.2594 H   0  0  0  0  0  0  0  0  0  0  0  0
    3.0946   50.4441   17.2128 H   0  0  0  0  0  0  0  0  0  0  0  0
    4.2837   50.9623   20.5492 C   0  0  0  0  0  0  0  0  0  0  0  0
    3.0451   51.5732   21.1855 C   0  0  0  0  0  0  0  0  0  0  0  0
 17 18  1  0  0  0
 25 24  1  0  0  0
 13 15  2  0  0  0
 26 24  1  0  0  0
 26 23  1  0  0  0
 24 21  2  0  0  0
 18 16  1  0  0  0
  3  1  2  0  0  0
 29 28  2  0  0  0
 16 15  1  0  0  0
 16 20  1  0  0  0
 15 14  2  0  0  0
 15 10  1  0  0  0
 23  1  1  0  0  0
 23 22  2  0  0  0
 21 28  1  0  0  0
 21 22  1  0  0  0
  1  2  1  0  0  0
 28 30  1  0  0  0
  7 10  2  0  0  0
  7  8  1  0  0  0
 22 34  1  0  0  0
 20 19  1  0  0  0
 10  6  1  0  0  0
  2  8  1  0  0  0
  8  9  2  0  0  0
 34 33  1  0  0  0
  6  5  2  0  0  0
  9  5  1  0  0  0
  9 11  1  0  0  0
 26 27  1  0  0  0
  2  4  1  0  0  0
 11 12  1  0  0  0
 30 31  1  0  0  0
 30 32  1  0  0  0
M  END
> <minimizedAffinity>
-6.67716

$$$$
5D26_L28_A_201


 34 35  0  0  0  0  0  0  0  0999 V2000
    3.4410   55.6279   20.9286 C   0  0  0  0  0  0  0  0  0  0  0  0
    2.1513   55.4472   20.6385 N   0  0  0  0  0  0  0  0  0  0  0  0
    4.2747   54.7765   20.7090 O   0  0  0  0  0  0  0  0  0  0  0  0
    1.5151   56.1012   21.0083 H   0  0  0  0  0  0  0  0  0  0  0  0
    0.7268   53.8892   17.6827 C   0  0  0  0  0  0  0  0  0  0  0  0
    0.5437   52.5658   18.0604 C   0  0  0  0  0  0  0  0  0  0  0  0
    1.4371   53.0865   20.2431 C   0  0  0  0  0  0  0  0  0  0  0  0
    1.6266   54.4321   19.8705 C   0  0  0  0  0  0  0  0  0  0  0  0
    1.2738   54.8068   18.5792 C   0  0  0  0  0  0  0  0  0  0  0  0
    0.8800   52.1435   19.3452 C   0  0  0  0  0  0  0  0  0  0  0  0
    1.4583   56.0988   18.1964 O   0  0  0  0  0  0  0  0  0  0  0  0
    1.8256   56.7174   18.7967 H   0  0  0  0  0  0  0  0  0  0  0  0
    0.2243   49.9248   18.5478 O   0  0  0  0  0  0  0  0  0  0  0  0
   -0.3821   50.5080   20.7226 O   0  0  0  0  0  0  0  0  0  0  0  0
    0.6581   50.5880   19.7439 S   0  0  0  0  0  0  0  0  0  0  0  0
    1.9570   49.9743   20.2883 N   0  0  0  0  0  0  0  0  0  0  0  0
    4.3342   50.6710   20.2837 C   0  0  0  0  0  0  0  0  0  0  0  0
    3.1953   50.0374   19.5085 C   0  0  0  0  0  0  0  0  0  0  0  0
    2.0889   47.8670   21.4942 C   0  0  0  0  0  0  0  0  0  0  0  0
    1.9924   49.3742   21.6222 C   0  0  0  0  0  0  0  0  0  0  0  0
    4.4635   58.6273   22.8911 C   0  0  0  0  0  0  0  0  0  0  0  0
    3.8274   57.3788   22.9050 C   0  0  0  0  0  0  0  0  0  0  0  0
    3.9803   56.9038   21.4917 C   0  0  0  0  0  0  0  0  0  0  0  0
    4.9552   58.8798   21.5148 C   0  0  0  0  0  0  0  0  0  0  0  0
    5.6991   60.0831   20.9955 C   0  0  0  0  0  0  0  0  0  0  0  0
    4.6148   57.8297   20.7646 N   0  0  0  0  0  0  0  0  0  0  0  0
    4.8058   57.7474   19.8023 H   0  0  0  0  0  0  0  0  0  0  0  0
    4.6724   59.6098   24.0054 C   0  0  0  0  0  0  0  0  0  0  0  0
    5.3833   59.3128   24.9551 O   0  0  0  0  0  0  0  0  0  0  0  0
    4.0547   60.8791   24.0085 N   0  0  0  0  0  0  0  0  0  0  0  0
    4.2122   61.5013   24.7550 H   0  0  0  0  0  0  0  0  0  0  0  0
    3.4666   61.1421   23.2641 H   0  0  0  0  0  0  0  0  0  0  0  0
    2.0527   57.5159   24.6530 C   0  0  0  0  0  0  0  0  0  0  0  0
    3.1613   56.6595   24.0615 C   0  0  0  0  0  0  0  0  0  0  0  0
 17 18  1  0  0  0
 25 24  1  0  0  0
 13 15  2  0  0  0
 26 24  1  0  0  0
 26 23  1  0  0  0
 24 21  2  0  0  0
 18 16  1  0  0  0
  3  1  2  0  0  0
 29 28  2  0  0  0
 16 15  1  0  0  0
 16 20  1  0  0  0
 15 14  2  0  0  0
 15 10  1  0  0  0
 23  1  1  0  0  0
 23 22  2  0  0  0
 21 28  1  0  0  0
 21 22  1  0  0  0
  1  2  1  0  0  0
 28 30  1  0  0  0
  7 10  2  0  0  0
  7  8  1  0  0  0
 22 34  1  0  0  0
 20 19  1  0  0  0
 10  6  1  0  0  0
  2  8  1  0  0  0
  8  9  2  0  0  0
 34 33  1  0  0  0
  6  5  2  0  0  0
  9  5  1  0  0  0
  9 11  1  0  0  0
 26 27  1  0  0  0
  2  4  1  0  0  0
 11 12  1  0  0  0
 30 31  1  0  0  0
 30 32  1  0  0  0
M  END
> <minimizedAffinity>
-6.65478

$$$$
