4YX4_FB2_A_303
  RCSB PDB12061716313D
Coordinates from PDB:4YX4:A:303 Model:1 without hydrogens
 10 10  0  0  0  0            999 V2000
   -1.1430    6.4730   84.4120   C 0  0  0  0  0  0  0  0  0  0  0  0
   -2.4720    6.4170   84.7710   C 0  0  0  0  0  0  0  0  0  0  0  0
   -2.9690    5.3280   85.4680   C 0  0  0  0  0  0  0  0  0  0  0  0
   -2.1100    4.2940   85.8060   C 0  0  0  0  0  0  0  0  0  0  0  0
   -0.7730    4.3350   85.4400   C 0  0  0  0  0  0  0  0  0  0  0  0
   -0.2980    5.4340   84.7430   C 0  0  0  0  0  0  0  0  0  0  0  0
   -2.7160    2.9340   86.7620   S 0  0  0  0  0  0  0  0  0  0  0  0
   -4.1410    2.9110   86.6050   O 0  0  0  0  0  0  0  0  0  0  0  0
   -2.1710    3.0770   88.0790   O 0  0  0  0  0  0  0  0  0  0  0  0
   -2.1010    1.6270   86.1490   N 0  0  0  0  0  0  0  0  0  0  0  0
  1  2  1  0  0  0  0
  1  6  2  0  0  0  0
  2  3  2  0  0  0  0
  3  4  1  0  0  0  0
  4  5  2  0  0  0  0
  4  7  1  0  0  0  0
  5  6  1  0  0  0  0
  7  9  2  0  0  0  0
  7  8  2  0  0  0  0
  7 10  1  0  0  0  0
A    1
C01
A    2
C02
A    3
C03
A    4
C04
A    5
C05
A    6
C06
A    7
S07
A    8
O09
A    9
O08
A   10
NP0
M  END
>  <InstanceId>
4YX4_FB2_A_303

>  <ChemCompId>
FB2

>  <PdbId>
4YX4

>  <ChainId>
A

>  <ResidueNumber>
303

>  <InsertionCode>


>  <Model>
1

>  <AltIds>


>  <MissingHeavyAtoms>
0

>  <ObservedFormula>
C6 N O2 S

>  <Name>
benzenesulfonamide

>  <SystematicName>
benzenesulfonamide

>  <Synonyms>


>  <Type>
non-polymer

>  <Formula>
C6 H7 N O2 S

>  <MolecularWeight>
157.19

>  <ModifiedDate>
2011-06-04

>  <Parent>


>  <OneLetterCode>


>  <SubcomponentList>


>  <AmbiguousFlag>
N

>  <InChI>
InChI=1S/C6H7NO2S/c7-10(8,9)6-4-2-1-3-5-6/h1-5H,(H2,7,8,9)

>  <InChIKey>
KHBQMWCZKVMBLN-UHFFFAOYSA-N

>  <SMILES>
c1ccc(cc1)S(=O)(=O)N

$$$$
