5EQ1_BEA_A_801
  RCSB PDB12061717313D
Coordinates from PDB:5EQ1:A:801 Model:1 without hydrogens
 13 15  0  0  0  0            999 V2000
    8.4860  -11.2710    6.1260   C 0  0  0  0  0  0  0  0  0  0  0  0
    9.6840  -11.9950    6.1160   C 0  0  0  0  0  0  0  0  0  0  0  0
    8.1890  -10.5370    7.2710   C 0  0  0  0  0  0  0  0  0  0  0  0
    7.0130   -9.8060    7.3230   C 0  0  0  0  0  0  0  0  0  0  0  0
    6.1790   -9.8480    6.2160   C 0  0  0  0  0  0  0  0  0  0  0  0
    6.5060  -10.5620    5.1390   C 0  0  0  0  0  0  0  0  0  0  0  0
    6.7960  -11.7720    3.0130   C 0  0  0  0  0  0  0  0  0  0  0  0
    7.6530  -11.2840    5.0690   C 0  0  0  0  0  0  0  0  0  0  0  0
    8.6410  -12.7560    3.2460   C 0  0  0  0  0  0  0  0  0  0  0  0
    7.7980  -11.9420    3.8880   N 0  0  0  0  0  0  0  0  0  0  0  0
    8.1270  -13.0330    2.0550   N 0  0  0  0  0  0  0  0  0  0  0  0
    7.0720  -12.4740    1.9200   N 0  3  0  0  0  0  0  0  0  0  0  0
    5.6810  -10.7690    3.6940   S 0  0  0  0  0  0  0  0  0  0  0  0
  1  2  1  0  0  0  0
  1  3  2  0  0  0  0
  1  8  1  0  0  0  0
  3  4  1  0  0  0  0
  4  5  2  0  0  0  0
  5  6  1  0  0  0  0
  6  8  2  0  0  0  0
  6 13  1  0  0  0  0
  7 10  1  0  0  0  0
  7 12  2  0  0  0  0
  7 13  1  0  0  0  0
  8 10  1  0  0  0  0
  9 10  1  0  0  0  0
  9 11  2  0  0  0  0
 11 12  1  0  0  0  0
M  CHG  1  12   1
A    1
C1
A    2
C2
A    3
C3
A    4
C4
A    5
C5
A    6
C6
A    7
C7
A    8
C8
A    9
C9
A   10
N1
A   11
N2
A   12
N3
A   13
S
M  END
>  <InstanceId>
5EQ1_BEA_A_801

>  <ChemCompId>
BEA

>  <PdbId>
5EQ1

>  <ChainId>
A

>  <ResidueNumber>
801

>  <InsertionCode>


>  <Model>
1

>  <AltIds>


>  <MissingHeavyAtoms>
0

>  <ObservedFormula>
C9 N3 S

>  <Name>
5-METHYL-1,2,4-TRIAZOLO[3,4-B]BENZOTHIAZOLE

>  <SystematicName>
8-methyl-[1,2,4]triazolo[3,4-b][1,3]benzothiazol-3-ium

>  <Synonyms>
TRICYCLAZOLE

>  <Type>
NON-POLYMER

>  <Formula>
C9 H8 N3 S

>  <MolecularWeight>
190.245

>  <ModifiedDate>
2011-06-04

>  <Parent>


>  <OneLetterCode>


>  <SubcomponentList>


>  <AmbiguousFlag>
N

>  <InChI>
InChI=1S/C9H7N3S/c1-6-3-2-4-7-8(6)12-5-10-11-9(12)13-7/h2-5H,1H3/p+1

>  <InChIKey>
DQJCHOQLCLEDLL-UHFFFAOYSA-O

>  <SMILES>
Cc1cccc2c1n3cn[nH+]c3s2

$$$$
