1HOS_PHP_A_400
  RCSB PDB12061702453D
Coordinates from PDB:1HOS:A:400 Model:1 without hydrogens
 55 58  0  0  0  0            999 V2000
  -11.8060   14.2810   32.9730   C 0  0  0  0  0  0  0  0  0  0  0  0
  -12.5370   15.2660   33.2010   O 0  0  0  0  0  0  0  0  0  0  0  0
  -12.1400   13.0310   33.3080   O 0  0  0  0  0  0  0  0  0  0  0  0
  -13.5450   12.6790   33.3440   C 0  0  0  0  0  0  0  0  0  0  0  0
  -13.6900   11.1780   33.2350   C 0  0  0  0  0  0  0  0  0  0  0  0
  -12.8830   10.4570   32.3670   C 0  0  0  0  0  0  0  0  0  0  0  0
  -14.6320   10.5430   34.0160   C 0  0  0  0  0  0  0  0  0  0  0  0
  -13.0240    9.0890   32.2790   C 0  0  0  0  0  0  0  0  0  0  0  0
  -14.7660    9.1800   33.9230   C 0  0  0  0  0  0  0  0  0  0  0  0
  -13.9670    8.4550   33.0610   C 0  0  0  0  0  0  0  0  0  0  0  0
  -10.6320   14.4110   32.3710   N 0  0  0  0  0  0  0  0  0  0  0  0
  -10.1320   15.6830   31.9370   C 0  0  0  0  0  0  0  0  0  0  0  0
   -8.8190   16.0070   32.6870   C 0  0  0  0  0  0  0  0  0  0  0  0
   -8.1430   17.1840   32.0580   C 0  0  0  0  0  0  0  0  0  0  0  0
   -9.1020   16.5270   34.1000   C 0  0  0  0  0  0  0  0  0  0  0  0
   -9.9450   15.3550   30.4590   C 0  0  0  0  0  0  0  0  0  0  0  0
   -9.1700   14.4630   30.1010   O 0  0  0  0  0  0  0  0  0  0  0  0
  -10.6720   16.0660   29.5990   N 0  0  0  0  0  0  0  0  0  0  0  0
  -10.6500   15.9040   28.1450   C 0  0  0  0  0  0  0  0  0  0  0  0
  -12.0690   15.6350   27.5810   C 0  0  0  0  0  0  0  0  0  0  0  0
  -12.7020   14.4350   28.2690   C 0  0  0  0  0  0  0  0  0  0  0  0
  -13.8110   14.6140   29.0700   C 0  0  0  0  0  0  0  0  0  0  0  0
  -12.1110   13.1780   28.1650   C 0  0  0  0  0  0  0  0  0  0  0  0
  -14.3120   13.5420   29.7680   C 0  0  0  0  0  0  0  0  0  0  0  0
  -12.6260   12.1100   28.8710   C 0  0  0  0  0  0  0  0  0  0  0  0
  -13.7230   12.3040   29.6690   C 0  0  0  0  0  0  0  0  0  0  0  0
  -10.1060   17.5440   27.6070   P 0  0  0  0  0  0  0  0  0  0  0  0
  -10.3760   18.5240   28.6760   O 0  0  0  0  0  0  0  0  0  0  0  0
  -10.8580   18.0890   26.4480   O 0  0  0  0  0  0  0  0  0  0  0  0
   -8.3910   17.3450   25.6990   N 0  0  0  0  0  0  0  0  0  0  0  0
   -8.3750   17.3260   27.1500   C 0  0  0  0  0  0  0  0  0  0  0  0
   -7.5110   18.4950   27.6650   C 0  0  0  0  0  0  0  0  0  0  0  0
   -6.0630   18.2030   27.3040   C 0  0  0  0  0  0  0  0  0  0  0  0
   -5.4620   18.8730   26.2520   C 0  0  0  0  0  0  0  0  0  0  0  0
   -5.3910   17.1840   27.9520   C 0  0  0  0  0  0  0  0  0  0  0  0
   -4.2000   18.4990   25.8480   C 0  0  0  0  0  0  0  0  0  0  0  0
   -4.1320   16.8220   27.5380   C 0  0  0  0  0  0  0  0  0  0  0  0
   -3.5410   17.4760   26.4840   C 0  0  0  0  0  0  0  0  0  0  0  0
   -6.6320   16.6110   23.1420   N 0  0  0  0  0  0  0  0  0  0  0  0
   -8.0490   16.4870   23.4280   C 0  0  0  0  0  0  0  0  0  0  0  0
   -8.7050   15.2370   22.8400   C 0  0  0  0  0  0  0  0  0  0  0  0
  -10.1970   15.3290   23.1230   C 0  0  0  0  0  0  0  0  0  0  0  0
   -8.5050   15.1430   21.3500   C 0  0  0  0  0  0  0  0  0  0  0  0
   -7.9900   16.3320   24.9310   C 0  0  0  0  0  0  0  0  0  0  0  0
   -7.5580   15.2850   25.4050   O 0  0  0  0  0  0  0  0  0  0  0  0
   -3.9600   16.8860   21.6550   C 0  0  0  0  0  0  0  0  0  0  0  0
   -2.5840   16.8520   22.3450   C 0  0  0  0  0  0  0  0  0  0  0  0
   -2.0150   18.0070   22.8560   C 0  0  0  0  0  0  0  0  0  0  0  0
   -0.7700   17.9660   23.4600   C 0  0  0  0  0  0  0  0  0  0  0  0
   -0.6390   15.6240   23.0590   C 0  0  0  0  0  0  0  0  0  0  0  0
   -1.8820   15.6630   22.4540   C 0  0  0  0  0  0  0  0  0  0  0  0
   -0.0770   16.7810   23.5640   C 0  0  0  0  0  0  0  0  0  0  0  0
   -4.8250   17.8490   22.3380   O 0  0  0  0  0  0  0  0  0  0  0  0
   -6.1340   17.7180   22.5890   C 0  0  0  0  0  0  0  0  0  0  0  0
   -6.8680   18.6750   22.2980   O 0  0  0  0  0  0  0  0  0  0  0  0
  1  2  2  0  0  0  0
  1  3  1  0  0  0  0
  1 11  1  0  0  0  0
  3  4  1  0  0  0  0
  4  5  1  0  0  0  0
  5  6  2  0  0  0  0
  5  7  1  0  0  0  0
  6  8  1  0  0  0  0
  7  9  2  0  0  0  0
  8 10  2  0  0  0  0
  9 10  1  0  0  0  0
 11 12  1  0  0  0  0
 12 13  1  0  0  0  0
 12 16  1  0  0  0  0
 13 14  1  0  0  0  0
 13 15  1  0  0  0  0
 16 17  2  0  0  0  0
 16 18  1  0  0  0  0
 18 19  1  0  0  0  0
 19 20  1  0  0  0  0
 19 27  1  0  0  0  0
 20 21  1  0  0  0  0
 21 22  2  0  0  0  0
 21 23  1  0  0  0  0
 22 24  1  0  0  0  0
 23 25  2  0  0  0  0
 24 26  2  0  0  0  0
 25 26  1  0  0  0  0
 27 28  2  0  0  0  0
 27 29  1  0  0  0  0
 27 31  1  0  0  0  0
 30 31  1  0  0  0  0
 30 44  1  0  0  0  0
 31 32  1  0  0  0  0
 32 33  1  0  0  0  0
 33 34  2  0  0  0  0
 33 35  1  0  0  0  0
 34 36  1  0  0  0  0
 35 37  2  0  0  0  0
 36 38  2  0  0  0  0
 37 38  1  0  0  0  0
 39 40  1  0  0  0  0
 39 54  1  0  0  0  0
 40 41  1  0  0  0  0
 40 44  1  0  0  0  0
 41 42  1  0  0  0  0
 41 43  1  0  0  0  0
 44 45  2  0  0  0  0
 46 47  1  0  0  0  0
 46 53  1  0  0  0  0
 47 48  1  0  0  0  0
 47 51  2  0  0  0  0
 48 49  2  0  0  0  0
 49 52  1  0  0  0  0
 50 51  1  0  0  0  0
 50 52  2  0  0  0  0
 53 54  1  0  0  0  0
 54 55  2  0  0  0  0
A    1
C1
A    2
O1
A    3
OA1
A    4
CB1
A    5
CG1
A    6
CDB
A    7
CDL
A    8
CEB
A    9
CEL
A   10
CZ1
A   11
N2
A   12
CA2
A   13
CB2
A   14
CGL
A   15
CGM
A   16
C2
A   17
O2
A   18
N3
A   19
CA3
A   20
CB3
A   21
CG3
A   22
CDD
A   23
CDN
A   24
CED
A   25
CEN
A   26
CZ3
A   27
P3
A   28
O3
A   29
O3'
A   30
N4
A   31
CA4
A   32
CB4
A   33
CG4
A   34
CDE
A   35
CDO
A   36
CEE
A   37
CEO
A   38
CZ4
A   39
N5
A   40
CA5
A   41
CB5
A   42
CGF
A   43
CGG
A   44
C5
A   45
O5
A   46
CB6
A   47
CG6
A   48
CDG
A   49
CEG
A   50
CEQ
A   51
CDQ
A   52
CZ6
A   53
OA6
A   54
C6
A   55
O6
M  END
>  <InstanceId>
1HOS_PHP_A_400

>  <ChemCompId>
PHP

>  <PdbId>
1HOS

>  <ChainId>
A

>  <ResidueNumber>
400

>  <InsertionCode>


>  <Model>
1

>  <AltIds>


>  <MissingHeavyAtoms>
0

>  <ObservedFormula>
C42 N4 O8 P

>  <Name>
(2-PHENYL-1-CARBOBENZYL-OXYVALYL-AMINO)-ETHYL-PHOSPHINIC ACID

>  <SystematicName>
bis[(1R)-1-[[(2S)-3-methyl-2-phenylmethoxycarbonylamino-butanoyl]amino]-2-phenyl-ethyl]phosphinic acid

>  <Synonyms>


>  <Type>
NON-POLYMER

>  <Formula>
C42 H51 N4 O8 P

>  <MolecularWeight>
770.85

>  <ModifiedDate>
2011-06-04

>  <Parent>


>  <OneLetterCode>


>  <SubcomponentList>


>  <AmbiguousFlag>
N

>  <InChI>
InChI=1S/C42H51N4O8P/c1-29(2)37(45-41(49)53-27-33-21-13-7-14-22-33)39(47)43-35(25-31-17-9-5-10-18-31)55(51,52)36(26-32-19-11-6-12-20-32)44-40(48)38(30(3)4)46-42(50)54-28-34-23-15-8-16-24-34/h5-24,29-30,35-38H,25-28H2,1-4H3,(H,43,47)(H,44,48)(H,45,49)(H,46,50)(H,51,52)/t35-,36-,37+,38+/m1/s1

>  <InChIKey>
NKLAQVJZOVABOV-RNATXAOGSA-N

>  <SMILES>
CC(C)[C@@H](C(=O)N[C@@H](Cc1ccccc1)P(=O)([C@H](Cc2ccccc2)NC(=O)[C@H](C(C)C)NC(=O)OCc3ccccc3)O)NC(=O)OCc4ccccc4

$$$$
