1HOS_PHP_A_400


 60 63  0  0  0  0  0  0  0  0999 V2000
  -10.1032   17.6685   28.0047 P   0  0  0  0  0  0  0  0  0  0  0  0
  -10.2632   18.4324   29.2564 O   0  0  0  0  0  0  0  0  0  0  0  0
  -10.8863   18.4592   27.0212 O   0  0  0  0  0  0  0  0  0  0  0  0
  -11.7955   18.5654   27.3422 H   0  0  0  0  0  0  0  0  0  0  0  0
   -8.4131   17.4718   27.4065 C   0  0  0  0  0  0  0  0  0  0  0  0
   -8.5498   17.4809   25.9618 N   0  0  0  0  0  0  0  0  0  0  0  0
   -8.3471   16.4188   25.1823 C   0  0  0  0  0  0  0  0  0  0  0  0
   -8.0124   15.3291   25.6383 O   0  0  0  0  0  0  0  0  0  0  0  0
   -8.8092   18.3265   25.5294 H   0  0  0  0  0  0  0  0  0  0  0  0
   -8.5135   16.5680   23.6868 C   0  0  0  0  0  0  0  0  0  0  0  0
   -7.1208   16.5220   23.2828 N   0  0  0  0  0  0  0  0  0  0  0  0
   -6.5282   17.5800   22.7272 C   0  0  0  0  0  0  0  0  0  0  0  0
   -7.1511   18.6356   22.5346 O   0  0  0  0  0  0  0  0  0  0  0  0
   -6.6040   15.6955   23.4213 H   0  0  0  0  0  0  0  0  0  0  0  0
   -5.2384   17.5533   22.3677 O   0  0  0  0  0  0  0  0  0  0  0  0
   -4.4083   18.6964   21.9852 C   0  0  0  0  0  0  0  0  0  0  0  0
   -3.0154   18.5571   22.6264 C   0  0  0  0  0  0  0  0  0  0  0  0
   -2.2681   19.6760   22.9558 C   0  0  0  0  0  0  0  0  0  0  0  0
   -1.0103   19.5373   23.5173 C   0  0  0  0  0  0  0  0  0  0  0  0
   -1.2213   17.1684   23.4348 C   0  0  0  0  0  0  0  0  0  0  0  0
   -2.4774   17.3048   22.8725 C   0  0  0  0  0  0  0  0  0  0  0  0
   -0.4809   18.2895   23.7582 C   0  0  0  0  0  0  0  0  0  0  0  0
   -9.3579   15.3994   23.1770 C   0  0  0  0  0  0  0  0  0  0  0  0
  -10.8159   15.7361   23.4520 C   0  0  0  0  0  0  0  0  0  0  0  0
   -9.1872   15.1842   21.6959 C   0  0  0  0  0  0  0  0  0  0  0  0
   -7.5264   18.6561   27.8416 C   0  0  0  0  0  0  0  0  0  0  0  0
   -6.1131   18.3909   27.3468 C   0  0  0  0  0  0  0  0  0  0  0  0
   -5.5481   19.2145   26.3882 C   0  0  0  0  0  0  0  0  0  0  0  0
   -5.4442   17.2580   27.7697 C   0  0  0  0  0  0  0  0  0  0  0  0
   -4.3260   18.8810   25.8488 C   0  0  0  0  0  0  0  0  0  0  0  0
   -4.2252   16.9380   27.2228 C   0  0  0  0  0  0  0  0  0  0  0  0
   -3.6708   17.7466   26.2601 C   0  0  0  0  0  0  0  0  0  0  0  0
  -10.7035   15.9793   28.2517 C   0  0  0  0  0  0  0  0  0  0  0  0
   -9.9469   15.2604   30.5019 C   0  0  0  0  0  0  0  0  0  0  0  0
   -8.9805   14.6269   30.0669 O   0  0  0  0  0  0  0  0  0  0  0  0
  -10.7964   15.9127   29.7103 N   0  0  0  0  0  0  0  0  0  0  0  0
  -11.5447   16.3867   30.1399 H   0  0  0  0  0  0  0  0  0  0  0  0
  -10.2388   15.3134   31.9983 C   0  0  0  0  0  0  0  0  0  0  0  0
  -12.4748   14.6481   32.6299 C   0  0  0  0  0  0  0  0  0  0  0  0
  -12.6725   15.7384   33.2034 O   0  0  0  0  0  0  0  0  0  0  0  0
  -11.3231   14.3757   32.0323 N   0  0  0  0  0  0  0  0  0  0  0  0
  -11.2085   13.5000   31.5973 H   0  0  0  0  0  0  0  0  0  0  0  0
  -13.3931   13.6791   32.5675 O   0  0  0  0  0  0  0  0  0  0  0  0
  -14.6318   13.8551   33.2982 C   0  0  0  0  0  0  0  0  0  0  0  0
  -15.7319   14.2431   32.3364 C   0  0  0  0  0  0  0  0  0  0  0  0
  -16.7476   13.3476   32.0350 C   0  0  0  0  0  0  0  0  0  0  0  0
  -15.7082   15.5008   31.7722 C   0  0  0  0  0  0  0  0  0  0  0  0
  -17.7455   13.7148   31.1584 C   0  0  0  0  0  0  0  0  0  0  0  0
  -16.7061   15.8593   30.9003 C   0  0  0  0  0  0  0  0  0  0  0  0
  -17.7205   14.9735   30.5946 C   0  0  0  0  0  0  0  0  0  0  0  0
   -9.0832   14.8020   32.8896 C   0  0  0  0  0  0  0  0  0  0  0  0
   -8.0742   15.8866   33.0982 C   0  0  0  0  0  0  0  0  0  0  0  0
   -9.5618   14.5403   34.3211 C   0  0  0  0  0  0  0  0  0  0  0  0
  -12.0967   15.8386   27.5859 C   0  0  0  0  0  0  0  0  0  0  0  0
  -12.7194   14.4921   27.9223 C   0  0  0  0  0  0  0  0  0  0  0  0
  -13.7196   14.4203   28.8699 C   0  0  0  0  0  0  0  0  0  0  0  0
  -12.2196   13.3274   27.3446 C   0  0  0  0  0  0  0  0  0  0  0  0
  -14.2026   13.1887   29.2406 C   0  0  0  0  0  0  0  0  0  0  0  0
  -12.7154   12.0973   27.7258 C   0  0  0  0  0  0  0  0  0  0  0  0
  -13.7031   12.0404   28.6740 C   0  0  0  0  0  0  0  0  0  0  0  0
 39 40  2  0  0  0
 39 43  1  0  0  0
 39 41  1  0  0  0
 43 44  1  0  0  0
 44 45  1  0  0  0
 45 46  2  0  0  0
 45 47  1  0  0  0
 46 48  1  0  0  0
 47 49  2  0  0  0
 48 50  2  0  0  0
 49 50  1  0  0  0
 41 38  1  0  0  0
 38 51  1  0  0  0
 38 34  1  0  0  0
 51 52  1  0  0  0
 51 53  1  0  0  0
 34 35  2  0  0  0
 34 36  1  0  0  0
 36 33  1  0  0  0
 33 54  1  0  0  0
 33  1  1  0  0  0
 54 55  1  0  0  0
 55 56  2  0  0  0
 55 57  1  0  0  0
 56 58  1  0  0  0
 57 59  2  0  0  0
 58 60  2  0  0  0
 59 60  1  0  0  0
  1  2  2  0  0  0
  1  3  1  0  0  0
  1  5  1  0  0  0
  6  5  1  0  0  0
  6  7  1  0  0  0
  5 26  1  0  0  0
 26 27  1  0  0  0
 27 28  2  0  0  0
 27 29  1  0  0  0
 28 30  1  0  0  0
 29 31  2  0  0  0
 30 32  2  0  0  0
 31 32  1  0  0  0
 11 10  1  0  0  0
 11 12  1  0  0  0
 10 23  1  0  0  0
 10  7  1  0  0  0
 23 24  1  0  0  0
 23 25  1  0  0  0
  7  8  2  0  0  0
 16 17  1  0  0  0
 16 15  1  0  0  0
 17 18  1  0  0  0
 17 21  2  0  0  0
 18 19  2  0  0  0
 19 22  1  0  0  0
 20 21  1  0  0  0
 20 22  2  0  0  0
 15 12  1  0  0  0
 12 13  2  0  0  0
 41 42  1  0  0  0
 36 37  1  0  0  0
  3  4  1  0  0  0
  6  9  1  0  0  0
 11 14  1  0  0  0
M  END
> <minimizedAffinity>
-10.64931

$$$$
1HOS_PHP_A_400


 60 63  0  0  0  0  0  0  0  0999 V2000
  -10.1556   17.6935   27.9137 P   0  0  0  0  0  0  0  0  0  0  0  0
  -10.8675   18.5475   26.9442 O   0  0  0  0  0  0  0  0  0  0  0  0
  -10.2159   18.4824   29.1706 O   0  0  0  0  0  0  0  0  0  0  0  0
   -9.8366   19.3622   29.0186 H   0  0  0  0  0  0  0  0  0  0  0  0
  -10.8611   16.0581   28.1976 C   0  0  0  0  0  0  0  0  0  0  0  0
  -10.9850   15.9761   29.6411 N   0  0  0  0  0  0  0  0  0  0  0  0
  -10.1193   15.3443   30.4337 C   0  0  0  0  0  0  0  0  0  0  0  0
   -9.1332   14.7625   29.9903 O   0  0  0  0  0  0  0  0  0  0  0  0
  -11.7586   16.4157   30.0624 H   0  0  0  0  0  0  0  0  0  0  0  0
  -10.3729   15.3257   31.9243 C   0  0  0  0  0  0  0  0  0  0  0  0
  -11.4009   14.3035   31.9818 N   0  0  0  0  0  0  0  0  0  0  0  0
  -12.5054   14.4759   32.7095 C   0  0  0  0  0  0  0  0  0  0  0  0
  -12.6864   15.5146   33.3634 O   0  0  0  0  0  0  0  0  0  0  0  0
  -11.2810   13.4680   31.4750 H   0  0  0  0  0  0  0  0  0  0  0  0
  -13.4681   13.5459   32.7544 O   0  0  0  0  0  0  0  0  0  0  0  0
  -14.7796   13.6681   33.3925 C   0  0  0  0  0  0  0  0  0  0  0  0
  -15.8007   14.1998   32.3702 C   0  0  0  0  0  0  0  0  0  0  0  0
  -16.8482   13.4066   31.9315 C   0  0  0  0  0  0  0  0  0  0  0  0
  -17.7505   13.8909   31.0000 C   0  0  0  0  0  0  0  0  0  0  0  0
  -16.5835   15.9636   30.9290 C   0  0  0  0  0  0  0  0  0  0  0  0
  -15.6802   15.4813   31.8584 C   0  0  0  0  0  0  0  0  0  0  0  0
  -17.6243   15.1652   30.4944 C   0  0  0  0  0  0  0  0  0  0  0  0
   -9.0692   14.9509   32.6303 C   0  0  0  0  0  0  0  0  0  0  0  0
   -8.2887   16.2366   32.8594 C   0  0  0  0  0  0  0  0  0  0  0  0
   -9.3180   14.2975   33.9645 C   0  0  0  0  0  0  0  0  0  0  0  0
  -12.2594   15.9357   27.5587 C   0  0  0  0  0  0  0  0  0  0  0  0
  -12.8154   14.5636   27.9057 C   0  0  0  0  0  0  0  0  0  0  0  0
  -13.7770   14.4345   28.8934 C   0  0  0  0  0  0  0  0  0  0  0  0
  -12.2712   13.4384   27.3160 C   0  0  0  0  0  0  0  0  0  0  0  0
  -14.1675   13.1763   29.2934 C   0  0  0  0  0  0  0  0  0  0  0  0
  -12.6709   12.1893   27.7252 C   0  0  0  0  0  0  0  0  0  0  0  0
  -13.6138   12.0602   28.7162 C   0  0  0  0  0  0  0  0  0  0  0  0
   -8.4786   17.3734   27.3134 C   0  0  0  0  0  0  0  0  0  0  0  0
   -8.2410   16.5074   25.0011 C   0  0  0  0  0  0  0  0  0  0  0  0
   -7.6132   15.5037   25.3517 O   0  0  0  0  0  0  0  0  0  0  0  0
   -8.6723   17.4256   25.8641 N   0  0  0  0  0  0  0  0  0  0  0  0
   -9.1591   18.1992   25.4985 H   0  0  0  0  0  0  0  0  0  0  0  0
   -8.5439   16.7667   23.5287 C   0  0  0  0  0  0  0  0  0  0  0  0
   -6.6022   17.6705   22.4088 C   0  0  0  0  0  0  0  0  0  0  0  0
   -7.1708   18.7679   22.2382 O   0  0  0  0  0  0  0  0  0  0  0  0
   -7.2075   16.6614   23.0194 N   0  0  0  0  0  0  0  0  0  0  0  0
   -6.7232   15.8110   23.1269 H   0  0  0  0  0  0  0  0  0  0  0  0
   -5.3539   17.4238   22.0000 O   0  0  0  0  0  0  0  0  0  0  0  0
   -4.4921   18.5489   21.6990 C   0  0  0  0  0  0  0  0  0  0  0  0
   -3.1934   18.4047   22.4596 C   0  0  0  0  0  0  0  0  0  0  0  0
   -2.5125   19.5290   22.9035 C   0  0  0  0  0  0  0  0  0  0  0  0
   -2.7050   17.1395   22.7068 C   0  0  0  0  0  0  0  0  0  0  0  0
   -1.3310   19.3834   23.5976 C   0  0  0  0  0  0  0  0  0  0  0  0
   -1.5277   17.0028   23.3993 C   0  0  0  0  0  0  0  0  0  0  0  0
   -0.8435   18.1168   23.8441 C   0  0  0  0  0  0  0  0  0  0  0  0
   -9.4374   15.6930   22.8652 C   0  0  0  0  0  0  0  0  0  0  0  0
  -10.6993   15.5162   23.6491 C   0  0  0  0  0  0  0  0  0  0  0  0
   -9.9737   16.1764   21.5140 C   0  0  0  0  0  0  0  0  0  0  0  0
   -7.5439   18.5091   27.8037 C   0  0  0  0  0  0  0  0  0  0  0  0
   -6.1153   18.2666   27.3407 C   0  0  0  0  0  0  0  0  0  0  0  0
   -5.5357   19.1302   26.4342 C   0  0  0  0  0  0  0  0  0  0  0  0
   -5.4291   17.1288   27.7586 C   0  0  0  0  0  0  0  0  0  0  0  0
   -4.2842   18.8449   25.9446 C   0  0  0  0  0  0  0  0  0  0  0  0
   -4.1720   16.8557   27.2592 C   0  0  0  0  0  0  0  0  0  0  0  0
   -3.6118   17.7179   26.3533 C   0  0  0  0  0  0  0  0  0  0  0  0
 39 40  2  0  0  0
 39 43  1  0  0  0
 39 41  1  0  0  0
 43 44  1  0  0  0
 44 45  1  0  0  0
 45 46  2  0  0  0
 45 47  1  0  0  0
 46 48  1  0  0  0
 47 49  2  0  0  0
 48 50  2  0  0  0
 49 50  1  0  0  0
 41 38  1  0  0  0
 38 51  1  0  0  0
 38 34  1  0  0  0
 51 52  1  0  0  0
 51 53  1  0  0  0
 34 35  2  0  0  0
 34 36  1  0  0  0
 36 33  1  0  0  0
 33 54  1  0  0  0
 33  1  1  0  0  0
 54 55  1  0  0  0
 55 56  2  0  0  0
 55 57  1  0  0  0
 56 58  1  0  0  0
 57 59  2  0  0  0
 58 60  2  0  0  0
 59 60  1  0  0  0
  1  2  2  0  0  0
  1  3  1  0  0  0
  1  5  1  0  0  0
  6  5  1  0  0  0
  6  7  1  0  0  0
  5 26  1  0  0  0
 26 27  1  0  0  0
 27 28  2  0  0  0
 27 29  1  0  0  0
 28 30  1  0  0  0
 29 31  2  0  0  0
 30 32  2  0  0  0
 31 32  1  0  0  0
 11 10  1  0  0  0
 11 12  1  0  0  0
 10 23  1  0  0  0
 10  7  1  0  0  0
 23 24  1  0  0  0
 23 25  1  0  0  0
  7  8  2  0  0  0
 16 17  1  0  0  0
 16 15  1  0  0  0
 17 18  1  0  0  0
 17 21  2  0  0  0
 18 19  2  0  0  0
 19 22  1  0  0  0
 20 21  1  0  0  0
 20 22  2  0  0  0
 15 12  1  0  0  0
 12 13  2  0  0  0
 41 42  1  0  0  0
 36 37  1  0  0  0
  3  4  1  0  0  0
  6  9  1  0  0  0
 11 14  1  0  0  0
M  END
> <minimizedAffinity>
-10.37992

$$$$
1HOS_PHP_A_400


 60 63  0  0  0  0  0  0  0  0999 V2000
   -9.8435   17.3981   27.7212 P   0  0  0  0  0  0  0  0  0  0  0  0
   -8.9905   17.9542   28.7886 O   0  0  0  0  0  0  0  0  0  0  0  0
  -10.7594   18.5216   27.3978 O   0  0  0  0  0  0  0  0  0  0  0  0
  -11.2174   18.8077   28.2036 H   0  0  0  0  0  0  0  0  0  0  0  0
   -8.9927   16.8672   26.2222 C   0  0  0  0  0  0  0  0  0  0  0  0
   -7.5860   16.9594   26.5668 N   0  0  0  0  0  0  0  0  0  0  0  0
   -6.6342   17.3727   25.7301 C   0  0  0  0  0  0  0  0  0  0  0  0
   -6.8809   17.7058   24.5744 O   0  0  0  0  0  0  0  0  0  0  0  0
   -7.3172   16.6999   27.4777 H   0  0  0  0  0  0  0  0  0  0  0  0
   -5.2022   17.4112   26.2145 C   0  0  0  0  0  0  0  0  0  0  0  0
   -4.5963   18.1449   25.1192 N   0  0  0  0  0  0  0  0  0  0  0  0
   -3.5229   17.6732   24.4830 C   0  0  0  0  0  0  0  0  0  0  0  0
   -3.0065   16.5939   24.8110 O   0  0  0  0  0  0  0  0  0  0  0  0
   -4.9841   19.0059   24.8407 H   0  0  0  0  0  0  0  0  0  0  0  0
   -2.9675   18.3343   23.4592 O   0  0  0  0  0  0  0  0  0  0  0  0
   -3.6662   19.0794   22.4111 C   0  0  0  0  0  0  0  0  0  0  0  0
   -4.4312   18.0970   21.5054 C   0  0  0  0  0  0  0  0  0  0  0  0
   -3.7681   17.0808   20.8371 C   0  0  0  0  0  0  0  0  0  0  0  0
   -4.4650   16.2137   20.0131 C   0  0  0  0  0  0  0  0  0  0  0  0
   -6.4940   17.3540   20.5087 C   0  0  0  0  0  0  0  0  0  0  0  0
   -5.7996   18.2222   21.3312 C   0  0  0  0  0  0  0  0  0  0  0  0
   -5.8249   16.3444   19.8435 C   0  0  0  0  0  0  0  0  0  0  0  0
   -5.1675   18.1399   27.5585 C   0  0  0  0  0  0  0  0  0  0  0  0
   -3.8229   17.8412   28.2045 C   0  0  0  0  0  0  0  0  0  0  0  0
   -5.2996   19.6315   27.3949 C   0  0  0  0  0  0  0  0  0  0  0  0
   -9.3368   15.4048   25.8741 C   0  0  0  0  0  0  0  0  0  0  0  0
   -9.5569   15.3192   24.3720 C   0  0  0  0  0  0  0  0  0  0  0  0
   -8.5074   14.9785   23.5357 C   0  0  0  0  0  0  0  0  0  0  0  0
  -10.7741   15.6984   23.8386 C   0  0  0  0  0  0  0  0  0  0  0  0
   -8.6847   15.0420   22.1718 C   0  0  0  0  0  0  0  0  0  0  0  0
  -10.9363   15.7567   22.4755 C   0  0  0  0  0  0  0  0  0  0  0  0
   -9.8906   15.4338   21.6449 C   0  0  0  0  0  0  0  0  0  0  0  0
  -10.6738   15.9101   28.3307 C   0  0  0  0  0  0  0  0  0  0  0  0
  -10.2219   15.3616   30.7072 C   0  0  0  0  0  0  0  0  0  0  0  0
   -9.6737   14.2874   30.4424 O   0  0  0  0  0  0  0  0  0  0  0  0
  -10.7166   16.1684   29.7702 N   0  0  0  0  0  0  0  0  0  0  0  0
  -11.1442   17.0032   30.0693 H   0  0  0  0  0  0  0  0  0  0  0  0
  -10.3851   15.8219   32.1523 C   0  0  0  0  0  0  0  0  0  0  0  0
  -12.2583   14.7086   33.1976 C   0  0  0  0  0  0  0  0  0  0  0  0
  -12.8913   15.7805   33.2805 O   0  0  0  0  0  0  0  0  0  0  0  0
  -11.0437   14.6575   32.6688 N   0  0  0  0  0  0  0  0  0  0  0  0
  -10.5782   13.7910   32.6293 H   0  0  0  0  0  0  0  0  0  0  0  0
  -12.7440   13.5391   33.6251 O   0  0  0  0  0  0  0  0  0  0  0  0
  -14.1786   13.3382   33.6007 C   0  0  0  0  0  0  0  0  0  0  0  0
  -14.4980   12.0912   32.8075 C   0  0  0  0  0  0  0  0  0  0  0  0
  -15.7954   11.8431   32.3839 C   0  0  0  0  0  0  0  0  0  0  0  0
  -13.4775   11.2131   32.5106 C   0  0  0  0  0  0  0  0  0  0  0  0
  -16.0724   10.7038   31.6597 C   0  0  0  0  0  0  0  0  0  0  0  0
  -13.7614   10.0808   31.7883 C   0  0  0  0  0  0  0  0  0  0  0  0
  -15.0504    9.8261   31.3634 C   0  0  0  0  0  0  0  0  0  0  0  0
   -9.0514   16.0393   32.9044 C   0  0  0  0  0  0  0  0  0  0  0  0
   -8.2219   17.0639   32.1972 C   0  0  0  0  0  0  0  0  0  0  0  0
   -9.2841   16.7085   34.2627 C   0  0  0  0  0  0  0  0  0  0  0  0
  -12.0982   15.8443   27.7218 C   0  0  0  0  0  0  0  0  0  0  0  0
  -12.7358   14.4899   27.9918 C   0  0  0  0  0  0  0  0  0  0  0  0
  -13.6494   14.3577   29.0172 C   0  0  0  0  0  0  0  0  0  0  0  0
  -12.3312   13.3706   27.2681 C   0  0  0  0  0  0  0  0  0  0  0  0
  -14.1408   13.1107   29.3186 C   0  0  0  0  0  0  0  0  0  0  0  0
  -12.8344   12.1243   27.5813 C   0  0  0  0  0  0  0  0  0  0  0  0
  -13.7349   12.0066   28.6075 C   0  0  0  0  0  0  0  0  0  0  0  0
 39 40  2  0  0  0
 39 43  1  0  0  0
 39 41  1  0  0  0
 43 44  1  0  0  0
 44 45  1  0  0  0
 45 46  2  0  0  0
 45 47  1  0  0  0
 46 48  1  0  0  0
 47 49  2  0  0  0
 48 50  2  0  0  0
 49 50  1  0  0  0
 41 38  1  0  0  0
 38 51  1  0  0  0
 38 34  1  0  0  0
 51 52  1  0  0  0
 51 53  1  0  0  0
 34 35  2  0  0  0
 34 36  1  0  0  0
 36 33  1  0  0  0
 33 54  1  0  0  0
 33  1  1  0  0  0
 54 55  1  0  0  0
 55 56  2  0  0  0
 55 57  1  0  0  0
 56 58  1  0  0  0
 57 59  2  0  0  0
 58 60  2  0  0  0
 59 60  1  0  0  0
  1  2  2  0  0  0
  1  3  1  0  0  0
  1  5  1  0  0  0
  6  5  1  0  0  0
  6  7  1  0  0  0
  5 26  1  0  0  0
 26 27  1  0  0  0
 27 28  2  0  0  0
 27 29  1  0  0  0
 28 30  1  0  0  0
 29 31  2  0  0  0
 30 32  2  0  0  0
 31 32  1  0  0  0
 11 10  1  0  0  0
 11 12  1  0  0  0
 10 23  1  0  0  0
 10  7  1  0  0  0
 23 24  1  0  0  0
 23 25  1  0  0  0
  7  8  2  0  0  0
 16 17  1  0  0  0
 16 15  1  0  0  0
 17 18  1  0  0  0
 17 21  2  0  0  0
 18 19  2  0  0  0
 19 22  1  0  0  0
 20 21  1  0  0  0
 20 22  2  0  0  0
 15 12  1  0  0  0
 12 13  2  0  0  0
 41 42  1  0  0  0
 36 37  1  0  0  0
  3  4  1  0  0  0
  6  9  1  0  0  0
 11 14  1  0  0  0
M  END
> <minimizedAffinity>
-10.13796

$$$$
1HOS_PHP_A_400


 60 63  0  0  0  0  0  0  0  0999 V2000
   -8.7757   18.0214   28.2735 P   0  0  0  0  0  0  0  0  0  0  0  0
   -8.4675   18.5280   29.6242 O   0  0  0  0  0  0  0  0  0  0  0  0
   -9.5912   19.1111   27.6793 O   0  0  0  0  0  0  0  0  0  0  0  0
  -10.3538   19.2926   28.2506 H   0  0  0  0  0  0  0  0  0  0  0  0
   -7.3581   17.6850   27.2104 C   0  0  0  0  0  0  0  0  0  0  0  0
   -7.9311   17.5993   25.8798 N   0  0  0  0  0  0  0  0  0  0  0  0
   -8.0040   16.4763   25.1653 C   0  0  0  0  0  0  0  0  0  0  0  0
   -7.5732   15.4062   25.5858 O   0  0  0  0  0  0  0  0  0  0  0  0
   -8.2891   18.4240   25.4788 H   0  0  0  0  0  0  0  0  0  0  0  0
   -8.6172   16.5279   23.7841 C   0  0  0  0  0  0  0  0  0  0  0  0
   -7.4181   16.3760   22.9815 N   0  0  0  0  0  0  0  0  0  0  0  0
   -6.8538   17.4237   22.3789 C   0  0  0  0  0  0  0  0  0  0  0  0
   -7.3393   18.5607   22.4827 O   0  0  0  0  0  0  0  0  0  0  0  0
   -7.0139   15.4841   22.8798 H   0  0  0  0  0  0  0  0  0  0  0  0
   -5.7368   17.2966   21.6510 O   0  0  0  0  0  0  0  0  0  0  0  0
   -5.6370   17.2699   20.1911 C   0  0  0  0  0  0  0  0  0  0  0  0
   -4.3374   16.5550   19.7781 C   0  0  0  0  0  0  0  0  0  0  0  0
   -4.2464   15.8856   18.5688 C   0  0  0  0  0  0  0  0  0  0  0  0
   -3.0774   15.2331   18.2161 C   0  0  0  0  0  0  0  0  0  0  0  0
   -2.0697   15.9054   20.2644 C   0  0  0  0  0  0  0  0  0  0  0  0
   -3.2370   16.5567   20.6192 C   0  0  0  0  0  0  0  0  0  0  0  0
   -1.9876   15.2377   19.0573 C   0  0  0  0  0  0  0  0  0  0  0  0
   -9.6134   15.3748   23.6557 C   0  0  0  0  0  0  0  0  0  0  0  0
  -10.9859   15.9142   24.0300 C   0  0  0  0  0  0  0  0  0  0  0  0
   -9.6768   14.8381   22.2497 C   0  0  0  0  0  0  0  0  0  0  0  0
   -6.3417   18.8440   27.2533 C   0  0  0  0  0  0  0  0  0  0  0  0
   -5.1981   18.5005   26.3118 C   0  0  0  0  0  0  0  0  0  0  0  0
   -4.9379   19.3040   25.2148 C   0  0  0  0  0  0  0  0  0  0  0  0
   -4.4996   17.3213   26.4893 C   0  0  0  0  0  0  0  0  0  0  0  0
   -3.9932   18.9049   24.2961 C   0  0  0  0  0  0  0  0  0  0  0  0
   -3.5595   16.9361   25.5645 C   0  0  0  0  0  0  0  0  0  0  0  0
   -3.3117   17.7252   24.4673 C   0  0  0  0  0  0  0  0  0  0  0  0
   -9.6357   16.4349   28.4094 C   0  0  0  0  0  0  0  0  0  0  0  0
   -9.6195   15.4144   30.6702 C   0  0  0  0  0  0  0  0  0  0  0  0
   -8.9978   14.4120   30.3052 O   0  0  0  0  0  0  0  0  0  0  0  0
   -9.9553   16.3973   29.8367 N   0  0  0  0  0  0  0  0  0  0  0  0
  -10.4575   17.1574   30.2098 H   0  0  0  0  0  0  0  0  0  0  0  0
  -10.0647   15.5744   32.1205 C   0  0  0  0  0  0  0  0  0  0  0  0
  -12.2741   14.7836   32.6987 C   0  0  0  0  0  0  0  0  0  0  0  0
  -12.5506   15.8645   33.2570 O   0  0  0  0  0  0  0  0  0  0  0  0
  -11.0928   14.5748   32.1342 N   0  0  0  0  0  0  0  0  0  0  0  0
  -10.9155   13.7042   31.7102 H   0  0  0  0  0  0  0  0  0  0  0  0
  -13.1322   13.7618   32.6206 O   0  0  0  0  0  0  0  0  0  0  0  0
  -14.3816   13.8538   33.3484 C   0  0  0  0  0  0  0  0  0  0  0  0
  -15.5014   14.1777   32.3856 C   0  0  0  0  0  0  0  0  0  0  0  0
  -16.5599   13.2966   32.2195 C   0  0  0  0  0  0  0  0  0  0  0  0
  -15.4521   15.3633   31.6838 C   0  0  0  0  0  0  0  0  0  0  0  0
  -17.5752   13.6051   31.3402 C   0  0  0  0  0  0  0  0  0  0  0  0
  -16.4675   15.6637   30.8102 C   0  0  0  0  0  0  0  0  0  0  0  0
  -17.5245   14.7917   30.6387 C   0  0  0  0  0  0  0  0  0  0  0  0
   -8.9791   15.2155   33.1617 C   0  0  0  0  0  0  0  0  0  0  0  0
   -7.7200   15.9708   32.8749 C   0  0  0  0  0  0  0  0  0  0  0  0
   -9.3496   15.7416   34.5520 C   0  0  0  0  0  0  0  0  0  0  0  0
  -10.9187   16.4825   27.5401 C   0  0  0  0  0  0  0  0  0  0  0  0
  -11.7862   15.2593   27.7952 C   0  0  0  0  0  0  0  0  0  0  0  0
  -11.2838   14.0004   27.5375 C   0  0  0  0  0  0  0  0  0  0  0  0
  -13.1104   15.4137   28.1987 C   0  0  0  0  0  0  0  0  0  0  0  0
  -12.1089   12.9103   27.6727 C   0  0  0  0  0  0  0  0  0  0  0  0
  -13.9272   14.3094   28.3315 C   0  0  0  0  0  0  0  0  0  0  0  0
  -13.4172   13.0659   28.0645 C   0  0  0  0  0  0  0  0  0  0  0  0
 39 40  2  0  0  0
 39 43  1  0  0  0
 39 41  1  0  0  0
 43 44  1  0  0  0
 44 45  1  0  0  0
 45 46  2  0  0  0
 45 47  1  0  0  0
 46 48  1  0  0  0
 47 49  2  0  0  0
 48 50  2  0  0  0
 49 50  1  0  0  0
 41 38  1  0  0  0
 38 51  1  0  0  0
 38 34  1  0  0  0
 51 52  1  0  0  0
 51 53  1  0  0  0
 34 35  2  0  0  0
 34 36  1  0  0  0
 36 33  1  0  0  0
 33 54  1  0  0  0
 33  1  1  0  0  0
 54 55  1  0  0  0
 55 56  2  0  0  0
 55 57  1  0  0  0
 56 58  1  0  0  0
 57 59  2  0  0  0
 58 60  2  0  0  0
 59 60  1  0  0  0
  1  2  2  0  0  0
  1  3  1  0  0  0
  1  5  1  0  0  0
  6  5  1  0  0  0
  6  7  1  0  0  0
  5 26  1  0  0  0
 26 27  1  0  0  0
 27 28  2  0  0  0
 27 29  1  0  0  0
 28 30  1  0  0  0
 29 31  2  0  0  0
 30 32  2  0  0  0
 31 32  1  0  0  0
 11 10  1  0  0  0
 11 12  1  0  0  0
 10 23  1  0  0  0
 10  7  1  0  0  0
 23 24  1  0  0  0
 23 25  1  0  0  0
  7  8  2  0  0  0
 16 17  1  0  0  0
 16 15  1  0  0  0
 17 18  1  0  0  0
 17 21  2  0  0  0
 18 19  2  0  0  0
 19 22  1  0  0  0
 20 21  1  0  0  0
 20 22  2  0  0  0
 15 12  1  0  0  0
 12 13  2  0  0  0
 41 42  1  0  0  0
 36 37  1  0  0  0
  3  4  1  0  0  0
  6  9  1  0  0  0
 11 14  1  0  0  0
M  END
> <minimizedAffinity>
-9.68166

$$$$
1HOS_PHP_A_400


 60 63  0  0  0  0  0  0  0  0999 V2000
  -10.1966   17.5023   27.7574 P   0  0  0  0  0  0  0  0  0  0  0  0
  -11.1205   16.9251   26.7629 O   0  0  0  0  0  0  0  0  0  0  0  0
  -10.6518   18.9118   27.8669 O   0  0  0  0  0  0  0  0  0  0  0  0
  -10.6438   19.3233   26.9886 H   0  0  0  0  0  0  0  0  0  0  0  0
  -10.2120   16.7383   29.3911 C   0  0  0  0  0  0  0  0  0  0  0  0
  -11.0904   15.5939   29.2340 N   0  0  0  0  0  0  0  0  0  0  0  0
  -10.7209   14.4333   28.6924 C   0  0  0  0  0  0  0  0  0  0  0  0
   -9.5847   14.2441   28.2671 O   0  0  0  0  0  0  0  0  0  0  0  0
  -12.0195   15.6802   29.5479 H   0  0  0  0  0  0  0  0  0  0  0  0
  -11.7407   13.3227   28.5787 C   0  0  0  0  0  0  0  0  0  0  0  0
  -12.4838   13.5506   29.8038 N   0  0  0  0  0  0  0  0  0  0  0  0
  -12.9035   12.5320   30.5558 C   0  0  0  0  0  0  0  0  0  0  0  0
  -12.6750   11.3572   30.2288 O   0  0  0  0  0  0  0  0  0  0  0  0
  -12.6817   14.4731   30.0850 H   0  0  0  0  0  0  0  0  0  0  0  0
  -13.5742   12.7326   31.6976 O   0  0  0  0  0  0  0  0  0  0  0  0
  -13.6848   13.9870   32.4435 C   0  0  0  0  0  0  0  0  0  0  0  0
  -12.7646   13.9341   33.6768 C   0  0  0  0  0  0  0  0  0  0  0  0
  -12.4337   12.7253   34.2669 C   0  0  0  0  0  0  0  0  0  0  0  0
  -11.6181   12.6923   35.3851 C   0  0  0  0  0  0  0  0  0  0  0  0
  -11.4457   15.0654   35.3446 C   0  0  0  0  0  0  0  0  0  0  0  0
  -12.2614   15.1007   34.2283 C   0  0  0  0  0  0  0  0  0  0  0  0
  -11.1223   13.8557   35.9290 C   0  0  0  0  0  0  0  0  0  0  0  0
  -12.5499   13.5406   27.2994 C   0  0  0  0  0  0  0  0  0  0  0  0
  -13.1353   12.1957   26.8956 C   0  0  0  0  0  0  0  0  0  0  0  0
  -13.6816   14.5128   27.5066 C   0  0  0  0  0  0  0  0  0  0  0  0
   -8.8052   16.2493   29.7911 C   0  0  0  0  0  0  0  0  0  0  0  0
   -8.7226   16.2489   31.3095 C   0  0  0  0  0  0  0  0  0  0  0  0
   -8.3956   17.4116   31.9864 C   0  0  0  0  0  0  0  0  0  0  0  0
   -8.8574   15.0590   31.9993 C   0  0  0  0  0  0  0  0  0  0  0  0
   -8.1871   17.3634   33.3465 C   0  0  0  0  0  0  0  0  0  0  0  0
   -8.6467   15.0264   33.3565 C   0  0  0  0  0  0  0  0  0  0  0  0
   -8.3069   16.1767   34.0267 C   0  0  0  0  0  0  0  0  0  0  0  0
   -8.4935   17.3113   27.1761 C   0  0  0  0  0  0  0  0  0  0  0  0
   -8.3496   16.4355   24.8598 C   0  0  0  0  0  0  0  0  0  0  0  0
   -7.8550   15.3591   25.2079 O   0  0  0  0  0  0  0  0  0  0  0  0
   -8.6687   17.3955   25.7259 N   0  0  0  0  0  0  0  0  0  0  0  0
   -9.0521   18.2262   25.3623 H   0  0  0  0  0  0  0  0  0  0  0  0
   -8.6070   16.7390   23.3872 C   0  0  0  0  0  0  0  0  0  0  0  0
   -6.6123   17.7771   22.5013 C   0  0  0  0  0  0  0  0  0  0  0  0
   -7.1660   18.8949   22.4754 O   0  0  0  0  0  0  0  0  0  0  0  0
   -7.2502   16.6950   22.9251 N   0  0  0  0  0  0  0  0  0  0  0  0
   -6.7764   15.8320   22.9226 H   0  0  0  0  0  0  0  0  0  0  0  0
   -5.3488   17.5792   22.1132 O   0  0  0  0  0  0  0  0  0  0  0  0
   -4.4980   18.7359   21.9193 C   0  0  0  0  0  0  0  0  0  0  0  0
   -3.1664   18.4991   22.5950 C   0  0  0  0  0  0  0  0  0  0  0  0
   -2.3577   19.5706   22.9451 C   0  0  0  0  0  0  0  0  0  0  0  0
   -2.7767   17.2036   22.8598 C   0  0  0  0  0  0  0  0  0  0  0  0
   -1.1473   19.3409   23.5625 C   0  0  0  0  0  0  0  0  0  0  0  0
   -1.5698   16.9831   23.4756 C   0  0  0  0  0  0  0  0  0  0  0  0
   -0.7586   18.0441   23.8268 C   0  0  0  0  0  0  0  0  0  0  0  0
   -9.4398   15.6627   22.6527 C   0  0  0  0  0  0  0  0  0  0  0  0
  -10.8134   15.5842   23.2399 C   0  0  0  0  0  0  0  0  0  0  0  0
   -9.7396   16.0830   21.2103 C   0  0  0  0  0  0  0  0  0  0  0  0
   -7.6429   18.4899   27.7159 C   0  0  0  0  0  0  0  0  0  0  0  0
   -6.1827   18.3225   27.3238 C   0  0  0  0  0  0  0  0  0  0  0  0
   -5.6166   19.1907   26.4132 C   0  0  0  0  0  0  0  0  0  0  0  0
   -5.4478   17.2440   27.8107 C   0  0  0  0  0  0  0  0  0  0  0  0
   -4.3291   18.9685   25.9884 C   0  0  0  0  0  0  0  0  0  0  0  0
   -4.1551   17.0341   27.3760 C   0  0  0  0  0  0  0  0  0  0  0  0
   -3.6082   17.8997   26.4652 C   0  0  0  0  0  0  0  0  0  0  0  0
 39 40  2  0  0  0
 39 43  1  0  0  0
 39 41  1  0  0  0
 43 44  1  0  0  0
 44 45  1  0  0  0
 45 46  2  0  0  0
 45 47  1  0  0  0
 46 48  1  0  0  0
 47 49  2  0  0  0
 48 50  2  0  0  0
 49 50  1  0  0  0
 41 38  1  0  0  0
 38 51  1  0  0  0
 38 34  1  0  0  0
 51 52  1  0  0  0
 51 53  1  0  0  0
 34 35  2  0  0  0
 34 36  1  0  0  0
 36 33  1  0  0  0
 33 54  1  0  0  0
 33  1  1  0  0  0
 54 55  1  0  0  0
 55 56  2  0  0  0
 55 57  1  0  0  0
 56 58  1  0  0  0
 57 59  2  0  0  0
 58 60  2  0  0  0
 59 60  1  0  0  0
  1  2  2  0  0  0
  1  3  1  0  0  0
  1  5  1  0  0  0
  6  5  1  0  0  0
  6  7  1  0  0  0
  5 26  1  0  0  0
 26 27  1  0  0  0
 27 28  2  0  0  0
 27 29  1  0  0  0
 28 30  1  0  0  0
 29 31  2  0  0  0
 30 32  2  0  0  0
 31 32  1  0  0  0
 11 10  1  0  0  0
 11 12  1  0  0  0
 10 23  1  0  0  0
 10  7  1  0  0  0
 23 24  1  0  0  0
 23 25  1  0  0  0
  7  8  2  0  0  0
 16 17  1  0  0  0
 16 15  1  0  0  0
 17 18  1  0  0  0
 17 21  2  0  0  0
 18 19  2  0  0  0
 19 22  1  0  0  0
 20 21  1  0  0  0
 20 22  2  0  0  0
 15 12  1  0  0  0
 12 13  2  0  0  0
 41 42  1  0  0  0
 36 37  1  0  0  0
  3  4  1  0  0  0
  6  9  1  0  0  0
 11 14  1  0  0  0
M  END
> <minimizedAffinity>
-9.56784

$$$$
1HOS_PHP_A_400


 60 63  0  0  0  0  0  0  0  0999 V2000
   -9.8674   17.4235   27.6190 P   0  0  0  0  0  0  0  0  0  0  0  0
   -9.0707   18.0418   28.6955 O   0  0  0  0  0  0  0  0  0  0  0  0
  -10.8362   18.4896   27.2574 O   0  0  0  0  0  0  0  0  0  0  0  0
  -11.3273   18.7620   28.0482 H   0  0  0  0  0  0  0  0  0  0  0  0
   -8.9550   16.9179   26.1477 C   0  0  0  0  0  0  0  0  0  0  0  0
   -7.5714   16.8942   26.5849 N   0  0  0  0  0  0  0  0  0  0  0  0
   -6.5395   17.2707   25.8298 C   0  0  0  0  0  0  0  0  0  0  0  0
   -6.6848   17.6666   24.6767 O   0  0  0  0  0  0  0  0  0  0  0  0
   -7.3827   16.5797   27.4985 H   0  0  0  0  0  0  0  0  0  0  0  0
   -5.1438   17.1860   26.4054 C   0  0  0  0  0  0  0  0  0  0  0  0
   -4.3915   17.7468   25.2989 N   0  0  0  0  0  0  0  0  0  0  0  0
   -3.3197   17.1235   24.8069 C   0  0  0  0  0  0  0  0  0  0  0  0
   -2.9301   16.0462   25.2833 O   0  0  0  0  0  0  0  0  0  0  0  0
   -4.6770   18.6024   24.9042 H   0  0  0  0  0  0  0  0  0  0  0  0
   -2.6296   17.6241   23.7740 O   0  0  0  0  0  0  0  0  0  0  0  0
   -1.9488   18.9184   23.7160 C   0  0  0  0  0  0  0  0  0  0  0  0
   -0.4250   18.6978   23.7191 C   0  0  0  0  0  0  0  0  0  0  0  0
    0.4489   19.7667   23.8316 C   0  0  0  0  0  0  0  0  0  0  0  0
    1.8172   19.5567   23.8170 C   0  0  0  0  0  0  0  0  0  0  0  0
    1.4676   17.2147   23.5812 C   0  0  0  0  0  0  0  0  0  0  0  0
    0.1004   17.4224   23.5941 C   0  0  0  0  0  0  0  0  0  0  0  0
    2.3329   18.2865   23.6913 C   0  0  0  0  0  0  0  0  0  0  0  0
   -5.0995   18.0201   27.6864 C   0  0  0  0  0  0  0  0  0  0  0  0
   -3.7706   17.7353   28.3703 C   0  0  0  0  0  0  0  0  0  0  0  0
   -5.1846   19.4967   27.4012 C   0  0  0  0  0  0  0  0  0  0  0  0
   -9.3696   15.5038   25.6931 C   0  0  0  0  0  0  0  0  0  0  0  0
   -9.5386   15.5273   24.1821 C   0  0  0  0  0  0  0  0  0  0  0  0
  -10.7761   15.8056   23.6271 C   0  0  0  0  0  0  0  0  0  0  0  0
   -8.4832   15.1531   23.3722 C   0  0  0  0  0  0  0  0  0  0  0  0
  -10.9465   15.6854   22.2661 C   0  0  0  0  0  0  0  0  0  0  0  0
   -8.6682   15.0376   22.0157 C   0  0  0  0  0  0  0  0  0  0  0  0
   -9.9000   15.2986   21.4658 C   0  0  0  0  0  0  0  0  0  0  0  0
  -10.6284   15.9012   28.2343 C   0  0  0  0  0  0  0  0  0  0  0  0
   -9.8430   15.2694   30.5008 C   0  0  0  0  0  0  0  0  0  0  0  0
   -9.2526   14.2593   30.1062 O   0  0  0  0  0  0  0  0  0  0  0  0
  -10.5105   16.0801   29.6817 N   0  0  0  0  0  0  0  0  0  0  0  0
  -10.9593   16.8601   30.0809 H   0  0  0  0  0  0  0  0  0  0  0  0
   -9.8587   15.6391   31.9807 C   0  0  0  0  0  0  0  0  0  0  0  0
  -11.7749   14.6153   33.0396 C   0  0  0  0  0  0  0  0  0  0  0  0
  -12.3287   15.7239   33.1838 O   0  0  0  0  0  0  0  0  0  0  0  0
  -10.5823   14.5026   32.4717 N   0  0  0  0  0  0  0  0  0  0  0  0
  -10.1798   13.6084   32.3840 H   0  0  0  0  0  0  0  0  0  0  0  0
  -12.3288   13.4655   33.4363 O   0  0  0  0  0  0  0  0  0  0  0  0
  -13.5369   13.5215   34.2342 C   0  0  0  0  0  0  0  0  0  0  0  0
  -14.7251   13.1569   33.3733 C   0  0  0  0  0  0  0  0  0  0  0  0
  -15.4901   14.1493   32.7779 C   0  0  0  0  0  0  0  0  0  0  0  0
  -15.0280   11.8247   33.1886 C   0  0  0  0  0  0  0  0  0  0  0  0
  -16.5692   13.8031   31.9938 C   0  0  0  0  0  0  0  0  0  0  0  0
  -16.1042   11.4881   32.4057 C   0  0  0  0  0  0  0  0  0  0  0  0
  -16.8711   12.4698   31.8099 C   0  0  0  0  0  0  0  0  0  0  0  0
   -8.4600   15.6868   32.6386 C   0  0  0  0  0  0  0  0  0  0  0  0
   -7.5418   16.5526   31.8354 C   0  0  0  0  0  0  0  0  0  0  0  0
   -8.5023   16.4319   33.9765 C   0  0  0  0  0  0  0  0  0  0  0  0
  -12.1118   15.8634   27.7847 C   0  0  0  0  0  0  0  0  0  0  0  0
  -12.7251   14.5009   28.0700 C   0  0  0  0  0  0  0  0  0  0  0  0
  -13.5579   14.3417   29.1584 C   0  0  0  0  0  0  0  0  0  0  0  0
  -12.3751   13.4003   27.2914 C   0  0  0  0  0  0  0  0  0  0  0  0
  -14.0233   13.0864   29.4666 C   0  0  0  0  0  0  0  0  0  0  0  0
  -12.8512   12.1454   27.6122 C   0  0  0  0  0  0  0  0  0  0  0  0
  -13.6711   12.0007   28.7007 C   0  0  0  0  0  0  0  0  0  0  0  0
 39 40  2  0  0  0
 39 43  1  0  0  0
 39 41  1  0  0  0
 43 44  1  0  0  0
 44 45  1  0  0  0
 45 46  2  0  0  0
 45 47  1  0  0  0
 46 48  1  0  0  0
 47 49  2  0  0  0
 48 50  2  0  0  0
 49 50  1  0  0  0
 41 38  1  0  0  0
 38 51  1  0  0  0
 38 34  1  0  0  0
 51 52  1  0  0  0
 51 53  1  0  0  0
 34 35  2  0  0  0
 34 36  1  0  0  0
 36 33  1  0  0  0
 33 54  1  0  0  0
 33  1  1  0  0  0
 54 55  1  0  0  0
 55 56  2  0  0  0
 55 57  1  0  0  0
 56 58  1  0  0  0
 57 59  2  0  0  0
 58 60  2  0  0  0
 59 60  1  0  0  0
  1  2  2  0  0  0
  1  3  1  0  0  0
  1  5  1  0  0  0
  6  5  1  0  0  0
  6  7  1  0  0  0
  5 26  1  0  0  0
 26 27  1  0  0  0
 27 28  2  0  0  0
 27 29  1  0  0  0
 28 30  1  0  0  0
 29 31  2  0  0  0
 30 32  2  0  0  0
 31 32  1  0  0  0
 11 10  1  0  0  0
 11 12  1  0  0  0
 10 23  1  0  0  0
 10  7  1  0  0  0
 23 24  1  0  0  0
 23 25  1  0  0  0
  7  8  2  0  0  0
 16 17  1  0  0  0
 16 15  1  0  0  0
 17 18  1  0  0  0
 17 21  2  0  0  0
 18 19  2  0  0  0
 19 22  1  0  0  0
 20 21  1  0  0  0
 20 22  2  0  0  0
 15 12  1  0  0  0
 12 13  2  0  0  0
 41 42  1  0  0  0
 36 37  1  0  0  0
  3  4  1  0  0  0
  6  9  1  0  0  0
 11 14  1  0  0  0
M  END
> <minimizedAffinity>
-9.47101

$$$$
1HOS_PHP_A_400


 60 63  0  0  0  0  0  0  0  0999 V2000
  -10.0580   17.6914   27.7764 P   0  0  0  0  0  0  0  0  0  0  0  0
  -11.0439   17.0875   26.8603 O   0  0  0  0  0  0  0  0  0  0  0  0
  -10.4061   19.1350   27.7472 O   0  0  0  0  0  0  0  0  0  0  0  0
  -10.3876   19.4535   26.8312 H   0  0  0  0  0  0  0  0  0  0  0  0
  -10.0927   17.1004   29.4800 C   0  0  0  0  0  0  0  0  0  0  0  0
  -11.0919   16.0481   29.4651 N   0  0  0  0  0  0  0  0  0  0  0  0
  -10.8676   14.8066   29.0347 C   0  0  0  0  0  0  0  0  0  0  0  0
   -9.7750   14.4543   28.5994 O   0  0  0  0  0  0  0  0  0  0  0  0
  -11.9940   16.2652   29.7943 H   0  0  0  0  0  0  0  0  0  0  0  0
  -12.0022   13.8074   29.0634 C   0  0  0  0  0  0  0  0  0  0  0  0
  -12.8102   14.3895   30.1186 N   0  0  0  0  0  0  0  0  0  0  0  0
  -13.3866   13.6251   31.0475 C   0  0  0  0  0  0  0  0  0  0  0  0
  -13.2532   12.3917   31.0356 O   0  0  0  0  0  0  0  0  0  0  0  0
  -12.9351   15.3655   30.1496 H   0  0  0  0  0  0  0  0  0  0  0  0
  -14.1191   14.1545   32.0359 O   0  0  0  0  0  0  0  0  0  0  0  0
  -15.2732   13.5452   32.6984 C   0  0  0  0  0  0  0  0  0  0  0  0
  -16.5546   13.8893   31.9173 C   0  0  0  0  0  0  0  0  0  0  0  0
  -17.6755   13.0791   31.9957 C   0  0  0  0  0  0  0  0  0  0  0  0
  -18.8163   13.3907   31.2760 C   0  0  0  0  0  0  0  0  0  0  0  0
  -17.7448   15.3223   30.3906 C   0  0  0  0  0  0  0  0  0  0  0  0
  -16.6037   15.0121   31.1077 C   0  0  0  0  0  0  0  0  0  0  0  0
  -18.8580   14.5077   30.4722 C   0  0  0  0  0  0  0  0  0  0  0  0
  -12.6710   13.7980   27.6882 C   0  0  0  0  0  0  0  0  0  0  0  0
  -13.2147   12.3963   27.4551 C   0  0  0  0  0  0  0  0  0  0  0  0
  -13.8152   14.7745   27.6107 C   0  0  0  0  0  0  0  0  0  0  0  0
   -8.7312   16.5039   29.8910 C   0  0  0  0  0  0  0  0  0  0  0  0
   -8.7010   16.4048   31.4081 C   0  0  0  0  0  0  0  0  0  0  0  0
   -8.3331   17.5024   32.1675 C   0  0  0  0  0  0  0  0  0  0  0  0
   -8.9257   15.1843   32.0161 C   0  0  0  0  0  0  0  0  0  0  0  0
   -8.1745   17.3581   33.5276 C   0  0  0  0  0  0  0  0  0  0  0  0
   -8.7638   15.0555   33.3743 C   0  0  0  0  0  0  0  0  0  0  0  0
   -8.3836   16.1405   34.1267 C   0  0  0  0  0  0  0  0  0  0  0  0
   -8.3869   17.3148   27.1926 C   0  0  0  0  0  0  0  0  0  0  0  0
   -8.1138   16.4488   24.8843 C   0  0  0  0  0  0  0  0  0  0  0  0
   -7.4747   15.4551   25.2428 O   0  0  0  0  0  0  0  0  0  0  0  0
   -8.5671   17.3618   25.7414 N   0  0  0  0  0  0  0  0  0  0  0  0
   -9.0617   18.1277   25.3697 H   0  0  0  0  0  0  0  0  0  0  0  0
   -8.4059   16.7013   23.4085 C   0  0  0  0  0  0  0  0  0  0  0  0
   -6.4667   17.6562   22.3274 C   0  0  0  0  0  0  0  0  0  0  0  0
   -7.0522   18.7462   22.1670 O   0  0  0  0  0  0  0  0  0  0  0  0
   -7.0618   16.6272   22.9144 N   0  0  0  0  0  0  0  0  0  0  0  0
   -6.5641   15.7836   23.0145 H   0  0  0  0  0  0  0  0  0  0  0  0
   -5.2094   17.4376   21.9304 O   0  0  0  0  0  0  0  0  0  0  0  0
   -4.4007   18.5759   21.5440 C   0  0  0  0  0  0  0  0  0  0  0  0
   -3.0536   18.4897   22.2251 C   0  0  0  0  0  0  0  0  0  0  0  0
   -2.3337   17.3040   22.2074 C   0  0  0  0  0  0  0  0  0  0  0  0
   -2.5553   19.6095   22.8562 C   0  0  0  0  0  0  0  0  0  0  0  0
   -1.1061   17.2397   22.8302 C   0  0  0  0  0  0  0  0  0  0  0  0
   -1.3315   19.5376   23.4739 C   0  0  0  0  0  0  0  0  0  0  0  0
   -0.6088   18.3609   23.4613 C   0  0  0  0  0  0  0  0  0  0  0  0
   -9.2667   15.6072   22.7350 C   0  0  0  0  0  0  0  0  0  0  0  0
  -10.2496   16.2305   21.7951 C   0  0  0  0  0  0  0  0  0  0  0  0
   -8.4265   14.7482   21.7847 C   0  0  0  0  0  0  0  0  0  0  0  0
   -7.4214   18.4247   27.6823 C   0  0  0  0  0  0  0  0  0  0  0  0
   -6.0164   18.1880   27.1494 C   0  0  0  0  0  0  0  0  0  0  0  0
   -5.5113   19.0135   26.1660 C   0  0  0  0  0  0  0  0  0  0  0  0
   -5.2796   17.0893   27.5855 C   0  0  0  0  0  0  0  0  0  0  0  0
   -4.2835   18.7288   25.6192 C   0  0  0  0  0  0  0  0  0  0  0  0
   -4.0472   16.8164   27.0280 C   0  0  0  0  0  0  0  0  0  0  0  0
   -3.5614   17.6401   26.0465 C   0  0  0  0  0  0  0  0  0  0  0  0
 39 40  2  0  0  0
 39 43  1  0  0  0
 39 41  1  0  0  0
 43 44  1  0  0  0
 44 45  1  0  0  0
 45 46  2  0  0  0
 45 47  1  0  0  0
 46 48  1  0  0  0
 47 49  2  0  0  0
 48 50  2  0  0  0
 49 50  1  0  0  0
 41 38  1  0  0  0
 38 51  1  0  0  0
 38 34  1  0  0  0
 51 52  1  0  0  0
 51 53  1  0  0  0
 34 35  2  0  0  0
 34 36  1  0  0  0
 36 33  1  0  0  0
 33 54  1  0  0  0
 33  1  1  0  0  0
 54 55  1  0  0  0
 55 56  2  0  0  0
 55 57  1  0  0  0
 56 58  1  0  0  0
 57 59  2  0  0  0
 58 60  2  0  0  0
 59 60  1  0  0  0
  1  2  2  0  0  0
  1  3  1  0  0  0
  1  5  1  0  0  0
  6  5  1  0  0  0
  6  7  1  0  0  0
  5 26  1  0  0  0
 26 27  1  0  0  0
 27 28  2  0  0  0
 27 29  1  0  0  0
 28 30  1  0  0  0
 29 31  2  0  0  0
 30 32  2  0  0  0
 31 32  1  0  0  0
 11 10  1  0  0  0
 11 12  1  0  0  0
 10 23  1  0  0  0
 10  7  1  0  0  0
 23 24  1  0  0  0
 23 25  1  0  0  0
  7  8  2  0  0  0
 16 17  1  0  0  0
 16 15  1  0  0  0
 17 18  1  0  0  0
 17 21  2  0  0  0
 18 19  2  0  0  0
 19 22  1  0  0  0
 20 21  1  0  0  0
 20 22  2  0  0  0
 15 12  1  0  0  0
 12 13  2  0  0  0
 41 42  1  0  0  0
 36 37  1  0  0  0
  3  4  1  0  0  0
  6  9  1  0  0  0
 11 14  1  0  0  0
M  END
> <minimizedAffinity>
-9.23328

$$$$
1HOS_PHP_A_400


 60 63  0  0  0  0  0  0  0  0999 V2000
  -10.4568   17.3345   27.4151 P   0  0  0  0  0  0  0  0  0  0  0  0
  -10.8330   18.5390   28.1792 O   0  0  0  0  0  0  0  0  0  0  0  0
  -11.1033   17.5528   26.0960 O   0  0  0  0  0  0  0  0  0  0  0  0
  -12.0541   17.6978   26.2219 H   0  0  0  0  0  0  0  0  0  0  0  0
   -8.6891   17.0651   27.1795 C   0  0  0  0  0  0  0  0  0  0  0  0
   -8.5041   17.1896   25.7455 N   0  0  0  0  0  0  0  0  0  0  0  0
   -8.3163   16.1592   24.9211 C   0  0  0  0  0  0  0  0  0  0  0  0
   -8.2756   15.0001   25.3240 O   0  0  0  0  0  0  0  0  0  0  0  0
   -8.5183   18.0938   25.3564 H   0  0  0  0  0  0  0  0  0  0  0  0
   -8.1255   16.4296   23.4456 C   0  0  0  0  0  0  0  0  0  0  0  0
   -6.7049   16.7243   23.4356 N   0  0  0  0  0  0  0  0  0  0  0  0
   -6.2428   17.8774   22.9499 C   0  0  0  0  0  0  0  0  0  0  0  0
   -7.0135   18.7327   22.4874 O   0  0  0  0  0  0  0  0  0  0  0  0
   -6.0709   16.0616   23.7936 H   0  0  0  0  0  0  0  0  0  0  0  0
   -4.9350   18.1661   22.9530 O   0  0  0  0  0  0  0  0  0  0  0  0
   -3.9415   17.7551   21.9600 C   0  0  0  0  0  0  0  0  0  0  0  0
   -2.5502   17.7011   22.6174 C   0  0  0  0  0  0  0  0  0  0  0  0
   -1.7704   16.5588   22.5409 C   0  0  0  0  0  0  0  0  0  0  0  0
   -0.5278   16.5174   23.1498 C   0  0  0  0  0  0  0  0  0  0  0  0
   -0.8165   18.7510   23.9184 C   0  0  0  0  0  0  0  0  0  0  0  0
   -2.0587   18.7939   23.3120 C   0  0  0  0  0  0  0  0  0  0  0  0
   -0.0456   17.6068   23.8397 C   0  0  0  0  0  0  0  0  0  0  0  0
   -8.5148   15.1701   22.6705 C   0  0  0  0  0  0  0  0  0  0  0  0
  -10.0163   15.2272   22.4322 C   0  0  0  0  0  0  0  0  0  0  0  0
   -7.8206   15.0921   21.3360 C   0  0  0  0  0  0  0  0  0  0  0  0
   -7.8595   18.1499   27.8960 C   0  0  0  0  0  0  0  0  0  0  0  0
   -6.4189   18.0263   27.4252 C   0  0  0  0  0  0  0  0  0  0  0  0
   -5.8160   19.0770   26.7548 C   0  0  0  0  0  0  0  0  0  0  0  0
   -5.7573   16.8209   27.5638 C   0  0  0  0  0  0  0  0  0  0  0  0
   -4.5629   18.8998   26.2124 C   0  0  0  0  0  0  0  0  0  0  0  0
   -4.5072   16.6589   27.0177 C   0  0  0  0  0  0  0  0  0  0  0  0
   -3.9145   17.6961   26.3387 C   0  0  0  0  0  0  0  0  0  0  0  0
  -11.0336   15.8617   28.2943 C   0  0  0  0  0  0  0  0  0  0  0  0
  -10.4804   15.4953   30.6844 C   0  0  0  0  0  0  0  0  0  0  0  0
  -10.1825   14.3084   30.5204 O   0  0  0  0  0  0  0  0  0  0  0  0
  -10.8907   16.2795   29.6892 N   0  0  0  0  0  0  0  0  0  0  0  0
  -11.1151   17.2125   29.9091 H   0  0  0  0  0  0  0  0  0  0  0  0
  -10.4144   16.1351   32.0676 C   0  0  0  0  0  0  0  0  0  0  0  0
  -12.0669   14.8510   33.2766 C   0  0  0  0  0  0  0  0  0  0  0  0
  -12.9490   15.7007   33.0388 O   0  0  0  0  0  0  0  0  0  0  0  0
  -10.8233   14.9996   32.8421 N   0  0  0  0  0  0  0  0  0  0  0  0
  -10.1579   14.3070   33.0585 H   0  0  0  0  0  0  0  0  0  0  0  0
  -12.2976   13.7354   33.9755 O   0  0  0  0  0  0  0  0  0  0  0  0
  -11.3127   13.3182   34.9528 C   0  0  0  0  0  0  0  0  0  0  0  0
  -11.7014   11.9689   35.5135 C   0  0  0  0  0  0  0  0  0  0  0  0
  -12.3355   11.0323   34.7103 C   0  0  0  0  0  0  0  0  0  0  0  0
  -11.4091   11.6878   36.8311 C   0  0  0  0  0  0  0  0  0  0  0  0
  -12.6824    9.8055   35.2334 C   0  0  0  0  0  0  0  0  0  0  0  0
  -11.7573   10.4633   37.3446 C   0  0  0  0  0  0  0  0  0  0  0  0
  -12.3894    9.5256   36.5519 C   0  0  0  0  0  0  0  0  0  0  0  0
   -8.9950   16.5723   32.4984 C   0  0  0  0  0  0  0  0  0  0  0  0
   -8.3756   15.5261   33.3700 C   0  0  0  0  0  0  0  0  0  0  0  0
   -8.0355   16.5930   31.3043 C   0  0  0  0  0  0  0  0  0  0  0  0
  -12.5179   15.6057   27.9263 C   0  0  0  0  0  0  0  0  0  0  0  0
  -12.9686   14.2424   28.4287 C   0  0  0  0  0  0  0  0  0  0  0  0
  -13.8606   14.1624   29.4781 C   0  0  0  0  0  0  0  0  0  0  0  0
  -12.4137   13.0823   27.8936 C   0  0  0  0  0  0  0  0  0  0  0  0
  -14.1811   12.9289   29.9910 C   0  0  0  0  0  0  0  0  0  0  0  0
  -12.7459   11.8499   28.4182 C   0  0  0  0  0  0  0  0  0  0  0  0
  -13.6270   11.7859   29.4657 C   0  0  0  0  0  0  0  0  0  0  0  0
 39 40  2  0  0  0
 39 43  1  0  0  0
 39 41  1  0  0  0
 43 44  1  0  0  0
 44 45  1  0  0  0
 45 46  2  0  0  0
 45 47  1  0  0  0
 46 48  1  0  0  0
 47 49  2  0  0  0
 48 50  2  0  0  0
 49 50  1  0  0  0
 41 38  1  0  0  0
 38 51  1  0  0  0
 38 34  1  0  0  0
 51 52  1  0  0  0
 51 53  1  0  0  0
 34 35  2  0  0  0
 34 36  1  0  0  0
 36 33  1  0  0  0
 33 54  1  0  0  0
 33  1  1  0  0  0
 54 55  1  0  0  0
 55 56  2  0  0  0
 55 57  1  0  0  0
 56 58  1  0  0  0
 57 59  2  0  0  0
 58 60  2  0  0  0
 59 60  1  0  0  0
  1  2  2  0  0  0
  1  3  1  0  0  0
  1  5  1  0  0  0
  6  5  1  0  0  0
  6  7  1  0  0  0
  5 26  1  0  0  0
 26 27  1  0  0  0
 27 28  2  0  0  0
 27 29  1  0  0  0
 28 30  1  0  0  0
 29 31  2  0  0  0
 30 32  2  0  0  0
 31 32  1  0  0  0
 11 10  1  0  0  0
 11 12  1  0  0  0
 10 23  1  0  0  0
 10  7  1  0  0  0
 23 24  1  0  0  0
 23 25  1  0  0  0
  7  8  2  0  0  0
 16 17  1  0  0  0
 16 15  1  0  0  0
 17 18  1  0  0  0
 17 21  2  0  0  0
 18 19  2  0  0  0
 19 22  1  0  0  0
 20 21  1  0  0  0
 20 22  2  0  0  0
 15 12  1  0  0  0
 12 13  2  0  0  0
 41 42  1  0  0  0
 36 37  1  0  0  0
  3  4  1  0  0  0
  6  9  1  0  0  0
 11 14  1  0  0  0
M  END
> <minimizedAffinity>
-9.05232

$$$$
1HOS_PHP_A_400


 60 63  0  0  0  0  0  0  0  0999 V2000
   -9.9350   17.6073   27.8583 P   0  0  0  0  0  0  0  0  0  0  0  0
   -9.1252   18.1939   28.9429 O   0  0  0  0  0  0  0  0  0  0  0  0
  -10.9125   18.6806   27.5449 O   0  0  0  0  0  0  0  0  0  0  0  0
  -11.3933   18.9254   28.3510 H   0  0  0  0  0  0  0  0  0  0  0  0
   -9.0417   17.1530   26.3588 C   0  0  0  0  0  0  0  0  0  0  0  0
   -7.6478   17.3598   26.7055 N   0  0  0  0  0  0  0  0  0  0  0  0
   -6.7011   17.7057   25.8331 C   0  0  0  0  0  0  0  0  0  0  0  0
   -6.9415   17.8702   24.6404 O   0  0  0  0  0  0  0  0  0  0  0  0
   -7.3843   17.2367   27.6460 H   0  0  0  0  0  0  0  0  0  0  0  0
   -5.2821   17.8790   26.3257 C   0  0  0  0  0  0  0  0  0  0  0  0
   -4.5637   17.5993   25.0966 N   0  0  0  0  0  0  0  0  0  0  0  0
   -3.5042   16.7889   25.0859 C   0  0  0  0  0  0  0  0  0  0  0  0
   -3.0973   16.2522   26.1278 O   0  0  0  0  0  0  0  0  0  0  0  0
   -4.8634   18.0147   24.2559 H   0  0  0  0  0  0  0  0  0  0  0  0
   -2.8457   16.5102   23.9535 O   0  0  0  0  0  0  0  0  0  0  0  0
   -1.3994   16.5751   23.7387 C   0  0  0  0  0  0  0  0  0  0  0  0
   -0.8578   15.1613   23.4586 C   0  0  0  0  0  0  0  0  0  0  0  0
   -0.8252   14.2008   24.4563 C   0  0  0  0  0  0  0  0  0  0  0  0
   -0.3210   12.9380   24.1961 C   0  0  0  0  0  0  0  0  0  0  0  0
    0.1235   13.5662   21.9443 C   0  0  0  0  0  0  0  0  0  0  0  0
   -0.3784   14.8287   22.2025 C   0  0  0  0  0  0  0  0  0  0  0  0
    0.1551   12.6143   22.9456 C   0  0  0  0  0  0  0  0  0  0  0  0
   -5.1217   19.3106   26.8392 C   0  0  0  0  0  0  0  0  0  0  0  0
   -4.9812   20.2172   25.6256 C   0  0  0  0  0  0  0  0  0  0  0  0
   -6.3171   19.7606   27.6375 C   0  0  0  0  0  0  0  0  0  0  0  0
   -9.2637   15.6682   26.0059 C   0  0  0  0  0  0  0  0  0  0  0  0
   -9.4876   15.5710   24.5050 C   0  0  0  0  0  0  0  0  0  0  0  0
  -10.7390   15.8301   23.9724 C   0  0  0  0  0  0  0  0  0  0  0  0
   -8.4701   15.1080   23.6925 C   0  0  0  0  0  0  0  0  0  0  0  0
  -10.9616   15.6020   22.6329 C   0  0  0  0  0  0  0  0  0  0  0  0
   -8.7069   14.8855   22.3576 C   0  0  0  0  0  0  0  0  0  0  0  0
   -9.9528   15.1275   21.8313 C   0  0  0  0  0  0  0  0  0  0  0  0
  -10.6817   16.0629   28.4349 C   0  0  0  0  0  0  0  0  0  0  0  0
   -9.9959   15.4623   30.7418 C   0  0  0  0  0  0  0  0  0  0  0  0
   -9.3469   14.4755   30.3820 O   0  0  0  0  0  0  0  0  0  0  0  0
  -10.6488   16.2466   29.8861 N   0  0  0  0  0  0  0  0  0  0  0  0
  -11.1479   17.0090   30.2588 H   0  0  0  0  0  0  0  0  0  0  0  0
  -10.1054   15.8317   32.2179 C   0  0  0  0  0  0  0  0  0  0  0  0
  -11.9207   14.5806   33.2083 C   0  0  0  0  0  0  0  0  0  0  0  0
  -12.6167   15.6107   33.3135 O   0  0  0  0  0  0  0  0  0  0  0  0
  -10.6996   14.6162   32.6932 N   0  0  0  0  0  0  0  0  0  0  0  0
  -10.1834   13.7799   32.6350 H   0  0  0  0  0  0  0  0  0  0  0  0
  -12.3410   13.3728   33.5967 O   0  0  0  0  0  0  0  0  0  0  0  0
  -13.5816   13.2806   34.3394 C   0  0  0  0  0  0  0  0  0  0  0  0
  -14.6840   12.8070   33.4194 C   0  0  0  0  0  0  0  0  0  0  0  0
  -14.7949   11.4636   33.0918 C   0  0  0  0  0  0  0  0  0  0  0  0
  -15.5756   13.7321   32.9196 C   0  0  0  0  0  0  0  0  0  0  0  0
  -15.8058   11.0450   32.2539 C   0  0  0  0  0  0  0  0  0  0  0  0
  -16.5801   13.3072   32.0860 C   0  0  0  0  0  0  0  0  0  0  0  0
  -16.6971   11.9718   31.7546 C   0  0  0  0  0  0  0  0  0  0  0  0
   -8.7455   16.0529   32.9201 C   0  0  0  0  0  0  0  0  0  0  0  0
   -7.9744   17.1288   32.2231 C   0  0  0  0  0  0  0  0  0  0  0  0
   -8.9343   16.6570   34.3152 C   0  0  0  0  0  0  0  0  0  0  0  0
  -12.1363   15.9793   27.9048 C   0  0  0  0  0  0  0  0  0  0  0  0
  -12.7057   14.5846   28.1158 C   0  0  0  0  0  0  0  0  0  0  0  0
  -13.5734   14.3528   29.1631 C   0  0  0  0  0  0  0  0  0  0  0  0
  -12.2819   13.5282   27.3129 C   0  0  0  0  0  0  0  0  0  0  0  0
  -14.0002   13.0699   29.4067 C   0  0  0  0  0  0  0  0  0  0  0  0
  -12.7200   12.2449   27.5687 C   0  0  0  0  0  0  0  0  0  0  0  0
  -13.5753   12.0280   28.6171 C   0  0  0  0  0  0  0  0  0  0  0  0
 39 40  2  0  0  0
 39 43  1  0  0  0
 39 41  1  0  0  0
 43 44  1  0  0  0
 44 45  1  0  0  0
 45 46  2  0  0  0
 45 47  1  0  0  0
 46 48  1  0  0  0
 47 49  2  0  0  0
 48 50  2  0  0  0
 49 50  1  0  0  0
 41 38  1  0  0  0
 38 51  1  0  0  0
 38 34  1  0  0  0
 51 52  1  0  0  0
 51 53  1  0  0  0
 34 35  2  0  0  0
 34 36  1  0  0  0
 36 33  1  0  0  0
 33 54  1  0  0  0
 33  1  1  0  0  0
 54 55  1  0  0  0
 55 56  2  0  0  0
 55 57  1  0  0  0
 56 58  1  0  0  0
 57 59  2  0  0  0
 58 60  2  0  0  0
 59 60  1  0  0  0
  1  2  2  0  0  0
  1  3  1  0  0  0
  1  5  1  0  0  0
  6  5  1  0  0  0
  6  7  1  0  0  0
  5 26  1  0  0  0
 26 27  1  0  0  0
 27 28  2  0  0  0
 27 29  1  0  0  0
 28 30  1  0  0  0
 29 31  2  0  0  0
 30 32  2  0  0  0
 31 32  1  0  0  0
 11 10  1  0  0  0
 11 12  1  0  0  0
 10 23  1  0  0  0
 10  7  1  0  0  0
 23 24  1  0  0  0
 23 25  1  0  0  0
  7  8  2  0  0  0
 16 17  1  0  0  0
 16 15  1  0  0  0
 17 18  1  0  0  0
 17 21  2  0  0  0
 18 19  2  0  0  0
 19 22  1  0  0  0
 20 21  1  0  0  0
 20 22  2  0  0  0
 15 12  1  0  0  0
 12 13  2  0  0  0
 41 42  1  0  0  0
 36 37  1  0  0  0
  3  4  1  0  0  0
  6  9  1  0  0  0
 11 14  1  0  0  0
M  END
> <minimizedAffinity>
-9.03605

$$$$
1HOS_PHP_A_400


 60 63  0  0  0  0  0  0  0  0999 V2000
  -10.6811   16.9685   27.7324 P   0  0  0  0  0  0  0  0  0  0  0  0
  -11.3207   18.2801   27.9487 O   0  0  0  0  0  0  0  0  0  0  0  0
  -11.4776   16.3799   26.6257 O   0  0  0  0  0  0  0  0  0  0  0  0
  -12.4145   16.3610   26.8762 H   0  0  0  0  0  0  0  0  0  0  0  0
   -8.9394   17.0032   27.2654 C   0  0  0  0  0  0  0  0  0  0  0  0
   -8.9671   17.1192   25.8191 N   0  0  0  0  0  0  0  0  0  0  0  0
   -8.5935   16.1518   24.9816 C   0  0  0  0  0  0  0  0  0  0  0  0
   -8.1792   15.0671   25.3808 O   0  0  0  0  0  0  0  0  0  0  0  0
   -9.2822   17.9674   25.4313 H   0  0  0  0  0  0  0  0  0  0  0  0
   -8.6617   16.4078   23.4929 C   0  0  0  0  0  0  0  0  0  0  0  0
   -7.2437   16.4357   23.1872 N   0  0  0  0  0  0  0  0  0  0  0  0
   -6.6377   17.5681   22.8272 C   0  0  0  0  0  0  0  0  0  0  0  0
   -7.2689   18.6325   22.7385 O   0  0  0  0  0  0  0  0  0  0  0  0
   -6.7197   15.6044   23.2465 H   0  0  0  0  0  0  0  0  0  0  0  0
   -5.3258   17.6076   22.5607 O   0  0  0  0  0  0  0  0  0  0  0  0
   -4.5314   18.7908   22.2275 C   0  0  0  0  0  0  0  0  0  0  0  0
   -3.1322   18.6641   22.8573 C   0  0  0  0  0  0  0  0  0  0  0  0
   -2.3180   19.7741   23.0124 C   0  0  0  0  0  0  0  0  0  0  0  0
   -1.0556   19.6444   23.5655 C   0  0  0  0  0  0  0  0  0  0  0  0
   -1.3949   17.3030   23.8217 C   0  0  0  0  0  0  0  0  0  0  0  0
   -2.6558   17.4301   23.2681 C   0  0  0  0  0  0  0  0  0  0  0  0
   -0.5877   18.4147   23.9706 C   0  0  0  0  0  0  0  0  0  0  0  0
   -9.4260   15.2551   22.8403 C   0  0  0  0  0  0  0  0  0  0  0  0
  -10.8933   15.6535   22.7864 C   0  0  0  0  0  0  0  0  0  0  0  0
   -8.9507   14.9867   21.4364 C   0  0  0  0  0  0  0  0  0  0  0  0
   -8.2268   18.2342   27.8614 C   0  0  0  0  0  0  0  0  0  0  0  0
   -6.7487   18.1321   27.5193 C   0  0  0  0  0  0  0  0  0  0  0  0
   -6.0979   19.2026   26.9299 C   0  0  0  0  0  0  0  0  0  0  0  0
   -6.0911   16.9286   27.6894 C   0  0  0  0  0  0  0  0  0  0  0  0
   -4.7996   19.0472   26.4986 C   0  0  0  0  0  0  0  0  0  0  0  0
   -4.7955   16.7884   27.2543 C   0  0  0  0  0  0  0  0  0  0  0  0
   -4.1540   17.8455   26.6552 C   0  0  0  0  0  0  0  0  0  0  0  0
  -10.7260   16.0180   29.2717 C   0  0  0  0  0  0  0  0  0  0  0  0
  -12.5277   14.4367   29.9091 C   0  0  0  0  0  0  0  0  0  0  0  0
  -12.3748   14.6194   31.1206 O   0  0  0  0  0  0  0  0  0  0  0  0
  -11.7892   15.0534   28.9884 N   0  0  0  0  0  0  0  0  0  0  0  0
  -11.9727   14.8442   28.0441 H   0  0  0  0  0  0  0  0  0  0  0  0
  -13.5774   13.4584   29.3913 C   0  0  0  0  0  0  0  0  0  0  0  0
  -12.6391   11.2360   29.5391 C   0  0  0  0  0  0  0  0  0  0  0  0
  -12.4824   11.1844   28.3024 O   0  0  0  0  0  0  0  0  0  0  0  0
  -13.1649   12.3002   30.1295 N   0  0  0  0  0  0  0  0  0  0  0  0
  -13.2758   12.2953   31.1077 H   0  0  0  0  0  0  0  0  0  0  0  0
  -12.2931   10.2404   30.3609 O   0  0  0  0  0  0  0  0  0  0  0  0
  -13.3427    9.5280   31.0608 C   0  0  0  0  0  0  0  0  0  0  0  0
  -13.0420    9.5187   32.5425 C   0  0  0  0  0  0  0  0  0  0  0  0
  -13.2217   10.6660   33.3015 C   0  0  0  0  0  0  0  0  0  0  0  0
  -12.5933    8.3511   33.1221 C   0  0  0  0  0  0  0  0  0  0  0  0
  -12.9460   10.6432   34.6515 C   0  0  0  0  0  0  0  0  0  0  0  0
  -12.3213    8.3364   34.4676 C   0  0  0  0  0  0  0  0  0  0  0  0
  -12.4970    9.4743   35.2300 C   0  0  0  0  0  0  0  0  0  0  0  0
  -15.0306   13.8252   29.7724 C   0  0  0  0  0  0  0  0  0  0  0  0
  -15.3614   13.2816   31.1262 C   0  0  0  0  0  0  0  0  0  0  0  0
  -15.1809   15.3334   29.9955 C   0  0  0  0  0  0  0  0  0  0  0  0
   -9.3580   15.3152   29.4686 C   0  0  0  0  0  0  0  0  0  0  0  0
   -8.8249   15.5610   30.8720 C   0  0  0  0  0  0  0  0  0  0  0  0
   -7.7654   16.4249   31.0581 C   0  0  0  0  0  0  0  0  0  0  0  0
   -9.3428   14.8482   31.9508 C   0  0  0  0  0  0  0  0  0  0  0  0
   -7.2255   16.5604   32.3141 C   0  0  0  0  0  0  0  0  0  0  0  0
   -8.7911   14.9954   33.2071 C   0  0  0  0  0  0  0  0  0  0  0  0
   -7.7339   15.8508   33.3759 C   0  0  0  0  0  0  0  0  0  0  0  0
 39 40  2  0  0  0
 39 43  1  0  0  0
 39 41  1  0  0  0
 43 44  1  0  0  0
 44 45  1  0  0  0
 45 46  2  0  0  0
 45 47  1  0  0  0
 46 48  1  0  0  0
 47 49  2  0  0  0
 48 50  2  0  0  0
 49 50  1  0  0  0
 41 38  1  0  0  0
 38 51  1  0  0  0
 38 34  1  0  0  0
 51 52  1  0  0  0
 51 53  1  0  0  0
 34 35  2  0  0  0
 34 36  1  0  0  0
 36 33  1  0  0  0
 33 54  1  0  0  0
 33  1  1  0  0  0
 54 55  1  0  0  0
 55 56  2  0  0  0
 55 57  1  0  0  0
 56 58  1  0  0  0
 57 59  2  0  0  0
 58 60  2  0  0  0
 59 60  1  0  0  0
  1  2  2  0  0  0
  1  3  1  0  0  0
  1  5  1  0  0  0
  6  5  1  0  0  0
  6  7  1  0  0  0
  5 26  1  0  0  0
 26 27  1  0  0  0
 27 28  2  0  0  0
 27 29  1  0  0  0
 28 30  1  0  0  0
 29 31  2  0  0  0
 30 32  2  0  0  0
 31 32  1  0  0  0
 11 10  1  0  0  0
 11 12  1  0  0  0
 10 23  1  0  0  0
 10  7  1  0  0  0
 23 24  1  0  0  0
 23 25  1  0  0  0
  7  8  2  0  0  0
 16 17  1  0  0  0
 16 15  1  0  0  0
 17 18  1  0  0  0
 17 21  2  0  0  0
 18 19  2  0  0  0
 19 22  1  0  0  0
 20 21  1  0  0  0
 20 22  2  0  0  0
 15 12  1  0  0  0
 12 13  2  0  0  0
 41 42  1  0  0  0
 36 37  1  0  0  0
  3  4  1  0  0  0
  6  9  1  0  0  0
 11 14  1  0  0  0
M  END
> <minimizedAffinity>
-8.94437

$$$$
