5EXL_5SS_A_301


 40 44  0  0  0  0  0  0  0  0999 V2000
   39.9997  -20.6815   28.4838 C   0  0  0  0  0  0  0  0  0  0  0  0
   41.5015  -20.5833   28.2497 C   0  0  0  0  0  0  0  0  0  0  0  0
   43.2692  -20.3466   26.7487 C   0  0  0  0  0  0  0  0  0  0  0  0
   44.2049  -20.5764   27.7506 C   0  0  0  0  0  0  0  0  0  0  0  0
   42.3603  -20.8634   29.3019 C   0  0  0  0  0  0  0  0  0  0  0  0
   43.7339  -20.8018   29.0528 C   0  0  0  0  0  0  0  0  0  0  0  0
   41.9281  -20.3625   26.9753 N   0  0  0  0  0  0  0  0  0  0  0  0
   44.6797  -21.1236   30.1032 C   0  0  0  0  0  0  0  0  0  0  0  0
   48.3823  -21.3490   30.9898 C   0  0  0  0  0  0  0  0  0  0  0  0
   46.5021  -21.9656   32.0256 C   0  0  0  0  0  0  0  0  0  0  0  0
   46.9757  -21.3696   30.8443 C   0  0  0  0  0  0  0  0  0  0  0  0
   44.2273  -21.7610   31.2786 C   0  0  0  0  0  0  0  0  0  0  0  0
   45.1294  -22.1921   32.2671 C   0  0  0  0  0  0  0  0  0  0  0  0
   46.0559  -20.9379   29.8651 C   0  0  0  0  0  0  0  0  0  0  0  0
   48.7744  -21.9102   32.1424 N   0  0  0  0  0  0  0  0  0  0  0  0
   47.6287  -22.2707   32.7534 N   0  0  0  0  0  0  0  0  0  0  0  0
   49.3021  -20.8204   30.1544 O   0  0  0  0  0  0  0  0  0  0  0  0
   47.6007  -22.7093   33.6343 H   0  0  0  0  0  0  0  0  0  0  0  0
   49.0317  -20.4274   29.3479 H   0  0  0  0  0  0  0  0  0  0  0  0
   38.9789  -18.4299   28.8539 C   0  0  0  0  0  0  0  0  0  0  0  0
   39.2168  -19.5333   28.0457 N   0  0  0  0  0  0  0  0  0  0  0  0
   39.4010  -18.3032   29.9967 O   0  0  0  0  0  0  0  0  0  0  0  0
   38.8398  -19.5403   27.1362 H   0  0  0  0  0  0  0  0  0  0  0  0
   37.0278  -16.9507   29.2941 C   0  0  0  0  0  0  0  0  0  0  0  0
   38.8556  -16.1590   27.6768 C   0  0  0  0  0  0  0  0  0  0  0  0
   36.1082  -15.8321   28.8015 C   0  0  0  0  0  0  0  0  0  0  0  0
   37.8968  -15.0578   27.1927 C   0  0  0  0  0  0  0  0  0  0  0  0
   38.0879  -17.3618   28.2610 C   0  0  0  0  0  0  0  0  0  0  0  0
   36.9280  -14.6243   28.3144 C   0  0  0  0  0  0  0  0  0  0  0  0
   36.0081  -13.4698   27.9094 C   0  0  0  0  0  0  0  0  0  0  0  0
   36.7781  -12.4314   27.3057 N   0  0  0  0  0  0  0  0  0  0  0  0
   37.2481  -12.7948   26.4766 H   0  0  0  0  0  0  0  0  0  0  0  0
   37.4741  -12.0938   27.9706 H   0  0  0  0  0  0  0  0  0  0  0  0
   39.4318  -22.0045   27.8949 C   0  0  0  0  0  0  0  0  0  0  0  0
   40.1911  -23.1988   28.4506 C   0  0  0  0  0  0  0  0  0  0  0  0
   41.7239  -25.2635   29.5537 C   0  0  0  0  0  0  0  0  0  0  0  0
   41.8489  -24.9374   28.1951 C   0  0  0  0  0  0  0  0  0  0  0  0
   40.8417  -24.5512   30.3657 C   0  0  0  0  0  0  0  0  0  0  0  0
   41.0893  -23.9001   27.6397 C   0  0  0  0  0  0  0  0  0  0  0  0
   40.0892  -23.5128   29.8118 C   0  0  0  0  0  0  0  0  0  0  0  0
  3  7  2  0  0  0
  3  4  1  0  0  0
  7  2  1  0  0  0
 27 25  1  0  0  0
 27 29  1  0  0  0
 31 30  1  0  0  0
 25 28  1  0  0  0
 39 37  2  0  0  0
 39 35  1  0  0  0
  4  6  2  0  0  0
 34 35  1  0  0  0
 34  1  1  0  0  0
 30 29  1  0  0  0
 21  1  1  0  0  0
 21 20  1  0  0  0
 28 20  1  0  0  0
 28 24  1  0  0  0
 37 36  1  0  0  0
 29 26  1  0  0  0
  2  1  1  0  0  0
  2  5  2  0  0  0
 35 40  2  0  0  0
 20 22  2  0  0  0
 26 24  1  0  0  0
  6  5  1  0  0  0
  6  8  1  0  0  0
 36 38  2  0  0  0
 40 38  1  0  0  0
 14  8  2  0  0  0
 14 11  1  0  0  0
  8 12  1  0  0  0
 17  9  1  0  0  0
 11  9  1  0  0  0
 11 10  2  0  0  0
 12 13  2  0  0  0
  9 15  2  0  0  0
 10 13  1  0  0  0
 10 16  1  0  0  0
 15 16  1  0  0  0
 16 18  1  0  0  0
 31 32  1  0  0  0
 31 33  1  0  0  0
 21 23  1  0  0  0
 17 19  1  0  0  0
M  END
> <minimizedAffinity>
-10.19175

$$$$
5EXL_5SS_A_301


 40 44  0  0  0  0  0  0  0  0999 V2000
   40.0432  -20.2425   27.7862 C   0  0  0  0  0  0  0  0  0  0  0  0
   41.5588  -20.3238   27.6584 C   0  0  0  0  0  0  0  0  0  0  0  0
   43.4383  -20.3817   26.2808 C   0  0  0  0  0  0  0  0  0  0  0  0
   44.2730  -20.6438   27.3610 C   0  0  0  0  0  0  0  0  0  0  0  0
   42.3081  -20.6240   28.7859 C   0  0  0  0  0  0  0  0  0  0  0  0
   43.6934  -20.7287   28.6359 C   0  0  0  0  0  0  0  0  0  0  0  0
   42.0918  -20.2368   26.4082 N   0  0  0  0  0  0  0  0  0  0  0  0
   44.5244  -21.0799   29.7706 C   0  0  0  0  0  0  0  0  0  0  0  0
   48.1156  -21.3693   31.0218 C   0  0  0  0  0  0  0  0  0  0  0  0
   46.1333  -21.9769   31.8522 C   0  0  0  0  0  0  0  0  0  0  0  0
   46.7308  -21.3686   30.7350 C   0  0  0  0  0  0  0  0  0  0  0  0
   43.9482  -21.7297   30.8833 C   0  0  0  0  0  0  0  0  0  0  0  0
   44.7407  -22.1886   31.9501 C   0  0  0  0  0  0  0  0  0  0  0  0
   45.9198  -20.9090   29.6756 C   0  0  0  0  0  0  0  0  0  0  0  0
   48.3826  -21.9540   32.1984 N   0  0  0  0  0  0  0  0  0  0  0  0
   47.1769  -22.3086   32.6844 N   0  0  0  0  0  0  0  0  0  0  0  0
   49.1214  -20.8399   30.2926 O   0  0  0  0  0  0  0  0  0  0  0  0
   47.0549  -22.7608   33.5504 H   0  0  0  0  0  0  0  0  0  0  0  0
   48.9384  -20.4305   29.4699 H   0  0  0  0  0  0  0  0  0  0  0  0
   39.2332  -18.2641   29.0817 C   0  0  0  0  0  0  0  0  0  0  0  0
   39.4890  -18.8978   27.8732 N   0  0  0  0  0  0  0  0  0  0  0  0
   39.4501  -18.7558   30.1823 O   0  0  0  0  0  0  0  0  0  0  0  0
   39.2869  -18.4173   27.0380 H   0  0  0  0  0  0  0  0  0  0  0  0
   38.9185  -16.2787   27.6161 C   0  0  0  0  0  0  0  0  0  0  0  0
   37.0843  -16.8890   29.3034 C   0  0  0  0  0  0  0  0  0  0  0  0
   38.2666  -14.9115   27.4030 C   0  0  0  0  0  0  0  0  0  0  0  0
   36.4671  -15.4981   29.0775 C   0  0  0  0  0  0  0  0  0  0  0  0
   38.5927  -16.8979   28.9838 C   0  0  0  0  0  0  0  0  0  0  0  0
   36.7493  -14.9842   27.6488 C   0  0  0  0  0  0  0  0  0  0  0  0
   36.0836  -13.6398   27.3448 C   0  0  0  0  0  0  0  0  0  0  0  0
   37.0617  -12.6016   27.3762 N   0  0  0  0  0  0  0  0  0  0  0  0
   37.7788  -12.7888   26.6754 H   0  0  0  0  0  0  0  0  0  0  0  0
   37.4909  -12.5667   28.3009 H   0  0  0  0  0  0  0  0  0  0  0  0
   39.3470  -21.0640   26.6637 C   0  0  0  0  0  0  0  0  0  0  0  0
   38.5881  -20.1390   25.7254 C   0  0  0  0  0  0  0  0  0  0  0  0
   37.3237  -18.2874   24.0515 C   0  0  0  0  0  0  0  0  0  0  0  0
   36.7855  -18.5846   25.3124 C   0  0  0  0  0  0  0  0  0  0  0  0
   38.5004  -18.9058   23.6299 C   0  0  0  0  0  0  0  0  0  0  0  0
   37.4184  -19.5053   26.1570 C   0  0  0  0  0  0  0  0  0  0  0  0
   39.1340  -19.8193   24.4757 C   0  0  0  0  0  0  0  0  0  0  0  0
  3  7  2  0  0  0
  3  4  1  0  0  0
  7  2  1  0  0  0
 27 25  1  0  0  0
 27 29  1  0  0  0
 31 30  1  0  0  0
 25 28  1  0  0  0
 39 37  2  0  0  0
 39 35  1  0  0  0
  4  6  2  0  0  0
 34 35  1  0  0  0
 34  1  1  0  0  0
 30 29  1  0  0  0
 21  1  1  0  0  0
 21 20  1  0  0  0
 28 20  1  0  0  0
 28 24  1  0  0  0
 37 36  1  0  0  0
 29 26  1  0  0  0
  2  1  1  0  0  0
  2  5  2  0  0  0
 35 40  2  0  0  0
 20 22  2  0  0  0
 26 24  1  0  0  0
  6  5  1  0  0  0
  6  8  1  0  0  0
 36 38  2  0  0  0
 40 38  1  0  0  0
 14  8  2  0  0  0
 14 11  1  0  0  0
  8 12  1  0  0  0
 17  9  1  0  0  0
 11  9  1  0  0  0
 11 10  2  0  0  0
 12 13  2  0  0  0
  9 15  2  0  0  0
 10 13  1  0  0  0
 10 16  1  0  0  0
 15 16  1  0  0  0
 16 18  1  0  0  0
 31 32  1  0  0  0
 31 33  1  0  0  0
 21 23  1  0  0  0
 17 19  1  0  0  0
M  END
> <minimizedAffinity>
-9.76792

$$$$
5EXL_5SS_A_301


 40 44  0  0  0  0  0  0  0  0999 V2000
   40.9946  -21.4121   28.8805 C   0  0  0  0  0  0  0  0  0  0  0  0
   39.7464  -20.8053   28.2531 C   0  0  0  0  0  0  0  0  0  0  0  0
   37.9615  -21.0190   26.7692 C   0  0  0  0  0  0  0  0  0  0  0  0
   37.5894  -19.6935   26.9612 C   0  0  0  0  0  0  0  0  0  0  0  0
   39.4738  -19.4637   28.4737 C   0  0  0  0  0  0  0  0  0  0  0  0
   38.3428  -18.9211   27.8580 C   0  0  0  0  0  0  0  0  0  0  0  0
   39.0351  -21.5800   27.3878 N   0  0  0  0  0  0  0  0  0  0  0  0
   38.0297  -17.5149   28.0194 C   0  0  0  0  0  0  0  0  0  0  0  0
   35.2887  -15.0263   28.9358 C   0  0  0  0  0  0  0  0  0  0  0  0
   37.3493  -14.8211   28.0992 C   0  0  0  0  0  0  0  0  0  0  0  0
   36.4147  -15.7788   28.5285 C   0  0  0  0  0  0  0  0  0  0  0  0
   38.9384  -16.5397   27.5552 C   0  0  0  0  0  0  0  0  0  0  0  0
   38.6186  -15.1710   27.5891 C   0  0  0  0  0  0  0  0  0  0  0  0
   36.7542  -17.1480   28.4926 C   0  0  0  0  0  0  0  0  0  0  0  0
   35.4730  -13.7111   28.7528 N   0  0  0  0  0  0  0  0  0  0  0  0
   36.7202  -13.6077   28.2531 N   0  0  0  0  0  0  0  0  0  0  0  0
   34.1401  -15.4719   29.4888 O   0  0  0  0  0  0  0  0  0  0  0  0
   37.1399  -12.7480   28.0209 H   0  0  0  0  0  0  0  0  0  0  0  0
   34.0079  -16.3904   29.6182 H   0  0  0  0  0  0  0  0  0  0  0  0
   40.5156  -23.7855   29.5021 C   0  0  0  0  0  0  0  0  0  0  0  0
   41.1555  -22.8492   28.7013 N   0  0  0  0  0  0  0  0  0  0  0  0
   39.7555  -23.5081   30.4216 O   0  0  0  0  0  0  0  0  0  0  0  0
   41.7441  -23.1704   27.9805 H   0  0  0  0  0  0  0  0  0  0  0  0
   40.2902  -25.6265   27.8443 C   0  0  0  0  0  0  0  0  0  0  0  0
   42.3494  -25.5684   29.3739 C   0  0  0  0  0  0  0  0  0  0  0  0
   40.6281  -27.0639   27.4449 C   0  0  0  0  0  0  0  0  0  0  0  0
   42.6476  -27.0207   28.9636 C   0  0  0  0  0  0  0  0  0  0  0  0
   40.8527  -25.2319   29.2183 C   0  0  0  0  0  0  0  0  0  0  0  0
   42.1438  -27.3146   27.5338 C   0  0  0  0  0  0  0  0  0  0  0  0
   42.4921  -28.7227   27.0450 C   0  0  0  0  0  0  0  0  0  0  0  0
   43.3203  -28.6377   25.8864 N   0  0  0  0  0  0  0  0  0  0  0  0
   44.1795  -28.1392   26.1184 H   0  0  0  0  0  0  0  0  0  0  0  0
   42.8243  -28.1356   25.1500 H   0  0  0  0  0  0  0  0  0  0  0  0
   42.2707  -20.6450   28.4305 C   0  0  0  0  0  0  0  0  0  0  0  0
   43.3642  -20.7781   29.4785 C   0  0  0  0  0  0  0  0  0  0  0  0
   45.4683  -21.1600   31.2829 C   0  0  0  0  0  0  0  0  0  0  0  0
   44.2393  -21.8063   31.4817 C   0  0  0  0  0  0  0  0  0  0  0  0
   45.6518  -20.3313   30.1764 C   0  0  0  0  0  0  0  0  0  0  0  0
   43.1853  -21.6243   30.5776 C   0  0  0  0  0  0  0  0  0  0  0  0
   44.6018  -20.1554   29.2720 C   0  0  0  0  0  0  0  0  0  0  0  0
  3  7  2  0  0  0
  3  4  1  0  0  0
  7  2  1  0  0  0
 27 25  1  0  0  0
 27 29  1  0  0  0
 31 30  1  0  0  0
 25 28  1  0  0  0
 39 37  2  0  0  0
 39 35  1  0  0  0
  4  6  2  0  0  0
 34 35  1  0  0  0
 34  1  1  0  0  0
 30 29  1  0  0  0
 21  1  1  0  0  0
 21 20  1  0  0  0
 28 20  1  0  0  0
 28 24  1  0  0  0
 37 36  1  0  0  0
 29 26  1  0  0  0
  2  1  1  0  0  0
  2  5  2  0  0  0
 35 40  2  0  0  0
 20 22  2  0  0  0
 26 24  1  0  0  0
  6  5  1  0  0  0
  6  8  1  0  0  0
 36 38  2  0  0  0
 40 38  1  0  0  0
 14  8  2  0  0  0
 14 11  1  0  0  0
  8 12  1  0  0  0
 17  9  1  0  0  0
 11  9  1  0  0  0
 11 10  2  0  0  0
 12 13  2  0  0  0
  9 15  2  0  0  0
 10 13  1  0  0  0
 10 16  1  0  0  0
 15 16  1  0  0  0
 16 18  1  0  0  0
 31 32  1  0  0  0
 31 33  1  0  0  0
 21 23  1  0  0  0
 17 19  1  0  0  0
M  END
> <minimizedAffinity>
-9.72969

$$$$
5EXL_5SS_A_301


 40 44  0  0  0  0  0  0  0  0999 V2000
   40.0211  -19.9040   26.4153 C   0  0  0  0  0  0  0  0  0  0  0  0
   41.5262  -20.1239   26.4935 C   0  0  0  0  0  0  0  0  0  0  0  0
   43.5541  -20.4148   25.3814 C   0  0  0  0  0  0  0  0  0  0  0  0
   44.2142  -20.6947   26.5722 C   0  0  0  0  0  0  0  0  0  0  0  0
   42.0924  -20.4319   27.7213 C   0  0  0  0  0  0  0  0  0  0  0  0
   43.4696  -20.6648   27.7610 C   0  0  0  0  0  0  0  0  0  0  0  0
   42.2219  -20.1464   25.3229 N   0  0  0  0  0  0  0  0  0  0  0  0
   44.1108  -21.0303   29.0087 C   0  0  0  0  0  0  0  0  0  0  0  0
   47.4571  -21.3196   30.8155 C   0  0  0  0  0  0  0  0  0  0  0  0
   45.3726  -21.9529   31.3071 C   0  0  0  0  0  0  0  0  0  0  0  0
   46.1363  -21.3222   30.3102 C   0  0  0  0  0  0  0  0  0  0  0  0
   43.3691  -21.7024   30.0040 C   0  0  0  0  0  0  0  0  0  0  0  0
   43.9841  -22.1746   31.1768 C   0  0  0  0  0  0  0  0  0  0  0  0
   45.5019  -20.8495   29.1417 C   0  0  0  0  0  0  0  0  0  0  0  0
   47.5369  -21.9226   32.0103 N   0  0  0  0  0  0  0  0  0  0  0  0
   46.2719  -22.2926   32.2907 N   0  0  0  0  0  0  0  0  0  0  0  0
   48.5622  -20.7719   30.2657 O   0  0  0  0  0  0  0  0  0  0  0  0
   46.0165  -22.7601   33.1186 H   0  0  0  0  0  0  0  0  0  0  0  0
   48.5101  -20.3497   29.4309 H   0  0  0  0  0  0  0  0  0  0  0  0
   39.2005  -18.1452   27.9907 C   0  0  0  0  0  0  0  0  0  0  0  0
   39.5648  -18.5530   26.7146 N   0  0  0  0  0  0  0  0  0  0  0  0
   39.2315  -18.8621   28.9832 O   0  0  0  0  0  0  0  0  0  0  0  0
   39.5125  -17.9004   25.9793 H   0  0  0  0  0  0  0  0  0  0  0  0
   38.1313  -16.2759   26.7453 C   0  0  0  0  0  0  0  0  0  0  0  0
   37.6871  -16.5161   29.2609 C   0  0  0  0  0  0  0  0  0  0  0  0
   37.5366  -14.8669   26.7754 C   0  0  0  0  0  0  0  0  0  0  0  0
   37.1129  -15.0890   29.2569 C   0  0  0  0  0  0  0  0  0  0  0  0
   38.6852  -16.7283   28.1050 C   0  0  0  0  0  0  0  0  0  0  0  0
   36.4835  -14.7411   27.8903 C   0  0  0  0  0  0  0  0  0  0  0  0
   35.8215  -13.3613   27.8605 C   0  0  0  0  0  0  0  0  0  0  0  0
   36.6746  -12.4338   27.1915 N   0  0  0  0  0  0  0  0  0  0  0  0
   36.8376  -12.7501   26.2357 H   0  0  0  0  0  0  0  0  0  0  0  0
   37.5646  -12.3728   27.6860 H   0  0  0  0  0  0  0  0  0  0  0  0
   39.4587  -20.3960   25.0510 C   0  0  0  0  0  0  0  0  0  0  0  0
   38.2443  -21.2844   25.2698 C   0  0  0  0  0  0  0  0  0  0  0  0
   35.9954  -22.9375   25.4674 C   0  0  0  0  0  0  0  0  0  0  0  0
   35.8646  -21.5465   25.5929 C   0  0  0  0  0  0  0  0  0  0  0  0
   37.2478  -23.5037   25.2313 C   0  0  0  0  0  0  0  0  0  0  0  0
   36.9860  -20.7141   25.4876 C   0  0  0  0  0  0  0  0  0  0  0  0
   38.3646  -22.6720   25.1204 C   0  0  0  0  0  0  0  0  0  0  0  0
  3  7  2  0  0  0
  3  4  1  0  0  0
  7  2  1  0  0  0
 27 25  1  0  0  0
 27 29  1  0  0  0
 31 30  1  0  0  0
 25 28  1  0  0  0
 39 37  2  0  0  0
 39 35  1  0  0  0
  4  6  2  0  0  0
 34 35  1  0  0  0
 34  1  1  0  0  0
 30 29  1  0  0  0
 21  1  1  0  0  0
 21 20  1  0  0  0
 28 20  1  0  0  0
 28 24  1  0  0  0
 37 36  1  0  0  0
 29 26  1  0  0  0
  2  1  1  0  0  0
  2  5  2  0  0  0
 35 40  2  0  0  0
 20 22  2  0  0  0
 26 24  1  0  0  0
  6  5  1  0  0  0
  6  8  1  0  0  0
 36 38  2  0  0  0
 40 38  1  0  0  0
 14  8  2  0  0  0
 14 11  1  0  0  0
  8 12  1  0  0  0
 17  9  1  0  0  0
 11  9  1  0  0  0
 11 10  2  0  0  0
 12 13  2  0  0  0
  9 15  2  0  0  0
 10 13  1  0  0  0
 10 16  1  0  0  0
 15 16  1  0  0  0
 16 18  1  0  0  0
 31 32  1  0  0  0
 31 33  1  0  0  0
 21 23  1  0  0  0
 17 19  1  0  0  0
M  END
> <minimizedAffinity>
-9.41892

$$$$
5EXL_5SS_A_301


 40 44  0  0  0  0  0  0  0  0999 V2000
   40.7942  -20.5443   26.3994 C   0  0  0  0  0  0  0  0  0  0  0  0
   40.1966  -19.2353   25.8999 C   0  0  0  0  0  0  0  0  0  0  0  0
   40.2606  -17.4738   24.3747 C   0  0  0  0  0  0  0  0  0  0  0  0
   39.2693  -16.7858   25.0648 C   0  0  0  0  0  0  0  0  0  0  0  0
   39.2352  -18.6029   26.6737 C   0  0  0  0  0  0  0  0  0  0  0  0
   38.7284  -17.3852   26.2122 C   0  0  0  0  0  0  0  0  0  0  0  0
   40.7419  -18.6787   24.7831 N   0  0  0  0  0  0  0  0  0  0  0  0
   37.7510  -16.6582   26.9983 C   0  0  0  0  0  0  0  0  0  0  0  0
   36.1170  -13.2571   27.5532 C   0  0  0  0  0  0  0  0  0  0  0  0
   36.0594  -15.2001   28.6529 C   0  0  0  0  0  0  0  0  0  0  0  0
   36.6293  -14.5750   27.5307 C   0  0  0  0  0  0  0  0  0  0  0  0
   37.2002  -17.2551   28.1526 C   0  0  0  0  0  0  0  0  0  0  0  0
   36.3390  -16.5393   29.0027 C   0  0  0  0  0  0  0  0  0  0  0  0
   37.4874  -15.3100   26.6852 C   0  0  0  0  0  0  0  0  0  0  0  0
   35.3196  -13.0482   28.6105 N   0  0  0  0  0  0  0  0  0  0  0  0
   35.2941  -14.2301   29.2572 N   0  0  0  0  0  0  0  0  0  0  0  0
   36.3101  -12.2689   26.6533 O   0  0  0  0  0  0  0  0  0  0  0  0
   34.7781  -14.3842   30.0814 H   0  0  0  0  0  0  0  0  0  0  0  0
   36.8667  -12.4114   25.9132 H   0  0  0  0  0  0  0  0  0  0  0  0
   42.9772  -20.5649   27.6170 C   0  0  0  0  0  0  0  0  0  0  0  0
   41.5937  -20.4497   27.6138 N   0  0  0  0  0  0  0  0  0  0  0  0
   43.6604  -20.7466   26.6168 O   0  0  0  0  0  0  0  0  0  0  0  0
   41.1323  -20.2973   28.4701 H   0  0  0  0  0  0  0  0  0  0  0  0
   43.2382  -21.7537   29.7866 C   0  0  0  0  0  0  0  0  0  0  0  0
   45.1627  -20.2924   28.9236 C   0  0  0  0  0  0  0  0  0  0  0  0
   43.9024  -21.8143   31.1632 C   0  0  0  0  0  0  0  0  0  0  0  0
   45.7919  -20.3600   30.3258 C   0  0  0  0  0  0  0  0  0  0  0  0
   43.6373  -20.5110   28.9763 C   0  0  0  0  0  0  0  0  0  0  0  0
   45.4304  -21.6806   31.0400 C   0  0  0  0  0  0  0  0  0  0  0  0
   46.1022  -21.8351   32.4067 C   0  0  0  0  0  0  0  0  0  0  0  0
   47.4419  -22.2945   32.2341 N   0  0  0  0  0  0  0  0  0  0  0  0
   47.9639  -21.6186   31.6763 H   0  0  0  0  0  0  0  0  0  0  0  0
   47.4334  -23.1955   31.7561 H   0  0  0  0  0  0  0  0  0  0  0  0
   39.6974  -21.6390   26.5344 C   0  0  0  0  0  0  0  0  0  0  0  0
   40.1917  -22.7762   27.4144 C   0  0  0  0  0  0  0  0  0  0  0  0
   41.2417  -24.7386   29.1101 C   0  0  0  0  0  0  0  0  0  0  0  0
   41.6013  -24.7083   27.7545 C   0  0  0  0  0  0  0  0  0  0  0  0
   40.3663  -23.7818   29.6230 C   0  0  0  0  0  0  0  0  0  0  0  0
   41.0842  -23.7238   26.9031 C   0  0  0  0  0  0  0  0  0  0  0  0
   39.8561  -22.7968   28.7741 C   0  0  0  0  0  0  0  0  0  0  0  0
  3  7  2  0  0  0
  3  4  1  0  0  0
  7  2  1  0  0  0
 27 25  1  0  0  0
 27 29  1  0  0  0
 31 30  1  0  0  0
 25 28  1  0  0  0
 39 37  2  0  0  0
 39 35  1  0  0  0
  4  6  2  0  0  0
 34 35  1  0  0  0
 34  1  1  0  0  0
 30 29  1  0  0  0
 21  1  1  0  0  0
 21 20  1  0  0  0
 28 20  1  0  0  0
 28 24  1  0  0  0
 37 36  1  0  0  0
 29 26  1  0  0  0
  2  1  1  0  0  0
  2  5  2  0  0  0
 35 40  2  0  0  0
 20 22  2  0  0  0
 26 24  1  0  0  0
  6  5  1  0  0  0
  6  8  1  0  0  0
 36 38  2  0  0  0
 40 38  1  0  0  0
 14  8  2  0  0  0
 14 11  1  0  0  0
  8 12  1  0  0  0
 17  9  1  0  0  0
 11  9  1  0  0  0
 11 10  2  0  0  0
 12 13  2  0  0  0
  9 15  2  0  0  0
 10 13  1  0  0  0
 10 16  1  0  0  0
 15 16  1  0  0  0
 16 18  1  0  0  0
 31 32  1  0  0  0
 31 33  1  0  0  0
 21 23  1  0  0  0
 17 19  1  0  0  0
M  END
> <minimizedAffinity>
-9.32595

$$$$
5EXL_5SS_A_301


 40 44  0  0  0  0  0  0  0  0999 V2000
   39.4570  -21.1566   26.3092 C   0  0  0  0  0  0  0  0  0  0  0  0
   39.2360  -19.6984   25.9291 C   0  0  0  0  0  0  0  0  0  0  0  0
   39.8637  -17.8628   24.6367 C   0  0  0  0  0  0  0  0  0  0  0  0
   38.9971  -17.0260   25.3301 C   0  0  0  0  0  0  0  0  0  0  0  0
   38.3769  -18.9307   26.7008 C   0  0  0  0  0  0  0  0  0  0  0  0
   38.2184  -17.5864   26.3538 C   0  0  0  0  0  0  0  0  0  0  0  0
   40.0058  -19.1832   24.9308 N   0  0  0  0  0  0  0  0  0  0  0  0
   37.3648  -16.7250   27.1480 C   0  0  0  0  0  0  0  0  0  0  0  0
   36.0154  -13.1775   27.5231 C   0  0  0  0  0  0  0  0  0  0  0  0
   35.9265  -15.0103   28.7963 C   0  0  0  0  0  0  0  0  0  0  0  0
   36.4352  -14.5268   27.5788 C   0  0  0  0  0  0  0  0  0  0  0  0
   36.8798  -17.1790   28.3934 C   0  0  0  0  0  0  0  0  0  0  0  0
   36.1465  -16.3318   29.2426 C   0  0  0  0  0  0  0  0  0  0  0  0
   37.1645  -15.3925   26.7361 C   0  0  0  0  0  0  0  0  0  0  0  0
   35.3303  -12.8210   28.6189 N   0  0  0  0  0  0  0  0  0  0  0  0
   35.2836  -13.9384   29.3705 N   0  0  0  0  0  0  0  0  0  0  0  0
   36.1933  -12.2865   26.5241 O   0  0  0  0  0  0  0  0  0  0  0  0
   34.8335  -13.9833   30.2449 H   0  0  0  0  0  0  0  0  0  0  0  0
   36.6716  -12.5322   25.7568 H   0  0  0  0  0  0  0  0  0  0  0  0
   37.4037  -22.3604   25.5453 C   0  0  0  0  0  0  0  0  0  0  0  0
   38.7720  -22.1363   25.4761 N   0  0  0  0  0  0  0  0  0  0  0  0
   36.6401  -21.7635   26.2942 O   0  0  0  0  0  0  0  0  0  0  0  0
   39.3031  -22.6627   24.8357 H   0  0  0  0  0  0  0  0  0  0  0  0
   37.4319  -24.8133   25.1318 C   0  0  0  0  0  0  0  0  0  0  0  0
   35.3384  -23.4660   24.5109 C   0  0  0  0  0  0  0  0  0  0  0  0
   36.9070  -26.0006   24.3227 C   0  0  0  0  0  0  0  0  0  0  0  0
   34.8511  -24.6734   23.6917 C   0  0  0  0  0  0  0  0  0  0  0  0
   36.8733  -23.4632   24.6572 C   0  0  0  0  0  0  0  0  0  0  0  0
   35.3686  -26.0011   24.2868 C   0  0  0  0  0  0  0  0  0  0  0  0
   34.8417  -27.2394   23.5574 C   0  0  0  0  0  0  0  0  0  0  0  0
   35.0028  -28.3896   24.3860 N   0  0  0  0  0  0  0  0  0  0  0  0
   34.4799  -28.2606   25.2523 H   0  0  0  0  0  0  0  0  0  0  0  0
   35.9915  -28.5175   24.6016 H   0  0  0  0  0  0  0  0  0  0  0  0
   40.9751  -21.4775   26.4184 C   0  0  0  0  0  0  0  0  0  0  0  0
   41.4066  -21.5008   27.8762 C   0  0  0  0  0  0  0  0  0  0  0  0
   42.3247  -21.7017   30.5117 C   0  0  0  0  0  0  0  0  0  0  0  0
   41.0877  -22.2549   30.1490 C   0  0  0  0  0  0  0  0  0  0  0  0
   43.1100  -21.0577   29.5559 C   0  0  0  0  0  0  0  0  0  0  0  0
   40.6269  -22.1634   28.8296 C   0  0  0  0  0  0  0  0  0  0  0  0
   42.6521  -20.9725   28.2390 C   0  0  0  0  0  0  0  0  0  0  0  0
  3  7  2  0  0  0
  3  4  1  0  0  0
  7  2  1  0  0  0
 27 25  1  0  0  0
 27 29  1  0  0  0
 31 30  1  0  0  0
 25 28  1  0  0  0
 39 37  2  0  0  0
 39 35  1  0  0  0
  4  6  2  0  0  0
 34 35  1  0  0  0
 34  1  1  0  0  0
 30 29  1  0  0  0
 21  1  1  0  0  0
 21 20  1  0  0  0
 28 20  1  0  0  0
 28 24  1  0  0  0
 37 36  1  0  0  0
 29 26  1  0  0  0
  2  1  1  0  0  0
  2  5  2  0  0  0
 35 40  2  0  0  0
 20 22  2  0  0  0
 26 24  1  0  0  0
  6  5  1  0  0  0
  6  8  1  0  0  0
 36 38  2  0  0  0
 40 38  1  0  0  0
 14  8  2  0  0  0
 14 11  1  0  0  0
  8 12  1  0  0  0
 17  9  1  0  0  0
 11  9  1  0  0  0
 11 10  2  0  0  0
 12 13  2  0  0  0
  9 15  2  0  0  0
 10 13  1  0  0  0
 10 16  1  0  0  0
 15 16  1  0  0  0
 16 18  1  0  0  0
 31 32  1  0  0  0
 31 33  1  0  0  0
 21 23  1  0  0  0
 17 19  1  0  0  0
M  END
> <minimizedAffinity>
-8.96453

$$$$
5EXL_5SS_A_301


 40 44  0  0  0  0  0  0  0  0999 V2000
   40.4731  -20.5248   27.0807 C   0  0  0  0  0  0  0  0  0  0  0  0
   39.9539  -19.2250   26.4799 C   0  0  0  0  0  0  0  0  0  0  0  0
   40.1800  -17.5425   24.8826 C   0  0  0  0  0  0  0  0  0  0  0  0
   39.1661  -16.7933   25.4682 C   0  0  0  0  0  0  0  0  0  0  0  0
   38.9623  -18.5280   27.1536 C   0  0  0  0  0  0  0  0  0  0  0  0
   38.5281  -17.3202   26.6012 C   0  0  0  0  0  0  0  0  0  0  0  0
   40.5928  -18.7394   25.3796 N   0  0  0  0  0  0  0  0  0  0  0  0
   37.5227  -16.5278   27.2817 C   0  0  0  0  0  0  0  0  0  0  0  0
   35.9130  -13.0777   27.5075 C   0  0  0  0  0  0  0  0  0  0  0  0
   35.7705  -14.9359   28.7381 C   0  0  0  0  0  0  0  0  0  0  0  0
   36.4062  -14.3994   27.6055 C   0  0  0  0  0  0  0  0  0  0  0  0
   36.9048  -17.0341   28.4454 C   0  0  0  0  0  0  0  0  0  0  0  0
   36.0119  -16.2495   29.1964 C   0  0  0  0  0  0  0  0  0  0  0  0
   37.2954  -15.2027   26.8602 C   0  0  0  0  0  0  0  0  0  0  0  0
   35.0658  -12.7845   28.5043 N   0  0  0  0  0  0  0  0  0  0  0  0
   34.9897  -13.9166   29.2312 N   0  0  0  0  0  0  0  0  0  0  0  0
   36.1664  -12.1588   26.5508 O   0  0  0  0  0  0  0  0  0  0  0  0
   34.4301  -14.0054   30.0363 H   0  0  0  0  0  0  0  0  0  0  0  0
   36.7580  -12.3603   25.8527 H   0  0  0  0  0  0  0  0  0  0  0  0
   42.7805  -20.9885   27.9231 C   0  0  0  0  0  0  0  0  0  0  0  0
   41.5389  -20.3835   28.0641 N   0  0  0  0  0  0  0  0  0  0  0  0
   43.1083  -21.6854   26.9707 O   0  0  0  0  0  0  0  0  0  0  0  0
   41.3712  -19.8347   28.8641 H   0  0  0  0  0  0  0  0  0  0  0  0
   43.3814  -21.7590   30.2108 C   0  0  0  0  0  0  0  0  0  0  0  0
   45.2273  -20.8659   28.6686 C   0  0  0  0  0  0  0  0  0  0  0  0
   44.3351  -21.6692   31.4033 C   0  0  0  0  0  0  0  0  0  0  0  0
   46.1524  -20.7715   29.8940 C   0  0  0  0  0  0  0  0  0  0  0  0
   43.7415  -20.7909   29.0736 C   0  0  0  0  0  0  0  0  0  0  0  0
   45.7957  -21.8402   30.9501 C   0  0  0  0  0  0  0  0  0  0  0  0
   46.7420  -21.8442   32.1532 C   0  0  0  0  0  0  0  0  0  0  0  0
   48.0718  -22.1222   31.7173 N   0  0  0  0  0  0  0  0  0  0  0  0
   48.3699  -21.4048   31.0563 H   0  0  0  0  0  0  0  0  0  0  0  0
   48.0967  -23.0349   31.2627 H   0  0  0  0  0  0  0  0  0  0  0  0
   39.3032  -21.3828   27.6417 C   0  0  0  0  0  0  0  0  0  0  0  0
   38.6347  -22.1622   26.5203 C   0  0  0  0  0  0  0  0  0  0  0  0
   37.5193  -23.4885   24.3235 C   0  0  0  0  0  0  0  0  0  0  0  0
   36.8247  -22.4400   24.9446 C   0  0  0  0  0  0  0  0  0  0  0  0
   38.7770  -23.8683   24.7915 C   0  0  0  0  0  0  0  0  0  0  0  0
   37.3817  -21.7681   26.0400 C   0  0  0  0  0  0  0  0  0  0  0  0
   39.3341  -23.1933   25.8802 C   0  0  0  0  0  0  0  0  0  0  0  0
  3  7  2  0  0  0
  3  4  1  0  0  0
  7  2  1  0  0  0
 27 25  1  0  0  0
 27 29  1  0  0  0
 31 30  1  0  0  0
 25 28  1  0  0  0
 39 37  2  0  0  0
 39 35  1  0  0  0
  4  6  2  0  0  0
 34 35  1  0  0  0
 34  1  1  0  0  0
 30 29  1  0  0  0
 21  1  1  0  0  0
 21 20  1  0  0  0
 28 20  1  0  0  0
 28 24  1  0  0  0
 37 36  1  0  0  0
 29 26  1  0  0  0
  2  1  1  0  0  0
  2  5  2  0  0  0
 35 40  2  0  0  0
 20 22  2  0  0  0
 26 24  1  0  0  0
  6  5  1  0  0  0
  6  8  1  0  0  0
 36 38  2  0  0  0
 40 38  1  0  0  0
 14  8  2  0  0  0
 14 11  1  0  0  0
  8 12  1  0  0  0
 17  9  1  0  0  0
 11  9  1  0  0  0
 11 10  2  0  0  0
 12 13  2  0  0  0
  9 15  2  0  0  0
 10 13  1  0  0  0
 10 16  1  0  0  0
 15 16  1  0  0  0
 16 18  1  0  0  0
 31 32  1  0  0  0
 31 33  1  0  0  0
 21 23  1  0  0  0
 17 19  1  0  0  0
M  END
> <minimizedAffinity>
-8.95936

$$$$
5EXL_5SS_A_301


 40 44  0  0  0  0  0  0  0  0999 V2000
   39.7801  -20.1634   27.7546 C   0  0  0  0  0  0  0  0  0  0  0  0
   41.1989  -20.2058   27.2022 C   0  0  0  0  0  0  0  0  0  0  0  0
   42.6147  -20.1582   25.3510 C   0  0  0  0  0  0  0  0  0  0  0  0
   43.7218  -20.4527   26.1383 C   0  0  0  0  0  0  0  0  0  0  0  0
   42.2377  -20.5424   28.0569 C   0  0  0  0  0  0  0  0  0  0  0  0
   43.5254  -20.6100   27.5186 C   0  0  0  0  0  0  0  0  0  0  0  0
   41.3576  -20.0485   25.8587 N   0  0  0  0  0  0  0  0  0  0  0  0
   44.6450  -20.9962   28.3546 C   0  0  0  0  0  0  0  0  0  0  0  0
   45.7070  -21.8999   31.9044 C   0  0  0  0  0  0  0  0  0  0  0  0
   46.8202  -21.5009   30.0098 C   0  0  0  0  0  0  0  0  0  0  0  0
   45.5222  -21.5538   30.5458 C   0  0  0  0  0  0  0  0  0  0  0  0
   45.9588  -20.9086   27.8460 C   0  0  0  0  0  0  0  0  0  0  0  0
   47.0747  -21.1633   28.6625 C   0  0  0  0  0  0  0  0  0  0  0  0
   44.4132  -21.3007   29.7106 C   0  0  0  0  0  0  0  0  0  0  0  0
   47.0048  -22.0241   32.2171 N   0  0  0  0  0  0  0  0  0  0  0  0
   47.6580  -21.7847   31.0630 N   0  0  0  0  0  0  0  0  0  0  0  0
   44.7655  -22.1383   32.8427 O   0  0  0  0  0  0  0  0  0  0  0  0
   48.6388  -21.8105   30.9817 H   0  0  0  0  0  0  0  0  0  0  0  0
   43.8575  -22.0525   32.6277 H   0  0  0  0  0  0  0  0  0  0  0  0
   39.0539  -18.1658   29.0702 C   0  0  0  0  0  0  0  0  0  0  0  0
   39.1848  -18.8379   27.8625 N   0  0  0  0  0  0  0  0  0  0  0  0
   39.4257  -18.6042   30.1518 O   0  0  0  0  0  0  0  0  0  0  0  0
   38.8610  -18.3994   27.0426 H   0  0  0  0  0  0  0  0  0  0  0  0
   38.8507  -16.0480   27.7809 C   0  0  0  0  0  0  0  0  0  0  0  0
   36.8118  -16.9286   29.0660 C   0  0  0  0  0  0  0  0  0  0  0  0
   38.1535  -14.6985   27.6007 C   0  0  0  0  0  0  0  0  0  0  0  0
   36.1493  -15.5526   28.8815 C   0  0  0  0  0  0  0  0  0  0  0  0
   38.3493  -16.8296   29.0049 C   0  0  0  0  0  0  0  0  0  0  0  0
   36.6245  -14.8709   27.5798 C   0  0  0  0  0  0  0  0  0  0  0  0
   35.9298  -13.5347   27.3059 C   0  0  0  0  0  0  0  0  0  0  0  0
   35.9565  -12.7293   28.4833 N   0  0  0  0  0  0  0  0  0  0  0  0
   36.9243  -12.5566   28.7551 H   0  0  0  0  0  0  0  0  0  0  0  0
   35.4727  -13.2150   29.2385 H   0  0  0  0  0  0  0  0  0  0  0  0
   38.8503  -21.1331   26.9705 C   0  0  0  0  0  0  0  0  0  0  0  0
   39.2821  -22.5740   27.1926 C   0  0  0  0  0  0  0  0  0  0  0  0
   39.8795  -25.2705   27.6412 C   0  0  0  0  0  0  0  0  0  0  0  0
   40.1143  -24.3173   28.6432 C   0  0  0  0  0  0  0  0  0  0  0  0
   39.3351  -24.8799   26.4181 C   0  0  0  0  0  0  0  0  0  0  0  0
   39.8104  -22.9674   28.4263 C   0  0  0  0  0  0  0  0  0  0  0  0
   39.0267  -23.5342   26.2053 C   0  0  0  0  0  0  0  0  0  0  0  0
  3  7  2  0  0  0
  3  4  1  0  0  0
  7  2  1  0  0  0
 27 25  1  0  0  0
 27 29  1  0  0  0
 31 30  1  0  0  0
 25 28  1  0  0  0
 39 37  2  0  0  0
 39 35  1  0  0  0
  4  6  2  0  0  0
 34 35  1  0  0  0
 34  1  1  0  0  0
 30 29  1  0  0  0
 21  1  1  0  0  0
 21 20  1  0  0  0
 28 20  1  0  0  0
 28 24  1  0  0  0
 37 36  1  0  0  0
 29 26  1  0  0  0
  2  1  1  0  0  0
  2  5  2  0  0  0
 35 40  2  0  0  0
 20 22  2  0  0  0
 26 24  1  0  0  0
  6  5  1  0  0  0
  6  8  1  0  0  0
 36 38  2  0  0  0
 40 38  1  0  0  0
 14  8  2  0  0  0
 14 11  1  0  0  0
  8 12  1  0  0  0
 17  9  1  0  0  0
 11  9  1  0  0  0
 11 10  2  0  0  0
 12 13  2  0  0  0
  9 15  2  0  0  0
 10 13  1  0  0  0
 10 16  1  0  0  0
 15 16  1  0  0  0
 16 18  1  0  0  0
 31 32  1  0  0  0
 31 33  1  0  0  0
 21 23  1  0  0  0
 17 19  1  0  0  0
M  END
> <minimizedAffinity>
-8.94420

$$$$
5EXL_5SS_A_301


 40 44  0  0  0  0  0  0  0  0999 V2000
   39.0991  -21.1145   27.4139 C   0  0  0  0  0  0  0  0  0  0  0  0
   39.2101  -19.7539   26.7384 C   0  0  0  0  0  0  0  0  0  0  0  0
   40.2338  -18.4071   25.1347 C   0  0  0  0  0  0  0  0  0  0  0  0
   39.5753  -17.2765   25.6040 C   0  0  0  0  0  0  0  0  0  0  0  0
   38.5434  -18.6747   27.2986 C   0  0  0  0  0  0  0  0  0  0  0  0
   38.6898  -17.4296   26.6814 C   0  0  0  0  0  0  0  0  0  0  0  0
   40.0768  -19.6368   25.6944 N   0  0  0  0  0  0  0  0  0  0  0  0
   38.0494  -16.2575   27.2451 C   0  0  0  0  0  0  0  0  0  0  0  0
   34.9486  -14.9813   29.0622 C   0  0  0  0  0  0  0  0  0  0  0  0
   36.7069  -13.9837   28.1130 C   0  0  0  0  0  0  0  0  0  0  0  0
   36.1459  -15.2486   28.3587 C   0  0  0  0  0  0  0  0  0  0  0  0
   38.5752  -14.9762   26.9732 C   0  0  0  0  0  0  0  0  0  0  0  0
   37.9166  -13.8116   27.4053 C   0  0  0  0  0  0  0  0  0  0  0  0
   36.8231  -16.4072   27.9227 C   0  0  0  0  0  0  0  0  0  0  0  0
   34.7453  -13.6659   29.2225 N   0  0  0  0  0  0  0  0  0  0  0  0
   35.8162  -13.0830   28.6487 N   0  0  0  0  0  0  0  0  0  0  0  0
   34.0706  -15.8641   29.5852 O   0  0  0  0  0  0  0  0  0  0  0  0
   35.9481  -12.1079   28.6162 H   0  0  0  0  0  0  0  0  0  0  0  0
   34.2095  -16.7842   29.4751 H   0  0  0  0  0  0  0  0  0  0  0  0
   37.4266  -22.3768   26.0508 C   0  0  0  0  0  0  0  0  0  0  0  0
   38.7140  -22.2198   26.5461 N   0  0  0  0  0  0  0  0  0  0  0  0
   36.4974  -21.6124   26.2797 O   0  0  0  0  0  0  0  0  0  0  0  0
   39.3971  -22.8848   26.3001 H   0  0  0  0  0  0  0  0  0  0  0  0
   37.8536  -24.8233   25.9070 C   0  0  0  0  0  0  0  0  0  0  0  0
   35.7069  -23.8675   24.8767 C   0  0  0  0  0  0  0  0  0  0  0  0
   37.6214  -26.1414   25.1663 C   0  0  0  0  0  0  0  0  0  0  0  0
   35.5158  -25.2005   24.1331 C   0  0  0  0  0  0  0  0  0  0  0  0
   37.1889  -23.6193   25.2225 C   0  0  0  0  0  0  0  0  0  0  0  0
   36.1197  -26.3784   24.9285 C   0  0  0  0  0  0  0  0  0  0  0  0
   35.8809  -27.7401   24.2715 C   0  0  0  0  0  0  0  0  0  0  0  0
   35.1764  -28.5917   25.1739 N   0  0  0  0  0  0  0  0  0  0  0  0
   34.2786  -28.1689   25.4094 H   0  0  0  0  0  0  0  0  0  0  0  0
   35.7269  -28.7163   26.0235 H   0  0  0  0  0  0  0  0  0  0  0  0
   40.3963  -21.4486   28.2047 C   0  0  0  0  0  0  0  0  0  0  0  0
   40.4931  -22.9457   28.4523 C   0  0  0  0  0  0  0  0  0  0  0  0
   40.8201  -25.6606   29.0452 C   0  0  0  0  0  0  0  0  0  0  0  0
   41.4042  -25.1122   27.8938 C   0  0  0  0  0  0  0  0  0  0  0  0
   40.0817  -24.8512   29.9081 C   0  0  0  0  0  0  0  0  0  0  0  0
   41.2496  -23.7524   27.5962 C   0  0  0  0  0  0  0  0  0  0  0  0
   39.9334  -23.4939   29.6134 C   0  0  0  0  0  0  0  0  0  0  0  0
  3  7  2  0  0  0
  3  4  1  0  0  0
  7  2  1  0  0  0
 27 25  1  0  0  0
 27 29  1  0  0  0
 31 30  1  0  0  0
 25 28  1  0  0  0
 39 37  2  0  0  0
 39 35  1  0  0  0
  4  6  2  0  0  0
 34 35  1  0  0  0
 34  1  1  0  0  0
 30 29  1  0  0  0
 21  1  1  0  0  0
 21 20  1  0  0  0
 28 20  1  0  0  0
 28 24  1  0  0  0
 37 36  1  0  0  0
 29 26  1  0  0  0
  2  1  1  0  0  0
  2  5  2  0  0  0
 35 40  2  0  0  0
 20 22  2  0  0  0
 26 24  1  0  0  0
  6  5  1  0  0  0
  6  8  1  0  0  0
 36 38  2  0  0  0
 40 38  1  0  0  0
 14  8  2  0  0  0
 14 11  1  0  0  0
  8 12  1  0  0  0
 17  9  1  0  0  0
 11  9  1  0  0  0
 11 10  2  0  0  0
 12 13  2  0  0  0
  9 15  2  0  0  0
 10 13  1  0  0  0
 10 16  1  0  0  0
 15 16  1  0  0  0
 16 18  1  0  0  0
 31 32  1  0  0  0
 31 33  1  0  0  0
 21 23  1  0  0  0
 17 19  1  0  0  0
M  END
> <minimizedAffinity>
-8.93094

$$$$
5EXL_5SS_A_301


 40 44  0  0  0  0  0  0  0  0999 V2000
   39.7440  -19.8191   27.4799 C   0  0  0  0  0  0  0  0  0  0  0  0
   39.7913  -20.7037   26.2409 C   0  0  0  0  0  0  0  0  0  0  0  0
   40.4754  -20.9978   24.0321 C   0  0  0  0  0  0  0  0  0  0  0  0
   39.7564  -22.1824   23.9236 C   0  0  0  0  0  0  0  0  0  0  0  0
   39.0128  -21.8509   26.2103 C   0  0  0  0  0  0  0  0  0  0  0  0
   39.0454  -22.6268   25.0486 C   0  0  0  0  0  0  0  0  0  0  0  0
   40.4904  -20.2460   25.1655 N   0  0  0  0  0  0  0  0  0  0  0  0
   38.2219  -23.8152   24.9431 C   0  0  0  0  0  0  0  0  0  0  0  0
   34.7819  -25.1354   23.9585 C   0  0  0  0  0  0  0  0  0  0  0  0
   36.5587  -26.0421   24.9630 C   0  0  0  0  0  0  0  0  0  0  0  0
   36.0893  -24.8389   24.4090 C   0  0  0  0  0  0  0  0  0  0  0  0
   38.6590  -25.0217   25.5309 C   0  0  0  0  0  0  0  0  0  0  0  0
   37.8375  -26.1626   25.5496 C   0  0  0  0  0  0  0  0  0  0  0  0
   36.9291  -23.7050   24.3937 C   0  0  0  0  0  0  0  0  0  0  0  0
   34.4345  -26.4016   24.2293 N   0  0  0  0  0  0  0  0  0  0  0  0
   35.5183  -26.9317   24.8294 N   0  0  0  0  0  0  0  0  0  0  0  0
   33.9238  -24.3322   23.2936 O   0  0  0  0  0  0  0  0  0  0  0  0
   35.5612  -27.8644   25.1417 H   0  0  0  0  0  0  0  0  0  0  0  0
   34.1633  -23.4467   23.1027 H   0  0  0  0  0  0  0  0  0  0  0  0
   38.7705  -17.5500   27.0898 C   0  0  0  0  0  0  0  0  0  0  0  0
   38.6472  -18.8611   27.5294 N   0  0  0  0  0  0  0  0  0  0  0  0
   39.7929  -17.0708   26.6151 O   0  0  0  0  0  0  0  0  0  0  0  0
   37.7804  -19.1567   27.8904 H   0  0  0  0  0  0  0  0  0  0  0  0
   36.9683  -16.9133   28.6820 C   0  0  0  0  0  0  0  0  0  0  0  0
   37.7957  -15.1847   26.9759 C   0  0  0  0  0  0  0  0  0  0  0  0
   35.7570  -16.0307   28.9879 C   0  0  0  0  0  0  0  0  0  0  0  0
   36.5558  -14.3322   27.2957 C   0  0  0  0  0  0  0  0  0  0  0  0
   37.5513  -16.6763   27.2805 C   0  0  0  0  0  0  0  0  0  0  0  0
   36.0877  -14.5465   28.7517 C   0  0  0  0  0  0  0  0  0  0  0  0
   34.9070  -13.6562   29.1469 C   0  0  0  0  0  0  0  0  0  0  0  0
   33.7806  -14.4690   29.4726 N   0  0  0  0  0  0  0  0  0  0  0  0
   34.0174  -15.0812   30.2533 H   0  0  0  0  0  0  0  0  0  0  0  0
   33.5237  -15.0341   28.6632 H   0  0  0  0  0  0  0  0  0  0  0  0
   39.7975  -20.6770   28.7764 C   0  0  0  0  0  0  0  0  0  0  0  0
   41.2401  -20.9752   29.1533 C   0  0  0  0  0  0  0  0  0  0  0  0
   43.8777  -21.3809   29.9944 C   0  0  0  0  0  0  0  0  0  0  0  0
   43.6079  -20.5918   28.8664 C   0  0  0  0  0  0  0  0  0  0  0  0
   42.8297  -21.9587   30.7106 C   0  0  0  0  0  0  0  0  0  0  0  0
   42.2891  -20.3797   28.4454 C   0  0  0  0  0  0  0  0  0  0  0  0
   41.5145  -21.7413   30.2933 C   0  0  0  0  0  0  0  0  0  0  0  0
  3  7  2  0  0  0
  3  4  1  0  0  0
  7  2  1  0  0  0
 27 25  1  0  0  0
 27 29  1  0  0  0
 31 30  1  0  0  0
 25 28  1  0  0  0
 39 37  2  0  0  0
 39 35  1  0  0  0
  4  6  2  0  0  0
 34 35  1  0  0  0
 34  1  1  0  0  0
 30 29  1  0  0  0
 21  1  1  0  0  0
 21 20  1  0  0  0
 28 20  1  0  0  0
 28 24  1  0  0  0
 37 36  1  0  0  0
 29 26  1  0  0  0
  2  1  1  0  0  0
  2  5  2  0  0  0
 35 40  2  0  0  0
 20 22  2  0  0  0
 26 24  1  0  0  0
  6  5  1  0  0  0
  6  8  1  0  0  0
 36 38  2  0  0  0
 40 38  1  0  0  0
 14  8  2  0  0  0
 14 11  1  0  0  0
  8 12  1  0  0  0
 17  9  1  0  0  0
 11  9  1  0  0  0
 11 10  2  0  0  0
 12 13  2  0  0  0
  9 15  2  0  0  0
 10 13  1  0  0  0
 10 16  1  0  0  0
 15 16  1  0  0  0
 16 18  1  0  0  0
 31 32  1  0  0  0
 31 33  1  0  0  0
 21 23  1  0  0  0
 17 19  1  0  0  0
M  END
> <minimizedAffinity>
-8.90417

$$$$
