4QLL_CTT_A_1001


 59 62  0  0  0  0  0  0  0  0999 V2000
    1.4612    0.7630   42.8868 O   0  0  0  0  0  0  0  0  0  0  0  0
    2.2094    0.8356   47.1213 C   0  0  0  0  0  0  0  0  0  0  0  0
    2.9402    1.8258   46.2218 C   0  0  0  0  0  0  0  0  0  0  0  0
    3.0303    3.1015   46.8710 O   0  0  0  0  0  0  0  0  0  0  0  0
    2.3265    1.9792   44.8309 C   0  0  0  0  0  0  0  0  0  0  0  0
    3.2370    2.7720   44.0539 O   0  0  0  0  0  0  0  0  0  0  0  0
    1.9047   -0.3694   46.3995 O   0  0  0  0  0  0  0  0  0  0  0  0
    1.2198   -0.2021   45.1493 C   0  0  0  0  0  0  0  0  0  0  0  0
    2.0820    0.6129   44.1816 C   0  0  0  0  0  0  0  0  0  0  0  0
    2.1388    3.4582   47.0082 H   0  0  0  0  0  0  0  0  0  0  0  0
    4.0970    2.3256   44.0088 H   0  0  0  0  0  0  0  0  0  0  0  0
    0.8673   -1.5898   44.6236 C   0  0  0  0  0  0  0  0  0  0  0  0
   -0.0282   -1.4695   43.5031 O   0  0  0  0  0  0  0  0  0  0  0  0
   -0.8390   -1.0173   43.7843 H   0  0  0  0  0  0  0  0  0  0  0  0
    3.1253    0.5759   48.1941 O   0  0  0  0  0  0  0  0  0  0  0  0
    2.3365   -1.4041   53.3534 O   0  0  0  0  0  0  0  0  0  0  0  0
    2.8810   -0.9103   52.1190 C   0  0  0  0  0  0  0  0  0  0  0  0
    2.5440   -1.8545   50.9670 C   0  0  0  0  0  0  0  0  0  0  0  0
    3.0057   -3.1764   51.2482 O   0  0  0  0  0  0  0  0  0  0  0  0
    3.1947   -1.3166   49.6916 C   0  0  0  0  0  0  0  0  0  0  0  0
    3.0665   -2.2409   48.5941 O   0  0  0  0  0  0  0  0  0  0  0  0
    2.3470    0.3891   51.8138 O   0  0  0  0  0  0  0  0  0  0  0  0
    2.8639    0.9637   50.6007 C   0  0  0  0  0  0  0  0  0  0  0  0
    2.5754    0.0520   49.4051 C   0  0  0  0  0  0  0  0  0  0  0  0
    2.5600   -0.7929   54.0727 H   0  0  0  0  0  0  0  0  0  0  0  0
    3.9679   -3.1638   51.3699 H   0  0  0  0  0  0  0  0  0  0  0  0
    2.1268   -2.3967   48.4106 H   0  0  0  0  0  0  0  0  0  0  0  0
    2.2636    2.3634   50.4610 C   0  0  0  0  0  0  0  0  0  0  0  0
    3.1299    3.1803   49.6609 O   0  0  0  0  0  0  0  0  0  0  0  0
    3.9990    3.2439   50.0871 H   0  0  0  0  0  0  0  0  0  0  0  0
    2.2858    0.4761   41.7367 C   0  0  0  0  0  0  0  0  0  0  0  0
    1.4350    0.5133   40.4727 C   0  0  0  0  0  0  0  0  0  0  0  0
    0.4442   -0.5003   40.6297 O   0  0  0  0  0  0  0  0  0  0  0  0
    2.2543    0.2662   39.2108 C   0  0  0  0  0  0  0  0  0  0  0  0
    1.4619    0.5128   38.0352 O   0  0  0  0  0  0  0  0  0  0  0  0
    3.3358    1.4181   41.5169 O   0  0  0  0  0  0  0  0  0  0  0  0
    4.2396    1.0181   40.4736 C   0  0  0  0  0  0  0  0  0  0  0  0
    3.5542    1.0701   39.1049 C   0  0  0  0  0  0  0  0  0  0  0  0
    0.8770   -1.3619   40.7360 H   0  0  0  0  0  0  0  0  0  0  0  0
    1.2182    1.4510   38.0004 H   0  0  0  0  0  0  0  0  0  0  0  0
    5.4515    1.9180   40.5817 C   0  0  0  0  0  0  0  0  0  0  0  0
    5.2305    2.7767   41.7244 O   0  0  0  0  0  0  0  0  0  0  0  0
    4.4143    3.2844   41.5944 H   0  0  0  0  0  0  0  0  0  0  0  0
    4.3120    0.4584   38.0373 O   0  0  0  0  0  0  0  0  0  0  0  0
    5.2723    1.1322   37.1578 C   0  0  0  0  0  0  0  0  0  0  0  0
    5.6605    0.2510   35.9093 C   0  0  0  0  0  0  0  0  0  0  0  0
    7.0726    0.0076   35.7598 O   0  0  0  0  0  0  0  0  0  0  0  0
    5.2470    0.8141   34.5510 C   0  0  0  0  0  0  0  0  0  0  0  0
    5.1946   -0.2342   33.5435 O   0  0  0  0  0  0  0  0  0  0  0  0
    3.9048    1.4958   34.7654 C   0  0  0  0  0  0  0  0  0  0  0  0
    3.3318    1.8337   33.5041 O   0  0  0  0  0  0  0  0  0  0  0  0
    4.7996    2.4560   36.8472 O   0  0  0  0  0  0  0  0  0  0  0  0
    4.2028    2.7502   35.5745 C   0  0  0  0  0  0  0  0  0  0  0  0
    7.5234    0.8396   35.5469 H   0  0  0  0  0  0  0  0  0  0  0  0
    4.5607   -0.9151   33.8181 H   0  0  0  0  0  0  0  0  0  0  0  0
    3.9418    2.4082   33.0154 H   0  0  0  0  0  0  0  0  0  0  0  0
    2.9762    3.6217   35.8295 C   0  0  0  0  0  0  0  0  0  0  0  0
    2.1584    3.1072   36.9034 O   0  0  0  0  0  0  0  0  0  0  0  0
    1.8370    2.2224   36.6697 H   0  0  0  0  0  0  0  0  0  0  0  0
 16 17  1  0  0  0
 17 22  1  0  0  0
 17 18  1  0  0  0
 19 18  1  0  0  0
 18 20  1  0  0  0
 20 24  1  0  0  0
 20 21  1  0  0  0
 22 23  1  0  0  0
 23 24  1  0  0  0
 23 28  1  0  0  0
 29 28  1  0  0  0
 24 15  1  0  0  0
 15  2  1  0  0  0
  2  3  1  0  0  0
  2  7  1  0  0  0
  4  3  1  0  0  0
  3  5  1  0  0  0
  5  6  1  0  0  0
  5  9  1  0  0  0
  7  8  1  0  0  0
  8 12  1  0  0  0
  8  9  1  0  0  0
 13 12  1  0  0  0
  9  1  1  0  0  0
  1 31  1  0  0  0
 31 36  1  0  0  0
 31 32  1  0  0  0
 33 32  1  0  0  0
 32 34  1  0  0  0
 34 38  1  0  0  0
 34 35  1  0  0  0
 36 37  1  0  0  0
 41 37  1  0  0  0
 37 38  1  0  0  0
 42 41  1  0  0  0
 38 44  1  0  0  0
 44 45  1  0  0  0
 45 52  1  0  0  0
 45 46  1  0  0  0
 46 47  1  0  0  0
 46 48  1  0  0  0
 50 48  1  0  0  0
 48 49  1  0  0  0
 53 50  1  0  0  0
 50 51  1  0  0  0
 52 53  1  0  0  0
 57 53  1  0  0  0
 58 57  1  0  0  0
 16 25  1  0  0  0
 19 26  1  0  0  0
 21 27  1  0  0  0
 29 30  1  0  0  0
  4 10  1  0  0  0
  6 11  1  0  0  0
 13 14  1  0  0  0
 33 39  1  0  0  0
 35 40  1  0  0  0
 42 43  1  0  0  0
 47 54  1  0  0  0
 49 55  1  0  0  0
 51 56  1  0  0  0
 58 59  1  0  0  0
M  END
> <minimizedAffinity>
-12.10294

$$$$
4QLL_CTT_A_1001


 59 62  0  0  0  0  0  0  0  0999 V2000
    3.7665    0.0128   42.7509 O   0  0  0  0  0  0  0  0  0  0  0  0
    2.4834    1.6039   38.9671 C   0  0  0  0  0  0  0  0  0  0  0  0
    1.7898    0.3665   39.5250 C   0  0  0  0  0  0  0  0  0  0  0  0
    0.3814    0.4356   39.2628 O   0  0  0  0  0  0  0  0  0  0  0  0
    2.0424    0.1241   41.0123 C   0  0  0  0  0  0  0  0  0  0  0  0
    1.5024   -1.1686   41.3261 O   0  0  0  0  0  0  0  0  0  0  0  0
    3.8454    1.6652   39.4221 O   0  0  0  0  0  0  0  0  0  0  0  0
    4.0447    1.5542   40.8391 C   0  0  0  0  0  0  0  0  0  0  0  0
    3.5381    0.1981   41.3375 C   0  0  0  0  0  0  0  0  0  0  0  0
    0.0030    1.1982   39.7277 H   0  0  0  0  0  0  0  0  0  0  0  0
    1.9406   -1.8425   40.7832 H   0  0  0  0  0  0  0  0  0  0  0  0
    5.5258    1.7868   41.1194 C   0  0  0  0  0  0  0  0  0  0  0  0
    5.7029    2.1747   42.4941 O   0  0  0  0  0  0  0  0  0  0  0  0
    5.2115    2.9933   42.6650 H   0  0  0  0  0  0  0  0  0  0  0  0
    2.4226    1.4427   37.5432 O   0  0  0  0  0  0  0  0  0  0  0  0
    6.4831    0.9794   33.7406 O   0  0  0  0  0  0  0  0  0  0  0  0
    5.2527    0.9146   34.4797 C   0  0  0  0  0  0  0  0  0  0  0  0
    5.4494    0.1464   35.7847 C   0  0  0  0  0  0  0  0  0  0  0  0
    5.9716   -1.1577   35.5271 O   0  0  0  0  0  0  0  0  0  0  0  0
    4.1019    0.0548   36.5025 C   0  0  0  0  0  0  0  0  0  0  0  0
    4.1681   -0.8019   37.6587 O   0  0  0  0  0  0  0  0  0  0  0  0
    4.7816    2.2357   34.7955 O   0  0  0  0  0  0  0  0  0  0  0  0
    3.5371    2.2560   35.5166 C   0  0  0  0  0  0  0  0  0  0  0  0
    3.6618    1.4819   36.8316 C   0  0  0  0  0  0  0  0  0  0  0  0
    6.3396    1.4701   32.9162 H   0  0  0  0  0  0  0  0  0  0  0  0
    5.3517   -1.6493   34.9660 H   0  0  0  0  0  0  0  0  0  0  0  0
    4.8200   -0.4501   38.2849 H   0  0  0  0  0  0  0  0  0  0  0  0
    3.1368    3.7199   35.7046 C   0  0  0  0  0  0  0  0  0  0  0  0
    3.4744    4.1438   37.0330 O   0  0  0  0  0  0  0  0  0  0  0  0
    3.0007    3.5952   37.6776 H   0  0  0  0  0  0  0  0  0  0  0  0
    2.7550    0.5287   43.6429 C   0  0  0  0  0  0  0  0  0  0  0  0
    2.3953   -0.5300   44.6786 C   0  0  0  0  0  0  0  0  0  0  0  0
    1.8829   -1.6430   43.9489 O   0  0  0  0  0  0  0  0  0  0  0  0
    1.3642   -0.0335   45.6862 C   0  0  0  0  0  0  0  0  0  0  0  0
    1.2069   -0.9796   46.7590 O   0  0  0  0  0  0  0  0  0  0  0  0
    3.1618    1.6730   44.3935 O   0  0  0  0  0  0  0  0  0  0  0  0
    2.0869    2.2648   45.1416 C   0  0  0  0  0  0  0  0  0  0  0  0
    1.6457    1.3477   46.2862 C   0  0  0  0  0  0  0  0  0  0  0  0
    1.1022   -1.3667   43.4439 H   0  0  0  0  0  0  0  0  0  0  0  0
    2.0371   -1.0454   47.2564 H   0  0  0  0  0  0  0  0  0  0  0  0
    2.5751    3.6211   45.6024 C   0  0  0  0  0  0  0  0  0  0  0  0
    1.4977    4.2136   46.3641 O   0  0  0  0  0  0  0  0  0  0  0  0
    0.7079    4.2848   45.8055 H   0  0  0  0  0  0  0  0  0  0  0  0
    0.4202    1.7546   46.9350 O   0  0  0  0  0  0  0  0  0  0  0  0
    0.2547    2.0724   48.3567 C   0  0  0  0  0  0  0  0  0  0  0  0
    0.0376    0.7823   49.2367 C   0  0  0  0  0  0  0  0  0  0  0  0
   -1.1675    0.7877   50.0261 O   0  0  0  0  0  0  0  0  0  0  0  0
    1.1349    0.4888   50.2579 C   0  0  0  0  0  0  0  0  0  0  0  0
    1.1162   -0.9095   50.6593 O   0  0  0  0  0  0  0  0  0  0  0  0
    2.4445    0.8984   49.6026 C   0  0  0  0  0  0  0  0  0  0  0  0
    3.5398    0.4322   50.3878 O   0  0  0  0  0  0  0  0  0  0  0  0
    1.3245    2.9332   48.7891 O   0  0  0  0  0  0  0  0  0  0  0  0
    2.4251    2.4197   49.5556 C   0  0  0  0  0  0  0  0  0  0  0  0
   -1.1020    1.4709   50.7116 H   0  0  0  0  0  0  0  0  0  0  0  0
    1.2417   -1.4717   49.8788 H   0  0  0  0  0  0  0  0  0  0  0  0
    3.4704    0.7923   51.2858 H   0  0  0  0  0  0  0  0  0  0  0  0
    3.7052    3.0326   48.9944 C   0  0  0  0  0  0  0  0  0  0  0  0
    4.4738    2.0785   48.2293 O   0  0  0  0  0  0  0  0  0  0  0  0
    4.7369    1.3414   48.8023 H   0  0  0  0  0  0  0  0  0  0  0  0
 16 17  1  0  0  0
 17 22  1  0  0  0
 17 18  1  0  0  0
 19 18  1  0  0  0
 18 20  1  0  0  0
 20 24  1  0  0  0
 20 21  1  0  0  0
 22 23  1  0  0  0
 23 24  1  0  0  0
 23 28  1  0  0  0
 29 28  1  0  0  0
 24 15  1  0  0  0
 15  2  1  0  0  0
  2  3  1  0  0  0
  2  7  1  0  0  0
  4  3  1  0  0  0
  3  5  1  0  0  0
  5  6  1  0  0  0
  5  9  1  0  0  0
  7  8  1  0  0  0
  8 12  1  0  0  0
  8  9  1  0  0  0
 13 12  1  0  0  0
  9  1  1  0  0  0
  1 31  1  0  0  0
 31 36  1  0  0  0
 31 32  1  0  0  0
 33 32  1  0  0  0
 32 34  1  0  0  0
 34 38  1  0  0  0
 34 35  1  0  0  0
 36 37  1  0  0  0
 41 37  1  0  0  0
 37 38  1  0  0  0
 42 41  1  0  0  0
 38 44  1  0  0  0
 44 45  1  0  0  0
 45 52  1  0  0  0
 45 46  1  0  0  0
 46 47  1  0  0  0
 46 48  1  0  0  0
 50 48  1  0  0  0
 48 49  1  0  0  0
 53 50  1  0  0  0
 50 51  1  0  0  0
 52 53  1  0  0  0
 57 53  1  0  0  0
 58 57  1  0  0  0
 16 25  1  0  0  0
 19 26  1  0  0  0
 21 27  1  0  0  0
 29 30  1  0  0  0
  4 10  1  0  0  0
  6 11  1  0  0  0
 13 14  1  0  0  0
 33 39  1  0  0  0
 35 40  1  0  0  0
 42 43  1  0  0  0
 47 54  1  0  0  0
 49 55  1  0  0  0
 51 56  1  0  0  0
 58 59  1  0  0  0
M  END
> <minimizedAffinity>
-10.79354

$$$$
4QLL_CTT_A_1001


 59 62  0  0  0  0  0  0  0  0999 V2000
    1.4631    0.7545   42.7363 O   0  0  0  0  0  0  0  0  0  0  0  0
    1.9843    0.4515   46.9945 C   0  0  0  0  0  0  0  0  0  0  0  0
    2.9355    1.3312   46.1915 C   0  0  0  0  0  0  0  0  0  0  0  0
    3.2295    2.5288   46.9240 O   0  0  0  0  0  0  0  0  0  0  0  0
    2.4369    1.6749   44.7887 C   0  0  0  0  0  0  0  0  0  0  0  0
    3.5206    2.3202   44.1028 O   0  0  0  0  0  0  0  0  0  0  0  0
    1.4971   -0.6319   46.1852 O   0  0  0  0  0  0  0  0  0  0  0  0
    0.9238   -0.2687   44.9205 C   0  0  0  0  0  0  0  0  0  0  0  0
    1.9745    0.4181   44.0438 C   0  0  0  0  0  0  0  0  0  0  0  0
    2.4151    3.0413   47.0460 H   0  0  0  0  0  0  0  0  0  0  0  0
    4.2823    1.7207   44.0655 H   0  0  0  0  0  0  0  0  0  0  0  0
    0.3448   -1.5325   44.2930 C   0  0  0  0  0  0  0  0  0  0  0  0
    1.3036   -2.1045   43.3845 O   0  0  0  0  0  0  0  0  0  0  0  0
    1.5087   -1.4640   42.6854 H   0  0  0  0  0  0  0  0  0  0  0  0
    2.7763   -0.0368   48.0861 O   0  0  0  0  0  0  0  0  0  0  0  0
   -0.9749   -0.9251   52.1236 O   0  0  0  0  0  0  0  0  0  0  0  0
   -0.2977   -0.6910   50.8783 C   0  0  0  0  0  0  0  0  0  0  0  0
    0.4291    0.6518   50.9058 C   0  0  0  0  0  0  0  0  0  0  0  0
   -0.4800    1.7100   51.2114 O   0  0  0  0  0  0  0  0  0  0  0  0
    1.0815    0.8794   49.5412 C   0  0  0  0  0  0  0  0  0  0  0  0
    1.6432    2.2012   49.4299 O   0  0  0  0  0  0  0  0  0  0  0  0
    0.6673   -1.7259   50.6243 O   0  0  0  0  0  0  0  0  0  0  0  0
    1.3727   -1.5753   49.3797 C   0  0  0  0  0  0  0  0  0  0  0  0
    2.1094   -0.2339   49.3351 C   0  0  0  0  0  0  0  0  0  0  0  0
   -1.4302   -1.7809   52.0881 H   0  0  0  0  0  0  0  0  0  0  0  0
   -1.1746    1.7449   50.5351 H   0  0  0  0  0  0  0  0  0  0  0  0
    2.3216    2.3228   50.1125 H   0  0  0  0  0  0  0  0  0  0  0  0
    2.2951   -2.7849   49.2230 C   0  0  0  0  0  0  0  0  0  0  0  0
    3.6407   -2.4086   49.5486 O   0  0  0  0  0  0  0  0  0  0  0  0
    3.9323   -1.7020   48.9516 H   0  0  0  0  0  0  0  0  0  0  0  0
    2.3170    0.4555   41.6110 C   0  0  0  0  0  0  0  0  0  0  0  0
    1.4799    0.3668   40.3404 C   0  0  0  0  0  0  0  0  0  0  0  0
    0.5529   -0.6969   40.5478 O   0  0  0  0  0  0  0  0  0  0  0  0
    2.3273    0.1007   39.1011 C   0  0  0  0  0  0  0  0  0  0  0  0
    1.5344    0.2294   37.9072 O   0  0  0  0  0  0  0  0  0  0  0  0
    3.3083    1.4480   41.3455 O   0  0  0  0  0  0  0  0  0  0  0  0
    4.2471    1.0472   40.3339 C   0  0  0  0  0  0  0  0  0  0  0  0
    3.5753    0.9778   38.9592 C   0  0  0  0  0  0  0  0  0  0  0  0
    1.0376   -1.5219   40.7067 H   0  0  0  0  0  0  0  0  0  0  0  0
    1.2327    1.1468   37.8167 H   0  0  0  0  0  0  0  0  0  0  0  0
    5.3989    2.0266   40.3994 C   0  0  0  0  0  0  0  0  0  0  0  0
    5.5484    2.3995   41.7888 O   0  0  0  0  0  0  0  0  0  0  0  0
    4.7215    2.7927   42.1089 H   0  0  0  0  0  0  0  0  0  0  0  0
    4.3820    0.3555   37.9344 O   0  0  0  0  0  0  0  0  0  0  0  0
    5.3314    1.0332   37.0461 C   0  0  0  0  0  0  0  0  0  0  0  0
    5.6920    0.1641   35.7810 C   0  0  0  0  0  0  0  0  0  0  0  0
    7.0996   -0.0868   35.6041 O   0  0  0  0  0  0  0  0  0  0  0  0
    5.2588    0.7457   34.4367 C   0  0  0  0  0  0  0  0  0  0  0  0
    5.1819   -0.2905   33.4183 O   0  0  0  0  0  0  0  0  0  0  0  0
    3.9252    1.4335   34.6822 C   0  0  0  0  0  0  0  0  0  0  0  0
    3.3327    1.7899   33.4350 O   0  0  0  0  0  0  0  0  0  0  0  0
    4.8624    2.3636   36.7590 O   0  0  0  0  0  0  0  0  0  0  0  0
    4.2456    2.6765   35.5004 C   0  0  0  0  0  0  0  0  0  0  0  0
    7.5523    0.7447   35.3930 H   0  0  0  0  0  0  0  0  0  0  0  0
    4.5483   -0.9704   33.6959 H   0  0  0  0  0  0  0  0  0  0  0  0
    3.9380    2.3660   32.9424 H   0  0  0  0  0  0  0  0  0  0  0  0
    3.0295    3.5530   35.7867 C   0  0  0  0  0  0  0  0  0  0  0  0
    3.2443    4.4274   36.9162 O   0  0  0  0  0  0  0  0  0  0  0  0
    3.4068    3.8953   37.7108 H   0  0  0  0  0  0  0  0  0  0  0  0
 16 17  1  0  0  0
 17 22  1  0  0  0
 17 18  1  0  0  0
 19 18  1  0  0  0
 18 20  1  0  0  0
 20 24  1  0  0  0
 20 21  1  0  0  0
 22 23  1  0  0  0
 23 24  1  0  0  0
 23 28  1  0  0  0
 29 28  1  0  0  0
 24 15  1  0  0  0
 15  2  1  0  0  0
  2  3  1  0  0  0
  2  7  1  0  0  0
  4  3  1  0  0  0
  3  5  1  0  0  0
  5  6  1  0  0  0
  5  9  1  0  0  0
  7  8  1  0  0  0
  8 12  1  0  0  0
  8  9  1  0  0  0
 13 12  1  0  0  0
  9  1  1  0  0  0
  1 31  1  0  0  0
 31 36  1  0  0  0
 31 32  1  0  0  0
 33 32  1  0  0  0
 32 34  1  0  0  0
 34 38  1  0  0  0
 34 35  1  0  0  0
 36 37  1  0  0  0
 41 37  1  0  0  0
 37 38  1  0  0  0
 42 41  1  0  0  0
 38 44  1  0  0  0
 44 45  1  0  0  0
 45 52  1  0  0  0
 45 46  1  0  0  0
 46 47  1  0  0  0
 46 48  1  0  0  0
 50 48  1  0  0  0
 48 49  1  0  0  0
 53 50  1  0  0  0
 50 51  1  0  0  0
 52 53  1  0  0  0
 57 53  1  0  0  0
 58 57  1  0  0  0
 16 25  1  0  0  0
 19 26  1  0  0  0
 21 27  1  0  0  0
 29 30  1  0  0  0
  4 10  1  0  0  0
  6 11  1  0  0  0
 13 14  1  0  0  0
 33 39  1  0  0  0
 35 40  1  0  0  0
 42 43  1  0  0  0
 47 54  1  0  0  0
 49 55  1  0  0  0
 51 56  1  0  0  0
 58 59  1  0  0  0
M  END
> <minimizedAffinity>
-10.59546

$$$$
4QLL_CTT_A_1001


 59 62  0  0  0  0  0  0  0  0999 V2000
    0.7173   -0.5358   42.2279 O   0  0  0  0  0  0  0  0  0  0  0  0
    2.3193    0.4113   38.3509 C   0  0  0  0  0  0  0  0  0  0  0  0
    2.9274    1.0673   39.5851 C   0  0  0  0  0  0  0  0  0  0  0  0
    4.3523    1.1489   39.4435 O   0  0  0  0  0  0  0  0  0  0  0  0
    2.5623    0.3834   40.9018 C   0  0  0  0  0  0  0  0  0  0  0  0
    3.0324    1.2308   41.9612 O   0  0  0  0  0  0  0  0  0  0  0  0
    0.9317    0.1099   38.5735 O   0  0  0  0  0  0  0  0  0  0  0  0
    0.6294   -0.6388   39.7601 C   0  0  0  0  0  0  0  0  0  0  0  0
    1.0510    0.1505   41.0024 C   0  0  0  0  0  0  0  0  0  0  0  0
    4.7240    0.2543   39.3941 H   0  0  0  0  0  0  0  0  0  0  0  0
    2.6097    2.1010   41.8908 H   0  0  0  0  0  0  0  0  0  0  0  0
   -0.8585   -0.9729   39.7319 C   0  0  0  0  0  0  0  0  0  0  0  0
   -1.5894    0.0093   40.4888 O   0  0  0  0  0  0  0  0  0  0  0  0
   -1.2774    0.0075   41.4073 H   0  0  0  0  0  0  0  0  0  0  0  0
    2.4743    1.3851   37.3092 O   0  0  0  0  0  0  0  0  0  0  0  0
    6.5830    0.9653   33.5537 O   0  0  0  0  0  0  0  0  0  0  0  0
    5.3363    0.9146   34.2660 C   0  0  0  0  0  0  0  0  0  0  0  0
    5.4689    0.0550   35.5212 C   0  0  0  0  0  0  0  0  0  0  0  0
    5.9320   -1.2543   35.1879 O   0  0  0  0  0  0  0  0  0  0  0  0
    4.1044   -0.0151   36.2086 C   0  0  0  0  0  0  0  0  0  0  0  0
    4.1054   -0.9468   37.3073 O   0  0  0  0  0  0  0  0  0  0  0  0
    4.9240    2.2344   34.6595 O   0  0  0  0  0  0  0  0  0  0  0  0
    3.6677    2.2705   35.3592 C   0  0  0  0  0  0  0  0  0  0  0  0
    3.7280    1.4080   36.6228 C   0  0  0  0  0  0  0  0  0  0  0  0
    6.4803    1.5145   32.7609 H   0  0  0  0  0  0  0  0  0  0  0  0
    5.3002   -1.6771   34.5854 H   0  0  0  0  0  0  0  0  0  0  0  0
    4.7610   -0.6691   37.9661 H   0  0  0  0  0  0  0  0  0  0  0  0
    3.3356    3.7375   35.6357 C   0  0  0  0  0  0  0  0  0  0  0  0
    3.3747    3.9811   37.0490 O   0  0  0  0  0  0  0  0  0  0  0  0
    2.7242    3.4146   37.4928 H   0  0  0  0  0  0  0  0  0  0  0  0
    0.5091    0.2884   43.3951 C   0  0  0  0  0  0  0  0  0  0  0  0
   -0.5441   -0.3497   44.2932 C   0  0  0  0  0  0  0  0  0  0  0  0
   -1.7405   -0.4144   43.5199 O   0  0  0  0  0  0  0  0  0  0  0  0
   -0.7792    0.4459   45.5725 C   0  0  0  0  0  0  0  0  0  0  0  0
   -1.6191   -0.2898   46.4802 O   0  0  0  0  0  0  0  0  0  0  0  0
    1.6657    0.4460   44.2171 O   0  0  0  0  0  0  0  0  0  0  0  0
    1.4781    1.4030   45.2727 C   0  0  0  0  0  0  0  0  0  0  0  0
    0.4874    0.8799   46.3170 C   0  0  0  0  0  0  0  0  0  0  0  0
   -2.0023    0.4808   43.2537 H   0  0  0  0  0  0  0  0  0  0  0  0
   -1.1608   -1.0965   46.7632 H   0  0  0  0  0  0  0  0  0  0  0  0
    2.8510    1.7040   45.8335 C   0  0  0  0  0  0  0  0  0  0  0  0
    3.8080    1.3095   44.8233 O   0  0  0  0  0  0  0  0  0  0  0  0
    3.6980    0.3665   44.6244 H   0  0  0  0  0  0  0  0  0  0  0  0
    0.0611    1.8697   47.2798 O   0  0  0  0  0  0  0  0  0  0  0  0
    0.4029    1.8979   48.7053 C   0  0  0  0  0  0  0  0  0  0  0  0
    1.4743    0.8054   49.0853 C   0  0  0  0  0  0  0  0  0  0  0  0
    1.0669   -0.1000   50.1292 O   0  0  0  0  0  0  0  0  0  0  0  0
    2.8166    1.3422   49.5785 C   0  0  0  0  0  0  0  0  0  0  0  0
    3.8640    0.3422   49.4379 O   0  0  0  0  0  0  0  0  0  0  0  0
    3.0906    2.6028   48.7736 C   0  0  0  0  0  0  0  0  0  0  0  0
    4.4327    3.0308   48.9954 O   0  0  0  0  0  0  0  0  0  0  0  0
    0.7364    3.2422   49.0977 O   0  0  0  0  0  0  0  0  0  0  0  0
    2.1029    3.6423   49.2844 C   0  0  0  0  0  0  0  0  0  0  0  0
    0.9913    0.3845   50.9661 H   0  0  0  0  0  0  0  0  0  0  0  0
    3.9415    0.0839   48.5061 H   0  0  0  0  0  0  0  0  0  0  0  0
    4.5708    3.1841   49.9432 H   0  0  0  0  0  0  0  0  0  0  0  0
    2.2736    5.0173   48.6446 C   0  0  0  0  0  0  0  0  0  0  0  0
    1.3441    5.2305   47.5597 O   0  0  0  0  0  0  0  0  0  0  0  0
    1.5002    4.5708   46.8658 H   0  0  0  0  0  0  0  0  0  0  0  0
 16 17  1  0  0  0
 17 22  1  0  0  0
 17 18  1  0  0  0
 19 18  1  0  0  0
 18 20  1  0  0  0
 20 24  1  0  0  0
 20 21  1  0  0  0
 22 23  1  0  0  0
 23 24  1  0  0  0
 23 28  1  0  0  0
 29 28  1  0  0  0
 24 15  1  0  0  0
 15  2  1  0  0  0
  2  3  1  0  0  0
  2  7  1  0  0  0
  4  3  1  0  0  0
  3  5  1  0  0  0
  5  6  1  0  0  0
  5  9  1  0  0  0
  7  8  1  0  0  0
  8 12  1  0  0  0
  8  9  1  0  0  0
 13 12  1  0  0  0
  9  1  1  0  0  0
  1 31  1  0  0  0
 31 36  1  0  0  0
 31 32  1  0  0  0
 33 32  1  0  0  0
 32 34  1  0  0  0
 34 38  1  0  0  0
 34 35  1  0  0  0
 36 37  1  0  0  0
 41 37  1  0  0  0
 37 38  1  0  0  0
 42 41  1  0  0  0
 38 44  1  0  0  0
 44 45  1  0  0  0
 45 52  1  0  0  0
 45 46  1  0  0  0
 46 47  1  0  0  0
 46 48  1  0  0  0
 50 48  1  0  0  0
 48 49  1  0  0  0
 53 50  1  0  0  0
 50 51  1  0  0  0
 52 53  1  0  0  0
 57 53  1  0  0  0
 58 57  1  0  0  0
 16 25  1  0  0  0
 19 26  1  0  0  0
 21 27  1  0  0  0
 29 30  1  0  0  0
  4 10  1  0  0  0
  6 11  1  0  0  0
 13 14  1  0  0  0
 33 39  1  0  0  0
 35 40  1  0  0  0
 42 43  1  0  0  0
 47 54  1  0  0  0
 49 55  1  0  0  0
 51 56  1  0  0  0
 58 59  1  0  0  0
M  END
> <minimizedAffinity>
-9.99849

$$$$
4QLL_CTT_A_1001


 59 62  0  0  0  0  0  0  0  0999 V2000
    3.6560    0.9464   43.9157 O   0  0  0  0  0  0  0  0  0  0  0  0
    3.3116    1.0262   39.6297 C   0  0  0  0  0  0  0  0  0  0  0  0
    4.3884    1.8691   40.3031 C   0  0  0  0  0  0  0  0  0  0  0  0
    5.5938    1.8334   39.5268 O   0  0  0  0  0  0  0  0  0  0  0  0
    4.6768    1.4762   41.7512 C   0  0  0  0  0  0  0  0  0  0  0  0
    5.5456    2.4814   42.2954 O   0  0  0  0  0  0  0  0  0  0  0  0
    2.1830    0.8600   40.5039 O   0  0  0  0  0  0  0  0  0  0  0  0
    2.4710    0.3746   41.8236 C   0  0  0  0  0  0  0  0  0  0  0  0
    3.3806    1.3613   42.5606 C   0  0  0  0  0  0  0  0  0  0  0  0
    5.9322    0.9249   39.4967 H   0  0  0  0  0  0  0  0  0  0  0  0
    5.1086    3.3462   42.2487 H   0  0  0  0  0  0  0  0  0  0  0  0
    1.1410    0.1342   42.5305 C   0  0  0  0  0  0  0  0  0  0  0  0
    0.8373   -1.2728   42.5243 O   0  0  0  0  0  0  0  0  0  0  0  0
    0.7753   -1.5862   41.6085 H   0  0  0  0  0  0  0  0  0  0  0  0
    2.9500    1.7690   38.4572 O   0  0  0  0  0  0  0  0  0  0  0  0
    5.2077   -0.8747   34.0897 O   0  0  0  0  0  0  0  0  0  0  0  0
    4.9560   -0.2177   35.3424 C   0  0  0  0  0  0  0  0  0  0  0  0
    4.5178    1.2270   35.1132 C   0  0  0  0  0  0  0  0  0  0  0  0
    5.4914    1.9319   34.3417 O   0  0  0  0  0  0  0  0  0  0  0  0
    4.3212    1.8969   36.4741 C   0  0  0  0  0  0  0  0  0  0  0  0
    4.0728    3.3100   36.3446 O   0  0  0  0  0  0  0  0  0  0  0  0
    3.9201   -0.8976   36.0715 O   0  0  0  0  0  0  0  0  0  0  0  0
    3.6259   -0.3125   37.3522 C   0  0  0  0  0  0  0  0  0  0  0  0
    3.1979    1.1488   37.1933 C   0  0  0  0  0  0  0  0  0  0  0  0
    5.4844   -1.7897   34.2543 H   0  0  0  0  0  0  0  0  0  0  0  0
    6.3386    1.9339   34.8141 H   0  0  0  0  0  0  0  0  0  0  0  0
    3.2688    3.4503   35.8205 H   0  0  0  0  0  0  0  0  0  0  0  0
    2.5702   -1.1887   38.0280 C   0  0  0  0  0  0  0  0  0  0  0  0
    1.2627   -0.6704   37.7451 O   0  0  0  0  0  0  0  0  0  0  0  0
    1.1938    0.2359   38.0840 H   0  0  0  0  0  0  0  0  0  0  0  0
    2.5868    1.1096   44.8723 C   0  0  0  0  0  0  0  0  0  0  0  0
    2.5879   -0.0609   45.8484 C   0  0  0  0  0  0  0  0  0  0  0  0
    2.3695   -1.2325   45.0653 O   0  0  0  0  0  0  0  0  0  0  0  0
    1.5110    0.0721   46.9197 C   0  0  0  0  0  0  0  0  0  0  0  0
    1.6768   -0.9357   47.9334 O   0  0  0  0  0  0  0  0  0  0  0  0
    2.6962    2.2806   45.6818 O   0  0  0  0  0  0  0  0  0  0  0  0
    1.5378    2.5064   46.5019 C   0  0  0  0  0  0  0  0  0  0  0  0
    1.4269    1.4429   47.5984 C   0  0  0  0  0  0  0  0  0  0  0  0
    1.5185   -1.1601   44.6054 H   0  0  0  0  0  0  0  0  0  0  0  0
    2.5163   -0.7922   48.3977 H   0  0  0  0  0  0  0  0  0  0  0  0
    1.6520    3.9187   47.0333 C   0  0  0  0  0  0  0  0  0  0  0  0
    0.3377    4.2911   47.5086 O   0  0  0  0  0  0  0  0  0  0  0  0
   -0.2991    4.2301   46.7795 H   0  0  0  0  0  0  0  0  0  0  0  0
    0.1705    1.4546   48.3125 O   0  0  0  0  0  0  0  0  0  0  0  0
   -0.0115    1.7083   49.7450 C   0  0  0  0  0  0  0  0  0  0  0  0
    0.0111    0.3808   50.5953 C   0  0  0  0  0  0  0  0  0  0  0  0
   -1.1587    0.1665   51.4084 O   0  0  0  0  0  0  0  0  0  0  0  0
    1.1663    0.2525   51.5863 C   0  0  0  0  0  0  0  0  0  0  0  0
    1.3910   -1.1378   51.9515 O   0  0  0  0  0  0  0  0  0  0  0  0
    2.3729    0.8903   50.9160 C   0  0  0  0  0  0  0  0  0  0  0  0
    3.5492    0.5968   51.6667 O   0  0  0  0  0  0  0  0  0  0  0  0
    0.9095    2.7263   50.1782 O   0  0  0  0  0  0  0  0  0  0  0  0
    2.0985    2.3875   50.9090 C   0  0  0  0  0  0  0  0  0  0  0  0
   -1.1918    0.8355   52.1100 H   0  0  0  0  0  0  0  0  0  0  0  0
    1.5899   -1.6533   51.1543 H   0  0  0  0  0  0  0  0  0  0  0  0
    3.4422    0.9201   52.5750 H   0  0  0  0  0  0  0  0  0  0  0  0
    3.2444    3.2187   50.3385 C   0  0  0  0  0  0  0  0  0  0  0  0
    3.9684    2.5104   49.3086 O   0  0  0  0  0  0  0  0  0  0  0  0
    4.3582    1.7049   49.6831 H   0  0  0  0  0  0  0  0  0  0  0  0
 16 17  1  0  0  0
 17 22  1  0  0  0
 17 18  1  0  0  0
 19 18  1  0  0  0
 18 20  1  0  0  0
 20 24  1  0  0  0
 20 21  1  0  0  0
 22 23  1  0  0  0
 23 24  1  0  0  0
 23 28  1  0  0  0
 29 28  1  0  0  0
 24 15  1  0  0  0
 15  2  1  0  0  0
  2  3  1  0  0  0
  2  7  1  0  0  0
  4  3  1  0  0  0
  3  5  1  0  0  0
  5  6  1  0  0  0
  5  9  1  0  0  0
  7  8  1  0  0  0
  8 12  1  0  0  0
  8  9  1  0  0  0
 13 12  1  0  0  0
  9  1  1  0  0  0
  1 31  1  0  0  0
 31 36  1  0  0  0
 31 32  1  0  0  0
 33 32  1  0  0  0
 32 34  1  0  0  0
 34 38  1  0  0  0
 34 35  1  0  0  0
 36 37  1  0  0  0
 41 37  1  0  0  0
 37 38  1  0  0  0
 42 41  1  0  0  0
 38 44  1  0  0  0
 44 45  1  0  0  0
 45 52  1  0  0  0
 45 46  1  0  0  0
 46 47  1  0  0  0
 46 48  1  0  0  0
 50 48  1  0  0  0
 48 49  1  0  0  0
 53 50  1  0  0  0
 50 51  1  0  0  0
 52 53  1  0  0  0
 57 53  1  0  0  0
 58 57  1  0  0  0
 16 25  1  0  0  0
 19 26  1  0  0  0
 21 27  1  0  0  0
 29 30  1  0  0  0
  4 10  1  0  0  0
  6 11  1  0  0  0
 13 14  1  0  0  0
 33 39  1  0  0  0
 35 40  1  0  0  0
 42 43  1  0  0  0
 47 54  1  0  0  0
 49 55  1  0  0  0
 51 56  1  0  0  0
 58 59  1  0  0  0
M  END
> <minimizedAffinity>
-9.56316

$$$$
4QLL_CTT_A_1001


 59 62  0  0  0  0  0  0  0  0999 V2000
    3.3868    1.5939   44.4283 O   0  0  0  0  0  0  0  0  0  0  0  0
    3.7912    1.2187   40.1632 C   0  0  0  0  0  0  0  0  0  0  0  0
    2.5543    0.6447   40.8443 C   0  0  0  0  0  0  0  0  0  0  0  0
    1.3959    0.8789   40.0318 O   0  0  0  0  0  0  0  0  0  0  0  0
    2.3226    1.1639   42.2626 C   0  0  0  0  0  0  0  0  0  0  0  0
    1.2593    0.3828   42.8287 O   0  0  0  0  0  0  0  0  0  0  0  0
    4.9131    1.2027   41.0616 O   0  0  0  0  0  0  0  0  0  0  0  0
    4.7029    1.8054   42.3471 C   0  0  0  0  0  0  0  0  0  0  0  0
    3.5995    1.0609   43.1036 C   0  0  0  0  0  0  0  0  0  0  0  0
    1.2474    1.8338   39.9478 H   0  0  0  0  0  0  0  0  0  0  0  0
    1.5144   -0.5530   42.8368 H   0  0  0  0  0  0  0  0  0  0  0  0
    6.0401    1.8129   43.0807 C   0  0  0  0  0  0  0  0  0  0  0  0
    5.9907    0.8922   44.1860 O   0  0  0  0  0  0  0  0  0  0  0  0
    5.2873    1.1593   44.7981 H   0  0  0  0  0  0  0  0  0  0  0  0
    4.0190    0.3573   39.0392 O   0  0  0  0  0  0  0  0  0  0  0  0
    3.3367    1.2254   33.5673 O   0  0  0  0  0  0  0  0  0  0  0  0
    3.7521    0.7662   34.8637 C   0  0  0  0  0  0  0  0  0  0  0  0
    4.3797    1.9065   35.6623 C   0  0  0  0  0  0  0  0  0  0  0  0
    5.4680    2.4862   34.9417 O   0  0  0  0  0  0  0  0  0  0  0  0
    4.8572    1.3535   37.0061 C   0  0  0  0  0  0  0  0  0  0  0  0
    5.6138    2.3291   37.7483 O   0  0  0  0  0  0  0  0  0  0  0  0
    2.6300    0.2558   35.6036 O   0  0  0  0  0  0  0  0  0  0  0  0
    2.9694   -0.2473   36.9077 C   0  0  0  0  0  0  0  0  0  0  0  0
    3.6243    0.8466   37.7554 C   0  0  0  0  0  0  0  0  0  0  0  0
    2.9411    0.4892   33.0750 H   0  0  0  0  0  0  0  0  0  0  0  0
    6.1443    1.8103   34.7786 H   0  0  0  0  0  0  0  0  0  0  0  0
    5.0585    3.1052   37.9219 H   0  0  0  0  0  0  0  0  0  0  0  0
    1.6939   -0.8196   37.5276 C   0  0  0  0  0  0  0  0  0  0  0  0
    0.6298    0.1348   37.4051 O   0  0  0  0  0  0  0  0  0  0  0  0
    0.8737    0.9520   37.8672 H   0  0  0  0  0  0  0  0  0  0  0  0
    3.1510    0.6348   45.4816 C   0  0  0  0  0  0  0  0  0  0  0  0
    3.2420    1.3270   46.8364 C   0  0  0  0  0  0  0  0  0  0  0  0
    4.5682    1.8427   46.9317 O   0  0  0  0  0  0  0  0  0  0  0  0
    2.9544    0.3796   47.9959 C   0  0  0  0  0  0  0  0  0  0  0  0
    2.8464    1.1086   49.2318 O   0  0  0  0  0  0  0  0  0  0  0  0
    1.8575    0.0315   45.4483 O   0  0  0  0  0  0  0  0  0  0  0  0
    1.7114   -1.0365   46.3987 C   0  0  0  0  0  0  0  0  0  0  0  0
    1.7093   -0.4979   47.8324 C   0  0  0  0  0  0  0  0  0  0  0  0
    5.2042    1.1131   46.8671 H   0  0  0  0  0  0  0  0  0  0  0  0
    2.0797    1.7014   49.1917 H   0  0  0  0  0  0  0  0  0  0  0  0
    0.4464   -1.7785   46.0255 C   0  0  0  0  0  0  0  0  0  0  0  0
    0.4759   -1.9542   44.5902 O   0  0  0  0  0  0  0  0  0  0  0  0
    0.5262   -1.0866   44.1592 H   0  0  0  0  0  0  0  0  0  0  0  0
    1.8079   -1.5186   48.8507 O   0  0  0  0  0  0  0  0  0  0  0  0
    0.8187   -1.8010   49.8954 C   0  0  0  0  0  0  0  0  0  0  0  0
    1.1943   -3.0739   50.7465 C   0  0  0  0  0  0  0  0  0  0  0  0
    0.1815   -4.0980   50.7774 O   0  0  0  0  0  0  0  0  0  0  0  0
    1.4899   -2.8160   52.2227 C   0  0  0  0  0  0  0  0  0  0  0  0
    2.2743   -3.8985   52.7967 O   0  0  0  0  0  0  0  0  0  0  0  0
    2.2010   -1.4734   52.2844 C   0  0  0  0  0  0  0  0  0  0  0  0
    2.7298   -1.2707   53.5932 O   0  0  0  0  0  0  0  0  0  0  0  0
    0.5669   -0.6078   50.6605 O   0  0  0  0  0  0  0  0  0  0  0  0
    1.1408   -0.4290   51.9647 C   0  0  0  0  0  0  0  0  0  0  0  0
   -0.5928   -3.7725   51.2626 H   0  0  0  0  0  0  0  0  0  0  0  0
    3.1089   -3.9863   52.3101 H   0  0  0  0  0  0  0  0  0  0  0  0
    2.0110   -1.3159   54.2430 H   0  0  0  0  0  0  0  0  0  0  0  0
    1.6482    1.0076   52.0535 C   0  0  0  0  0  0  0  0  0  0  0  0
    3.0847    1.0850   51.9238 O   0  0  0  0  0  0  0  0  0  0  0  0
    3.5017    0.5892   52.6458 H   0  0  0  0  0  0  0  0  0  0  0  0
 16 17  1  0  0  0
 17 22  1  0  0  0
 17 18  1  0  0  0
 19 18  1  0  0  0
 18 20  1  0  0  0
 20 24  1  0  0  0
 20 21  1  0  0  0
 22 23  1  0  0  0
 23 24  1  0  0  0
 23 28  1  0  0  0
 29 28  1  0  0  0
 24 15  1  0  0  0
 15  2  1  0  0  0
  2  3  1  0  0  0
  2  7  1  0  0  0
  4  3  1  0  0  0
  3  5  1  0  0  0
  5  6  1  0  0  0
  5  9  1  0  0  0
  7  8  1  0  0  0
  8 12  1  0  0  0
  8  9  1  0  0  0
 13 12  1  0  0  0
  9  1  1  0  0  0
  1 31  1  0  0  0
 31 36  1  0  0  0
 31 32  1  0  0  0
 33 32  1  0  0  0
 32 34  1  0  0  0
 34 38  1  0  0  0
 34 35  1  0  0  0
 36 37  1  0  0  0
 41 37  1  0  0  0
 37 38  1  0  0  0
 42 41  1  0  0  0
 38 44  1  0  0  0
 44 45  1  0  0  0
 45 52  1  0  0  0
 45 46  1  0  0  0
 46 47  1  0  0  0
 46 48  1  0  0  0
 50 48  1  0  0  0
 48 49  1  0  0  0
 53 50  1  0  0  0
 50 51  1  0  0  0
 52 53  1  0  0  0
 57 53  1  0  0  0
 58 57  1  0  0  0
 16 25  1  0  0  0
 19 26  1  0  0  0
 21 27  1  0  0  0
 29 30  1  0  0  0
  4 10  1  0  0  0
  6 11  1  0  0  0
 13 14  1  0  0  0
 33 39  1  0  0  0
 35 40  1  0  0  0
 42 43  1  0  0  0
 47 54  1  0  0  0
 49 55  1  0  0  0
 51 56  1  0  0  0
 58 59  1  0  0  0
M  END
> <minimizedAffinity>
-9.31970

$$$$
4QLL_CTT_A_1001


 59 62  0  0  0  0  0  0  0  0999 V2000
    0.5050    1.1457   46.1111 O   0  0  0  0  0  0  0  0  0  0  0  0
    3.3833   -0.5169   48.8400 C   0  0  0  0  0  0  0  0  0  0  0  0
    2.0535   -1.2338   48.6367 C   0  0  0  0  0  0  0  0  0  0  0  0
    2.2610   -2.6529   48.6195 O   0  0  0  0  0  0  0  0  0  0  0  0
    1.2887   -0.7931   47.3895 C   0  0  0  0  0  0  0  0  0  0  0  0
   -0.0112   -1.3990   47.4565 O   0  0  0  0  0  0  0  0  0  0  0  0
    3.2305    0.8962   48.6265 O   0  0  0  0  0  0  0  0  0  0  0  0
    2.6153    1.2864   47.3899 C   0  0  0  0  0  0  0  0  0  0  0  0
    1.1894    0.7342   47.3139 C   0  0  0  0  0  0  0  0  0  0  0  0
    2.8209   -2.8887   47.8633 H   0  0  0  0  0  0  0  0  0  0  0  0
   -0.4626   -1.1074   48.2641 H   0  0  0  0  0  0  0  0  0  0  0  0
    2.6806    2.8075   47.2983 C   0  0  0  0  0  0  0  0  0  0  0  0
    2.7302    3.2073   45.9165 O   0  0  0  0  0  0  0  0  0  0  0  0
    3.5180    2.8265   45.4978 H   0  0  0  0  0  0  0  0  0  0  0  0
    3.7418   -0.7966   50.2003 O   0  0  0  0  0  0  0  0  0  0  0  0
    0.6406   -1.1738   54.8265 O   0  0  0  0  0  0  0  0  0  0  0  0
    1.7070   -1.0973   53.8667 C   0  0  0  0  0  0  0  0  0  0  0  0
    1.6599   -2.2904   52.9147 C   0  0  0  0  0  0  0  0  0  0  0  0
    1.7023   -3.5179   53.6437 O   0  0  0  0  0  0  0  0  0  0  0  0
    2.8465   -2.1931   51.9545 C   0  0  0  0  0  0  0  0  0  0  0  0
    2.9704   -3.3713   51.1350 O   0  0  0  0  0  0  0  0  0  0  0  0
    1.6043    0.1086   53.0908 O   0  0  0  0  0  0  0  0  0  0  0  0
    2.6537    0.2709   52.1204 C   0  0  0  0  0  0  0  0  0  0  0  0
    2.6737   -0.9080   51.1438 C   0  0  0  0  0  0  0  0  0  0  0  0
    0.6860   -0.4093   55.4218 H   0  0  0  0  0  0  0  0  0  0  0  0
    2.5240   -3.5607   54.1573 H   0  0  0  0  0  0  0  0  0  0  0  0
    2.1642   -3.4846   50.6076 H   0  0  0  0  0  0  0  0  0  0  0  0
    2.4473    1.6249   51.4401 C   0  0  0  0  0  0  0  0  0  0  0  0
    1.2050    1.6180   50.7227 O   0  0  0  0  0  0  0  0  0  0  0  0
    1.2238    0.9194   50.0501 H   0  0  0  0  0  0  0  0  0  0  0  0
    0.8876    0.4792   44.8887 C   0  0  0  0  0  0  0  0  0  0  0  0
   -0.3574    0.1373   44.0788 C   0  0  0  0  0  0  0  0  0  0  0  0
   -1.1333   -0.7400   44.8926 O   0  0  0  0  0  0  0  0  0  0  0  0
   -0.0231   -0.5272   42.7479 C   0  0  0  0  0  0  0  0  0  0  0  0
   -1.2009   -0.6444   41.9294 O   0  0  0  0  0  0  0  0  0  0  0  0
    1.7025    1.2666   44.0203 O   0  0  0  0  0  0  0  0  0  0  0  0
    2.2068    0.5245   42.8977 C   0  0  0  0  0  0  0  0  0  0  0  0
    1.0770    0.1578   41.9308 C   0  0  0  0  0  0  0  0  0  0  0  0
   -0.6165   -1.5357   45.0941 H   0  0  0  0  0  0  0  0  0  0  0  0
   -1.5231    0.2407   41.6978 H   0  0  0  0  0  0  0  0  0  0  0  0
    3.2929    1.3718   42.2710 C   0  0  0  0  0  0  0  0  0  0  0  0
    3.8987    2.1302   43.3432 O   0  0  0  0  0  0  0  0  0  0  0  0
    3.2223    2.6733   43.7774 H   0  0  0  0  0  0  0  0  0  0  0  0
    1.4557   -0.7878   40.9057 O   0  0  0  0  0  0  0  0  0  0  0  0
    1.5040   -0.5311   39.4630 C   0  0  0  0  0  0  0  0  0  0  0  0
    2.2699   -1.6645   38.6791 C   0  0  0  0  0  0  0  0  0  0  0  0
    3.3767   -1.2023   37.8810 O   0  0  0  0  0  0  0  0  0  0  0  0
    1.4260   -2.4687   37.6920 C   0  0  0  0  0  0  0  0  0  0  0  0
    2.0471   -3.7504   37.3950 O   0  0  0  0  0  0  0  0  0  0  0  0
    0.0515   -2.6105   38.3264 C   0  0  0  0  0  0  0  0  0  0  0  0
   -0.7227   -3.5529   37.5874 O   0  0  0  0  0  0  0  0  0  0  0  0
    0.1803   -0.2407   38.9774 O   0  0  0  0  0  0  0  0  0  0  0  0
   -0.5790   -1.2266   38.2605 C   0  0  0  0  0  0  0  0  0  0  0  0
    3.0432   -0.6624   37.1475 H   0  0  0  0  0  0  0  0  0  0  0  0
    2.1540   -4.2559   38.2160 H   0  0  0  0  0  0  0  0  0  0  0  0
   -0.7917   -3.2618   36.6647 H   0  0  0  0  0  0  0  0  0  0  0  0
   -2.0111   -1.1791   38.7859 C   0  0  0  0  0  0  0  0  0  0  0  0
   -2.2694   -2.2206   39.7529 O   0  0  0  0  0  0  0  0  0  0  0  0
   -2.1466   -3.0874   39.3352 H   0  0  0  0  0  0  0  0  0  0  0  0
 16 17  1  0  0  0
 17 22  1  0  0  0
 17 18  1  0  0  0
 19 18  1  0  0  0
 18 20  1  0  0  0
 20 24  1  0  0  0
 20 21  1  0  0  0
 22 23  1  0  0  0
 23 24  1  0  0  0
 23 28  1  0  0  0
 29 28  1  0  0  0
 24 15  1  0  0  0
 15  2  1  0  0  0
  2  3  1  0  0  0
  2  7  1  0  0  0
  4  3  1  0  0  0
  3  5  1  0  0  0
  5  6  1  0  0  0
  5  9  1  0  0  0
  7  8  1  0  0  0
  8 12  1  0  0  0
  8  9  1  0  0  0
 13 12  1  0  0  0
  9  1  1  0  0  0
  1 31  1  0  0  0
 31 36  1  0  0  0
 31 32  1  0  0  0
 33 32  1  0  0  0
 32 34  1  0  0  0
 34 38  1  0  0  0
 34 35  1  0  0  0
 36 37  1  0  0  0
 41 37  1  0  0  0
 37 38  1  0  0  0
 42 41  1  0  0  0
 38 44  1  0  0  0
 44 45  1  0  0  0
 45 52  1  0  0  0
 45 46  1  0  0  0
 46 47  1  0  0  0
 46 48  1  0  0  0
 50 48  1  0  0  0
 48 49  1  0  0  0
 53 50  1  0  0  0
 50 51  1  0  0  0
 52 53  1  0  0  0
 57 53  1  0  0  0
 58 57  1  0  0  0
 16 25  1  0  0  0
 19 26  1  0  0  0
 21 27  1  0  0  0
 29 30  1  0  0  0
  4 10  1  0  0  0
  6 11  1  0  0  0
 13 14  1  0  0  0
 33 39  1  0  0  0
 35 40  1  0  0  0
 42 43  1  0  0  0
 47 54  1  0  0  0
 49 55  1  0  0  0
 51 56  1  0  0  0
 58 59  1  0  0  0
M  END
> <minimizedAffinity>
-9.25718

$$$$
4QLL_CTT_A_1001


 59 62  0  0  0  0  0  0  0  0999 V2000
    3.0680    0.9620   44.4335 O   0  0  0  0  0  0  0  0  0  0  0  0
    1.5431    0.2169   48.3851 C   0  0  0  0  0  0  0  0  0  0  0  0
    1.2781   -0.8025   47.2834 C   0  0  0  0  0  0  0  0  0  0  0  0
    1.3868   -2.1318   47.8109 O   0  0  0  0  0  0  0  0  0  0  0  0
    2.1722   -0.6434   46.0546 C   0  0  0  0  0  0  0  0  0  0  0  0
    1.6629   -1.5286   45.0456 O   0  0  0  0  0  0  0  0  0  0  0  0
    1.6698    1.5365   47.8295 O   0  0  0  0  0  0  0  0  0  0  0  0
    2.6072    1.6821   46.7525 C   0  0  0  0  0  0  0  0  0  0  0  0
    2.1868    0.8092   45.5669 C   0  0  0  0  0  0  0  0  0  0  0  0
    2.2944   -2.2849   48.1171 H   0  0  0  0  0  0  0  0  0  0  0  0
    0.7444   -1.2924   44.8419 H   0  0  0  0  0  0  0  0  0  0  0  0
    2.6944    3.1659   46.4102 C   0  0  0  0  0  0  0  0  0  0  0  0
    3.3783    3.8664   47.4654 O   0  0  0  0  0  0  0  0  0  0  0  0
    2.8894    3.7568   48.2960 H   0  0  0  0  0  0  0  0  0  0  0  0
    0.3985    0.1277   49.2449 O   0  0  0  0  0  0  0  0  0  0  0  0
    2.6662   -1.0500   54.2079 O   0  0  0  0  0  0  0  0  0  0  0  0
    2.3930   -0.8673   52.8093 C   0  0  0  0  0  0  0  0  0  0  0  0
    1.2162   -1.7373   52.3733 C   0  0  0  0  0  0  0  0  0  0  0  0
    1.4638   -3.1098   52.6808 O   0  0  0  0  0  0  0  0  0  0  0  0
    1.0053   -1.5517   50.8698 C   0  0  0  0  0  0  0  0  0  0  0  0
    0.0228   -2.4678   50.3496 O   0  0  0  0  0  0  0  0  0  0  0  0
    2.0716    0.5061   52.5313 O   0  0  0  0  0  0  0  0  0  0  0  0
    1.8081    0.7757   51.1432 C   0  0  0  0  0  0  0  0  0  0  0  0
    0.6465   -0.0835   50.6368 C   0  0  0  0  0  0  0  0  0  0  0  0
    3.4153   -0.4907   54.4668 H   0  0  0  0  0  0  0  0  0  0  0  0
    2.2610   -3.4068   52.2147 H   0  0  0  0  0  0  0  0  0  0  0  0
   -0.8263   -2.3178   50.7940 H   0  0  0  0  0  0  0  0  0  0  0  0
    1.5628    2.2788   51.0037 C   0  0  0  0  0  0  0  0  0  0  0  0
    2.6532    2.8796   50.2909 O   0  0  0  0  0  0  0  0  0  0  0  0
    3.4787    2.7321   50.7784 H   0  0  0  0  0  0  0  0  0  0  0  0
    2.4417    1.0698   43.1370 C   0  0  0  0  0  0  0  0  0  0  0  0
    3.5116    1.1882   42.0580 C   0  0  0  0  0  0  0  0  0  0  0  0
    4.2412    2.3783   42.3497 O   0  0  0  0  0  0  0  0  0  0  0  0
    2.9196    1.2570   40.6546 C   0  0  0  0  0  0  0  0  0  0  0  0
    3.9563    1.1595   39.6614 O   0  0  0  0  0  0  0  0  0  0  0  0
    1.6536   -0.0624   42.7691 O   0  0  0  0  0  0  0  0  0  0  0  0
    0.9088    0.1418   41.5571 C   0  0  0  0  0  0  0  0  0  0  0  0
    1.8427    0.2122   40.3452 C   0  0  0  0  0  0  0  0  0  0  0  0
    3.6395    3.1390   42.3320 H   0  0  0  0  0  0  0  0  0  0  0  0
    4.3768    0.2872   39.7175 H   0  0  0  0  0  0  0  0  0  0  0  0
   -0.1064   -0.9777   41.4787 C   0  0  0  0  0  0  0  0  0  0  0  0
   -0.2906   -1.4666   42.8274 O   0  0  0  0  0  0  0  0  0  0  0  0
    0.5596   -1.7741   43.1788 H   0  0  0  0  0  0  0  0  0  0  0  0
    1.2026    0.6524   39.1267 O   0  0  0  0  0  0  0  0  0  0  0  0
    1.3235    0.0251   37.8070 C   0  0  0  0  0  0  0  0  0  0  0  0
    2.1398   -1.3228   37.8579 C   0  0  0  0  0  0  0  0  0  0  0  0
    3.2822   -1.3684   36.9814 O   0  0  0  0  0  0  0  0  0  0  0  0
    1.3562   -2.5821   37.4929 C   0  0  0  0  0  0  0  0  0  0  0  0
    2.0039   -3.7732   38.0203 O   0  0  0  0  0  0  0  0  0  0  0  0
   -0.0481   -2.3811   38.0402 C   0  0  0  0  0  0  0  0  0  0  0  0
   -0.7739   -3.6060   37.9597 O   0  0  0  0  0  0  0  0  0  0  0  0
    0.0242   -0.0710   37.1947 O   0  0  0  0  0  0  0  0  0  0  0  0
   -0.6874   -1.3179   37.1581 C   0  0  0  0  0  0  0  0  0  0  0  0
    2.9823   -1.3679   36.0589 H   0  0  0  0  0  0  0  0  0  0  0  0
    2.0728   -3.7034   38.9854 H   0  0  0  0  0  0  0  0  0  0  0  0
   -0.7975   -3.9079   37.0382 H   0  0  0  0  0  0  0  0  0  0  0  0
   -2.1453   -1.0286   37.5046 C   0  0  0  0  0  0  0  0  0  0  0  0
   -2.9051   -0.6102   36.3495 O   0  0  0  0  0  0  0  0  0  0  0  0
   -2.5276    0.2094   35.9937 H   0  0  0  0  0  0  0  0  0  0  0  0
 16 17  1  0  0  0
 17 22  1  0  0  0
 17 18  1  0  0  0
 19 18  1  0  0  0
 18 20  1  0  0  0
 20 24  1  0  0  0
 20 21  1  0  0  0
 22 23  1  0  0  0
 23 24  1  0  0  0
 23 28  1  0  0  0
 29 28  1  0  0  0
 24 15  1  0  0  0
 15  2  1  0  0  0
  2  3  1  0  0  0
  2  7  1  0  0  0
  4  3  1  0  0  0
  3  5  1  0  0  0
  5  6  1  0  0  0
  5  9  1  0  0  0
  7  8  1  0  0  0
  8 12  1  0  0  0
  8  9  1  0  0  0
 13 12  1  0  0  0
  9  1  1  0  0  0
  1 31  1  0  0  0
 31 36  1  0  0  0
 31 32  1  0  0  0
 33 32  1  0  0  0
 32 34  1  0  0  0
 34 38  1  0  0  0
 34 35  1  0  0  0
 36 37  1  0  0  0
 41 37  1  0  0  0
 37 38  1  0  0  0
 42 41  1  0  0  0
 38 44  1  0  0  0
 44 45  1  0  0  0
 45 52  1  0  0  0
 45 46  1  0  0  0
 46 47  1  0  0  0
 46 48  1  0  0  0
 50 48  1  0  0  0
 48 49  1  0  0  0
 53 50  1  0  0  0
 50 51  1  0  0  0
 52 53  1  0  0  0
 57 53  1  0  0  0
 58 57  1  0  0  0
 16 25  1  0  0  0
 19 26  1  0  0  0
 21 27  1  0  0  0
 29 30  1  0  0  0
  4 10  1  0  0  0
  6 11  1  0  0  0
 13 14  1  0  0  0
 33 39  1  0  0  0
 35 40  1  0  0  0
 42 43  1  0  0  0
 47 54  1  0  0  0
 49 55  1  0  0  0
 51 56  1  0  0  0
 58 59  1  0  0  0
M  END
> <minimizedAffinity>
-9.21677

$$$$
4QLL_CTT_A_1001


 59 62  0  0  0  0  0  0  0  0999 V2000
    3.2984    0.4458   43.6795 O   0  0  0  0  0  0  0  0  0  0  0  0
    0.2427    0.0704   46.6824 C   0  0  0  0  0  0  0  0  0  0  0  0
    0.2902   -0.9400   45.5422 C   0  0  0  0  0  0  0  0  0  0  0  0
   -0.0137   -2.2511   46.0379 O   0  0  0  0  0  0  0  0  0  0  0  0
    1.6106   -0.9551   44.7734 C   0  0  0  0  0  0  0  0  0  0  0  0
    1.4195   -1.7945   43.6245 O   0  0  0  0  0  0  0  0  0  0  0  0
    0.7696    1.3372   46.2541 O   0  0  0  0  0  0  0  0  0  0  0  0
    2.0672    1.3082   45.6414 C   0  0  0  0  0  0  0  0  0  0  0  0
    2.0284    0.4618   44.3661 C   0  0  0  0  0  0  0  0  0  0  0  0
    0.6657   -2.5212   46.6755 H   0  0  0  0  0  0  0  0  0  0  0  0
    0.7018   -1.4370   43.0786 H   0  0  0  0  0  0  0  0  0  0  0  0
    2.4978    2.7508   45.3971 C   0  0  0  0  0  0  0  0  0  0  0  0
    1.6243    3.6441   46.1119 O   0  0  0  0  0  0  0  0  0  0  0  0
    0.7136    3.5238   45.8005 H   0  0  0  0  0  0  0  0  0  0  0  0
   -1.1486    0.1770   47.0148 O   0  0  0  0  0  0  0  0  0  0  0  0
   -1.0243    0.5273   52.5846 O   0  0  0  0  0  0  0  0  0  0  0  0
   -0.7053    0.4059   51.1891 C   0  0  0  0  0  0  0  0  0  0  0  0
   -1.3453   -0.8486   50.5986 C   0  0  0  0  0  0  0  0  0  0  0  0
   -0.9438   -2.0092   51.3276 O   0  0  0  0  0  0  0  0  0  0  0  0
   -0.9275   -0.9628   49.1316 C   0  0  0  0  0  0  0  0  0  0  0  0
   -1.3510   -2.2107   48.5497 O   0  0  0  0  0  0  0  0  0  0  0  0
   -1.1840    1.5480   50.4590 O   0  0  0  0  0  0  0  0  0  0  0  0
   -0.8811    1.5126   49.0532 C   0  0  0  0  0  0  0  0  0  0  0  0
   -1.4800    0.2627   48.4027 C   0  0  0  0  0  0  0  0  0  0  0  0
   -0.6103    1.3282   52.9424 H   0  0  0  0  0  0  0  0  0  0  0  0
    0.0209   -2.1009   51.2839 H   0  0  0  0  0  0  0  0  0  0  0  0
   -2.3177   -2.2765   48.5939 H   0  0  0  0  0  0  0  0  0  0  0  0
   -1.3827    2.8208   48.4402 C   0  0  0  0  0  0  0  0  0  0  0  0
   -0.2677    3.6787   48.1594 O   0  0  0  0  0  0  0  0  0  0  0  0
    0.2080    3.8706   48.9827 H   0  0  0  0  0  0  0  0  0  0  0  0
    3.2701    0.7115   42.2606 C   0  0  0  0  0  0  0  0  0  0  0  0
    4.5753    1.3743   41.8361 C   0  0  0  0  0  0  0  0  0  0  0  0
    4.6543    2.5992   42.5621 O   0  0  0  0  0  0  0  0  0  0  0  0
    4.6337    1.6397   40.3358 C   0  0  0  0  0  0  0  0  0  0  0  0
    5.9506    2.0709   39.9478 O   0  0  0  0  0  0  0  0  0  0  0  0
    3.1532   -0.4554   41.4464 O   0  0  0  0  0  0  0  0  0  0  0  0
    2.9567   -0.1521   40.0554 C   0  0  0  0  0  0  0  0  0  0  0  0
    4.2191    0.4641   39.4452 C   0  0  0  0  0  0  0  0  0  0  0  0
    3.8907    3.1554   42.3420 H   0  0  0  0  0  0  0  0  0  0  0  0
    6.5848    1.3537   40.1040 H   0  0  0  0  0  0  0  0  0  0  0  0
    2.5245   -1.4398   39.3882 C   0  0  0  0  0  0  0  0  0  0  0  0
    3.4891   -1.7111   38.3451 O   0  0  0  0  0  0  0  0  0  0  0  0
    3.5073   -0.9692   37.7206 H   0  0  0  0  0  0  0  0  0  0  0  0
    4.0314    1.0162   38.1230 O   0  0  0  0  0  0  0  0  0  0  0  0
    5.0895    1.4401   37.2009 C   0  0  0  0  0  0  0  0  0  0  0  0
    5.4810    0.3063   36.1777 C   0  0  0  0  0  0  0  0  0  0  0  0
    6.8767   -0.0511   36.1798 O   0  0  0  0  0  0  0  0  0  0  0  0
    5.1910    0.6142   34.7100 C   0  0  0  0  0  0  0  0  0  0  0  0
    5.1172   -0.6074   33.9233 O   0  0  0  0  0  0  0  0  0  0  0  0
    3.8946    1.4086   34.6916 C   0  0  0  0  0  0  0  0  0  0  0  0
    3.4230    1.5257   33.3509 O   0  0  0  0  0  0  0  0  0  0  0  0
    4.7380    2.7034   36.6069 O   0  0  0  0  0  0  0  0  0  0  0  0
    4.2400    2.7769   35.2619 C   0  0  0  0  0  0  0  0  0  0  0  0
    7.4012    0.6920   35.8428 H   0  0  0  0  0  0  0  0  0  0  0  0
    4.4183   -1.1788   34.2782 H   0  0  0  0  0  0  0  0  0  0  0  0
    4.1023    1.9521   32.8053 H   0  0  0  0  0  0  0  0  0  0  0  0
    3.0708    3.7577   35.2548 C   0  0  0  0  0  0  0  0  0  0  0  0
    2.3613    3.7659   36.5130 O   0  0  0  0  0  0  0  0  0  0  0  0
    1.9941    2.8843   36.6829 H   0  0  0  0  0  0  0  0  0  0  0  0
 16 17  1  0  0  0
 17 22  1  0  0  0
 17 18  1  0  0  0
 19 18  1  0  0  0
 18 20  1  0  0  0
 20 24  1  0  0  0
 20 21  1  0  0  0
 22 23  1  0  0  0
 23 24  1  0  0  0
 23 28  1  0  0  0
 29 28  1  0  0  0
 24 15  1  0  0  0
 15  2  1  0  0  0
  2  3  1  0  0  0
  2  7  1  0  0  0
  4  3  1  0  0  0
  3  5  1  0  0  0
  5  6  1  0  0  0
  5  9  1  0  0  0
  7  8  1  0  0  0
  8 12  1  0  0  0
  8  9  1  0  0  0
 13 12  1  0  0  0
  9  1  1  0  0  0
  1 31  1  0  0  0
 31 36  1  0  0  0
 31 32  1  0  0  0
 33 32  1  0  0  0
 32 34  1  0  0  0
 34 38  1  0  0  0
 34 35  1  0  0  0
 36 37  1  0  0  0
 41 37  1  0  0  0
 37 38  1  0  0  0
 42 41  1  0  0  0
 38 44  1  0  0  0
 44 45  1  0  0  0
 45 52  1  0  0  0
 45 46  1  0  0  0
 46 47  1  0  0  0
 46 48  1  0  0  0
 50 48  1  0  0  0
 48 49  1  0  0  0
 53 50  1  0  0  0
 50 51  1  0  0  0
 52 53  1  0  0  0
 57 53  1  0  0  0
 58 57  1  0  0  0
 16 25  1  0  0  0
 19 26  1  0  0  0
 21 27  1  0  0  0
 29 30  1  0  0  0
  4 10  1  0  0  0
  6 11  1  0  0  0
 13 14  1  0  0  0
 33 39  1  0  0  0
 35 40  1  0  0  0
 42 43  1  0  0  0
 47 54  1  0  0  0
 49 55  1  0  0  0
 51 56  1  0  0  0
 58 59  1  0  0  0
M  END
> <minimizedAffinity>
-9.18787

$$$$
4QLL_CTT_A_1001


 59 62  0  0  0  0  0  0  0  0999 V2000
    3.0466    0.6547   45.2580 O   0  0  0  0  0  0  0  0  0  0  0  0
   -0.0628    2.0373   47.8877 C   0  0  0  0  0  0  0  0  0  0  0  0
    1.0714    2.9858   47.5170 C   0  0  0  0  0  0  0  0  0  0  0  0
    0.5563    4.3095   47.3183 O   0  0  0  0  0  0  0  0  0  0  0  0
    1.8852    2.5440   46.3017 C   0  0  0  0  0  0  0  0  0  0  0  0
    3.0210    3.4179   46.2150 O   0  0  0  0  0  0  0  0  0  0  0  0
    0.3923    0.6742   47.8603 O   0  0  0  0  0  0  0  0  0  0  0  0
    1.0494    0.2506   46.6566 C   0  0  0  0  0  0  0  0  0  0  0  0
    2.3166    1.0791   46.4290 C   0  0  0  0  0  0  0  0  0  0  0  0
   -0.0592    4.3078   46.5686 H   0  0  0  0  0  0  0  0  0  0  0  0
    3.5442    3.3499   47.0290 H   0  0  0  0  0  0  0  0  0  0  0  0
    1.3185   -1.2459   46.7764 C   0  0  0  0  0  0  0  0  0  0  0  0
    2.5443   -1.4607   47.4996 O   0  0  0  0  0  0  0  0  0  0  0  0
    3.2779   -1.0397   47.0247 H   0  0  0  0  0  0  0  0  0  0  0  0
   -0.4424    2.4270   49.2149 O   0  0  0  0  0  0  0  0  0  0  0  0
   -2.1164   -0.5757   53.6129 O   0  0  0  0  0  0  0  0  0  0  0  0
   -1.6300    0.4458   52.7273 C   0  0  0  0  0  0  0  0  0  0  0  0
   -0.3392   -0.0035   52.0461 C   0  0  0  0  0  0  0  0  0  0  0  0
    0.6442   -0.3622   53.0177 O   0  0  0  0  0  0  0  0  0  0  0  0
    0.1672    1.1383   51.1633 C   0  0  0  0  0  0  0  0  0  0  0  0
    1.4709    0.8567   50.6189 O   0  0  0  0  0  0  0  0  0  0  0  0
   -2.6029    0.7399   51.7107 O   0  0  0  0  0  0  0  0  0  0  0  0
   -2.1986    1.7737   50.7958 C   0  0  0  0  0  0  0  0  0  0  0  0
   -0.8938    1.3922   50.0916 C   0  0  0  0  0  0  0  0  0  0  0  0
   -2.9353   -0.2736   54.0361 H   0  0  0  0  0  0  0  0  0  0  0  0
    0.8383    0.4044   53.5795 H   0  0  0  0  0  0  0  0  0  0  0  0
    1.4284    0.0530   50.0775 H   0  0  0  0  0  0  0  0  0  0  0  0
   -3.3624    2.0200   49.8347 C   0  0  0  0  0  0  0  0  0  0  0  0
   -3.2249    3.3163   49.2355 O   0  0  0  0  0  0  0  0  0  0  0  0
   -3.2305    3.9950   49.9285 H   0  0  0  0  0  0  0  0  0  0  0  0
    2.3794    0.8123   43.9872 C   0  0  0  0  0  0  0  0  0  0  0  0
    3.3985    1.1750   42.9136 C   0  0  0  0  0  0  0  0  0  0  0  0
    3.9797    2.4129   43.3182 O   0  0  0  0  0  0  0  0  0  0  0  0
    2.7675    1.3093   41.5321 C   0  0  0  0  0  0  0  0  0  0  0  0
    3.7830    1.4461   40.5217 O   0  0  0  0  0  0  0  0  0  0  0  0
    1.7310   -0.3682   43.5136 O   0  0  0  0  0  0  0  0  0  0  0  0
    0.9363   -0.1391   42.3383 C   0  0  0  0  0  0  0  0  0  0  0  0
    1.8232    0.1723   41.1291 C   0  0  0  0  0  0  0  0  0  0  0  0
    3.2868    3.0883   43.3867 H   0  0  0  0  0  0  0  0  0  0  0  0
    4.3112    0.6334   40.4820 H   0  0  0  0  0  0  0  0  0  0  0  0
    0.0683   -1.3653   42.1565 C   0  0  0  0  0  0  0  0  0  0  0  0
   -0.9961   -0.9904   41.2518 O   0  0  0  0  0  0  0  0  0  0  0  0
   -1.4941   -0.2481   41.6285 H   0  0  0  0  0  0  0  0  0  0  0  0
    1.1024    0.6482   39.9705 O   0  0  0  0  0  0  0  0  0  0  0  0
    1.3789    0.3011   38.5731 C   0  0  0  0  0  0  0  0  0  0  0  0
    2.0317   -1.1268   38.4293 C   0  0  0  0  0  0  0  0  0  0  0  0
    3.2948   -1.1445   37.7365 O   0  0  0  0  0  0  0  0  0  0  0  0
    1.1954   -2.1613   37.6786 C   0  0  0  0  0  0  0  0  0  0  0  0
    1.6188   -3.5142   38.0058 O   0  0  0  0  0  0  0  0  0  0  0  0
   -0.2528   -1.8881   38.0528 C   0  0  0  0  0  0  0  0  0  0  0  0
   -1.0768   -2.9570   37.5922 O   0  0  0  0  0  0  0  0  0  0  0  0
    0.1985    0.5154   37.7773 O   0  0  0  0  0  0  0  0  0  0  0  0
   -0.6212   -0.5859   37.3560 C   0  0  0  0  0  0  0  0  0  0  0  0
    3.1563   -0.9093   36.8057 H   0  0  0  0  0  0  0  0  0  0  0  0
    1.5308   -3.6585   38.9610 H   0  0  0  0  0  0  0  0  0  0  0  0
   -0.9756   -3.0527   36.6323 H   0  0  0  0  0  0  0  0  0  0  0  0
   -2.0790   -0.1777   37.5494 C   0  0  0  0  0  0  0  0  0  0  0  0
   -2.9235   -0.6573   36.4801 O   0  0  0  0  0  0  0  0  0  0  0  0
   -2.6286   -0.2748   35.6388 H   0  0  0  0  0  0  0  0  0  0  0  0
 16 17  1  0  0  0
 17 22  1  0  0  0
 17 18  1  0  0  0
 19 18  1  0  0  0
 18 20  1  0  0  0
 20 24  1  0  0  0
 20 21  1  0  0  0
 22 23  1  0  0  0
 23 24  1  0  0  0
 23 28  1  0  0  0
 29 28  1  0  0  0
 24 15  1  0  0  0
 15  2  1  0  0  0
  2  3  1  0  0  0
  2  7  1  0  0  0
  4  3  1  0  0  0
  3  5  1  0  0  0
  5  6  1  0  0  0
  5  9  1  0  0  0
  7  8  1  0  0  0
  8 12  1  0  0  0
  8  9  1  0  0  0
 13 12  1  0  0  0
  9  1  1  0  0  0
  1 31  1  0  0  0
 31 36  1  0  0  0
 31 32  1  0  0  0
 33 32  1  0  0  0
 32 34  1  0  0  0
 34 38  1  0  0  0
 34 35  1  0  0  0
 36 37  1  0  0  0
 41 37  1  0  0  0
 37 38  1  0  0  0
 42 41  1  0  0  0
 38 44  1  0  0  0
 44 45  1  0  0  0
 45 52  1  0  0  0
 45 46  1  0  0  0
 46 47  1  0  0  0
 46 48  1  0  0  0
 50 48  1  0  0  0
 48 49  1  0  0  0
 53 50  1  0  0  0
 50 51  1  0  0  0
 52 53  1  0  0  0
 57 53  1  0  0  0
 58 57  1  0  0  0
 16 25  1  0  0  0
 19 26  1  0  0  0
 21 27  1  0  0  0
 29 30  1  0  0  0
  4 10  1  0  0  0
  6 11  1  0  0  0
 13 14  1  0  0  0
 33 39  1  0  0  0
 35 40  1  0  0  0
 42 43  1  0  0  0
 47 54  1  0  0  0
 49 55  1  0  0  0
 51 56  1  0  0  0
 58 59  1  0  0  0
M  END
> <minimizedAffinity>
-9.14317

$$$$
