3QXV_MTX_A_2000
  RCSB PDB12061710293D
Coordinates from PDB:3QXV:A:2000 Model:1 without hydrogens
 33 35  0  0  0  0            999 V2000
  -15.6020   15.5650  -27.8170   N 0  0  0  0  0  0  0  0  0  0  0  0
  -15.5690   16.7660  -27.1480   C 0  0  0  0  0  0  0  0  0  0  0  0
  -14.4450   17.1250  -26.5150   N 0  0  0  0  0  0  0  0  0  0  0  0
  -16.6700   17.6050  -27.1880   N 0  0  0  0  0  0  0  0  0  0  0  0
  -17.8300   17.2030  -27.8580   C 0  0  0  0  0  0  0  0  0  0  0  0
  -18.8800   18.0280  -27.8940   N 0  0  0  0  0  0  0  0  0  0  0  0
  -17.8650   15.9670  -28.5200   C 0  0  0  0  0  0  0  0  0  0  0  0
  -18.9970   15.5370  -29.1990   N 0  0  0  0  0  0  0  0  0  0  0  0
  -19.0150   14.3040  -29.8070   C 0  0  0  0  0  0  0  0  0  0  0  0
  -17.8700   13.5030  -29.7700   C 0  0  0  0  0  0  0  0  0  0  0  0
  -16.7380   13.9310  -29.1010   N 0  0  0  0  0  0  0  0  0  0  0  0
  -16.7440   15.1490  -28.4670   C 0  0  0  0  0  0  0  0  0  0  0  0
  -20.2580   13.8380  -30.5450   C 0  0  0  0  0  0  0  0  0  0  0  0
  -19.9840   12.6620  -31.3510   N 0  0  0  0  0  0  0  0  0  0  0  0
  -19.4140   12.8830  -32.6860   C 0  0  0  0  0  0  0  0  0  0  0  0
  -22.6070    9.3810  -31.2990   C 0  0  0  0  0  0  0  0  0  0  0  0
  -21.7120    9.5530  -32.3510   C 0  0  0  0  0  0  0  0  0  0  0  0
  -20.8540   10.6420  -32.3520   C 0  0  0  0  0  0  0  0  0  0  0  0
  -20.8760   11.5550  -31.2860   C 0  0  0  0  0  0  0  0  0  0  0  0
  -21.7790   11.3650  -30.2290   C 0  0  0  0  0  0  0  0  0  0  0  0
  -22.4450   10.1400  -30.1380   C 0  0  0  0  0  0  0  0  0  0  0  0
  -23.5350    8.1990  -31.3430   C 0  0  0  0  0  0  0  0  0  0  0  0
  -24.3890    7.9850  -32.4520   O 0  0  0  0  0  0  0  0  0  0  0  0
  -23.5030    7.3440  -30.3470   N 0  0  0  0  0  0  0  0  0  0  0  0
  -22.8890    6.0590  -30.5930   C 0  0  0  0  0  0  0  0  0  0  0  0
  -22.2780    5.5640  -29.3200   C 0  0  0  0  0  0  0  0  0  0  0  0
  -21.5410    6.3200  -28.6410   O 0  0  0  0  0  0  0  0  0  0  0  0
  -22.5350    4.4010  -28.9330   O 0  0  0  0  0  0  0  0  0  0  0  0
  -21.9280    6.1180  -31.7980   C 0  0  0  0  0  0  0  0  0  0  0  0
  -20.4240    6.0680  -31.5290   C 0  0  0  0  0  0  0  0  0  0  0  0
  -19.9930    4.7450  -30.9260   C 0  0  0  0  0  0  0  0  0  0  0  0
  -19.3270    4.7340  -29.8630   O 0  0  0  0  0  0  0  0  0  0  0  0
  -20.3010    3.6470  -31.4540   O 0  0  0  0  0  0  0  0  0  0  0  0
  1  2  2  0  0  0  0
  1 12  1  0  0  0  0
  2  3  1  0  0  0  0
  2  4  1  0  0  0  0
  4  5  2  0  0  0  0
  5  6  1  0  0  0  0
  5  7  1  0  0  0  0
  7  8  1  0  0  0  0
  7 12  2  0  0  0  0
  8  9  2  0  0  0  0
  9 10  1  0  0  0  0
  9 13  1  0  0  0  0
 10 11  2  0  0  0  0
 11 12  1  0  0  0  0
 13 14  1  0  0  0  0
 14 15  1  0  0  0  0
 14 19  1  0  0  0  0
 16 17  2  0  0  0  0
 16 21  1  0  0  0  0
 16 22  1  0  0  0  0
 17 18  1  0  0  0  0
 18 19  2  0  0  0  0
 19 20  1  0  0  0  0
 20 21  2  0  0  0  0
 22 23  2  0  0  0  0
 22 24  1  0  0  0  0
 24 25  1  0  0  0  0
 25 26  1  0  0  0  0
 25 29  1  0  0  0  0
 26 27  2  0  0  0  0
 26 28  1  0  0  0  0
 29 30  1  0  0  0  0
 30 31  1  0  0  0  0
 31 32  2  0  0  0  0
 31 33  1  0  0  0  0
A    1
N1
A    2
C2
A    3
NA2
A    4
N3
A    5
C4
A    6
NA4
A    7
C4A
A    8
N5
A    9
C6
A   10
C7
A   11
N8
A   12
C8A
A   13
C9
A   14
N10
A   15
CM
A   16
C11
A   17
C12
A   18
C13
A   19
C14
A   20
C15
A   21
C16
A   22
C
A   23
O
A   24
N
A   25
CA
A   26
CT
A   27
O1
A   28
O2
A   29
CB
A   30
CG
A   31
CD
A   32
OE1
A   33
OE2
M  END
>  <InstanceId>
3QXV_MTX_A_2000

>  <ChemCompId>
MTX

>  <PdbId>
3QXV

>  <ChainId>
A

>  <ResidueNumber>
2000

>  <InsertionCode>


>  <Model>
1

>  <AltIds>


>  <MissingHeavyAtoms>
0

>  <ObservedFormula>
C20 N8 O5

>  <Name>
METHOTREXATE

>  <SystematicName>
(2S)-2-[[4-[(2,4-diaminopteridin-6-yl)methyl-methyl-amino]phenyl]carbonylamino]pentanedioic acid

>  <Synonyms>


>  <Type>
NON-POLYMER

>  <Formula>
C20 H22 N8 O5

>  <MolecularWeight>
454.439

>  <ModifiedDate>
2011-06-04

>  <Parent>


>  <OneLetterCode>


>  <SubcomponentList>


>  <AmbiguousFlag>
N

>  <InChI>
InChI=1S/C20H22N8O5/c1-28(9-11-8-23-17-15(24-11)16(21)26-20(22)27-17)12-4-2-10(3-5-12)18(31)25-13(19(32)33)6-7-14(29)30/h2-5,8,13H,6-7,9H2,1H3,(H,25,31)(H,29,30)(H,32,33)(H4,21,22,23,26,27)/t13-/m0/s1

>  <InChIKey>
FBOZXECLQNJBKD-ZDUSSCGKSA-N

>  <SMILES>
CN(Cc1cnc2c(n1)c(nc(n2)N)N)c3ccc(cc3)C(=O)N[C@@H](CCC(=O)O)C(=O)O

$$$$
