5LTN_XI7_A_205


 15 15  0  0  0  0  0  0  0  0999 V2000
  -34.0586  -13.8015    2.6775 C   0  0  0  0  0  0  0  0  0  0  0  0
  -33.0278  -14.2156    3.1433 O   0  0  0  0  0  0  0  0  0  0  0  0
  -35.1141  -14.8112    2.4570 C   0  0  0  0  0  0  0  0  0  0  0  0
  -35.3814  -15.7253    3.4542 C   0  0  0  0  0  0  0  0  0  0  0  0
  -36.3744  -16.6489    3.1991 C   0  0  0  0  0  0  0  0  0  0  0  0
  -37.0383  -16.6065    1.9846 C   0  0  0  0  0  0  0  0  0  0  0  0
  -36.7596  -15.6843    0.9978 C   0  0  0  0  0  0  0  0  0  0  0  0
  -35.7704  -14.7608    1.2431 C   0  0  0  0  0  0  0  0  0  0  0  0
  -34.3295  -12.3811    2.2967 C   0  0  0  0  0  0  0  0  0  0  0  0
  -35.1743  -12.4290    4.4877 O   0  0  0  0  0  0  0  0  0  0  0  0
  -35.0204  -11.7936    3.4785 C   0  0  0  0  0  0  0  0  0  0  0  0
  -35.5119  -10.4035    3.4438 C   0  0  0  0  0  0  0  0  0  0  0  0
  -36.7044  -10.3930    3.4176 O   0  0  0  0  0  0  0  0  0  0  0  0
  -34.9085   -9.2915    3.3755 O   0  0  0  0  0  0  0  0  0  0  0  0
  -37.1812  -11.1982    3.4661 H   0  0  0  0  0  0  0  0  0  0  0  0
 10 11  2  0  0  0
 11 12  1  0  0  0
 11  9  1  0  0  0
 12 13  1  0  0  0
 12 14  2  0  0  0
  9  1  1  0  0  0
  1  3  1  0  0  0
  1  2  2  0  0  0
  3  4  1  0  0  0
  3  8  2  0  0  0
  4  5  2  0  0  0
  5  6  1  0  0  0
  6  7  2  0  0  0
  7  8  1  0  0  0
 13 15  1  0  0  0
M  END
> <minimizedAffinity>
-6.01318

$$$$
5LTN_XI7_A_205


 15 15  0  0  0  0  0  0  0  0999 V2000
  -34.8565  -16.1705    4.6059 C   0  0  0  0  0  0  0  0  0  0  0  0
  -35.0084  -15.3660    5.4895 O   0  0  0  0  0  0  0  0  0  0  0  0
  -35.4437  -15.8074    3.2999 C   0  0  0  0  0  0  0  0  0  0  0  0
  -36.4458  -16.5969    2.7766 C   0  0  0  0  0  0  0  0  0  0  0  0
  -36.9599  -16.2172    1.5536 C   0  0  0  0  0  0  0  0  0  0  0  0
  -36.4571  -15.0859    0.9332 C   0  0  0  0  0  0  0  0  0  0  0  0
  -35.4549  -14.3059    1.4712 C   0  0  0  0  0  0  0  0  0  0  0  0
  -34.9359  -14.6779    2.6891 C   0  0  0  0  0  0  0  0  0  0  0  0
  -34.1545  -17.4840    4.7400 C   0  0  0  0  0  0  0  0  0  0  0  0
  -34.1306  -18.2945    6.9443 O   0  0  0  0  0  0  0  0  0  0  0  0
  -34.7664  -18.1238    5.9380 C   0  0  0  0  0  0  0  0  0  0  0  0
  -36.1806  -18.5420    5.9232 C   0  0  0  0  0  0  0  0  0  0  0  0
  -36.3631  -19.3326    5.0489 O   0  0  0  0  0  0  0  0  0  0  0  0
  -37.1825  -18.1710    6.6042 O   0  0  0  0  0  0  0  0  0  0  0  0
  -35.6434  -19.6277    4.5264 H   0  0  0  0  0  0  0  0  0  0  0  0
 10 11  2  0  0  0
 11 12  1  0  0  0
 11  9  1  0  0  0
 12 13  1  0  0  0
 12 14  2  0  0  0
  9  1  1  0  0  0
  1  3  1  0  0  0
  1  2  2  0  0  0
  3  4  1  0  0  0
  3  8  2  0  0  0
  4  5  2  0  0  0
  5  6  1  0  0  0
  6  7  2  0  0  0
  7  8  1  0  0  0
 13 15  1  0  0  0
M  END
> <minimizedAffinity>
-5.96313

$$$$
5LTN_XI7_A_205


 15 15  0  0  0  0  0  0  0  0999 V2000
  -36.1449  -17.2517    4.4067 C   0  0  0  0  0  0  0  0  0  0  0  0
  -37.0288  -18.0683    4.3529 O   0  0  0  0  0  0  0  0  0  0  0  0
  -36.0404  -16.3423    3.2473 C   0  0  0  0  0  0  0  0  0  0  0  0
  -35.1429  -15.2967    3.2987 C   0  0  0  0  0  0  0  0  0  0  0  0
  -35.0843  -14.4745    2.1920 C   0  0  0  0  0  0  0  0  0  0  0  0
  -35.9076  -14.7403    1.1108 C   0  0  0  0  0  0  0  0  0  0  0  0
  -36.7993  -15.7918    1.0747 C   0  0  0  0  0  0  0  0  0  0  0  0
  -36.8652  -16.6155    2.1741 C   0  0  0  0  0  0  0  0  0  0  0  0
  -35.1597  -17.1123    5.5229 C   0  0  0  0  0  0  0  0  0  0  0  0
  -34.0506  -19.1542    5.1810 O   0  0  0  0  0  0  0  0  0  0  0  0
  -34.7865  -18.5095    5.8801 C   0  0  0  0  0  0  0  0  0  0  0  0
  -35.2956  -19.1269    7.1189 C   0  0  0  0  0  0  0  0  0  0  0  0
  -36.2649  -19.7800    6.8807 O   0  0  0  0  0  0  0  0  0  0  0  0
  -34.9308  -19.0285    8.3282 O   0  0  0  0  0  0  0  0  0  0  0  0
  -36.5615  -19.8731    5.9967 H   0  0  0  0  0  0  0  0  0  0  0  0
 10 11  2  0  0  0
 11 12  1  0  0  0
 11  9  1  0  0  0
 12 13  1  0  0  0
 12 14  2  0  0  0
  9  1  1  0  0  0
  1  3  1  0  0  0
  1  2  2  0  0  0
  3  4  1  0  0  0
  3  8  2  0  0  0
  4  5  2  0  0  0
  5  6  1  0  0  0
  6  7  2  0  0  0
  7  8  1  0  0  0
 13 15  1  0  0  0
M  END
> <minimizedAffinity>
-5.92530

$$$$
5LTN_XI7_A_205


 15 15  0  0  0  0  0  0  0  0999 V2000
  -33.9534  -13.9201    2.7178 C   0  0  0  0  0  0  0  0  0  0  0  0
  -32.9156  -14.4115    3.0819 O   0  0  0  0  0  0  0  0  0  0  0  0
  -35.0701  -14.8635    2.5055 C   0  0  0  0  0  0  0  0  0  0  0  0
  -35.4057  -15.7382    3.5173 C   0  0  0  0  0  0  0  0  0  0  0  0
  -36.4542  -16.6005    3.2695 C   0  0  0  0  0  0  0  0  0  0  0  0
  -37.1024  -16.5394    2.0474 C   0  0  0  0  0  0  0  0  0  0  0  0
  -36.7551  -15.6571    1.0459 C   0  0  0  0  0  0  0  0  0  0  0  0
  -35.7103  -14.7950    1.2839 C   0  0  0  0  0  0  0  0  0  0  0  0
  -34.1781  -12.4660    2.4514 C   0  0  0  0  0  0  0  0  0  0  0  0
  -34.2937  -11.8356    4.7109 O   0  0  0  0  0  0  0  0  0  0  0  0
  -33.6867  -11.7728    3.6749 C   0  0  0  0  0  0  0  0  0  0  0  0
  -32.4247  -11.0101    3.6472 C   0  0  0  0  0  0  0  0  0  0  0  0
  -31.5031  -11.7517    3.4937 O   0  0  0  0  0  0  0  0  0  0  0  0
  -32.1728   -9.7798    3.8151 O   0  0  0  0  0  0  0  0  0  0  0  0
  -31.6549  -12.6676    3.3670 H   0  0  0  0  0  0  0  0  0  0  0  0
 10 11  2  0  0  0
 11 12  1  0  0  0
 11  9  1  0  0  0
 12 13  1  0  0  0
 12 14  2  0  0  0
  9  1  1  0  0  0
  1  3  1  0  0  0
  1  2  2  0  0  0
  3  4  1  0  0  0
  3  8  2  0  0  0
  4  5  2  0  0  0
  5  6  1  0  0  0
  6  7  2  0  0  0
  7  8  1  0  0  0
 13 15  1  0  0  0
M  END
> <minimizedAffinity>
-5.90205

$$$$
5LTN_XI7_A_205


 15 15  0  0  0  0  0  0  0  0999 V2000
  -34.9808  -16.4218    4.3239 C   0  0  0  0  0  0  0  0  0  0  0  0
  -34.0308  -17.1546    4.2165 O   0  0  0  0  0  0  0  0  0  0  0  0
  -35.4698  -15.8171    3.0679 C   0  0  0  0  0  0  0  0  0  0  0  0
  -36.3953  -16.5056    2.3124 C   0  0  0  0  0  0  0  0  0  0  0  0
  -36.8190  -15.8997    1.1473 C   0  0  0  0  0  0  0  0  0  0  0  0
  -36.3078  -14.6581    0.8089 C   0  0  0  0  0  0  0  0  0  0  0  0
  -35.3831  -13.9818    1.5769 C   0  0  0  0  0  0  0  0  0  0  0  0
  -34.9543  -14.5790    2.7391 C   0  0  0  0  0  0  0  0  0  0  0  0
  -35.6668  -16.0734    5.6061 C   0  0  0  0  0  0  0  0  0  0  0  0
  -37.9328  -16.6878    5.5417 O   0  0  0  0  0  0  0  0  0  0  0  0
  -36.7955  -17.0398    5.7107 C   0  0  0  0  0  0  0  0  0  0  0  0
  -36.5382  -18.4626    6.0017 C   0  0  0  0  0  0  0  0  0  0  0  0
  -36.4325  -19.0746    4.9833 O   0  0  0  0  0  0  0  0  0  0  0  0
  -36.4803  -19.1094    7.0896 O   0  0  0  0  0  0  0  0  0  0  0  0
  -36.4710  -18.6265    4.1612 H   0  0  0  0  0  0  0  0  0  0  0  0
 10 11  2  0  0  0
 11 12  1  0  0  0
 11  9  1  0  0  0
 12 13  1  0  0  0
 12 14  2  0  0  0
  9  1  1  0  0  0
  1  3  1  0  0  0
  1  2  2  0  0  0
  3  4  1  0  0  0
  3  8  2  0  0  0
  4  5  2  0  0  0
  5  6  1  0  0  0
  6  7  2  0  0  0
  7  8  1  0  0  0
 13 15  1  0  0  0
M  END
> <minimizedAffinity>
-5.74374

$$$$
5LTN_XI7_A_205


 15 15  0  0  0  0  0  0  0  0999 V2000
  -36.5958  -16.8342    3.8893 C   0  0  0  0  0  0  0  0  0  0  0  0
  -37.0369  -17.5472    3.0244 O   0  0  0  0  0  0  0  0  0  0  0  0
  -35.8891  -15.6234    3.4240 C   0  0  0  0  0  0  0  0  0  0  0  0
  -35.2416  -14.8321    4.3493 C   0  0  0  0  0  0  0  0  0  0  0  0
  -34.5982  -13.7115    3.8652 C   0  0  0  0  0  0  0  0  0  0  0  0
  -34.6318  -13.4497    2.5058 C   0  0  0  0  0  0  0  0  0  0  0  0
  -35.2831  -14.2525    1.5930 C   0  0  0  0  0  0  0  0  0  0  0  0
  -35.9281  -15.3708    2.0670 C   0  0  0  0  0  0  0  0  0  0  0  0
  -36.6910  -17.0928    5.3591 C   0  0  0  0  0  0  0  0  0  0  0  0
  -36.4750  -19.3907    5.7944 O   0  0  0  0  0  0  0  0  0  0  0  0
  -35.9180  -18.3474    5.5773 C   0  0  0  0  0  0  0  0  0  0  0  0
  -34.4449  -18.3407    5.5073 C   0  0  0  0  0  0  0  0  0  0  0  0
  -34.0610  -19.2945    4.9025 O   0  0  0  0  0  0  0  0  0  0  0  0
  -33.5748  -17.5692    6.0101 O   0  0  0  0  0  0  0  0  0  0  0  0
  -34.6785  -19.8852    4.5180 H   0  0  0  0  0  0  0  0  0  0  0  0
 10 11  2  0  0  0
 11 12  1  0  0  0
 11  9  1  0  0  0
 12 13  1  0  0  0
 12 14  2  0  0  0
  9  1  1  0  0  0
  1  3  1  0  0  0
  1  2  2  0  0  0
  3  4  1  0  0  0
  3  8  2  0  0  0
  4  5  2  0  0  0
  5  6  1  0  0  0
  6  7  2  0  0  0
  7  8  1  0  0  0
 13 15  1  0  0  0
M  END
> <minimizedAffinity>
-5.66588

$$$$
5LTN_XI7_A_205


 15 15  0  0  0  0  0  0  0  0999 V2000
  -34.8735  -15.5309    3.2310 C   0  0  0  0  0  0  0  0  0  0  0  0
  -35.6491  -15.7073    2.3264 O   0  0  0  0  0  0  0  0  0  0  0  0
  -34.3092  -14.1697    3.3357 C   0  0  0  0  0  0  0  0  0  0  0  0
  -34.4291  -13.3136    2.2615 C   0  0  0  0  0  0  0  0  0  0  0  0
  -33.8838  -12.0544    2.4079 C   0  0  0  0  0  0  0  0  0  0  0  0
  -33.2638  -11.7232    3.6010 C   0  0  0  0  0  0  0  0  0  0  0  0
  -33.1536  -12.5913    4.6670 C   0  0  0  0  0  0  0  0  0  0  0  0
  -33.6931  -13.8488    4.5291 C   0  0  0  0  0  0  0  0  0  0  0  0
  -34.4369  -16.5695    4.2141 C   0  0  0  0  0  0  0  0  0  0  0  0
  -36.2196  -16.1492    5.6844 O   0  0  0  0  0  0  0  0  0  0  0  0
  -35.6746  -16.9367    4.9573 C   0  0  0  0  0  0  0  0  0  0  0  0
  -36.2749  -18.2742    4.7971 C   0  0  0  0  0  0  0  0  0  0  0  0
  -36.7808  -18.3681    3.7209 O   0  0  0  0  0  0  0  0  0  0  0  0
  -36.3894  -19.2539    5.5923 O   0  0  0  0  0  0  0  0  0  0  0  0
  -36.7147  -17.6616    3.1090 H   0  0  0  0  0  0  0  0  0  0  0  0
 10 11  2  0  0  0
 11 12  1  0  0  0
 11  9  1  0  0  0
 12 13  1  0  0  0
 12 14  2  0  0  0
  9  1  1  0  0  0
  1  3  1  0  0  0
  1  2  2  0  0  0
  3  4  1  0  0  0
  3  8  2  0  0  0
  4  5  2  0  0  0
  5  6  1  0  0  0
  6  7  2  0  0  0
  7  8  1  0  0  0
 13 15  1  0  0  0
M  END
> <minimizedAffinity>
-5.58800

$$$$
5LTN_XI7_A_205


 15 15  0  0  0  0  0  0  0  0999 V2000
  -33.9430  -14.7099    3.6515 C   0  0  0  0  0  0  0  0  0  0  0  0
  -32.8997  -14.4769    3.0962 O   0  0  0  0  0  0  0  0  0  0  0  0
  -35.0466  -15.1619    2.7797 C   0  0  0  0  0  0  0  0  0  0  0  0
  -35.3098  -14.4631    1.6204 C   0  0  0  0  0  0  0  0  0  0  0  0
  -36.3517  -14.9236    0.8416 C   0  0  0  0  0  0  0  0  0  0  0  0
  -37.0583  -16.0410    1.2536 C   0  0  0  0  0  0  0  0  0  0  0  0
  -36.7811  -16.7298    2.4158 C   0  0  0  0  0  0  0  0  0  0  0  0
  -35.7452  -16.2769    3.1988 C   0  0  0  0  0  0  0  0  0  0  0  0
  -34.1989  -14.5565    5.1167 C   0  0  0  0  0  0  0  0  0  0  0  0
  -32.1253  -15.4026    5.8243 O   0  0  0  0  0  0  0  0  0  0  0  0
  -33.3154  -15.5645    5.7666 C   0  0  0  0  0  0  0  0  0  0  0  0
  -33.8880  -16.7784    6.3780 C   0  0  0  0  0  0  0  0  0  0  0  0
  -33.7734  -17.7031    5.6333 O   0  0  0  0  0  0  0  0  0  0  0  0
  -34.5013  -16.9702    7.4699 O   0  0  0  0  0  0  0  0  0  0  0  0
  -33.3253  -17.5950    4.8176 H   0  0  0  0  0  0  0  0  0  0  0  0
 10 11  2  0  0  0
 11 12  1  0  0  0
 11  9  1  0  0  0
 12 13  1  0  0  0
 12 14  2  0  0  0
  9  1  1  0  0  0
  1  3  1  0  0  0
  1  2  2  0  0  0
  3  4  1  0  0  0
  3  8  2  0  0  0
  4  5  2  0  0  0
  5  6  1  0  0  0
  6  7  2  0  0  0
  7  8  1  0  0  0
 13 15  1  0  0  0
M  END
> <minimizedAffinity>
-5.50525

$$$$
5LTN_XI7_A_205


 15 15  0  0  0  0  0  0  0  0999 V2000
  -36.4650  -17.0813    4.3666 C   0  0  0  0  0  0  0  0  0  0  0  0
  -36.7861  -18.2093    4.0917 O   0  0  0  0  0  0  0  0  0  0  0  0
  -36.2074  -16.1896    3.2173 C   0  0  0  0  0  0  0  0  0  0  0  0
  -36.9107  -16.3887    2.0480 C   0  0  0  0  0  0  0  0  0  0  0  0
  -36.6326  -15.5312    1.0032 C   0  0  0  0  0  0  0  0  0  0  0  0
  -35.6871  -14.5354    1.1822 C   0  0  0  0  0  0  0  0  0  0  0  0
  -34.9932  -14.3488    2.3594 C   0  0  0  0  0  0  0  0  0  0  0  0
  -35.2632  -15.1998    3.4054 C   0  0  0  0  0  0  0  0  0  0  0  0
  -36.2918  -16.5415    5.7503 C   0  0  0  0  0  0  0  0  0  0  0  0
  -38.0152  -14.9535    5.9069 O   0  0  0  0  0  0  0  0  0  0  0  0
  -37.6480  -16.0724    6.1501 C   0  0  0  0  0  0  0  0  0  0  0  0
  -38.5834  -16.9836    6.8353 C   0  0  0  0  0  0  0  0  0  0  0  0
  -38.9240  -16.5113    7.8764 O   0  0  0  0  0  0  0  0  0  0  0  0
  -39.0054  -18.1424    6.5449 O   0  0  0  0  0  0  0  0  0  0  0  0
  -38.6297  -15.6562    8.1215 H   0  0  0  0  0  0  0  0  0  0  0  0
 10 11  2  0  0  0
 11 12  1  0  0  0
 11  9  1  0  0  0
 12 13  1  0  0  0
 12 14  2  0  0  0
  9  1  1  0  0  0
  1  3  1  0  0  0
  1  2  2  0  0  0
  3  4  1  0  0  0
  3  8  2  0  0  0
  4  5  2  0  0  0
  5  6  1  0  0  0
  6  7  2  0  0  0
  7  8  1  0  0  0
 13 15  1  0  0  0
M  END
> <minimizedAffinity>
-5.46701

$$$$
5LTN_XI7_A_205


 15 15  0  0  0  0  0  0  0  0999 V2000
  -35.5066  -16.8088    4.5764 C   0  0  0  0  0  0  0  0  0  0  0  0
  -34.8590  -16.1792    5.3734 O   0  0  0  0  0  0  0  0  0  0  0  0
  -35.7570  -16.1408    3.2828 C   0  0  0  0  0  0  0  0  0  0  0  0
  -35.0287  -15.0148    2.9617 C   0  0  0  0  0  0  0  0  0  0  0  0
  -35.3011  -14.4264    1.7436 C   0  0  0  0  0  0  0  0  0  0  0  0
  -36.2660  -14.9883    0.9245 C   0  0  0  0  0  0  0  0  0  0  0  0
  -36.9849  -16.1164    1.2602 C   0  0  0  0  0  0  0  0  0  0  0  0
  -36.7207  -16.7085    2.4730 C   0  0  0  0  0  0  0  0  0  0  0  0
  -36.0779  -18.1714    4.8061 C   0  0  0  0  0  0  0  0  0  0  0  0
  -36.2873  -18.4909    7.1234 O   0  0  0  0  0  0  0  0  0  0  0  0
  -36.7869  -18.0735    6.1125 C   0  0  0  0  0  0  0  0  0  0  0  0
  -38.1144  -17.4367    6.1978 C   0  0  0  0  0  0  0  0  0  0  0  0
  -38.9252  -18.2313    6.5638 O   0  0  0  0  0  0  0  0  0  0  0  0
  -38.5181  -16.2730    5.9011 O   0  0  0  0  0  0  0  0  0  0  0  0
  -38.6598  -19.1007    6.7910 H   0  0  0  0  0  0  0  0  0  0  0  0
 10 11  2  0  0  0
 11 12  1  0  0  0
 11  9  1  0  0  0
 12 13  1  0  0  0
 12 14  2  0  0  0
  9  1  1  0  0  0
  1  3  1  0  0  0
  1  2  2  0  0  0
  3  4  1  0  0  0
  3  8  2  0  0  0
  4  5  2  0  0  0
  5  6  1  0  0  0
  6  7  2  0  0  0
  7  8  1  0  0  0
 13 15  1  0  0  0
M  END
> <minimizedAffinity>
-5.37526

$$$$
