2XHM_K26_A_1615


 44 45  0  0  0  0  0  0  0  0999 V2000
   -9.8408   23.0729  -13.3213 C   0  0  0  0  0  0  0  0  0  0  0  0
  -11.4491   23.7551  -11.6416 N   0  0  0  0  0  0  0  0  0  0  0  0
  -10.8162   22.7179  -12.1960 C   0  0  0  0  0  0  0  0  0  0  0  0
  -10.9389   21.5451  -11.8401 O   0  0  0  0  0  0  0  0  0  0  0  0
  -11.3223   24.6513  -12.0289 H   0  0  0  0  0  0  0  0  0  0  0  0
  -12.3300   23.6046  -10.4714 C   0  0  0  0  0  0  0  0  0  0  0  0
  -14.0094   23.0425  -10.9813 P   0  0  0  0  0  0  0  0  0  0  0  0
  -14.1602   23.4540  -12.5025 O   0  0  0  0  0  0  0  0  0  0  0  0
  -13.9032   21.4164  -10.9055 O   0  0  0  0  0  0  0  0  0  0  0  0
  -15.0983   23.6027  -10.1370 O   0  0  0  0  0  0  0  0  0  0  0  0
  -13.4323   23.0690  -13.0152 H   0  0  0  0  0  0  0  0  0  0  0  0
  -13.1785   21.1128  -11.4744 H   0  0  0  0  0  0  0  0  0  0  0  0
  -12.3643   24.9587   -9.7258 C   0  0  0  0  0  0  0  0  0  0  0  0
  -10.2547   25.3272   -8.3765 C   0  0  0  0  0  0  0  0  0  0  0  0
   -8.9727   25.8439   -8.2090 C   0  0  0  0  0  0  0  0  0  0  0  0
   -8.3836   26.5887   -9.2308 C   0  0  0  0  0  0  0  0  0  0  0  0
   -7.1308   27.0887   -9.0509 O   0  0  0  0  0  0  0  0  0  0  0  0
   -9.0727   26.8124  -10.4270 C   0  0  0  0  0  0  0  0  0  0  0  0
  -10.3586   26.2952  -10.5865 C   0  0  0  0  0  0  0  0  0  0  0  0
  -10.9556   25.5508   -9.5595 C   0  0  0  0  0  0  0  0  0  0  0  0
   -6.6758   26.9344   -8.2465 H   0  0  0  0  0  0  0  0  0  0  0  0
   -8.4588   22.9222  -12.8218 N   0  0  0  0  0  0  0  0  0  0  0  0
   -7.5494   23.9051  -12.8124 C   0  0  0  0  0  0  0  0  0  0  0  0
   -7.7414   25.0437  -13.2412 O   0  0  0  0  0  0  0  0  0  0  0  0
   -8.1887   22.0420  -12.4733 H   0  0  0  0  0  0  0  0  0  0  0  0
   -6.1636   23.4884  -12.2894 C   0  0  0  0  0  0  0  0  0  0  0  0
   -5.2169   23.6734  -13.4071 N   0  0  0  0  0  0  0  0  0  0  0  0
   -4.9674   22.7073  -14.2934 C   0  0  0  0  0  0  0  0  0  0  0  0
   -3.9958   23.0817  -15.4147 C   0  0  0  0  0  0  0  0  0  0  0  0
   -5.4407   21.5741  -14.2334 O   0  0  0  0  0  0  0  0  0  0  0  0
   -4.7546   24.5374  -13.5017 H   0  0  0  0  0  0  0  0  0  0  0  0
   -5.7422   24.2670  -11.0373 C   0  0  0  0  0  0  0  0  0  0  0  0
   -6.3908   23.6484   -9.7929 C   0  0  0  0  0  0  0  0  0  0  0  0
   -4.2123   24.2789  -10.8863 C   0  0  0  0  0  0  0  0  0  0  0  0
   -3.7370   25.2311   -9.7895 C   0  0  0  0  0  0  0  0  0  0  0  0
  -10.0341   22.1908  -14.5479 C   0  0  0  0  0  0  0  0  0  0  0  0
   -9.6713   23.0002  -15.8033 C   0  0  0  0  0  0  0  0  0  0  0  0
  -10.5854   23.9083  -16.3331 C   0  0  0  0  0  0  0  0  0  0  0  0
  -10.2543   24.6587  -17.4645 C   0  0  0  0  0  0  0  0  0  0  0  0
   -9.0054   24.5031  -18.0677 C   0  0  0  0  0  0  0  0  0  0  0  0
   -8.6888   25.2309  -19.1820 O   0  0  0  0  0  0  0  0  0  0  0  0
   -8.0891   23.5981  -17.5326 C   0  0  0  0  0  0  0  0  0  0  0  0
   -8.4178   22.8504  -16.3992 C   0  0  0  0  0  0  0  0  0  0  0  0
   -9.3085   25.8375  -19.5370 H   0  0  0  0  0  0  0  0  0  0  0  0
 14 15  1  0  0  0
 14 20  2  0  0  0
 15 16  2  0  0  0
 16 17  1  0  0  0
 16 18  1  0  0  0
 18 19  2  0  0  0
 19 20  1  0  0  0
 20 13  1  0  0  0
 13  6  1  0  0  0
  6  7  1  0  0  0
  6  2  1  0  0  0
  7  8  1  0  0  0
  7  9  1  0  0  0
  7 10  2  0  0  0
  2  3  1  0  0  0
  3  4  2  0  0  0
  3  1  1  0  0  0
  1 22  1  0  0  0
  1 36  1  0  0  0
 22 23  1  0  0  0
 23 24  2  0  0  0
 23 26  1  0  0  0
 26 32  1  0  0  0
 26 27  1  0  0  0
 32 33  1  0  0  0
 32 34  1  0  0  0
 34 35  1  0  0  0
 27 28  1  0  0  0
 28 29  1  0  0  0
 28 30  2  0  0  0
 36 37  1  0  0  0
 37 38  1  0  0  0
 37 43  2  0  0  0
 38 39  2  0  0  0
 39 40  1  0  0  0
 40 41  1  0  0  0
 40 42  2  0  0  0
 42 43  1  0  0  0
 17 21  1  0  0  0
  8 11  1  0  0  0
  9 12  1  0  0  0
  2  5  1  0  0  0
 22 25  1  0  0  0
 27 31  1  0  0  0
 41 44  1  0  0  0
M  END
> <minimizedAffinity>
-9.98867

$$$$
2XHM_K26_A_1615


 44 45  0  0  0  0  0  0  0  0999 V2000
   -9.5169   23.2820  -13.3099 C   0  0  0  0  0  0  0  0  0  0  0  0
  -11.2422   23.9641  -11.7506 N   0  0  0  0  0  0  0  0  0  0  0  0
  -10.4779   22.9504  -12.1653 C   0  0  0  0  0  0  0  0  0  0  0  0
  -10.4753   21.8218  -11.6719 O   0  0  0  0  0  0  0  0  0  0  0  0
  -11.2080   24.8168  -12.2415 H   0  0  0  0  0  0  0  0  0  0  0  0
  -12.1343   23.8506  -10.5847 C   0  0  0  0  0  0  0  0  0  0  0  0
  -13.7546   23.1164  -11.0664 P   0  0  0  0  0  0  0  0  0  0  0  0
  -13.9317   23.4318  -12.6076 O   0  0  0  0  0  0  0  0  0  0  0  0
  -13.5062   21.5122  -10.9039 O   0  0  0  0  0  0  0  0  0  0  0  0
  -14.8938   23.6223  -10.2547 O   0  0  0  0  0  0  0  0  0  0  0  0
  -13.1696   23.0859  -13.0980 H   0  0  0  0  0  0  0  0  0  0  0  0
  -12.7542   21.2440  -11.4547 H   0  0  0  0  0  0  0  0  0  0  0  0
  -12.2877   25.2589   -9.9655 C   0  0  0  0  0  0  0  0  0  0  0  0
  -10.2906   26.4702  -10.9409 C   0  0  0  0  0  0  0  0  0  0  0  0
   -9.0658   27.1217  -10.8236 C   0  0  0  0  0  0  0  0  0  0  0  0
   -8.4737   27.2699   -9.5692 C   0  0  0  0  0  0  0  0  0  0  0  0
   -7.2754   27.9073   -9.4714 O   0  0  0  0  0  0  0  0  0  0  0  0
   -9.1094   26.7732   -8.4268 C   0  0  0  0  0  0  0  0  0  0  0  0
  -10.3346   26.1178   -8.5522 C   0  0  0  0  0  0  0  0  0  0  0  0
  -10.9297   25.9624   -9.8119 C   0  0  0  0  0  0  0  0  0  0  0  0
   -6.8560   28.2372  -10.2417 H   0  0  0  0  0  0  0  0  0  0  0  0
   -8.1302   23.2145  -12.8051 N   0  0  0  0  0  0  0  0  0  0  0  0
   -7.1897   24.1329  -13.0603 C   0  0  0  0  0  0  0  0  0  0  0  0
   -7.3539   25.1291  -13.7658 O   0  0  0  0  0  0  0  0  0  0  0  0
   -7.8814   22.4443  -12.2447 H   0  0  0  0  0  0  0  0  0  0  0  0
   -5.8073   23.8144  -12.4642 C   0  0  0  0  0  0  0  0  0  0  0  0
   -5.9735   23.7968  -10.9973 N   0  0  0  0  0  0  0  0  0  0  0  0
   -5.7777   24.8834  -10.2477 C   0  0  0  0  0  0  0  0  0  0  0  0
   -6.0380   24.7024   -8.7507 C   0  0  0  0  0  0  0  0  0  0  0  0
   -5.3879   25.9645  -10.6847 O   0  0  0  0  0  0  0  0  0  0  0  0
   -6.2373   22.9563  -10.5578 H   0  0  0  0  0  0  0  0  0  0  0  0
   -5.2184   22.5025  -12.9971 C   0  0  0  0  0  0  0  0  0  0  0  0
   -5.3026   22.4744  -14.5281 C   0  0  0  0  0  0  0  0  0  0  0  0
   -3.7593   22.3309  -12.5440 C   0  0  0  0  0  0  0  0  0  0  0  0
   -2.9749   23.6420  -12.5781 C   0  0  0  0  0  0  0  0  0  0  0  0
   -9.6738   22.3270  -14.4860 C   0  0  0  0  0  0  0  0  0  0  0  0
   -9.4856   23.1141  -15.7928 C   0  0  0  0  0  0  0  0  0  0  0  0
  -10.4884   23.9727  -16.2378 C   0  0  0  0  0  0  0  0  0  0  0  0
  -10.3155   24.7030  -17.4166 C   0  0  0  0  0  0  0  0  0  0  0  0
   -9.1362   24.5770  -18.1524 C   0  0  0  0  0  0  0  0  0  0  0  0
   -8.9749   25.2848  -19.3119 O   0  0  0  0  0  0  0  0  0  0  0  0
   -8.1308   23.7217  -17.7025 C   0  0  0  0  0  0  0  0  0  0  0  0
   -8.3012   22.9942  -16.5221 C   0  0  0  0  0  0  0  0  0  0  0  0
   -9.6539   25.8579  -19.6093 H   0  0  0  0  0  0  0  0  0  0  0  0
 14 15  1  0  0  0
 14 20  2  0  0  0
 15 16  2  0  0  0
 16 17  1  0  0  0
 16 18  1  0  0  0
 18 19  2  0  0  0
 19 20  1  0  0  0
 20 13  1  0  0  0
 13  6  1  0  0  0
  6  7  1  0  0  0
  6  2  1  0  0  0
  7  8  1  0  0  0
  7  9  1  0  0  0
  7 10  2  0  0  0
  2  3  1  0  0  0
  3  4  2  0  0  0
  3  1  1  0  0  0
  1 22  1  0  0  0
  1 36  1  0  0  0
 22 23  1  0  0  0
 23 24  2  0  0  0
 23 26  1  0  0  0
 26 32  1  0  0  0
 26 27  1  0  0  0
 32 33  1  0  0  0
 32 34  1  0  0  0
 34 35  1  0  0  0
 27 28  1  0  0  0
 28 29  1  0  0  0
 28 30  2  0  0  0
 36 37  1  0  0  0
 37 38  1  0  0  0
 37 43  2  0  0  0
 38 39  2  0  0  0
 39 40  1  0  0  0
 40 41  1  0  0  0
 40 42  2  0  0  0
 42 43  1  0  0  0
 17 21  1  0  0  0
  8 11  1  0  0  0
  9 12  1  0  0  0
  2  5  1  0  0  0
 22 25  1  0  0  0
 27 31  1  0  0  0
 41 44  1  0  0  0
M  END
> <minimizedAffinity>
-9.41923

$$$$
2XHM_K26_A_1615


 44 45  0  0  0  0  0  0  0  0999 V2000
   -9.1168   24.9690   -9.3640 C   0  0  0  0  0  0  0  0  0  0  0  0
  -10.6494   23.6281  -10.6780 N   0  0  0  0  0  0  0  0  0  0  0  0
  -10.2905   24.8698  -10.3420 C   0  0  0  0  0  0  0  0  0  0  0  0
  -10.8041   25.8969  -10.7874 O   0  0  0  0  0  0  0  0  0  0  0  0
  -10.2108   22.8690  -10.2301 H   0  0  0  0  0  0  0  0  0  0  0  0
  -11.6782   23.3550  -11.6954 C   0  0  0  0  0  0  0  0  0  0  0  0
  -13.3160   23.0493  -10.9077 P   0  0  0  0  0  0  0  0  0  0  0  0
  -14.3946   23.3093  -12.0369 O   0  0  0  0  0  0  0  0  0  0  0  0
  -13.2909   21.4490  -10.5915 O   0  0  0  0  0  0  0  0  0  0  0  0
  -13.5532   23.8856   -9.7007 O   0  0  0  0  0  0  0  0  0  0  0  0
  -14.2032   22.7458  -12.8028 H   0  0  0  0  0  0  0  0  0  0  0  0
  -13.1332   20.9594  -11.4139 H   0  0  0  0  0  0  0  0  0  0  0  0
  -11.2002   22.1538  -12.5434 C   0  0  0  0  0  0  0  0  0  0  0  0
   -9.7287   21.8070  -14.5736 C   0  0  0  0  0  0  0  0  0  0  0  0
   -9.2348   22.1888  -15.8181 C   0  0  0  0  0  0  0  0  0  0  0  0
   -9.6744   23.3743  -16.4074 C   0  0  0  0  0  0  0  0  0  0  0  0
   -9.1806   23.7346  -17.6232 O   0  0  0  0  0  0  0  0  0  0  0  0
  -10.6159   24.1779  -15.7565 C   0  0  0  0  0  0  0  0  0  0  0  0
  -11.1034   23.7914  -14.5078 C   0  0  0  0  0  0  0  0  0  0  0  0
  -10.6597   22.6034  -13.9103 C   0  0  0  0  0  0  0  0  0  0  0  0
   -8.5501   23.1906  -18.0527 H   0  0  0  0  0  0  0  0  0  0  0  0
   -7.8528   24.9179  -10.1269 N   0  0  0  0  0  0  0  0  0  0  0  0
   -7.1400   23.8028  -10.3305 C   0  0  0  0  0  0  0  0  0  0  0  0
   -7.4325   22.6914   -9.8874 O   0  0  0  0  0  0  0  0  0  0  0  0
   -7.5124   25.7583  -10.5104 H   0  0  0  0  0  0  0  0  0  0  0  0
   -5.8324   24.0145  -11.1136 C   0  0  0  0  0  0  0  0  0  0  0  0
   -4.8097   24.4168  -10.1276 N   0  0  0  0  0  0  0  0  0  0  0  0
   -4.5882   25.6953   -9.8162 C   0  0  0  0  0  0  0  0  0  0  0  0
   -3.5251   25.9333   -8.7416 C   0  0  0  0  0  0  0  0  0  0  0  0
   -5.1549   26.6462  -10.3514 O   0  0  0  0  0  0  0  0  0  0  0  0
   -4.2738   23.7191   -9.6856 H   0  0  0  0  0  0  0  0  0  0  0  0
   -5.4116   22.7756  -11.9134 C   0  0  0  0  0  0  0  0  0  0  0  0
   -5.9171   22.8875  -13.3570 C   0  0  0  0  0  0  0  0  0  0  0  0
   -3.8837   22.6051  -11.8993 C   0  0  0  0  0  0  0  0  0  0  0  0
   -3.2265   23.0850  -13.1929 C   0  0  0  0  0  0  0  0  0  0  0  0
   -9.1605   26.2512   -8.5432 C   0  0  0  0  0  0  0  0  0  0  0  0
   -7.9763   26.2536   -7.5632 C   0  0  0  0  0  0  0  0  0  0  0  0
   -7.7295   25.1362   -6.7684 C   0  0  0  0  0  0  0  0  0  0  0  0
   -6.6445   25.1269   -5.8877 C   0  0  0  0  0  0  0  0  0  0  0  0
   -5.8021   26.2363   -5.8019 C   0  0  0  0  0  0  0  0  0  0  0  0
   -4.7476   26.2282   -4.9304 O   0  0  0  0  0  0  0  0  0  0  0  0
   -6.0469   27.3516   -6.6024 C   0  0  0  0  0  0  0  0  0  0  0  0
   -7.1290   27.3604   -7.4860 C   0  0  0  0  0  0  0  0  0  0  0  0
   -4.5880   25.4760   -4.3950 H   0  0  0  0  0  0  0  0  0  0  0  0
 14 15  1  0  0  0
 14 20  2  0  0  0
 15 16  2  0  0  0
 16 17  1  0  0  0
 16 18  1  0  0  0
 18 19  2  0  0  0
 19 20  1  0  0  0
 20 13  1  0  0  0
 13  6  1  0  0  0
  6  7  1  0  0  0
  6  2  1  0  0  0
  7  8  1  0  0  0
  7  9  1  0  0  0
  7 10  2  0  0  0
  2  3  1  0  0  0
  3  4  2  0  0  0
  3  1  1  0  0  0
  1 22  1  0  0  0
  1 36  1  0  0  0
 22 23  1  0  0  0
 23 24  2  0  0  0
 23 26  1  0  0  0
 26 32  1  0  0  0
 26 27  1  0  0  0
 32 33  1  0  0  0
 32 34  1  0  0  0
 34 35  1  0  0  0
 27 28  1  0  0  0
 28 29  1  0  0  0
 28 30  2  0  0  0
 36 37  1  0  0  0
 37 38  1  0  0  0
 37 43  2  0  0  0
 38 39  2  0  0  0
 39 40  1  0  0  0
 40 41  1  0  0  0
 40 42  2  0  0  0
 42 43  1  0  0  0
 17 21  1  0  0  0
  8 11  1  0  0  0
  9 12  1  0  0  0
  2  5  1  0  0  0
 22 25  1  0  0  0
 27 31  1  0  0  0
 41 44  1  0  0  0
M  END
> <minimizedAffinity>
-9.07082

$$$$
2XHM_K26_A_1615


 44 45  0  0  0  0  0  0  0  0999 V2000
   -9.0273   24.7692   -9.3993 C   0  0  0  0  0  0  0  0  0  0  0  0
  -10.7659   23.5510  -10.5682 N   0  0  0  0  0  0  0  0  0  0  0  0
  -10.0849   24.6980  -10.5038 C   0  0  0  0  0  0  0  0  0  0  0  0
  -10.2272   25.6467  -11.2765 O   0  0  0  0  0  0  0  0  0  0  0  0
  -10.6153   22.8693   -9.8741 H   0  0  0  0  0  0  0  0  0  0  0  0
  -11.7342   23.2706  -11.6415 C   0  0  0  0  0  0  0  0  0  0  0  0
  -13.3961   22.8875  -10.9432 P   0  0  0  0  0  0  0  0  0  0  0  0
  -13.3953   21.3313  -10.6526 O   0  0  0  0  0  0  0  0  0  0  0  0
  -13.3941   23.6691   -9.5112 O   0  0  0  0  0  0  0  0  0  0  0  0
  -14.5159   23.2921  -11.8347 O   0  0  0  0  0  0  0  0  0  0  0  0
  -12.6517   21.1116  -10.0698 H   0  0  0  0  0  0  0  0  0  0  0  0
  -12.6441   23.3636   -8.9772 H   0  0  0  0  0  0  0  0  0  0  0  0
  -11.1734   22.1100  -12.4954 C   0  0  0  0  0  0  0  0  0  0  0  0
  -11.1080   23.8366  -14.3452 C   0  0  0  0  0  0  0  0  0  0  0  0
  -10.6635   24.3064  -15.5782 C   0  0  0  0  0  0  0  0  0  0  0  0
   -9.7822   23.5380  -16.3390 C   0  0  0  0  0  0  0  0  0  0  0  0
   -9.3586   24.0101  -17.5430 O   0  0  0  0  0  0  0  0  0  0  0  0
   -9.3366   22.3001  -15.8647 C   0  0  0  0  0  0  0  0  0  0  0  0
   -9.7893   21.8337  -14.6302 C   0  0  0  0  0  0  0  0  0  0  0  0
  -10.6792   22.6009  -13.8656 C   0  0  0  0  0  0  0  0  0  0  0  0
   -9.6619   24.8405  -17.8536 H   0  0  0  0  0  0  0  0  0  0  0  0
   -7.6864   24.7486  -10.0188 N   0  0  0  0  0  0  0  0  0  0  0  0
   -6.9424   23.6454  -10.1689 C   0  0  0  0  0  0  0  0  0  0  0  0
   -7.2688   22.5208   -9.7874 O   0  0  0  0  0  0  0  0  0  0  0  0
   -7.3157   25.6014  -10.3423 H   0  0  0  0  0  0  0  0  0  0  0  0
   -5.5590   23.8885  -10.7975 C   0  0  0  0  0  0  0  0  0  0  0  0
   -5.6877   23.5781  -12.2352 N   0  0  0  0  0  0  0  0  0  0  0  0
   -4.9753   22.6127  -12.8194 C   0  0  0  0  0  0  0  0  0  0  0  0
   -5.2652   22.3924  -14.3057 C   0  0  0  0  0  0  0  0  0  0  0  0
   -4.1163   21.9440  -12.2478 O   0  0  0  0  0  0  0  0  0  0  0  0
   -6.3195   24.1002  -12.7805 H   0  0  0  0  0  0  0  0  0  0  0  0
   -5.0378   25.3102  -10.5553 C   0  0  0  0  0  0  0  0  0  0  0  0
   -4.2808   25.3707   -9.2230 C   0  0  0  0  0  0  0  0  0  0  0  0
   -4.1231   25.7636  -11.7048 C   0  0  0  0  0  0  0  0  0  0  0  0
   -3.5374   27.1565  -11.4759 C   0  0  0  0  0  0  0  0  0  0  0  0
   -9.1711   26.0231   -8.5468 C   0  0  0  0  0  0  0  0  0  0  0  0
   -7.9862   26.0980   -7.5705 C   0  0  0  0  0  0  0  0  0  0  0  0
   -7.1733   27.2293   -7.5494 C   0  0  0  0  0  0  0  0  0  0  0  0
   -6.1047   27.3094   -6.6524 C   0  0  0  0  0  0  0  0  0  0  0  0
   -5.8483   26.2571   -5.7722 C   0  0  0  0  0  0  0  0  0  0  0  0
   -4.7945   26.3340   -4.9032 O   0  0  0  0  0  0  0  0  0  0  0  0
   -6.6666   25.1280   -5.7903 C   0  0  0  0  0  0  0  0  0  0  0  0
   -7.7375   25.0487   -6.6839 C   0  0  0  0  0  0  0  0  0  0  0  0
   -4.2481   27.0952   -4.8956 H   0  0  0  0  0  0  0  0  0  0  0  0
 14 15  1  0  0  0
 14 20  2  0  0  0
 15 16  2  0  0  0
 16 17  1  0  0  0
 16 18  1  0  0  0
 18 19  2  0  0  0
 19 20  1  0  0  0
 20 13  1  0  0  0
 13  6  1  0  0  0
  6  7  1  0  0  0
  6  2  1  0  0  0
  7  8  1  0  0  0
  7  9  1  0  0  0
  7 10  2  0  0  0
  2  3  1  0  0  0
  3  4  2  0  0  0
  3  1  1  0  0  0
  1 22  1  0  0  0
  1 36  1  0  0  0
 22 23  1  0  0  0
 23 24  2  0  0  0
 23 26  1  0  0  0
 26 32  1  0  0  0
 26 27  1  0  0  0
 32 33  1  0  0  0
 32 34  1  0  0  0
 34 35  1  0  0  0
 27 28  1  0  0  0
 28 29  1  0  0  0
 28 30  2  0  0  0
 36 37  1  0  0  0
 37 38  1  0  0  0
 37 43  2  0  0  0
 38 39  2  0  0  0
 39 40  1  0  0  0
 40 41  1  0  0  0
 40 42  2  0  0  0
 42 43  1  0  0  0
 17 21  1  0  0  0
  8 11  1  0  0  0
  9 12  1  0  0  0
  2  5  1  0  0  0
 22 25  1  0  0  0
 27 31  1  0  0  0
 41 44  1  0  0  0
M  END
> <minimizedAffinity>
-9.04316

$$$$
2XHM_K26_A_1615


 44 45  0  0  0  0  0  0  0  0999 V2000
   -7.7050   25.1555  -11.8634 C   0  0  0  0  0  0  0  0  0  0  0  0
  -10.0126   24.5408  -11.4502 N   0  0  0  0  0  0  0  0  0  0  0  0
   -9.1966   25.4988  -11.8974 C   0  0  0  0  0  0  0  0  0  0  0  0
   -9.5647   26.5821  -12.3537 O   0  0  0  0  0  0  0  0  0  0  0  0
   -9.6203   23.7273  -11.0581 H   0  0  0  0  0  0  0  0  0  0  0  0
  -11.4784   24.6590  -11.5230 C   0  0  0  0  0  0  0  0  0  0  0  0
  -12.2136   24.7636   -9.8363 P   0  0  0  0  0  0  0  0  0  0  0  0
  -13.6282   25.4494  -10.0225 O   0  0  0  0  0  0  0  0  0  0  0  0
  -12.4580   23.2020   -9.4327 O   0  0  0  0  0  0  0  0  0  0  0  0
  -11.3570   25.4968   -8.8661 O   0  0  0  0  0  0  0  0  0  0  0  0
  -14.1525   24.9409  -10.6609 H   0  0  0  0  0  0  0  0  0  0  0  0
  -13.0209   22.7797  -10.1003 H   0  0  0  0  0  0  0  0  0  0  0  0
  -12.0131   23.4492  -12.3235 C   0  0  0  0  0  0  0  0  0  0  0  0
  -11.2372   24.1354  -14.6330 C   0  0  0  0  0  0  0  0  0  0  0  0
  -10.4906   23.9394  -15.7918 C   0  0  0  0  0  0  0  0  0  0  0  0
   -9.6887   22.8051  -15.9194 C   0  0  0  0  0  0  0  0  0  0  0  0
   -8.9666   22.6269  -17.0590 O   0  0  0  0  0  0  0  0  0  0  0  0
   -9.6252   21.8670  -14.8841 C   0  0  0  0  0  0  0  0  0  0  0  0
  -10.3792   22.0677  -13.7276 C   0  0  0  0  0  0  0  0  0  0  0  0
  -11.1902   23.2037  -13.5984 C   0  0  0  0  0  0  0  0  0  0  0  0
   -9.0147   23.2602  -17.7479 H   0  0  0  0  0  0  0  0  0  0  0  0
   -7.1937   25.3791  -10.4956 N   0  0  0  0  0  0  0  0  0  0  0  0
   -6.6288   26.5195  -10.0792 C   0  0  0  0  0  0  0  0  0  0  0  0
   -6.4411   27.5097  -10.7872 O   0  0  0  0  0  0  0  0  0  0  0  0
   -7.2735   24.6417   -9.8482 H   0  0  0  0  0  0  0  0  0  0  0  0
   -6.1292   26.4908   -8.6241 C   0  0  0  0  0  0  0  0  0  0  0  0
   -6.7566   25.3170   -7.9849 N   0  0  0  0  0  0  0  0  0  0  0  0
   -7.6215   25.4361   -6.9758 C   0  0  0  0  0  0  0  0  0  0  0  0
   -8.2127   24.1219   -6.4609 C   0  0  0  0  0  0  0  0  0  0  0  0
   -7.9270   26.5040   -6.4484 O   0  0  0  0  0  0  0  0  0  0  0  0
   -6.5294   24.4173   -8.3139 H   0  0  0  0  0  0  0  0  0  0  0  0
   -4.5995   26.4587   -8.5216 C   0  0  0  0  0  0  0  0  0  0  0  0
   -4.1754   26.3341   -7.0531 C   0  0  0  0  0  0  0  0  0  0  0  0
   -4.0179   25.2951   -9.3410 C   0  0  0  0  0  0  0  0  0  0  0  0
   -3.0310   25.7639  -10.4096 C   0  0  0  0  0  0  0  0  0  0  0  0
   -7.4386   23.7130  -12.2733 C   0  0  0  0  0  0  0  0  0  0  0  0
   -5.9514   23.5662  -12.6333 C   0  0  0  0  0  0  0  0  0  0  0  0
   -5.3983   24.3560  -13.6389 C   0  0  0  0  0  0  0  0  0  0  0  0
   -4.0431   24.2381  -13.9588 C   0  0  0  0  0  0  0  0  0  0  0  0
   -3.2371   23.3298  -13.2709 C   0  0  0  0  0  0  0  0  0  0  0  0
   -1.9134   23.2087  -13.5944 O   0  0  0  0  0  0  0  0  0  0  0  0
   -3.7909   22.5441  -12.2605 C   0  0  0  0  0  0  0  0  0  0  0  0
   -5.1447   22.6641  -11.9373 C   0  0  0  0  0  0  0  0  0  0  0  0
   -1.5469   23.7393  -14.2742 H   0  0  0  0  0  0  0  0  0  0  0  0
 14 15  1  0  0  0
 14 20  2  0  0  0
 15 16  2  0  0  0
 16 17  1  0  0  0
 16 18  1  0  0  0
 18 19  2  0  0  0
 19 20  1  0  0  0
 20 13  1  0  0  0
 13  6  1  0  0  0
  6  7  1  0  0  0
  6  2  1  0  0  0
  7  8  1  0  0  0
  7  9  1  0  0  0
  7 10  2  0  0  0
  2  3  1  0  0  0
  3  4  2  0  0  0
  3  1  1  0  0  0
  1 22  1  0  0  0
  1 36  1  0  0  0
 22 23  1  0  0  0
 23 24  2  0  0  0
 23 26  1  0  0  0
 26 32  1  0  0  0
 26 27  1  0  0  0
 32 33  1  0  0  0
 32 34  1  0  0  0
 34 35  1  0  0  0
 27 28  1  0  0  0
 28 29  1  0  0  0
 28 30  2  0  0  0
 36 37  1  0  0  0
 37 38  1  0  0  0
 37 43  2  0  0  0
 38 39  2  0  0  0
 39 40  1  0  0  0
 40 41  1  0  0  0
 40 42  2  0  0  0
 42 43  1  0  0  0
 17 21  1  0  0  0
  8 11  1  0  0  0
  9 12  1  0  0  0
  2  5  1  0  0  0
 22 25  1  0  0  0
 27 31  1  0  0  0
 41 44  1  0  0  0
M  END
> <minimizedAffinity>
-8.94528

$$$$
2XHM_K26_A_1615


 44 45  0  0  0  0  0  0  0  0999 V2000
   -7.7585   25.1810  -13.0507 C   0  0  0  0  0  0  0  0  0  0  0  0
   -5.4382   24.4862  -12.9688 N   0  0  0  0  0  0  0  0  0  0  0  0
   -6.2820   25.5100  -12.8157 C   0  0  0  0  0  0  0  0  0  0  0  0
   -5.9559   26.6468  -12.4715 O   0  0  0  0  0  0  0  0  0  0  0  0
   -5.7889   23.6261  -13.2951 H   0  0  0  0  0  0  0  0  0  0  0  0
   -4.0016   24.5992  -12.6665 C   0  0  0  0  0  0  0  0  0  0  0  0
   -2.9885   23.8019  -13.9834 P   0  0  0  0  0  0  0  0  0  0  0  0
   -1.4846   24.1734  -13.6572 O   0  0  0  0  0  0  0  0  0  0  0  0
   -3.1881   22.2076  -13.7010 O   0  0  0  0  0  0  0  0  0  0  0  0
   -3.3832   24.2116  -15.3578 O   0  0  0  0  0  0  0  0  0  0  0  0
   -1.2699   23.8896  -12.7549 H   0  0  0  0  0  0  0  0  0  0  0  0
   -2.9150   22.0034  -12.7929 H   0  0  0  0  0  0  0  0  0  0  0  0
   -3.7582   23.9699  -11.2754 C   0  0  0  0  0  0  0  0  0  0  0  0
   -3.0504   26.0049   -9.9469 C   0  0  0  0  0  0  0  0  0  0  0  0
   -3.2385   26.9447   -8.9370 C   0  0  0  0  0  0  0  0  0  0  0  0
   -4.3657   26.8705   -8.1186 C   0  0  0  0  0  0  0  0  0  0  0  0
   -4.5341   27.7952   -7.1345 O   0  0  0  0  0  0  0  0  0  0  0  0
   -5.3126   25.8599   -8.3133 C   0  0  0  0  0  0  0  0  0  0  0  0
   -5.1157   24.9191   -9.3245 C   0  0  0  0  0  0  0  0  0  0  0  0
   -3.9813   24.9876  -10.1452 C   0  0  0  0  0  0  0  0  0  0  0  0
   -3.8951   28.4692   -7.0106 H   0  0  0  0  0  0  0  0  0  0  0  0
   -7.9109   24.6041  -14.4021 N   0  0  0  0  0  0  0  0  0  0  0  0
   -8.4524   25.2519  -15.4414 C   0  0  0  0  0  0  0  0  0  0  0  0
   -8.9132   26.3932  -15.3949 O   0  0  0  0  0  0  0  0  0  0  0  0
   -7.5938   23.6836  -14.5481 H   0  0  0  0  0  0  0  0  0  0  0  0
   -8.5466   24.4212  -16.7333 C   0  0  0  0  0  0  0  0  0  0  0  0
   -7.2825   23.6662  -16.8433 N   0  0  0  0  0  0  0  0  0  0  0  0
   -6.7386   23.3608  -18.0230 C   0  0  0  0  0  0  0  0  0  0  0  0
   -5.4039   22.6154  -17.9558 C   0  0  0  0  0  0  0  0  0  0  0  0
   -7.2543   23.6156  -19.1097 O   0  0  0  0  0  0  0  0  0  0  0  0
   -6.8261   23.3789  -16.0197 H   0  0  0  0  0  0  0  0  0  0  0  0
   -9.7748   23.5034  -16.7614 C   0  0  0  0  0  0  0  0  0  0  0  0
   -9.5474   22.2959  -15.8438 C   0  0  0  0  0  0  0  0  0  0  0  0
  -11.0396   24.2643  -16.3312 C   0  0  0  0  0  0  0  0  0  0  0  0
  -11.5395   25.2291  -17.4058 C   0  0  0  0  0  0  0  0  0  0  0  0
   -8.2994   24.2003  -12.0185 C   0  0  0  0  0  0  0  0  0  0  0  0
   -9.8173   24.0596  -12.2152 C   0  0  0  0  0  0  0  0  0  0  0  0
  -10.6057   25.1969  -12.3773 C   0  0  0  0  0  0  0  0  0  0  0  0
  -11.9839   25.0738  -12.5730 C   0  0  0  0  0  0  0  0  0  0  0  0
  -12.5765   23.8107  -12.6090 C   0  0  0  0  0  0  0  0  0  0  0  0
  -13.9276   23.6943  -12.7893 O   0  0  0  0  0  0  0  0  0  0  0  0
  -11.7852   22.6731  -12.4527 C   0  0  0  0  0  0  0  0  0  0  0  0
  -10.4068   22.7949  -12.2610 C   0  0  0  0  0  0  0  0  0  0  0  0
  -14.4542   24.4623  -12.8938 H   0  0  0  0  0  0  0  0  0  0  0  0
 14 15  1  0  0  0
 14 20  2  0  0  0
 15 16  2  0  0  0
 16 17  1  0  0  0
 16 18  1  0  0  0
 18 19  2  0  0  0
 19 20  1  0  0  0
 20 13  1  0  0  0
 13  6  1  0  0  0
  6  7  1  0  0  0
  6  2  1  0  0  0
  7  8  1  0  0  0
  7  9  1  0  0  0
  7 10  2  0  0  0
  2  3  1  0  0  0
  3  4  2  0  0  0
  3  1  1  0  0  0
  1 22  1  0  0  0
  1 36  1  0  0  0
 22 23  1  0  0  0
 23 24  2  0  0  0
 23 26  1  0  0  0
 26 32  1  0  0  0
 26 27  1  0  0  0
 32 33  1  0  0  0
 32 34  1  0  0  0
 34 35  1  0  0  0
 27 28  1  0  0  0
 28 29  1  0  0  0
 28 30  2  0  0  0
 36 37  1  0  0  0
 37 38  1  0  0  0
 37 43  2  0  0  0
 38 39  2  0  0  0
 39 40  1  0  0  0
 40 41  1  0  0  0
 40 42  2  0  0  0
 42 43  1  0  0  0
 17 21  1  0  0  0
  8 11  1  0  0  0
  9 12  1  0  0  0
  2  5  1  0  0  0
 22 25  1  0  0  0
 27 31  1  0  0  0
 41 44  1  0  0  0
M  END
> <minimizedAffinity>
-8.94000

$$$$
2XHM_K26_A_1615


 44 45  0  0  0  0  0  0  0  0999 V2000
   -7.4304   23.6183  -11.0425 C   0  0  0  0  0  0  0  0  0  0  0  0
   -8.6471   25.0413   -9.5036 N   0  0  0  0  0  0  0  0  0  0  0  0
   -7.8605   25.0137  -10.5825 C   0  0  0  0  0  0  0  0  0  0  0  0
   -7.5094   26.0047  -11.2244 O   0  0  0  0  0  0  0  0  0  0  0  0
   -8.8326   24.1988   -9.0291 H   0  0  0  0  0  0  0  0  0  0  0  0
   -9.2465   26.2880   -8.9990 C   0  0  0  0  0  0  0  0  0  0  0  0
   -8.2490   26.9828   -7.6139 P   0  0  0  0  0  0  0  0  0  0  0  0
   -8.0359   25.7912   -6.5937 O   0  0  0  0  0  0  0  0  0  0  0  0
   -6.8120   27.3140   -8.3116 O   0  0  0  0  0  0  0  0  0  0  0  0
   -8.8798   28.1667   -6.9713 O   0  0  0  0  0  0  0  0  0  0  0  0
   -7.6237   25.0425   -7.0525 H   0  0  0  0  0  0  0  0  0  0  0  0
   -6.4528   26.5065   -8.7113 H   0  0  0  0  0  0  0  0  0  0  0  0
  -10.7017   25.9786   -8.5782 C   0  0  0  0  0  0  0  0  0  0  0  0
  -12.2504   24.1997   -9.4969 C   0  0  0  0  0  0  0  0  0  0  0  0
  -12.9949   23.6231  -10.5225 C   0  0  0  0  0  0  0  0  0  0  0  0
  -12.9975   24.2029  -11.7913 C   0  0  0  0  0  0  0  0  0  0  0  0
  -13.7287   23.6261  -12.7836 O   0  0  0  0  0  0  0  0  0  0  0  0
  -12.2610   25.3663  -12.0359 C   0  0  0  0  0  0  0  0  0  0  0  0
  -11.5140   25.9364  -11.0048 C   0  0  0  0  0  0  0  0  0  0  0  0
  -11.5049   25.3533   -9.7300 C   0  0  0  0  0  0  0  0  0  0  0  0
  -14.2194   22.8467  -12.6115 H   0  0  0  0  0  0  0  0  0  0  0  0
   -7.1553   23.6564  -12.4934 N   0  0  0  0  0  0  0  0  0  0  0  0
   -8.0826   23.4709  -13.4414 C   0  0  0  0  0  0  0  0  0  0  0  0
   -9.2688   23.2198  -13.2242 O   0  0  0  0  0  0  0  0  0  0  0  0
   -6.2302   23.8295  -12.7821 H   0  0  0  0  0  0  0  0  0  0  0  0
   -7.5406   23.5075  -14.8811 C   0  0  0  0  0  0  0  0  0  0  0  0
   -8.4875   24.3219  -15.6685 N   0  0  0  0  0  0  0  0  0  0  0  0
   -8.8745   23.9714  -16.8966 C   0  0  0  0  0  0  0  0  0  0  0  0
   -9.8955   24.9033  -17.5529 C   0  0  0  0  0  0  0  0  0  0  0  0
   -8.4441   22.9935  -17.5051 O   0  0  0  0  0  0  0  0  0  0  0  0
   -8.8449   25.1505  -15.2748 H   0  0  0  0  0  0  0  0  0  0  0  0
   -6.1065   24.0443  -14.9626 C   0  0  0  0  0  0  0  0  0  0  0  0
   -5.2936   23.2166  -15.9656 C   0  0  0  0  0  0  0  0  0  0  0  0
   -6.0968   25.5271  -15.3690 C   0  0  0  0  0  0  0  0  0  0  0  0
   -5.6485   26.4453  -14.2326 C   0  0  0  0  0  0  0  0  0  0  0  0
   -6.1910   23.1278  -10.3056 C   0  0  0  0  0  0  0  0  0  0  0  0
   -4.9604   23.3557  -11.1982 C   0  0  0  0  0  0  0  0  0  0  0  0
   -4.5325   22.3500  -12.0623 C   0  0  0  0  0  0  0  0  0  0  0  0
   -3.4243   22.5581  -12.8878 C   0  0  0  0  0  0  0  0  0  0  0  0
   -2.7424   23.7753  -12.8517 C   0  0  0  0  0  0  0  0  0  0  0  0
   -1.6510   23.9715  -13.6529 O   0  0  0  0  0  0  0  0  0  0  0  0
   -3.1756   24.7832  -11.9907 C   0  0  0  0  0  0  0  0  0  0  0  0
   -4.2857   24.5775  -11.1679 C   0  0  0  0  0  0  0  0  0  0  0  0
   -1.3646   23.2907  -14.2294 H   0  0  0  0  0  0  0  0  0  0  0  0
 14 15  1  0  0  0
 14 20  2  0  0  0
 15 16  2  0  0  0
 16 17  1  0  0  0
 16 18  1  0  0  0
 18 19  2  0  0  0
 19 20  1  0  0  0
 20 13  1  0  0  0
 13  6  1  0  0  0
  6  7  1  0  0  0
  6  2  1  0  0  0
  7  8  1  0  0  0
  7  9  1  0  0  0
  7 10  2  0  0  0
  2  3  1  0  0  0
  3  4  2  0  0  0
  3  1  1  0  0  0
  1 22  1  0  0  0
  1 36  1  0  0  0
 22 23  1  0  0  0
 23 24  2  0  0  0
 23 26  1  0  0  0
 26 32  1  0  0  0
 26 27  1  0  0  0
 32 33  1  0  0  0
 32 34  1  0  0  0
 34 35  1  0  0  0
 27 28  1  0  0  0
 28 29  1  0  0  0
 28 30  2  0  0  0
 36 37  1  0  0  0
 37 38  1  0  0  0
 37 43  2  0  0  0
 38 39  2  0  0  0
 39 40  1  0  0  0
 40 41  1  0  0  0
 40 42  2  0  0  0
 42 43  1  0  0  0
 17 21  1  0  0  0
  8 11  1  0  0  0
  9 12  1  0  0  0
  2  5  1  0  0  0
 22 25  1  0  0  0
 27 31  1  0  0  0
 41 44  1  0  0  0
M  END
> <minimizedAffinity>
-8.84549

$$$$
2XHM_K26_A_1615


 44 45  0  0  0  0  0  0  0  0999 V2000
   -8.6629   23.9890  -13.9663 C   0  0  0  0  0  0  0  0  0  0  0  0
   -6.8099   23.4810  -15.4434 N   0  0  0  0  0  0  0  0  0  0  0  0
   -7.6279   24.4393  -15.0005 C   0  0  0  0  0  0  0  0  0  0  0  0
   -7.5721   25.6237  -15.3344 O   0  0  0  0  0  0  0  0  0  0  0  0
   -6.9653   22.5527  -15.1546 H   0  0  0  0  0  0  0  0  0  0  0  0
   -5.6838   23.7646  -16.3486 C   0  0  0  0  0  0  0  0  0  0  0  0
   -6.1870   23.5545  -18.1090 P   0  0  0  0  0  0  0  0  0  0  0  0
   -6.2285   25.0125  -18.7243 O   0  0  0  0  0  0  0  0  0  0  0  0
   -4.9242   22.7620  -18.7713 O   0  0  0  0  0  0  0  0  0  0  0  0
   -7.4817   22.8399  -18.2690 O   0  0  0  0  0  0  0  0  0  0  0  0
   -5.3674   25.4411  -18.5986 H   0  0  0  0  0  0  0  0  0  0  0  0
   -4.1126   23.2756  -18.6349 H   0  0  0  0  0  0  0  0  0  0  0  0
   -4.5134   22.8336  -15.9564 C   0  0  0  0  0  0  0  0  0  0  0  0
   -3.0078   24.4954  -14.7823 C   0  0  0  0  0  0  0  0  0  0  0  0
   -2.3457   24.9783  -13.6567 C   0  0  0  0  0  0  0  0  0  0  0  0
   -2.4572   24.3036  -12.4409 C   0  0  0  0  0  0  0  0  0  0  0  0
   -1.8022   24.7871  -11.3504 O   0  0  0  0  0  0  0  0  0  0  0  0
   -3.2381   23.1473  -12.3456 C   0  0  0  0  0  0  0  0  0  0  0  0
   -3.8955   22.6667  -13.4785 C   0  0  0  0  0  0  0  0  0  0  0  0
   -3.7812   23.3394  -14.7031 C   0  0  0  0  0  0  0  0  0  0  0  0
   -1.2810   25.5624  -11.4226 H   0  0  0  0  0  0  0  0  0  0  0  0
   -8.7911   25.0349  -12.9310 N   0  0  0  0  0  0  0  0  0  0  0  0
   -8.3523   24.9072  -11.6723 C   0  0  0  0  0  0  0  0  0  0  0  0
   -7.8142   23.8981  -11.2150 O   0  0  0  0  0  0  0  0  0  0  0  0
   -9.2276   25.8807  -13.1827 H   0  0  0  0  0  0  0  0  0  0  0  0
   -8.6476   26.1160  -10.7671 C   0  0  0  0  0  0  0  0  0  0  0  0
   -9.1591   27.1868  -11.6455 N   0  0  0  0  0  0  0  0  0  0  0  0
   -8.6090   28.4022  -11.6774 C   0  0  0  0  0  0  0  0  0  0  0  0
   -9.2331   29.3779  -12.6775 C   0  0  0  0  0  0  0  0  0  0  0  0
   -7.6846   28.7627  -10.9512 O   0  0  0  0  0  0  0  0  0  0  0  0
   -9.9311   26.9981  -12.2266 H   0  0  0  0  0  0  0  0  0  0  0  0
   -9.6216   25.7833   -9.6304 C   0  0  0  0  0  0  0  0  0  0  0  0
   -9.3993   26.7406   -8.4531 C   0  0  0  0  0  0  0  0  0  0  0  0
  -11.0789   25.8672  -10.1129 C   0  0  0  0  0  0  0  0  0  0  0  0
  -12.0501   25.1462   -9.1789 C   0  0  0  0  0  0  0  0  0  0  0  0
  -10.0261   23.7291  -14.5940 C   0  0  0  0  0  0  0  0  0  0  0  0
  -10.9819   23.2107  -13.5076 C   0  0  0  0  0  0  0  0  0  0  0  0
  -12.1696   23.8899  -13.2448 C   0  0  0  0  0  0  0  0  0  0  0  0
  -13.0500   23.4136  -12.2696 C   0  0  0  0  0  0  0  0  0  0  0  0
  -12.7441   22.2540  -11.5559 C   0  0  0  0  0  0  0  0  0  0  0  0
  -13.6026   21.7968  -10.5939 O   0  0  0  0  0  0  0  0  0  0  0  0
  -11.5577   21.5718  -11.8242 C   0  0  0  0  0  0  0  0  0  0  0  0
  -10.6789   22.0450  -12.8016 C   0  0  0  0  0  0  0  0  0  0  0  0
  -14.3983   22.2593  -10.4179 H   0  0  0  0  0  0  0  0  0  0  0  0
 14 15  1  0  0  0
 14 20  2  0  0  0
 15 16  2  0  0  0
 16 17  1  0  0  0
 16 18  1  0  0  0
 18 19  2  0  0  0
 19 20  1  0  0  0
 20 13  1  0  0  0
 13  6  1  0  0  0
  6  7  1  0  0  0
  6  2  1  0  0  0
  7  8  1  0  0  0
  7  9  1  0  0  0
  7 10  2  0  0  0
  2  3  1  0  0  0
  3  4  2  0  0  0
  3  1  1  0  0  0
  1 22  1  0  0  0
  1 36  1  0  0  0
 22 23  1  0  0  0
 23 24  2  0  0  0
 23 26  1  0  0  0
 26 32  1  0  0  0
 26 27  1  0  0  0
 32 33  1  0  0  0
 32 34  1  0  0  0
 34 35  1  0  0  0
 27 28  1  0  0  0
 28 29  1  0  0  0
 28 30  2  0  0  0
 36 37  1  0  0  0
 37 38  1  0  0  0
 37 43  2  0  0  0
 38 39  2  0  0  0
 39 40  1  0  0  0
 40 41  1  0  0  0
 40 42  2  0  0  0
 42 43  1  0  0  0
 17 21  1  0  0  0
  8 11  1  0  0  0
  9 12  1  0  0  0
  2  5  1  0  0  0
 22 25  1  0  0  0
 27 31  1  0  0  0
 41 44  1  0  0  0
M  END
> <minimizedAffinity>
-8.79382

$$$$
2XHM_K26_A_1615


 44 45  0  0  0  0  0  0  0  0999 V2000
   -8.0054   25.1350  -10.8236 C   0  0  0  0  0  0  0  0  0  0  0  0
  -10.2664   24.2855  -11.0228 N   0  0  0  0  0  0  0  0  0  0  0  0
   -9.4772   25.3506  -11.1856 C   0  0  0  0  0  0  0  0  0  0  0  0
   -9.8448   26.4390  -11.6299 O   0  0  0  0  0  0  0  0  0  0  0  0
   -9.8897   23.4731  -10.6137 H   0  0  0  0  0  0  0  0  0  0  0  0
  -11.6803   24.2843  -11.4339 C   0  0  0  0  0  0  0  0  0  0  0  0
  -12.7894   24.4593   -9.9725 P   0  0  0  0  0  0  0  0  0  0  0  0
  -11.8486   24.3728   -8.7023 O   0  0  0  0  0  0  0  0  0  0  0  0
  -13.3357   25.9918  -10.0936 O   0  0  0  0  0  0  0  0  0  0  0  0
  -13.8777   23.4461   -9.9358 O   0  0  0  0  0  0  0  0  0  0  0  0
  -11.1555   25.0484   -8.7667 H   0  0  0  0  0  0  0  0  0  0  0  0
  -12.5826   26.6029  -10.1129 H   0  0  0  0  0  0  0  0  0  0  0  0
  -11.9449   22.9795  -12.2200 C   0  0  0  0  0  0  0  0  0  0  0  0
  -10.2557   21.8644  -13.7399 C   0  0  0  0  0  0  0  0  0  0  0  0
   -9.5172   21.7900  -14.9179 C   0  0  0  0  0  0  0  0  0  0  0  0
   -9.6536   22.7825  -15.8886 C   0  0  0  0  0  0  0  0  0  0  0  0
   -8.9233   22.6965  -17.0336 O   0  0  0  0  0  0  0  0  0  0  0  0
  -10.5355   23.8490  -15.6869 C   0  0  0  0  0  0  0  0  0  0  0  0
  -11.2693   23.9195  -14.5024 C   0  0  0  0  0  0  0  0  0  0  0  0
  -11.1306   22.9265  -13.5226 C   0  0  0  0  0  0  0  0  0  0  0  0
   -8.3346   21.9788  -17.1611 H   0  0  0  0  0  0  0  0  0  0  0  0
   -7.7190   25.8289   -9.5513 N   0  0  0  0  0  0  0  0  0  0  0  0
   -8.2001   25.4491   -8.3608 C   0  0  0  0  0  0  0  0  0  0  0  0
   -8.9589   24.4955   -8.1817 O   0  0  0  0  0  0  0  0  0  0  0  0
   -7.1366   26.6221   -9.5806 H   0  0  0  0  0  0  0  0  0  0  0  0
   -7.8004   26.3630   -7.1891 C   0  0  0  0  0  0  0  0  0  0  0  0
   -6.8421   25.5994   -6.3654 N   0  0  0  0  0  0  0  0  0  0  0  0
   -7.2225   24.9159   -5.2842 C   0  0  0  0  0  0  0  0  0  0  0  0
   -6.1099   24.1428   -4.5728 C   0  0  0  0  0  0  0  0  0  0  0  0
   -8.3690   24.9050   -4.8403 O   0  0  0  0  0  0  0  0  0  0  0  0
   -5.8917   25.5943   -6.6222 H   0  0  0  0  0  0  0  0  0  0  0  0
   -7.2249   27.7065   -7.6531 C   0  0  0  0  0  0  0  0  0  0  0  0
   -8.2060   28.8383   -7.3237 C   0  0  0  0  0  0  0  0  0  0  0  0
   -5.8629   27.9782   -6.9938 C   0  0  0  0  0  0  0  0  0  0  0  0
   -5.3420   29.3864   -7.2788 C   0  0  0  0  0  0  0  0  0  0  0  0
   -7.6592   23.6585  -10.6833 C   0  0  0  0  0  0  0  0  0  0  0  0
   -6.5818   23.3007  -11.7196 C   0  0  0  0  0  0  0  0  0  0  0  0
   -5.3263   22.8697  -11.2966 C   0  0  0  0  0  0  0  0  0  0  0  0
   -4.3486   22.5275  -12.2347 C   0  0  0  0  0  0  0  0  0  0  0  0
   -4.6264   22.6141  -13.5997 C   0  0  0  0  0  0  0  0  0  0  0  0
   -3.6633   22.2892  -14.5153 O   0  0  0  0  0  0  0  0  0  0  0  0
   -5.8856   23.0399  -14.0215 C   0  0  0  0  0  0  0  0  0  0  0  0
   -6.8649   23.3784  -13.0844 C   0  0  0  0  0  0  0  0  0  0  0  0
   -2.8190   22.0037  -14.2260 H   0  0  0  0  0  0  0  0  0  0  0  0
 14 15  1  0  0  0
 14 20  2  0  0  0
 15 16  2  0  0  0
 16 17  1  0  0  0
 16 18  1  0  0  0
 18 19  2  0  0  0
 19 20  1  0  0  0
 20 13  1  0  0  0
 13  6  1  0  0  0
  6  7  1  0  0  0
  6  2  1  0  0  0
  7  8  1  0  0  0
  7  9  1  0  0  0
  7 10  2  0  0  0
  2  3  1  0  0  0
  3  4  2  0  0  0
  3  1  1  0  0  0
  1 22  1  0  0  0
  1 36  1  0  0  0
 22 23  1  0  0  0
 23 24  2  0  0  0
 23 26  1  0  0  0
 26 32  1  0  0  0
 26 27  1  0  0  0
 32 33  1  0  0  0
 32 34  1  0  0  0
 34 35  1  0  0  0
 27 28  1  0  0  0
 28 29  1  0  0  0
 28 30  2  0  0  0
 36 37  1  0  0  0
 37 38  1  0  0  0
 37 43  2  0  0  0
 38 39  2  0  0  0
 39 40  1  0  0  0
 40 41  1  0  0  0
 40 42  2  0  0  0
 42 43  1  0  0  0
 17 21  1  0  0  0
  8 11  1  0  0  0
  9 12  1  0  0  0
  2  5  1  0  0  0
 22 25  1  0  0  0
 27 31  1  0  0  0
 41 44  1  0  0  0
M  END
> <minimizedAffinity>
-8.74862

$$$$
2XHM_K26_A_1615


 44 45  0  0  0  0  0  0  0  0999 V2000
   -6.1920   24.2206  -13.1490 C   0  0  0  0  0  0  0  0  0  0  0  0
   -6.8798   23.8099  -15.4362 N   0  0  0  0  0  0  0  0  0  0  0  0
   -6.2744   23.2929  -14.3639 C   0  0  0  0  0  0  0  0  0  0  0  0
   -5.8327   22.1455  -14.2885 O   0  0  0  0  0  0  0  0  0  0  0  0
   -7.1557   24.7547  -15.4167 H   0  0  0  0  0  0  0  0  0  0  0  0
   -7.1490   23.0157  -16.6465 C   0  0  0  0  0  0  0  0  0  0  0  0
   -6.0269   23.5127  -18.0214 P   0  0  0  0  0  0  0  0  0  0  0  0
   -5.0026   22.3186  -18.1972 O   0  0  0  0  0  0  0  0  0  0  0  0
   -7.0095   23.5318  -19.3235 O   0  0  0  0  0  0  0  0  0  0  0  0
   -5.3412   24.8105  -17.7805 O   0  0  0  0  0  0  0  0  0  0  0  0
   -5.4902   21.4944  -18.3516 H   0  0  0  0  0  0  0  0  0  0  0  0
   -7.4255   22.6618  -19.4274 H   0  0  0  0  0  0  0  0  0  0  0  0
   -8.6408   23.1961  -17.0106 C   0  0  0  0  0  0  0  0  0  0  0  0
   -9.5173   21.9610  -14.9826 C   0  0  0  0  0  0  0  0  0  0  0  0
  -10.3167   21.8668  -13.8465 C   0  0  0  0  0  0  0  0  0  0  0  0
  -11.1474   22.9294  -13.4902 C   0  0  0  0  0  0  0  0  0  0  0  0
  -11.9242   22.8211  -12.3781 O   0  0  0  0  0  0  0  0  0  0  0  0
  -11.1749   24.0930  -14.2655 C   0  0  0  0  0  0  0  0  0  0  0  0
  -10.3744   24.1788  -15.4048 C   0  0  0  0  0  0  0  0  0  0  0  0
   -9.5425   23.1108  -15.7687 C   0  0  0  0  0  0  0  0  0  0  0  0
  -11.8999   22.0381  -11.8641 H   0  0  0  0  0  0  0  0  0  0  0  0
   -4.7734   24.5336  -12.8812 N   0  0  0  0  0  0  0  0  0  0  0  0
   -4.0722   24.0348  -11.8552 C   0  0  0  0  0  0  0  0  0  0  0  0
   -4.5265   23.2785  -10.9957 O   0  0  0  0  0  0  0  0  0  0  0  0
   -4.3136   25.1488  -13.4971 H   0  0  0  0  0  0  0  0  0  0  0  0
   -2.6254   24.5501  -11.7597 C   0  0  0  0  0  0  0  0  0  0  0  0
   -2.4359   25.4883  -12.8839 N   0  0  0  0  0  0  0  0  0  0  0  0
   -1.7325   25.1619  -13.9699 C   0  0  0  0  0  0  0  0  0  0  0  0
   -1.6742   26.2345  -15.0597 C   0  0  0  0  0  0  0  0  0  0  0  0
   -1.1339   24.0974  -14.1127 O   0  0  0  0  0  0  0  0  0  0  0  0
   -2.8415   26.3838  -12.8305 H   0  0  0  0  0  0  0  0  0  0  0  0
   -2.3134   25.1974  -10.4050 C   0  0  0  0  0  0  0  0  0  0  0  0
   -0.9386   25.8753  -10.4526 C   0  0  0  0  0  0  0  0  0  0  0  0
   -3.3952   26.2207  -10.0224 C   0  0  0  0  0  0  0  0  0  0  0  0
   -4.0301   25.9252   -8.6641 C   0  0  0  0  0  0  0  0  0  0  0  0
   -6.9639   25.5161  -13.3627 C   0  0  0  0  0  0  0  0  0  0  0  0
   -8.1873   25.5241  -12.4322 C   0  0  0  0  0  0  0  0  0  0  0  0
   -8.3559   24.5056  -11.4966 C   0  0  0  0  0  0  0  0  0  0  0  0
   -9.4577   24.5169  -10.6371 C   0  0  0  0  0  0  0  0  0  0  0  0
  -10.3932   25.5500  -10.7108 C   0  0  0  0  0  0  0  0  0  0  0  0
  -11.4767   25.5520   -9.8756 O   0  0  0  0  0  0  0  0  0  0  0  0
  -10.2200   26.5720  -11.6436 C   0  0  0  0  0  0  0  0  0  0  0  0
   -9.1167   26.5636  -12.5006 C   0  0  0  0  0  0  0  0  0  0  0  0
  -11.5879   24.8626   -9.2507 H   0  0  0  0  0  0  0  0  0  0  0  0
 14 15  1  0  0  0
 14 20  2  0  0  0
 15 16  2  0  0  0
 16 17  1  0  0  0
 16 18  1  0  0  0
 18 19  2  0  0  0
 19 20  1  0  0  0
 20 13  1  0  0  0
 13  6  1  0  0  0
  6  7  1  0  0  0
  6  2  1  0  0  0
  7  8  1  0  0  0
  7  9  1  0  0  0
  7 10  2  0  0  0
  2  3  1  0  0  0
  3  4  2  0  0  0
  3  1  1  0  0  0
  1 22  1  0  0  0
  1 36  1  0  0  0
 22 23  1  0  0  0
 23 24  2  0  0  0
 23 26  1  0  0  0
 26 32  1  0  0  0
 26 27  1  0  0  0
 32 33  1  0  0  0
 32 34  1  0  0  0
 34 35  1  0  0  0
 27 28  1  0  0  0
 28 29  1  0  0  0
 28 30  2  0  0  0
 36 37  1  0  0  0
 37 38  1  0  0  0
 37 43  2  0  0  0
 38 39  2  0  0  0
 39 40  1  0  0  0
 40 41  1  0  0  0
 40 42  2  0  0  0
 42 43  1  0  0  0
 17 21  1  0  0  0
  8 11  1  0  0  0
  9 12  1  0  0  0
  2  5  1  0  0  0
 22 25  1  0  0  0
 27 31  1  0  0  0
 41 44  1  0  0  0
M  END
> <minimizedAffinity>
-8.69959

$$$$
