5UOO_8FV_A_501


 34 39  0  0  0  0  0  0  0  0999 V2000
   21.6680   -2.6073    7.9302 N   0  0  0  0  0  0  0  0  0  0  0  0
   16.7997   -6.0934    7.8513 C   0  0  0  0  0  0  0  0  0  0  0  0
   17.8697   -5.7255    8.6920 C   0  0  0  0  0  0  0  0  0  0  0  0
   18.7546   -4.7466    8.2409 C   0  0  0  0  0  0  0  0  0  0  0  0
   19.9490   -4.1917    8.7961 C   0  0  0  0  0  0  0  0  0  0  0  0
   20.4813   -3.2960    7.8058 C   0  0  0  0  0  0  0  0  0  0  0  0
   18.5877   -4.1503    6.9611 C   0  0  0  0  0  0  0  0  0  0  0  0
   20.6802   -4.3149    9.9971 C   0  0  0  0  0  0  0  0  0  0  0  0
   16.6292   -5.4723    6.5827 C   0  0  0  0  0  0  0  0  0  0  0  0
   17.5361   -4.4929    6.1228 C   0  0  0  0  0  0  0  0  0  0  0  0
   19.6510   -3.2567    6.7085 N   0  0  0  0  0  0  0  0  0  0  0  0
   22.3112   -2.8782    9.1152 C   0  0  0  0  0  0  0  0  0  0  0  0
   23.6826   -2.2729    9.2540 C   0  0  0  0  0  0  0  0  0  0  0  0
   21.8776   -3.6743   10.1610 N   0  0  0  0  0  0  0  0  0  0  0  0
   19.7752   -2.7088    5.9000 H   0  0  0  0  0  0  0  0  0  0  0  0
   18.1667   -3.5809   11.6257 C   0  0  0  0  0  0  0  0  0  0  0  0
   17.0186   -3.3817   12.3105 C   0  0  0  0  0  0  0  0  0  0  0  0
   20.3854   -7.0435   12.5751 C   0  0  0  0  0  0  0  0  0  0  0  0
   18.5724   -5.6125   12.9463 C   0  0  0  0  0  0  0  0  0  0  0  0
   17.3561   -5.3658   13.6661 C   0  0  0  0  0  0  0  0  0  0  0  0
   16.5883   -4.2745   13.3405 C   0  0  0  0  0  0  0  0  0  0  0  0
   20.8784   -6.2242   11.5008 C   0  0  0  0  0  0  0  0  0  0  0  0
   20.1902   -5.0832   11.1618 C   0  0  0  0  0  0  0  0  0  0  0  0
   19.2911   -6.7788   13.2835 N   0  0  0  0  0  0  0  0  0  0  0  0
   18.9893   -4.7204   11.9011 C   0  0  0  0  0  0  0  0  0  0  0  0
   14.0629   -3.6441    5.8352 C   0  0  0  0  0  0  0  0  0  0  0  0
   14.4158   -5.0203    5.4932 C   0  0  0  0  0  0  0  0  0  0  0  0
   15.4842   -5.8089    5.7758 C   0  0  0  0  0  0  0  0  0  0  0  0
   15.2039   -7.0699    5.1190 C   0  0  0  0  0  0  0  0  0  0  0  0
   16.0599   -8.2740    5.0978 C   0  0  0  0  0  0  0  0  0  0  0  0
   14.0121   -6.9727    4.5137 N   0  0  0  0  0  0  0  0  0  0  0  0
   13.5234   -5.7256    4.7305 O   0  0  0  0  0  0  0  0  0  0  0  0
   16.1235   -7.8939    9.3744 C   0  0  0  0  0  0  0  0  0  0  0  0
   15.8721   -7.0696    8.2422 O   0  0  0  0  0  0  0  0  0  0  0  0
 31 32  1  0  0  0
 31 29  2  0  0  0
 32 27  1  0  0  0
 29 30  1  0  0  0
 29 28  1  0  0  0
 27 26  1  0  0  0
 27 28  2  0  0  0
 28  9  1  0  0  0
 10  9  2  0  0  0
 10  7  1  0  0  0
  9  2  1  0  0  0
 11  7  1  0  0  0
 11  6  1  0  0  0
  7  4  2  0  0  0
  6  1  2  0  0  0
  6  5  1  0  0  0
  2 34  1  0  0  0
  2  3  2  0  0  0
  1 12  1  0  0  0
  4  3  1  0  0  0
  4  5  1  0  0  0
 34 33  1  0  0  0
  5  8  2  0  0  0
 12 13  1  0  0  0
 12 14  2  0  0  0
  8 14  1  0  0  0
  8 23  1  0  0  0
 23 22  2  0  0  0
 23 25  1  0  0  0
 16 25  2  0  0  0
 16 17  1  0  0  0
 22 18  1  0  0  0
 25 19  1  0  0  0
 17 21  2  0  0  0
 18 24  2  0  0  0
 19 24  1  0  0  0
 19 20  2  0  0  0
 21 20  1  0  0  0
 11 15  1  0  0  0
M  END
> <minimizedAffinity>
-9.39695

$$$$
5UOO_8FV_A_501


 34 39  0  0  0  0  0  0  0  0999 V2000
   16.2800   -4.5347    5.4527 N   0  0  0  0  0  0  0  0  0  0  0  0
   21.3806   -3.1474    8.2667 C   0  0  0  0  0  0  0  0  0  0  0  0
   20.1956   -3.8887    8.4495 C   0  0  0  0  0  0  0  0  0  0  0  0
   19.2953   -3.9630    7.3871 C   0  0  0  0  0  0  0  0  0  0  0  0
   18.0056   -4.5639    7.2518 C   0  0  0  0  0  0  0  0  0  0  0  0
   17.5229   -4.2040    5.9465 C   0  0  0  0  0  0  0  0  0  0  0  0
   19.5616   -3.2947    6.1609 C   0  0  0  0  0  0  0  0  0  0  0  0
   17.1528   -5.3615    8.0447 C   0  0  0  0  0  0  0  0  0  0  0  0
   21.6472   -2.5029    7.0267 C   0  0  0  0  0  0  0  0  0  0  0  0
   20.7260   -2.5673    5.9587 C   0  0  0  0  0  0  0  0  0  0  0  0
   18.4684   -3.4557    5.2823 N   0  0  0  0  0  0  0  0  0  0  0  0
   15.5276   -5.2470    6.3571 C   0  0  0  0  0  0  0  0  0  0  0  0
   14.1067   -5.5160    5.9393 C   0  0  0  0  0  0  0  0  0  0  0  0
   15.8984   -5.6951    7.6131 N   0  0  0  0  0  0  0  0  0  0  0  0
   18.3958   -3.0998    4.3672 H   0  0  0  0  0  0  0  0  0  0  0  0
   17.2417   -3.7658   10.6818 C   0  0  0  0  0  0  0  0  0  0  0  0
   17.1965   -3.1578   11.8882 C   0  0  0  0  0  0  0  0  0  0  0  0
   18.1997   -7.8760   10.6446 C   0  0  0  0  0  0  0  0  0  0  0  0
   17.9014   -5.8575   11.7888 C   0  0  0  0  0  0  0  0  0  0  0  0
   17.8596   -5.1806   13.0530 C   0  0  0  0  0  0  0  0  0  0  0  0
   17.4991   -3.8561   13.0982 C   0  0  0  0  0  0  0  0  0  0  0  0
   17.8759   -7.2679    9.3822 C   0  0  0  0  0  0  0  0  0  0  0  0
   17.5636   -5.9294    9.3469 C   0  0  0  0  0  0  0  0  0  0  0  0
   18.2219   -7.2314   11.8079 N   0  0  0  0  0  0  0  0  0  0  0  0
   17.5795   -5.1537   10.5792 C   0  0  0  0  0  0  0  0  0  0  0  0
   22.2535    0.6773    7.1036 C   0  0  0  0  0  0  0  0  0  0  0  0
   23.1168   -0.4771    6.8633 C   0  0  0  0  0  0  0  0  0  0  0  0
   22.9000   -1.8171    6.8382 C   0  0  0  0  0  0  0  0  0  0  0  0
   24.1939   -2.4010    6.5467 C   0  0  0  0  0  0  0  0  0  0  0  0
   24.5169   -3.8376    6.4247 C   0  0  0  0  0  0  0  0  0  0  0  0
   25.0807   -1.4067    6.4013 N   0  0  0  0  0  0  0  0  0  0  0  0
   24.4370   -0.2282    6.5969 O   0  0  0  0  0  0  0  0  0  0  0  0
   22.1826   -3.7687   10.5005 C   0  0  0  0  0  0  0  0  0  0  0  0
   22.3299   -3.0319    9.2921 O   0  0  0  0  0  0  0  0  0  0  0  0
 31 32  1  0  0  0
 31 29  2  0  0  0
 32 27  1  0  0  0
 29 30  1  0  0  0
 29 28  1  0  0  0
 27 26  1  0  0  0
 27 28  2  0  0  0
 28  9  1  0  0  0
 10  9  2  0  0  0
 10  7  1  0  0  0
  9  2  1  0  0  0
 11  7  1  0  0  0
 11  6  1  0  0  0
  7  4  2  0  0  0
  6  1  2  0  0  0
  6  5  1  0  0  0
  2 34  1  0  0  0
  2  3  2  0  0  0
  1 12  1  0  0  0
  4  3  1  0  0  0
  4  5  1  0  0  0
 34 33  1  0  0  0
  5  8  2  0  0  0
 12 13  1  0  0  0
 12 14  2  0  0  0
  8 14  1  0  0  0
  8 23  1  0  0  0
 23 22  2  0  0  0
 23 25  1  0  0  0
 16 25  2  0  0  0
 16 17  1  0  0  0
 22 18  1  0  0  0
 25 19  1  0  0  0
 17 21  2  0  0  0
 18 24  2  0  0  0
 19 24  1  0  0  0
 19 20  2  0  0  0
 21 20  1  0  0  0
 11 15  1  0  0  0
M  END
> <minimizedAffinity>
-9.25784

$$$$
5UOO_8FV_A_501


 34 39  0  0  0  0  0  0  0  0999 V2000
   16.3608   -4.5988    5.4664 N   0  0  0  0  0  0  0  0  0  0  0  0
   21.3894   -3.1021    8.3530 C   0  0  0  0  0  0  0  0  0  0  0  0
   20.1804   -3.7999    8.5491 C   0  0  0  0  0  0  0  0  0  0  0  0
   19.3175   -3.9398    7.4625 C   0  0  0  0  0  0  0  0  0  0  0  0
   18.0189   -4.5209    7.3264 C   0  0  0  0  0  0  0  0  0  0  0  0
   17.5930   -4.2570    5.9792 C   0  0  0  0  0  0  0  0  0  0  0  0
   19.6448   -3.3786    6.1979 C   0  0  0  0  0  0  0  0  0  0  0  0
   17.1182   -5.2329    8.1474 C   0  0  0  0  0  0  0  0  0  0  0  0
   21.7169   -2.5658    7.0766 C   0  0  0  0  0  0  0  0  0  0  0  0
   20.8336   -2.6958    5.9828 C   0  0  0  0  0  0  0  0  0  0  0  0
   18.5804   -3.5857    5.2939 N   0  0  0  0  0  0  0  0  0  0  0  0
   15.5586   -5.2191    6.3954 C   0  0  0  0  0  0  0  0  0  0  0  0
   14.1474   -5.4893    5.9465 C   0  0  0  0  0  0  0  0  0  0  0  0
   15.8723   -5.5725    7.6964 N   0  0  0  0  0  0  0  0  0  0  0  0
   18.5500   -3.3033    4.3512 H   0  0  0  0  0  0  0  0  0  0  0  0
   18.6555   -7.8399    8.7387 C   0  0  0  0  0  0  0  0  0  0  0  0
   19.4197   -8.9068    9.0620 C   0  0  0  0  0  0  0  0  0  0  0  0
   17.5184   -5.2744   11.8913 C   0  0  0  0  0  0  0  0  0  0  0  0
   18.5684   -7.2146   11.1130 C   0  0  0  0  0  0  0  0  0  0  0  0
   19.3678   -8.3639   11.4265 C   0  0  0  0  0  0  0  0  0  0  0  0
   19.7955   -9.1858   10.4126 C   0  0  0  0  0  0  0  0  0  0  0  0
   17.1234   -4.8930   10.5621 C   0  0  0  0  0  0  0  0  0  0  0  0
   17.4673   -5.7028    9.5055 C   0  0  0  0  0  0  0  0  0  0  0  0
   18.2059   -6.3742   12.1867 N   0  0  0  0  0  0  0  0  0  0  0  0
   18.2092   -6.9314    9.7518 C   0  0  0  0  0  0  0  0  0  0  0  0
   22.4356    0.5911    7.1424 C   0  0  0  0  0  0  0  0  0  0  0  0
   23.2567   -0.5937    6.9024 C   0  0  0  0  0  0  0  0  0  0  0  0
   22.9925   -1.9253    6.8819 C   0  0  0  0  0  0  0  0  0  0  0  0
   24.2639   -2.5555    6.5875 C   0  0  0  0  0  0  0  0  0  0  0  0
   24.5353   -4.0029    6.4685 C   0  0  0  0  0  0  0  0  0  0  0  0
   25.1848   -1.5936    6.4363 N   0  0  0  0  0  0  0  0  0  0  0  0
   24.5839   -0.3925    6.6308 O   0  0  0  0  0  0  0  0  0  0  0  0
   22.3296   -3.8307   10.4987 C   0  0  0  0  0  0  0  0  0  0  0  0
   22.3036   -2.9253    9.4014 O   0  0  0  0  0  0  0  0  0  0  0  0
 31 32  1  0  0  0
 31 29  2  0  0  0
 32 27  1  0  0  0
 29 30  1  0  0  0
 29 28  1  0  0  0
 27 26  1  0  0  0
 27 28  2  0  0  0
 28  9  1  0  0  0
 10  9  2  0  0  0
 10  7  1  0  0  0
  9  2  1  0  0  0
 11  7  1  0  0  0
 11  6  1  0  0  0
  7  4  2  0  0  0
  6  1  2  0  0  0
  6  5  1  0  0  0
  2 34  1  0  0  0
  2  3  2  0  0  0
  1 12  1  0  0  0
  4  3  1  0  0  0
  4  5  1  0  0  0
 34 33  1  0  0  0
  5  8  2  0  0  0
 12 13  1  0  0  0
 12 14  2  0  0  0
  8 14  1  0  0  0
  8 23  1  0  0  0
 23 22  2  0  0  0
 23 25  1  0  0  0
 16 25  2  0  0  0
 16 17  1  0  0  0
 22 18  1  0  0  0
 25 19  1  0  0  0
 17 21  2  0  0  0
 18 24  2  0  0  0
 19 24  1  0  0  0
 19 20  2  0  0  0
 21 20  1  0  0  0
 11 15  1  0  0  0
M  END
> <minimizedAffinity>
-9.21525

$$$$
5UOO_8FV_A_501


 34 39  0  0  0  0  0  0  0  0999 V2000
   21.8470   -2.7943    8.1487 N   0  0  0  0  0  0  0  0  0  0  0  0
   16.7218   -5.8857    7.9630 C   0  0  0  0  0  0  0  0  0  0  0  0
   17.7659   -5.5484    8.8481 C   0  0  0  0  0  0  0  0  0  0  0  0
   18.7540   -4.6736    8.3973 C   0  0  0  0  0  0  0  0  0  0  0  0
   19.9543   -4.1788    8.9948 C   0  0  0  0  0  0  0  0  0  0  0  0
   20.6173   -3.3945    7.9890 C   0  0  0  0  0  0  0  0  0  0  0  0
   18.7142   -4.1514    7.0756 C   0  0  0  0  0  0  0  0  0  0  0  0
   20.5991   -4.2798   10.2462 C   0  0  0  0  0  0  0  0  0  0  0  0
   16.6798   -5.3378    6.6507 C   0  0  0  0  0  0  0  0  0  0  0  0
   17.6905   -4.4648    6.1925 C   0  0  0  0  0  0  0  0  0  0  0  0
   19.8608   -3.3624    6.8393 N   0  0  0  0  0  0  0  0  0  0  0  0
   22.3931   -3.0363    9.3875 C   0  0  0  0  0  0  0  0  0  0  0  0
   23.7988   -2.5327    9.5788 C   0  0  0  0  0  0  0  0  0  0  0  0
   21.8332   -3.7257   10.4491 N   0  0  0  0  0  0  0  0  0  0  0  0
   20.0783   -2.8802    6.0090 H   0  0  0  0  0  0  0  0  0  0  0  0
   20.4515   -7.3314   10.6643 C   0  0  0  0  0  0  0  0  0  0  0  0
   20.4518   -8.6495   10.9633 C   0  0  0  0  0  0  0  0  0  0  0  0
   18.9460   -4.7024   13.6029 C   0  0  0  0  0  0  0  0  0  0  0  0
   19.3963   -6.8653   12.8334 C   0  0  0  0  0  0  0  0  0  0  0  0
   19.3966   -8.2719   13.1156 C   0  0  0  0  0  0  0  0  0  0  0  0
   19.9293   -9.1444   12.1983 C   0  0  0  0  0  0  0  0  0  0  0  0
   19.4826   -4.1098   12.4074 C   0  0  0  0  0  0  0  0  0  0  0  0
   19.9782   -4.9292   11.4209 C   0  0  0  0  0  0  0  0  0  0  0  0
   18.8895   -6.0109   13.8353 N   0  0  0  0  0  0  0  0  0  0  0  0
   19.9387   -6.3741   11.5979 C   0  0  0  0  0  0  0  0  0  0  0  0
   14.3405   -3.3595    5.6018 C   0  0  0  0  0  0  0  0  0  0  0  0
   14.5885   -4.7828    5.3823 C   0  0  0  0  0  0  0  0  0  0  0  0
   15.5618   -5.6359    5.7925 C   0  0  0  0  0  0  0  0  0  0  0  0
   15.2106   -6.9146    5.2081 C   0  0  0  0  0  0  0  0  0  0  0  0
   15.9542   -8.1854    5.3305 C   0  0  0  0  0  0  0  0  0  0  0  0
   14.0725   -6.7625    4.5168 N   0  0  0  0  0  0  0  0  0  0  0  0
   13.6855   -5.4653    4.6113 O   0  0  0  0  0  0  0  0  0  0  0  0
   15.9678   -7.8596    9.2096 C   0  0  0  0  0  0  0  0  0  0  0  0
   15.6951   -6.7584    8.3508 O   0  0  0  0  0  0  0  0  0  0  0  0
 31 32  1  0  0  0
 31 29  2  0  0  0
 32 27  1  0  0  0
 29 30  1  0  0  0
 29 28  1  0  0  0
 27 26  1  0  0  0
 27 28  2  0  0  0
 28  9  1  0  0  0
 10  9  2  0  0  0
 10  7  1  0  0  0
  9  2  1  0  0  0
 11  7  1  0  0  0
 11  6  1  0  0  0
  7  4  2  0  0  0
  6  1  2  0  0  0
  6  5  1  0  0  0
  2 34  1  0  0  0
  2  3  2  0  0  0
  1 12  1  0  0  0
  4  3  1  0  0  0
  4  5  1  0  0  0
 34 33  1  0  0  0
  5  8  2  0  0  0
 12 13  1  0  0  0
 12 14  2  0  0  0
  8 14  1  0  0  0
  8 23  1  0  0  0
 23 22  2  0  0  0
 23 25  1  0  0  0
 16 25  2  0  0  0
 16 17  1  0  0  0
 22 18  1  0  0  0
 25 19  1  0  0  0
 17 21  2  0  0  0
 18 24  2  0  0  0
 19 24  1  0  0  0
 19 20  2  0  0  0
 21 20  1  0  0  0
 11 15  1  0  0  0
M  END
> <minimizedAffinity>
-8.88958

$$$$
5UOO_8FV_A_501


 34 39  0  0  0  0  0  0  0  0999 V2000
   16.6378   -5.1049    5.9462 N   0  0  0  0  0  0  0  0  0  0  0  0
   21.6336   -2.4751    7.9424 C   0  0  0  0  0  0  0  0  0  0  0  0
   20.6277   -3.3719    8.3560 C   0  0  0  0  0  0  0  0  0  0  0  0
   19.6620   -3.7527    7.4248 C   0  0  0  0  0  0  0  0  0  0  0  0
   18.4983   -4.5770    7.5193 C   0  0  0  0  0  0  0  0  0  0  0  0
   17.8388   -4.4993    6.2445 C   0  0  0  0  0  0  0  0  0  0  0  0
   19.6858   -3.2357    6.1006 C   0  0  0  0  0  0  0  0  0  0  0  0
   17.8843   -5.3830    8.5020 C   0  0  0  0  0  0  0  0  0  0  0  0
   21.6608   -1.9832    6.6077 C   0  0  0  0  0  0  0  0  0  0  0  0
   20.6723   -2.3588    5.6721 C   0  0  0  0  0  0  0  0  0  0  0  0
   18.5644   -3.7068    5.3840 N   0  0  0  0  0  0  0  0  0  0  0  0
   16.1167   -5.7943    7.0160 C   0  0  0  0  0  0  0  0  0  0  0  0
   14.7372   -6.3588    6.8053 C   0  0  0  0  0  0  0  0  0  0  0  0
   16.6785   -5.9842    8.2666 N   0  0  0  0  0  0  0  0  0  0  0  0
   18.3430   -3.5063    4.4459 H   0  0  0  0  0  0  0  0  0  0  0  0
   17.5380   -3.6394   11.0217 C   0  0  0  0  0  0  0  0  0  0  0  0
   17.3394   -2.9849   12.1875 C   0  0  0  0  0  0  0  0  0  0  0  0
   19.8113   -7.1917   11.1841 C   0  0  0  0  0  0  0  0  0  0  0  0
   18.9010   -5.2992   12.2147 C   0  0  0  0  0  0  0  0  0  0  0  0
   18.6848   -4.5740   13.4336 C   0  0  0  0  0  0  0  0  0  0  0  0
   17.9047   -3.4437   13.4176 C   0  0  0  0  0  0  0  0  0  0  0  0
   19.2541   -6.8288    9.9089 C   0  0  0  0  0  0  0  0  0  0  0  0
   18.5117   -5.6760    9.8088 C   0  0  0  0  0  0  0  0  0  0  0  0
   19.6623   -6.4839   12.3004 N   0  0  0  0  0  0  0  0  0  0  0  0
   18.3155   -4.8415   10.9859 C   0  0  0  0  0  0  0  0  0  0  0  0
   24.6255   -2.8093    5.6002 C   0  0  0  0  0  0  0  0  0  0  0  0
   23.9818   -1.5102    5.7832 C   0  0  0  0  0  0  0  0  0  0  0  0
   22.7428   -1.1299    6.1877 C   0  0  0  0  0  0  0  0  0  0  0  0
   22.7599    0.3183    6.1375 C   0  0  0  0  0  0  0  0  0  0  0  0
   21.6486    1.2351    6.4649 C   0  0  0  0  0  0  0  0  0  0  0  0
   23.9765    0.7106    5.7348 N   0  0  0  0  0  0  0  0  0  0  0  0
   24.7296   -0.3957    5.5107 O   0  0  0  0  0  0  0  0  0  0  0  0
   23.2684   -2.9784    9.7010 C   0  0  0  0  0  0  0  0  0  0  0  0
   22.6362   -2.0512    8.8263 O   0  0  0  0  0  0  0  0  0  0  0  0
 31 32  1  0  0  0
 31 29  2  0  0  0
 32 27  1  0  0  0
 29 30  1  0  0  0
 29 28  1  0  0  0
 27 26  1  0  0  0
 27 28  2  0  0  0
 28  9  1  0  0  0
 10  9  2  0  0  0
 10  7  1  0  0  0
  9  2  1  0  0  0
 11  7  1  0  0  0
 11  6  1  0  0  0
  7  4  2  0  0  0
  6  1  2  0  0  0
  6  5  1  0  0  0
  2 34  1  0  0  0
  2  3  2  0  0  0
  1 12  1  0  0  0
  4  3  1  0  0  0
  4  5  1  0  0  0
 34 33  1  0  0  0
  5  8  2  0  0  0
 12 13  1  0  0  0
 12 14  2  0  0  0
  8 14  1  0  0  0
  8 23  1  0  0  0
 23 22  2  0  0  0
 23 25  1  0  0  0
 16 25  2  0  0  0
 16 17  1  0  0  0
 22 18  1  0  0  0
 25 19  1  0  0  0
 17 21  2  0  0  0
 18 24  2  0  0  0
 19 24  1  0  0  0
 19 20  2  0  0  0
 21 20  1  0  0  0
 11 15  1  0  0  0
M  END
> <minimizedAffinity>
-8.65399

$$$$
5UOO_8FV_A_501


 34 39  0  0  0  0  0  0  0  0999 V2000
   19.3063   -5.2396   11.3547 N   0  0  0  0  0  0  0  0  0  0  0  0
   21.1018   -2.8619    6.1602 C   0  0  0  0  0  0  0  0  0  0  0  0
   20.0108   -3.5476    6.7318 C   0  0  0  0  0  0  0  0  0  0  0  0
   20.0510   -3.8260    8.0977 C   0  0  0  0  0  0  0  0  0  0  0  0
   19.1666   -4.5366    8.9670 C   0  0  0  0  0  0  0  0  0  0  0  0
   19.8080   -4.5826   10.2526 C   0  0  0  0  0  0  0  0  0  0  0  0
   21.1705   -3.4412    8.8851 C   0  0  0  0  0  0  0  0  0  0  0  0
   17.9074   -5.1660    8.8645 C   0  0  0  0  0  0  0  0  0  0  0  0
   22.2057   -2.4607    6.9632 C   0  0  0  0  0  0  0  0  0  0  0  0
   22.2499   -2.7582    8.3427 C   0  0  0  0  0  0  0  0  0  0  0  0
   21.0062   -3.9062   10.2079 N   0  0  0  0  0  0  0  0  0  0  0  0
   18.1126   -5.8702   11.0925 C   0  0  0  0  0  0  0  0  0  0  0  0
   17.5807   -6.7275   12.2097 C   0  0  0  0  0  0  0  0  0  0  0  0
   17.3767   -5.8548    9.9203 N   0  0  0  0  0  0  0  0  0  0  0  0
   21.6306   -3.7720   10.9571 H   0  0  0  0  0  0  0  0  0  0  0  0
   16.9985   -7.6054    7.2117 C   0  0  0  0  0  0  0  0  0  0  0  0
   16.4741   -8.6343    6.5093 C   0  0  0  0  0  0  0  0  0  0  0  0
   15.7269   -3.7220    6.1555 C   0  0  0  0  0  0  0  0  0  0  0  0
   15.7335   -6.0354    5.8079 C   0  0  0  0  0  0  0  0  0  0  0  0
   15.2056   -7.1475    5.0712 C   0  0  0  0  0  0  0  0  0  0  0  0
   15.5622   -8.4247    5.4287 C   0  0  0  0  0  0  0  0  0  0  0  0
   16.6181   -3.8362    7.2785 C   0  0  0  0  0  0  0  0  0  0  0  0
   17.0625   -5.0820    7.6537 C   0  0  0  0  0  0  0  0  0  0  0  0
   15.2883   -4.7499    5.4340 N   0  0  0  0  0  0  0  0  0  0  0  0
   16.6357   -6.2548    6.9033 C   0  0  0  0  0  0  0  0  0  0  0  0
   25.0491   -3.4903    5.8048 C   0  0  0  0  0  0  0  0  0  0  0  0
   24.4604   -2.1567    5.9077 C   0  0  0  0  0  0  0  0  0  0  0  0
   23.2717   -1.6931    6.3718 C   0  0  0  0  0  0  0  0  0  0  0  0
   23.3255   -0.2585    6.1742 C   0  0  0  0  0  0  0  0  0  0  0  0
   22.2726    0.7262    6.4972 C   0  0  0  0  0  0  0  0  0  0  0  0
   24.5140    0.0473    5.6355 N   0  0  0  0  0  0  0  0  0  0  0  0
   25.2136   -1.1026    5.4634 O   0  0  0  0  0  0  0  0  0  0  0  0
   20.3258   -1.4911    4.2795 C   0  0  0  0  0  0  0  0  0  0  0  0
   21.1268   -2.5486    4.7937 O   0  0  0  0  0  0  0  0  0  0  0  0
 31 32  1  0  0  0
 31 29  2  0  0  0
 32 27  1  0  0  0
 29 30  1  0  0  0
 29 28  1  0  0  0
 27 26  1  0  0  0
 27 28  2  0  0  0
 28  9  1  0  0  0
 10  9  2  0  0  0
 10  7  1  0  0  0
  9  2  1  0  0  0
 11  7  1  0  0  0
 11  6  1  0  0  0
  7  4  2  0  0  0
  6  1  2  0  0  0
  6  5  1  0  0  0
  2 34  1  0  0  0
  2  3  2  0  0  0
  1 12  1  0  0  0
  4  3  1  0  0  0
  4  5  1  0  0  0
 34 33  1  0  0  0
  5  8  2  0  0  0
 12 13  1  0  0  0
 12 14  2  0  0  0
  8 14  1  0  0  0
  8 23  1  0  0  0
 23 22  2  0  0  0
 23 25  1  0  0  0
 16 25  2  0  0  0
 16 17  1  0  0  0
 22 18  1  0  0  0
 25 19  1  0  0  0
 17 21  2  0  0  0
 18 24  2  0  0  0
 19 24  1  0  0  0
 19 20  2  0  0  0
 21 20  1  0  0  0
 11 15  1  0  0  0
M  END
> <minimizedAffinity>
-8.29489

$$$$
5UOO_8FV_A_501


 34 39  0  0  0  0  0  0  0  0999 V2000
   17.6707   -3.7964    5.4857 N   0  0  0  0  0  0  0  0  0  0  0  0
   22.1292   -3.2709    9.4487 C   0  0  0  0  0  0  0  0  0  0  0  0
   20.8097   -3.7554    9.3426 C   0  0  0  0  0  0  0  0  0  0  0  0
   20.1917   -3.7135    8.0932 C   0  0  0  0  0  0  0  0  0  0  0  0
   18.8767   -4.0583    7.6518 C   0  0  0  0  0  0  0  0  0  0  0  0
   18.8013   -3.6865    6.2653 C   0  0  0  0  0  0  0  0  0  0  0  0
   20.8715   -3.1812    6.9637 C   0  0  0  0  0  0  0  0  0  0  0  0
   17.7164   -4.6278    8.2189 C   0  0  0  0  0  0  0  0  0  0  0  0
   22.8078   -2.7627    8.3062 C   0  0  0  0  0  0  0  0  0  0  0  0
   22.1733   -2.7073    7.0462 C   0  0  0  0  0  0  0  0  0  0  0  0
   20.0091   -3.1760    5.8461 N   0  0  0  0  0  0  0  0  0  0  0  0
   16.5967   -4.2955    6.1847 C   0  0  0  0  0  0  0  0  0  0  0  0
   15.2915   -4.3059    5.4347 C   0  0  0  0  0  0  0  0  0  0  0  0
   16.5597   -4.7347    7.4968 N   0  0  0  0  0  0  0  0  0  0  0  0
   20.2297   -2.8658    4.9382 H   0  0  0  0  0  0  0  0  0  0  0  0
   18.7132   -7.4502    8.9601 C   0  0  0  0  0  0  0  0  0  0  0  0
   19.2330   -8.6279    9.3722 C   0  0  0  0  0  0  0  0  0  0  0  0
   17.2493   -4.8540   11.9484 C   0  0  0  0  0  0  0  0  0  0  0  0
   18.1761   -6.8996   11.2934 C   0  0  0  0  0  0  0  0  0  0  0  0
   18.7210   -8.1635   11.6982 C   0  0  0  0  0  0  0  0  0  0  0  0
   19.2521   -9.0044   10.7509 C   0  0  0  0  0  0  0  0  0  0  0  0
   17.2207   -4.3741   10.5929 C   0  0  0  0  0  0  0  0  0  0  0  0
   17.6822   -5.1894    9.5866 C   0  0  0  0  0  0  0  0  0  0  0  0
   17.6969   -6.0519   12.3143 N   0  0  0  0  0  0  0  0  0  0  0  0
   18.1761   -6.5210    9.9082 C   0  0  0  0  0  0  0  0  0  0  0  0
   25.5021   -4.5192    7.9291 C   0  0  0  0  0  0  0  0  0  0  0  0
   25.2908   -3.1145    8.2724 C   0  0  0  0  0  0  0  0  0  0  0  0
   24.1818   -2.3461    8.4239 C   0  0  0  0  0  0  0  0  0  0  0  0
   24.6817   -1.0288    8.7628 C   0  0  0  0  0  0  0  0  0  0  0  0
   23.8849    0.1891    9.0172 C   0  0  0  0  0  0  0  0  0  0  0  0
   26.0198   -1.0863    8.8104 N   0  0  0  0  0  0  0  0  0  0  0  0
   26.4039   -2.3523    8.5083 O   0  0  0  0  0  0  0  0  0  0  0  0
   22.5138   -4.2698   11.6562 C   0  0  0  0  0  0  0  0  0  0  0  0
   22.8109   -3.2841   10.6740 O   0  0  0  0  0  0  0  0  0  0  0  0
 31 32  1  0  0  0
 31 29  2  0  0  0
 32 27  1  0  0  0
 29 30  1  0  0  0
 29 28  1  0  0  0
 27 26  1  0  0  0
 27 28  2  0  0  0
 28  9  1  0  0  0
 10  9  2  0  0  0
 10  7  1  0  0  0
  9  2  1  0  0  0
 11  7  1  0  0  0
 11  6  1  0  0  0
  7  4  2  0  0  0
  6  1  2  0  0  0
  6  5  1  0  0  0
  2 34  1  0  0  0
  2  3  2  0  0  0
  1 12  1  0  0  0
  4  3  1  0  0  0
  4  5  1  0  0  0
 34 33  1  0  0  0
  5  8  2  0  0  0
 12 13  1  0  0  0
 12 14  2  0  0  0
  8 14  1  0  0  0
  8 23  1  0  0  0
 23 22  2  0  0  0
 23 25  1  0  0  0
 16 25  2  0  0  0
 16 17  1  0  0  0
 22 18  1  0  0  0
 25 19  1  0  0  0
 17 21  2  0  0  0
 18 24  2  0  0  0
 19 24  1  0  0  0
 19 20  2  0  0  0
 21 20  1  0  0  0
 11 15  1  0  0  0
M  END
> <minimizedAffinity>
-8.20626

$$$$
5UOO_8FV_A_501


 34 39  0  0  0  0  0  0  0  0999 V2000
   20.8439   -4.2259   11.4268 N   0  0  0  0  0  0  0  0  0  0  0  0
   18.1436   -4.1668    6.0822 C   0  0  0  0  0  0  0  0  0  0  0  0
   19.3642   -3.8203    6.6964 C   0  0  0  0  0  0  0  0  0  0  0  0
   19.5343   -4.1325    8.0449 C   0  0  0  0  0  0  0  0  0  0  0  0
   20.5934   -3.8795    8.9707 C   0  0  0  0  0  0  0  0  0  0  0  0
   20.1367   -4.3476   10.2507 C   0  0  0  0  0  0  0  0  0  0  0  0
   18.4967   -4.7682    8.7801 C   0  0  0  0  0  0  0  0  0  0  0  0
   21.8844   -3.3107    8.9281 C   0  0  0  0  0  0  0  0  0  0  0  0
   17.1218   -4.8244    6.8223 C   0  0  0  0  0  0  0  0  0  0  0  0
   17.2917   -5.1247    8.1914 C   0  0  0  0  0  0  0  0  0  0  0  0
   18.8814   -4.9003   10.1319 N   0  0  0  0  0  0  0  0  0  0  0  0
   22.0493   -3.5874   11.2515 C   0  0  0  0  0  0  0  0  0  0  0  0
   22.8085   -3.2910   12.5171 C   0  0  0  0  0  0  0  0  0  0  0  0
   22.6173   -3.1418   10.0706 N   0  0  0  0  0  0  0  0  0  0  0  0
   18.3520   -5.3104   10.8536 H   0  0  0  0  0  0  0  0  0  0  0  0
   20.9654   -0.9685    7.1452 C   0  0  0  0  0  0  0  0  0  0  0  0
   20.6858    0.1090    6.3787 C   0  0  0  0  0  0  0  0  0  0  0  0
   24.3967   -3.2044    6.1254 C   0  0  0  0  0  0  0  0  0  0  0  0
   22.8976   -1.4575    5.7088 C   0  0  0  0  0  0  0  0  0  0  0  0
   22.5663   -0.3161    4.9052 C   0  0  0  0  0  0  0  0  0  0  0  0
   21.4853    0.4593    5.2467 C   0  0  0  0  0  0  0  0  0  0  0  0
   23.6755   -3.6118    7.3011 C   0  0  0  0  0  0  0  0  0  0  0  0
   22.5479   -2.9154    7.6669 C   0  0  0  0  0  0  0  0  0  0  0  0
   24.0513   -2.1837    5.3454 N   0  0  0  0  0  0  0  0  0  0  0  0
   22.0997   -1.7930    6.8546 C   0  0  0  0  0  0  0  0  0  0  0  0
   14.5357   -3.0495    6.0170 C   0  0  0  0  0  0  0  0  0  0  0  0
   14.8408   -4.4679    5.8423 C   0  0  0  0  0  0  0  0  0  0  0  0
   15.9150   -5.2379    6.1530 C   0  0  0  0  0  0  0  0  0  0  0  0
   15.5672   -6.5687    5.6968 C   0  0  0  0  0  0  0  0  0  0  0  0
   16.4005   -7.7859    5.7795 C   0  0  0  0  0  0  0  0  0  0  0  0
   14.3354   -6.5241    5.1706 N   0  0  0  0  0  0  0  0  0  0  0  0
   13.8834   -5.2470    5.2490 O   0  0  0  0  0  0  0  0  0  0  0  0
   18.6741   -2.8968    4.0513 C   0  0  0  0  0  0  0  0  0  0  0  0
   17.9056   -3.8836    4.7297 O   0  0  0  0  0  0  0  0  0  0  0  0
 31 32  1  0  0  0
 31 29  2  0  0  0
 32 27  1  0  0  0
 29 30  1  0  0  0
 29 28  1  0  0  0
 27 26  1  0  0  0
 27 28  2  0  0  0
 28  9  1  0  0  0
 10  9  2  0  0  0
 10  7  1  0  0  0
  9  2  1  0  0  0
 11  7  1  0  0  0
 11  6  1  0  0  0
  7  4  2  0  0  0
  6  1  2  0  0  0
  6  5  1  0  0  0
  2 34  1  0  0  0
  2  3  2  0  0  0
  1 12  1  0  0  0
  4  3  1  0  0  0
  4  5  1  0  0  0
 34 33  1  0  0  0
  5  8  2  0  0  0
 12 13  1  0  0  0
 12 14  2  0  0  0
  8 14  1  0  0  0
  8 23  1  0  0  0
 23 22  2  0  0  0
 23 25  1  0  0  0
 16 25  2  0  0  0
 16 17  1  0  0  0
 22 18  1  0  0  0
 25 19  1  0  0  0
 17 21  2  0  0  0
 18 24  2  0  0  0
 19 24  1  0  0  0
 19 20  2  0  0  0
 21 20  1  0  0  0
 11 15  1  0  0  0
M  END
> <minimizedAffinity>
-8.16723

$$$$
5UOO_8FV_A_501


 34 39  0  0  0  0  0  0  0  0999 V2000
   22.0886   -4.0716   12.1549 N   0  0  0  0  0  0  0  0  0  0  0  0
   21.7783   -2.7200    6.3294 C   0  0  0  0  0  0  0  0  0  0  0  0
   21.0793   -3.4278    7.3281 C   0  0  0  0  0  0  0  0  0  0  0  0
   21.5569   -3.3635    8.6368 C   0  0  0  0  0  0  0  0  0  0  0  0
   21.1380   -3.9890    9.8517 C   0  0  0  0  0  0  0  0  0  0  0  0
   22.0994   -3.6183   10.8539 C   0  0  0  0  0  0  0  0  0  0  0  0
   22.7260   -2.6167    8.9478 C   0  0  0  0  0  0  0  0  0  0  0  0
   20.0841   -4.8315   10.2660 C   0  0  0  0  0  0  0  0  0  0  0  0
   22.9333   -1.9565    6.6570 C   0  0  0  0  0  0  0  0  0  0  0  0
   23.4229   -1.9066    7.9803 C   0  0  0  0  0  0  0  0  0  0  0  0
   23.0451   -2.7762   10.3137 N   0  0  0  0  0  0  0  0  0  0  0  0
   21.0522   -4.9418   12.3997 C   0  0  0  0  0  0  0  0  0  0  0  0
   21.0645   -5.5883   13.7591 C   0  0  0  0  0  0  0  0  0  0  0  0
   20.0410   -5.3313   11.5385 N   0  0  0  0  0  0  0  0  0  0  0  0
   23.8012   -2.3631   10.7901 H   0  0  0  0  0  0  0  0  0  0  0  0
   19.2939   -7.7184    9.5243 C   0  0  0  0  0  0  0  0  0  0  0  0
   18.8267   -8.9569    9.2509 C   0  0  0  0  0  0  0  0  0  0  0  0
   16.9983   -4.4582    8.1407 C   0  0  0  0  0  0  0  0  0  0  0  0
   17.3956   -6.7584    8.2952 C   0  0  0  0  0  0  0  0  0  0  0  0
   16.9332   -8.0858    8.0083 C   0  0  0  0  0  0  0  0  0  0  0  0
   17.6331   -9.1640    8.4921 C   0  0  0  0  0  0  0  0  0  0  0  0
   18.1639   -4.1518    8.9254 C   0  0  0  0  0  0  0  0  0  0  0  0
   18.9444   -5.1832    9.3916 C   0  0  0  0  0  0  0  0  0  0  0  0
   16.6063   -5.6888    7.8224 N   0  0  0  0  0  0  0  0  0  0  0  0
   18.5861   -6.5582    9.0728 C   0  0  0  0  0  0  0  0  0  0  0  0
   25.6336   -2.6329    5.0024 C   0  0  0  0  0  0  0  0  0  0  0  0
   24.7269   -1.4873    4.9679 C   0  0  0  0  0  0  0  0  0  0  0  0
   23.5843   -1.1795    5.6334 C   0  0  0  0  0  0  0  0  0  0  0  0
   23.1847    0.1133    5.1147 C   0  0  0  0  0  0  0  0  0  0  0  0
   21.9906    0.8962    5.4943 C   0  0  0  0  0  0  0  0  0  0  0  0
   24.0926    0.5015    4.2084 N   0  0  0  0  0  0  0  0  0  0  0  0
   25.0359   -0.4687    4.1062 O   0  0  0  0  0  0  0  0  0  0  0  0
   20.0640   -2.2540    4.6374 C   0  0  0  0  0  0  0  0  0  0  0  0
   21.3531   -2.7399    4.9934 O   0  0  0  0  0  0  0  0  0  0  0  0
 31 32  1  0  0  0
 31 29  2  0  0  0
 32 27  1  0  0  0
 29 30  1  0  0  0
 29 28  1  0  0  0
 27 26  1  0  0  0
 27 28  2  0  0  0
 28  9  1  0  0  0
 10  9  2  0  0  0
 10  7  1  0  0  0
  9  2  1  0  0  0
 11  7  1  0  0  0
 11  6  1  0  0  0
  7  4  2  0  0  0
  6  1  2  0  0  0
  6  5  1  0  0  0
  2 34  1  0  0  0
  2  3  2  0  0  0
  1 12  1  0  0  0
  4  3  1  0  0  0
  4  5  1  0  0  0
 34 33  1  0  0  0
  5  8  2  0  0  0
 12 13  1  0  0  0
 12 14  2  0  0  0
  8 14  1  0  0  0
  8 23  1  0  0  0
 23 22  2  0  0  0
 23 25  1  0  0  0
 16 25  2  0  0  0
 16 17  1  0  0  0
 22 18  1  0  0  0
 25 19  1  0  0  0
 17 21  2  0  0  0
 18 24  2  0  0  0
 19 24  1  0  0  0
 19 20  2  0  0  0
 21 20  1  0  0  0
 11 15  1  0  0  0
M  END
> <minimizedAffinity>
-7.54023

$$$$
5UOO_8FV_A_501


 34 39  0  0  0  0  0  0  0  0999 V2000
   20.7506   -4.6306   11.6283 N   0  0  0  0  0  0  0  0  0  0  0  0
   18.0966   -4.1526    6.2816 C   0  0  0  0  0  0  0  0  0  0  0  0
   19.2726   -3.7706    6.9586 C   0  0  0  0  0  0  0  0  0  0  0  0
   19.4629   -4.2342    8.2600 C   0  0  0  0  0  0  0  0  0  0  0  0
   20.4851   -3.9999    9.2311 C   0  0  0  0  0  0  0  0  0  0  0  0
   20.0674   -4.6693   10.4326 C   0  0  0  0  0  0  0  0  0  0  0  0
   18.4876   -5.0558    8.8886 C   0  0  0  0  0  0  0  0  0  0  0  0
   21.7140   -3.3080    9.2861 C   0  0  0  0  0  0  0  0  0  0  0  0
   17.1393   -4.9949    6.9125 C   0  0  0  0  0  0  0  0  0  0  0  0
   17.3279   -5.4494    8.2359 C   0  0  0  0  0  0  0  0  0  0  0  0
   18.8736   -5.3213   10.2203 N   0  0  0  0  0  0  0  0  0  0  0  0
   21.8884   -3.8612   11.5589 C   0  0  0  0  0  0  0  0  0  0  0  0
   22.6055   -3.6564   12.8665 C   0  0  0  0  0  0  0  0  0  0  0  0
   22.4184   -3.2159   10.4550 N   0  0  0  0  0  0  0  0  0  0  0  0
   18.3819   -5.8693   10.8738 H   0  0  0  0  0  0  0  0  0  0  0  0
   24.5392   -4.0052    8.2657 C   0  0  0  0  0  0  0  0  0  0  0  0
   25.7201   -4.3428    7.7015 C   0  0  0  0  0  0  0  0  0  0  0  0
   22.1415   -1.2326    6.1735 C   0  0  0  0  0  0  0  0  0  0  0  0
   24.1230   -2.4541    6.4065 C   0  0  0  0  0  0  0  0  0  0  0  0
   25.3889   -2.8216    5.8402 C   0  0  0  0  0  0  0  0  0  0  0  0
   26.1648   -3.7612    6.4738 C   0  0  0  0  0  0  0  0  0  0  0  0
   21.5951   -1.7902    7.3813 C   0  0  0  0  0  0  0  0  0  0  0  0
   22.3445   -2.6928    8.0982 C   0  0  0  0  0  0  0  0  0  0  0  0
   23.3425   -1.5275    5.6835 N   0  0  0  0  0  0  0  0  0  0  0  0
   23.6753   -3.0554    7.6312 C   0  0  0  0  0  0  0  0  0  0  0  0
   16.5093   -7.9235    5.6823 C   0  0  0  0  0  0  0  0  0  0  0  0
   15.7577   -6.6704    5.6578 C   0  0  0  0  0  0  0  0  0  0  0  0
   15.9840   -5.4347    6.1727 C   0  0  0  0  0  0  0  0  0  0  0  0
   14.8289   -4.6499    5.7859 C   0  0  0  0  0  0  0  0  0  0  0  0
   14.5651   -3.2325    6.1088 C   0  0  0  0  0  0  0  0  0  0  0  0
   14.0103   -5.4320    5.0687 N   0  0  0  0  0  0  0  0  0  0  0  0
   14.5633   -6.6685    4.9876 O   0  0  0  0  0  0  0  0  0  0  0  0
   18.8102   -2.9636    4.2578 C   0  0  0  0  0  0  0  0  0  0  0  0
   17.8418   -3.7238    4.9711 O   0  0  0  0  0  0  0  0  0  0  0  0
 31 32  1  0  0  0
 31 29  2  0  0  0
 32 27  1  0  0  0
 29 30  1  0  0  0
 29 28  1  0  0  0
 27 26  1  0  0  0
 27 28  2  0  0  0
 28  9  1  0  0  0
 10  9  2  0  0  0
 10  7  1  0  0  0
  9  2  1  0  0  0
 11  7  1  0  0  0
 11  6  1  0  0  0
  7  4  2  0  0  0
  6  1  2  0  0  0
  6  5  1  0  0  0
  2 34  1  0  0  0
  2  3  2  0  0  0
  1 12  1  0  0  0
  4  3  1  0  0  0
  4  5  1  0  0  0
 34 33  1  0  0  0
  5  8  2  0  0  0
 12 13  1  0  0  0
 12 14  2  0  0  0
  8 14  1  0  0  0
  8 23  1  0  0  0
 23 22  2  0  0  0
 23 25  1  0  0  0
 16 25  2  0  0  0
 16 17  1  0  0  0
 22 18  1  0  0  0
 25 19  1  0  0  0
 17 21  2  0  0  0
 18 24  2  0  0  0
 19 24  1  0  0  0
 19 20  2  0  0  0
 21 20  1  0  0  0
 11 15  1  0  0  0
M  END
> <minimizedAffinity>
-7.37241

$$$$
