1ECV_878_A_301


 19 19  0  0  0  0  0  0  0  0999 V2000
   12.8410   45.1421   19.0932 C   0  0  0  0  0  0  0  0  0  0  0  0
   11.9778   45.8027   19.9642 C   0  0  0  0  0  0  0  0  0  0  0  0
   10.6051   45.7359   19.7071 C   0  0  0  0  0  0  0  0  0  0  0  0
   10.1223   45.0629   18.5744 C   0  0  0  0  0  0  0  0  0  0  0  0
   10.9758   44.3649   17.7314 C   0  0  0  0  0  0  0  0  0  0  0  0
   12.3350   44.3873   18.0172 C   0  0  0  0  0  0  0  0  0  0  0  0
   13.6244   43.2347   16.8281 I   0  0  0  0  0  0  0  0  0  0  0  0
    8.6626   45.0329   18.2868 C   0  0  0  0  0  0  0  0  0  0  0  0
    7.8270   44.8770   19.1258 O   0  0  0  0  0  0  0  0  0  0  0  0
    8.3214   45.0856   16.9967 O   0  0  0  0  0  0  0  0  0  0  0  0
    8.9808   45.2080   16.3424 H   0  0  0  0  0  0  0  0  0  0  0  0
    9.6778   46.2231   20.5718 N   0  0  0  0  0  0  0  0  0  0  0  0
    9.5783   47.4268   21.1717 C   0  0  0  0  0  0  0  0  0  0  0  0
   10.4577   48.2891   21.1234 O   0  0  0  0  0  0  0  0  0  0  0  0
    8.9575   45.5915   20.7987 H   0  0  0  0  0  0  0  0  0  0  0  0
    8.2753   47.6233   22.0412 C   0  0  0  0  0  0  0  0  0  0  0  0
    8.0384   48.6065   22.6797 O   0  0  0  0  0  0  0  0  0  0  0  0
    7.3553   46.6838   21.9390 O   0  0  0  0  0  0  0  0  0  0  0  0
    7.5299   45.9093   21.4413 H   0  0  0  0  0  0  0  0  0  0  0  0
  1  2  2  0  0  0
  1  6  1  0  0  0
  2  3  1  0  0  0
  3  4  2  0  0  0
  3 12  1  0  0  0
  4  5  1  0  0  0
  4  8  1  0  0  0
  5  6  2  0  0  0
  6  7  1  0  0  0
  8  9  2  0  0  0
  8 10  1  0  0  0
 12 13  1  0  0  0
 13 14  2  0  0  0
 13 16  1  0  0  0
 16 17  2  0  0  0
 16 18  1  0  0  0
 10 11  1  0  0  0
 12 15  1  0  0  0
 18 19  1  0  0  0
M  END
> <minimizedAffinity>
-8.16362

$$$$
1ECV_878_A_301


 19 19  0  0  0  0  0  0  0  0999 V2000
   12.9222   44.2410   18.1719 C   0  0  0  0  0  0  0  0  0  0  0  0
   12.1038   44.8459   19.1229 C   0  0  0  0  0  0  0  0  0  0  0  0
   10.7700   45.0913   18.7830 C   0  0  0  0  0  0  0  0  0  0  0  0
   10.2904   44.7800   17.5017 C   0  0  0  0  0  0  0  0  0  0  0  0
   11.0903   44.1351   16.5687 C   0  0  0  0  0  0  0  0  0  0  0  0
   12.4007   43.8435   16.9255 C   0  0  0  0  0  0  0  0  0  0  0  0
   13.5848   42.7568   15.5755 I   0  0  0  0  0  0  0  0  0  0  0  0
    8.8802   45.0834   17.1359 C   0  0  0  0  0  0  0  0  0  0  0  0
    7.9760   45.0615   17.9159 O   0  0  0  0  0  0  0  0  0  0  0  0
    8.6456   45.2861   15.8369 O   0  0  0  0  0  0  0  0  0  0  0  0
    9.3584   45.3024   15.2290 H   0  0  0  0  0  0  0  0  0  0  0  0
    9.8602   45.5431   19.6848 N   0  0  0  0  0  0  0  0  0  0  0  0
    9.9551   46.5023   20.6280 C   0  0  0  0  0  0  0  0  0  0  0  0
   11.0098   47.0670   20.9245 O   0  0  0  0  0  0  0  0  0  0  0  0
    8.9845   45.0951   19.6427 H   0  0  0  0  0  0  0  0  0  0  0  0
    8.6156   46.7887   21.4127 C   0  0  0  0  0  0  0  0  0  0  0  0
    7.6960   46.0260   21.4683 O   0  0  0  0  0  0  0  0  0  0  0  0
    8.5870   47.8871   22.1422 O   0  0  0  0  0  0  0  0  0  0  0  0
    9.3019   48.4918   22.1067 H   0  0  0  0  0  0  0  0  0  0  0  0
  1  2  2  0  0  0
  1  6  1  0  0  0
  2  3  1  0  0  0
  3  4  2  0  0  0
  3 12  1  0  0  0
  4  5  1  0  0  0
  4  8  1  0  0  0
  5  6  2  0  0  0
  6  7  1  0  0  0
  8  9  2  0  0  0
  8 10  1  0  0  0
 12 13  1  0  0  0
 13 14  2  0  0  0
 13 16  1  0  0  0
 16 17  2  0  0  0
 16 18  1  0  0  0
 10 11  1  0  0  0
 12 15  1  0  0  0
 18 19  1  0  0  0
M  END
> <minimizedAffinity>
-6.55069

$$$$
1ECV_878_A_301


 19 19  0  0  0  0  0  0  0  0999 V2000
   13.3350   43.4758   17.0400 C   0  0  0  0  0  0  0  0  0  0  0  0
   12.3219   43.8371   17.9250 C   0  0  0  0  0  0  0  0  0  0  0  0
   11.1313   44.3410   17.3924 C   0  0  0  0  0  0  0  0  0  0  0  0
   10.9879   44.5213   16.0083 C   0  0  0  0  0  0  0  0  0  0  0  0
   11.9770   44.1188   15.1218 C   0  0  0  0  0  0  0  0  0  0  0  0
   13.1388   43.5690   15.6486 C   0  0  0  0  0  0  0  0  0  0  0  0
   14.5898   42.8393   14.3192 I   0  0  0  0  0  0  0  0  0  0  0  0
    9.7326   45.0973   15.4544 C   0  0  0  0  0  0  0  0  0  0  0  0
    8.6411   44.7641   15.8067 O   0  0  0  0  0  0  0  0  0  0  0  0
    9.8819   45.9549   14.4417 O   0  0  0  0  0  0  0  0  0  0  0  0
   10.7404   46.2132   14.1692 H   0  0  0  0  0  0  0  0  0  0  0  0
   10.0370   44.5857   18.1589 N   0  0  0  0  0  0  0  0  0  0  0  0
    9.8765   45.3764   19.2396 C   0  0  0  0  0  0  0  0  0  0  0  0
   10.8078   45.9383   19.8195 O   0  0  0  0  0  0  0  0  0  0  0  0
    9.2247   44.1054   17.8784 H   0  0  0  0  0  0  0  0  0  0  0  0
    8.3966   45.4552   19.7836 C   0  0  0  0  0  0  0  0  0  0  0  0
    8.0962   45.9265   20.8410 O   0  0  0  0  0  0  0  0  0  0  0  0
    7.4448   45.0855   18.9488 O   0  0  0  0  0  0  0  0  0  0  0  0
    7.6684   44.7151   18.1177 H   0  0  0  0  0  0  0  0  0  0  0  0
  1  2  2  0  0  0
  1  6  1  0  0  0
  2  3  1  0  0  0
  3  4  2  0  0  0
  3 12  1  0  0  0
  4  5  1  0  0  0
  4  8  1  0  0  0
  5  6  2  0  0  0
  6  7  1  0  0  0
  8  9  2  0  0  0
  8 10  1  0  0  0
 12 13  1  0  0  0
 13 14  2  0  0  0
 13 16  1  0  0  0
 16 17  2  0  0  0
 16 18  1  0  0  0
 10 11  1  0  0  0
 12 15  1  0  0  0
 18 19  1  0  0  0
M  END
> <minimizedAffinity>
-6.16892

$$$$
1ECV_878_A_301


 19 19  0  0  0  0  0  0  0  0999 V2000
   10.4042   44.9374   18.9079 C   0  0  0  0  0  0  0  0  0  0  0  0
   11.0621   44.0691   18.0401 C   0  0  0  0  0  0  0  0  0  0  0  0
   12.4556   44.1497   17.9594 C   0  0  0  0  0  0  0  0  0  0  0  0
   13.1593   45.1138   18.6970 C   0  0  0  0  0  0  0  0  0  0  0  0
   12.5115   45.9484   19.5969 C   0  0  0  0  0  0  0  0  0  0  0  0
   11.1324   45.8319   19.7161 C   0  0  0  0  0  0  0  0  0  0  0  0
   10.1534   46.9963   21.1621 I   0  0  0  0  0  0  0  0  0  0  0  0
   14.6385   45.2191   18.5724 C   0  0  0  0  0  0  0  0  0  0  0  0
   15.4040   44.6755   19.3106 O   0  0  0  0  0  0  0  0  0  0  0  0
   15.0863   46.0571   17.6340 O   0  0  0  0  0  0  0  0  0  0  0  0
   14.4816   46.4811   17.0573 H   0  0  0  0  0  0  0  0  0  0  0  0
   13.1970   43.2560   17.2546 N   0  0  0  0  0  0  0  0  0  0  0  0
   13.2350   42.9897   15.9331 C   0  0  0  0  0  0  0  0  0  0  0  0
   12.4426   43.4647   15.1173 O   0  0  0  0  0  0  0  0  0  0  0  0
   13.8093   42.7112   17.8001 H   0  0  0  0  0  0  0  0  0  0  0  0
   14.3233   41.9286   15.5064 C   0  0  0  0  0  0  0  0  0  0  0  0
   14.2954   40.7760   15.8246 O   0  0  0  0  0  0  0  0  0  0  0  0
   15.2362   42.3383   14.6473 O   0  0  0  0  0  0  0  0  0  0  0  0
   15.2675   43.2390   14.3909 H   0  0  0  0  0  0  0  0  0  0  0  0
  1  2  2  0  0  0
  1  6  1  0  0  0
  2  3  1  0  0  0
  3  4  2  0  0  0
  3 12  1  0  0  0
  4  5  1  0  0  0
  4  8  1  0  0  0
  5  6  2  0  0  0
  6  7  1  0  0  0
  8  9  2  0  0  0
  8 10  1  0  0  0
 12 13  1  0  0  0
 13 14  2  0  0  0
 13 16  1  0  0  0
 16 17  2  0  0  0
 16 18  1  0  0  0
 10 11  1  0  0  0
 12 15  1  0  0  0
 18 19  1  0  0  0
M  END
> <minimizedAffinity>
-5.93585

$$$$
1ECV_878_A_301


 19 19  0  0  0  0  0  0  0  0999 V2000
   10.1655   44.3564   15.9136 C   0  0  0  0  0  0  0  0  0  0  0  0
    9.5178   44.7957   17.0658 C   0  0  0  0  0  0  0  0  0  0  0  0
   10.3022   45.1462   18.1688 C   0  0  0  0  0  0  0  0  0  0  0  0
   11.6979   45.0091   18.1254 C   0  0  0  0  0  0  0  0  0  0  0  0
   12.3487   44.6165   16.9641 C   0  0  0  0  0  0  0  0  0  0  0  0
   11.5720   44.3192   15.8515 C   0  0  0  0  0  0  0  0  0  0  0  0
   12.5445   43.8472   14.0524 I   0  0  0  0  0  0  0  0  0  0  0  0
   12.5208   45.3452   19.3189 C   0  0  0  0  0  0  0  0  0  0  0  0
   12.0674   45.7924   20.3292 O   0  0  0  0  0  0  0  0  0  0  0  0
   13.8419   45.2188   19.1705 O   0  0  0  0  0  0  0  0  0  0  0  0
   14.1926   44.8674   18.3758 H   0  0  0  0  0  0  0  0  0  0  0  0
    9.7771   45.7186   19.2831 N   0  0  0  0  0  0  0  0  0  0  0  0
    8.6449   45.4472   19.9637 C   0  0  0  0  0  0  0  0  0  0  0  0
    7.7810   44.6624   19.5675 O   0  0  0  0  0  0  0  0  0  0  0  0
   10.3130   46.4552   19.6566 H   0  0  0  0  0  0  0  0  0  0  0  0
    8.4494   46.2949   21.2810 C   0  0  0  0  0  0  0  0  0  0  0  0
    7.3947   46.4612   21.8199 O   0  0  0  0  0  0  0  0  0  0  0  0
    9.5483   46.7291   21.8671 O   0  0  0  0  0  0  0  0  0  0  0  0
   10.3801   46.6044   21.4542 H   0  0  0  0  0  0  0  0  0  0  0  0
  1  2  2  0  0  0
  1  6  1  0  0  0
  2  3  1  0  0  0
  3  4  2  0  0  0
  3 12  1  0  0  0
  4  5  1  0  0  0
  4  8  1  0  0  0
  5  6  2  0  0  0
  6  7  1  0  0  0
  8  9  2  0  0  0
  8 10  1  0  0  0
 12 13  1  0  0  0
 13 14  2  0  0  0
 13 16  1  0  0  0
 16 17  2  0  0  0
 16 18  1  0  0  0
 10 11  1  0  0  0
 12 15  1  0  0  0
 18 19  1  0  0  0
M  END
> <minimizedAffinity>
-5.86712

$$$$
1ECV_878_A_301


 19 19  0  0  0  0  0  0  0  0999 V2000
   11.3693   44.1760   17.4719 C   0  0  0  0  0  0  0  0  0  0  0  0
   12.4978   44.3086   18.2777 C   0  0  0  0  0  0  0  0  0  0  0  0
   13.5219   45.1548   17.8420 C   0  0  0  0  0  0  0  0  0  0  0  0
   13.4300   45.8090   16.6041 C   0  0  0  0  0  0  0  0  0  0  0  0
   12.2876   45.7156   15.8215 C   0  0  0  0  0  0  0  0  0  0  0  0
   11.2480   44.9165   16.2801 C   0  0  0  0  0  0  0  0  0  0  0  0
    9.4657   44.8645   15.1730 I   0  0  0  0  0  0  0  0  0  0  0  0
   14.5438   46.6747   16.1302 C   0  0  0  0  0  0  0  0  0  0  0  0
   15.4226   46.2901   15.4187 O   0  0  0  0  0  0  0  0  0  0  0  0
   14.5762   47.9110   16.6340 O   0  0  0  0  0  0  0  0  0  0  0  0
   13.8843   48.2079   17.1917 H   0  0  0  0  0  0  0  0  0  0  0  0
   14.5933   45.4610   18.6188 N   0  0  0  0  0  0  0  0  0  0  0  0
   15.7943   44.8597   18.7409 C   0  0  0  0  0  0  0  0  0  0  0  0
   16.0726   43.7775   18.2208 O   0  0  0  0  0  0  0  0  0  0  0  0
   14.4730   46.2551   19.1881 H   0  0  0  0  0  0  0  0  0  0  0  0
   16.8080   45.6021   19.6967 C   0  0  0  0  0  0  0  0  0  0  0  0
   17.3410   45.0885   20.6362 O   0  0  0  0  0  0  0  0  0  0  0  0
   17.1637   46.8212   19.3407 O   0  0  0  0  0  0  0  0  0  0  0  0
   16.7529   47.2334   18.6063 H   0  0  0  0  0  0  0  0  0  0  0  0
  1  2  2  0  0  0
  1  6  1  0  0  0
  2  3  1  0  0  0
  3  4  2  0  0  0
  3 12  1  0  0  0
  4  5  1  0  0  0
  4  8  1  0  0  0
  5  6  2  0  0  0
  6  7  1  0  0  0
  8  9  2  0  0  0
  8 10  1  0  0  0
 12 13  1  0  0  0
 13 14  2  0  0  0
 13 16  1  0  0  0
 16 17  2  0  0  0
 16 18  1  0  0  0
 10 11  1  0  0  0
 12 15  1  0  0  0
 18 19  1  0  0  0
M  END
> <minimizedAffinity>
-5.24088

$$$$
