1TRD_PGH_B_300


 14 13  0  0  0  0  0  0  0  0999 V2000
    8.0853  -24.0801  -17.3776 C   0  0  0  0  0  0  0  0  0  0  0  0
    8.5527  -23.2218  -18.5066 C   0  0  0  0  0  0  0  0  0  0  0  0
    7.4738  -22.8404  -19.2829 N   0  0  0  0  0  0  0  0  0  0  0  0
    7.7044  -22.4680  -20.4789 O   0  0  0  0  0  0  0  0  0  0  0  0
    9.7864  -22.8846  -18.6681 O   0  0  0  0  0  0  0  0  0  0  0  0
    6.5576  -22.8561  -18.9230 H   0  0  0  0  0  0  0  0  0  0  0  0
    8.6570  -22.5177  -20.6549 H   0  0  0  0  0  0  0  0  0  0  0  0
    7.3009  -23.4386  -16.3729 O   0  0  0  0  0  0  0  0  0  0  0  0
    5.2619  -22.7671  -14.9548 O   0  0  0  0  0  0  0  0  0  0  0  0
    5.0511  -22.7981  -17.4820 O   0  0  0  0  0  0  0  0  0  0  0  0
    5.3028  -24.9672  -16.1956 O   0  0  0  0  0  0  0  0  0  0  0  0
    5.7169  -23.4832  -16.2652 P   0  0  0  0  0  0  0  0  0  0  0  0
    5.3189  -21.8664  -17.5150 H   0  0  0  0  0  0  0  0  0  0  0  0
    5.7260  -25.3854  -15.4296 H   0  0  0  0  0  0  0  0  0  0  0  0
  2  1  1  0  0  0
  2  3  1  0  0  0
  2  5  2  0  0  0
  1  8  1  0  0  0
  3  4  1  0  0  0
  8 12  1  0  0  0
  9 12  2  0  0  0
 10 12  1  0  0  0
 11 12  1  0  0  0
  3  6  1  0  0  0
  4  7  1  0  0  0
 10 13  1  0  0  0
 11 14  1  0  0  0
M  END
> <minimizedAffinity>
-6.12420

$$$$
1TRD_PGH_B_300


 14 13  0  0  0  0  0  0  0  0999 V2000
    9.5331  -23.3364  -17.9735 C   0  0  0  0  0  0  0  0  0  0  0  0
    9.6621  -22.2620  -19.0025 C   0  0  0  0  0  0  0  0  0  0  0  0
   10.9242  -21.7007  -18.9380 N   0  0  0  0  0  0  0  0  0  0  0  0
   11.0827  -20.5369  -19.4306 O   0  0  0  0  0  0  0  0  0  0  0  0
    8.7190  -21.9653  -19.8298 O   0  0  0  0  0  0  0  0  0  0  0  0
   11.6755  -22.1847  -18.5250 H   0  0  0  0  0  0  0  0  0  0  0  0
   10.2393  -20.2204  -19.7903 H   0  0  0  0  0  0  0  0  0  0  0  0
    8.4881  -24.2872  -18.1737 O   0  0  0  0  0  0  0  0  0  0  0  0
    7.0624  -24.3559  -16.0331 O   0  0  0  0  0  0  0  0  0  0  0  0
    6.3653  -22.8254  -17.9314 O   0  0  0  0  0  0  0  0  0  0  0  0
    6.1967  -25.3406  -18.1924 O   0  0  0  0  0  0  0  0  0  0  0  0
    7.0169  -24.1848  -17.5841 P   0  0  0  0  0  0  0  0  0  0  0  0
    6.8895  -22.1071  -17.5438 H   0  0  0  0  0  0  0  0  0  0  0  0
    6.6147  -26.1867  -17.9681 H   0  0  0  0  0  0  0  0  0  0  0  0
  2  1  1  0  0  0
  2  3  1  0  0  0
  2  5  2  0  0  0
  1  8  1  0  0  0
  3  4  1  0  0  0
  8 12  1  0  0  0
  9 12  2  0  0  0
 10 12  1  0  0  0
 11 12  1  0  0  0
  3  6  1  0  0  0
  4  7  1  0  0  0
 10 13  1  0  0  0
 11 14  1  0  0  0
M  END
> <minimizedAffinity>
-5.88087

$$$$
1TRD_PGH_B_300


 14 13  0  0  0  0  0  0  0  0999 V2000
    7.8401  -24.8437  -17.9319 C   0  0  0  0  0  0  0  0  0  0  0  0
    6.4898  -24.5429  -17.3698 C   0  0  0  0  0  0  0  0  0  0  0  0
    6.0274  -23.3430  -17.8782 N   0  0  0  0  0  0  0  0  0  0  0  0
    5.1173  -22.7336  -17.2283 O   0  0  0  0  0  0  0  0  0  0  0  0
    5.8730  -25.3358  -16.5619 O   0  0  0  0  0  0  0  0  0  0  0  0
    6.3898  -22.9719  -18.7150 H   0  0  0  0  0  0  0  0  0  0  0  0
    4.8873  -23.2454  -16.4370 H   0  0  0  0  0  0  0  0  0  0  0  0
    8.5704  -23.7376  -18.4603 O   0  0  0  0  0  0  0  0  0  0  0  0
   10.2200  -21.7633  -18.4820 O   0  0  0  0  0  0  0  0  0  0  0  0
    9.9460  -23.1191  -16.3562 O   0  0  0  0  0  0  0  0  0  0  0  0
   11.0584  -24.1445  -18.3895 O   0  0  0  0  0  0  0  0  0  0  0  0
    9.9517  -23.1875  -17.9017 P   0  0  0  0  0  0  0  0  0  0  0  0
    9.2467  -22.5149  -16.0619 H   0  0  0  0  0  0  0  0  0  0  0  0
   11.0519  -24.1789  -19.3589 H   0  0  0  0  0  0  0  0  0  0  0  0
  2  1  1  0  0  0
  2  3  1  0  0  0
  2  5  2  0  0  0
  1  8  1  0  0  0
  3  4  1  0  0  0
  8 12  1  0  0  0
  9 12  2  0  0  0
 10 12  1  0  0  0
 11 12  1  0  0  0
  3  6  1  0  0  0
  4  7  1  0  0  0
 10 13  1  0  0  0
 11 14  1  0  0  0
M  END
> <minimizedAffinity>
-5.85669

$$$$
1TRD_PGH_B_300


 14 13  0  0  0  0  0  0  0  0999 V2000
    8.7420  -24.2103  -17.0937 C   0  0  0  0  0  0  0  0  0  0  0  0
    9.4590  -23.2588  -17.9939 C   0  0  0  0  0  0  0  0  0  0  0  0
   10.7998  -23.2166  -17.6585 N   0  0  0  0  0  0  0  0  0  0  0  0
   11.4710  -22.1964  -18.0204 O   0  0  0  0  0  0  0  0  0  0  0  0
    8.8752  -22.6230  -18.9515 O   0  0  0  0  0  0  0  0  0  0  0  0
   11.2218  -23.9509  -17.1566 H   0  0  0  0  0  0  0  0  0  0  0  0
   10.8929  -21.5826  -18.5000 H   0  0  0  0  0  0  0  0  0  0  0  0
    7.5992  -23.6998  -16.4086 O   0  0  0  0  0  0  0  0  0  0  0  0
    5.3682  -22.4216  -16.5006 O   0  0  0  0  0  0  0  0  0  0  0  0
    6.0726  -23.8197  -18.4959 O   0  0  0  0  0  0  0  0  0  0  0  0
    5.4056  -24.9413  -16.3234 O   0  0  0  0  0  0  0  0  0  0  0  0
    6.1071  -23.7204  -16.9525 P   0  0  0  0  0  0  0  0  0  0  0  0
    6.5163  -23.0472  -18.8797 H   0  0  0  0  0  0  0  0  0  0  0  0
    5.4337  -24.8677  -15.3566 H   0  0  0  0  0  0  0  0  0  0  0  0
  2  1  1  0  0  0
  2  3  1  0  0  0
  2  5  2  0  0  0
  1  8  1  0  0  0
  3  4  1  0  0  0
  8 12  1  0  0  0
  9 12  2  0  0  0
 10 12  1  0  0  0
 11 12  1  0  0  0
  3  6  1  0  0  0
  4  7  1  0  0  0
 10 13  1  0  0  0
 11 14  1  0  0  0
M  END
> <minimizedAffinity>
-5.75556

$$$$
1TRD_PGH_B_300


 14 13  0  0  0  0  0  0  0  0999 V2000
    8.4439  -24.7020  -17.7539 C   0  0  0  0  0  0  0  0  0  0  0  0
    7.4233  -23.7108  -18.2077 C   0  0  0  0  0  0  0  0  0  0  0  0
    6.4956  -23.5007  -17.2041 N   0  0  0  0  0  0  0  0  0  0  0  0
    5.3602  -23.0273  -17.5341 O   0  0  0  0  0  0  0  0  0  0  0  0
    7.4667  -23.1365  -19.3610 O   0  0  0  0  0  0  0  0  0  0  0  0
    6.7058  -23.7101  -16.2653 H   0  0  0  0  0  0  0  0  0  0  0  0
    5.3357  -22.8850  -18.4933 H   0  0  0  0  0  0  0  0  0  0  0  0
    9.7899  -24.4617  -18.1619 O   0  0  0  0  0  0  0  0  0  0  0  0
   12.1625  -23.4667  -18.1428 O   0  0  0  0  0  0  0  0  0  0  0  0
   10.1765  -21.9163  -18.4331 O   0  0  0  0  0  0  0  0  0  0  0  0
   10.5812  -23.0700  -16.2132 O   0  0  0  0  0  0  0  0  0  0  0  0
   10.6747  -23.2099  -17.7462 P   0  0  0  0  0  0  0  0  0  0  0  0
   10.2401  -22.0164  -19.3958 H   0  0  0  0  0  0  0  0  0  0  0  0
   10.8959  -23.8863  -15.7942 H   0  0  0  0  0  0  0  0  0  0  0  0
  2  1  1  0  0  0
  2  3  1  0  0  0
  2  5  2  0  0  0
  1  8  1  0  0  0
  3  4  1  0  0  0
  8 12  1  0  0  0
  9 12  2  0  0  0
 10 12  1  0  0  0
 11 12  1  0  0  0
  3  6  1  0  0  0
  4  7  1  0  0  0
 10 13  1  0  0  0
 11 14  1  0  0  0
M  END
> <minimizedAffinity>
-5.67083

$$$$
1TRD_PGH_B_300


 14 13  0  0  0  0  0  0  0  0999 V2000
    8.6348  -22.1844  -19.4336 C   0  0  0  0  0  0  0  0  0  0  0  0
   10.0238  -21.9068  -18.9609 C   0  0  0  0  0  0  0  0  0  0  0  0
   10.5940  -20.9157  -19.7386 N   0  0  0  0  0  0  0  0  0  0  0  0
   11.8649  -20.8347  -19.7599 O   0  0  0  0  0  0  0  0  0  0  0  0
   10.5536  -22.5043  -17.9489 O   0  0  0  0  0  0  0  0  0  0  0  0
   10.0360  -20.2933  -20.2586 H   0  0  0  0  0  0  0  0  0  0  0  0
   12.2424  -21.5245  -19.1919 H   0  0  0  0  0  0  0  0  0  0  0  0
    8.1110  -23.4798  -19.1442 O   0  0  0  0  0  0  0  0  0  0  0  0
    6.5741  -25.2531  -18.0892 O   0  0  0  0  0  0  0  0  0  0  0  0
    8.1499  -23.9406  -16.5970 O   0  0  0  0  0  0  0  0  0  0  0  0
    6.1711  -22.7919  -17.6868 O   0  0  0  0  0  0  0  0  0  0  0  0
    7.2604  -23.8697  -17.8607 P   0  0  0  0  0  0  0  0  0  0  0  0
    8.8304  -24.6212  -16.7183 H   0  0  0  0  0  0  0  0  0  0  0  0
    5.6205  -22.7570  -18.4846 H   0  0  0  0  0  0  0  0  0  0  0  0
  2  1  1  0  0  0
  2  3  1  0  0  0
  2  5  2  0  0  0
  1  8  1  0  0  0
  3  4  1  0  0  0
  8 12  1  0  0  0
  9 12  2  0  0  0
 10 12  1  0  0  0
 11 12  1  0  0  0
  3  6  1  0  0  0
  4  7  1  0  0  0
 10 13  1  0  0  0
 11 14  1  0  0  0
M  END
> <minimizedAffinity>
-5.65427

$$$$
1TRD_PGH_B_300


 14 13  0  0  0  0  0  0  0  0999 V2000
    7.1927  -23.4140  -18.5075 C   0  0  0  0  0  0  0  0  0  0  0  0
    6.4341  -23.6897  -17.2511 C   0  0  0  0  0  0  0  0  0  0  0  0
    6.1930  -25.0466  -17.1377 N   0  0  0  0  0  0  0  0  0  0  0  0
    5.2391  -25.4192  -16.3805 O   0  0  0  0  0  0  0  0  0  0  0  0
    6.1085  -22.7678  -16.4110 O   0  0  0  0  0  0  0  0  0  0  0  0
    6.7406  -25.7029  -17.6261 H   0  0  0  0  0  0  0  0  0  0  0  0
    4.8160  -24.6404  -15.9863 H   0  0  0  0  0  0  0  0  0  0  0  0
    8.4108  -22.6839  -18.3682 O   0  0  0  0  0  0  0  0  0  0  0  0
   10.9671  -22.5622  -18.6329 O   0  0  0  0  0  0  0  0  0  0  0  0
    9.9868  -23.1168  -16.3606 O   0  0  0  0  0  0  0  0  0  0  0  0
    9.8117  -24.7785  -18.2661 O   0  0  0  0  0  0  0  0  0  0  0  0
    9.8006  -23.2836  -17.8873 P   0  0  0  0  0  0  0  0  0  0  0  0
    9.9782  -22.1735  -16.1349 H   0  0  0  0  0  0  0  0  0  0  0  0
    9.6942  -24.8701  -19.2246 H   0  0  0  0  0  0  0  0  0  0  0  0
  2  1  1  0  0  0
  2  3  1  0  0  0
  2  5  2  0  0  0
  1  8  1  0  0  0
  3  4  1  0  0  0
  8 12  1  0  0  0
  9 12  2  0  0  0
 10 12  1  0  0  0
 11 12  1  0  0  0
  3  6  1  0  0  0
  4  7  1  0  0  0
 10 13  1  0  0  0
 11 14  1  0  0  0
M  END
> <minimizedAffinity>
-5.53414

$$$$
1TRD_PGH_B_300


 14 13  0  0  0  0  0  0  0  0999 V2000
    9.7162  -23.6732  -17.0422 C   0  0  0  0  0  0  0  0  0  0  0  0
   10.6288  -23.3157  -18.1687 C   0  0  0  0  0  0  0  0  0  0  0  0
   10.2672  -22.0885  -18.6932 N   0  0  0  0  0  0  0  0  0  0  0  0
   10.6448  -21.8142  -19.8783 O   0  0  0  0  0  0  0  0  0  0  0  0
   11.6164  -24.0590  -18.5351 O   0  0  0  0  0  0  0  0  0  0  0  0
    9.7355  -21.4477  -18.1679 H   0  0  0  0  0  0  0  0  0  0  0  0
   11.1540  -22.5584  -20.2357 H   0  0  0  0  0  0  0  0  0  0  0  0
    8.6130  -24.5203  -17.3610 O   0  0  0  0  0  0  0  0  0  0  0  0
    7.4260  -23.2923  -19.2852 O   0  0  0  0  0  0  0  0  0  0  0  0
    6.2543  -25.2357  -18.1527 O   0  0  0  0  0  0  0  0  0  0  0  0
    6.6093  -23.0578  -16.9062 O   0  0  0  0  0  0  0  0  0  0  0  0
    7.2108  -24.0400  -17.9319 P   0  0  0  0  0  0  0  0  0  0  0  0
    6.6431  -25.8457  -18.7990 H   0  0  0  0  0  0  0  0  0  0  0  0
    7.2174  -22.3134  -16.7763 H   0  0  0  0  0  0  0  0  0  0  0  0
  2  1  1  0  0  0
  2  3  1  0  0  0
  2  5  2  0  0  0
  1  8  1  0  0  0
  3  4  1  0  0  0
  8 12  1  0  0  0
  9 12  2  0  0  0
 10 12  1  0  0  0
 11 12  1  0  0  0
  3  6  1  0  0  0
  4  7  1  0  0  0
 10 13  1  0  0  0
 11 14  1  0  0  0
M  END
> <minimizedAffinity>
-5.31404

$$$$
1TRD_PGH_B_300


 14 13  0  0  0  0  0  0  0  0999 V2000
    9.1259  -23.8324  -17.3586 C   0  0  0  0  0  0  0  0  0  0  0  0
    7.8685  -23.8940  -18.1617 C   0  0  0  0  0  0  0  0  0  0  0  0
    6.9606  -24.7363  -17.5466 N   0  0  0  0  0  0  0  0  0  0  0  0
    6.0270  -25.2268  -18.2608 O   0  0  0  0  0  0  0  0  0  0  0  0
    7.6918  -23.2140  -19.2426 O   0  0  0  0  0  0  0  0  0  0  0  0
    7.0334  -24.9497  -16.5883 H   0  0  0  0  0  0  0  0  0  0  0  0
    6.1153  -24.9073  -19.1724 H   0  0  0  0  0  0  0  0  0  0  0  0
   10.3454  -24.0453  -18.0681 O   0  0  0  0  0  0  0  0  0  0  0  0
   12.8136  -23.7969  -18.7510 O   0  0  0  0  0  0  0  0  0  0  0  0
   11.3367  -21.7360  -18.6900 O   0  0  0  0  0  0  0  0  0  0  0  0
   11.9908  -22.9015  -16.5367 O   0  0  0  0  0  0  0  0  0  0  0  0
   11.6219  -23.1013  -18.0208 P   0  0  0  0  0  0  0  0  0  0  0  0
   11.1061  -21.8746  -19.6220 H   0  0  0  0  0  0  0  0  0  0  0  0
   12.1671  -23.7636  -16.1285 H   0  0  0  0  0  0  0  0  0  0  0  0
  2  1  1  0  0  0
  2  3  1  0  0  0
  2  5  2  0  0  0
  1  8  1  0  0  0
  3  4  1  0  0  0
  8 12  1  0  0  0
  9 12  2  0  0  0
 10 12  1  0  0  0
 11 12  1  0  0  0
  3  6  1  0  0  0
  4  7  1  0  0  0
 10 13  1  0  0  0
 11 14  1  0  0  0
M  END
> <minimizedAffinity>
-5.14172

$$$$
1TRD_PGH_B_300


 14 13  0  0  0  0  0  0  0  0999 V2000
    9.0338  -23.9900  -17.1265 C   0  0  0  0  0  0  0  0  0  0  0  0
    8.0322  -23.4817  -18.1105 C   0  0  0  0  0  0  0  0  0  0  0  0
    6.7605  -23.8633  -17.7241 N   0  0  0  0  0  0  0  0  0  0  0  0
    5.8501  -23.8837  -18.6145 O   0  0  0  0  0  0  0  0  0  0  0  0
    8.3536  -22.7655  -19.1331 O   0  0  0  0  0  0  0  0  0  0  0  0
    6.5653  -24.1109  -16.7915 H   0  0  0  0  0  0  0  0  0  0  0  0
    6.2250  -23.6114  -19.4667 H   0  0  0  0  0  0  0  0  0  0  0  0
   10.1264  -23.1231  -16.8250 O   0  0  0  0  0  0  0  0  0  0  0  0
   11.5334  -21.7615  -18.4941 O   0  0  0  0  0  0  0  0  0  0  0  0
   12.7084  -23.0498  -16.6524 O   0  0  0  0  0  0  0  0  0  0  0  0
   11.5600  -24.2870  -18.5427 O   0  0  0  0  0  0  0  0  0  0  0  0
   11.5003  -23.0536  -17.6188 P   0  0  0  0  0  0  0  0  0  0  0  0
   12.6598  -22.2703  -16.0772 H   0  0  0  0  0  0  0  0  0  0  0  0
   10.7983  -24.2783  -19.1432 H   0  0  0  0  0  0  0  0  0  0  0  0
  2  1  1  0  0  0
  2  3  1  0  0  0
  2  5  2  0  0  0
  1  8  1  0  0  0
  3  4  1  0  0  0
  8 12  1  0  0  0
  9 12  2  0  0  0
 10 12  1  0  0  0
 11 12  1  0  0  0
  3  6  1  0  0  0
  4  7  1  0  0  0
 10 13  1  0  0  0
 11 14  1  0  0  0
M  END
> <minimizedAffinity>
-4.96073

$$$$
