4Y59_T21_A_200


 21 23  0  0  0  0  0  0  0  0999 V2000
   13.2898   -5.8947    0.1035 C   0  0  0  0  0  0  0  0  0  0  0  0
   12.1023   -6.2792   -3.8547 C   0  0  0  0  0  0  0  0  0  0  0  0
   12.4714   -6.9178   -0.3666 C   0  0  0  0  0  0  0  0  0  0  0  0
   12.6326   -5.9481   -2.5614 C   0  0  0  0  0  0  0  0  0  0  0  0
   11.3467   -7.4464   -3.6249 C   0  0  0  0  0  0  0  0  0  0  0  0
   13.4463   -4.9460   -2.0506 C   0  0  0  0  0  0  0  0  0  0  0  0
   13.9307   -3.9697   -2.8679 O   0  0  0  0  0  0  0  0  0  0  0  0
   13.7521   -4.9472   -0.7306 N   0  0  0  0  0  0  0  0  0  0  0  0
   11.4208   -7.7515   -2.3973 O   0  0  0  0  0  0  0  0  0  0  0  0
   12.1671   -6.9039   -1.7176 C   0  0  0  0  0  0  0  0  0  0  0  0
   14.3289   -4.2343   -0.3724 H   0  0  0  0  0  0  0  0  0  0  0  0
    9.1590   -9.6074   -6.5884 C   0  0  0  0  0  0  0  0  0  0  0  0
    9.2342   -8.2204   -6.6528 C   0  0  0  0  0  0  0  0  0  0  0  0
    9.9464   -7.5177   -5.6887 C   0  0  0  0  0  0  0  0  0  0  0  0
   10.5834   -8.2008   -4.6592 C   0  0  0  0  0  0  0  0  0  0  0  0
    9.7960  -10.2905   -5.5589 C   0  0  0  0  0  0  0  0  0  0  0  0
   10.5083   -9.5876   -4.5937 C   0  0  0  0  0  0  0  0  0  0  0  0
    9.7147  -11.7861   -5.4888 C   0  0  0  0  0  0  0  0  0  0  0  0
    8.9318  -12.1383   -4.4852 F   0  0  0  0  0  0  0  0  0  0  0  0
   10.9222  -12.2846   -5.3001 F   0  0  0  0  0  0  0  0  0  0  0  0
    9.2177  -12.2538   -6.6191 F   0  0  0  0  0  0  0  0  0  0  0  0
 19 18  1  0  0  0
 12 13  2  0  0  0
 12 16  1  0  0  0
 13 14  1  0  0  0
 18 16  1  0  0  0
 18 21  1  0  0  0
 18 20  1  0  0  0
 16 17  2  0  0  0
 14 15  2  0  0  0
 17 15  1  0  0  0
 15  5  1  0  0  0
  5  2  2  0  0  0
  5  9  1  0  0  0
  2  4  1  0  0  0
  9 10  1  0  0  0
  4 10  2  0  0  0
  4  6  1  0  0  0
  7  6  2  0  0  0
 10  3  1  0  0  0
  6  8  1  0  0  0
  3  1  2  0  0  0
  8  1  1  0  0  0
  8 11  1  0  0  0
M  END
> <minimizedAffinity>
-11.05587

$$$$
4Y59_T21_A_200


 21 23  0  0  0  0  0  0  0  0999 V2000
    9.3148   -7.7610   -7.0650 C   0  0  0  0  0  0  0  0  0  0  0  0
   10.8718   -8.4927   -3.2881 C   0  0  0  0  0  0  0  0  0  0  0  0
   10.1413   -6.8749   -6.3799 C   0  0  0  0  0  0  0  0  0  0  0  0
   10.2281   -8.4581   -4.5719 C   0  0  0  0  0  0  0  0  0  0  0  0
   11.5623   -7.2661   -3.2195 C   0  0  0  0  0  0  0  0  0  0  0  0
    9.4021   -9.3120   -5.2898 C   0  0  0  0  0  0  0  0  0  0  0  0
    9.0300  -10.5125   -4.7643 O   0  0  0  0  0  0  0  0  0  0  0  0
    8.9676   -8.9388   -6.5178 N   0  0  0  0  0  0  0  0  0  0  0  0
   11.3579   -6.6167   -4.2881 O   0  0  0  0  0  0  0  0  0  0  0  0
   10.5776   -7.2695   -5.1263 C   0  0  0  0  0  0  0  0  0  0  0  0
    8.3814   -9.5470   -7.0233 H   0  0  0  0  0  0  0  0  0  0  0  0
   13.9575   -5.9488    0.0616 C   0  0  0  0  0  0  0  0  0  0  0  0
   12.6064   -6.2176    0.2505 C   0  0  0  0  0  0  0  0  0  0  0  0
   11.8274   -6.6466   -0.8172 C   0  0  0  0  0  0  0  0  0  0  0  0
   12.3984   -6.8065   -2.0745 C   0  0  0  0  0  0  0  0  0  0  0  0
   14.5285   -6.1088   -1.1956 C   0  0  0  0  0  0  0  0  0  0  0  0
   13.7493   -6.5375   -2.2643 C   0  0  0  0  0  0  0  0  0  0  0  0
   15.9853   -5.8185   -1.3997 C   0  0  0  0  0  0  0  0  0  0  0  0
   16.6826   -6.3463   -0.4100 F   0  0  0  0  0  0  0  0  0  0  0  0
   16.1752   -4.5125   -1.4233 F   0  0  0  0  0  0  0  0  0  0  0  0
   16.3826   -6.3414   -2.5451 F   0  0  0  0  0  0  0  0  0  0  0  0
 19 18  1  0  0  0
 12 13  2  0  0  0
 12 16  1  0  0  0
 13 14  1  0  0  0
 18 16  1  0  0  0
 18 21  1  0  0  0
 18 20  1  0  0  0
 16 17  2  0  0  0
 14 15  2  0  0  0
 17 15  1  0  0  0
 15  5  1  0  0  0
  5  2  2  0  0  0
  5  9  1  0  0  0
  2  4  1  0  0  0
  9 10  1  0  0  0
  4 10  2  0  0  0
  4  6  1  0  0  0
  7  6  2  0  0  0
 10  3  1  0  0  0
  6  8  1  0  0  0
  3  1  2  0  0  0
  8  1  1  0  0  0
  8 11  1  0  0  0
M  END
> <minimizedAffinity>
-10.63748

$$$$
4Y59_T21_A_200


 21 23  0  0  0  0  0  0  0  0999 V2000
    8.8094   -9.8805   -6.0191 C   0  0  0  0  0  0  0  0  0  0  0  0
   11.3000   -6.8920   -4.5733 C   0  0  0  0  0  0  0  0  0  0  0  0
    9.3705   -9.8849   -4.7452 C   0  0  0  0  0  0  0  0  0  0  0  0
   10.4306   -7.7930   -5.2774 C   0  0  0  0  0  0  0  0  0  0  0  0
   11.4784   -7.5028   -3.3158 C   0  0  0  0  0  0  0  0  0  0  0  0
    9.8505   -7.8283   -6.5380 C   0  0  0  0  0  0  0  0  0  0  0  0
   10.0800   -6.8240   -7.4293 O   0  0  0  0  0  0  0  0  0  0  0  0
    9.0554   -8.8728   -6.8741 N   0  0  0  0  0  0  0  0  0  0  0  0
   10.8212   -8.5858   -3.2857 O   0  0  0  0  0  0  0  0  0  0  0  0
   10.1808   -8.8114   -4.4155 C   0  0  0  0  0  0  0  0  0  0  0  0
    8.6465   -8.8942   -7.7694 H   0  0  0  0  0  0  0  0  0  0  0  0
   13.8507   -5.9539   -0.1204 C   0  0  0  0  0  0  0  0  0  0  0  0
   12.5838   -6.4652    0.1384 C   0  0  0  0  0  0  0  0  0  0  0  0
   11.8123   -6.9695   -0.9014 C   0  0  0  0  0  0  0  0  0  0  0  0
   12.3065   -6.9623   -2.2007 C   0  0  0  0  0  0  0  0  0  0  0  0
   14.3449   -5.9468   -1.4196 C   0  0  0  0  0  0  0  0  0  0  0  0
   13.5730   -6.4508   -2.4604 C   0  0  0  0  0  0  0  0  0  0  0  0
   15.7108   -5.3950   -1.6990 C   0  0  0  0  0  0  0  0  0  0  0  0
   15.6012   -4.2831   -2.4033 F   0  0  0  0  0  0  0  0  0  0  0  0
   16.4124   -6.2803   -2.3818 F   0  0  0  0  0  0  0  0  0  0  0  0
   16.3225   -5.1343   -0.5584 F   0  0  0  0  0  0  0  0  0  0  0  0
 19 18  1  0  0  0
 12 13  2  0  0  0
 12 16  1  0  0  0
 13 14  1  0  0  0
 18 16  1  0  0  0
 18 21  1  0  0  0
 18 20  1  0  0  0
 16 17  2  0  0  0
 14 15  2  0  0  0
 17 15  1  0  0  0
 15  5  1  0  0  0
  5  2  2  0  0  0
  5  9  1  0  0  0
  2  4  1  0  0  0
  9 10  1  0  0  0
  4 10  2  0  0  0
  4  6  1  0  0  0
  7  6  2  0  0  0
 10  3  1  0  0  0
  6  8  1  0  0  0
  3  1  2  0  0  0
  8  1  1  0  0  0
  8 11  1  0  0  0
M  END
> <minimizedAffinity>
-10.43261

$$$$
4Y59_T21_A_200


 21 23  0  0  0  0  0  0  0  0999 V2000
    8.2192  -14.8557   -6.6503 C   0  0  0  0  0  0  0  0  0  0  0  0
   10.5166  -11.8057   -5.0241 C   0  0  0  0  0  0  0  0  0  0  0  0
    8.0338  -13.5060   -6.9359 C   0  0  0  0  0  0  0  0  0  0  0  0
    9.8622  -13.0098   -5.4548 C   0  0  0  0  0  0  0  0  0  0  0  0
    9.8254  -10.7809   -5.7011 C   0  0  0  0  0  0  0  0  0  0  0  0
   10.0126  -14.3657   -5.1983 C   0  0  0  0  0  0  0  0  0  0  0  0
   10.9807  -14.8012   -4.3446 O   0  0  0  0  0  0  0  0  0  0  0  0
    9.1854  -15.2518   -5.8038 N   0  0  0  0  0  0  0  0  0  0  0  0
    8.9138  -11.2981   -6.4132 O   0  0  0  0  0  0  0  0  0  0  0  0
    8.8862  -12.6119   -6.3100 C   0  0  0  0  0  0  0  0  0  0  0  0
    9.2951  -16.2125   -5.6186 H   0  0  0  0  0  0  0  0  0  0  0  0
   10.6670   -6.6048   -5.4020 C   0  0  0  0  0  0  0  0  0  0  0  0
    9.9291   -7.0905   -6.4758 C   0  0  0  0  0  0  0  0  0  0  0  0
    9.6552   -8.4493   -6.5726 C   0  0  0  0  0  0  0  0  0  0  0  0
   10.1191   -9.3235   -5.5965 C   0  0  0  0  0  0  0  0  0  0  0  0
   11.1309   -7.4790   -4.4258 C   0  0  0  0  0  0  0  0  0  0  0  0
   10.8574   -8.8387   -4.5226 C   0  0  0  0  0  0  0  0  0  0  0  0
   11.9271   -6.9555   -3.2680 C   0  0  0  0  0  0  0  0  0  0  0  0
   11.7851   -5.6447   -3.1925 F   0  0  0  0  0  0  0  0  0  0  0  0
   13.2020   -7.2503   -3.4409 F   0  0  0  0  0  0  0  0  0  0  0  0
   11.4954   -7.5096   -2.1500 F   0  0  0  0  0  0  0  0  0  0  0  0
 19 18  1  0  0  0
 12 13  2  0  0  0
 12 16  1  0  0  0
 13 14  1  0  0  0
 18 16  1  0  0  0
 18 21  1  0  0  0
 18 20  1  0  0  0
 16 17  2  0  0  0
 14 15  2  0  0  0
 17 15  1  0  0  0
 15  5  1  0  0  0
  5  2  2  0  0  0
  5  9  1  0  0  0
  2  4  1  0  0  0
  9 10  1  0  0  0
  4 10  2  0  0  0
  4  6  1  0  0  0
  7  6  2  0  0  0
 10  3  1  0  0  0
  6  8  1  0  0  0
  3  1  2  0  0  0
  8  1  1  0  0  0
  8 11  1  0  0  0
M  END
> <minimizedAffinity>
-8.92242

$$$$
4Y59_T21_A_200


 21 23  0  0  0  0  0  0  0  0999 V2000
   10.1187  -13.1517   -8.1753 C   0  0  0  0  0  0  0  0  0  0  0  0
    9.5184  -10.5855   -4.9692 C   0  0  0  0  0  0  0  0  0  0  0  0
   10.9010  -12.0287   -7.9215 C   0  0  0  0  0  0  0  0  0  0  0  0
    9.5351  -11.5959   -5.9902 C   0  0  0  0  0  0  0  0  0  0  0  0
   10.5920   -9.7386   -5.3099 C   0  0  0  0  0  0  0  0  0  0  0  0
    8.7808  -12.7247   -6.2799 C   0  0  0  0  0  0  0  0  0  0  0  0
    7.7347  -13.0768   -5.4816 O   0  0  0  0  0  0  0  0  0  0  0  0
    9.0940  -13.4717   -7.3662 N   0  0  0  0  0  0  0  0  0  0  0  0
   11.1488  -10.1791   -6.3594 O   0  0  0  0  0  0  0  0  0  0  0  0
   10.5694  -11.2747   -6.8082 C   0  0  0  0  0  0  0  0  0  0  0  0
    8.5561  -14.2711   -7.5685 H   0  0  0  0  0  0  0  0  0  0  0  0
   11.7791   -6.2488   -3.1534 C   0  0  0  0  0  0  0  0  0  0  0  0
   11.4247   -6.1508   -4.4944 C   0  0  0  0  0  0  0  0  0  0  0  0
   11.0382   -7.2864   -5.1956 C   0  0  0  0  0  0  0  0  0  0  0  0
   11.0062   -8.5207   -4.5571 C   0  0  0  0  0  0  0  0  0  0  0  0
   11.7471   -7.4831   -2.5148 C   0  0  0  0  0  0  0  0  0  0  0  0
   11.3608   -8.6196   -3.2163 C   0  0  0  0  0  0  0  0  0  0  0  0
   12.1297   -7.5891   -1.0688 C   0  0  0  0  0  0  0  0  0  0  0  0
   11.5742   -8.6662   -0.5440 F   0  0  0  0  0  0  0  0  0  0  0  0
   11.7088   -6.5181   -0.4222 F   0  0  0  0  0  0  0  0  0  0  0  0
   13.4430   -7.6772   -0.9659 F   0  0  0  0  0  0  0  0  0  0  0  0
 19 18  1  0  0  0
 12 13  2  0  0  0
 12 16  1  0  0  0
 13 14  1  0  0  0
 18 16  1  0  0  0
 18 21  1  0  0  0
 18 20  1  0  0  0
 16 17  2  0  0  0
 14 15  2  0  0  0
 17 15  1  0  0  0
 15  5  1  0  0  0
  5  2  2  0  0  0
  5  9  1  0  0  0
  2  4  1  0  0  0
  9 10  1  0  0  0
  4 10  2  0  0  0
  4  6  1  0  0  0
  7  6  2  0  0  0
 10  3  1  0  0  0
  6  8  1  0  0  0
  3  1  2  0  0  0
  8  1  1  0  0  0
  8 11  1  0  0  0
M  END
> <minimizedAffinity>
-8.14929

$$$$
