1MSM_JE2_B_1001


 45 48  0  0  0  0  0  0  0  0999 V2000
   15.3136   23.6916   18.5544 C   0  0  0  0  0  0  0  0  0  0  0  0
   14.2769   24.6398   18.5944 O   0  0  0  0  0  0  0  0  0  0  0  0
   14.2750   25.1516   17.7704 H   0  0  0  0  0  0  0  0  0  0  0  0
   16.6647   24.4326   18.4358 C   0  0  0  0  0  0  0  0  0  0  0  0
   16.6637   25.6024   18.0459 O   0  0  0  0  0  0  0  0  0  0  0  0
   17.7986   23.7492   18.8021 N   0  0  0  0  0  0  0  0  0  0  0  0
   19.1004   24.4739   18.7739 C   0  0  0  0  0  0  0  0  0  0  0  0
   19.9762   24.0273   20.0040 C   0  0  0  0  0  0  0  0  0  0  0  0
   17.7462   22.8618   20.0047 C   0  0  0  0  0  0  0  0  0  0  0  0
   19.7156   24.8719   21.2731 C   0  0  0  0  0  0  0  0  0  0  0  0
   21.4953   23.9968   19.6987 C   0  0  0  0  0  0  0  0  0  0  0  0
   19.4359   22.3539   20.2920 S   0  0  0  0  0  0  0  0  0  0  0  0
   19.7095   24.1577   17.3879 C   0  0  0  0  0  0  0  0  0  0  0  0
   19.6325   23.0282   16.9131 O   0  0  0  0  0  0  0  0  0  0  0  0
   20.3019   25.2125   16.7893 N   0  0  0  0  0  0  0  0  0  0  0  0
   20.3159   26.0866   17.2420 H   0  0  0  0  0  0  0  0  0  0  0  0
   20.9190   25.0678   15.4822 C   0  0  0  0  0  0  0  0  0  0  0  0
   20.7014   26.2895   14.6327 C   0  0  0  0  0  0  0  0  0  0  0  0
   19.4878   26.5134   13.8875 C   0  0  0  0  0  0  0  0  0  0  0  0
   19.3670   27.6943   13.1098 C   0  0  0  0  0  0  0  0  0  0  0  0
   20.4171   28.6410   13.0659 C   0  0  0  0  0  0  0  0  0  0  0  0
   21.6045   28.4240   13.7967 C   0  0  0  0  0  0  0  0  0  0  0  0
   21.7437   27.2551   14.5755 C   0  0  0  0  0  0  0  0  0  0  0  0
   18.3253   25.5401   13.8916 C   0  0  0  0  0  0  0  0  0  0  0  0
   15.0574   22.7328   17.3787 C   0  0  0  0  0  0  0  0  0  0  0  0
   14.5102   20.4723   18.2736 C   0  0  0  0  0  0  0  0  0  0  0  0
   15.6993   20.1477   18.3563 O   0  0  0  0  0  0  0  0  0  0  0  0
   14.1249   21.7148   17.8386 N   0  0  0  0  0  0  0  0  0  0  0  0
   13.1641   21.9298   17.8374 H   0  0  0  0  0  0  0  0  0  0  0  0
   11.2131   17.8270   19.1808 C   0  0  0  0  0  0  0  0  0  0  0  0
   11.2133   18.5935   18.0059 C   0  0  0  0  0  0  0  0  0  0  0  0
   12.2981   19.4534   17.7312 C   0  0  0  0  0  0  0  0  0  0  0  0
   13.4014   19.5588   18.6309 C   0  0  0  0  0  0  0  0  0  0  0  0
   13.4004   18.7742   19.8384 C   0  0  0  0  0  0  0  0  0  0  0  0
   12.2899   17.9143   20.0862 C   0  0  0  0  0  0  0  0  0  0  0  0
   14.5350   18.8267   20.8522 C   0  0  0  0  0  0  0  0  0  0  0  0
   12.2591   17.1523   21.2230 O   0  0  0  0  0  0  0  0  0  0  0  0
   11.5306   16.5865   21.3882 H   0  0  0  0  0  0  0  0  0  0  0  0
   14.4803   23.3887   16.0926 C   0  0  0  0  0  0  0  0  0  0  0  0
   14.0117   22.3438   15.1043 C   0  0  0  0  0  0  0  0  0  0  0  0
   13.1825   20.3874   13.2151 C   0  0  0  0  0  0  0  0  0  0  0  0
   12.6382   22.0212   14.9656 C   0  0  0  0  0  0  0  0  0  0  0  0
   14.9670   21.6791   14.2871 C   0  0  0  0  0  0  0  0  0  0  0  0
   12.2227   21.0480   14.0274 C   0  0  0  0  0  0  0  0  0  0  0  0
   14.5561   20.7041   13.3450 C   0  0  0  0  0  0  0  0  0  0  0  0
 35 37  1  0  0  0
 35 30  2  0  0  0
 35 34  1  0  0  0
 30 31  1  0  0  0
 31 32  2  0  0  0
 32 33  1  0  0  0
 33 34  2  0  0  0
 33 26  1  0  0  0
 34 36  1  0  0  0
 26 27  2  0  0  0
 26 28  1  0  0  0
 28 25  1  0  0  0
 25 39  1  0  0  0
 25  1  1  0  0  0
 39 40  1  0  0  0
 40 42  2  0  0  0
 40 43  1  0  0  0
 42 44  1  0  0  0
 44 41  2  0  0  0
 41 45  1  0  0  0
 45 43  2  0  0  0
  1  2  1  0  0  0
  1  4  1  0  0  0
  4  5  2  0  0  0
  4  6  1  0  0  0
  6  9  1  0  0  0
  6  7  1  0  0  0
  9 12  1  0  0  0
 12  8  1  0  0  0
  8 10  1  0  0  0
  8 11  1  0  0  0
  8  7  1  0  0  0
  7 13  1  0  0  0
 13 14  2  0  0  0
 13 15  1  0  0  0
 15 17  1  0  0  0
 17 18  1  0  0  0
 18 19  2  0  0  0
 18 23  1  0  0  0
 19 20  1  0  0  0
 19 24  1  0  0  0
 20 21  2  0  0  0
 21 22  1  0  0  0
 22 23  2  0  0  0
 37 38  1  0  0  0
 28 29  1  0  0  0
  2  3  1  0  0  0
 15 16  1  0  0  0
M  END
> <minimizedAffinity>
-13.08160

$$$$
1MSM_JE2_B_1001


 45 48  0  0  0  0  0  0  0  0999 V2000
   18.3121   22.5888   19.0106 C   0  0  0  0  0  0  0  0  0  0  0  0
   17.6765   22.2036   20.2035 O   0  0  0  0  0  0  0  0  0  0  0  0
   16.8639   22.7207   20.3185 H   0  0  0  0  0  0  0  0  0  0  0  0
   18.6932   24.0835   19.1071 C   0  0  0  0  0  0  0  0  0  0  0  0
   17.7917   24.9245   19.0864 O   0  0  0  0  0  0  0  0  0  0  0  0
   20.0250   24.3923   19.2405 N   0  0  0  0  0  0  0  0  0  0  0  0
   20.4040   25.8225   19.4188 C   0  0  0  0  0  0  0  0  0  0  0  0
   21.5899   25.9263   20.4497 C   0  0  0  0  0  0  0  0  0  0  0  0
   20.8769   23.5355   20.1216 C   0  0  0  0  0  0  0  0  0  0  0  0
   21.1113   26.0360   21.9162 C   0  0  0  0  0  0  0  0  0  0  0  0
   22.5796   27.0765   20.1348 C   0  0  0  0  0  0  0  0  0  0  0  0
   22.4486   24.3809   20.2271 S   0  0  0  0  0  0  0  0  0  0  0  0
   20.7272   26.3357   17.9961 C   0  0  0  0  0  0  0  0  0  0  0  0
   20.5862   27.5214   17.7112 O   0  0  0  0  0  0  0  0  0  0  0  0
   21.1631   25.3803   17.1481 N   0  0  0  0  0  0  0  0  0  0  0  0
   21.2493   24.4511   17.4619 H   0  0  0  0  0  0  0  0  0  0  0  0
   21.5061   25.7125   15.7762 C   0  0  0  0  0  0  0  0  0  0  0  0
   20.2808   26.0319   14.9647 C   0  0  0  0  0  0  0  0  0  0  0  0
   20.1714   27.2193   14.1545 C   0  0  0  0  0  0  0  0  0  0  0  0
   18.9774   27.4430   13.4210 C   0  0  0  0  0  0  0  0  0  0  0  0
   17.9099   26.5166   13.4784 C   0  0  0  0  0  0  0  0  0  0  0  0
   18.0168   25.3530   14.2694 C   0  0  0  0  0  0  0  0  0  0  0  0
   19.1961   25.1133   15.0067 C   0  0  0  0  0  0  0  0  0  0  0  0
   21.2775   28.2508   14.0486 C   0  0  0  0  0  0  0  0  0  0  0  0
   17.3677   22.2920   17.8328 C   0  0  0  0  0  0  0  0  0  0  0  0
   15.3987   21.4163   19.0843 C   0  0  0  0  0  0  0  0  0  0  0  0
   15.0874   22.5360   19.5035 O   0  0  0  0  0  0  0  0  0  0  0  0
   16.4698   21.2252   18.2490 N   0  0  0  0  0  0  0  0  0  0  0  0
   16.6406   20.3159   17.9125 H   0  0  0  0  0  0  0  0  0  0  0  0
   13.2776   17.8405   20.2701 C   0  0  0  0  0  0  0  0  0  0  0  0
   14.2227   18.4283   21.1240 C   0  0  0  0  0  0  0  0  0  0  0  0
   14.9063   19.5934   20.7154 C   0  0  0  0  0  0  0  0  0  0  0  0
   14.6532   20.1885   19.4427 C   0  0  0  0  0  0  0  0  0  0  0  0
   13.6851   19.5839   18.5647 C   0  0  0  0  0  0  0  0  0  0  0  0
   13.0109   18.4078   19.0076 C   0  0  0  0  0  0  0  0  0  0  0  0
   13.3554   20.1519   17.1912 C   0  0  0  0  0  0  0  0  0  0  0  0
   12.0822   17.8099   18.1988 O   0  0  0  0  0  0  0  0  0  0  0  0
   11.6378   17.0371   18.4874 H   0  0  0  0  0  0  0  0  0  0  0  0
   16.5138   23.4939   17.3392 C   0  0  0  0  0  0  0  0  0  0  0  0
   15.5639   23.0788   16.2376 C   0  0  0  0  0  0  0  0  0  0  0  0
   13.7315   22.3095   14.2042 C   0  0  0  0  0  0  0  0  0  0  0  0
   15.9903   22.2548   15.1657 C   0  0  0  0  0  0  0  0  0  0  0  0
   14.2106   23.5133   16.2835 C   0  0  0  0  0  0  0  0  0  0  0  0
   15.0815   21.8711   14.1524 C   0  0  0  0  0  0  0  0  0  0  0  0
   13.2958   23.1311   15.2715 C   0  0  0  0  0  0  0  0  0  0  0  0
 35 37  1  0  0  0
 35 30  2  0  0  0
 35 34  1  0  0  0
 30 31  1  0  0  0
 31 32  2  0  0  0
 32 33  1  0  0  0
 33 34  2  0  0  0
 33 26  1  0  0  0
 34 36  1  0  0  0
 26 27  2  0  0  0
 26 28  1  0  0  0
 28 25  1  0  0  0
 25 39  1  0  0  0
 25  1  1  0  0  0
 39 40  1  0  0  0
 40 42  2  0  0  0
 40 43  1  0  0  0
 42 44  1  0  0  0
 44 41  2  0  0  0
 41 45  1  0  0  0
 45 43  2  0  0  0
  1  2  1  0  0  0
  1  4  1  0  0  0
  4  5  2  0  0  0
  4  6  1  0  0  0
  6  9  1  0  0  0
  6  7  1  0  0  0
  9 12  1  0  0  0
 12  8  1  0  0  0
  8 10  1  0  0  0
  8 11  1  0  0  0
  8  7  1  0  0  0
  7 13  1  0  0  0
 13 14  2  0  0  0
 13 15  1  0  0  0
 15 17  1  0  0  0
 17 18  1  0  0  0
 18 19  2  0  0  0
 18 23  1  0  0  0
 19 20  1  0  0  0
 19 24  1  0  0  0
 20 21  2  0  0  0
 21 22  1  0  0  0
 22 23  2  0  0  0
 37 38  1  0  0  0
 28 29  1  0  0  0
  2  3  1  0  0  0
 15 16  1  0  0  0
M  END
> <minimizedAffinity>
-10.81104

$$$$
1MSM_JE2_B_1001


 45 48  0  0  0  0  0  0  0  0999 V2000
   16.8994   22.5391   19.1354 C   0  0  0  0  0  0  0  0  0  0  0  0
   16.0325   22.5197   20.2415 O   0  0  0  0  0  0  0  0  0  0  0  0
   15.3115   23.1526   20.0984 H   0  0  0  0  0  0  0  0  0  0  0  0
   17.5091   23.9531   19.0026 C   0  0  0  0  0  0  0  0  0  0  0  0
   16.7480   24.9227   18.9677 O   0  0  0  0  0  0  0  0  0  0  0  0
   18.8784   24.0532   18.9593 N   0  0  0  0  0  0  0  0  0  0  0  0
   19.4862   25.4131   18.9157 C   0  0  0  0  0  0  0  0  0  0  0  0
   20.7899   25.4337   19.7988 C   0  0  0  0  0  0  0  0  0  0  0  0
   19.6923   23.1699   19.8502 C   0  0  0  0  0  0  0  0  0  0  0  0
   20.5136   25.7789   21.2808 C   0  0  0  0  0  0  0  0  0  0  0  0
   21.8955   26.3658   19.2417 C   0  0  0  0  0  0  0  0  0  0  0  0
   21.3740   23.7540   19.6871 S   0  0  0  0  0  0  0  0  0  0  0  0
   19.7086   25.7088   17.4140 C   0  0  0  0  0  0  0  0  0  0  0  0
   19.1558   26.6633   16.8752 O   0  0  0  0  0  0  0  0  0  0  0  0
   20.5404   24.8437   16.7962 N   0  0  0  0  0  0  0  0  0  0  0  0
   20.9438   24.1049   17.3067 H   0  0  0  0  0  0  0  0  0  0  0  0
   20.8450   24.9945   15.3839 C   0  0  0  0  0  0  0  0  0  0  0  0
   21.5645   26.2867   15.1111 C   0  0  0  0  0  0  0  0  0  0  0  0
   21.0307   27.3068   14.2435 C   0  0  0  0  0  0  0  0  0  0  0  0
   21.7775   28.4963   14.0408 C   0  0  0  0  0  0  0  0  0  0  0  0
   23.0253   28.6837   14.6803 C   0  0  0  0  0  0  0  0  0  0  0  0
   23.5477   27.6868   15.5314 C   0  0  0  0  0  0  0  0  0  0  0  0
   22.8200   26.4965   15.7450 C   0  0  0  0  0  0  0  0  0  0  0  0
   19.7006   27.1692   13.5289 C   0  0  0  0  0  0  0  0  0  0  0  0
   16.1102   22.1134   17.8851 C   0  0  0  0  0  0  0  0  0  0  0  0
   14.9107   19.9592   18.2469 C   0  0  0  0  0  0  0  0  0  0  0  0
   15.8584   19.2878   17.8256 O   0  0  0  0  0  0  0  0  0  0  0  0
   14.9707   21.3269   18.3329 N   0  0  0  0  0  0  0  0  0  0  0  0
   14.2002   21.8027   18.7190 H   0  0  0  0  0  0  0  0  0  0  0  0
   11.1272   18.2187   19.4076 C   0  0  0  0  0  0  0  0  0  0  0  0
   11.2758   18.8409   18.1591 C   0  0  0  0  0  0  0  0  0  0  0  0
   12.5187   19.4059   17.8019 C   0  0  0  0  0  0  0  0  0  0  0  0
   13.6340   19.3561   18.6917 C   0  0  0  0  0  0  0  0  0  0  0  0
   13.4812   18.7199   19.9745 C   0  0  0  0  0  0  0  0  0  0  0  0
   12.2127   18.1579   20.3047 C   0  0  0  0  0  0  0  0  0  0  0  0
   14.6174   18.6236   20.9832 C   0  0  0  0  0  0  0  0  0  0  0  0
   12.0346   17.5429   21.5147 O   0  0  0  0  0  0  0  0  0  0  0  0
   11.2022   17.1729   21.7341 H   0  0  0  0  0  0  0  0  0  0  0  0
   15.5900   23.2757   16.9930 C   0  0  0  0  0  0  0  0  0  0  0  0
   14.8343   22.7521   15.7918 C   0  0  0  0  0  0  0  0  0  0  0  0
   13.4667   21.7616   13.5044 C   0  0  0  0  0  0  0  0  0  0  0  0
   13.4587   23.0374   15.6024 C   0  0  0  0  0  0  0  0  0  0  0  0
   15.5202   21.9673   14.8244 C   0  0  0  0  0  0  0  0  0  0  0  0
   12.7754   22.5455   14.4660 C   0  0  0  0  0  0  0  0  0  0  0  0
   14.8409   21.4728   13.6838 C   0  0  0  0  0  0  0  0  0  0  0  0
 35 37  1  0  0  0
 35 30  2  0  0  0
 35 34  1  0  0  0
 30 31  1  0  0  0
 31 32  2  0  0  0
 32 33  1  0  0  0
 33 34  2  0  0  0
 33 26  1  0  0  0
 34 36  1  0  0  0
 26 27  2  0  0  0
 26 28  1  0  0  0
 28 25  1  0  0  0
 25 39  1  0  0  0
 25  1  1  0  0  0
 39 40  1  0  0  0
 40 42  2  0  0  0
 40 43  1  0  0  0
 42 44  1  0  0  0
 44 41  2  0  0  0
 41 45  1  0  0  0
 45 43  2  0  0  0
  1  2  1  0  0  0
  1  4  1  0  0  0
  4  5  2  0  0  0
  4  6  1  0  0  0
  6  9  1  0  0  0
  6  7  1  0  0  0
  9 12  1  0  0  0
 12  8  1  0  0  0
  8 10  1  0  0  0
  8 11  1  0  0  0
  8  7  1  0  0  0
  7 13  1  0  0  0
 13 14  2  0  0  0
 13 15  1  0  0  0
 15 17  1  0  0  0
 17 18  1  0  0  0
 18 19  2  0  0  0
 18 23  1  0  0  0
 19 20  1  0  0  0
 19 24  1  0  0  0
 20 21  2  0  0  0
 21 22  1  0  0  0
 22 23  2  0  0  0
 37 38  1  0  0  0
 28 29  1  0  0  0
  2  3  1  0  0  0
 15 16  1  0  0  0
M  END
> <minimizedAffinity>
-10.55827

$$$$
