4KZU_A73_A_1201


 18 20  0  0  0  0  0  0  0  0999 V2000
   -7.5014   38.2267  -12.9619 C   0  0  0  0  0  0  0  0  0  0  0  0
   -7.3823   37.9145  -14.3032 C   0  0  0  0  0  0  0  0  0  0  0  0
   -8.0874   38.5468  -15.0910 O   0  0  0  0  0  0  0  0  0  0  0  0
   -6.5713   36.8286  -14.6669 C   0  0  0  0  0  0  0  0  0  0  0  0
   -6.3737   36.4669  -15.9786 C   0  0  0  0  0  0  0  0  0  0  0  0
   -5.5484   35.3655  -16.2975 C   0  0  0  0  0  0  0  0  0  0  0  0
   -4.9042   34.6067  -15.3019 C   0  0  0  0  0  0  0  0  0  0  0  0
   -5.1178   34.9668  -13.9697 C   0  0  0  0  0  0  0  0  0  0  0  0
   -5.9203   36.0663  -13.6739 C   0  0  0  0  0  0  0  0  0  0  0  0
   -6.0511   36.4221  -12.3628 O   0  0  0  0  0  0  0  0  0  0  0  0
   -6.7625   37.5196  -12.0127 C   0  0  0  0  0  0  0  0  0  0  0  0
   -6.8166   37.7364  -10.6327 C   0  0  0  0  0  0  0  0  0  0  0  0
   -6.3083   36.7419   -9.7891 C   0  0  0  0  0  0  0  0  0  0  0  0
   -6.3461   36.9198   -8.4229 C   0  0  0  0  0  0  0  0  0  0  0  0
   -6.8999   38.0936   -7.8815 C   0  0  0  0  0  0  0  0  0  0  0  0
   -6.9855   38.3254   -5.9466 Br  0  0  0  0  0  0  0  0  0  0  0  0
   -7.4028   39.0885   -8.7099 C   0  0  0  0  0  0  0  0  0  0  0  0
   -7.3649   38.9045  -10.0760 C   0  0  0  0  0  0  0  0  0  0  0  0
  6  5  2  0  0  0
  6  7  1  0  0  0
  5  4  1  0  0  0
  7  8  2  0  0  0
  3  2  2  0  0  0
  4  2  1  0  0  0
  4  9  2  0  0  0
  2  1  1  0  0  0
  8  9  1  0  0  0
  9 10  1  0  0  0
  1 11  2  0  0  0
 10 11  1  0  0  0
 11 12  1  0  0  0
 12 18  2  0  0  0
 12 13  1  0  0  0
 18 17  1  0  0  0
 13 14  2  0  0  0
 17 15  2  0  0  0
 14 15  1  0  0  0
 15 16  1  0  0  0
M  END
> <minimizedAffinity>
-11.62325

$$$$
4KZU_A73_A_1201


 18 20  0  0  0  0  0  0  0  0999 V2000
   -7.0274   39.2712  -10.5511 C   0  0  0  0  0  0  0  0  0  0  0  0
   -7.1695   39.8418   -9.3002 C   0  0  0  0  0  0  0  0  0  0  0  0
   -7.5511   41.0124   -9.2577 O   0  0  0  0  0  0  0  0  0  0  0  0
   -6.7575   39.1053   -8.1792 C   0  0  0  0  0  0  0  0  0  0  0  0
   -6.8895   39.5841   -6.8970 C   0  0  0  0  0  0  0  0  0  0  0  0
   -6.4601   38.8068   -5.7983 C   0  0  0  0  0  0  0  0  0  0  0  0
   -5.8901   37.5308   -5.9682 C   0  0  0  0  0  0  0  0  0  0  0  0
   -5.7437   37.0524   -7.2719 C   0  0  0  0  0  0  0  0  0  0  0  0
   -6.1886   37.8244   -8.3426 C   0  0  0  0  0  0  0  0  0  0  0  0
   -6.0847   37.2923   -9.5952 O   0  0  0  0  0  0  0  0  0  0  0  0
   -6.5590   37.9624  -10.6718 C   0  0  0  0  0  0  0  0  0  0  0  0
   -6.3594   37.2923  -11.8823 C   0  0  0  0  0  0  0  0  0  0  0  0
   -5.5220   36.1707  -11.8842 C   0  0  0  0  0  0  0  0  0  0  0  0
   -5.3003   35.4855  -13.0594 C   0  0  0  0  0  0  0  0  0  0  0  0
   -5.9087   35.9180  -14.2512 C   0  0  0  0  0  0  0  0  0  0  0  0
   -5.5629   34.9680  -15.9194 Br  0  0  0  0  0  0  0  0  0  0  0  0
   -6.7448   37.0269  -14.2593 C   0  0  0  0  0  0  0  0  0  0  0  0
   -6.9613   37.7104  -13.0813 C   0  0  0  0  0  0  0  0  0  0  0  0
  6  5  2  0  0  0
  6  7  1  0  0  0
  5  4  1  0  0  0
  7  8  2  0  0  0
  3  2  2  0  0  0
  4  2  1  0  0  0
  4  9  2  0  0  0
  2  1  1  0  0  0
  8  9  1  0  0  0
  9 10  1  0  0  0
  1 11  2  0  0  0
 10 11  1  0  0  0
 11 12  1  0  0  0
 12 18  2  0  0  0
 12 13  1  0  0  0
 18 17  1  0  0  0
 13 14  2  0  0  0
 17 15  2  0  0  0
 14 15  1  0  0  0
 15 16  1  0  0  0
M  END
> <minimizedAffinity>
-9.43465

$$$$
4KZU_A73_A_1201


 18 20  0  0  0  0  0  0  0  0999 V2000
   -5.4247   35.8560  -11.8925 C   0  0  0  0  0  0  0  0  0  0  0  0
   -5.4283   35.4805  -13.2228 C   0  0  0  0  0  0  0  0  0  0  0  0
   -4.7231   34.5203  -13.5364 O   0  0  0  0  0  0  0  0  0  0  0  0
   -6.1259   36.2802  -14.1408 C   0  0  0  0  0  0  0  0  0  0  0  0
   -6.2059   35.9650  -15.4768 C   0  0  0  0  0  0  0  0  0  0  0  0
   -6.9195   36.8005  -16.3647 C   0  0  0  0  0  0  0  0  0  0  0  0
   -7.5683   37.9700  -15.9250 C   0  0  0  0  0  0  0  0  0  0  0  0
   -7.4738   38.2961  -14.5705 C   0  0  0  0  0  0  0  0  0  0  0  0
   -6.7811   37.4517  -13.7059 C   0  0  0  0  0  0  0  0  0  0  0  0
   -6.7671   37.7741  -12.3797 O   0  0  0  0  0  0  0  0  0  0  0  0
   -6.1686   36.9611  -11.4775 C   0  0  0  0  0  0  0  0  0  0  0  0
   -6.2248   37.4412  -10.1658 C   0  0  0  0  0  0  0  0  0  0  0  0
   -6.2481   36.5078   -9.1231 C   0  0  0  0  0  0  0  0  0  0  0  0
   -6.3050   36.9439   -7.8168 C   0  0  0  0  0  0  0  0  0  0  0  0
   -6.3463   38.3212   -7.5363 C   0  0  0  0  0  0  0  0  0  0  0  0
   -6.4644   38.9337   -5.6880 Br  0  0  0  0  0  0  0  0  0  0  0  0
   -6.3191   39.2557   -8.5634 C   0  0  0  0  0  0  0  0  0  0  0  0
   -6.2647   38.8141   -9.8686 C   0  0  0  0  0  0  0  0  0  0  0  0
  6  5  2  0  0  0
  6  7  1  0  0  0
  5  4  1  0  0  0
  7  8  2  0  0  0
  3  2  2  0  0  0
  4  2  1  0  0  0
  4  9  2  0  0  0
  2  1  1  0  0  0
  8  9  1  0  0  0
  9 10  1  0  0  0
  1 11  2  0  0  0
 10 11  1  0  0  0
 11 12  1  0  0  0
 12 18  2  0  0  0
 12 13  1  0  0  0
 18 17  1  0  0  0
 13 14  2  0  0  0
 17 15  2  0  0  0
 14 15  1  0  0  0
 15 16  1  0  0  0
M  END
> <minimizedAffinity>
-9.26034

$$$$
4KZU_A73_A_1201


 18 20  0  0  0  0  0  0  0  0999 V2000
   -6.8661   39.3743  -10.4979 C   0  0  0  0  0  0  0  0  0  0  0  0
   -7.2271   39.8836   -9.2646 C   0  0  0  0  0  0  0  0  0  0  0  0
   -7.0480   41.0885   -9.0811 O   0  0  0  0  0  0  0  0  0  0  0  0
   -7.6517   38.9888   -8.2706 C   0  0  0  0  0  0  0  0  0  0  0  0
   -8.0564   39.4116   -7.0264 C   0  0  0  0  0  0  0  0  0  0  0  0
   -8.4758   38.4739   -6.0566 C   0  0  0  0  0  0  0  0  0  0  0  0
   -8.4973   37.0911   -6.3204 C   0  0  0  0  0  0  0  0  0  0  0  0
   -8.0722   36.6626   -7.5796 C   0  0  0  0  0  0  0  0  0  0  0  0
   -7.6788   37.6020   -8.5299 C   0  0  0  0  0  0  0  0  0  0  0  0
   -7.3316   37.1451   -9.7682 O   0  0  0  0  0  0  0  0  0  0  0  0
   -7.0036   38.0101  -10.7567 C   0  0  0  0  0  0  0  0  0  0  0  0
   -6.6548   37.3842  -11.9571 C   0  0  0  0  0  0  0  0  0  0  0  0
   -7.2261   37.8648  -13.1410 C   0  0  0  0  0  0  0  0  0  0  0  0
   -6.9071   37.2717  -14.3436 C   0  0  0  0  0  0  0  0  0  0  0  0
   -6.0165   36.1840  -14.3769 C   0  0  0  0  0  0  0  0  0  0  0  0
   -5.5963   35.3234  -16.0763 Br  0  0  0  0  0  0  0  0  0  0  0  0
   -5.4406   35.7023  -13.2085 C   0  0  0  0  0  0  0  0  0  0  0  0
   -5.7650   36.2977  -12.0076 C   0  0  0  0  0  0  0  0  0  0  0  0
  6  5  2  0  0  0
  6  7  1  0  0  0
  5  4  1  0  0  0
  7  8  2  0  0  0
  3  2  2  0  0  0
  4  2  1  0  0  0
  4  9  2  0  0  0
  2  1  1  0  0  0
  8  9  1  0  0  0
  9 10  1  0  0  0
  1 11  2  0  0  0
 10 11  1  0  0  0
 11 12  1  0  0  0
 12 18  2  0  0  0
 12 13  1  0  0  0
 18 17  1  0  0  0
 13 14  2  0  0  0
 17 15  2  0  0  0
 14 15  1  0  0  0
 15 16  1  0  0  0
M  END
> <minimizedAffinity>
-9.00604

$$$$
