4KZU_A73_A_1201
  RCSB PDB12061713273D
Coordinates from PDB:4KZU:A:1201 Model:1 without hydrogens
 18 20  0  0  0  0            999 V2000
   -7.7340   38.1610  -12.9490   C 0  0  0  0  0  0  0  0  0  0  0  0
   -7.6420   37.8740  -14.2980   C 0  0  0  0  0  0  0  0  0  0  0  0
   -8.4190   38.4630  -15.0510   O 0  0  0  0  0  0  0  0  0  0  0  0
   -6.7690   36.8540  -14.7060   C 0  0  0  0  0  0  0  0  0  0  0  0
   -6.5940   36.5230  -16.0290   C 0  0  0  0  0  0  0  0  0  0  0  0
   -5.7040   35.4880  -16.3930   C 0  0  0  0  0  0  0  0  0  0  0  0
   -4.9710   34.7660  -15.4320   C 0  0  0  0  0  0  0  0  0  0  0  0
   -5.1610   35.0940  -14.0880   C 0  0  0  0  0  0  0  0  0  0  0  0
   -6.0290   36.1290  -13.7480   C 0  0  0  0  0  0  0  0  0  0  0  0
   -6.1370   36.4590  -12.4280   O 0  0  0  0  0  0  0  0  0  0  0  0
   -6.9120   37.4980  -12.0370   C 0  0  0  0  0  0  0  0  0  0  0  0
   -6.9310   37.6940  -10.6530   C 0  0  0  0  0  0  0  0  0  0  0  0
   -6.2480   36.7750   -9.8480   C 0  0  0  0  0  0  0  0  0  0  0  0
   -6.2460   36.9350   -8.4790   C 0  0  0  0  0  0  0  0  0  0  0  0
   -6.9340   38.0140   -7.8960   C 0  0  0  0  0  0  0  0  0  0  0  0
   -6.9600   38.2160   -5.9560  Br 0  0  0  0  0  0  0  0  0  0  0  0
   -7.6110   38.9340   -8.6860   C 0  0  0  0  0  0  0  0  0  0  0  0
   -7.6120   38.7680  -10.0550   C 0  0  0  0  0  0  0  0  0  0  0  0
  6  5  2  0  0  0  0
  6  7  1  0  0  0  0
  5  4  1  0  0  0  0
  7  8  2  0  0  0  0
  3  2  2  0  0  0  0
  4  2  1  0  0  0  0
  4  9  2  0  0  0  0
  2  1  1  0  0  0  0
  8  9  1  0  0  0  0
  9 10  1  0  0  0  0
  1 11  2  0  0  0  0
 10 11  1  0  0  0  0
 11 12  1  0  0  0  0
 12 18  2  0  0  0  0
 12 13  1  0  0  0  0
 18 17  1  0  0  0  0
 13 14  2  0  0  0  0
 17 15  2  0  0  0  0
 14 15  1  0  0  0  0
 15 16  1  0  0  0  0
A    1
CAB
A    2
CAD
A    3
OAH
A    4
CAE
A    5
CAO
A    6
CAQ
A    7
CAR
A    8
CAP
A    9
CAF
A   10
OAC
A   11
CAA
A   12
CAG
A   13
CAI
A   14
CAM
A   15
CAK
A   16
BR1
A   17
CAL
A   18
CAJ
M  END
>  <InstanceId>
4KZU_A73_A_1201

>  <ChemCompId>
A73

>  <PdbId>
4KZU

>  <ChainId>
A

>  <ResidueNumber>
1201

>  <InsertionCode>


>  <Model>
1

>  <AltIds>


>  <MissingHeavyAtoms>
0

>  <ObservedFormula>
C15 O2 Br

>  <Name>
2-(4-bromophenyl)-4H-chromen-4-one

>  <SystematicName>
2-(4-bromophenyl)chromen-4-one

>  <Synonyms>


>  <Type>
NON-POLYMER

>  <Formula>
C15 H9 Br O2

>  <MolecularWeight>
301.135

>  <ModifiedDate>
2013-10-25

>  <Parent>


>  <OneLetterCode>


>  <SubcomponentList>


>  <AmbiguousFlag>
N

>  <InChI>
InChI=1S/C15H9BrO2/c16-11-7-5-10(6-8-11)15-9-13(17)12-3-1-2-4-14(12)18-15/h1-9H

>  <InChIKey>
URZUAHXELZUWFE-UHFFFAOYSA-N

>  <SMILES>
c1ccc2c(c1)C(=O)C=C(O2)c3ccc(cc3)Br

$$$$
