2RKF_AB1_A_501


 50 53  0  0  0  0  0  0  0  0999 V2000
  -19.3488    2.0922   -0.6335 C   0  0  0  0  0  0  0  0  0  0  0  0
  -19.5789    0.6770   -1.1594 C   0  0  0  0  0  0  0  0  0  0  0  0
  -20.7970    0.2229   -0.5841 O   0  0  0  0  0  0  0  0  0  0  0  0
  -20.7055    0.1878    0.3809 H   0  0  0  0  0  0  0  0  0  0  0  0
  -18.4994   -0.3580   -0.8192 C   0  0  0  0  0  0  0  0  0  0  0  0
  -18.3352   -0.3468    0.6334 N   0  0  0  0  0  0  0  0  0  0  0  0
  -17.2315    0.1485    1.2054 C   0  0  0  0  0  0  0  0  0  0  0  0
  -16.3025    0.6223    0.5755 O   0  0  0  0  0  0  0  0  0  0  0  0
  -19.0513   -0.7111    1.2024 H   0  0  0  0  0  0  0  0  0  0  0  0
  -17.1350    0.1171    2.7050 C   0  0  0  0  0  0  0  0  0  0  0  0
  -18.3550   -0.2846    3.3382 O   0  0  0  0  0  0  0  0  0  0  0  0
  -18.3101   -0.6658    4.6586 C   0  0  0  0  0  0  0  0  0  0  0  0
  -18.5313    0.2640    5.6802 C   0  0  0  0  0  0  0  0  0  0  0  0
  -18.4696   -0.1331    7.0174 C   0  0  0  0  0  0  0  0  0  0  0  0
  -18.1873   -1.4563    7.3376 C   0  0  0  0  0  0  0  0  0  0  0  0
  -17.9597   -2.3845    6.3253 C   0  0  0  0  0  0  0  0  0  0  0  0
  -18.0173   -1.9902    4.9913 C   0  0  0  0  0  0  0  0  0  0  0  0
  -17.7659   -3.0197    3.9290 C   0  0  0  0  0  0  0  0  0  0  0  0
  -18.8498    1.7047    5.3787 C   0  0  0  0  0  0  0  0  0  0  0  0
  -19.0253   -1.7583   -1.1546 C   0  0  0  0  0  0  0  0  0  0  0  0
  -18.2904   -2.9008   -0.4604 C   0  0  0  0  0  0  0  0  0  0  0  0
  -19.0262   -3.8713    0.2225 C   0  0  0  0  0  0  0  0  0  0  0  0
  -18.3894   -4.9340    0.8670 C   0  0  0  0  0  0  0  0  0  0  0  0
  -16.9969   -5.0352    0.8358 C   0  0  0  0  0  0  0  0  0  0  0  0
  -16.2569   -4.0677    0.1464 C   0  0  0  0  0  0  0  0  0  0  0  0
  -16.8991   -3.0085   -0.4970 C   0  0  0  0  0  0  0  0  0  0  0  0
  -18.4869    2.9663   -1.5420 C   0  0  0  0  0  0  0  0  0  0  0  0
  -17.8976    2.0993   -3.7576 C   0  0  0  0  0  0  0  0  0  0  0  0
  -18.8070    2.6066   -2.9257 N   0  0  0  0  0  0  0  0  0  0  0  0
  -16.7394    1.8872   -3.4240 O   0  0  0  0  0  0  0  0  0  0  0  0
  -19.7255    2.7443   -3.2522 H   0  0  0  0  0  0  0  0  0  0  0  0
  -18.4019    1.8237   -5.1576 C   0  0  0  0  0  0  0  0  0  0  0  0
  -17.0998    4.7096   -8.0529 C   0  0  0  0  0  0  0  0  0  0  0  0
  -16.7009    2.4628   -6.8732 C   0  0  0  0  0  0  0  0  0  0  0  0
  -17.9048    2.8274   -6.1110 N   0  0  0  0  0  0  0  0  0  0  0  0
  -18.5768    3.9707   -6.2437 C   0  0  0  0  0  0  0  0  0  0  0  0
  -18.0173    4.9336   -6.9509 N   0  0  0  0  0  0  0  0  0  0  0  0
  -19.6784    4.1312   -5.7710 O   0  0  0  0  0  0  0  0  0  0  0  0
  -16.0816    3.7334   -7.4769 C   0  0  0  0  0  0  0  0  0  0  0  0
  -18.2362    5.8643   -6.7159 H   0  0  0  0  0  0  0  0  0  0  0  0
  -18.1174    0.4043   -5.6963 C   0  0  0  0  0  0  0  0  0  0  0  0
  -18.4279   -0.6734   -4.6656 C   0  0  0  0  0  0  0  0  0  0  0  0
  -18.9100    0.1028   -6.9666 C   0  0  0  0  0  0  0  0  0  0  0  0
  -18.9719    4.4052   -1.3204 C   0  0  0  0  0  0  0  0  0  0  0  0
  -18.2422    7.2738   -3.7163 C   0  0  0  0  0  0  0  0  0  0  0  0
  -16.8625    7.4185   -3.5889 C   0  0  0  0  0  0  0  0  0  0  0  0
  -16.1682    6.5796   -2.7251 C   0  0  0  0  0  0  0  0  0  0  0  0
  -16.8546    5.6050   -1.9962 C   0  0  0  0  0  0  0  0  0  0  0  0
  -18.2442    5.4713   -2.1146 C   0  0  0  0  0  0  0  0  0  0  0  0
  -18.9351    6.3093   -2.9866 C   0  0  0  0  0  0  0  0  0  0  0  0
 33 37  1  0  0  0
 33 39  1  0  0  0
 34 35  1  0  0  0
 34 39  1  0  0  0
 35 36  1  0  0  0
 35 32  1  0  0  0
 36 37  1  0  0  0
 36 38  2  0  0  0
 21 22  2  0  0  0
 21 26  1  0  0  0
 21 20  1  0  0  0
 22 23  1  0  0  0
 23 24  2  0  0  0
 24 25  1  0  0  0
 25 26  2  0  0  0
 32 28  1  0  0  0
 32 41  1  0  0  0
 28 29  1  0  0  0
 28 30  2  0  0  0
 29 27  1  0  0  0
 27 44  1  0  0  0
 27  1  1  0  0  0
 41 42  1  0  0  0
 41 43  1  0  0  0
 45 46  2  0  0  0
 45 50  1  0  0  0
 46 47  1  0  0  0
 47 48  2  0  0  0
 48 49  1  0  0  0
 49 50  2  0  0  0
 49 44  1  0  0  0
  1  2  1  0  0  0
  2  5  1  0  0  0
  2  3  1  0  0  0
  5  6  1  0  0  0
  5 20  1  0  0  0
  6  7  1  0  0  0
  7 10  1  0  0  0
  7  8  2  0  0  0
 10 11  1  0  0  0
 11 12  1  0  0  0
 12 13  2  0  0  0
 12 17  1  0  0  0
 13 14  1  0  0  0
 13 19  1  0  0  0
 14 15  2  0  0  0
 15 16  1  0  0  0
 16 17  2  0  0  0
 17 18  1  0  0  0
 37 40  1  0  0  0
 29 31  1  0  0  0
  6  9  1  0  0  0
  3  4  1  0  0  0
M  END
> <minimizedAffinity>
-10.32215

$$$$
2RKF_AB1_A_501


 50 53  0  0  0  0  0  0  0  0999 V2000
  -19.1667   -2.0193   -0.3703 C   0  0  0  0  0  0  0  0  0  0  0  0
  -19.4464   -0.5879    0.0825 C   0  0  0  0  0  0  0  0  0  0  0  0
  -20.8421   -0.3748   -0.0833 O   0  0  0  0  0  0  0  0  0  0  0  0
  -21.0725   -0.4574   -1.0219 H   0  0  0  0  0  0  0  0  0  0  0  0
  -18.7203    0.5222   -0.6872 C   0  0  0  0  0  0  0  0  0  0  0  0
  -18.9345    0.2696   -2.1110 N   0  0  0  0  0  0  0  0  0  0  0  0
  -17.9103    0.2163   -2.9705 C   0  0  0  0  0  0  0  0  0  0  0  0
  -16.7470    0.3651   -2.6402 O   0  0  0  0  0  0  0  0  0  0  0  0
  -19.8512    0.1359   -2.4444 H   0  0  0  0  0  0  0  0  0  0  0  0
  -18.2137   -0.0405   -4.4200 C   0  0  0  0  0  0  0  0  0  0  0  0
  -18.8506    1.0677   -5.0656 O   0  0  0  0  0  0  0  0  0  0  0  0
  -18.1374    1.7728   -6.0064 C   0  0  0  0  0  0  0  0  0  0  0  0
  -17.9517    1.2615   -7.2952 C   0  0  0  0  0  0  0  0  0  0  0  0
  -17.2140    1.9813   -8.2372 C   0  0  0  0  0  0  0  0  0  0  0  0
  -16.6607    3.2102   -7.8957 C   0  0  0  0  0  0  0  0  0  0  0  0
  -16.8366    3.7208   -6.6126 C   0  0  0  0  0  0  0  0  0  0  0  0
  -17.5688    3.0034   -5.6706 C   0  0  0  0  0  0  0  0  0  0  0  0
  -17.7360    3.5868   -4.2982 C   0  0  0  0  0  0  0  0  0  0  0  0
  -18.5414   -0.0604   -7.7108 C   0  0  0  0  0  0  0  0  0  0  0  0
  -19.4125    1.8609   -0.4067 C   0  0  0  0  0  0  0  0  0  0  0  0
  -18.5291    3.0900   -0.5965 C   0  0  0  0  0  0  0  0  0  0  0  0
  -19.1160    4.3037   -0.9597 C   0  0  0  0  0  0  0  0  0  0  0  0
  -18.3407    5.4513   -1.1390 C   0  0  0  0  0  0  0  0  0  0  0  0
  -16.9573    5.3940   -0.9570 C   0  0  0  0  0  0  0  0  0  0  0  0
  -16.3666    4.1805   -0.5863 C   0  0  0  0  0  0  0  0  0  0  0  0
  -17.1469    3.0371   -0.4073 C   0  0  0  0  0  0  0  0  0  0  0  0
  -18.5032   -2.8944    0.6910 C   0  0  0  0  0  0  0  0  0  0  0  0
  -17.8530   -1.9176    2.8429 C   0  0  0  0  0  0  0  0  0  0  0  0
  -18.8075   -2.3036    1.9966 N   0  0  0  0  0  0  0  0  0  0  0  0
  -16.6604   -2.0169    2.5868 O   0  0  0  0  0  0  0  0  0  0  0  0
  -19.7496   -2.1877    2.2578 H   0  0  0  0  0  0  0  0  0  0  0  0
  -18.3568   -1.3642    4.1583 C   0  0  0  0  0  0  0  0  0  0  0  0
  -17.2855   -3.7629    7.5502 C   0  0  0  0  0  0  0  0  0  0  0  0
  -16.7686   -1.7425    6.0503 C   0  0  0  0  0  0  0  0  0  0  0  0
  -17.9371   -2.2078    5.2878 N   0  0  0  0  0  0  0  0  0  0  0  0
  -18.6425   -3.3045    5.5629 C   0  0  0  0  0  0  0  0  0  0  0  0
  -18.1460   -4.1486    6.4469 N   0  0  0  0  0  0  0  0  0  0  0  0
  -19.7199   -3.5231    5.0589 O   0  0  0  0  0  0  0  0  0  0  0  0
  -16.2141   -2.9077    6.8852 C   0  0  0  0  0  0  0  0  0  0  0  0
  -18.3738   -5.1017    6.3521 H   0  0  0  0  0  0  0  0  0  0  0  0
  -17.9893    0.1093    4.4408 C   0  0  0  0  0  0  0  0  0  0  0  0
  -18.1184    0.9810    3.1983 C   0  0  0  0  0  0  0  0  0  0  0  0
  -18.8503    0.7134    5.5483 C   0  0  0  0  0  0  0  0  0  0  0  0
  -19.2210   -4.2491    0.6243 C   0  0  0  0  0  0  0  0  0  0  0  0
  -16.5021   -6.6533    1.7772 C   0  0  0  0  0  0  0  0  0  0  0  0
  -17.2224   -7.5622    2.5490 C   0  0  0  0  0  0  0  0  0  0  0  0
  -18.5948   -7.3947    2.6918 C   0  0  0  0  0  0  0  0  0  0  0  0
  -19.2366   -6.3236    2.0650 C   0  0  0  0  0  0  0  0  0  0  0  0
  -18.5078   -5.4022    1.3016 C   0  0  0  0  0  0  0  0  0  0  0  0
  -17.1338   -5.5776    1.1552 C   0  0  0  0  0  0  0  0  0  0  0  0
 33 37  1  0  0  0
 33 39  1  0  0  0
 34 35  1  0  0  0
 34 39  1  0  0  0
 35 36  1  0  0  0
 35 32  1  0  0  0
 36 37  1  0  0  0
 36 38  2  0  0  0
 21 22  2  0  0  0
 21 26  1  0  0  0
 21 20  1  0  0  0
 22 23  1  0  0  0
 23 24  2  0  0  0
 24 25  1  0  0  0
 25 26  2  0  0  0
 32 28  1  0  0  0
 32 41  1  0  0  0
 28 29  1  0  0  0
 28 30  2  0  0  0
 29 27  1  0  0  0
 27 44  1  0  0  0
 27  1  1  0  0  0
 41 42  1  0  0  0
 41 43  1  0  0  0
 45 46  2  0  0  0
 45 50  1  0  0  0
 46 47  1  0  0  0
 47 48  2  0  0  0
 48 49  1  0  0  0
 49 50  2  0  0  0
 49 44  1  0  0  0
  1  2  1  0  0  0
  2  5  1  0  0  0
  2  3  1  0  0  0
  5  6  1  0  0  0
  5 20  1  0  0  0
  6  7  1  0  0  0
  7 10  1  0  0  0
  7  8  2  0  0  0
 10 11  1  0  0  0
 11 12  1  0  0  0
 12 13  2  0  0  0
 12 17  1  0  0  0
 13 14  1  0  0  0
 13 19  1  0  0  0
 14 15  2  0  0  0
 15 16  1  0  0  0
 16 17  2  0  0  0
 17 18  1  0  0  0
 37 40  1  0  0  0
 29 31  1  0  0  0
  6  9  1  0  0  0
  3  4  1  0  0  0
M  END
> <minimizedAffinity>
-10.28167

$$$$
2RKF_AB1_A_501


 50 53  0  0  0  0  0  0  0  0999 V2000
  -19.0287    3.0419   -0.3147 C   0  0  0  0  0  0  0  0  0  0  0  0
  -19.1113    1.5208   -0.4218 C   0  0  0  0  0  0  0  0  0  0  0  0
  -20.4090    1.2183   -0.9171 O   0  0  0  0  0  0  0  0  0  0  0  0
  -21.0764    1.5246   -0.2834 H   0  0  0  0  0  0  0  0  0  0  0  0
  -18.9263    0.7369    0.8833 C   0  0  0  0  0  0  0  0  0  0  0  0
  -18.4229   -0.5872    0.5223 N   0  0  0  0  0  0  0  0  0  0  0  0
  -19.2560   -1.5939    0.2338 C   0  0  0  0  0  0  0  0  0  0  0  0
  -20.4696   -1.4862    0.2438 O   0  0  0  0  0  0  0  0  0  0  0  0
  -17.4511   -0.7415    0.4908 H   0  0  0  0  0  0  0  0  0  0  0  0
  -18.6605   -2.9276   -0.1209 C   0  0  0  0  0  0  0  0  0  0  0  0
  -17.4063   -3.1726    0.5252 O   0  0  0  0  0  0  0  0  0  0  0  0
  -17.2611   -4.3321    1.2499 C   0  0  0  0  0  0  0  0  0  0  0  0
  -17.6215   -4.3820    2.6007 C   0  0  0  0  0  0  0  0  0  0  0  0
  -17.4565   -5.5619    3.3290 C   0  0  0  0  0  0  0  0  0  0  0  0
  -16.9321   -6.6922    2.7122 C   0  0  0  0  0  0  0  0  0  0  0  0
  -16.5655   -6.6464    1.3700 C   0  0  0  0  0  0  0  0  0  0  0  0
  -16.7258   -5.4702    0.6427 C   0  0  0  0  0  0  0  0  0  0  0  0
  -16.3187   -5.4603   -0.8016 C   0  0  0  0  0  0  0  0  0  0  0  0
  -18.2022   -3.1847    3.3059 C   0  0  0  0  0  0  0  0  0  0  0  0
  -17.8040    1.3854    1.7018 C   0  0  0  0  0  0  0  0  0  0  0  0
  -17.6193    0.8099    3.1025 C   0  0  0  0  0  0  0  0  0  0  0  0
  -18.6077    1.0248    4.0651 C   0  0  0  0  0  0  0  0  0  0  0  0
  -18.4760    0.5108    5.3568 C   0  0  0  0  0  0  0  0  0  0  0  0
  -17.3423   -0.2283    5.7014 C   0  0  0  0  0  0  0  0  0  0  0  0
  -16.3529   -0.4512    4.7368 C   0  0  0  0  0  0  0  0  0  0  0  0
  -16.4907    0.0640    3.4469 C   0  0  0  0  0  0  0  0  0  0  0  0
  -18.3530    3.7186   -1.5055 C   0  0  0  0  0  0  0  0  0  0  0  0
  -17.8274    2.2457   -3.3928 C   0  0  0  0  0  0  0  0  0  0  0  0
  -18.7178    2.9591   -2.7040 N   0  0  0  0  0  0  0  0  0  0  0  0
  -16.6501    2.1642   -3.0686 O   0  0  0  0  0  0  0  0  0  0  0  0
  -19.6530    2.9763   -3.0112 H   0  0  0  0  0  0  0  0  0  0  0  0
  -18.3795    1.5582   -4.6227 C   0  0  0  0  0  0  0  0  0  0  0  0
  -17.2144    3.4239   -8.3062 C   0  0  0  0  0  0  0  0  0  0  0  0
  -16.7278    1.6686   -6.4948 C   0  0  0  0  0  0  0  0  0  0  0  0
  -17.9291    2.2249   -5.8541 N   0  0  0  0  0  0  0  0  0  0  0  0
  -18.6376    3.2532   -6.3197 C   0  0  0  0  0  0  0  0  0  0  0  0
  -18.1195    3.9596   -7.3061 N   0  0  0  0  0  0  0  0  0  0  0  0
  -19.7354    3.5275   -5.8928 O   0  0  0  0  0  0  0  0  0  0  0  0
  -16.1576    2.7009   -7.4805 C   0  0  0  0  0  0  0  0  0  0  0  0
  -18.3625    4.9117   -7.3678 H   0  0  0  0  0  0  0  0  0  0  0  0
  -18.0988    0.0421   -4.7158 C   0  0  0  0  0  0  0  0  0  0  0  0
  -18.5048   -0.6954   -3.4464 C   0  0  0  0  0  0  0  0  0  0  0  0
  -18.8148   -0.6026   -5.9009 C   0  0  0  0  0  0  0  0  0  0  0  0
  -19.0056    5.1023   -1.6255 C   0  0  0  0  0  0  0  0  0  0  0  0
  -19.7758    6.8573   -4.9162 C   0  0  0  0  0  0  0  0  0  0  0  0
  -18.5047    7.0359   -5.4578 C   0  0  0  0  0  0  0  0  0  0  0  0
  -17.3960    6.5818   -4.7532 C   0  0  0  0  0  0  0  0  0  0  0  0
  -17.5637    5.9546   -3.5159 C   0  0  0  0  0  0  0  0  0  0  0  0
  -18.8417    5.7896   -2.9664 C   0  0  0  0  0  0  0  0  0  0  0  0
  -19.9506    6.2398   -3.6789 C   0  0  0  0  0  0  0  0  0  0  0  0
 33 37  1  0  0  0
 33 39  1  0  0  0
 34 35  1  0  0  0
 34 39  1  0  0  0
 35 36  1  0  0  0
 35 32  1  0  0  0
 36 37  1  0  0  0
 36 38  2  0  0  0
 21 22  2  0  0  0
 21 26  1  0  0  0
 21 20  1  0  0  0
 22 23  1  0  0  0
 23 24  2  0  0  0
 24 25  1  0  0  0
 25 26  2  0  0  0
 32 28  1  0  0  0
 32 41  1  0  0  0
 28 29  1  0  0  0
 28 30  2  0  0  0
 29 27  1  0  0  0
 27 44  1  0  0  0
 27  1  1  0  0  0
 41 42  1  0  0  0
 41 43  1  0  0  0
 45 46  2  0  0  0
 45 50  1  0  0  0
 46 47  1  0  0  0
 47 48  2  0  0  0
 48 49  1  0  0  0
 49 50  2  0  0  0
 49 44  1  0  0  0
  1  2  1  0  0  0
  2  5  1  0  0  0
  2  3  1  0  0  0
  5  6  1  0  0  0
  5 20  1  0  0  0
  6  7  1  0  0  0
  7 10  1  0  0  0
  7  8  2  0  0  0
 10 11  1  0  0  0
 11 12  1  0  0  0
 12 13  2  0  0  0
 12 17  1  0  0  0
 13 14  1  0  0  0
 13 19  1  0  0  0
 14 15  2  0  0  0
 15 16  1  0  0  0
 16 17  2  0  0  0
 17 18  1  0  0  0
 37 40  1  0  0  0
 29 31  1  0  0  0
  6  9  1  0  0  0
  3  4  1  0  0  0
M  END
> <minimizedAffinity>
-10.10419

$$$$
2RKF_AB1_A_501


 50 53  0  0  0  0  0  0  0  0999 V2000
  -18.0015   -0.6221   -2.3272 C   0  0  0  0  0  0  0  0  0  0  0  0
  -18.9462   -1.4446   -1.4537 C   0  0  0  0  0  0  0  0  0  0  0  0
  -19.8583   -0.5264   -0.8655 O   0  0  0  0  0  0  0  0  0  0  0  0
  -19.3724    0.0959   -0.3020 H   0  0  0  0  0  0  0  0  0  0  0  0
  -18.2981   -2.2388   -0.3129 C   0  0  0  0  0  0  0  0  0  0  0  0
  -18.4282   -1.4334    0.9001 N   0  0  0  0  0  0  0  0  0  0  0  0
  -17.4231   -0.6660    1.3374 C   0  0  0  0  0  0  0  0  0  0  0  0
  -16.3490   -0.5766    0.7692 O   0  0  0  0  0  0  0  0  0  0  0  0
  -19.2727   -1.4561    1.4057 H   0  0  0  0  0  0  0  0  0  0  0  0
  -17.6324    0.1268    2.5971 C   0  0  0  0  0  0  0  0  0  0  0  0
  -18.7150   -0.3635    3.3961 O   0  0  0  0  0  0  0  0  0  0  0  0
  -18.4653   -0.6774    4.7114 C   0  0  0  0  0  0  0  0  0  0  0  0
  -18.1307   -1.9834    5.0846 C   0  0  0  0  0  0  0  0  0  0  0  0
  -17.8928   -2.2920    6.4254 C   0  0  0  0  0  0  0  0  0  0  0  0
  -17.9884   -1.3001    7.3949 C   0  0  0  0  0  0  0  0  0  0  0  0
  -18.3276   -0.0001    7.0301 C   0  0  0  0  0  0  0  0  0  0  0  0
  -18.5687    0.3093    5.6943 C   0  0  0  0  0  0  0  0  0  0  0  0
  -18.9320    1.7217    5.3408 C   0  0  0  0  0  0  0  0  0  0  0  0
  -18.0065   -3.0863    4.0667 C   0  0  0  0  0  0  0  0  0  0  0  0
  -19.1260   -3.5017   -0.0490 C   0  0  0  0  0  0  0  0  0  0  0  0
  -18.3763   -4.6193    0.6695 C   0  0  0  0  0  0  0  0  0  0  0  0
  -16.9991   -4.7497    0.4802 C   0  0  0  0  0  0  0  0  0  0  0  0
  -16.2779   -5.7577    1.1235 C   0  0  0  0  0  0  0  0  0  0  0  0
  -16.9347   -6.6547    1.9687 C   0  0  0  0  0  0  0  0  0  0  0  0
  -18.3140   -6.5226    2.1658 C   0  0  0  0  0  0  0  0  0  0  0  0
  -19.0294   -5.5122    1.5211 C   0  0  0  0  0  0  0  0  0  0  0  0
  -18.6986    0.1713   -3.4304 C   0  0  0  0  0  0  0  0  0  0  0  0
  -18.3471    2.4703   -2.6566 C   0  0  0  0  0  0  0  0  0  0  0  0
  -18.0500    1.4830   -3.5012 N   0  0  0  0  0  0  0  0  0  0  0  0
  -19.1696    2.3491   -1.7585 O   0  0  0  0  0  0  0  0  0  0  0  0
  -17.3712    1.6406   -4.1966 H   0  0  0  0  0  0  0  0  0  0  0  0
  -17.6031    3.7644   -2.9059 C   0  0  0  0  0  0  0  0  0  0  0  0
  -19.9486    6.7379   -4.9217 C   0  0  0  0  0  0  0  0  0  0  0  0
  -19.1657    5.7041   -2.7041 C   0  0  0  0  0  0  0  0  0  0  0  0
  -18.4614    4.7526   -3.5769 N   0  0  0  0  0  0  0  0  0  0  0  0
  -18.5260    4.7437   -4.9081 C   0  0  0  0  0  0  0  0  0  0  0  0
  -19.4411    5.4998   -5.4838 N   0  0  0  0  0  0  0  0  0  0  0  0
  -17.7603    4.1001   -5.5878 O   0  0  0  0  0  0  0  0  0  0  0  0
  -20.3122    6.3581   -3.4917 C   0  0  0  0  0  0  0  0  0  0  0  0
  -19.8031    5.2051   -6.3506 H   0  0  0  0  0  0  0  0  0  0  0  0
  -16.9467    4.4010   -1.6610 C   0  0  0  0  0  0  0  0  0  0  0  0
  -16.5789    3.3605   -0.6111 C   0  0  0  0  0  0  0  0  0  0  0  0
  -15.6915    5.1952   -2.0168 C   0  0  0  0  0  0  0  0  0  0  0  0
  -18.3826   -0.5656   -4.7388 C   0  0  0  0  0  0  0  0  0  0  0  0
  -18.4937    1.5453   -7.9063 C   0  0  0  0  0  0  0  0  0  0  0  0
  -17.1601    1.9191   -8.0565 C   0  0  0  0  0  0  0  0  0  0  0  0
  -16.2230    1.4811   -7.1281 C   0  0  0  0  0  0  0  0  0  0  0  0
  -16.6230    0.6754   -6.0589 C   0  0  0  0  0  0  0  0  0  0  0  0
  -17.9671    0.3132   -5.9015 C   0  0  0  0  0  0  0  0  0  0  0  0
  -18.9018    0.7485   -6.8379 C   0  0  0  0  0  0  0  0  0  0  0  0
 33 37  1  0  0  0
 33 39  1  0  0  0
 34 35  1  0  0  0
 34 39  1  0  0  0
 35 36  1  0  0  0
 35 32  1  0  0  0
 36 37  1  0  0  0
 36 38  2  0  0  0
 21 22  2  0  0  0
 21 26  1  0  0  0
 21 20  1  0  0  0
 22 23  1  0  0  0
 23 24  2  0  0  0
 24 25  1  0  0  0
 25 26  2  0  0  0
 32 28  1  0  0  0
 32 41  1  0  0  0
 28 29  1  0  0  0
 28 30  2  0  0  0
 29 27  1  0  0  0
 27 44  1  0  0  0
 27  1  1  0  0  0
 41 42  1  0  0  0
 41 43  1  0  0  0
 45 46  2  0  0  0
 45 50  1  0  0  0
 46 47  1  0  0  0
 47 48  2  0  0  0
 48 49  1  0  0  0
 49 50  2  0  0  0
 49 44  1  0  0  0
  1  2  1  0  0  0
  2  5  1  0  0  0
  2  3  1  0  0  0
  5  6  1  0  0  0
  5 20  1  0  0  0
  6  7  1  0  0  0
  7 10  1  0  0  0
  7  8  2  0  0  0
 10 11  1  0  0  0
 11 12  1  0  0  0
 12 13  2  0  0  0
 12 17  1  0  0  0
 13 14  1  0  0  0
 13 19  1  0  0  0
 14 15  2  0  0  0
 15 16  1  0  0  0
 16 17  2  0  0  0
 17 18  1  0  0  0
 37 40  1  0  0  0
 29 31  1  0  0  0
  6  9  1  0  0  0
  3  4  1  0  0  0
M  END
> <minimizedAffinity>
-9.83806

$$$$
2RKF_AB1_A_501


 50 53  0  0  0  0  0  0  0  0999 V2000
  -19.3962   -1.8806   -0.2570 C   0  0  0  0  0  0  0  0  0  0  0  0
  -19.0182   -0.4065   -0.3862 C   0  0  0  0  0  0  0  0  0  0  0  0
  -19.9706    0.3252    0.3743 O   0  0  0  0  0  0  0  0  0  0  0  0
  -20.8548    0.1941   -0.0024 H   0  0  0  0  0  0  0  0  0  0  0  0
  -19.0237    0.1743   -1.8057 C   0  0  0  0  0  0  0  0  0  0  0  0
  -18.0065    1.2234   -1.8453 N   0  0  0  0  0  0  0  0  0  0  0  0
  -18.2950    2.4859   -1.5086 C   0  0  0  0  0  0  0  0  0  0  0  0
  -19.4000    2.8494   -1.1462 O   0  0  0  0  0  0  0  0  0  0  0  0
  -17.0904    0.9964   -2.1254 H   0  0  0  0  0  0  0  0  0  0  0  0
  -17.1958    3.5084   -1.5826 C   0  0  0  0  0  0  0  0  0  0  0  0
  -16.9217    3.9428   -2.9193 O   0  0  0  0  0  0  0  0  0  0  0  0
  -17.6825    4.9611   -3.4435 C   0  0  0  0  0  0  0  0  0  0  0  0
  -17.5168    6.2785   -3.0029 C   0  0  0  0  0  0  0  0  0  0  0  0
  -18.3051    7.3015   -3.5336 C   0  0  0  0  0  0  0  0  0  0  0  0
  -19.2591    7.0127   -4.5030 C   0  0  0  0  0  0  0  0  0  0  0  0
  -19.4330    5.7025   -4.9404 C   0  0  0  0  0  0  0  0  0  0  0  0
  -18.6506    4.6803   -4.4102 C   0  0  0  0  0  0  0  0  0  0  0  0
  -18.8680    3.2811   -4.9070 C   0  0  0  0  0  0  0  0  0  0  0  0
  -16.4892    6.6377   -1.9623 C   0  0  0  0  0  0  0  0  0  0  0  0
  -18.5357   -0.8977   -2.7869 C   0  0  0  0  0  0  0  0  0  0  0  0
  -17.9022   -0.3548   -4.0640 C   0  0  0  0  0  0  0  0  0  0  0  0
  -18.6275   -0.3941   -5.2565 C   0  0  0  0  0  0  0  0  0  0  0  0
  -18.0828    0.0967   -6.4450 C   0  0  0  0  0  0  0  0  0  0  0  0
  -16.7939    0.6343   -6.4520 C   0  0  0  0  0  0  0  0  0  0  0  0
  -16.0668    0.6813   -5.2570 C   0  0  0  0  0  0  0  0  0  0  0  0
  -16.6171    0.1905   -4.0718 C   0  0  0  0  0  0  0  0  0  0  0  0
  -18.5125   -2.6725    0.7044 C   0  0  0  0  0  0  0  0  0  0  0  0
  -17.9116   -1.7670    2.9013 C   0  0  0  0  0  0  0  0  0  0  0  0
  -18.8382   -2.2294    2.0622 N   0  0  0  0  0  0  0  0  0  0  0  0
  -16.7307   -1.6684    2.5955 O   0  0  0  0  0  0  0  0  0  0  0  0
  -19.7737   -2.2747    2.3654 H   0  0  0  0  0  0  0  0  0  0  0  0
  -18.4285   -1.3913    4.2732 C   0  0  0  0  0  0  0  0  0  0  0  0
  -17.2647   -4.1386    7.3560 C   0  0  0  0  0  0  0  0  0  0  0  0
  -16.8165   -1.9421    6.1016 C   0  0  0  0  0  0  0  0  0  0  0  0
  -17.9767   -2.3488    5.2942 N   0  0  0  0  0  0  0  0  0  0  0  0
  -18.6485   -3.4903    5.4415 C   0  0  0  0  0  0  0  0  0  0  0  0
  -18.1217   -4.4174    6.2184 N   0  0  0  0  0  0  0  0  0  0  0  0
  -19.7228   -3.6796    4.9194 O   0  0  0  0  0  0  0  0  0  0  0  0
  -16.2229   -3.1806    6.7919 C   0  0  0  0  0  0  0  0  0  0  0  0
  -18.3230   -5.3590    6.0132 H   0  0  0  0  0  0  0  0  0  0  0  0
  -18.1089    0.0496    4.7292 C   0  0  0  0  0  0  0  0  0  0  0  0
  -18.4674    1.0803    3.6665 C   0  0  0  0  0  0  0  0  0  0  0  0
  -18.8327    0.4159    6.0233 C   0  0  0  0  0  0  0  0  0  0  0  0
  -18.9646   -4.1337    0.5801 C   0  0  0  0  0  0  0  0  0  0  0  0
  -18.0675   -6.9299    3.0047 C   0  0  0  0  0  0  0  0  0  0  0  0
  -16.6777   -6.9613    2.9148 C   0  0  0  0  0  0  0  0  0  0  0  0
  -16.0314   -6.0696    2.0669 C   0  0  0  0  0  0  0  0  0  0  0  0
  -16.7752   -5.1554    1.3165 C   0  0  0  0  0  0  0  0  0  0  0  0
  -18.1737   -5.1356    1.3973 C   0  0  0  0  0  0  0  0  0  0  0  0
  -18.8171   -6.0262    2.2534 C   0  0  0  0  0  0  0  0  0  0  0  0
 33 37  1  0  0  0
 33 39  1  0  0  0
 34 35  1  0  0  0
 34 39  1  0  0  0
 35 36  1  0  0  0
 35 32  1  0  0  0
 36 37  1  0  0  0
 36 38  2  0  0  0
 21 22  2  0  0  0
 21 26  1  0  0  0
 21 20  1  0  0  0
 22 23  1  0  0  0
 23 24  2  0  0  0
 24 25  1  0  0  0
 25 26  2  0  0  0
 32 28  1  0  0  0
 32 41  1  0  0  0
 28 29  1  0  0  0
 28 30  2  0  0  0
 29 27  1  0  0  0
 27 44  1  0  0  0
 27  1  1  0  0  0
 41 42  1  0  0  0
 41 43  1  0  0  0
 45 46  2  0  0  0
 45 50  1  0  0  0
 46 47  1  0  0  0
 47 48  2  0  0  0
 48 49  1  0  0  0
 49 50  2  0  0  0
 49 44  1  0  0  0
  1  2  1  0  0  0
  2  5  1  0  0  0
  2  3  1  0  0  0
  5  6  1  0  0  0
  5 20  1  0  0  0
  6  7  1  0  0  0
  7 10  1  0  0  0
  7  8  2  0  0  0
 10 11  1  0  0  0
 11 12  1  0  0  0
 12 13  2  0  0  0
 12 17  1  0  0  0
 13 14  1  0  0  0
 13 19  1  0  0  0
 14 15  2  0  0  0
 15 16  1  0  0  0
 16 17  2  0  0  0
 17 18  1  0  0  0
 37 40  1  0  0  0
 29 31  1  0  0  0
  6  9  1  0  0  0
  3  4  1  0  0  0
M  END
> <minimizedAffinity>
-9.59230

$$$$
2RKF_AB1_A_501


 50 53  0  0  0  0  0  0  0  0999 V2000
  -17.5424    1.2436   -0.6854 C   0  0  0  0  0  0  0  0  0  0  0  0
  -16.3638    0.5049   -0.0549 C   0  0  0  0  0  0  0  0  0  0  0  0
  -15.4551    0.2152   -1.1090 O   0  0  0  0  0  0  0  0  0  0  0  0
  -15.8833   -0.3699   -1.7534 H   0  0  0  0  0  0  0  0  0  0  0  0
  -16.6888   -0.8205    0.6451 C   0  0  0  0  0  0  0  0  0  0  0  0
  -17.6211   -0.5171    1.7295 N   0  0  0  0  0  0  0  0  0  0  0  0
  -17.1880   -0.2699    2.9712 C   0  0  0  0  0  0  0  0  0  0  0  0
  -16.0110   -0.2728    3.2859 O   0  0  0  0  0  0  0  0  0  0  0  0
  -18.5874   -0.4942    1.5423 H   0  0  0  0  0  0  0  0  0  0  0  0
  -18.2100    0.0266    4.0327 C   0  0  0  0  0  0  0  0  0  0  0  0
  -18.8271   -1.1517    4.5632 O   0  0  0  0  0  0  0  0  0  0  0  0
  -18.1378   -1.8833    5.5015 C   0  0  0  0  0  0  0  0  0  0  0  0
  -17.8899   -1.3614    6.7755 C   0  0  0  0  0  0  0  0  0  0  0  0
  -17.1770   -2.1092    7.7148 C   0  0  0  0  0  0  0  0  0  0  0  0
  -16.7104   -3.3768    7.3853 C   0  0  0  0  0  0  0  0  0  0  0  0
  -16.9484   -3.8985    6.1167 C   0  0  0  0  0  0  0  0  0  0  0  0
  -17.6559   -3.1534    5.1774 C   0  0  0  0  0  0  0  0  0  0  0  0
  -17.8919   -3.7500    3.8208 C   0  0  0  0  0  0  0  0  0  0  0  0
  -18.3851    0.0027    7.1781 C   0  0  0  0  0  0  0  0  0  0  0  0
  -17.4717   -1.7176   -0.3204 C   0  0  0  0  0  0  0  0  0  0  0  0
  -17.5297   -3.1889    0.0781 C   0  0  0  0  0  0  0  0  0  0  0  0
  -18.7722   -3.8105    0.2172 C   0  0  0  0  0  0  0  0  0  0  0  0
  -18.8657   -5.1567    0.5769 C   0  0  0  0  0  0  0  0  0  0  0  0
  -17.7056   -5.8999    0.8054 C   0  0  0  0  0  0  0  0  0  0  0  0
  -16.4584   -5.2815    0.6603 C   0  0  0  0  0  0  0  0  0  0  0  0
  -16.3713   -3.9360    0.2992 C   0  0  0  0  0  0  0  0  0  0  0  0
  -17.1413    2.3964   -1.6032 C   0  0  0  0  0  0  0  0  0  0  0  0
  -17.2538    1.5463   -3.8994 C   0  0  0  0  0  0  0  0  0  0  0  0
  -17.8242    2.1933   -2.8833 N   0  0  0  0  0  0  0  0  0  0  0  0
  -16.1296    1.0673   -3.8324 O   0  0  0  0  0  0  0  0  0  0  0  0
  -18.7359    2.5469   -2.9969 H   0  0  0  0  0  0  0  0  0  0  0  0
  -18.0962    1.4663   -5.1540 C   0  0  0  0  0  0  0  0  0  0  0  0
  -17.1842    4.4988   -8.0486 C   0  0  0  0  0  0  0  0  0  0  0  0
  -16.5347    2.2809   -6.9270 C   0  0  0  0  0  0  0  0  0  0  0  0
  -17.7326    2.5243   -6.1091 N   0  0  0  0  0  0  0  0  0  0  0  0
  -18.5097    3.6038   -6.1931 C   0  0  0  0  0  0  0  0  0  0  0  0
  -18.0698    4.6233   -6.9055 N   0  0  0  0  0  0  0  0  0  0  0  0
  -19.5998    3.6573   -5.6723 O   0  0  0  0  0  0  0  0  0  0  0  0
  -16.0586    3.6107   -7.5331 C   0  0  0  0  0  0  0  0  0  0  0  0
  -18.3611    5.5269   -6.6450 H   0  0  0  0  0  0  0  0  0  0  0  0
  -18.0949    0.0956   -5.8661 C   0  0  0  0  0  0  0  0  0  0  0  0
  -18.5401   -1.0310   -4.9425 C   0  0  0  0  0  0  0  0  0  0  0  0
  -18.9905    0.0905   -7.1033 C   0  0  0  0  0  0  0  0  0  0  0  0
  -17.7312    3.6621   -0.9667 C   0  0  0  0  0  0  0  0  0  0  0  0
  -16.4195    6.7281   -2.8054 C   0  0  0  0  0  0  0  0  0  0  0  0
  -17.5798    7.2463   -3.3763 C   0  0  0  0  0  0  0  0  0  0  0  0
  -18.7909    6.5994   -3.1602 C   0  0  0  0  0  0  0  0  0  0  0  0
  -18.8348    5.4425   -2.3778 C   0  0  0  0  0  0  0  0  0  0  0  0
  -17.6644    4.9149   -1.8170 C   0  0  0  0  0  0  0  0  0  0  0  0
  -16.4539    5.5701   -2.0303 C   0  0  0  0  0  0  0  0  0  0  0  0
 33 37  1  0  0  0
 33 39  1  0  0  0
 34 35  1  0  0  0
 34 39  1  0  0  0
 35 36  1  0  0  0
 35 32  1  0  0  0
 36 37  1  0  0  0
 36 38  2  0  0  0
 21 22  2  0  0  0
 21 26  1  0  0  0
 21 20  1  0  0  0
 22 23  1  0  0  0
 23 24  2  0  0  0
 24 25  1  0  0  0
 25 26  2  0  0  0
 32 28  1  0  0  0
 32 41  1  0  0  0
 28 29  1  0  0  0
 28 30  2  0  0  0
 29 27  1  0  0  0
 27 44  1  0  0  0
 27  1  1  0  0  0
 41 42  1  0  0  0
 41 43  1  0  0  0
 45 46  2  0  0  0
 45 50  1  0  0  0
 46 47  1  0  0  0
 47 48  2  0  0  0
 48 49  1  0  0  0
 49 50  2  0  0  0
 49 44  1  0  0  0
  1  2  1  0  0  0
  2  5  1  0  0  0
  2  3  1  0  0  0
  5  6  1  0  0  0
  5 20  1  0  0  0
  6  7  1  0  0  0
  7 10  1  0  0  0
  7  8  2  0  0  0
 10 11  1  0  0  0
 11 12  1  0  0  0
 12 13  2  0  0  0
 12 17  1  0  0  0
 13 14  1  0  0  0
 13 19  1  0  0  0
 14 15  2  0  0  0
 15 16  1  0  0  0
 16 17  2  0  0  0
 17 18  1  0  0  0
 37 40  1  0  0  0
 29 31  1  0  0  0
  6  9  1  0  0  0
  3  4  1  0  0  0
M  END
> <minimizedAffinity>
-9.54241

$$$$
2RKF_AB1_A_501


 50 53  0  0  0  0  0  0  0  0999 V2000
  -18.1291    0.3642    0.4553 C   0  0  0  0  0  0  0  0  0  0  0  0
  -19.2856    0.9411   -0.3583 C   0  0  0  0  0  0  0  0  0  0  0  0
  -20.3694    0.0309   -0.2256 O   0  0  0  0  0  0  0  0  0  0  0  0
  -20.1188   -0.8273   -0.6019 H   0  0  0  0  0  0  0  0  0  0  0  0
  -19.0313    1.1330   -1.8585 C   0  0  0  0  0  0  0  0  0  0  0  0
  -18.3382    2.4102   -2.0176 N   0  0  0  0  0  0  0  0  0  0  0  0
  -18.8145    3.5339   -1.4689 C   0  0  0  0  0  0  0  0  0  0  0  0
  -19.8353    3.5778   -0.8053 O   0  0  0  0  0  0  0  0  0  0  0  0
  -17.5039    2.4443   -2.5391 H   0  0  0  0  0  0  0  0  0  0  0  0
  -18.0477    4.8085   -1.6843 C   0  0  0  0  0  0  0  0  0  0  0  0
  -18.5361    5.5782   -2.7887 O   0  0  0  0  0  0  0  0  0  0  0  0
  -17.7235    5.7317   -3.8872 C   0  0  0  0  0  0  0  0  0  0  0  0
  -17.8840    4.9204   -5.0155 C   0  0  0  0  0  0  0  0  0  0  0  0
  -17.0435    5.0775   -6.1194 C   0  0  0  0  0  0  0  0  0  0  0  0
  -16.0425    6.0423   -6.0996 C   0  0  0  0  0  0  0  0  0  0  0  0
  -15.8739    6.8479   -4.9769 C   0  0  0  0  0  0  0  0  0  0  0  0
  -16.7084    6.6909   -3.8737 C   0  0  0  0  0  0  0  0  0  0  0  0
  -16.4950    7.5781   -2.6825 C   0  0  0  0  0  0  0  0  0  0  0  0
  -18.9609    3.8699   -5.0837 C   0  0  0  0  0  0  0  0  0  0  0  0
  -18.0346    0.0711   -2.3371 C   0  0  0  0  0  0  0  0  0  0  0  0
  -17.5808    0.2264   -3.7852 C   0  0  0  0  0  0  0  0  0  0  0  0
  -16.2397    0.5070   -4.0544 C   0  0  0  0  0  0  0  0  0  0  0  0
  -15.7858    0.6523   -5.3671 C   0  0  0  0  0  0  0  0  0  0  0  0
  -16.6786    0.5193   -6.4327 C   0  0  0  0  0  0  0  0  0  0  0  0
  -18.0221    0.2313   -6.1665 C   0  0  0  0  0  0  0  0  0  0  0  0
  -18.4697    0.0858   -4.8524 C   0  0  0  0  0  0  0  0  0  0  0  0
  -18.5225   -0.1162    1.8507 C   0  0  0  0  0  0  0  0  0  0  0  0
  -18.3075   -2.5398    1.5549 C   0  0  0  0  0  0  0  0  0  0  0  0
  -17.8532   -1.4000    2.0751 N   0  0  0  0  0  0  0  0  0  0  0  0
  -19.3037   -2.5941    0.8461 O   0  0  0  0  0  0  0  0  0  0  0  0
  -17.0399   -1.4214    2.6295 H   0  0  0  0  0  0  0  0  0  0  0  0
  -17.5074   -3.7699    1.9252 C   0  0  0  0  0  0  0  0  0  0  0  0
  -19.6898   -6.5733    4.3302 C   0  0  0  0  0  0  0  0  0  0  0  0
  -18.8745   -5.8604    2.0008 C   0  0  0  0  0  0  0  0  0  0  0  0
  -18.3111   -4.7091    2.7222 N   0  0  0  0  0  0  0  0  0  0  0  0
  -18.4541   -4.4799    4.0273 C   0  0  0  0  0  0  0  0  0  0  0  0
  -19.3296   -5.2135    4.6875 N   0  0  0  0  0  0  0  0  0  0  0  0
  -17.7906   -3.6575    4.6153 O   0  0  0  0  0  0  0  0  0  0  0  0
  -20.0017   -6.4806    2.8418 C   0  0  0  0  0  0  0  0  0  0  0  0
  -19.7668   -4.8127    5.4733 H   0  0  0  0  0  0  0  0  0  0  0  0
  -16.8530   -4.5152    0.7410 C   0  0  0  0  0  0  0  0  0  0  0  0
  -16.5759   -3.5897   -0.4366 C   0  0  0  0  0  0  0  0  0  0  0  0
  -15.5450   -5.1940    1.1423 C   0  0  0  0  0  0  0  0  0  0  0  0
  -17.9102    0.8952    2.8290 C   0  0  0  0  0  0  0  0  0  0  0  0
  -18.5124    0.0438    6.4915 C   0  0  0  0  0  0  0  0  0  0  0  0
  -17.2928   -0.5149    6.8671 C   0  0  0  0  0  0  0  0  0  0  0  0
  -16.2721   -0.6117    5.9286 C   0  0  0  0  0  0  0  0  0  0  0  0
  -16.4759   -0.1515    4.6251 C   0  0  0  0  0  0  0  0  0  0  0  0
  -17.7082    0.3962    4.2457 C   0  0  0  0  0  0  0  0  0  0  0  0
  -18.7261    0.4978    5.1910 C   0  0  0  0  0  0  0  0  0  0  0  0
 33 37  1  0  0  0
 33 39  1  0  0  0
 34 35  1  0  0  0
 34 39  1  0  0  0
 35 36  1  0  0  0
 35 32  1  0  0  0
 36 37  1  0  0  0
 36 38  2  0  0  0
 21 22  2  0  0  0
 21 26  1  0  0  0
 21 20  1  0  0  0
 22 23  1  0  0  0
 23 24  2  0  0  0
 24 25  1  0  0  0
 25 26  2  0  0  0
 32 28  1  0  0  0
 32 41  1  0  0  0
 28 29  1  0  0  0
 28 30  2  0  0  0
 29 27  1  0  0  0
 27 44  1  0  0  0
 27  1  1  0  0  0
 41 42  1  0  0  0
 41 43  1  0  0  0
 45 46  2  0  0  0
 45 50  1  0  0  0
 46 47  1  0  0  0
 47 48  2  0  0  0
 48 49  1  0  0  0
 49 50  2  0  0  0
 49 44  1  0  0  0
  1  2  1  0  0  0
  2  5  1  0  0  0
  2  3  1  0  0  0
  5  6  1  0  0  0
  5 20  1  0  0  0
  6  7  1  0  0  0
  7 10  1  0  0  0
  7  8  2  0  0  0
 10 11  1  0  0  0
 11 12  1  0  0  0
 12 13  2  0  0  0
 12 17  1  0  0  0
 13 14  1  0  0  0
 13 19  1  0  0  0
 14 15  2  0  0  0
 15 16  1  0  0  0
 16 17  2  0  0  0
 17 18  1  0  0  0
 37 40  1  0  0  0
 29 31  1  0  0  0
  6  9  1  0  0  0
  3  4  1  0  0  0
M  END
> <minimizedAffinity>
-9.50458

$$$$
2RKF_AB1_A_501


 50 53  0  0  0  0  0  0  0  0999 V2000
  -16.9406   -0.2193   -2.1358 C   0  0  0  0  0  0  0  0  0  0  0  0
  -17.9631   -1.1727   -1.5212 C   0  0  0  0  0  0  0  0  0  0  0  0
  -19.1969   -0.9267   -2.1831 O   0  0  0  0  0  0  0  0  0  0  0  0
  -19.4782   -0.0139   -2.0140 H   0  0  0  0  0  0  0  0  0  0  0  0
  -18.2142   -1.0210   -0.0158 C   0  0  0  0  0  0  0  0  0  0  0  0
  -18.0036   -2.3346    0.5900 N   0  0  0  0  0  0  0  0  0  0  0  0
  -18.8802   -3.3305    0.4153 C   0  0  0  0  0  0  0  0  0  0  0  0
  -19.8947   -3.2241   -0.2510 O   0  0  0  0  0  0  0  0  0  0  0  0
  -17.2004   -2.4898    1.1378 H   0  0  0  0  0  0  0  0  0  0  0  0
  -18.5960   -4.6496    1.0774 C   0  0  0  0  0  0  0  0  0  0  0  0
  -17.4120   -4.6305    1.8826 O   0  0  0  0  0  0  0  0  0  0  0  0
  -17.4558   -5.2251    3.1217 C   0  0  0  0  0  0  0  0  0  0  0  0
  -17.9255   -4.5227    4.2367 C   0  0  0  0  0  0  0  0  0  0  0  0
  -17.9523   -5.1336    5.4920 C   0  0  0  0  0  0  0  0  0  0  0  0
  -17.5109   -6.4439    5.6373 C   0  0  0  0  0  0  0  0  0  0  0  0
  -17.0362   -7.1455    4.5325 C   0  0  0  0  0  0  0  0  0  0  0  0
  -17.0053   -6.5375    3.2805 C   0  0  0  0  0  0  0  0  0  0  0  0
  -16.4865   -7.3262    2.1141 C   0  0  0  0  0  0  0  0  0  0  0  0
  -18.4221   -3.1055    4.1231 C   0  0  0  0  0  0  0  0  0  0  0  0
  -17.1278   -0.1214    0.5846 C   0  0  0  0  0  0  0  0  0  0  0  0
  -17.2398    0.0991    2.0899 C   0  0  0  0  0  0  0  0  0  0  0  0
  -16.2164   -0.3539    2.9247 C   0  0  0  0  0  0  0  0  0  0  0  0
  -16.2814   -0.1672    4.3071 C   0  0  0  0  0  0  0  0  0  0  0  0
  -17.3828    0.4788    4.8728 C   0  0  0  0  0  0  0  0  0  0  0  0
  -18.4071    0.9401    4.0381 C   0  0  0  0  0  0  0  0  0  0  0  0
  -18.3360    0.7518    2.6569 C   0  0  0  0  0  0  0  0  0  0  0  0
  -17.4430    0.5291   -3.3687 C   0  0  0  0  0  0  0  0  0  0  0  0
  -18.0464    2.7772   -2.6008 C   0  0  0  0  0  0  0  0  0  0  0  0
  -17.1621    1.9518   -3.1603 N   0  0  0  0  0  0  0  0  0  0  0  0
  -19.1457    2.4058   -2.2119 O   0  0  0  0  0  0  0  0  0  0  0  0
  -16.2900    2.3104   -3.4432 H   0  0  0  0  0  0  0  0  0  0  0  0
  -17.5950    4.2183   -2.5013 C   0  0  0  0  0  0  0  0  0  0  0  0
  -19.7711    6.8708   -5.0771 C   0  0  0  0  0  0  0  0  0  0  0  0
  -19.4031    5.9299   -2.7153 C   0  0  0  0  0  0  0  0  0  0  0  0
  -18.3938    5.0893   -3.3769 N   0  0  0  0  0  0  0  0  0  0  0  0
  -18.1413    5.0844   -4.6855 C   0  0  0  0  0  0  0  0  0  0  0  0
  -18.9866    5.7170   -5.4766 N   0  0  0  0  0  0  0  0  0  0  0  0
  -17.1589    4.5554   -5.1520 O   0  0  0  0  0  0  0  0  0  0  0  0
  -20.4079    6.4323   -3.7643 C   0  0  0  0  0  0  0  0  0  0  0  0
  -19.0920    5.3849   -6.3974 H   0  0  0  0  0  0  0  0  0  0  0  0
  -17.5595    4.8037   -1.0723 C   0  0  0  0  0  0  0  0  0  0  0  0
  -17.2801    3.7364   -0.0220 C   0  0  0  0  0  0  0  0  0  0  0  0
  -16.5146    5.9086   -0.9305 C   0  0  0  0  0  0  0  0  0  0  0  0
  -16.5623    0.0555   -4.5328 C   0  0  0  0  0  0  0  0  0  0  0  0
  -18.3305    0.7657   -7.8299 C   0  0  0  0  0  0  0  0  0  0  0  0
  -17.4928    1.7134   -8.4137 C   0  0  0  0  0  0  0  0  0  0  0  0
  -16.3496    2.1195   -7.7353 C   0  0  0  0  0  0  0  0  0  0  0  0
  -16.0518    1.5781   -6.4822 C   0  0  0  0  0  0  0  0  0  0  0  0
  -16.9035    0.6362   -5.8904 C   0  0  0  0  0  0  0  0  0  0  0  0
  -18.0444    0.2269   -6.5766 C   0  0  0  0  0  0  0  0  0  0  0  0
 33 37  1  0  0  0
 33 39  1  0  0  0
 34 35  1  0  0  0
 34 39  1  0  0  0
 35 36  1  0  0  0
 35 32  1  0  0  0
 36 37  1  0  0  0
 36 38  2  0  0  0
 21 22  2  0  0  0
 21 26  1  0  0  0
 21 20  1  0  0  0
 22 23  1  0  0  0
 23 24  2  0  0  0
 24 25  1  0  0  0
 25 26  2  0  0  0
 32 28  1  0  0  0
 32 41  1  0  0  0
 28 29  1  0  0  0
 28 30  2  0  0  0
 29 27  1  0  0  0
 27 44  1  0  0  0
 27  1  1  0  0  0
 41 42  1  0  0  0
 41 43  1  0  0  0
 45 46  2  0  0  0
 45 50  1  0  0  0
 46 47  1  0  0  0
 47 48  2  0  0  0
 48 49  1  0  0  0
 49 50  2  0  0  0
 49 44  1  0  0  0
  1  2  1  0  0  0
  2  5  1  0  0  0
  2  3  1  0  0  0
  5  6  1  0  0  0
  5 20  1  0  0  0
  6  7  1  0  0  0
  7 10  1  0  0  0
  7  8  2  0  0  0
 10 11  1  0  0  0
 11 12  1  0  0  0
 12 13  2  0  0  0
 12 17  1  0  0  0
 13 14  1  0  0  0
 13 19  1  0  0  0
 14 15  2  0  0  0
 15 16  1  0  0  0
 16 17  2  0  0  0
 17 18  1  0  0  0
 37 40  1  0  0  0
 29 31  1  0  0  0
  6  9  1  0  0  0
  3  4  1  0  0  0
M  END
> <minimizedAffinity>
-9.40521

$$$$
2RKF_AB1_A_501


 50 53  0  0  0  0  0  0  0  0999 V2000
  -17.1605    0.5810    1.0219 C   0  0  0  0  0  0  0  0  0  0  0  0
  -16.6306   -0.1627   -0.2022 C   0  0  0  0  0  0  0  0  0  0  0  0
  -15.2406    0.1245   -0.2817 O   0  0  0  0  0  0  0  0  0  0  0  0
  -15.1144    1.0770   -0.4147 H   0  0  0  0  0  0  0  0  0  0  0  0
  -17.2536    0.2182   -1.5508 C   0  0  0  0  0  0  0  0  0  0  0  0
  -17.4275    1.6696   -1.5499 N   0  0  0  0  0  0  0  0  0  0  0  0
  -18.6413    2.2253   -1.4577 C   0  0  0  0  0  0  0  0  0  0  0  0
  -19.6707    1.5804   -1.3640 O   0  0  0  0  0  0  0  0  0  0  0  0
  -16.6354    2.2502   -1.6185 H   0  0  0  0  0  0  0  0  0  0  0  0
  -18.7373    3.7252   -1.4710 C   0  0  0  0  0  0  0  0  0  0  0  0
  -18.5286    4.2900   -2.7703 O   0  0  0  0  0  0  0  0  0  0  0  0
  -18.0686    5.5832   -2.8534 C   0  0  0  0  0  0  0  0  0  0  0  0
  -16.7706    5.9090   -2.4460 C   0  0  0  0  0  0  0  0  0  0  0  0
  -16.3202    7.2284   -2.5230 C   0  0  0  0  0  0  0  0  0  0  0  0
  -17.1626    8.2238   -3.0054 C   0  0  0  0  0  0  0  0  0  0  0  0
  -18.4575    7.9065   -3.4060 C   0  0  0  0  0  0  0  0  0  0  0  0
  -18.9101    6.5923   -3.3269 C   0  0  0  0  0  0  0  0  0  0  0  0
  -20.3122    6.2902   -3.7679 C   0  0  0  0  0  0  0  0  0  0  0  0
  -15.8216    4.8613   -1.9266 C   0  0  0  0  0  0  0  0  0  0  0  0
  -16.2423   -0.0659   -2.6673 C   0  0  0  0  0  0  0  0  0  0  0  0
  -16.7843    0.1132   -4.0820 C   0  0  0  0  0  0  0  0  0  0  0  0
  -15.9706    0.6941   -5.0568 C   0  0  0  0  0  0  0  0  0  0  0  0
  -16.4301    0.8712   -6.3636 C   0  0  0  0  0  0  0  0  0  0  0  0
  -17.7212    0.4670   -6.7099 C   0  0  0  0  0  0  0  0  0  0  0  0
  -18.5369   -0.1217   -5.7368 C   0  0  0  0  0  0  0  0  0  0  0  0
  -18.0717   -0.2974   -4.4326 C   0  0  0  0  0  0  0  0  0  0  0  0
  -17.5271   -0.3245    2.1958 C   0  0  0  0  0  0  0  0  0  0  0  0
  -17.8270   -2.7549    2.3005 C   0  0  0  0  0  0  0  0  0  0  0  0
  -17.1804   -1.6958    1.8141 N   0  0  0  0  0  0  0  0  0  0  0  0
  -18.7596   -2.6582    3.0870 O   0  0  0  0  0  0  0  0  0  0  0  0
  -16.4444   -1.8400    1.1763 H   0  0  0  0  0  0  0  0  0  0  0  0
  -17.3055   -4.0922    1.8211 C   0  0  0  0  0  0  0  0  0  0  0  0
  -18.9805   -7.4495    3.9019 C   0  0  0  0  0  0  0  0  0  0  0  0
  -19.2389   -5.6536    2.0833 C   0  0  0  0  0  0  0  0  0  0  0  0
  -17.9234   -5.2025    2.5620 N   0  0  0  0  0  0  0  0  0  0  0  0
  -17.2558   -5.7393    3.5830 C   0  0  0  0  0  0  0  0  0  0  0  0
  -17.8979   -6.5954    4.3546 N   0  0  0  0  0  0  0  0  0  0  0  0
  -16.0909   -5.4927    3.7943 O   0  0  0  0  0  0  0  0  0  0  0  0
  -19.9172   -6.4872    3.1822 C   0  0  0  0  0  0  0  0  0  0  0  0
  -17.6250   -6.6589    5.2984 H   0  0  0  0  0  0  0  0  0  0  0  0
  -17.4277   -4.3446    0.3021 C   0  0  0  0  0  0  0  0  0  0  0  0
  -18.2928   -3.2963   -0.3857 C   0  0  0  0  0  0  0  0  0  0  0  0
  -16.0646   -4.3755   -0.3862 C   0  0  0  0  0  0  0  0  0  0  0  0
  -16.5925    0.0802    3.3436 C   0  0  0  0  0  0  0  0  0  0  0  0
  -18.8073    0.4425    6.4201 C   0  0  0  0  0  0  0  0  0  0  0  0
  -18.1714   -0.3894    7.3389 C   0  0  0  0  0  0  0  0  0  0  0  0
  -17.0188   -1.0665    6.9582 C   0  0  0  0  0  0  0  0  0  0  0  0
  -16.5107   -0.9088    5.6662 C   0  0  0  0  0  0  0  0  0  0  0  0
  -17.1604   -0.0833    4.7392 C   0  0  0  0  0  0  0  0  0  0  0  0
  -18.3112    0.5988    5.1269 C   0  0  0  0  0  0  0  0  0  0  0  0
 33 37  1  0  0  0
 33 39  1  0  0  0
 34 35  1  0  0  0
 34 39  1  0  0  0
 35 36  1  0  0  0
 35 32  1  0  0  0
 36 37  1  0  0  0
 36 38  2  0  0  0
 21 22  2  0  0  0
 21 26  1  0  0  0
 21 20  1  0  0  0
 22 23  1  0  0  0
 23 24  2  0  0  0
 24 25  1  0  0  0
 25 26  2  0  0  0
 32 28  1  0  0  0
 32 41  1  0  0  0
 28 29  1  0  0  0
 28 30  2  0  0  0
 29 27  1  0  0  0
 27 44  1  0  0  0
 27  1  1  0  0  0
 41 42  1  0  0  0
 41 43  1  0  0  0
 45 46  2  0  0  0
 45 50  1  0  0  0
 46 47  1  0  0  0
 47 48  2  0  0  0
 48 49  1  0  0  0
 49 50  2  0  0  0
 49 44  1  0  0  0
  1  2  1  0  0  0
  2  5  1  0  0  0
  2  3  1  0  0  0
  5  6  1  0  0  0
  5 20  1  0  0  0
  6  7  1  0  0  0
  7 10  1  0  0  0
  7  8  2  0  0  0
 10 11  1  0  0  0
 11 12  1  0  0  0
 12 13  2  0  0  0
 12 17  1  0  0  0
 13 14  1  0  0  0
 13 19  1  0  0  0
 14 15  2  0  0  0
 15 16  1  0  0  0
 16 17  2  0  0  0
 17 18  1  0  0  0
 37 40  1  0  0  0
 29 31  1  0  0  0
  6  9  1  0  0  0
  3  4  1  0  0  0
M  END
> <minimizedAffinity>
-9.33572

$$$$
2RKF_AB1_A_501


 50 53  0  0  0  0  0  0  0  0999 V2000
  -18.3736    0.2909   -0.8211 C   0  0  0  0  0  0  0  0  0  0  0  0
  -19.1492   -0.7986   -0.0836 C   0  0  0  0  0  0  0  0  0  0  0  0
  -20.4902   -0.3395    0.0253 O   0  0  0  0  0  0  0  0  0  0  0  0
  -20.5118    0.4733    0.5542 H   0  0  0  0  0  0  0  0  0  0  0  0
  -18.6658   -1.1367    1.3320 C   0  0  0  0  0  0  0  0  0  0  0  0
  -17.8338   -2.3342    1.2280 N   0  0  0  0  0  0  0  0  0  0  0  0
  -17.8473   -3.2760    2.1785 C   0  0  0  0  0  0  0  0  0  0  0  0
  -18.5416   -3.2130    3.1777 O   0  0  0  0  0  0  0  0  0  0  0  0
  -17.2516   -2.4500    0.4426 H   0  0  0  0  0  0  0  0  0  0  0  0
  -16.9574   -4.4744    2.0019 C   0  0  0  0  0  0  0  0  0  0  0  0
  -16.8576   -5.2788    3.1823 O   0  0  0  0  0  0  0  0  0  0  0  0
  -16.7835   -6.6442    3.0372 C   0  0  0  0  0  0  0  0  0  0  0  0
  -17.9349   -7.4026    2.8003 C   0  0  0  0  0  0  0  0  0  0  0  0
  -17.8478   -8.7899    2.6682 C   0  0  0  0  0  0  0  0  0  0  0  0
  -16.6141   -9.4223    2.7724 C   0  0  0  0  0  0  0  0  0  0  0  0
  -15.4658   -8.6734    3.0148 C   0  0  0  0  0  0  0  0  0  0  0  0
  -15.5505   -7.2904    3.1503 C   0  0  0  0  0  0  0  0  0  0  0  0
  -14.2907   -6.5181    3.4112 C   0  0  0  0  0  0  0  0  0  0  0  0
  -19.2898   -6.7581    2.6705 C   0  0  0  0  0  0  0  0  0  0  0  0
  -17.7213   -0.0304    1.8159 C   0  0  0  0  0  0  0  0  0  0  0  0
  -17.4308   -0.0471    3.3133 C   0  0  0  0  0  0  0  0  0  0  0  0
  -18.4739    0.1762    4.2142 C   0  0  0  0  0  0  0  0  0  0  0  0
  -18.2478    0.1649    5.5922 C   0  0  0  0  0  0  0  0  0  0  0  0
  -16.9629   -0.0701    6.0863 C   0  0  0  0  0  0  0  0  0  0  0  0
  -15.9164   -0.3010    5.1862 C   0  0  0  0  0  0  0  0  0  0  0  0
  -16.1488   -0.2897    3.8099 C   0  0  0  0  0  0  0  0  0  0  0  0
  -18.9560    0.6624   -2.1832 C   0  0  0  0  0  0  0  0  0  0  0  0
  -18.4235    3.0519   -2.0640 C   0  0  0  0  0  0  0  0  0  0  0  0
  -18.2559    1.8638   -2.6442 N   0  0  0  0  0  0  0  0  0  0  0  0
  -19.1608    3.2215   -1.1020 O   0  0  0  0  0  0  0  0  0  0  0  0
  -17.6403    1.7911   -3.4091 H   0  0  0  0  0  0  0  0  0  0  0  0
  -17.6465    4.1842   -2.7000 C   0  0  0  0  0  0  0  0  0  0  0  0
  -20.0725    6.8290   -5.0507 C   0  0  0  0  0  0  0  0  0  0  0  0
  -19.0356    6.2603   -2.7702 C   0  0  0  0  0  0  0  0  0  0  0  0
  -18.5307    5.0705   -3.4720 N   0  0  0  0  0  0  0  0  0  0  0  0
  -18.7929    4.7630   -4.7420 C   0  0  0  0  0  0  0  0  0  0  0  0
  -19.7336    5.4519   -5.3593 N   0  0  0  0  0  0  0  0  0  0  0  0
  -18.1790    3.9099   -5.3402 O   0  0  0  0  0  0  0  0  0  0  0  0
  -20.2428    6.8240   -3.5367 C   0  0  0  0  0  0  0  0  0  0  0  0
  -20.2384    5.0028   -6.0754 H   0  0  0  0  0  0  0  0  0  0  0  0
  -16.7835    5.0215   -1.7302 C   0  0  0  0  0  0  0  0  0  0  0  0
  -16.2082    4.1777   -0.6000 C   0  0  0  0  0  0  0  0  0  0  0  0
  -15.6312    5.7226   -2.4467 C   0  0  0  0  0  0  0  0  0  0  0  0
  -18.5699   -0.4825   -3.1292 C   0  0  0  0  0  0  0  0  0  0  0  0
  -15.8352    0.5630   -5.5644 C   0  0  0  0  0  0  0  0  0  0  0  0
  -16.5446    0.7167   -6.7535 C   0  0  0  0  0  0  0  0  0  0  0  0
  -17.9147    0.4832   -6.7624 C   0  0  0  0  0  0  0  0  0  0  0  0
  -18.5652    0.0986   -5.5871 C   0  0  0  0  0  0  0  0  0  0  0  0
  -17.8473   -0.0699   -4.3959 C   0  0  0  0  0  0  0  0  0  0  0  0
  -16.4756    0.1718   -4.3897 C   0  0  0  0  0  0  0  0  0  0  0  0
 33 37  1  0  0  0
 33 39  1  0  0  0
 34 35  1  0  0  0
 34 39  1  0  0  0
 35 36  1  0  0  0
 35 32  1  0  0  0
 36 37  1  0  0  0
 36 38  2  0  0  0
 21 22  2  0  0  0
 21 26  1  0  0  0
 21 20  1  0  0  0
 22 23  1  0  0  0
 23 24  2  0  0  0
 24 25  1  0  0  0
 25 26  2  0  0  0
 32 28  1  0  0  0
 32 41  1  0  0  0
 28 29  1  0  0  0
 28 30  2  0  0  0
 29 27  1  0  0  0
 27 44  1  0  0  0
 27  1  1  0  0  0
 41 42  1  0  0  0
 41 43  1  0  0  0
 45 46  2  0  0  0
 45 50  1  0  0  0
 46 47  1  0  0  0
 47 48  2  0  0  0
 48 49  1  0  0  0
 49 50  2  0  0  0
 49 44  1  0  0  0
  1  2  1  0  0  0
  2  5  1  0  0  0
  2  3  1  0  0  0
  5  6  1  0  0  0
  5 20  1  0  0  0
  6  7  1  0  0  0
  7 10  1  0  0  0
  7  8  2  0  0  0
 10 11  1  0  0  0
 11 12  1  0  0  0
 12 13  2  0  0  0
 12 17  1  0  0  0
 13 14  1  0  0  0
 13 19  1  0  0  0
 14 15  2  0  0  0
 15 16  1  0  0  0
 16 17  2  0  0  0
 17 18  1  0  0  0
 37 40  1  0  0  0
 29 31  1  0  0  0
  6  9  1  0  0  0
  3  4  1  0  0  0
M  END
> <minimizedAffinity>
-9.16588

$$$$
