3M36_M35_A_301
  RCSB PDB12061709413D
Coordinates from PDB:3M36:A:301 Model:1 without hydrogens
 37 40  0  0  0  0            999 V2000
   11.2840   27.6680   13.2700   C 0  0  0  0  0  0  0  0  0  0  0  0
    2.7130   26.8390   14.2130   F 0  0  0  0  0  0  0  0  0  0  0  0
    7.0380   27.8910   14.4050   N 0  0  0  0  0  0  0  0  0  0  0  0
    6.1220   34.4480   22.1140   S 0  0  0  0  0  0  0  0  0  0  0  0
   10.7700   26.7680   14.3080   C 0  0  0  0  0  0  0  0  0  0  0  0
    3.1090   28.2980   12.6940   F 0  0  0  0  0  0  0  0  0  0  0  0
    9.3430   26.8210   14.6970   C 0  0  0  0  0  0  0  0  0  0  0  0
    3.8760   26.3860   12.4040   F 0  0  0  0  0  0  0  0  0  0  0  0
    9.9870   29.6700   10.3890   N 0  0  0  0  0  0  0  0  0  0  0  0
    8.1690   29.5670   16.3730   O 0  0  0  0  0  0  0  0  0  0  0  0
    8.4000   27.7840   14.0710   C 0  0  0  0  0  0  0  0  0  0  0  0
    7.5820   29.8800   19.2170   F 0  0  0  0  0  0  0  0  0  0  0  0
    5.4010   34.4260   20.8940   O 0  0  0  0  0  0  0  0  0  0  0  0
    8.9000   28.6760   13.0390   C 0  0  0  0  0  0  0  0  0  0  0  0
    6.2090   30.4790   16.9730   N 0  0  0  0  0  0  0  0  0  0  0  0
    5.6330   35.3200   23.1360   O 0  0  0  0  0  0  0  0  0  0  0  0
   10.3180   28.5950   12.6610   C 0  0  0  0  0  0  0  0  0  0  0  0
    6.1010   27.2480   13.6520   N 0  0  0  0  0  0  0  0  0  0  0  0
    6.7630   31.4870   17.7620   C 0  0  0  0  0  0  0  0  0  0  0  0
    6.9590   29.6120   16.2330   C 0  0  0  0  0  0  0  0  0  0  0  0
    6.0850   32.8320   22.7880   C 0  0  0  0  0  0  0  0  0  0  0  0
    4.8760   27.6770   14.0080   C 0  0  0  0  0  0  0  0  0  0  0  0
    3.5820   27.2810   13.3200   C 0  0  0  0  0  0  0  0  0  0  0  0
    4.9840   28.6270   15.0600   C 0  0  0  0  0  0  0  0  0  0  0  0
    6.3830   28.7400   15.2860   C 0  0  0  0  0  0  0  0  0  0  0  0
    8.0840   32.1300   19.8710   C 0  0  0  0  0  0  0  0  0  0  0  0
    9.8380   35.1700   20.2800   C 0  0  0  0  0  0  0  0  0  0  0  0
    7.9610   33.5420   19.5160   C 0  0  0  0  0  0  0  0  0  0  0  0
    8.5050   34.5840   20.4960   C 0  0  0  0  0  0  0  0  0  0  0  0
    7.2400   33.8980   18.2750   C 0  0  0  0  0  0  0  0  0  0  0  0
   10.8440   29.5320   11.5900   C 0  0  0  0  0  0  0  0  0  0  0  0
    7.7880   34.9930   21.7130   C 0  0  0  0  0  0  0  0  0  0  0  0
    6.6300   32.8920   17.3930   C 0  0  0  0  0  0  0  0  0  0  0  0
   10.4090   36.0900   21.2830   C 0  0  0  0  0  0  0  0  0  0  0  0
    8.3600   35.9030   22.7140   C 0  0  0  0  0  0  0  0  0  0  0  0
    9.7000   36.4760   22.5250   C 0  0  0  0  0  0  0  0  0  0  0  0
    7.4820   31.1750   18.9730   C 0  0  0  0  0  0  0  0  0  0  0  0
  5  1  2  0  0  0  0
  1 17  1  0  0  0  0
 23  2  1  0  0  0  0
 18  3  1  0  0  0  0
 25  3  1  0  0  0  0
  3 11  1  0  0  0  0
 21  4  1  0  0  0  0
 16  4  2  0  0  0  0
 13  4  2  0  0  0  0
  4 32  1  0  0  0  0
  7  5  1  0  0  0  0
  6 23  1  0  0  0  0
  7 11  2  0  0  0  0
  8 23  1  0  0  0  0
 31  9  1  0  0  0  0
 20 10  2  0  0  0  0
 11 14  1  0  0  0  0
 12 37  1  0  0  0  0
 14 17  2  0  0  0  0
 15 19  1  0  0  0  0
 15 20  1  0  0  0  0
 17 31  1  0  0  0  0
 22 18  2  0  0  0  0
 37 19  2  0  0  0  0
 19 33  1  0  0  0  0
 25 20  1  0  0  0  0
 23 22  1  0  0  0  0
 22 24  1  0  0  0  0
 24 25  2  0  0  0  0
 37 26  1  0  0  0  0
 26 28  2  0  0  0  0
 29 27  2  0  0  0  0
 27 34  1  0  0  0  0
 28 30  1  0  0  0  0
 28 29  1  0  0  0  0
 32 29  1  0  0  0  0
 33 30  2  0  0  0  0
 32 35  2  0  0  0  0
 36 34  2  0  0  0  0
 35 36  1  0  0  0  0
A    1
C1
A    2
F1
A    3
N1
A    4
S1
A    5
C2
A    6
F2
A    7
C3
A    8
F3
A    9
N3
A   10
O3
A   11
C4
A   12
F4
A   13
O4
A   14
C5
A   15
N5
A   16
O5
A   17
C6
A   18
N6
A   19
C7
A   20
C8
A   21
C9
A   22
C10
A   23
C11
A   24
C12
A   25
C13
A   26
C14
A   27
C15
A   28
C16
A   29
C17
A   30
C18
A   31
C20
A   32
C21
A   33
C22
A   34
C23
A   35
C24
A   36
C26
A   37
C44
M  END
>  <InstanceId>
3M36_M35_A_301

>  <ChemCompId>
M35

>  <PdbId>
3M36

>  <ChainId>
A

>  <ResidueNumber>
301

>  <InsertionCode>


>  <Model>
1

>  <AltIds>


>  <MissingHeavyAtoms>
0

>  <ObservedFormula>
C25 N4 O3 S F4

>  <Name>
1-[3-(aminomethyl)phenyl]-N-[3-fluoro-2'-(methylsulfonyl)biphenyl-4-yl]-3-(trifluoromethyl)-1H-pyrazole-5-carboxamide

>  <SystematicName>
2-[3-(aminomethyl)phenyl]-N-[2-fluoro-4-(2-methylsulfonylphenyl)phenyl]-5-(trifluoromethyl)pyrazole-3-carboxamide

>  <Synonyms>


>  <Type>
NON-POLYMER

>  <Formula>
C25 H20 F4 N4 O3 S

>  <MolecularWeight>
532.51

>  <ModifiedDate>
2011-06-04

>  <Parent>


>  <OneLetterCode>


>  <SubcomponentList>


>  <AmbiguousFlag>
N

>  <InChI>
InChI=1S/C25H20F4N4O3S/c1-37(35,36)22-8-3-2-7-18(22)16-9-10-20(19(26)12-16)31-24(34)21-13-23(25(27,28)29)32-33(21)17-6-4-5-15(11-17)14-30/h2-13H,14,30H2,1H3,(H,31,34)

>  <InChIKey>
ZLUOAFAJSUPHOG-UHFFFAOYSA-N

>  <SMILES>
CS(=O)(=O)c1ccccc1c2ccc(c(c2)F)NC(=O)c3cc(nn3c4cccc(c4)CN)C(F)(F)F

$$$$
