3M36_M35_A_301


 40 43  0  0  0  0  0  0  0  0999 V2000
    8.2308   29.3740   16.4595 O   0  0  0  0  0  0  0  0  0  0  0  0
    6.2418   30.2213   17.0588 N   0  0  0  0  0  0  0  0  0  0  0  0
    7.0245   29.4114   16.2887 C   0  0  0  0  0  0  0  0  0  0  0  0
    5.2642   30.1196   17.0018 H   0  0  0  0  0  0  0  0  0  0  0  0
    5.7393   32.8424   16.6628 F   0  0  0  0  0  0  0  0  0  0  0  0
    6.7590   31.1864   17.9229 C   0  0  0  0  0  0  0  0  0  0  0  0
    7.0014   33.6740   18.5223 C   0  0  0  0  0  0  0  0  0  0  0  0
    7.8189   33.3144   19.6787 C   0  0  0  0  0  0  0  0  0  0  0  0
    8.0851   31.8831   19.9378 C   0  0  0  0  0  0  0  0  0  0  0  0
    7.5741   30.8096   19.0725 C   0  0  0  0  0  0  0  0  0  0  0  0
    6.5101   32.5906   17.7064 C   0  0  0  0  0  0  0  0  0  0  0  0
    9.7252   35.0282   20.1103 C   0  0  0  0  0  0  0  0  0  0  0  0
    8.4343   34.4435   20.5085 C   0  0  0  0  0  0  0  0  0  0  0  0
    7.8334   34.9441   21.7538 C   0  0  0  0  0  0  0  0  0  0  0  0
   10.3725   36.0381   20.9702 C   0  0  0  0  0  0  0  0  0  0  0  0
    8.4817   35.9439   22.6125 C   0  0  0  0  0  0  0  0  0  0  0  0
    9.7826   36.5180   22.2415 C   0  0  0  0  0  0  0  0  0  0  0  0
    6.2288   34.4112   22.3658 S   0  0  0  0  0  0  0  0  0  0  0  0
    6.3623   33.0420   22.7067 O   0  0  0  0  0  0  0  0  0  0  0  0
    5.2696   34.7334   21.3558 O   0  0  0  0  0  0  0  0  0  0  0  0
    5.7350   35.2766   23.8061 C   0  0  0  0  0  0  0  0  0  0  0  0
    7.1782   27.7943   14.3726 N   0  0  0  0  0  0  0  0  0  0  0  0
    6.2723   27.1913   13.5515 N   0  0  0  0  0  0  0  0  0  0  0  0
    5.0331   27.5965   13.8856 C   0  0  0  0  0  0  0  0  0  0  0  0
    5.0982   28.4872   14.9917 C   0  0  0  0  0  0  0  0  0  0  0  0
    6.4875   28.5915   15.2746 C   0  0  0  0  0  0  0  0  0  0  0  0
   11.4603   27.6355   13.3701 C   0  0  0  0  0  0  0  0  0  0  0  0
   10.9429   26.7843   14.4468 C   0  0  0  0  0  0  0  0  0  0  0  0
    9.5042   26.8162   14.7926 C   0  0  0  0  0  0  0  0  0  0  0  0
    8.5519   27.7098   14.0832 C   0  0  0  0  0  0  0  0  0  0  0  0
    9.0555   28.5530   13.0126 C   0  0  0  0  0  0  0  0  0  0  0  0
   10.4857   28.4935   12.6793 C   0  0  0  0  0  0  0  0  0  0  0  0
    9.9827   30.0230   10.7210 N   0  0  0  0  0  0  0  0  0  0  0  0
   11.0150   29.3801   11.5677 C   0  0  0  0  0  0  0  0  0  0  0  0
   10.4356   30.5944   10.0077 H   0  0  0  0  0  0  0  0  0  0  0  0
    9.3862   30.6129   11.3011 H   0  0  0  0  0  0  0  0  0  0  0  0
    3.4584   28.1997   12.2796 F   0  0  0  0  0  0  0  0  0  0  0  0
    3.9485   26.1260   12.5088 F   0  0  0  0  0  0  0  0  0  0  0  0
    2.8236   27.0132   14.0173 F   0  0  0  0  0  0  0  0  0  0  0  0
    3.7669   27.2355   13.1300 C   0  0  0  0  0  0  0  0  0  0  0  0
 28 27  2  0  0  0
 27 32  1  0  0  0
 40 37  1  0  0  0
 23 22  1  0  0  0
 26 22  1  0  0  0
 22 30  1  0  0  0
 21 18  1  0  0  0
 20 18  2  0  0  0
 19 18  2  0  0  0
 18 14  1  0  0  0
 29 28  1  0  0  0
 38 40  1  0  0  0
 29 30  2  0  0  0
 39 40  1  0  0  0
 34 33  1  0  0  0
  3  1  2  0  0  0
 30 31  1  0  0  0
  5 11  1  0  0  0
 31 32  2  0  0  0
  2  6  1  0  0  0
  2  3  1  0  0  0
 32 34  1  0  0  0
 24 23  2  0  0  0
 11  6  2  0  0  0
  6 10  1  0  0  0
 26  3  1  0  0  0
 40 24  1  0  0  0
 24 25  1  0  0  0
 25 26  2  0  0  0
 11  7  1  0  0  0
  7  8  2  0  0  0
 13 12  2  0  0  0
 12 15  1  0  0  0
  8  9  1  0  0  0
  8 13  1  0  0  0
 14 13  1  0  0  0
 10  9  2  0  0  0
 14 16  2  0  0  0
 17 15  2  0  0  0
 16 17  1  0  0  0
 33 35  1  0  0  0
 33 36  1  0  0  0
  2  4  1  0  0  0
M  END
> <minimizedAffinity>
-12.54785

$$$$
3M36_M35_A_301


 40 43  0  0  0  0  0  0  0  0999 V2000
    7.4619   29.4906   16.3561 O   0  0  0  0  0  0  0  0  0  0  0  0
    5.3874   29.5933   17.2042 N   0  0  0  0  0  0  0  0  0  0  0  0
    6.2873   29.1773   16.2667 C   0  0  0  0  0  0  0  0  0  0  0  0
    4.4833   29.2040   17.1905 H   0  0  0  0  0  0  0  0  0  0  0  0
    6.4549   28.8545   19.5694 F   0  0  0  0  0  0  0  0  0  0  0  0
    5.6859   30.5431   18.1811 C   0  0  0  0  0  0  0  0  0  0  0  0
    6.5740   31.0418   20.5409 C   0  0  0  0  0  0  0  0  0  0  0  0
    6.3390   32.4678   20.3267 C   0  0  0  0  0  0  0  0  0  0  0  0
    5.7832   32.9047   19.0279 C   0  0  0  0  0  0  0  0  0  0  0  0
    5.4441   31.9631   17.9506 C   0  0  0  0  0  0  0  0  0  0  0  0
    6.2391   30.1533   19.4550 C   0  0  0  0  0  0  0  0  0  0  0  0
    5.6439   33.4850   22.6157 C   0  0  0  0  0  0  0  0  0  0  0  0
    6.5937   33.4258   21.4926 C   0  0  0  0  0  0  0  0  0  0  0  0
    7.7220   34.3683   21.5256 C   0  0  0  0  0  0  0  0  0  0  0  0
    5.8290   34.4860   23.6844 C   0  0  0  0  0  0  0  0  0  0  0  0
    7.9014   35.3688   22.5859 C   0  0  0  0  0  0  0  0  0  0  0  0
    6.9474   35.4572   23.7002 C   0  0  0  0  0  0  0  0  0  0  0  0
    9.0265   34.3987   20.2883 S   0  0  0  0  0  0  0  0  0  0  0  0
    8.4597   34.9657   19.1195 O   0  0  0  0  0  0  0  0  0  0  0  0
    9.5284   33.0645   20.1792 O   0  0  0  0  0  0  0  0  0  0  0  0
   10.3844   35.3970   20.7643 C   0  0  0  0  0  0  0  0  0  0  0  0
    6.7362   27.6280   14.3411 N   0  0  0  0  0  0  0  0  0  0  0  0
    5.9631   27.0309   13.3903 N   0  0  0  0  0  0  0  0  0  0  0  0
    4.6800   27.3954   13.5695 C   0  0  0  0  0  0  0  0  0  0  0  0
    4.5745   28.2506   14.7001 C   0  0  0  0  0  0  0  0  0  0  0  0
    5.9112   28.3785   15.1670 C   0  0  0  0  0  0  0  0  0  0  0  0
   11.1144   27.5921   13.8972 C   0  0  0  0  0  0  0  0  0  0  0  0
   10.4949   26.8059   14.9695 C   0  0  0  0  0  0  0  0  0  0  0  0
    9.0236   26.7974   15.1294 C   0  0  0  0  0  0  0  0  0  0  0  0
    8.1379   27.5856   14.2334 C   0  0  0  0  0  0  0  0  0  0  0  0
    8.7431   28.3635   13.1660 C   0  0  0  0  0  0  0  0  0  0  0  0
   10.2054   28.3453   13.0198 C   0  0  0  0  0  0  0  0  0  0  0  0
    9.9185   29.5999   10.8355 N   0  0  0  0  0  0  0  0  0  0  0  0
   10.8398   29.1643   11.9114 C   0  0  0  0  0  0  0  0  0  0  0  0
   10.4364   30.1403   10.1426 H   0  0  0  0  0  0  0  0  0  0  0  0
    9.1791   30.1782   11.2345 H   0  0  0  0  0  0  0  0  0  0  0  0
    2.4049   26.9622   13.3266 F   0  0  0  0  0  0  0  0  0  0  0  0
    3.4475   27.9100   11.7119 F   0  0  0  0  0  0  0  0  0  0  0  0
    3.8455   25.8968   12.0538 F   0  0  0  0  0  0  0  0  0  0  0  0
    3.5345   27.0294   12.6429 C   0  0  0  0  0  0  0  0  0  0  0  0
 28 27  2  0  0  0
 27 32  1  0  0  0
 40 37  1  0  0  0
 23 22  1  0  0  0
 26 22  1  0  0  0
 22 30  1  0  0  0
 21 18  1  0  0  0
 20 18  2  0  0  0
 19 18  2  0  0  0
 18 14  1  0  0  0
 29 28  1  0  0  0
 38 40  1  0  0  0
 29 30  2  0  0  0
 39 40  1  0  0  0
 34 33  1  0  0  0
  3  1  2  0  0  0
 30 31  1  0  0  0
  5 11  1  0  0  0
 31 32  2  0  0  0
  2  6  1  0  0  0
  2  3  1  0  0  0
 32 34  1  0  0  0
 24 23  2  0  0  0
 11  6  2  0  0  0
  6 10  1  0  0  0
 26  3  1  0  0  0
 40 24  1  0  0  0
 24 25  1  0  0  0
 25 26  2  0  0  0
 11  7  1  0  0  0
  7  8  2  0  0  0
 13 12  2  0  0  0
 12 15  1  0  0  0
  8  9  1  0  0  0
  8 13  1  0  0  0
 14 13  1  0  0  0
 10  9  2  0  0  0
 14 16  2  0  0  0
 17 15  2  0  0  0
 16 17  1  0  0  0
 33 35  1  0  0  0
 33 36  1  0  0  0
  2  4  1  0  0  0
M  END
> <minimizedAffinity>
-10.47916

$$$$
3M36_M35_A_301


 40 43  0  0  0  0  0  0  0  0999 V2000
    4.5002   29.9858   17.5780 O   0  0  0  0  0  0  0  0  0  0  0  0
    5.8338   31.1915   16.2359 N   0  0  0  0  0  0  0  0  0  0  0  0
    4.9615   30.1675   16.4645 C   0  0  0  0  0  0  0  0  0  0  0  0
    6.0707   31.4057   15.3046 H   0  0  0  0  0  0  0  0  0  0  0  0
    5.2456   33.8104   16.5090 F   0  0  0  0  0  0  0  0  0  0  0  0
    6.4064   31.9495   17.2572 C   0  0  0  0  0  0  0  0  0  0  0  0
    6.6512   34.2377   18.4021 C   0  0  0  0  0  0  0  0  0  0  0  0
    7.5754   33.6527   19.3709 C   0  0  0  0  0  0  0  0  0  0  0  0
    7.8922   32.2122   19.2639 C   0  0  0  0  0  0  0  0  0  0  0  0
    7.3279   31.3494   18.2155 C   0  0  0  0  0  0  0  0  0  0  0  0
    6.1111   33.3545   17.3976 C   0  0  0  0  0  0  0  0  0  0  0  0
    9.5431   35.1940   20.0849 C   0  0  0  0  0  0  0  0  0  0  0  0
    8.2393   34.5821   20.3894 C   0  0  0  0  0  0  0  0  0  0  0  0
    7.6729   34.8511   21.7196 C   0  0  0  0  0  0  0  0  0  0  0  0
   10.2354   35.9998   21.1095 C   0  0  0  0  0  0  0  0  0  0  0  0
    8.3659   35.6472   22.7410 C   0  0  0  0  0  0  0  0  0  0  0  0
    9.6797   36.2431   22.4609 C   0  0  0  0  0  0  0  0  0  0  0  0
    6.0604   34.2582   22.2502 S   0  0  0  0  0  0  0  0  0  0  0  0
    5.1509   34.5820   21.2125 O   0  0  0  0  0  0  0  0  0  0  0  0
    5.8059   34.8348   23.5334 O   0  0  0  0  0  0  0  0  0  0  0  0
    6.0209   32.5219   22.4753 C   0  0  0  0  0  0  0  0  0  0  0  0
    5.3239   28.3250   14.7961 N   0  0  0  0  0  0  0  0  0  0  0  0
    4.5452   27.7120   13.8600 N   0  0  0  0  0  0  0  0  0  0  0  0
    3.3180   28.2645   13.8739 C   0  0  0  0  0  0  0  0  0  0  0  0
    3.2534   29.2719   14.8747 C   0  0  0  0  0  0  0  0  0  0  0  0
    4.5565   29.2837   15.4428 C   0  0  0  0  0  0  0  0  0  0  0  0
    9.6456   27.5256   15.0199 C   0  0  0  0  0  0  0  0  0  0  0  0
    9.0573   27.9400   13.7417 C   0  0  0  0  0  0  0  0  0  0  0  0
    7.6075   28.2227   13.6482 C   0  0  0  0  0  0  0  0  0  0  0  0
    6.7090   28.0828   14.8236 C   0  0  0  0  0  0  0  0  0  0  0  0
    7.2844   27.6770   16.0944 C   0  0  0  0  0  0  0  0  0  0  0  0
    8.7288   27.4148   16.1647 C   0  0  0  0  0  0  0  0  0  0  0  0
    8.6758   25.8196   18.1345 N   0  0  0  0  0  0  0  0  0  0  0  0
    9.3299   26.9820   17.4888 C   0  0  0  0  0  0  0  0  0  0  0  0
    9.1492   25.6076   19.0127 H   0  0  0  0  0  0  0  0  0  0  0  0
    8.7305   25.0112   17.5149 H   0  0  0  0  0  0  0  0  0  0  0  0
    1.6755   29.0443   12.4189 F   0  0  0  0  0  0  0  0  0  0  0  0
    2.6767   27.2089   11.9480 F   0  0  0  0  0  0  0  0  0  0  0  0
    1.3301   27.1819   13.5336 F   0  0  0  0  0  0  0  0  0  0  0  0
    2.2032   27.9311   12.8988 C   0  0  0  0  0  0  0  0  0  0  0  0
 28 27  2  0  0  0
 27 32  1  0  0  0
 40 37  1  0  0  0
 23 22  1  0  0  0
 26 22  1  0  0  0
 22 30  1  0  0  0
 21 18  1  0  0  0
 20 18  2  0  0  0
 19 18  2  0  0  0
 18 14  1  0  0  0
 29 28  1  0  0  0
 38 40  1  0  0  0
 29 30  2  0  0  0
 39 40  1  0  0  0
 34 33  1  0  0  0
  3  1  2  0  0  0
 30 31  1  0  0  0
  5 11  1  0  0  0
 31 32  2  0  0  0
  2  6  1  0  0  0
  2  3  1  0  0  0
 32 34  1  0  0  0
 24 23  2  0  0  0
 11  6  2  0  0  0
  6 10  1  0  0  0
 26  3  1  0  0  0
 40 24  1  0  0  0
 24 25  1  0  0  0
 25 26  2  0  0  0
 11  7  1  0  0  0
  7  8  2  0  0  0
 13 12  2  0  0  0
 12 15  1  0  0  0
  8  9  1  0  0  0
  8 13  1  0  0  0
 14 13  1  0  0  0
 10  9  2  0  0  0
 14 16  2  0  0  0
 17 15  2  0  0  0
 16 17  1  0  0  0
 33 35  1  0  0  0
 33 36  1  0  0  0
  2  4  1  0  0  0
M  END
> <minimizedAffinity>
-10.19015

$$$$
