5ECT_DUP_A_201


 35 36  0  0  0  0  0  0  0  0999 V2000
  -12.8429    7.1043    1.9901 O   0  0  0  0  0  0  0  0  0  0  0  0
  -12.8643    5.7233    1.1220 P   0  0  0  0  0  0  0  0  0  0  0  0
  -12.0894    4.6793    1.9422 O   0  0  0  0  0  0  0  0  0  0  0  0
  -12.3297    6.0020   -0.2598 O   0  0  0  0  0  0  0  0  0  0  0  0
  -11.3879    6.2271   -0.2027 H   0  0  0  0  0  0  0  0  0  0  0  0
  -14.4913    5.3322    1.0451 N   0  0  0  0  0  0  0  0  0  0  0  0
  -14.8340    5.4555    1.9978 H   0  0  0  0  0  0  0  0  0  0  0  0
  -15.6576    6.0279    0.0802 P   0  0  0  0  0  0  0  0  0  0  0  0
  -16.8513    5.0820    0.0754 O   0  0  0  0  0  0  0  0  0  0  0  0
  -15.0872    6.4144   -1.2611 O   0  0  0  0  0  0  0  0  0  0  0  0
  -14.7965    5.6170   -1.7307 H   0  0  0  0  0  0  0  0  0  0  0  0
  -16.1359    7.3447    0.8516 O   0  0  0  0  0  0  0  0  0  0  0  0
  -16.7301    7.5062    2.3397 P   0  0  0  0  0  0  0  0  0  0  0  0
  -17.2695    8.8852    2.4196 O   0  0  0  0  0  0  0  0  0  0  0  0
  -15.6321    7.1436    3.3253 O   0  0  0  0  0  0  0  0  0  0  0  0
  -17.8844    6.4975    2.3453 O   0  0  0  0  0  0  0  0  0  0  0  0
  -14.9278    7.8093    3.2841 H   0  0  0  0  0  0  0  0  0  0  0  0
  -18.5568    6.7721    1.7024 H   0  0  0  0  0  0  0  0  0  0  0  0
  -12.7845    8.3631    1.2586 C   0  0  0  0  0  0  0  0  0  0  0  0
  -12.6963   11.7778    2.2701 C   0  0  0  0  0  0  0  0  0  0  0  0
  -13.1993   11.1877    3.6027 C   0  0  0  0  0  0  0  0  0  0  0  0
  -13.5341    9.7704    3.2599 C   0  0  0  0  0  0  0  0  0  0  0  0
  -13.4282    8.9197    4.4063 O   0  0  0  0  0  0  0  0  0  0  0  0
  -12.3141   10.6808    1.4657 O   0  0  0  0  0  0  0  0  0  0  0  0
  -12.4685    9.4626    2.2086 C   0  0  0  0  0  0  0  0  0  0  0  0
  -12.5389    8.9978    4.7857 H   0  0  0  0  0  0  0  0  0  0  0  0
  -16.6655   14.6979   -0.0655 O   0  0  0  0  0  0  0  0  0  0  0  0
  -15.7768   13.9824    0.4482 C   0  0  0  0  0  0  0  0  0  0  0  0
  -16.0906   12.7670    1.0833 C   0  0  0  0  0  0  0  0  0  0  0  0
  -15.0690   12.0459    1.6252 C   0  0  0  0  0  0  0  0  0  0  0  0
  -14.4881   14.4334    0.3936 N   0  0  0  0  0  0  0  0  0  0  0  0
  -13.5054   13.7650    0.9876 C   0  0  0  0  0  0  0  0  0  0  0  0
  -12.3417   14.2391    0.8948 O   0  0  0  0  0  0  0  0  0  0  0  0
  -13.7761   12.5495    1.6046 N   0  0  0  0  0  0  0  0  0  0  0  0
  -14.2850   15.2650   -0.0926 H   0  0  0  0  0  0  0  0  0  0  0  0
 27 28  2  0  0  0
 28 29  1  0  0  0
 28 31  1  0  0  0
 29 30  2  0  0  0
 30 34  1  0  0  0
 31 32  1  0  0  0
 32 33  2  0  0  0
 32 34  1  0  0  0
 34 20  1  0  0  0
 20 21  1  0  0  0
 20 24  1  0  0  0
 21 22  1  0  0  0
 22 23  1  0  0  0
 22 25  1  0  0  0
 24 25  1  0  0  0
 25 19  1  0  0  0
 19  1  1  0  0  0
  1  2  1  0  0  0
  2  3  2  0  0  0
  2  4  1  0  0  0
  2  6  1  0  0  0
  6  8  1  0  0  0
  8  9  2  0  0  0
  8 10  1  0  0  0
  8 12  1  0  0  0
 12 13  1  0  0  0
 13 14  2  0  0  0
 13 15  1  0  0  0
 13 16  1  0  0  0
 31 35  1  0  0  0
 23 26  1  0  0  0
  4  5  1  0  0  0
  6  7  1  0  0  0
 10 11  1  0  0  0
 15 17  1  0  0  0
 16 18  1  0  0  0
M  END
> <minimizedAffinity>
-9.34320

$$$$
5ECT_DUP_A_201


 35 36  0  0  0  0  0  0  0  0999 V2000
  -14.8993    8.7048    1.5859 O   0  0  0  0  0  0  0  0  0  0  0  0
  -16.1414    7.6966    1.9056 P   0  0  0  0  0  0  0  0  0  0  0  0
  -17.3072    8.5771    2.3838 O   0  0  0  0  0  0  0  0  0  0  0  0
  -15.6787    6.6368    2.8728 O   0  0  0  0  0  0  0  0  0  0  0  0
  -15.4830    7.0452    3.7306 H   0  0  0  0  0  0  0  0  0  0  0  0
  -16.4847    7.0109    0.4164 N   0  0  0  0  0  0  0  0  0  0  0  0
  -16.5025    7.7964   -0.2340 H   0  0  0  0  0  0  0  0  0  0  0  0
  -15.6268    5.8225   -0.3756 P   0  0  0  0  0  0  0  0  0  0  0  0
  -14.2578    6.4055   -0.7003 O   0  0  0  0  0  0  0  0  0  0  0  0
  -16.4211    5.2619   -1.5283 O   0  0  0  0  0  0  0  0  0  0  0  0
  -16.5747    5.9594   -2.1847 H   0  0  0  0  0  0  0  0  0  0  0  0
  -15.3755    4.6702    0.7045 O   0  0  0  0  0  0  0  0  0  0  0  0
  -14.0050    3.9370    1.1260 P   0  0  0  0  0  0  0  0  0  0  0  0
  -13.4894    4.6750    2.3044 O   0  0  0  0  0  0  0  0  0  0  0  0
  -13.1044    3.8867   -0.0966 O   0  0  0  0  0  0  0  0  0  0  0  0
  -14.4924    2.5490    1.5570 O   0  0  0  0  0  0  0  0  0  0  0  0
  -12.8237    4.7858   -0.3286 H   0  0  0  0  0  0  0  0  0  0  0  0
  -15.0613    2.6342    2.3380 H   0  0  0  0  0  0  0  0  0  0  0  0
  -13.5834    8.3406    2.0946 C   0  0  0  0  0  0  0  0  0  0  0  0
  -12.8234   11.8198    2.1898 C   0  0  0  0  0  0  0  0  0  0  0  0
  -13.1312   11.6415    3.6899 C   0  0  0  0  0  0  0  0  0  0  0  0
  -13.7210   10.2689    3.7710 C   0  0  0  0  0  0  0  0  0  0  0  0
  -13.5107    9.6887    5.0627 O   0  0  0  0  0  0  0  0  0  0  0  0
  -12.7636   10.5210    1.6365 O   0  0  0  0  0  0  0  0  0  0  0  0
  -12.9366    9.5468    2.6761 C   0  0  0  0  0  0  0  0  0  0  0  0
  -12.5621    9.6854    5.2651 H   0  0  0  0  0  0  0  0  0  0  0  0
  -16.7583   14.8040   -0.1228 O   0  0  0  0  0  0  0  0  0  0  0  0
  -15.8790   14.0740    0.3868 C   0  0  0  0  0  0  0  0  0  0  0  0
  -16.2123   12.8778    1.0478 C   0  0  0  0  0  0  0  0  0  0  0  0
  -15.1998   12.1391    1.5832 C   0  0  0  0  0  0  0  0  0  0  0  0
  -14.5803   14.4903    0.3014 N   0  0  0  0  0  0  0  0  0  0  0  0
  -13.6044   13.8063    0.8888 C   0  0  0  0  0  0  0  0  0  0  0  0
  -12.4308   14.2482    0.7671 O   0  0  0  0  0  0  0  0  0  0  0  0
  -13.8950   12.6084    1.5309 N   0  0  0  0  0  0  0  0  0  0  0  0
  -14.3648   15.3082   -0.2022 H   0  0  0  0  0  0  0  0  0  0  0  0
 27 28  2  0  0  0
 28 29  1  0  0  0
 28 31  1  0  0  0
 29 30  2  0  0  0
 30 34  1  0  0  0
 31 32  1  0  0  0
 32 33  2  0  0  0
 32 34  1  0  0  0
 34 20  1  0  0  0
 20 21  1  0  0  0
 20 24  1  0  0  0
 21 22  1  0  0  0
 22 23  1  0  0  0
 22 25  1  0  0  0
 24 25  1  0  0  0
 25 19  1  0  0  0
 19  1  1  0  0  0
  1  2  1  0  0  0
  2  3  2  0  0  0
  2  4  1  0  0  0
  2  6  1  0  0  0
  6  8  1  0  0  0
  8  9  2  0  0  0
  8 10  1  0  0  0
  8 12  1  0  0  0
 12 13  1  0  0  0
 13 14  2  0  0  0
 13 15  1  0  0  0
 13 16  1  0  0  0
 31 35  1  0  0  0
 23 26  1  0  0  0
  4  5  1  0  0  0
  6  7  1  0  0  0
 10 11  1  0  0  0
 15 17  1  0  0  0
 16 18  1  0  0  0
M  END
> <minimizedAffinity>
-9.21131

$$$$
5ECT_DUP_A_201


 35 36  0  0  0  0  0  0  0  0999 V2000
  -13.7578    9.6647    1.2840 O   0  0  0  0  0  0  0  0  0  0  0  0
  -14.3776    9.0650    2.6688 P   0  0  0  0  0  0  0  0  0  0  0  0
  -13.9566   10.0292    3.7897 O   0  0  0  0  0  0  0  0  0  0  0  0
  -13.9295    7.6346    2.8298 O   0  0  0  0  0  0  0  0  0  0  0  0
  -12.9705    7.6104    2.9738 H   0  0  0  0  0  0  0  0  0  0  0  0
  -16.0326    9.1284    2.4189 N   0  0  0  0  0  0  0  0  0  0  0  0
  -16.1876   10.0061    1.9229 H   0  0  0  0  0  0  0  0  0  0  0  0
  -16.9818    8.0158    1.6212 P   0  0  0  0  0  0  0  0  0  0  0  0
  -18.1066    8.7928    0.9497 O   0  0  0  0  0  0  0  0  0  0  0  0
  -17.3837    6.8914    2.5422 O   0  0  0  0  0  0  0  0  0  0  0  0
  -17.9338    7.2423    3.2599 H   0  0  0  0  0  0  0  0  0  0  0  0
  -16.0751    7.4339    0.4393 O   0  0  0  0  0  0  0  0  0  0  0  0
  -15.6317    5.9158    0.1353 P   0  0  0  0  0  0  0  0  0  0  0  0
  -14.7817    5.4993    1.2769 O   0  0  0  0  0  0  0  0  0  0  0  0
  -14.9913    5.8808   -1.2420 O   0  0  0  0  0  0  0  0  0  0  0  0
  -16.9677    5.1658    0.1838 O   0  0  0  0  0  0  0  0  0  0  0  0
  -14.1522    6.3669   -1.2209 H   0  0  0  0  0  0  0  0  0  0  0  0
  -17.3349    5.2170    1.0802 H   0  0  0  0  0  0  0  0  0  0  0  0
  -12.3072    9.7365    1.1667 C   0  0  0  0  0  0  0  0  0  0  0  0
  -12.1207   12.5534   -1.0063 C   0  0  0  0  0  0  0  0  0  0  0  0
  -12.5331   13.3130    0.2704 C   0  0  0  0  0  0  0  0  0  0  0  0
  -12.9026   12.2244    1.2279 C   0  0  0  0  0  0  0  0  0  0  0  0
  -12.7228   12.6431    2.5849 O   0  0  0  0  0  0  0  0  0  0  0  0
  -11.8050   11.2363   -0.6038 O   0  0  0  0  0  0  0  0  0  0  0  0
  -11.9163   11.1296    0.8230 C   0  0  0  0  0  0  0  0  0  0  0  0
  -11.8084   12.9402    2.7131 H   0  0  0  0  0  0  0  0  0  0  0  0
  -16.1503   12.5690   -4.6805 O   0  0  0  0  0  0  0  0  0  0  0  0
  -15.2637   12.5664   -3.7974 C   0  0  0  0  0  0  0  0  0  0  0  0
  -15.3359   13.4231   -2.6839 C   0  0  0  0  0  0  0  0  0  0  0  0
  -14.3288   13.3672   -1.7673 C   0  0  0  0  0  0  0  0  0  0  0  0
  -14.2055   11.7179   -3.9626 N   0  0  0  0  0  0  0  0  0  0  0  0
  -13.1895   11.7193   -3.1064 C   0  0  0  0  0  0  0  0  0  0  0  0
  -12.2487   10.9090   -3.3203 O   0  0  0  0  0  0  0  0  0  0  0  0
  -13.2385   12.5364   -1.9833 N   0  0  0  0  0  0  0  0  0  0  0  0
  -14.1958   11.0968   -4.7264 H   0  0  0  0  0  0  0  0  0  0  0  0
 27 28  2  0  0  0
 28 29  1  0  0  0
 28 31  1  0  0  0
 29 30  2  0  0  0
 30 34  1  0  0  0
 31 32  1  0  0  0
 32 33  2  0  0  0
 32 34  1  0  0  0
 34 20  1  0  0  0
 20 21  1  0  0  0
 20 24  1  0  0  0
 21 22  1  0  0  0
 22 23  1  0  0  0
 22 25  1  0  0  0
 24 25  1  0  0  0
 25 19  1  0  0  0
 19  1  1  0  0  0
  1  2  1  0  0  0
  2  3  2  0  0  0
  2  4  1  0  0  0
  2  6  1  0  0  0
  6  8  1  0  0  0
  8  9  2  0  0  0
  8 10  1  0  0  0
  8 12  1  0  0  0
 12 13  1  0  0  0
 13 14  2  0  0  0
 13 15  1  0  0  0
 13 16  1  0  0  0
 31 35  1  0  0  0
 23 26  1  0  0  0
  4  5  1  0  0  0
  6  7  1  0  0  0
 10 11  1  0  0  0
 15 17  1  0  0  0
 16 18  1  0  0  0
M  END
> <minimizedAffinity>
-8.51316

$$$$
5ECT_DUP_A_201


 35 36  0  0  0  0  0  0  0  0999 V2000
  -12.8160    8.3087   -0.6551 O   0  0  0  0  0  0  0  0  0  0  0  0
  -12.7039    6.7222   -1.0179 P   0  0  0  0  0  0  0  0  0  0  0  0
  -11.9411    6.0614    0.1417 O   0  0  0  0  0  0  0  0  0  0  0  0
  -12.0824    6.5722   -2.3832 O   0  0  0  0  0  0  0  0  0  0  0  0
  -11.1598    6.8704   -2.3530 H   0  0  0  0  0  0  0  0  0  0  0  0
  -14.2991    6.2121   -1.0490 N   0  0  0  0  0  0  0  0  0  0  0  0
  -14.2725    5.3021   -1.5090 H   0  0  0  0  0  0  0  0  0  0  0  0
  -15.3230    6.0030    0.2484 P   0  0  0  0  0  0  0  0  0  0  0  0
  -14.4468    5.7565    1.4696 O   0  0  0  0  0  0  0  0  0  0  0  0
  -16.3754    4.9672   -0.0572 O   0  0  0  0  0  0  0  0  0  0  0  0
  -15.9506    4.1070   -0.2004 H   0  0  0  0  0  0  0  0  0  0  0  0
  -16.0268    7.4196    0.4838 O   0  0  0  0  0  0  0  0  0  0  0  0
  -16.9037    7.9377    1.7312 P   0  0  0  0  0  0  0  0  0  0  0  0
  -17.7498    9.0384    1.2101 O   0  0  0  0  0  0  0  0  0  0  0  0
  -15.9510    8.2849    2.8626 O   0  0  0  0  0  0  0  0  0  0  0  0
  -17.7775    6.7189    2.0490 O   0  0  0  0  0  0  0  0  0  0  0  0
  -15.4225    9.0594    2.6141 H   0  0  0  0  0  0  0  0  0  0  0  0
  -18.3658    6.5385    1.2992 H   0  0  0  0  0  0  0  0  0  0  0  0
  -11.5868    9.0147   -0.3177 C   0  0  0  0  0  0  0  0  0  0  0  0
  -12.5160   11.5697    1.9845 C   0  0  0  0  0  0  0  0  0  0  0  0
  -13.0792   10.3727    2.7765 C   0  0  0  0  0  0  0  0  0  0  0  0
  -12.9913    9.2341    1.8099 C   0  0  0  0  0  0  0  0  0  0  0  0
  -12.8776    7.9810    2.4925 O   0  0  0  0  0  0  0  0  0  0  0  0
  -11.7436   11.0261    0.9335 O   0  0  0  0  0  0  0  0  0  0  0  0
  -11.7187    9.5955    1.0449 C   0  0  0  0  0  0  0  0  0  0  0  0
  -12.1135    8.0062    3.0895 H   0  0  0  0  0  0  0  0  0  0  0  0
  -16.5748   14.6735    0.0794 O   0  0  0  0  0  0  0  0  0  0  0  0
  -15.6668   13.9178    0.4920 C   0  0  0  0  0  0  0  0  0  0  0  0
  -15.9572   12.6571    1.0445 C   0  0  0  0  0  0  0  0  0  0  0  0
  -14.9152   11.8932    1.4782 C   0  0  0  0  0  0  0  0  0  0  0  0
  -14.3795   14.3686    0.4105 N   0  0  0  0  0  0  0  0  0  0  0  0
  -13.3735   13.6533    0.9021 C   0  0  0  0  0  0  0  0  0  0  0  0
  -12.2127   14.1304    0.7905 O   0  0  0  0  0  0  0  0  0  0  0  0
  -13.6217   12.3938    1.4344 N   0  0  0  0  0  0  0  0  0  0  0  0
  -14.1948   15.2353   -0.0184 H   0  0  0  0  0  0  0  0  0  0  0  0
 27 28  2  0  0  0
 28 29  1  0  0  0
 28 31  1  0  0  0
 29 30  2  0  0  0
 30 34  1  0  0  0
 31 32  1  0  0  0
 32 33  2  0  0  0
 32 34  1  0  0  0
 34 20  1  0  0  0
 20 21  1  0  0  0
 20 24  1  0  0  0
 21 22  1  0  0  0
 22 23  1  0  0  0
 22 25  1  0  0  0
 24 25  1  0  0  0
 25 19  1  0  0  0
 19  1  1  0  0  0
  1  2  1  0  0  0
  2  3  2  0  0  0
  2  4  1  0  0  0
  2  6  1  0  0  0
  6  8  1  0  0  0
  8  9  2  0  0  0
  8 10  1  0  0  0
  8 12  1  0  0  0
 12 13  1  0  0  0
 13 14  2  0  0  0
 13 15  1  0  0  0
 13 16  1  0  0  0
 31 35  1  0  0  0
 23 26  1  0  0  0
  4  5  1  0  0  0
  6  7  1  0  0  0
 10 11  1  0  0  0
 15 17  1  0  0  0
 16 18  1  0  0  0
M  END
> <minimizedAffinity>
-8.46902

$$$$
5ECT_DUP_A_201


 35 36  0  0  0  0  0  0  0  0999 V2000
  -14.0036   10.9137    2.5684 O   0  0  0  0  0  0  0  0  0  0  0  0
  -13.5979    9.4048    2.0994 P   0  0  0  0  0  0  0  0  0  0  0  0
  -13.0899    8.6785    3.3553 O   0  0  0  0  0  0  0  0  0  0  0  0
  -12.6245    9.4912    0.9514 O   0  0  0  0  0  0  0  0  0  0  0  0
  -11.7885    9.8710    1.2642 H   0  0  0  0  0  0  0  0  0  0  0  0
  -15.0496    8.7508    1.5793 N   0  0  0  0  0  0  0  0  0  0  0  0
  -14.8765    8.4665    0.6151 H   0  0  0  0  0  0  0  0  0  0  0  0
  -15.8892    7.4795    2.2532 P   0  0  0  0  0  0  0  0  0  0  0  0
  -17.3561    7.6768    1.8943 O   0  0  0  0  0  0  0  0  0  0  0  0
  -15.5583    7.3308    3.7169 O   0  0  0  0  0  0  0  0  0  0  0  0
  -15.8481    8.1229    4.1960 H   0  0  0  0  0  0  0  0  0  0  0  0
  -15.4101    6.1721    1.4665 O   0  0  0  0  0  0  0  0  0  0  0  0
  -15.0728    5.9781   -0.0962 P   0  0  0  0  0  0  0  0  0  0  0  0
  -16.1771    6.6316   -0.8394 O   0  0  0  0  0  0  0  0  0  0  0  0
  -14.8618    4.4950   -0.3501 O   0  0  0  0  0  0  0  0  0  0  0  0
  -13.7850    6.7935   -0.2595 O   0  0  0  0  0  0  0  0  0  0  0  0
  -15.7022    4.0245   -0.2349 H   0  0  0  0  0  0  0  0  0  0  0  0
  -13.9712    7.7298   -0.0878 H   0  0  0  0  0  0  0  0  0  0  0  0
  -13.0927   11.9977    2.2244 C   0  0  0  0  0  0  0  0  0  0  0  0
  -13.7699   13.4208   -0.9706 C   0  0  0  0  0  0  0  0  0  0  0  0
  -15.2305   13.3002   -0.4920 C   0  0  0  0  0  0  0  0  0  0  0  0
  -15.1301   12.4742    0.7514 C   0  0  0  0  0  0  0  0  0  0  0  0
  -16.2126   12.7494    1.6467 O   0  0  0  0  0  0  0  0  0  0  0  0
  -12.9571   13.1496    0.1530 O   0  0  0  0  0  0  0  0  0  0  0  0
  -13.7850   12.9410    1.3065 C   0  0  0  0  0  0  0  0  0  0  0  0
  -16.2340   13.6985    1.8459 H   0  0  0  0  0  0  0  0  0  0  0  0
  -12.8659    9.7370   -4.8884 O   0  0  0  0  0  0  0  0  0  0  0  0
  -13.0189   10.5913   -3.9870 C   0  0  0  0  0  0  0  0  0  0  0  0
  -12.1889   10.6153   -2.8515 C   0  0  0  0  0  0  0  0  0  0  0  0
  -12.4213   11.5721   -1.9092 C   0  0  0  0  0  0  0  0  0  0  0  0
  -14.0386   11.4895   -4.1300 N   0  0  0  0  0  0  0  0  0  0  0  0
  -14.3090   12.3727   -3.1750 C   0  0  0  0  0  0  0  0  0  0  0  0
  -15.2627   13.1713   -3.3756 O   0  0  0  0  0  0  0  0  0  0  0  0
  -13.4954   12.4392   -2.0502 N   0  0  0  0  0  0  0  0  0  0  0  0
  -14.5804   11.4822   -4.9520 H   0  0  0  0  0  0  0  0  0  0  0  0
 27 28  2  0  0  0
 28 29  1  0  0  0
 28 31  1  0  0  0
 29 30  2  0  0  0
 30 34  1  0  0  0
 31 32  1  0  0  0
 32 33  2  0  0  0
 32 34  1  0  0  0
 34 20  1  0  0  0
 20 21  1  0  0  0
 20 24  1  0  0  0
 21 22  1  0  0  0
 22 23  1  0  0  0
 22 25  1  0  0  0
 24 25  1  0  0  0
 25 19  1  0  0  0
 19  1  1  0  0  0
  1  2  1  0  0  0
  2  3  2  0  0  0
  2  4  1  0  0  0
  2  6  1  0  0  0
  6  8  1  0  0  0
  8  9  2  0  0  0
  8 10  1  0  0  0
  8 12  1  0  0  0
 12 13  1  0  0  0
 13 14  2  0  0  0
 13 15  1  0  0  0
 13 16  1  0  0  0
 31 35  1  0  0  0
 23 26  1  0  0  0
  4  5  1  0  0  0
  6  7  1  0  0  0
 10 11  1  0  0  0
 15 17  1  0  0  0
 16 18  1  0  0  0
M  END
> <minimizedAffinity>
-8.12739

$$$$
5ECT_DUP_A_201


 35 36  0  0  0  0  0  0  0  0999 V2000
  -13.8789   10.3026    1.7316 O   0  0  0  0  0  0  0  0  0  0  0  0
  -14.1002    9.1071    2.8194 P   0  0  0  0  0  0  0  0  0  0  0  0
  -13.6152    9.6520    4.1725 O   0  0  0  0  0  0  0  0  0  0  0  0
  -13.4099    7.8602    2.3276 O   0  0  0  0  0  0  0  0  0  0  0  0
  -12.4501    8.0007    2.3274 H   0  0  0  0  0  0  0  0  0  0  0  0
  -15.7603    8.8847    2.8273 N   0  0  0  0  0  0  0  0  0  0  0  0
  -16.1425    9.7642    2.4795 H   0  0  0  0  0  0  0  0  0  0  0  0
  -16.6295    7.7022    2.0390 P   0  0  0  0  0  0  0  0  0  0  0  0
  -17.3807    8.3860    0.9042 O   0  0  0  0  0  0  0  0  0  0  0  0
  -17.4510    6.8969    3.0140 O   0  0  0  0  0  0  0  0  0  0  0  0
  -18.1086    7.4722    3.4352 H   0  0  0  0  0  0  0  0  0  0  0  0
  -15.5466    6.7507    1.3465 O   0  0  0  0  0  0  0  0  0  0  0  0
  -15.7332    5.6638    0.1730 P   0  0  0  0  0  0  0  0  0  0  0  0
  -16.9867    4.9348    0.4833 O   0  0  0  0  0  0  0  0  0  0  0  0
  -14.4622    4.8351    0.0944 O   0  0  0  0  0  0  0  0  0  0  0  0
  -15.9397    6.5457   -1.0638 O   0  0  0  0  0  0  0  0  0  0  0  0
  -14.3771    4.2967    0.8967 H   0  0  0  0  0  0  0  0  0  0  0  0
  -16.7608    7.0528   -0.9658 H   0  0  0  0  0  0  0  0  0  0  0  0
  -13.6991   11.6561    2.2402 C   0  0  0  0  0  0  0  0  0  0  0  0
  -11.2888   11.8596   -0.3753 C   0  0  0  0  0  0  0  0  0  0  0  0
  -11.7518   13.3297   -0.4155 C   0  0  0  0  0  0  0  0  0  0  0  0
  -12.9602   13.3460    0.4665 C   0  0  0  0  0  0  0  0  0  0  0  0
  -13.1670   14.6410    1.0403 O   0  0  0  0  0  0  0  0  0  0  0  0
  -11.8562   11.2932    0.7882 O   0  0  0  0  0  0  0  0  0  0  0  0
  -12.5738   12.3023    1.5138 C   0  0  0  0  0  0  0  0  0  0  0  0
  -12.3686   14.9139    1.5187 H   0  0  0  0  0  0  0  0  0  0  0  0
  -12.9025    9.2173   -4.8643 O   0  0  0  0  0  0  0  0  0  0  0  0
  -12.5837    9.8427   -3.8284 C   0  0  0  0  0  0  0  0  0  0  0  0
  -13.0022   11.1687   -3.6149 C   0  0  0  0  0  0  0  0  0  0  0  0
  -12.6093   11.7863   -2.4653 C   0  0  0  0  0  0  0  0  0  0  0  0
  -11.7919    9.2015   -2.9179 N   0  0  0  0  0  0  0  0  0  0  0  0
  -11.3496    9.8312   -1.8349 C   0  0  0  0  0  0  0  0  0  0  0  0
  -10.6250    9.1772   -1.0381 O   0  0  0  0  0  0  0  0  0  0  0  0
  -11.7617   11.1340   -1.5812 N   0  0  0  0  0  0  0  0  0  0  0  0
  -11.5458    8.2599   -3.0665 H   0  0  0  0  0  0  0  0  0  0  0  0
 27 28  2  0  0  0
 28 29  1  0  0  0
 28 31  1  0  0  0
 29 30  2  0  0  0
 30 34  1  0  0  0
 31 32  1  0  0  0
 32 33  2  0  0  0
 32 34  1  0  0  0
 34 20  1  0  0  0
 20 21  1  0  0  0
 20 24  1  0  0  0
 21 22  1  0  0  0
 22 23  1  0  0  0
 22 25  1  0  0  0
 24 25  1  0  0  0
 25 19  1  0  0  0
 19  1  1  0  0  0
  1  2  1  0  0  0
  2  3  2  0  0  0
  2  4  1  0  0  0
  2  6  1  0  0  0
  6  8  1  0  0  0
  8  9  2  0  0  0
  8 10  1  0  0  0
  8 12  1  0  0  0
 12 13  1  0  0  0
 13 14  2  0  0  0
 13 15  1  0  0  0
 13 16  1  0  0  0
 31 35  1  0  0  0
 23 26  1  0  0  0
  4  5  1  0  0  0
  6  7  1  0  0  0
 10 11  1  0  0  0
 15 17  1  0  0  0
 16 18  1  0  0  0
M  END
> <minimizedAffinity>
-7.82393

$$$$
5ECT_DUP_A_201


 35 36  0  0  0  0  0  0  0  0999 V2000
  -12.7835    9.1120   -0.0826 O   0  0  0  0  0  0  0  0  0  0  0  0
  -12.4604    9.0807    1.5161 P   0  0  0  0  0  0  0  0  0  0  0  0
  -13.3306   10.1725    2.1594 O   0  0  0  0  0  0  0  0  0  0  0  0
  -10.9733    9.2204    1.7205 O   0  0  0  0  0  0  0  0  0  0  0  0
  -10.6905   10.1057    1.4427 H   0  0  0  0  0  0  0  0  0  0  0  0
  -12.9692    7.5569    1.9905 N   0  0  0  0  0  0  0  0  0  0  0  0
  -12.8824    7.5582    3.0068 H   0  0  0  0  0  0  0  0  0  0  0  0
  -14.4427    6.8400    1.6904 P   0  0  0  0  0  0  0  0  0  0  0  0
  -14.3844    5.4399    2.2869 O   0  0  0  0  0  0  0  0  0  0  0  0
  -14.8061    6.9458    0.2307 O   0  0  0  0  0  0  0  0  0  0  0  0
  -14.1597    6.4542   -0.2999 H   0  0  0  0  0  0  0  0  0  0  0  0
  -15.5102    7.6515    2.5620 O   0  0  0  0  0  0  0  0  0  0  0  0
  -16.7537    8.5562    2.0837 P   0  0  0  0  0  0  0  0  0  0  0  0
  -17.4384    7.7841    1.0188 O   0  0  0  0  0  0  0  0  0  0  0  0
  -16.2176    9.9247    1.6985 O   0  0  0  0  0  0  0  0  0  0  0  0
  -17.6326    8.5990    3.3389 O   0  0  0  0  0  0  0  0  0  0  0  0
  -15.6699    9.8449    0.9019 H   0  0  0  0  0  0  0  0  0  0  0  0
  -17.9490    7.7049    3.5427 H   0  0  0  0  0  0  0  0  0  0  0  0
  -11.6810    8.8600   -1.0013 C   0  0  0  0  0  0  0  0  0  0  0  0
  -12.7291   11.9387   -2.4556 C   0  0  0  0  0  0  0  0  0  0  0  0
  -11.2800   12.3539   -2.1318 C   0  0  0  0  0  0  0  0  0  0  0  0
  -10.7732   11.2367   -1.2754 C   0  0  0  0  0  0  0  0  0  0  0  0
   -9.3508   11.1101   -1.3748 O   0  0  0  0  0  0  0  0  0  0  0  0
  -12.8022   10.5435   -2.2442 O   0  0  0  0  0  0  0  0  0  0  0  0
  -11.5060   10.0427   -1.8858 C   0  0  0  0  0  0  0  0  0  0  0  0
   -9.1009   10.9927   -2.3047 H   0  0  0  0  0  0  0  0  0  0  0  0
  -16.1730   14.6463    0.7918 O   0  0  0  0  0  0  0  0  0  0  0  0
  -15.3816   13.9843    0.0838 C   0  0  0  0  0  0  0  0  0  0  0  0
  -14.2592   13.3449    0.6411 C   0  0  0  0  0  0  0  0  0  0  0  0
  -13.4394   12.6475   -0.1950 C   0  0  0  0  0  0  0  0  0  0  0  0
  -15.6302   13.9221   -1.2583 N   0  0  0  0  0  0  0  0  0  0  0  0
  -14.7888   13.3044   -2.0803 C   0  0  0  0  0  0  0  0  0  0  0  0
  -15.0828   13.2852   -3.3054 O   0  0  0  0  0  0  0  0  0  0  0  0
  -13.6822   12.6430   -1.5613 N   0  0  0  0  0  0  0  0  0  0  0  0
  -16.4440   14.3407   -1.6212 H   0  0  0  0  0  0  0  0  0  0  0  0
 27 28  2  0  0  0
 28 29  1  0  0  0
 28 31  1  0  0  0
 29 30  2  0  0  0
 30 34  1  0  0  0
 31 32  1  0  0  0
 32 33  2  0  0  0
 32 34  1  0  0  0
 34 20  1  0  0  0
 20 21  1  0  0  0
 20 24  1  0  0  0
 21 22  1  0  0  0
 22 23  1  0  0  0
 22 25  1  0  0  0
 24 25  1  0  0  0
 25 19  1  0  0  0
 19  1  1  0  0  0
  1  2  1  0  0  0
  2  3  2  0  0  0
  2  4  1  0  0  0
  2  6  1  0  0  0
  6  8  1  0  0  0
  8  9  2  0  0  0
  8 10  1  0  0  0
  8 12  1  0  0  0
 12 13  1  0  0  0
 13 14  2  0  0  0
 13 15  1  0  0  0
 13 16  1  0  0  0
 31 35  1  0  0  0
 23 26  1  0  0  0
  4  5  1  0  0  0
  6  7  1  0  0  0
 10 11  1  0  0  0
 15 17  1  0  0  0
 16 18  1  0  0  0
M  END
> <minimizedAffinity>
-7.79745

$$$$
5ECT_DUP_A_201


 35 36  0  0  0  0  0  0  0  0999 V2000
  -12.6959    8.4387   -0.8099 O   0  0  0  0  0  0  0  0  0  0  0  0
  -12.6409    6.8453   -1.1551 P   0  0  0  0  0  0  0  0  0  0  0  0
  -11.9358    6.1654    0.0297 O   0  0  0  0  0  0  0  0  0  0  0  0
  -11.9920    6.6557   -2.5026 O   0  0  0  0  0  0  0  0  0  0  0  0
  -11.0588    6.9156   -2.4515 H   0  0  0  0  0  0  0  0  0  0  0  0
  -14.2547    6.4014   -1.2223 N   0  0  0  0  0  0  0  0  0  0  0  0
  -14.3366    5.8457   -2.0737 H   0  0  0  0  0  0  0  0  0  0  0  0
  -15.1235    5.5575   -0.0785 P   0  0  0  0  0  0  0  0  0  0  0  0
  -16.4401    5.1550   -0.7296 O   0  0  0  0  0  0  0  0  0  0  0  0
  -15.2088    6.3317    1.2127 O   0  0  0  0  0  0  0  0  0  0  0  0
  -15.6980    7.1559    1.0638 H   0  0  0  0  0  0  0  0  0  0  0  0
  -14.3163    4.1995    0.1706 O   0  0  0  0  0  0  0  0  0  0  0  0
  -13.8735    3.5054    1.5547 P   0  0  0  0  0  0  0  0  0  0  0  0
  -12.9190    2.4310    1.1890 O   0  0  0  0  0  0  0  0  0  0  0  0
  -15.1329    3.0796    2.2901 O   0  0  0  0  0  0  0  0  0  0  0  0
  -13.1284    4.6390    2.2686 O   0  0  0  0  0  0  0  0  0  0  0  0
  -15.5666    2.3632    1.8007 H   0  0  0  0  0  0  0  0  0  0  0  0
  -12.3352    4.8739    1.7621 H   0  0  0  0  0  0  0  0  0  0  0  0
  -11.4786    9.0662   -0.3126 C   0  0  0  0  0  0  0  0  0  0  0  0
  -12.5981   11.4670    2.0695 C   0  0  0  0  0  0  0  0  0  0  0  0
  -13.2083   10.2202    2.7406 C   0  0  0  0  0  0  0  0  0  0  0  0
  -13.0390    9.1453    1.7138 C   0  0  0  0  0  0  0  0  0  0  0  0
  -12.9656    7.8520    2.3231 O   0  0  0  0  0  0  0  0  0  0  0  0
  -11.7452   10.9940    1.0471 O   0  0  0  0  0  0  0  0  0  0  0  0
  -11.7163    9.5593    1.0701 C   0  0  0  0  0  0  0  0  0  0  0  0
  -12.2481    7.8424    2.9758 H   0  0  0  0  0  0  0  0  0  0  0  0
  -16.5242   14.6751    0.0618 O   0  0  0  0  0  0  0  0  0  0  0  0
  -15.6466   13.8962    0.4965 C   0  0  0  0  0  0  0  0  0  0  0  0
  -15.9812   12.6344    1.0207 C   0  0  0  0  0  0  0  0  0  0  0  0
  -14.9706   11.8444    1.4812 C   0  0  0  0  0  0  0  0  0  0  0  0
  -14.3487   14.3225    0.4679 N   0  0  0  0  0  0  0  0  0  0  0  0
  -13.3753   13.5812    0.9857 C   0  0  0  0  0  0  0  0  0  0  0  0
  -12.2022   14.0366    0.9226 O   0  0  0  0  0  0  0  0  0  0  0  0
  -13.6670   12.3199    1.4912 N   0  0  0  0  0  0  0  0  0  0  0  0
  -14.1319   15.1909    0.0579 H   0  0  0  0  0  0  0  0  0  0  0  0
 27 28  2  0  0  0
 28 29  1  0  0  0
 28 31  1  0  0  0
 29 30  2  0  0  0
 30 34  1  0  0  0
 31 32  1  0  0  0
 32 33  2  0  0  0
 32 34  1  0  0  0
 34 20  1  0  0  0
 20 21  1  0  0  0
 20 24  1  0  0  0
 21 22  1  0  0  0
 22 23  1  0  0  0
 22 25  1  0  0  0
 24 25  1  0  0  0
 25 19  1  0  0  0
 19  1  1  0  0  0
  1  2  1  0  0  0
  2  3  2  0  0  0
  2  4  1  0  0  0
  2  6  1  0  0  0
  6  8  1  0  0  0
  8  9  2  0  0  0
  8 10  1  0  0  0
  8 12  1  0  0  0
 12 13  1  0  0  0
 13 14  2  0  0  0
 13 15  1  0  0  0
 13 16  1  0  0  0
 31 35  1  0  0  0
 23 26  1  0  0  0
  4  5  1  0  0  0
  6  7  1  0  0  0
 10 11  1  0  0  0
 15 17  1  0  0  0
 16 18  1  0  0  0
M  END
> <minimizedAffinity>
-7.73933

$$$$
5ECT_DUP_A_201


 35 36  0  0  0  0  0  0  0  0999 V2000
  -12.7066    7.7517   -0.7247 O   0  0  0  0  0  0  0  0  0  0  0  0
  -12.5646    6.4948    0.3055 P   0  0  0  0  0  0  0  0  0  0  0  0
  -11.6847    6.9802    1.4688 O   0  0  0  0  0  0  0  0  0  0  0  0
  -12.0521    5.2949   -0.4498 O   0  0  0  0  0  0  0  0  0  0  0  0
  -11.1421    5.4611   -0.7417 H   0  0  0  0  0  0  0  0  0  0  0  0
  -14.1365    6.2274    0.8189 N   0  0  0  0  0  0  0  0  0  0  0  0
  -14.3917    7.0739    1.3275 H   0  0  0  0  0  0  0  0  0  0  0  0
  -15.4662    5.8797   -0.1226 P   0  0  0  0  0  0  0  0  0  0  0  0
  -16.1130    4.6331    0.4667 O   0  0  0  0  0  0  0  0  0  0  0  0
  -15.0944    5.8307   -1.5831 O   0  0  0  0  0  0  0  0  0  0  0  0
  -14.4673    5.1060   -1.7330 H   0  0  0  0  0  0  0  0  0  0  0  0
  -16.5000    7.0754    0.1209 O   0  0  0  0  0  0  0  0  0  0  0  0
  -16.8968    7.8295    1.4874 P   0  0  0  0  0  0  0  0  0  0  0  0
  -17.9173    8.8401    1.1179 O   0  0  0  0  0  0  0  0  0  0  0  0
  -15.6193    8.3496    2.1245 O   0  0  0  0  0  0  0  0  0  0  0  0
  -17.5498    6.7092    2.3049 O   0  0  0  0  0  0  0  0  0  0  0  0
  -15.2459    9.0539    1.5718 H   0  0  0  0  0  0  0  0  0  0  0  0
  -18.3583    6.4124    1.8586 H   0  0  0  0  0  0  0  0  0  0  0  0
  -11.7404    7.8494   -1.8109 C   0  0  0  0  0  0  0  0  0  0  0  0
  -11.8243   11.3093   -0.9660 C   0  0  0  0  0  0  0  0  0  0  0  0
  -10.2913   11.1496   -1.0020 C   0  0  0  0  0  0  0  0  0  0  0  0
  -10.0902    9.6701   -1.0971 C   0  0  0  0  0  0  0  0  0  0  0  0
   -8.8489    9.3547   -1.7364 O   0  0  0  0  0  0  0  0  0  0  0  0
  -12.3633   10.1199   -1.5060 O   0  0  0  0  0  0  0  0  0  0  0  0
  -11.2974    9.2630   -1.9411 C   0  0  0  0  0  0  0  0  0  0  0  0
   -8.8172    9.7789   -2.6081 H   0  0  0  0  0  0  0  0  0  0  0  0
  -13.4161   12.0218    4.2008 O   0  0  0  0  0  0  0  0  0  0  0  0
  -13.0896   11.8193    3.0099 C   0  0  0  0  0  0  0  0  0  0  0  0
  -12.9500   10.5158    2.4998 C   0  0  0  0  0  0  0  0  0  0  0  0
  -12.5851   10.3754    1.1942 C   0  0  0  0  0  0  0  0  0  0  0  0
  -12.8481   12.9103    2.2234 N   0  0  0  0  0  0  0  0  0  0  0  0
  -12.4205   12.7693    0.9734 C   0  0  0  0  0  0  0  0  0  0  0  0
  -12.2200   13.8192    0.3063 O   0  0  0  0  0  0  0  0  0  0  0  0
  -12.2933   11.4964    0.4302 N   0  0  0  0  0  0  0  0  0  0  0  0
  -12.9930   13.8133    2.5880 H   0  0  0  0  0  0  0  0  0  0  0  0
 27 28  2  0  0  0
 28 29  1  0  0  0
 28 31  1  0  0  0
 29 30  2  0  0  0
 30 34  1  0  0  0
 31 32  1  0  0  0
 32 33  2  0  0  0
 32 34  1  0  0  0
 34 20  1  0  0  0
 20 21  1  0  0  0
 20 24  1  0  0  0
 21 22  1  0  0  0
 22 23  1  0  0  0
 22 25  1  0  0  0
 24 25  1  0  0  0
 25 19  1  0  0  0
 19  1  1  0  0  0
  1  2  1  0  0  0
  2  3  2  0  0  0
  2  4  1  0  0  0
  2  6  1  0  0  0
  6  8  1  0  0  0
  8  9  2  0  0  0
  8 10  1  0  0  0
  8 12  1  0  0  0
 12 13  1  0  0  0
 13 14  2  0  0  0
 13 15  1  0  0  0
 13 16  1  0  0  0
 31 35  1  0  0  0
 23 26  1  0  0  0
  4  5  1  0  0  0
  6  7  1  0  0  0
 10 11  1  0  0  0
 15 17  1  0  0  0
 16 18  1  0  0  0
M  END
> <minimizedAffinity>
-7.57401

$$$$
5ECT_DUP_A_201


 35 36  0  0  0  0  0  0  0  0999 V2000
  -13.5716    6.9553   -2.0187 O   0  0  0  0  0  0  0  0  0  0  0  0
  -14.1277    5.8934   -0.9121 P   0  0  0  0  0  0  0  0  0  0  0  0
  -12.9065    5.1075   -0.4080 O   0  0  0  0  0  0  0  0  0  0  0  0
  -15.2294    5.0704   -1.5300 O   0  0  0  0  0  0  0  0  0  0  0  0
  -14.8598    4.5075   -2.2282 H   0  0  0  0  0  0  0  0  0  0  0  0
  -14.7461    6.8734    0.2974 N   0  0  0  0  0  0  0  0  0  0  0  0
  -15.7582    6.8253    0.1795 H   0  0  0  0  0  0  0  0  0  0  0  0
  -14.5024    6.7349    1.9395 P   0  0  0  0  0  0  0  0  0  0  0  0
  -13.4615    7.7786    2.3230 O   0  0  0  0  0  0  0  0  0  0  0  0
  -14.2097    5.3059    2.3223 O   0  0  0  0  0  0  0  0  0  0  0  0
  -13.3800    5.0234    1.9068 H   0  0  0  0  0  0  0  0  0  0  0  0
  -15.8708    7.1974    2.6260 O   0  0  0  0  0  0  0  0  0  0  0  0
  -16.8453    8.4239    2.2528 P   0  0  0  0  0  0  0  0  0  0  0  0
  -17.6812    7.9552    1.1211 O   0  0  0  0  0  0  0  0  0  0  0  0
  -15.9828    9.6496    2.0037 O   0  0  0  0  0  0  0  0  0  0  0  0
  -17.7075    8.5557    3.5135 O   0  0  0  0  0  0  0  0  0  0  0  0
  -15.4584    9.5177    1.1984 H   0  0  0  0  0  0  0  0  0  0  0  0
  -18.2374    7.7514    3.6283 H   0  0  0  0  0  0  0  0  0  0  0  0
  -12.1440    7.2471   -2.0194 C   0  0  0  0  0  0  0  0  0  0  0  0
  -12.2557   10.5556   -3.3358 C   0  0  0  0  0  0  0  0  0  0  0  0
  -10.7820   10.2553   -3.6752 C   0  0  0  0  0  0  0  0  0  0  0  0
  -10.5037    8.9768   -2.9496 C   0  0  0  0  0  0  0  0  0  0  0  0
   -9.4615    8.2327   -3.5895 O   0  0  0  0  0  0  0  0  0  0  0  0
  -12.8298    9.3309   -2.9271 O   0  0  0  0  0  0  0  0  0  0  0  0
  -11.8601    8.2801   -3.0509 C   0  0  0  0  0  0  0  0  0  0  0  0
   -9.6987    8.0760   -4.5169 H   0  0  0  0  0  0  0  0  0  0  0  0
  -12.5236   14.3156    0.6046 O   0  0  0  0  0  0  0  0  0  0  0  0
  -12.4489   13.4154   -0.2612 C   0  0  0  0  0  0  0  0  0  0  0  0
  -11.3842   12.4960   -0.2726 C   0  0  0  0  0  0  0  0  0  0  0  0
  -11.3682   11.5477   -1.2513 C   0  0  0  0  0  0  0  0  0  0  0  0
  -13.4266   13.3687   -1.2146 N   0  0  0  0  0  0  0  0  0  0  0  0
  -13.3678   12.4906   -2.2099 C   0  0  0  0  0  0  0  0  0  0  0  0
  -14.3049   12.5038   -3.0521 O   0  0  0  0  0  0  0  0  0  0  0  0
  -12.3423   11.5531   -2.2395 N   0  0  0  0  0  0  0  0  0  0  0  0
  -14.1850   13.9944   -1.1634 H   0  0  0  0  0  0  0  0  0  0  0  0
 27 28  2  0  0  0
 28 29  1  0  0  0
 28 31  1  0  0  0
 29 30  2  0  0  0
 30 34  1  0  0  0
 31 32  1  0  0  0
 32 33  2  0  0  0
 32 34  1  0  0  0
 34 20  1  0  0  0
 20 21  1  0  0  0
 20 24  1  0  0  0
 21 22  1  0  0  0
 22 23  1  0  0  0
 22 25  1  0  0  0
 24 25  1  0  0  0
 25 19  1  0  0  0
 19  1  1  0  0  0
  1  2  1  0  0  0
  2  3  2  0  0  0
  2  4  1  0  0  0
  2  6  1  0  0  0
  6  8  1  0  0  0
  8  9  2  0  0  0
  8 10  1  0  0  0
  8 12  1  0  0  0
 12 13  1  0  0  0
 13 14  2  0  0  0
 13 15  1  0  0  0
 13 16  1  0  0  0
 31 35  1  0  0  0
 23 26  1  0  0  0
  4  5  1  0  0  0
  6  7  1  0  0  0
 10 11  1  0  0  0
 15 17  1  0  0  0
 16 18  1  0  0  0
M  END
> <minimizedAffinity>
-7.56676

$$$$
