1KV5_PGA_A_1350


 12 11  0  0  0  0  0  0  0  0999 V2000
   -8.4874   -8.2138   47.5901 P   0  0  0  0  0  0  0  0  0  0  0  0
   -9.4673   -8.7612   46.5915 O   0  0  0  0  0  0  0  0  0  0  0  0
   -8.1535   -9.1136   48.7892 O   0  0  0  0  0  0  0  0  0  0  0  0
   -7.1853   -7.8190   46.9112 O   0  0  0  0  0  0  0  0  0  0  0  0
   -8.9740   -9.3756   49.2352 H   0  0  0  0  0  0  0  0  0  0  0  0
   -7.3773   -7.2493   46.1499 H   0  0  0  0  0  0  0  0  0  0  0  0
   -9.2045   -6.8633   48.1746 O   0  0  0  0  0  0  0  0  0  0  0  0
  -10.6095   -6.8073   48.1999 C   0  0  0  0  0  0  0  0  0  0  0  0
  -11.0091   -7.0783   49.6126 C   0  0  0  0  0  0  0  0  0  0  0  0
  -10.9205   -8.3509   50.1051 O   0  0  0  0  0  0  0  0  0  0  0  0
  -11.4908   -6.0964   50.3229 O   0  0  0  0  0  0  0  0  0  0  0  0
  -11.5392   -5.2344   49.9587 H   0  0  0  0  0  0  0  0  0  0  0  0
  1  7  1  0  0  0
  1  2  2  0  0  0
  1  3  1  0  0  0
  1  4  1  0  0  0
  7  8  1  0  0  0
  8  9  1  0  0  0
  9 10  2  0  0  0
  9 11  1  0  0  0
  3  5  1  0  0  0
  4  6  1  0  0  0
 11 12  1  0  0  0
M  END
> <minimizedAffinity>
-5.56847

$$$$
1KV5_PGA_A_1350


 12 11  0  0  0  0  0  0  0  0999 V2000
   -8.6237   -8.2862   47.6664 P   0  0  0  0  0  0  0  0  0  0  0  0
   -7.1769   -7.9340   47.4672 O   0  0  0  0  0  0  0  0  0  0  0  0
   -9.3838   -8.7927   46.4316 O   0  0  0  0  0  0  0  0  0  0  0  0
   -8.7840   -9.3096   48.7796 O   0  0  0  0  0  0  0  0  0  0  0  0
   -9.2923   -8.1510   45.7099 H   0  0  0  0  0  0  0  0  0  0  0  0
   -8.3094   -9.0056   49.5691 H   0  0  0  0  0  0  0  0  0  0  0  0
   -9.3288   -6.8855   48.1362 O   0  0  0  0  0  0  0  0  0  0  0  0
  -10.7328   -6.8282   48.1952 C   0  0  0  0  0  0  0  0  0  0  0  0
  -11.0865   -6.8337   49.6456 C   0  0  0  0  0  0  0  0  0  0  0  0
  -11.1102   -8.0183   50.3284 O   0  0  0  0  0  0  0  0  0  0  0  0
  -11.4231   -5.7067   50.2088 O   0  0  0  0  0  0  0  0  0  0  0  0
  -11.3970   -4.9104   49.7157 H   0  0  0  0  0  0  0  0  0  0  0  0
  1  7  1  0  0  0
  1  2  2  0  0  0
  1  3  1  0  0  0
  1  4  1  0  0  0
  7  8  1  0  0  0
  8  9  1  0  0  0
  9 10  2  0  0  0
  9 11  1  0  0  0
  3  5  1  0  0  0
  4  6  1  0  0  0
 11 12  1  0  0  0
M  END
> <minimizedAffinity>
-5.53673

$$$$
1KV5_PGA_A_1350


 12 11  0  0  0  0  0  0  0  0999 V2000
  -11.5074   -6.3510   49.7958 P   0  0  0  0  0  0  0  0  0  0  0  0
  -10.6844   -5.1256   49.5168 O   0  0  0  0  0  0  0  0  0  0  0  0
  -11.7710   -6.6800   51.2727 O   0  0  0  0  0  0  0  0  0  0  0  0
  -12.8447   -6.2813   49.0753 O   0  0  0  0  0  0  0  0  0  0  0  0
  -10.9273   -6.7285   51.7487 H   0  0  0  0  0  0  0  0  0  0  0  0
  -12.6973   -6.0740   48.1393 H   0  0  0  0  0  0  0  0  0  0  0  0
  -10.6363   -7.5856   49.1660 O   0  0  0  0  0  0  0  0  0  0  0  0
  -10.1121   -7.4432   47.8687 C   0  0  0  0  0  0  0  0  0  0  0  0
   -8.8575   -8.2520   47.8383 C   0  0  0  0  0  0  0  0  0  0  0  0
   -7.8395   -7.8844   47.0026 O   0  0  0  0  0  0  0  0  0  0  0  0
   -8.7924   -9.3282   48.5721 O   0  0  0  0  0  0  0  0  0  0  0  0
   -9.5058   -9.5549   49.1356 H   0  0  0  0  0  0  0  0  0  0  0  0
  1  7  1  0  0  0
  1  2  2  0  0  0
  1  3  1  0  0  0
  1  4  1  0  0  0
  7  8  1  0  0  0
  8  9  1  0  0  0
  9 10  2  0  0  0
  9 11  1  0  0  0
  3  5  1  0  0  0
  4  6  1  0  0  0
 11 12  1  0  0  0
M  END
> <minimizedAffinity>
-5.49102

$$$$
1KV5_PGA_A_1350


 12 11  0  0  0  0  0  0  0  0999 V2000
  -10.0636   -7.5629   48.3902 P   0  0  0  0  0  0  0  0  0  0  0  0
  -11.2297   -7.3898   47.4590 O   0  0  0  0  0  0  0  0  0  0  0  0
   -9.8153   -8.9816   48.9239 O   0  0  0  0  0  0  0  0  0  0  0  0
   -8.7791   -7.0615   47.7493 O   0  0  0  0  0  0  0  0  0  0  0  0
  -10.6259   -9.3181   49.3371 H   0  0  0  0  0  0  0  0  0  0  0  0
   -8.9176   -6.1649   47.4059 H   0  0  0  0  0  0  0  0  0  0  0  0
  -10.4156   -6.6103   49.6741 O   0  0  0  0  0  0  0  0  0  0  0  0
  -11.7485   -6.5493   50.1186 C   0  0  0  0  0  0  0  0  0  0  0  0
  -11.7799   -7.2601   51.4311 C   0  0  0  0  0  0  0  0  0  0  0  0
  -12.2335   -6.6036   52.5416 O   0  0  0  0  0  0  0  0  0  0  0  0
  -11.3144   -8.4768   51.4918 O   0  0  0  0  0  0  0  0  0  0  0  0
  -11.0105   -8.9014   50.7138 H   0  0  0  0  0  0  0  0  0  0  0  0
  1  7  1  0  0  0
  1  2  2  0  0  0
  1  3  1  0  0  0
  1  4  1  0  0  0
  7  8  1  0  0  0
  8  9  1  0  0  0
  9 10  2  0  0  0
  9 11  1  0  0  0
  3  5  1  0  0  0
  4  6  1  0  0  0
 11 12  1  0  0  0
M  END
> <minimizedAffinity>
-5.40276

$$$$
1KV5_PGA_A_1350


 12 11  0  0  0  0  0  0  0  0999 V2000
  -10.6487   -6.9772   48.8217 P   0  0  0  0  0  0  0  0  0  0  0  0
   -9.4034   -6.3222   48.2953 O   0  0  0  0  0  0  0  0  0  0  0  0
  -11.8374   -7.0712   47.8536 O   0  0  0  0  0  0  0  0  0  0  0  0
  -10.3471   -8.3726   49.3455 O   0  0  0  0  0  0  0  0  0  0  0  0
  -12.0442   -6.1885   47.5089 H   0  0  0  0  0  0  0  0  0  0  0  0
   -9.5974   -8.3323   49.9598 H   0  0  0  0  0  0  0  0  0  0  0  0
  -11.1119   -6.0346   50.0774 O   0  0  0  0  0  0  0  0  0  0  0  0
  -12.4134   -6.1889   50.5875 C   0  0  0  0  0  0  0  0  0  0  0  0
  -12.2558   -6.7630   51.9566 C   0  0  0  0  0  0  0  0  0  0  0  0
  -13.0671   -6.3264   52.9672 O   0  0  0  0  0  0  0  0  0  0  0  0
  -11.3018   -7.6277   52.1634 O   0  0  0  0  0  0  0  0  0  0  0  0
  -10.7616   -7.9086   51.4511 H   0  0  0  0  0  0  0  0  0  0  0  0
  1  7  1  0  0  0
  1  2  2  0  0  0
  1  3  1  0  0  0
  1  4  1  0  0  0
  7  8  1  0  0  0
  8  9  1  0  0  0
  9 10  2  0  0  0
  9 11  1  0  0  0
  3  5  1  0  0  0
  4  6  1  0  0  0
 11 12  1  0  0  0
M  END
> <minimizedAffinity>
-5.24882

$$$$
1KV5_PGA_A_1350


 12 11  0  0  0  0  0  0  0  0999 V2000
   -8.5040   -8.2532   47.5804 P   0  0  0  0  0  0  0  0  0  0  0  0
   -9.5536   -8.7451   46.6248 O   0  0  0  0  0  0  0  0  0  0  0  0
   -8.1953   -9.1544   48.7853 O   0  0  0  0  0  0  0  0  0  0  0  0
   -7.2004   -7.9652   46.8523 O   0  0  0  0  0  0  0  0  0  0  0  0
   -9.0170   -9.3488   49.2625 H   0  0  0  0  0  0  0  0  0  0  0  0
   -7.3766   -7.3961   46.0867 H   0  0  0  0  0  0  0  0  0  0  0  0
   -9.1023   -6.8447   48.1616 O   0  0  0  0  0  0  0  0  0  0  0  0
  -10.4813   -6.7593   48.4239 C   0  0  0  0  0  0  0  0  0  0  0  0
  -10.7117   -5.3959   48.9871 C   0  0  0  0  0  0  0  0  0  0  0  0
  -11.4035   -5.2596   50.1588 O   0  0  0  0  0  0  0  0  0  0  0  0
  -10.2946   -4.3632   48.3088 O   0  0  0  0  0  0  0  0  0  0  0  0
   -9.8228   -4.4876   47.5088 H   0  0  0  0  0  0  0  0  0  0  0  0
  1  7  1  0  0  0
  1  2  2  0  0  0
  1  3  1  0  0  0
  1  4  1  0  0  0
  7  8  1  0  0  0
  8  9  1  0  0  0
  9 10  2  0  0  0
  9 11  1  0  0  0
  3  5  1  0  0  0
  4  6  1  0  0  0
 11 12  1  0  0  0
M  END
> <minimizedAffinity>
-5.16074

$$$$
1KV5_PGA_A_1350


 12 11  0  0  0  0  0  0  0  0999 V2000
  -10.5990   -7.0231   48.7777 P   0  0  0  0  0  0  0  0  0  0  0  0
  -10.3713   -8.3615   49.4211 O   0  0  0  0  0  0  0  0  0  0  0  0
   -9.3965   -6.3925   48.0598 O   0  0  0  0  0  0  0  0  0  0  0  0
  -11.7622   -7.0827   47.8000 O   0  0  0  0  0  0  0  0  0  0  0  0
   -8.6436   -6.3464   48.6696 H   0  0  0  0  0  0  0  0  0  0  0  0
  -12.5320   -7.4791   48.2372 H   0  0  0  0  0  0  0  0  0  0  0  0
  -11.0054   -6.0332   50.0165 O   0  0  0  0  0  0  0  0  0  0  0  0
  -12.3650   -5.7364   50.2195 C   0  0  0  0  0  0  0  0  0  0  0  0
  -12.7340   -6.3597   51.5250 C   0  0  0  0  0  0  0  0  0  0  0  0
  -11.7719   -6.9865   52.2677 O   0  0  0  0  0  0  0  0  0  0  0  0
  -13.9849   -6.3395   51.8933 O   0  0  0  0  0  0  0  0  0  0  0  0
  -14.6222   -5.9020   51.3638 H   0  0  0  0  0  0  0  0  0  0  0  0
  1  7  1  0  0  0
  1  2  2  0  0  0
  1  3  1  0  0  0
  1  4  1  0  0  0
  7  8  1  0  0  0
  8  9  1  0  0  0
  9 10  2  0  0  0
  9 11  1  0  0  0
  3  5  1  0  0  0
  4  6  1  0  0  0
 11 12  1  0  0  0
M  END
> <minimizedAffinity>
-4.80194

$$$$
1KV5_PGA_A_1350


 12 11  0  0  0  0  0  0  0  0999 V2000
  -10.3898   -7.3939   48.5920 P   0  0  0  0  0  0  0  0  0  0  0  0
  -10.4618   -8.6979   49.3344 O   0  0  0  0  0  0  0  0  0  0  0  0
   -9.1170   -7.1402   47.7707 O   0  0  0  0  0  0  0  0  0  0  0  0
  -11.5917   -7.2248   47.6758 O   0  0  0  0  0  0  0  0  0  0  0  0
   -8.3387   -7.2439   48.3403 H   0  0  0  0  0  0  0  0  0  0  0  0
  -12.4062   -7.3817   48.1787 H   0  0  0  0  0  0  0  0  0  0  0  0
  -10.4561   -6.2493   49.7605 O   0  0  0  0  0  0  0  0  0  0  0  0
  -11.1360   -5.0492   49.4859 C   0  0  0  0  0  0  0  0  0  0  0  0
  -10.1155   -4.1142   48.9261 C   0  0  0  0  0  0  0  0  0  0  0  0
   -9.1189   -3.6426   49.7351 O   0  0  0  0  0  0  0  0  0  0  0  0
  -10.2401   -3.7251   47.6877 O   0  0  0  0  0  0  0  0  0  0  0  0
  -10.9333   -4.0657   47.1571 H   0  0  0  0  0  0  0  0  0  0  0  0
  1  7  1  0  0  0
  1  2  2  0  0  0
  1  3  1  0  0  0
  1  4  1  0  0  0
  7  8  1  0  0  0
  8  9  1  0  0  0
  9 10  2  0  0  0
  9 11  1  0  0  0
  3  5  1  0  0  0
  4  6  1  0  0  0
 11 12  1  0  0  0
M  END
> <minimizedAffinity>
-4.61210

$$$$
1KV5_PGA_A_1350


 12 11  0  0  0  0  0  0  0  0999 V2000
  -10.3222   -4.1645   49.2519 P   0  0  0  0  0  0  0  0  0  0  0  0
  -11.4048   -3.5024   50.0559 O   0  0  0  0  0  0  0  0  0  0  0  0
  -10.3460   -3.9211   47.7356 O   0  0  0  0  0  0  0  0  0  0  0  0
   -8.9469   -3.7820   49.7760 O   0  0  0  0  0  0  0  0  0  0  0  0
  -11.2176   -4.1603   47.3834 H   0  0  0  0  0  0  0  0  0  0  0  0
   -8.9135   -3.9296   50.7342 H   0  0  0  0  0  0  0  0  0  0  0  0
  -10.5488   -5.7674   49.4952 O   0  0  0  0  0  0  0  0  0  0  0  0
  -11.8040   -6.2051   49.9546 C   0  0  0  0  0  0  0  0  0  0  0  0
  -11.5296   -7.3214   50.9072 C   0  0  0  0  0  0  0  0  0  0  0  0
  -11.1030   -8.5281   50.4256 O   0  0  0  0  0  0  0  0  0  0  0  0
  -11.7639   -7.1294   52.1757 O   0  0  0  0  0  0  0  0  0  0  0  0
  -12.0556   -6.2913   52.4766 H   0  0  0  0  0  0  0  0  0  0  0  0
  1  7  1  0  0  0
  1  2  2  0  0  0
  1  3  1  0  0  0
  1  4  1  0  0  0
  7  8  1  0  0  0
  8  9  1  0  0  0
  9 10  2  0  0  0
  9 11  1  0  0  0
  3  5  1  0  0  0
  4  6  1  0  0  0
 11 12  1  0  0  0
M  END
> <minimizedAffinity>
-4.57298

$$$$
1KV5_PGA_A_1350


 12 11  0  0  0  0  0  0  0  0999 V2000
   -9.7438   -7.8303   48.0993 P   0  0  0  0  0  0  0  0  0  0  0  0
   -9.8253   -8.4986   46.7563 O   0  0  0  0  0  0  0  0  0  0  0  0
  -10.3108   -8.6141   49.2923 O   0  0  0  0  0  0  0  0  0  0  0  0
   -8.3110   -7.4370   48.4230 O   0  0  0  0  0  0  0  0  0  0  0  0
  -11.2260   -8.8736   49.1031 H   0  0  0  0  0  0  0  0  0  0  0  0
   -7.9362   -6.9401   47.6790 H   0  0  0  0  0  0  0  0  0  0  0  0
  -10.6376   -6.4684   47.9377 O   0  0  0  0  0  0  0  0  0  0  0  0
  -10.8312   -5.6550   49.0686 C   0  0  0  0  0  0  0  0  0  0  0  0
  -10.1011   -4.3823   48.7928 C   0  0  0  0  0  0  0  0  0  0  0  0
  -10.2802   -3.7496   47.5937 O   0  0  0  0  0  0  0  0  0  0  0  0
   -9.2618   -3.9394   49.6872 O   0  0  0  0  0  0  0  0  0  0  0  0
   -9.1602   -4.3941   50.5002 H   0  0  0  0  0  0  0  0  0  0  0  0
  1  7  1  0  0  0
  1  2  2  0  0  0
  1  3  1  0  0  0
  1  4  1  0  0  0
  7  8  1  0  0  0
  8  9  1  0  0  0
  9 10  2  0  0  0
  9 11  1  0  0  0
  3  5  1  0  0  0
  4  6  1  0  0  0
 11 12  1  0  0  0
M  END
> <minimizedAffinity>
-4.44232

$$$$
