1KV5_PGA_A_1350
  RCSB PDB12061703073D
Coordinates from PDB:1KV5:A:1350 Model:1 without hydrogens
  9  8  0  0  0  0            999 V2000
  -10.7190   -6.8840   49.1150   P 0  0  0  0  0  0  0  0  0  0  0  0
   -9.3330   -6.9950   48.2510   O 0  0  0  0  0  0  0  0  0  0  0  0
  -10.5790   -7.9230   50.1910   O 0  0  0  0  0  0  0  0  0  0  0  0
  -11.8880   -7.0630   48.1350   O 0  0  0  0  0  0  0  0  0  0  0  0
  -10.8080   -5.4900   49.7160   O 0  0  0  0  0  0  0  0  0  0  0  0
   -8.6610   -8.2300   48.2170   C 0  0  0  0  0  0  0  0  0  0  0  0
   -7.3980   -7.9930   47.4570   C 0  0  0  0  0  0  0  0  0  0  0  0
   -6.2480   -8.6200   47.8500   O 0  0  0  0  0  0  0  0  0  0  0  0
   -7.4160   -7.1420   46.4690   O 0  0  0  0  0  0  0  0  0  0  0  0
  1  2  1  0  0  0  0
  1  3  2  0  0  0  0
  1  4  1  0  0  0  0
  1  5  1  0  0  0  0
  2  6  1  0  0  0  0
  6  7  1  0  0  0  0
  7  8  2  0  0  0  0
  7  9  1  0  0  0  0
A    1
P
A    2
O1P
A    3
O2P
A    4
O3P
A    5
O4P
A    6
C2
A    7
C1
A    8
O1
A    9
O2
M  END
>  <InstanceId>
1KV5_PGA_A_1350

>  <ChemCompId>
PGA

>  <PdbId>
1KV5

>  <ChainId>
A

>  <ResidueNumber>
1350

>  <InsertionCode>


>  <Model>
1

>  <AltIds>


>  <MissingHeavyAtoms>
0

>  <ObservedFormula>
C2 O6 P

>  <Name>
2-PHOSPHOGLYCOLIC ACID

>  <SystematicName>
2-phosphonooxyethanoic acid

>  <Synonyms>


>  <Type>
NON-POLYMER

>  <Formula>
C2 H5 O6 P

>  <MolecularWeight>
156.031

>  <ModifiedDate>
2011-06-04

>  <Parent>


>  <OneLetterCode>


>  <SubcomponentList>


>  <AmbiguousFlag>
N

>  <InChI>
InChI=1S/C2H5O6P/c3-2(4)1-8-9(5,6)7/h1H2,(H,3,4)(H2,5,6,7)

>  <InChIKey>
ASCFNMCAHFUBCO-UHFFFAOYSA-N

>  <SMILES>
C(C(=O)O)OP(=O)(O)O

$$$$
