4C6U_TLG_A_1421


 17 17  0  0  0  0  0  0  0  0999 V2000
  -19.7064   35.4811  -29.7624 S   0  0  0  0  0  0  0  0  0  0  0  0
  -19.1622   33.7326  -31.8320 C   0  0  0  0  0  0  0  0  0  0  0  0
  -18.4172   34.6502  -30.8478 C   0  0  0  0  0  0  0  0  0  0  0  0
  -16.9858   35.4759  -32.6816 O   0  0  0  0  0  0  0  0  0  0  0  0
  -19.3827   37.1441  -30.4119 C   0  0  0  0  0  0  0  0  0  0  0  0
  -20.0289   38.1081  -30.0643 O   0  0  0  0  0  0  0  0  0  0  0  0
  -18.3059   37.0506  -31.4019 C   0  0  0  0  0  0  0  0  0  0  0  0
  -17.8408   35.7870  -31.6845 C   0  0  0  0  0  0  0  0  0  0  0  0
  -16.7167   34.5872  -32.8078 H   0  0  0  0  0  0  0  0  0  0  0  0
  -16.4098   32.4305  -28.2794 C   0  0  0  0  0  0  0  0  0  0  0  0
  -17.5327   32.8774  -29.1754 C   0  0  0  0  0  0  0  0  0  0  0  0
  -17.3841   34.0068  -29.9309 C   0  0  0  0  0  0  0  0  0  0  0  0
  -18.7840   30.8046  -29.8873 C   0  0  0  0  0  0  0  0  0  0  0  0
  -18.6896   31.9599  -29.2717 C   0  0  0  0  0  0  0  0  0  0  0  0
  -17.7380   38.1970  -32.1106 C   0  0  0  0  0  0  0  0  0  0  0  0
  -18.5930   39.3761  -32.4608 C   0  0  0  0  0  0  0  0  0  0  0  0
  -16.5824   38.1451  -32.5392 O   0  0  0  0  0  0  0  0  0  0  0  0
  1  3  1  0  0  0
  1  5  1  0  0  0
 10 11  1  0  0  0
  2  3  1  0  0  0
  3 12  1  0  0  0
  3  8  1  0  0  0
  4  8  1  0  0  0
 13 14  2  0  0  0
 14 11  1  0  0  0
 11 12  2  0  0  0
  5  6  2  0  0  0
  5  7  1  0  0  0
  7 15  1  0  0  0
  7  8  2  0  0  0
 15 16  1  0  0  0
 15 17  2  0  0  0
  4  9  1  0  0  0
M  END
> <minimizedAffinity>
-7.19432

$$$$
4C6U_TLG_A_1421


 17 17  0  0  0  0  0  0  0  0999 V2000
  -19.8260   34.8011  -31.9996 S   0  0  0  0  0  0  0  0  0  0  0  0
  -19.5678   36.3700  -29.7395 C   0  0  0  0  0  0  0  0  0  0  0  0
  -18.7093   35.4708  -30.6450 C   0  0  0  0  0  0  0  0  0  0  0  0
  -17.6777   34.4327  -28.6571 O   0  0  0  0  0  0  0  0  0  0  0  0
  -19.7153   33.0812  -31.4322 C   0  0  0  0  0  0  0  0  0  0  0  0
  -20.3402   32.1876  -31.9601 O   0  0  0  0  0  0  0  0  0  0  0  0
  -18.8303   33.0372  -30.2646 C   0  0  0  0  0  0  0  0  0  0  0  0
  -18.3554   34.2455  -29.8094 C   0  0  0  0  0  0  0  0  0  0  0  0
  -17.3876   35.2911  -28.4184 H   0  0  0  0  0  0  0  0  0  0  0  0
  -16.1599   37.6989  -32.6672 C   0  0  0  0  0  0  0  0  0  0  0  0
  -17.4505   37.2693  -32.0244 C   0  0  0  0  0  0  0  0  0  0  0  0
  -17.4948   36.1018  -31.3149 C   0  0  0  0  0  0  0  0  0  0  0  0
  -18.5302   39.5304  -32.3254 C   0  0  0  0  0  0  0  0  0  0  0  0
  -18.5665   38.2379  -32.1005 C   0  0  0  0  0  0  0  0  0  0  0  0
  -18.4624   31.8114  -29.5569 C   0  0  0  0  0  0  0  0  0  0  0  0
  -17.0228   31.4383  -29.3771 C   0  0  0  0  0  0  0  0  0  0  0  0
  -19.3370   31.0108  -29.2165 O   0  0  0  0  0  0  0  0  0  0  0  0
  1  3  1  0  0  0
  1  5  1  0  0  0
 10 11  1  0  0  0
  2  3  1  0  0  0
  3 12  1  0  0  0
  3  8  1  0  0  0
  4  8  1  0  0  0
 13 14  2  0  0  0
 14 11  1  0  0  0
 11 12  2  0  0  0
  5  6  2  0  0  0
  5  7  1  0  0  0
  7 15  1  0  0  0
  7  8  2  0  0  0
 15 16  1  0  0  0
 15 17  2  0  0  0
  4  9  1  0  0  0
M  END
> <minimizedAffinity>
-7.19035

$$$$
4C6U_TLG_A_1421


 17 17  0  0  0  0  0  0  0  0999 V2000
  -18.3427   35.0833  -28.6452 S   0  0  0  0  0  0  0  0  0  0  0  0
  -19.2228   35.8221  -31.1584 C   0  0  0  0  0  0  0  0  0  0  0  0
  -19.6901   34.9911  -29.9515 C   0  0  0  0  0  0  0  0  0  0  0  0
  -20.4370   33.1899  -31.4651 O   0  0  0  0  0  0  0  0  0  0  0  0
  -17.9193   33.3226  -28.7590 C   0  0  0  0  0  0  0  0  0  0  0  0
  -17.0093   32.8368  -28.1237 O   0  0  0  0  0  0  0  0  0  0  0  0
  -18.8054   32.6984  -29.7457 C   0  0  0  0  0  0  0  0  0  0  0  0
  -19.6722   33.5366  -30.4083 C   0  0  0  0  0  0  0  0  0  0  0  0
  -21.0034   33.8226  -31.8611 H   0  0  0  0  0  0  0  0  0  0  0  0
  -22.6363   36.7434  -28.0013 C   0  0  0  0  0  0  0  0  0  0  0  0
  -21.2904   36.5605  -28.6484 C   0  0  0  0  0  0  0  0  0  0  0  0
  -21.0045   35.3883  -29.2907 C   0  0  0  0  0  0  0  0  0  0  0  0
  -20.6513   38.9662  -28.2322 C   0  0  0  0  0  0  0  0  0  0  0  0
  -20.4071   37.7476  -28.6540 C   0  0  0  0  0  0  0  0  0  0  0  0
  -18.7935   31.2741  -30.0776 C   0  0  0  0  0  0  0  0  0  0  0  0
  -17.5799   30.4388  -29.8070 C   0  0  0  0  0  0  0  0  0  0  0  0
  -19.7357   30.7794  -30.7016 O   0  0  0  0  0  0  0  0  0  0  0  0
  1  3  1  0  0  0
  1  5  1  0  0  0
 10 11  1  0  0  0
  2  3  1  0  0  0
  3 12  1  0  0  0
  3  8  1  0  0  0
  4  8  1  0  0  0
 13 14  2  0  0  0
 14 11  1  0  0  0
 11 12  2  0  0  0
  5  6  2  0  0  0
  5  7  1  0  0  0
  7 15  1  0  0  0
  7  8  2  0  0  0
 15 16  1  0  0  0
 15 17  2  0  0  0
  4  9  1  0  0  0
M  END
> <minimizedAffinity>
-7.05002

$$$$
4C6U_TLG_A_1421


 17 17  0  0  0  0  0  0  0  0999 V2000
  -20.7076   35.1128  -29.1686 S   0  0  0  0  0  0  0  0  0  0  0  0
  -19.8599   35.0454  -31.7980 C   0  0  0  0  0  0  0  0  0  0  0  0
  -19.3553   35.4943  -30.4161 C   0  0  0  0  0  0  0  0  0  0  0  0
  -18.5210   37.6026  -31.3918 O   0  0  0  0  0  0  0  0  0  0  0  0
  -21.0464   36.8557  -28.7949 C   0  0  0  0  0  0  0  0  0  0  0  0
  -21.9332   37.1920  -28.0410 O   0  0  0  0  0  0  0  0  0  0  0  0
  -20.1300   37.6830  -29.5850 C   0  0  0  0  0  0  0  0  0  0  0  0
  -19.3032   37.0174  -30.4603 C   0  0  0  0  0  0  0  0  0  0  0  0
  -17.9849   37.0760  -31.9514 H   0  0  0  0  0  0  0  0  0  0  0  0
  -16.4844   33.1327  -29.0991 C   0  0  0  0  0  0  0  0  0  0  0  0
  -17.8136   33.5486  -29.6680 C   0  0  0  0  0  0  0  0  0  0  0  0
  -18.0624   34.8720  -29.9033 C   0  0  0  0  0  0  0  0  0  0  0  0
  -18.6978   31.1852  -29.7125 C   0  0  0  0  0  0  0  0  0  0  0  0
  -18.7218   32.4495  -30.0640 C   0  0  0  0  0  0  0  0  0  0  0  0
  -20.0735   39.1428  -29.5173 C   0  0  0  0  0  0  0  0  0  0  0  0
  -20.5831   39.8699  -28.3109 C   0  0  0  0  0  0  0  0  0  0  0  0
  -19.7250   39.7921  -30.5067 O   0  0  0  0  0  0  0  0  0  0  0  0
  1  3  1  0  0  0
  1  5  1  0  0  0
 10 11  1  0  0  0
  2  3  1  0  0  0
  3 12  1  0  0  0
  3  8  1  0  0  0
  4  8  1  0  0  0
 13 14  2  0  0  0
 14 11  1  0  0  0
 11 12  2  0  0  0
  5  6  2  0  0  0
  5  7  1  0  0  0
  7 15  1  0  0  0
  7  8  2  0  0  0
 15 16  1  0  0  0
 15 17  2  0  0  0
  4  9  1  0  0  0
M  END
> <minimizedAffinity>
-6.80260

$$$$
4C6U_TLG_A_1421


 17 17  0  0  0  0  0  0  0  0999 V2000
  -18.2317   35.5104  -31.4936 S   0  0  0  0  0  0  0  0  0  0  0  0
  -17.2553   34.0926  -29.3319 C   0  0  0  0  0  0  0  0  0  0  0  0
  -18.5746   34.3055  -30.0932 C   0  0  0  0  0  0  0  0  0  0  0  0
  -19.7881   34.5224  -27.9546 O   0  0  0  0  0  0  0  0  0  0  0  0
  -19.2732   36.8256  -30.8024 C   0  0  0  0  0  0  0  0  0  0  0  0
  -19.3623   37.9164  -31.3219 O   0  0  0  0  0  0  0  0  0  0  0  0
  -19.8743   36.3323  -29.5598 C   0  0  0  0  0  0  0  0  0  0  0  0
  -19.4876   35.0780  -29.1475 C   0  0  0  0  0  0  0  0  0  0  0  0
  -19.4852   33.6596  -27.7500 H   0  0  0  0  0  0  0  0  0  0  0  0
  -19.7196   30.6836  -31.1535 C   0  0  0  0  0  0  0  0  0  0  0  0
  -18.9886   31.7652  -30.4058 C   0  0  0  0  0  0  0  0  0  0  0  0
  -19.2466   33.0765  -30.6930 C   0  0  0  0  0  0  0  0  0  0  0  0
  -16.9752   30.6772  -29.3419 C   0  0  0  0  0  0  0  0  0  0  0  0
  -18.1223   31.3133  -29.2946 C   0  0  0  0  0  0  0  0  0  0  0  0
  -20.8133   37.0970  -28.7399 C   0  0  0  0  0  0  0  0  0  0  0  0
  -20.4626   38.4729  -28.2626 C   0  0  0  0  0  0  0  0  0  0  0  0
  -21.8465   36.5638  -28.3277 O   0  0  0  0  0  0  0  0  0  0  0  0
  1  3  1  0  0  0
  1  5  1  0  0  0
 10 11  1  0  0  0
  2  3  1  0  0  0
  3 12  1  0  0  0
  3  8  1  0  0  0
  4  8  1  0  0  0
 13 14  2  0  0  0
 14 11  1  0  0  0
 11 12  2  0  0  0
  5  6  2  0  0  0
  5  7  1  0  0  0
  7 15  1  0  0  0
  7  8  2  0  0  0
 15 16  1  0  0  0
 15 17  2  0  0  0
  4  9  1  0  0  0
M  END
> <minimizedAffinity>
-6.68376

$$$$
4C6U_TLG_A_1421


 17 17  0  0  0  0  0  0  0  0999 V2000
  -16.7859   34.5115  -30.4601 S   0  0  0  0  0  0  0  0  0  0  0  0
  -17.0149   33.7739  -27.8068 C   0  0  0  0  0  0  0  0  0  0  0  0
  -17.8220   33.7077  -29.1144 C   0  0  0  0  0  0  0  0  0  0  0  0
  -19.8545   34.4241  -27.9108 O   0  0  0  0  0  0  0  0  0  0  0  0
  -17.9210   35.9079  -30.6928 C   0  0  0  0  0  0  0  0  0  0  0  0
  -17.6779   36.8145  -31.4587 O   0  0  0  0  0  0  0  0  0  0  0  0
  -19.0583   35.7335  -29.7847 C   0  0  0  0  0  0  0  0  0  0  0  0
  -19.0015   34.6562  -28.9308 C   0  0  0  0  0  0  0  0  0  0  0  0
  -19.7468   33.6640  -27.3736 H   0  0  0  0  0  0  0  0  0  0  0  0
  -19.5715   30.5939  -30.7869 C   0  0  0  0  0  0  0  0  0  0  0  0
  -19.2741   32.0314  -30.4573 C   0  0  0  0  0  0  0  0  0  0  0  0
  -18.2416   32.3303  -29.6128 C   0  0  0  0  0  0  0  0  0  0  0  0
  -19.9087   33.4717  -32.4302 C   0  0  0  0  0  0  0  0  0  0  0  0
  -20.0597   33.0425  -31.1991 C   0  0  0  0  0  0  0  0  0  0  0  0
  -20.2042   36.6397  -29.7179 C   0  0  0  0  0  0  0  0  0  0  0  0
  -20.3173   37.6448  -28.6130 C   0  0  0  0  0  0  0  0  0  0  0  0
  -21.1496   36.4953  -30.4971 O   0  0  0  0  0  0  0  0  0  0  0  0
  1  3  1  0  0  0
  1  5  1  0  0  0
 10 11  1  0  0  0
  2  3  1  0  0  0
  3 12  1  0  0  0
  3  8  1  0  0  0
  4  8  1  0  0  0
 13 14  2  0  0  0
 14 11  1  0  0  0
 11 12  2  0  0  0
  5  6  2  0  0  0
  5  7  1  0  0  0
  7 15  1  0  0  0
  7  8  2  0  0  0
 15 16  1  0  0  0
 15 17  2  0  0  0
  4  9  1  0  0  0
M  END
> <minimizedAffinity>
-6.38530

$$$$
4C6U_TLG_A_1421


 17 17  0  0  0  0  0  0  0  0999 V2000
  -17.6927   35.1456  -30.2726 S   0  0  0  0  0  0  0  0  0  0  0  0
  -19.5075   33.8857  -31.9326 C   0  0  0  0  0  0  0  0  0  0  0  0
  -19.1683   33.9940  -30.4363 C   0  0  0  0  0  0  0  0  0  0  0  0
  -19.4238   31.5513  -30.1888 O   0  0  0  0  0  0  0  0  0  0  0  0
  -16.5707   33.8490  -29.6793 C   0  0  0  0  0  0  0  0  0  0  0  0
  -15.3979   34.0620  -29.4625 O   0  0  0  0  0  0  0  0  0  0  0  0
  -17.3228   32.5940  -29.5904 C   0  0  0  0  0  0  0  0  0  0  0  0
  -18.6272   32.6288  -30.0264 C   0  0  0  0  0  0  0  0  0  0  0  0
  -20.3040   31.6607  -30.4911 H   0  0  0  0  0  0  0  0  0  0  0  0
  -21.6700   36.1098  -28.2413 C   0  0  0  0  0  0  0  0  0  0  0  0
  -20.5960   35.8036  -29.2493 C   0  0  0  0  0  0  0  0  0  0  0  0
  -20.2597   34.5032  -29.5029 C   0  0  0  0  0  0  0  0  0  0  0  0
  -20.0415   38.2294  -29.6703 C   0  0  0  0  0  0  0  0  0  0  0  0
  -20.0676   36.9607  -30.0053 C   0  0  0  0  0  0  0  0  0  0  0  0
  -16.7637   31.3323  -29.1062 C   0  0  0  0  0  0  0  0  0  0  0  0
  -15.6269   31.3272  -28.1308 C   0  0  0  0  0  0  0  0  0  0  0  0
  -17.1387   30.2643  -29.5967 O   0  0  0  0  0  0  0  0  0  0  0  0
  1  3  1  0  0  0
  1  5  1  0  0  0
 10 11  1  0  0  0
  2  3  1  0  0  0
  3 12  1  0  0  0
  3  8  1  0  0  0
  4  8  1  0  0  0
 13 14  2  0  0  0
 14 11  1  0  0  0
 11 12  2  0  0  0
  5  6  2  0  0  0
  5  7  1  0  0  0
  7 15  1  0  0  0
  7  8  2  0  0  0
 15 16  1  0  0  0
 15 17  2  0  0  0
  4  9  1  0  0  0
M  END
> <minimizedAffinity>
-6.35006

$$$$
4C6U_TLG_A_1421


 17 17  0  0  0  0  0  0  0  0999 V2000
  -18.9926   32.6168  -30.2659 S   0  0  0  0  0  0  0  0  0  0  0  0
  -19.7095   34.4967  -28.3715 C   0  0  0  0  0  0  0  0  0  0  0  0
  -18.5546   34.1924  -29.3407 C   0  0  0  0  0  0  0  0  0  0  0  0
  -16.9154   34.6925  -27.5641 O   0  0  0  0  0  0  0  0  0  0  0  0
  -17.6511   31.6446  -29.5259 C   0  0  0  0  0  0  0  0  0  0  0  0
  -17.5096   30.4635  -29.7553 O   0  0  0  0  0  0  0  0  0  0  0  0
  -16.8905   32.5180  -28.6274 C   0  0  0  0  0  0  0  0  0  0  0  0
  -17.3659   33.7995  -28.4705 C   0  0  0  0  0  0  0  0  0  0  0  0
  -17.2941   35.5485  -27.5215 H   0  0  0  0  0  0  0  0  0  0  0  0
  -18.4581   37.2600  -31.8174 C   0  0  0  0  0  0  0  0  0  0  0  0
  -18.9450   36.3521  -30.7210 C   0  0  0  0  0  0  0  0  0  0  0  0
  -18.2057   35.2557  -30.3749 C   0  0  0  0  0  0  0  0  0  0  0  0
  -20.3136   37.8594  -29.2295 C   0  0  0  0  0  0  0  0  0  0  0  0
  -20.1513   36.8041  -29.9929 C   0  0  0  0  0  0  0  0  0  0  0  0
  -15.7032   32.0993  -27.8833 C   0  0  0  0  0  0  0  0  0  0  0  0
  -14.5917   31.3676  -28.5710 C   0  0  0  0  0  0  0  0  0  0  0  0
  -15.6667   32.2313  -26.6573 O   0  0  0  0  0  0  0  0  0  0  0  0
  1  3  1  0  0  0
  1  5  1  0  0  0
 10 11  1  0  0  0
  2  3  1  0  0  0
  3 12  1  0  0  0
  3  8  1  0  0  0
  4  8  1  0  0  0
 13 14  2  0  0  0
 14 11  1  0  0  0
 11 12  2  0  0  0
  5  6  2  0  0  0
  5  7  1  0  0  0
  7 15  1  0  0  0
  7  8  2  0  0  0
 15 16  1  0  0  0
 15 17  2  0  0  0
  4  9  1  0  0  0
M  END
> <minimizedAffinity>
-6.29062

$$$$
4C6U_TLG_A_1421


 17 17  0  0  0  0  0  0  0  0999 V2000
  -17.2840   34.8200  -29.5656 S   0  0  0  0  0  0  0  0  0  0  0  0
  -17.4619   36.1123  -32.0018 C   0  0  0  0  0  0  0  0  0  0  0  0
  -18.3667   35.6870  -30.8331 C   0  0  0  0  0  0  0  0  0  0  0  0
  -20.0636   34.8687  -32.4282 O   0  0  0  0  0  0  0  0  0  0  0  0
  -18.0691   33.2008  -29.7977 C   0  0  0  0  0  0  0  0  0  0  0  0
  -17.6813   32.2085  -29.2209 O   0  0  0  0  0  0  0  0  0  0  0  0
  -19.1362   33.3444  -30.7924 C   0  0  0  0  0  0  0  0  0  0  0  0
  -19.2671   34.5831  -31.3765 C   0  0  0  0  0  0  0  0  0  0  0  0
  -20.0959   35.7413  -32.7681 H   0  0  0  0  0  0  0  0  0  0  0  0
  -20.8954   37.8446  -28.7107 C   0  0  0  0  0  0  0  0  0  0  0  0
  -20.2232   36.6284  -29.2873 C   0  0  0  0  0  0  0  0  0  0  0  0
  -19.1421   36.7813  -30.1097 C   0  0  0  0  0  0  0  0  0  0  0  0
  -21.7368   35.0600  -28.0152 C   0  0  0  0  0  0  0  0  0  0  0  0
  -20.7165   35.3219  -28.7981 C   0  0  0  0  0  0  0  0  0  0  0  0
  -20.0238   32.2594  -31.2092 C   0  0  0  0  0  0  0  0  0  0  0  0
  -19.7542   30.8485  -30.7842 C   0  0  0  0  0  0  0  0  0  0  0  0
  -20.9268   32.4798  -32.0202 O   0  0  0  0  0  0  0  0  0  0  0  0
  1  3  1  0  0  0
  1  5  1  0  0  0
 10 11  1  0  0  0
  2  3  1  0  0  0
  3 12  1  0  0  0
  3  8  1  0  0  0
  4  8  1  0  0  0
 13 14  2  0  0  0
 14 11  1  0  0  0
 11 12  2  0  0  0
  5  6  2  0  0  0
  5  7  1  0  0  0
  7 15  1  0  0  0
  7  8  2  0  0  0
 15 16  1  0  0  0
 15 17  2  0  0  0
  4  9  1  0  0  0
M  END
> <minimizedAffinity>
-6.03335

$$$$
4C6U_TLG_A_1421


 17 17  0  0  0  0  0  0  0  0999 V2000
  -17.6793   35.5188  -30.6167 S   0  0  0  0  0  0  0  0  0  0  0  0
  -17.5802   34.5452  -28.0323 C   0  0  0  0  0  0  0  0  0  0  0  0
  -17.2136   34.1118  -29.4618 C   0  0  0  0  0  0  0  0  0  0  0  0
  -18.1960   31.8846  -29.0517 O   0  0  0  0  0  0  0  0  0  0  0  0
  -18.9861   34.5813  -31.4567 C   0  0  0  0  0  0  0  0  0  0  0  0
  -19.6889   35.0784  -32.3090 O   0  0  0  0  0  0  0  0  0  0  0  0
  -19.0309   33.2347  -30.8793 C   0  0  0  0  0  0  0  0  0  0  0  0
  -18.1819   32.9914  -29.8244 C   0  0  0  0  0  0  0  0  0  0  0  0
  -17.5815   31.7954  -28.3500 H   0  0  0  0  0  0  0  0  0  0  0  0
  -13.4502   32.9422  -29.3120 C   0  0  0  0  0  0  0  0  0  0  0  0
  -14.8718   33.1668  -28.8740 C   0  0  0  0  0  0  0  0  0  0  0  0
  -15.7591   33.7493  -29.7355 C   0  0  0  0  0  0  0  0  0  0  0  0
  -14.9642   31.4227  -27.0522 C   0  0  0  0  0  0  0  0  0  0  0  0
  -15.2415   32.6020  -27.5572 C   0  0  0  0  0  0  0  0  0  0  0  0
  -19.9309   32.1748  -31.3326 C   0  0  0  0  0  0  0  0  0  0  0  0
  -19.6813   30.7481  -30.9503 C   0  0  0  0  0  0  0  0  0  0  0  0
  -20.8277   32.4318  -32.1397 O   0  0  0  0  0  0  0  0  0  0  0  0
  1  3  1  0  0  0
  1  5  1  0  0  0
 10 11  1  0  0  0
  2  3  1  0  0  0
  3 12  1  0  0  0
  3  8  1  0  0  0
  4  8  1  0  0  0
 13 14  2  0  0  0
 14 11  1  0  0  0
 11 12  2  0  0  0
  5  6  2  0  0  0
  5  7  1  0  0  0
  7 15  1  0  0  0
  7  8  2  0  0  0
 15 16  1  0  0  0
 15 17  2  0  0  0
  4  9  1  0  0  0
M  END
> <minimizedAffinity>
-5.78025

$$$$
