2X7T_WZB_A_1261


 34 37  0  0  0  0  0  0  0  0999 V2000
    1.5818    6.6620   11.2710 C   0  0  0  0  0  0  0  0  0  0  0  0
    1.2614    8.1523   11.5447 C   0  0  0  0  0  0  0  0  0  0  0  0
    0.0391    8.1340   12.4842 C   0  0  0  0  0  0  0  0  0  0  0  0
    0.2232    5.9658   11.3396 C   0  0  0  0  0  0  0  0  0  0  0  0
   -0.1436    6.6220   12.6956 C   0  0  0  0  0  0  0  0  0  0  0  0
   -0.6293    6.3877   10.0837 C   0  0  0  0  0  0  0  0  0  0  0  0
    0.1620    4.4201   11.4282 C   0  0  0  0  0  0  0  0  0  0  0  0
   -1.1475    3.8870   12.0628 C   0  0  0  0  0  0  0  0  0  0  0  0
   -1.4623    4.5968   13.4076 C   0  0  0  0  0  0  0  0  0  0  0  0
   -1.5391    6.1701   13.2432 C   0  0  0  0  0  0  0  0  0  0  0  0
   -1.8840    6.8531   14.5980 C   0  0  0  0  0  0  0  0  0  0  0  0
   -3.2990    6.4184   15.0899 C   0  0  0  0  0  0  0  0  0  0  0  0
   -3.6116    4.9355   14.8458 C   0  0  0  0  0  0  0  0  0  0  0  0
   -4.8077    4.3612   15.4338 C   0  0  0  0  0  0  0  0  0  0  0  0
   -2.7448    4.0799   14.0472 C   0  0  0  0  0  0  0  0  0  0  0  0
   -3.2871    2.8873   14.0504 C   0  0  0  0  0  0  0  0  0  0  0  0
   -4.2787    2.1271   14.4595 C   0  0  0  0  0  0  0  0  0  0  0  0
   -5.1576    2.9739   15.2556 C   0  0  0  0  0  0  0  0  0  0  0  0
   -4.4976    0.6431   14.1818 C   0  0  0  0  0  0  0  0  0  0  0  0
   -4.1447    0.3720   12.7250 C   0  0  0  0  0  0  0  0  0  0  0  0
    2.2504    6.4752   10.0122 O   0  0  0  0  0  0  0  0  0  0  0  0
    4.3082    5.8732    8.7834 O   0  0  0  0  0  0  0  0  0  0  0  0
    3.4586    5.3742    9.8539 S   0  0  0  0  0  0  0  0  0  0  0  0
    2.9486    4.0745    9.5741 O   0  0  0  0  0  0  0  0  0  0  0  0
    4.1793    5.2935   11.1926 N   0  0  0  0  0  0  0  0  0  0  0  0
    4.9390    4.6158   11.1294 H   0  0  0  0  0  0  0  0  0  0  0  0
    3.5219    5.0009   11.9156 H   0  0  0  0  0  0  0  0  0  0  0  0
   -6.3156    2.4957   15.8571 O   0  0  0  0  0  0  0  0  0  0  0  0
   -6.2344    1.8747   17.3867 S   0  0  0  0  0  0  0  0  0  0  0  0
   -7.4562    1.0693   17.6200 O   0  0  0  0  0  0  0  0  0  0  0  0
   -6.1937    2.9732   18.3776 O   0  0  0  0  0  0  0  0  0  0  0  0
   -4.9968    0.9998   17.5852 N   0  0  0  0  0  0  0  0  0  0  0  0
   -5.0083    0.2361   16.9093 H   0  0  0  0  0  0  0  0  0  0  0  0
   -4.9991    0.6172   18.5307 H   0  0  0  0  0  0  0  0  0  0  0  0
 22 23  2  0  0  0
 23 24  2  0  0  0
 23 25  1  0  0  0
 23 21  1  0  0  0
 21  1  1  0  0  0
  1  2  1  0  0  0
  1  4  1  0  0  0
  2  3  1  0  0  0
  3  5  1  0  0  0
  4  5  1  0  0  0
  4  6  1  0  0  0
  4  7  1  0  0  0
  5 10  1  0  0  0
  7  8  1  0  0  0
  8  9  1  0  0  0
  9 10  1  0  0  0
  9 15  1  0  0  0
 10 11  1  0  0  0
 11 12  1  0  0  0
 12 13  1  0  0  0
 13 14  2  0  0  0
 13 15  1  0  0  0
 14 18  1  0  0  0
 15 16  2  0  0  0
 16 17  1  0  0  0
 17 19  1  0  0  0
 17 18  2  0  0  0
 19 20  1  0  0  0
 18 28  1  0  0  0
 28 29  1  0  0  0
 29 30  2  0  0  0
 29 31  2  0  0  0
 29 32  1  0  0  0
 25 26  1  0  0  0
 25 27  1  0  0  0
 32 33  1  0  0  0
 32 34  1  0  0  0
M  END
> <minimizedAffinity>
-8.26931

$$$$
2X7T_WZB_A_1261


 34 37  0  0  0  0  0  0  0  0999 V2000
   -4.3134    2.7289   14.1549 C   0  0  0  0  0  0  0  0  0  0  0  0
   -4.8490    2.3618   12.7489 C   0  0  0  0  0  0  0  0  0  0  0  0
   -4.4160    3.5274   11.8375 C   0  0  0  0  0  0  0  0  0  0  0  0
   -4.3493    4.2563   14.1846 C   0  0  0  0  0  0  0  0  0  0  0  0
   -3.6129    4.3881   12.8266 C   0  0  0  0  0  0  0  0  0  0  0  0
   -5.8511    4.7296   14.2361 C   0  0  0  0  0  0  0  0  0  0  0  0
   -3.5981    5.0151   15.3076 C   0  0  0  0  0  0  0  0  0  0  0  0
   -3.2163    6.4677   14.9258 C   0  0  0  0  0  0  0  0  0  0  0  0
   -2.4977    6.5282   13.5505 C   0  0  0  0  0  0  0  0  0  0  0  0
   -3.3665    5.8741   12.3991 C   0  0  0  0  0  0  0  0  0  0  0  0
   -2.6366    5.9742   11.0287 C   0  0  0  0  0  0  0  0  0  0  0  0
   -2.4506    7.4656   10.6109 C   0  0  0  0  0  0  0  0  0  0  0  0
   -2.0829    8.3945   11.7764 C   0  0  0  0  0  0  0  0  0  0  0  0
   -1.6877    9.7614   11.4906 C   0  0  0  0  0  0  0  0  0  0  0  0
   -2.1109    7.9499   13.1630 C   0  0  0  0  0  0  0  0  0  0  0  0
   -1.7343    8.9706   13.8929 C   0  0  0  0  0  0  0  0  0  0  0  0
   -1.3450   10.2262   13.9169 C   0  0  0  0  0  0  0  0  0  0  0  0
   -1.3187   10.6853   12.5342 C   0  0  0  0  0  0  0  0  0  0  0  0
   -0.9769   11.0697   15.1336 C   0  0  0  0  0  0  0  0  0  0  0  0
    0.3239   10.5299   15.7140 C   0  0  0  0  0  0  0  0  0  0  0  0
   -5.0888    2.1242   15.2036 O   0  0  0  0  0  0  0  0  0  0  0  0
   -3.0636    1.4910   16.4703 O   0  0  0  0  0  0  0  0  0  0  0  0
   -4.4183    1.0228   16.2205 S   0  0  0  0  0  0  0  0  0  0  0  0
   -4.4402   -0.2867   15.6615 O   0  0  0  0  0  0  0  0  0  0  0  0
   -5.2734    0.9860   17.4798 N   0  0  0  0  0  0  0  0  0  0  0  0
   -4.8836    0.3092   18.1358 H   0  0  0  0  0  0  0  0  0  0  0  0
   -6.2258    0.7139   17.2362 H   0  0  0  0  0  0  0  0  0  0  0  0
   -0.9441   11.9759   12.1803 O   0  0  0  0  0  0  0  0  0  0  0  0
   -2.1146   13.1046   11.8841 S   0  0  0  0  0  0  0  0  0  0  0  0
   -1.6694   14.3913   12.4688 O   0  0  0  0  0  0  0  0  0  0  0  0
   -3.3822   12.7018   12.5329 O   0  0  0  0  0  0  0  0  0  0  0  0
   -2.3737   13.2826   10.3882 N   0  0  0  0  0  0  0  0  0  0  0  0
   -1.5091   13.5608    9.9240 H   0  0  0  0  0  0  0  0  0  0  0  0
   -3.0814   14.0038   10.2492 H   0  0  0  0  0  0  0  0  0  0  0  0
 22 23  2  0  0  0
 23 24  2  0  0  0
 23 25  1  0  0  0
 23 21  1  0  0  0
 21  1  1  0  0  0
  1  2  1  0  0  0
  1  4  1  0  0  0
  2  3  1  0  0  0
  3  5  1  0  0  0
  4  5  1  0  0  0
  4  6  1  0  0  0
  4  7  1  0  0  0
  5 10  1  0  0  0
  7  8  1  0  0  0
  8  9  1  0  0  0
  9 10  1  0  0  0
  9 15  1  0  0  0
 10 11  1  0  0  0
 11 12  1  0  0  0
 12 13  1  0  0  0
 13 14  2  0  0  0
 13 15  1  0  0  0
 14 18  1  0  0  0
 15 16  2  0  0  0
 16 17  1  0  0  0
 17 19  1  0  0  0
 17 18  2  0  0  0
 19 20  1  0  0  0
 18 28  1  0  0  0
 28 29  1  0  0  0
 29 30  2  0  0  0
 29 31  2  0  0  0
 29 32  1  0  0  0
 25 26  1  0  0  0
 25 27  1  0  0  0
 32 33  1  0  0  0
 32 34  1  0  0  0
M  END
> <minimizedAffinity>
-8.07560

$$$$
2X7T_WZB_A_1261


 34 37  0  0  0  0  0  0  0  0999 V2000
   -4.7000    2.3309   15.1116 C   0  0  0  0  0  0  0  0  0  0  0  0
   -4.4317    1.4775   13.8473 C   0  0  0  0  0  0  0  0  0  0  0  0
   -3.3991    2.2814   13.0322 C   0  0  0  0  0  0  0  0  0  0  0  0
   -4.5112    3.7722   14.6402 C   0  0  0  0  0  0  0  0  0  0  0  0
   -3.1439    3.4689   13.9751 C   0  0  0  0  0  0  0  0  0  0  0  0
   -5.7045    4.1565   13.6861 C   0  0  0  0  0  0  0  0  0  0  0  0
   -4.3873    4.9072   15.6879 C   0  0  0  0  0  0  0  0  0  0  0  0
   -3.6415    6.1589   15.1602 C   0  0  0  0  0  0  0  0  0  0  0  0
   -2.2905    5.7819   14.4938 C   0  0  0  0  0  0  0  0  0  0  0  0
   -2.4797    4.7293   13.3257 C   0  0  0  0  0  0  0  0  0  0  0  0
   -1.1159    4.3917   12.6572 C   0  0  0  0  0  0  0  0  0  0  0  0
   -0.5059    5.6574   11.9795 C   0  0  0  0  0  0  0  0  0  0  0  0
   -0.6952    6.9468   12.7907 C   0  0  0  0  0  0  0  0  0  0  0  0
   -0.0039    8.1518   12.3706 C   0  0  0  0  0  0  0  0  0  0  0  0
   -1.5422    7.0030   13.9742 C   0  0  0  0  0  0  0  0  0  0  0  0
   -1.4727    8.2299   14.4285 C   0  0  0  0  0  0  0  0  0  0  0  0
   -0.9720    9.4360   14.2768 C   0  0  0  0  0  0  0  0  0  0  0  0
   -0.1265    9.3948   13.0908 C   0  0  0  0  0  0  0  0  0  0  0  0
   -1.2021   10.6629   15.1538 C   0  0  0  0  0  0  0  0  0  0  0  0
   -2.0984   11.6325   14.3943 C   0  0  0  0  0  0  0  0  0  0  0  0
   -6.0034    2.0826   15.6648 O   0  0  0  0  0  0  0  0  0  0  0  0
   -7.5432    1.1138   17.3373 O   0  0  0  0  0  0  0  0  0  0  0  0
   -6.1807    1.6124   17.2282 S   0  0  0  0  0  0  0  0  0  0  0  0
   -5.9270    2.6855   18.1292 O   0  0  0  0  0  0  0  0  0  0  0  0
   -5.1346    0.5408   17.5028 N   0  0  0  0  0  0  0  0  0  0  0  0
   -5.2169    0.2250   18.4692 H   0  0  0  0  0  0  0  0  0  0  0  0
   -4.2033    0.9275   17.3496 H   0  0  0  0  0  0  0  0  0  0  0  0
    0.5734   10.5037   12.6307 O   0  0  0  0  0  0  0  0  0  0  0  0
    2.0490   10.8571   13.2862 S   0  0  0  0  0  0  0  0  0  0  0  0
    1.8969   12.0618   14.1356 O   0  0  0  0  0  0  0  0  0  0  0  0
    3.0224   11.1540   12.2116 O   0  0  0  0  0  0  0  0  0  0  0  0
    2.5947    9.7022   14.1258 N   0  0  0  0  0  0  0  0  0  0  0  0
    1.9353    9.4837   14.8727 H   0  0  0  0  0  0  0  0  0  0  0  0
    3.4912    9.9707   14.5315 H   0  0  0  0  0  0  0  0  0  0  0  0
 22 23  2  0  0  0
 23 24  2  0  0  0
 23 25  1  0  0  0
 23 21  1  0  0  0
 21  1  1  0  0  0
  1  2  1  0  0  0
  1  4  1  0  0  0
  2  3  1  0  0  0
  3  5  1  0  0  0
  4  5  1  0  0  0
  4  6  1  0  0  0
  4  7  1  0  0  0
  5 10  1  0  0  0
  7  8  1  0  0  0
  8  9  1  0  0  0
  9 10  1  0  0  0
  9 15  1  0  0  0
 10 11  1  0  0  0
 11 12  1  0  0  0
 12 13  1  0  0  0
 13 14  2  0  0  0
 13 15  1  0  0  0
 14 18  1  0  0  0
 15 16  2  0  0  0
 16 17  1  0  0  0
 17 19  1  0  0  0
 17 18  2  0  0  0
 19 20  1  0  0  0
 18 28  1  0  0  0
 28 29  1  0  0  0
 29 30  2  0  0  0
 29 31  2  0  0  0
 29 32  1  0  0  0
 25 26  1  0  0  0
 25 27  1  0  0  0
 32 33  1  0  0  0
 32 34  1  0  0  0
M  END
> <minimizedAffinity>
-7.93167

$$$$
2X7T_WZB_A_1261


 34 37  0  0  0  0  0  0  0  0999 V2000
    2.4155    6.6065    9.8558 C   0  0  0  0  0  0  0  0  0  0  0  0
    2.9843    5.3808    9.0991 C   0  0  0  0  0  0  0  0  0  0  0  0
    2.0068    4.2294    9.4081 C   0  0  0  0  0  0  0  0  0  0  0  0
    1.7324    6.0070   11.0842 C   0  0  0  0  0  0  0  0  0  0  0  0
    0.9483    4.9630   10.2481 C   0  0  0  0  0  0  0  0  0  0  0  0
    2.8370    5.4589   12.0647 C   0  0  0  0  0  0  0  0  0  0  0  0
    0.7746    6.8849   11.9287 C   0  0  0  0  0  0  0  0  0  0  0  0
   -0.2638    6.0675   12.7380 C   0  0  0  0  0  0  0  0  0  0  0  0
   -0.9996    5.0322   11.8445 C   0  0  0  0  0  0  0  0  0  0  0  0
    0.0111    4.0557   11.1142 C   0  0  0  0  0  0  0  0  0  0  0  0
   -0.7530    3.0118   10.2499 C   0  0  0  0  0  0  0  0  0  0  0  0
   -1.6389    2.0947   11.1484 C   0  0  0  0  0  0  0  0  0  0  0  0
   -2.3361    2.8385   12.2960 C   0  0  0  0  0  0  0  0  0  0  0  0
   -3.3410    2.1431   13.0790 C   0  0  0  0  0  0  0  0  0  0  0  0
   -2.0283    4.2235   12.6248 C   0  0  0  0  0  0  0  0  0  0  0  0
   -2.7998    4.5515   13.6316 C   0  0  0  0  0  0  0  0  0  0  0  0
   -3.7306    4.1705   14.4783 C   0  0  0  0  0  0  0  0  0  0  0  0
   -4.0435    2.7826   14.1636 C   0  0  0  0  0  0  0  0  0  0  0  0
   -4.3853    4.9936   15.5834 C   0  0  0  0  0  0  0  0  0  0  0  0
   -5.8690    5.1272   15.2651 C   0  0  0  0  0  0  0  0  0  0  0  0
    3.4391    7.5602   10.1866 O   0  0  0  0  0  0  0  0  0  0  0  0
    1.8492    9.2990    9.4413 O   0  0  0  0  0  0  0  0  0  0  0  0
    3.1651    9.1735   10.0491 S   0  0  0  0  0  0  0  0  0  0  0  0
    4.1771    9.8122    9.2772 O   0  0  0  0  0  0  0  0  0  0  0  0
    3.2291    9.7673   11.4497 N   0  0  0  0  0  0  0  0  0  0  0  0
    3.0626   10.7724   11.4008 H   0  0  0  0  0  0  0  0  0  0  0  0
    4.1511    9.5945   11.8504 H   0  0  0  0  0  0  0  0  0  0  0  0
   -4.9982    2.0529   14.8618 O   0  0  0  0  0  0  0  0  0  0  0  0
   -4.5321    1.1543   16.1684 S   0  0  0  0  0  0  0  0  0  0  0  0
   -3.1147    1.4720   16.4614 O   0  0  0  0  0  0  0  0  0  0  0  0
   -4.6402   -0.2881   15.8555 O   0  0  0  0  0  0  0  0  0  0  0  0
   -5.3892    1.4463   17.4000 N   0  0  0  0  0  0  0  0  0  0  0  0
   -5.3265    2.4379   17.6305 H   0  0  0  0  0  0  0  0  0  0  0  0
   -5.0527    0.8922   18.1875 H   0  0  0  0  0  0  0  0  0  0  0  0
 22 23  2  0  0  0
 23 24  2  0  0  0
 23 25  1  0  0  0
 23 21  1  0  0  0
 21  1  1  0  0  0
  1  2  1  0  0  0
  1  4  1  0  0  0
  2  3  1  0  0  0
  3  5  1  0  0  0
  4  5  1  0  0  0
  4  6  1  0  0  0
  4  7  1  0  0  0
  5 10  1  0  0  0
  7  8  1  0  0  0
  8  9  1  0  0  0
  9 10  1  0  0  0
  9 15  1  0  0  0
 10 11  1  0  0  0
 11 12  1  0  0  0
 12 13  1  0  0  0
 13 14  2  0  0  0
 13 15  1  0  0  0
 14 18  1  0  0  0
 15 16  2  0  0  0
 16 17  1  0  0  0
 17 19  1  0  0  0
 17 18  2  0  0  0
 19 20  1  0  0  0
 18 28  1  0  0  0
 28 29  1  0  0  0
 29 30  2  0  0  0
 29 31  2  0  0  0
 29 32  1  0  0  0
 25 26  1  0  0  0
 25 27  1  0  0  0
 32 33  1  0  0  0
 32 34  1  0  0  0
M  END
> <minimizedAffinity>
-7.92977

$$$$
2X7T_WZB_A_1261


 34 37  0  0  0  0  0  0  0  0999 V2000
   -5.0181    3.4196   14.5904 C   0  0  0  0  0  0  0  0  0  0  0  0
   -6.3898    3.7792   13.9676 C   0  0  0  0  0  0  0  0  0  0  0  0
   -6.1462    5.0870   13.1883 C   0  0  0  0  0  0  0  0  0  0  0  0
   -4.3509    4.7719   14.8382 C   0  0  0  0  0  0  0  0  0  0  0  0
   -4.6349    5.2752   13.3995 C   0  0  0  0  0  0  0  0  0  0  0  0
   -5.1011    5.5018   16.0157 C   0  0  0  0  0  0  0  0  0  0  0  0
   -2.8371    4.8269   15.1645 C   0  0  0  0  0  0  0  0  0  0  0  0
   -2.1782    6.1869   14.8214 C   0  0  0  0  0  0  0  0  0  0  0  0
   -2.5159    6.6379   13.3744 C   0  0  0  0  0  0  0  0  0  0  0  0
   -4.0785    6.7131   13.1270 C   0  0  0  0  0  0  0  0  0  0  0  0
   -4.3883    7.1948   11.6803 C   0  0  0  0  0  0  0  0  0  0  0  0
   -3.8634    8.6469   11.4586 C   0  0  0  0  0  0  0  0  0  0  0  0
   -2.5016    8.9202   12.1121 C   0  0  0  0  0  0  0  0  0  0  0  0
   -1.8132   10.1625   11.8136 C   0  0  0  0  0  0  0  0  0  0  0  0
   -1.8708    7.9717   13.0197 C   0  0  0  0  0  0  0  0  0  0  0  0
   -0.7282    8.5006   13.3818 C   0  0  0  0  0  0  0  0  0  0  0  0
    0.0961    9.5201   13.2841 C   0  0  0  0  0  0  0  0  0  0  0  0
   -0.5270   10.4803   12.3824 C   0  0  0  0  0  0  0  0  0  0  0  0
    1.4517    9.6969   13.9610 C   0  0  0  0  0  0  0  0  0  0  0  0
    1.2387   10.4478   15.2692 C   0  0  0  0  0  0  0  0  0  0  0  0
   -5.1566    2.6298   15.7835 O   0  0  0  0  0  0  0  0  0  0  0  0
   -3.0540    1.5133   16.4463 O   0  0  0  0  0  0  0  0  0  0  0  0
   -4.3788    1.1918   15.9382 S   0  0  0  0  0  0  0  0  0  0  0  0
   -4.3242    0.4907   14.6999 O   0  0  0  0  0  0  0  0  0  0  0  0
   -5.1905    0.3363   16.9013 N   0  0  0  0  0  0  0  0  0  0  0  0
   -4.7338   -0.5678   17.0206 H   0  0  0  0  0  0  0  0  0  0  0  0
   -6.1280    0.1966   16.5246 H   0  0  0  0  0  0  0  0  0  0  0  0
    0.0728   11.6869   12.0420 O   0  0  0  0  0  0  0  0  0  0  0  0
   -0.2996   13.0463   12.9052 S   0  0  0  0  0  0  0  0  0  0  0  0
    0.9605   13.6014   13.4527 O   0  0  0  0  0  0  0  0  0  0  0  0
   -1.1950   12.7012   14.0318 O   0  0  0  0  0  0  0  0  0  0  0  0
   -0.9935   14.1007   12.0430 N   0  0  0  0  0  0  0  0  0  0  0  0
   -0.3894   14.3509   11.2601 H   0  0  0  0  0  0  0  0  0  0  0  0
   -1.1816   14.9302   12.6060 H   0  0  0  0  0  0  0  0  0  0  0  0
 22 23  2  0  0  0
 23 24  2  0  0  0
 23 25  1  0  0  0
 23 21  1  0  0  0
 21  1  1  0  0  0
  1  2  1  0  0  0
  1  4  1  0  0  0
  2  3  1  0  0  0
  3  5  1  0  0  0
  4  5  1  0  0  0
  4  6  1  0  0  0
  4  7  1  0  0  0
  5 10  1  0  0  0
  7  8  1  0  0  0
  8  9  1  0  0  0
  9 10  1  0  0  0
  9 15  1  0  0  0
 10 11  1  0  0  0
 11 12  1  0  0  0
 12 13  1  0  0  0
 13 14  2  0  0  0
 13 15  1  0  0  0
 14 18  1  0  0  0
 15 16  2  0  0  0
 16 17  1  0  0  0
 17 19  1  0  0  0
 17 18  2  0  0  0
 19 20  1  0  0  0
 18 28  1  0  0  0
 28 29  1  0  0  0
 29 30  2  0  0  0
 29 31  2  0  0  0
 29 32  1  0  0  0
 25 26  1  0  0  0
 25 27  1  0  0  0
 32 33  1  0  0  0
 32 34  1  0  0  0
M  END
> <minimizedAffinity>
-7.63474

$$$$
2X7T_WZB_A_1261


 34 37  0  0  0  0  0  0  0  0999 V2000
   -4.3399    2.7174   14.0830 C   0  0  0  0  0  0  0  0  0  0  0  0
   -4.8156    2.3584   12.6535 C   0  0  0  0  0  0  0  0  0  0  0  0
   -4.3270    3.5194   11.7646 C   0  0  0  0  0  0  0  0  0  0  0  0
   -4.3579    4.2451   14.1135 C   0  0  0  0  0  0  0  0  0  0  0  0
   -3.5590    4.3689   12.7906 C   0  0  0  0  0  0  0  0  0  0  0  0
   -5.8544    4.7372   14.0975 C   0  0  0  0  0  0  0  0  0  0  0  0
   -3.6490    4.9932   15.2706 C   0  0  0  0  0  0  0  0  0  0  0  0
   -3.2321    6.4412   14.9089 C   0  0  0  0  0  0  0  0  0  0  0  0
   -2.4511    6.4941   13.5677 C   0  0  0  0  0  0  0  0  0  0  0  0
   -3.2748    5.8521   12.3770 C   0  0  0  0  0  0  0  0  0  0  0  0
   -2.4822    5.9444   11.0414 C   0  0  0  0  0  0  0  0  0  0  0  0
   -2.2587    7.4338   10.6348 C   0  0  0  0  0  0  0  0  0  0  0  0
   -1.9327    8.3568   11.8172 C   0  0  0  0  0  0  0  0  0  0  0  0
   -1.5079    9.7189   11.5518 C   0  0  0  0  0  0  0  0  0  0  0  0
   -2.0293    7.9112   13.2005 C   0  0  0  0  0  0  0  0  0  0  0  0
   -1.6735    8.9264   13.9483 C   0  0  0  0  0  0  0  0  0  0  0  0
   -1.2699   10.1769   13.9919 C   0  0  0  0  0  0  0  0  0  0  0  0
   -1.1751   10.6370   12.6126 C   0  0  0  0  0  0  0  0  0  0  0  0
   -0.9470   11.0145   15.2253 C   0  0  0  0  0  0  0  0  0  0  0  0
    0.4167   10.5854   15.7512 C   0  0  0  0  0  0  0  0  0  0  0  0
   -5.1696    2.1214   15.0944 O   0  0  0  0  0  0  0  0  0  0  0  0
   -4.5982   -0.2011   15.7160 O   0  0  0  0  0  0  0  0  0  0  0  0
   -4.5242    1.1501   16.2506 S   0  0  0  0  0  0  0  0  0  0  0  0
   -5.2174    1.2776   17.4879 O   0  0  0  0  0  0  0  0  0  0  0  0
   -3.0939    1.6146   16.4891 N   0  0  0  0  0  0  0  0  0  0  0  0
   -2.6616    1.0302   17.2047 H   0  0  0  0  0  0  0  0  0  0  0  0
   -3.0994    2.5857   16.8008 H   0  0  0  0  0  0  0  0  0  0  0  0
   -0.7686   11.9232   12.2781 O   0  0  0  0  0  0  0  0  0  0  0  0
    0.7894   12.1764   11.7879 S   0  0  0  0  0  0  0  0  0  0  0  0
    1.6417   11.1389   12.4147 O   0  0  0  0  0  0  0  0  0  0  0  0
    1.2524   13.5074   12.2398 O   0  0  0  0  0  0  0  0  0  0  0  0
    0.9303   12.1073   10.2674 N   0  0  0  0  0  0  0  0  0  0  0  0
    0.6152   11.1949    9.9379 H   0  0  0  0  0  0  0  0  0  0  0  0
    1.9080   12.2426   10.0101 H   0  0  0  0  0  0  0  0  0  0  0  0
 22 23  2  0  0  0
 23 24  2  0  0  0
 23 25  1  0  0  0
 23 21  1  0  0  0
 21  1  1  0  0  0
  1  2  1  0  0  0
  1  4  1  0  0  0
  2  3  1  0  0  0
  3  5  1  0  0  0
  4  5  1  0  0  0
  4  6  1  0  0  0
  4  7  1  0  0  0
  5 10  1  0  0  0
  7  8  1  0  0  0
  8  9  1  0  0  0
  9 10  1  0  0  0
  9 15  1  0  0  0
 10 11  1  0  0  0
 11 12  1  0  0  0
 12 13  1  0  0  0
 13 14  2  0  0  0
 13 15  1  0  0  0
 14 18  1  0  0  0
 15 16  2  0  0  0
 16 17  1  0  0  0
 17 19  1  0  0  0
 17 18  2  0  0  0
 19 20  1  0  0  0
 18 28  1  0  0  0
 28 29  1  0  0  0
 29 30  2  0  0  0
 29 31  2  0  0  0
 29 32  1  0  0  0
 25 26  1  0  0  0
 25 27  1  0  0  0
 32 33  1  0  0  0
 32 34  1  0  0  0
M  END
> <minimizedAffinity>
-7.63233

$$$$
2X7T_WZB_A_1261


 34 37  0  0  0  0  0  0  0  0999 V2000
    0.3916   12.2507   14.1628 C   0  0  0  0  0  0  0  0  0  0  0  0
    1.7837   11.9741   13.5429 C   0  0  0  0  0  0  0  0  0  0  0  0
    1.7553   10.4860   13.1406 C   0  0  0  0  0  0  0  0  0  0  0  0
   -0.0100   10.9192   14.7962 C   0  0  0  0  0  0  0  0  0  0  0  0
    0.3114   10.1108   13.5128 C   0  0  0  0  0  0  0  0  0  0  0  0
    0.9001   10.6592   16.0555 C   0  0  0  0  0  0  0  0  0  0  0  0
   -1.4765   10.7003   15.2460 C   0  0  0  0  0  0  0  0  0  0  0  0
   -1.8887    9.2079   15.3108 C   0  0  0  0  0  0  0  0  0  0  0  0
   -1.5243    8.4559   14.0019 C   0  0  0  0  0  0  0  0  0  0  0  0
    0.0165    8.5799   13.6570 C   0  0  0  0  0  0  0  0  0  0  0  0
    0.3590    7.7942   12.3585 C   0  0  0  0  0  0  0  0  0  0  0  0
    0.0994    6.2683   12.5527 C   0  0  0  0  0  0  0  0  0  0  0  0
   -1.1670    5.9531   13.3610 C   0  0  0  0  0  0  0  0  0  0  0  0
   -1.6280    4.5793   13.4415 C   0  0  0  0  0  0  0  0  0  0  0  0
   -1.9281    6.9877   14.0477 C   0  0  0  0  0  0  0  0  0  0  0  0
   -2.9426    6.3896   14.6218 C   0  0  0  0  0  0  0  0  0  0  0  0
   -3.5708    5.2576   14.8507 C   0  0  0  0  0  0  0  0  0  0  0  0
   -2.8149    4.2122   14.1732 C   0  0  0  0  0  0  0  0  0  0  0  0
   -4.8478    5.0413   15.6567 C   0  0  0  0  0  0  0  0  0  0  0  0
   -6.0197    4.9700   14.6861 C   0  0  0  0  0  0  0  0  0  0  0  0
    0.4250   13.3374   15.1032 O   0  0  0  0  0  0  0  0  0  0  0  0
   -0.7948   14.8372   13.5639 O   0  0  0  0  0  0  0  0  0  0  0  0
    0.2183   14.8891   14.6069 S   0  0  0  0  0  0  0  0  0  0  0  0
    1.4390   15.4571   14.1431 O   0  0  0  0  0  0  0  0  0  0  0  0
   -0.2206   15.7001   15.8185 N   0  0  0  0  0  0  0  0  0  0  0  0
   -0.3586   16.6729   15.5446 H   0  0  0  0  0  0  0  0  0  0  0  0
    0.4981   15.6488   16.5404 H   0  0  0  0  0  0  0  0  0  0  0  0
   -3.1968    2.8762   14.1972 O   0  0  0  0  0  0  0  0  0  0  0  0
   -3.5515    2.1115   12.7755 S   0  0  0  0  0  0  0  0  0  0  0  0
   -4.4331    0.9604   13.0814 O   0  0  0  0  0  0  0  0  0  0  0  0
   -2.3098    1.6050   12.1495 O   0  0  0  0  0  0  0  0  0  0  0  0
   -4.2476    3.0419   11.7823 N   0  0  0  0  0  0  0  0  0  0  0  0
   -5.1071    3.4010   12.1978 H   0  0  0  0  0  0  0  0  0  0  0  0
   -4.4712    2.5252   10.9317 H   0  0  0  0  0  0  0  0  0  0  0  0
 22 23  2  0  0  0
 23 24  2  0  0  0
 23 25  1  0  0  0
 23 21  1  0  0  0
 21  1  1  0  0  0
  1  2  1  0  0  0
  1  4  1  0  0  0
  2  3  1  0  0  0
  3  5  1  0  0  0
  4  5  1  0  0  0
  4  6  1  0  0  0
  4  7  1  0  0  0
  5 10  1  0  0  0
  7  8  1  0  0  0
  8  9  1  0  0  0
  9 10  1  0  0  0
  9 15  1  0  0  0
 10 11  1  0  0  0
 11 12  1  0  0  0
 12 13  1  0  0  0
 13 14  2  0  0  0
 13 15  1  0  0  0
 14 18  1  0  0  0
 15 16  2  0  0  0
 16 17  1  0  0  0
 17 19  1  0  0  0
 17 18  2  0  0  0
 19 20  1  0  0  0
 18 28  1  0  0  0
 28 29  1  0  0  0
 29 30  2  0  0  0
 29 31  2  0  0  0
 29 32  1  0  0  0
 25 26  1  0  0  0
 25 27  1  0  0  0
 32 33  1  0  0  0
 32 34  1  0  0  0
M  END
> <minimizedAffinity>
-7.52727

$$$$
2X7T_WZB_A_1261


 34 37  0  0  0  0  0  0  0  0999 V2000
   -0.2194   11.6670   14.6092 C   0  0  0  0  0  0  0  0  0  0  0  0
    0.0099   12.1864   13.1682 C   0  0  0  0  0  0  0  0  0  0  0  0
   -0.7774   11.2183   12.2628 C   0  0  0  0  0  0  0  0  0  0  0  0
   -0.3791   10.1563   14.4441 C   0  0  0  0  0  0  0  0  0  0  0  0
   -1.4283   10.3019   13.3119 C   0  0  0  0  0  0  0  0  0  0  0  0
    1.0159    9.5361   14.0552 C   0  0  0  0  0  0  0  0  0  0  0  0
   -0.9348    9.3151   15.6208 C   0  0  0  0  0  0  0  0  0  0  0  0
   -1.5845    7.9804   15.1760 C   0  0  0  0  0  0  0  0  0  0  0  0
   -2.6112    8.1969   14.0312 C   0  0  0  0  0  0  0  0  0  0  0  0
   -1.9629    8.9279   12.7847 C   0  0  0  0  0  0  0  0  0  0  0  0
   -3.0046    9.1058   11.6428 C   0  0  0  0  0  0  0  0  0  0  0  0
   -3.4795    7.7192   11.1089 C   0  0  0  0  0  0  0  0  0  0  0  0
   -3.6785    6.6668   12.2086 C   0  0  0  0  0  0  0  0  0  0  0  0
   -4.3069    5.4032   11.8695 C   0  0  0  0  0  0  0  0  0  0  0  0
   -3.2630    6.8939   13.5859 C   0  0  0  0  0  0  0  0  0  0  0  0
   -3.5862    5.8172   14.2586 C   0  0  0  0  0  0  0  0  0  0  0  0
   -4.1207    4.6163   14.2288 C   0  0  0  0  0  0  0  0  0  0  0  0
   -4.5354    4.3741   12.8531 C   0  0  0  0  0  0  0  0  0  0  0  0
   -4.2965    3.6403   15.3879 C   0  0  0  0  0  0  0  0  0  0  0  0
   -5.6948    3.8272   15.9627 C   0  0  0  0  0  0  0  0  0  0  0  0
    0.8560   12.0293   15.4918 O   0  0  0  0  0  0  0  0  0  0  0  0
    2.0294   14.1944   15.2864 O   0  0  0  0  0  0  0  0  0  0  0  0
    0.9878   13.5577   16.0779 S   0  0  0  0  0  0  0  0  0  0  0  0
    1.2921   13.5601   17.4689 O   0  0  0  0  0  0  0  0  0  0  0  0
   -0.3705   14.2262   15.9158 N   0  0  0  0  0  0  0  0  0  0  0  0
   -0.3241   15.1811   16.2714 H   0  0  0  0  0  0  0  0  0  0  0  0
   -1.0719   13.7022   16.4392 H   0  0  0  0  0  0  0  0  0  0  0  0
   -5.1503    3.1939   12.4527 O   0  0  0  0  0  0  0  0  0  0  0  0
   -4.2604    2.0468   11.6627 S   0  0  0  0  0  0  0  0  0  0  0  0
   -4.7011    0.7151   12.1404 O   0  0  0  0  0  0  0  0  0  0  0  0
   -2.8243    2.2132   11.9793 O   0  0  0  0  0  0  0  0  0  0  0  0
   -4.4329    2.1314   10.1462 N   0  0  0  0  0  0  0  0  0  0  0  0
   -5.4186    2.0186    9.9093 H   0  0  0  0  0  0  0  0  0  0  0  0
   -3.8894    1.3924    9.7004 H   0  0  0  0  0  0  0  0  0  0  0  0
 22 23  2  0  0  0
 23 24  2  0  0  0
 23 25  1  0  0  0
 23 21  1  0  0  0
 21  1  1  0  0  0
  1  2  1  0  0  0
  1  4  1  0  0  0
  2  3  1  0  0  0
  3  5  1  0  0  0
  4  5  1  0  0  0
  4  6  1  0  0  0
  4  7  1  0  0  0
  5 10  1  0  0  0
  7  8  1  0  0  0
  8  9  1  0  0  0
  9 10  1  0  0  0
  9 15  1  0  0  0
 10 11  1  0  0  0
 11 12  1  0  0  0
 12 13  1  0  0  0
 13 14  2  0  0  0
 13 15  1  0  0  0
 14 18  1  0  0  0
 15 16  2  0  0  0
 16 17  1  0  0  0
 17 19  1  0  0  0
 17 18  2  0  0  0
 19 20  1  0  0  0
 18 28  1  0  0  0
 28 29  1  0  0  0
 29 30  2  0  0  0
 29 31  2  0  0  0
 29 32  1  0  0  0
 25 26  1  0  0  0
 25 27  1  0  0  0
 32 33  1  0  0  0
 32 34  1  0  0  0
M  END
> <minimizedAffinity>
-7.47898

$$$$
2X7T_WZB_A_1261


 34 37  0  0  0  0  0  0  0  0999 V2000
   -3.9523    1.8341   13.6930 C   0  0  0  0  0  0  0  0  0  0  0  0
   -4.5088    1.1941   12.3972 C   0  0  0  0  0  0  0  0  0  0  0  0
   -3.5929    1.7100   11.2694 C   0  0  0  0  0  0  0  0  0  0  0  0
   -3.3737    3.1719   13.2340 C   0  0  0  0  0  0  0  0  0  0  0  0
   -2.5699    2.5273   12.0755 C   0  0  0  0  0  0  0  0  0  0  0  0
   -4.5595    4.1310   12.8388 C   0  0  0  0  0  0  0  0  0  0  0  0
   -2.4467    3.9688   14.1862 C   0  0  0  0  0  0  0  0  0  0  0  0
   -1.4928    4.9435   13.4503 C   0  0  0  0  0  0  0  0  0  0  0  0
   -0.7330    4.2376   12.2945 C   0  0  0  0  0  0  0  0  0  0  0  0
   -1.7238    3.5620   11.2600 C   0  0  0  0  0  0  0  0  0  0  0  0
   -0.9379    2.8879   10.0986 C   0  0  0  0  0  0  0  0  0  0  0  0
   -0.1454    3.9523    9.2787 C   0  0  0  0  0  0  0  0  0  0  0  0
    0.4969    5.0472   10.1418 C   0  0  0  0  0  0  0  0  0  0  0  0
    1.4231    5.9786    9.5245 C   0  0  0  0  0  0  0  0  0  0  0  0
    0.2135    5.1818   11.5640 C   0  0  0  0  0  0  0  0  0  0  0  0
    0.9256    6.1934   11.9953 C   0  0  0  0  0  0  0  0  0  0  0  0
    1.7841    7.1442   11.6997 C   0  0  0  0  0  0  0  0  0  0  0  0
    2.0715    7.0242   10.2762 C   0  0  0  0  0  0  0  0  0  0  0  0
    2.3895    8.1843   12.6372 C   0  0  0  0  0  0  0  0  0  0  0  0
    3.7368    7.6646   13.1220 C   0  0  0  0  0  0  0  0  0  0  0  0
   -4.9639    1.9725   14.7051 O   0  0  0  0  0  0  0  0  0  0  0  0
   -3.2533    1.4626   16.4142 O   0  0  0  0  0  0  0  0  0  0  0  0
   -4.6978    1.4534   16.2402 S   0  0  0  0  0  0  0  0  0  0  0  0
   -5.2577    0.1627   16.4604 O   0  0  0  0  0  0  0  0  0  0  0  0
   -5.4129    2.4171   17.1772 N   0  0  0  0  0  0  0  0  0  0  0  0
   -5.2678    2.1229   18.1430 H   0  0  0  0  0  0  0  0  0  0  0  0
   -6.4113    2.4168   16.9680 H   0  0  0  0  0  0  0  0  0  0  0  0
    2.9523    7.8723    9.6156 O   0  0  0  0  0  0  0  0  0  0  0  0
    4.5053    7.3743    9.3469 S   0  0  0  0  0  0  0  0  0  0  0  0
    5.4167    8.4553    9.7903 O   0  0  0  0  0  0  0  0  0  0  0  0
    4.7180    7.1372    7.9017 O   0  0  0  0  0  0  0  0  0  0  0  0
    4.8324    6.0853   10.1005 N   0  0  0  0  0  0  0  0  0  0  0  0
    4.6911    6.2306   11.1001 H   0  0  0  0  0  0  0  0  0  0  0  0
    5.8044    5.8282    9.9284 H   0  0  0  0  0  0  0  0  0  0  0  0
 22 23  2  0  0  0
 23 24  2  0  0  0
 23 25  1  0  0  0
 23 21  1  0  0  0
 21  1  1  0  0  0
  1  2  1  0  0  0
  1  4  1  0  0  0
  2  3  1  0  0  0
  3  5  1  0  0  0
  4  5  1  0  0  0
  4  6  1  0  0  0
  4  7  1  0  0  0
  5 10  1  0  0  0
  7  8  1  0  0  0
  8  9  1  0  0  0
  9 10  1  0  0  0
  9 15  1  0  0  0
 10 11  1  0  0  0
 11 12  1  0  0  0
 12 13  1  0  0  0
 13 14  2  0  0  0
 13 15  1  0  0  0
 14 18  1  0  0  0
 15 16  2  0  0  0
 16 17  1  0  0  0
 17 19  1  0  0  0
 17 18  2  0  0  0
 19 20  1  0  0  0
 18 28  1  0  0  0
 28 29  1  0  0  0
 29 30  2  0  0  0
 29 31  2  0  0  0
 29 32  1  0  0  0
 25 26  1  0  0  0
 25 27  1  0  0  0
 32 33  1  0  0  0
 32 34  1  0  0  0
M  END
> <minimizedAffinity>
-7.41852

$$$$
2X7T_WZB_A_1261


 34 37  0  0  0  0  0  0  0  0999 V2000
   -3.1707    4.5578   12.4415 C   0  0  0  0  0  0  0  0  0  0  0  0
   -3.2633    3.9393   13.8583 C   0  0  0  0  0  0  0  0  0  0  0  0
   -2.7707    5.0458   14.8121 C   0  0  0  0  0  0  0  0  0  0  0  0
   -1.9931    5.5277   12.5300 C   0  0  0  0  0  0  0  0  0  0  0  0
   -2.5275    6.1971   13.8224 C   0  0  0  0  0  0  0  0  0  0  0  0
   -0.6586    4.6990   12.6494 C   0  0  0  0  0  0  0  0  0  0  0  0
   -1.7778    6.5705   11.4044 C   0  0  0  0  0  0  0  0  0  0  0  0
   -0.9746    7.8156   11.8584 C   0  0  0  0  0  0  0  0  0  0  0  0
   -1.5530    8.4253   13.1642 C   0  0  0  0  0  0  0  0  0  0  0  0
   -1.6168    7.3623   14.3366 C   0  0  0  0  0  0  0  0  0  0  0  0
   -2.1722    8.0063   15.6394 C   0  0  0  0  0  0  0  0  0  0  0  0
   -1.2172    9.1292   16.1498 C   0  0  0  0  0  0  0  0  0  0  0  0
   -0.6205    9.9920   15.0292 C   0  0  0  0  0  0  0  0  0  0  0  0
    0.1207   11.1894   15.3803 C   0  0  0  0  0  0  0  0  0  0  0  0
   -0.7770    9.6541   13.6212 C   0  0  0  0  0  0  0  0  0  0  0  0
   -0.1672   10.5919   12.9393 C   0  0  0  0  0  0  0  0  0  0  0  0
    0.5296   11.7062   12.9749 C   0  0  0  0  0  0  0  0  0  0  0  0
    0.6987   12.0523   14.3802 C   0  0  0  0  0  0  0  0  0  0  0  0
    1.0676   12.5126   11.7970 C   0  0  0  0  0  0  0  0  0  0  0  0
   -0.0827   13.3133   11.2002 C   0  0  0  0  0  0  0  0  0  0  0  0
   -3.0033    3.5559   11.4242 O   0  0  0  0  0  0  0  0  0  0  0  0
   -3.2891    3.1926    8.9966 O   0  0  0  0  0  0  0  0  0  0  0  0
   -4.0834    3.4124   10.1956 S   0  0  0  0  0  0  0  0  0  0  0  0
   -4.9105    4.5666   10.0887 O   0  0  0  0  0  0  0  0  0  0  0  0
   -4.9947    2.2380   10.5253 N   0  0  0  0  0  0  0  0  0  0  0  0
   -5.6807    2.1202    9.7796 H   0  0  0  0  0  0  0  0  0  0  0  0
   -5.4771    2.4186   11.4056 H   0  0  0  0  0  0  0  0  0  0  0  0
    1.3877   13.1856   14.7950 O   0  0  0  0  0  0  0  0  0  0  0  0
    0.5363   14.5204   15.2696 S   0  0  0  0  0  0  0  0  0  0  0  0
   -0.6689   14.6239   14.4137 O   0  0  0  0  0  0  0  0  0  0  0  0
    1.3572   15.7376   15.0823 O   0  0  0  0  0  0  0  0  0  0  0  0
    0.1184   14.4417   16.7378 N   0  0  0  0  0  0  0  0  0  0  0  0
   -0.4492   13.6072   16.8855 H   0  0  0  0  0  0  0  0  0  0  0  0
   -0.4248   15.2699   16.9816 H   0  0  0  0  0  0  0  0  0  0  0  0
 22 23  2  0  0  0
 23 24  2  0  0  0
 23 25  1  0  0  0
 23 21  1  0  0  0
 21  1  1  0  0  0
  1  2  1  0  0  0
  1  4  1  0  0  0
  2  3  1  0  0  0
  3  5  1  0  0  0
  4  5  1  0  0  0
  4  6  1  0  0  0
  4  7  1  0  0  0
  5 10  1  0  0  0
  7  8  1  0  0  0
  8  9  1  0  0  0
  9 10  1  0  0  0
  9 15  1  0  0  0
 10 11  1  0  0  0
 11 12  1  0  0  0
 12 13  1  0  0  0
 13 14  2  0  0  0
 13 15  1  0  0  0
 14 18  1  0  0  0
 15 16  2  0  0  0
 16 17  1  0  0  0
 17 19  1  0  0  0
 17 18  2  0  0  0
 19 20  1  0  0  0
 18 28  1  0  0  0
 28 29  1  0  0  0
 29 30  2  0  0  0
 29 31  2  0  0  0
 29 32  1  0  0  0
 25 26  1  0  0  0
 25 27  1  0  0  0
 32 33  1  0  0  0
 32 34  1  0  0  0
M  END
> <minimizedAffinity>
-7.31187

$$$$
