1O2O_950_A_246


 30 32  0  0  0  0  0  0  0  0999 V2000
   44.1551   -3.0827   25.7130 C   0  0  0  0  0  0  0  0  0  0  0  0
   44.2739   -1.6692   25.8006 C   0  0  0  0  0  0  0  0  0  0  0  0
   44.5499   -0.8537   24.6860 F   0  0  0  0  0  0  0  0  0  0  0  0
   44.0893   -1.0210   27.0182 C   0  0  0  0  0  0  0  0  0  0  0  0
   43.7875   -1.7673   28.1215 C   0  0  0  0  0  0  0  0  0  0  0  0
   43.6634   -3.0987   28.0825 C   0  0  0  0  0  0  0  0  0  0  0  0
   43.8384   -3.7989   26.8967 C   0  0  0  0  0  0  0  0  0  0  0  0
   43.5769   -1.4321   29.3410 N   0  0  0  0  0  0  0  0  0  0  0  0
   43.3739   -3.6137   29.2525 N   0  0  0  0  0  0  0  0  0  0  0  0
   43.3339   -2.5219   30.0023 C   0  0  0  0  0  0  0  0  0  0  0  0
   43.5960   -0.5184   29.7072 H   0  0  0  0  0  0  0  0  0  0  0  0
   44.3491   -3.7563   24.4763 C   0  0  0  0  0  0  0  0  0  0  0  0
   45.0376   -3.2310   23.4839 N   0  0  0  0  0  0  0  0  0  0  0  0
   43.8029   -4.9263   24.3227 N   0  0  0  0  0  0  0  0  0  0  0  0
   45.4555   -2.3459   23.5890 H   0  0  0  0  0  0  0  0  0  0  0  0
   45.1342   -3.7236   22.6369 H   0  0  0  0  0  0  0  0  0  0  0  0
   43.2861   -5.3286   25.0577 H   0  0  0  0  0  0  0  0  0  0  0  0
   43.9062   -5.4098   23.4713 H   0  0  0  0  0  0  0  0  0  0  0  0
   43.0264   -2.5223   31.3772 C   0  0  0  0  0  0  0  0  0  0  0  0
   42.7169   -3.7281   32.0091 C   0  0  0  0  0  0  0  0  0  0  0  0
   42.4091   -3.7485   33.3695 C   0  0  0  0  0  0  0  0  0  0  0  0
   42.4067   -2.5900   34.1108 C   0  0  0  0  0  0  0  0  0  0  0  0
   42.7107   -1.3756   33.5172 C   0  0  0  0  0  0  0  0  0  0  0  0
   43.0175   -1.3356   32.1511 C   0  0  0  0  0  0  0  0  0  0  0  0
   43.2782   -0.1065   31.5862 O   0  0  0  0  0  0  0  0  0  0  0  0
   42.7542   -0.2156   34.2785 O   0  0  0  0  0  0  0  0  0  0  0  0
   43.7583    0.1107   35.2647 C   0  0  0  0  0  0  0  0  0  0  0  0
   44.8184    1.2179   34.7637 C   0  0  0  0  0  0  0  0  0  0  0  0
   45.5709    1.8182   35.9854 C   0  0  0  0  0  0  0  0  0  0  0  0
   45.8704    0.6448   33.8378 C   0  0  0  0  0  0  0  0  0  0  0  0
  1  2  2  0  0  0
  1  7  1  0  0  0
  1 12  1  0  0  0
  2  3  1  0  0  0
  2  4  1  0  0  0
  4  5  2  0  0  0
  5  6  1  0  0  0
  5  8  1  0  0  0
  6  7  2  0  0  0
  6  9  1  0  0  0
 12 13  1  0  0  0
 12 14  2  0  0  0
  8 10  1  0  0  0
  9 10  2  0  0  0
 10 19  1  0  0  0
 19 20  2  0  0  0
 19 24  1  0  0  0
 20 21  1  0  0  0
 21 22  2  0  0  0
 22 23  1  0  0  0
 23 24  2  0  0  0
 23 26  1  0  0  0
 24 25  1  0  0  0
 26 27  1  0  0  0
 27 28  1  0  0  0
 28 29  1  0  0  0
 28 30  1  0  0  0
 13 15  1  0  0  0
 13 16  1  0  0  0
 14 17  1  0  0  0
 14 18  1  0  0  0
  8 11  1  0  0  0
M  CHG 1  14   1
M  CHG 1  25  -1
M  END
> <minimizedAffinity>
-8.76657

$$$$
1O2O_950_A_246


 30 32  0  0  0  0  0  0  0  0999 V2000
   44.1728   -2.2926   26.5514 C   0  0  0  0  0  0  0  0  0  0  0  0
   44.1973   -3.6174   27.0655 C   0  0  0  0  0  0  0  0  0  0  0  0
   44.4891   -4.7420   26.2695 F   0  0  0  0  0  0  0  0  0  0  0  0
   43.9548   -3.8537   28.4153 C   0  0  0  0  0  0  0  0  0  0  0  0
   43.6993   -2.7905   29.2336 C   0  0  0  0  0  0  0  0  0  0  0  0
   43.6698   -1.5282   28.7917 C   0  0  0  0  0  0  0  0  0  0  0  0
   43.9022   -1.2326   27.4554 C   0  0  0  0  0  0  0  0  0  0  0  0
   43.4425   -2.7278   30.4882 N   0  0  0  0  0  0  0  0  0  0  0  0
   43.4039   -0.6661   29.7424 N   0  0  0  0  0  0  0  0  0  0  0  0
   43.2696   -1.4758   30.7827 C   0  0  0  0  0  0  0  0  0  0  0  0
   43.3870   -3.4877   31.1117 H   0  0  0  0  0  0  0  0  0  0  0  0
   44.4114   -2.0400   25.1730 C   0  0  0  0  0  0  0  0  0  0  0  0
   44.9289   -2.9435   24.3663 N   0  0  0  0  0  0  0  0  0  0  0  0
   44.1238   -0.8608   24.7066 N   0  0  0  0  0  0  0  0  0  0  0  0
   45.1506   -3.8397   24.7084 H   0  0  0  0  0  0  0  0  0  0  0  0
   45.0941   -2.7227   23.4212 H   0  0  0  0  0  0  0  0  0  0  0  0
   43.7366   -0.1776   25.3004 H   0  0  0  0  0  0  0  0  0  0  0  0
   44.2933   -0.6511   23.7598 H   0  0  0  0  0  0  0  0  0  0  0  0
   42.9991   -1.0352   32.0932 C   0  0  0  0  0  0  0  0  0  0  0  0
   41.7069   -1.1641   32.6058 C   0  0  0  0  0  0  0  0  0  0  0  0
   41.4195   -0.7328   33.9008 C   0  0  0  0  0  0  0  0  0  0  0  0
   42.3968   -0.1784   34.6941 C   0  0  0  0  0  0  0  0  0  0  0  0
   43.6905   -0.0368   34.2191 C   0  0  0  0  0  0  0  0  0  0  0  0
   43.9960   -0.4598   32.9192 C   0  0  0  0  0  0  0  0  0  0  0  0
   45.2832   -0.2694   32.4667 O   0  0  0  0  0  0  0  0  0  0  0  0
   44.6849    0.4789   35.0390 O   0  0  0  0  0  0  0  0  0  0  0  0
   44.8085    1.8577   35.4524 C   0  0  0  0  0  0  0  0  0  0  0  0
   45.8236    2.0723   36.6871 C   0  0  0  0  0  0  0  0  0  0  0  0
   45.0372    2.5590   37.9377 C   0  0  0  0  0  0  0  0  0  0  0  0
   46.5383    0.7984   37.0857 C   0  0  0  0  0  0  0  0  0  0  0  0
  1  2  2  0  0  0
  1  7  1  0  0  0
  1 12  1  0  0  0
  2  3  1  0  0  0
  2  4  1  0  0  0
  4  5  2  0  0  0
  5  6  1  0  0  0
  5  8  1  0  0  0
  6  7  2  0  0  0
  6  9  1  0  0  0
 12 13  1  0  0  0
 12 14  2  0  0  0
  8 10  1  0  0  0
  9 10  2  0  0  0
 10 19  1  0  0  0
 19 20  2  0  0  0
 19 24  1  0  0  0
 20 21  1  0  0  0
 21 22  2  0  0  0
 22 23  1  0  0  0
 23 24  2  0  0  0
 23 26  1  0  0  0
 24 25  1  0  0  0
 26 27  1  0  0  0
 27 28  1  0  0  0
 28 29  1  0  0  0
 28 30  1  0  0  0
 13 15  1  0  0  0
 13 16  1  0  0  0
 14 17  1  0  0  0
 14 18  1  0  0  0
  8 11  1  0  0  0
M  CHG 1  14   1
M  CHG 1  25  -1
M  END
> <minimizedAffinity>
-7.79014

$$$$
1O2O_950_A_246


 30 32  0  0  0  0  0  0  0  0999 V2000
   43.1661    1.5383   35.8469 C   0  0  0  0  0  0  0  0  0  0  0  0
   44.3840    1.9288   35.2271 C   0  0  0  0  0  0  0  0  0  0  0  0
   45.1946    2.9696   35.7203 F   0  0  0  0  0  0  0  0  0  0  0  0
   44.8450    1.2603   34.0968 C   0  0  0  0  0  0  0  0  0  0  0  0
   44.1090    0.2223   33.6008 C   0  0  0  0  0  0  0  0  0  0  0  0
   42.9596   -0.1794   34.1548 C   0  0  0  0  0  0  0  0  0  0  0  0
   42.4502    0.4509   35.2819 C   0  0  0  0  0  0  0  0  0  0  0  0
   44.2968   -0.5443   32.5904 N   0  0  0  0  0  0  0  0  0  0  0  0
   42.4172   -1.1885   33.5181 N   0  0  0  0  0  0  0  0  0  0  0  0
   43.2988   -1.3726   32.5461 C   0  0  0  0  0  0  0  0  0  0  0  0
   45.0563   -0.5107   31.9648 H   0  0  0  0  0  0  0  0  0  0  0  0
   42.6816    2.2188   36.9972 C   0  0  0  0  0  0  0  0  0  0  0  0
   41.6952    3.0899   36.9419 N   0  0  0  0  0  0  0  0  0  0  0  0
   43.2565    1.9801   38.1388 N   0  0  0  0  0  0  0  0  0  0  0  0
   41.2526    3.2785   36.0830 H   0  0  0  0  0  0  0  0  0  0  0  0
   41.4005    3.5524   37.7595 H   0  0  0  0  0  0  0  0  0  0  0  0
   43.9948    1.3309   38.1919 H   0  0  0  0  0  0  0  0  0  0  0  0
   42.9535    2.4485   38.9500 H   0  0  0  0  0  0  0  0  0  0  0  0
   43.1957   -2.3848   31.5716 C   0  0  0  0  0  0  0  0  0  0  0  0
   43.0535   -3.7133   31.9767 C   0  0  0  0  0  0  0  0  0  0  0  0
   42.9507   -4.7294   31.0266 C   0  0  0  0  0  0  0  0  0  0  0  0
   42.9844   -4.4449   29.6814 C   0  0  0  0  0  0  0  0  0  0  0  0
   43.1225   -3.1379   29.2431 C   0  0  0  0  0  0  0  0  0  0  0  0
   43.2322   -2.1053   30.1832 C   0  0  0  0  0  0  0  0  0  0  0  0
   43.4058   -0.8224   29.7121 O   0  0  0  0  0  0  0  0  0  0  0  0
   43.1081   -2.8495   27.8853 O   0  0  0  0  0  0  0  0  0  0  0  0
   43.5819   -3.7175   26.8321 C   0  0  0  0  0  0  0  0  0  0  0  0
   44.5777   -2.9879   25.7942 C   0  0  0  0  0  0  0  0  0  0  0  0
   44.2033   -3.3838   24.3374 C   0  0  0  0  0  0  0  0  0  0  0  0
   44.5015   -1.4778   25.8727 C   0  0  0  0  0  0  0  0  0  0  0  0
  1  2  2  0  0  0
  1  7  1  0  0  0
  1 12  1  0  0  0
  2  3  1  0  0  0
  2  4  1  0  0  0
  4  5  2  0  0  0
  5  6  1  0  0  0
  5  8  1  0  0  0
  6  7  2  0  0  0
  6  9  1  0  0  0
 12 13  1  0  0  0
 12 14  2  0  0  0
  8 10  1  0  0  0
  9 10  2  0  0  0
 10 19  1  0  0  0
 19 20  2  0  0  0
 19 24  1  0  0  0
 20 21  1  0  0  0
 21 22  2  0  0  0
 22 23  1  0  0  0
 23 24  2  0  0  0
 23 26  1  0  0  0
 24 25  1  0  0  0
 26 27  1  0  0  0
 27 28  1  0  0  0
 28 29  1  0  0  0
 28 30  1  0  0  0
 13 15  1  0  0  0
 13 16  1  0  0  0
 14 17  1  0  0  0
 14 18  1  0  0  0
  8 11  1  0  0  0
M  CHG 1  14   1
M  CHG 1  25  -1
M  END
> <minimizedAffinity>
-7.36976

$$$$
1O2O_950_A_246


 30 32  0  0  0  0  0  0  0  0999 V2000
   44.1155   -3.2030   25.7236 C   0  0  0  0  0  0  0  0  0  0  0  0
   44.2876   -1.8089   25.9404 C   0  0  0  0  0  0  0  0  0  0  0  0
   44.6102   -0.9078   24.9073 F   0  0  0  0  0  0  0  0  0  0  0  0
   44.1116   -1.2665   27.2098 C   0  0  0  0  0  0  0  0  0  0  0  0
   43.7660   -2.0968   28.2377 C   0  0  0  0  0  0  0  0  0  0  0  0
   43.5912   -3.4133   28.0768 C   0  0  0  0  0  0  0  0  0  0  0  0
   43.7552   -4.0100   26.8341 C   0  0  0  0  0  0  0  0  0  0  0  0
   43.5518   -1.8650   29.4804 N   0  0  0  0  0  0  0  0  0  0  0  0
   43.2659   -4.0200   29.1921 N   0  0  0  0  0  0  0  0  0  0  0  0
   43.2579   -2.9996   30.0376 C   0  0  0  0  0  0  0  0  0  0  0  0
   43.6012   -0.9897   29.9282 H   0  0  0  0  0  0  0  0  0  0  0  0
   44.3003   -3.7693   24.4329 C   0  0  0  0  0  0  0  0  0  0  0  0
   44.9362   -3.1388   23.4670 N   0  0  0  0  0  0  0  0  0  0  0  0
   43.7990   -4.9466   24.2020 N   0  0  0  0  0  0  0  0  0  0  0  0
   45.3198   -2.2469   23.6304 H   0  0  0  0  0  0  0  0  0  0  0  0
   45.0279   -3.5593   22.5816 H   0  0  0  0  0  0  0  0  0  0  0  0
   43.3217   -5.4272   24.9165 H   0  0  0  0  0  0  0  0  0  0  0  0
   43.8968   -5.3575   23.3127 H   0  0  0  0  0  0  0  0  0  0  0  0
   42.9317   -3.1120   31.4035 C   0  0  0  0  0  0  0  0  0  0  0  0
   42.7910   -4.3794   31.9717 C   0  0  0  0  0  0  0  0  0  0  0  0
   42.4677   -4.5109   33.3223 C   0  0  0  0  0  0  0  0  0  0  0  0
   42.2848   -3.4026   34.1161 C   0  0  0  0  0  0  0  0  0  0  0  0
   42.4183   -2.1294   33.5864 C   0  0  0  0  0  0  0  0  0  0  0  0
   42.7378   -1.9785   32.2310 C   0  0  0  0  0  0  0  0  0  0  0  0
   42.8258   -0.6984   31.7297 O   0  0  0  0  0  0  0  0  0  0  0  0
   42.2803   -1.0141   34.4013 O   0  0  0  0  0  0  0  0  0  0  0  0
   41.3638    0.0817   34.1856 C   0  0  0  0  0  0  0  0  0  0  0  0
   39.8224   -0.3795   34.0730 C   0  0  0  0  0  0  0  0  0  0  0  0
   39.2709   -0.7249   35.4856 C   0  0  0  0  0  0  0  0  0  0  0  0
   38.9278    0.7015   33.5041 C   0  0  0  0  0  0  0  0  0  0  0  0
  1  2  2  0  0  0
  1  7  1  0  0  0
  1 12  1  0  0  0
  2  3  1  0  0  0
  2  4  1  0  0  0
  4  5  2  0  0  0
  5  6  1  0  0  0
  5  8  1  0  0  0
  6  7  2  0  0  0
  6  9  1  0  0  0
 12 13  1  0  0  0
 12 14  2  0  0  0
  8 10  1  0  0  0
  9 10  2  0  0  0
 10 19  1  0  0  0
 19 20  2  0  0  0
 19 24  1  0  0  0
 20 21  1  0  0  0
 21 22  2  0  0  0
 22 23  1  0  0  0
 23 24  2  0  0  0
 23 26  1  0  0  0
 24 25  1  0  0  0
 26 27  1  0  0  0
 27 28  1  0  0  0
 28 29  1  0  0  0
 28 30  1  0  0  0
 13 15  1  0  0  0
 13 16  1  0  0  0
 14 17  1  0  0  0
 14 18  1  0  0  0
  8 11  1  0  0  0
M  CHG 1  14   1
M  CHG 1  25  -1
M  END
> <minimizedAffinity>
-7.26703

$$$$
1O2O_950_A_246


 30 32  0  0  0  0  0  0  0  0999 V2000
   44.2350   -3.0116   25.7311 C   0  0  0  0  0  0  0  0  0  0  0  0
   44.2988   -1.5919   25.7443 C   0  0  0  0  0  0  0  0  0  0  0  0
   44.5106   -0.8243   24.5827 F   0  0  0  0  0  0  0  0  0  0  0  0
   44.1218   -0.8900   26.9329 C   0  0  0  0  0  0  0  0  0  0  0  0
   43.8811   -1.5901   28.0806 C   0  0  0  0  0  0  0  0  0  0  0  0
   43.8102   -2.9256   28.1120 C   0  0  0  0  0  0  0  0  0  0  0  0
   43.9805   -3.6782   26.9579 C   0  0  0  0  0  0  0  0  0  0  0  0
   43.6909   -1.2015   29.2875 N   0  0  0  0  0  0  0  0  0  0  0  0
   43.5742   -3.3910   29.3143 N   0  0  0  0  0  0  0  0  0  0  0  0
   43.5107   -2.2647   30.0095 C   0  0  0  0  0  0  0  0  0  0  0  0
   43.6830   -0.2703   29.6070 H   0  0  0  0  0  0  0  0  0  0  0  0
   44.4220   -3.7394   24.5244 C   0  0  0  0  0  0  0  0  0  0  0  0
   45.0328   -3.2276   23.4757 N   0  0  0  0  0  0  0  0  0  0  0  0
   43.9483   -4.9485   24.4576 N   0  0  0  0  0  0  0  0  0  0  0  0
   45.3953   -2.3131   23.5149 H   0  0  0  0  0  0  0  0  0  0  0  0
   45.1268   -3.7595   22.6526 H   0  0  0  0  0  0  0  0  0  0  0  0
   43.4899   -5.3413   25.2353 H   0  0  0  0  0  0  0  0  0  0  0  0
   44.0481   -5.4712   23.6293 H   0  0  0  0  0  0  0  0  0  0  0  0
   43.2415   -2.2069   31.3911 C   0  0  0  0  0  0  0  0  0  0  0  0
   43.5894   -1.0611   32.1090 C   0  0  0  0  0  0  0  0  0  0  0  0
   43.3316   -0.9855   33.4778 C   0  0  0  0  0  0  0  0  0  0  0  0
   42.7315   -2.0296   34.1424 C   0  0  0  0  0  0  0  0  0  0  0  0
   42.3710   -3.1811   33.4617 C   0  0  0  0  0  0  0  0  0  0  0  0
   42.6269   -3.2764   32.0879 C   0  0  0  0  0  0  0  0  0  0  0  0
   42.2893   -4.4503   31.4507 O   0  0  0  0  0  0  0  0  0  0  0  0
   41.7224   -4.2131   34.1260 O   0  0  0  0  0  0  0  0  0  0  0  0
   42.3598   -5.3558   34.7387 C   0  0  0  0  0  0  0  0  0  0  0  0
   42.0402   -5.5056   36.3123 C   0  0  0  0  0  0  0  0  0  0  0  0
   43.3127   -5.9886   37.0652 C   0  0  0  0  0  0  0  0  0  0  0  0
   41.6207   -4.1988   36.9517 C   0  0  0  0  0  0  0  0  0  0  0  0
  1  2  2  0  0  0
  1  7  1  0  0  0
  1 12  1  0  0  0
  2  3  1  0  0  0
  2  4  1  0  0  0
  4  5  2  0  0  0
  5  6  1  0  0  0
  5  8  1  0  0  0
  6  7  2  0  0  0
  6  9  1  0  0  0
 12 13  1  0  0  0
 12 14  2  0  0  0
  8 10  1  0  0  0
  9 10  2  0  0  0
 10 19  1  0  0  0
 19 20  2  0  0  0
 19 24  1  0  0  0
 20 21  1  0  0  0
 21 22  2  0  0  0
 22 23  1  0  0  0
 23 24  2  0  0  0
 23 26  1  0  0  0
 24 25  1  0  0  0
 26 27  1  0  0  0
 27 28  1  0  0  0
 28 29  1  0  0  0
 28 30  1  0  0  0
 13 15  1  0  0  0
 13 16  1  0  0  0
 14 17  1  0  0  0
 14 18  1  0  0  0
  8 11  1  0  0  0
M  CHG 1  14   1
M  CHG 1  25  -1
M  END
> <minimizedAffinity>
-7.00716

$$$$
1O2O_950_A_246


 30 32  0  0  0  0  0  0  0  0999 V2000
   43.2471   -3.3486   28.6083 C   0  0  0  0  0  0  0  0  0  0  0  0
   43.4749   -2.0169   28.1673 C   0  0  0  0  0  0  0  0  0  0  0  0
   43.5974   -1.6713   26.8075 F   0  0  0  0  0  0  0  0  0  0  0  0
   43.5596   -0.9753   29.0863 C   0  0  0  0  0  0  0  0  0  0  0  0
   43.4143   -1.2570   30.4148 C   0  0  0  0  0  0  0  0  0  0  0  0
   43.1958   -2.4950   30.8722 C   0  0  0  0  0  0  0  0  0  0  0  0
   43.1040   -3.5730   30.0024 C   0  0  0  0  0  0  0  0  0  0  0  0
   43.4527   -0.5031   31.4512 N   0  0  0  0  0  0  0  0  0  0  0  0
   43.0903   -2.5401   32.1778 N   0  0  0  0  0  0  0  0  0  0  0  0
   43.2614   -1.2627   32.4859 C   0  0  0  0  0  0  0  0  0  0  0  0
   43.5997    0.4703   31.4603 H   0  0  0  0  0  0  0  0  0  0  0  0
   43.1666   -4.4215   27.6792 C   0  0  0  0  0  0  0  0  0  0  0  0
   43.7364   -4.3755   26.4926 N   0  0  0  0  0  0  0  0  0  0  0  0
   42.4832   -5.4751   28.0164 N   0  0  0  0  0  0  0  0  0  0  0  0
   44.2562   -3.5829   26.2266 H   0  0  0  0  0  0  0  0  0  0  0  0
   43.6424   -5.1337   25.8717 H   0  0  0  0  0  0  0  0  0  0  0  0
   42.0530   -5.5205   28.9008 H   0  0  0  0  0  0  0  0  0  0  0  0
   42.3959   -6.2274   27.3874 H   0  0  0  0  0  0  0  0  0  0  0  0
   43.2104   -0.7563   33.7996 C   0  0  0  0  0  0  0  0  0  0  0  0
   42.5400   -1.4808   34.7869 C   0  0  0  0  0  0  0  0  0  0  0  0
   42.4780   -0.9953   36.0932 C   0  0  0  0  0  0  0  0  0  0  0  0
   43.0740    0.1969   36.4328 C   0  0  0  0  0  0  0  0  0  0  0  0
   43.7493    0.9413   35.4794 C   0  0  0  0  0  0  0  0  0  0  0  0
   43.8174    0.4715   34.1615 C   0  0  0  0  0  0  0  0  0  0  0  0
   44.4646    1.2555   33.2319 O   0  0  0  0  0  0  0  0  0  0  0  0
   44.3902    2.1198   35.8362 O   0  0  0  0  0  0  0  0  0  0  0  0
   45.5771    2.2221   36.6536 C   0  0  0  0  0  0  0  0  0  0  0  0
   45.3092    2.8851   38.0992 C   0  0  0  0  0  0  0  0  0  0  0  0
   44.0278    3.7650   38.0464 C   0  0  0  0  0  0  0  0  0  0  0  0
   45.0894    1.8532   39.1851 C   0  0  0  0  0  0  0  0  0  0  0  0
  1  2  2  0  0  0
  1  7  1  0  0  0
  1 12  1  0  0  0
  2  3  1  0  0  0
  2  4  1  0  0  0
  4  5  2  0  0  0
  5  6  1  0  0  0
  5  8  1  0  0  0
  6  7  2  0  0  0
  6  9  1  0  0  0
 12 13  1  0  0  0
 12 14  2  0  0  0
  8 10  1  0  0  0
  9 10  2  0  0  0
 10 19  1  0  0  0
 19 20  2  0  0  0
 19 24  1  0  0  0
 20 21  1  0  0  0
 21 22  2  0  0  0
 22 23  1  0  0  0
 23 24  2  0  0  0
 23 26  1  0  0  0
 24 25  1  0  0  0
 26 27  1  0  0  0
 27 28  1  0  0  0
 28 29  1  0  0  0
 28 30  1  0  0  0
 13 15  1  0  0  0
 13 16  1  0  0  0
 14 17  1  0  0  0
 14 18  1  0  0  0
  8 11  1  0  0  0
M  CHG 1  14   1
M  CHG 1  25  -1
M  END
> <minimizedAffinity>
-7.00173

$$$$
1O2O_950_A_246


 30 32  0  0  0  0  0  0  0  0999 V2000
   44.1082   -2.8828   26.2718 C   0  0  0  0  0  0  0  0  0  0  0  0
   44.9268   -1.7441   26.5024 C   0  0  0  0  0  0  0  0  0  0  0  0
   45.9670   -1.3607   25.6338 F   0  0  0  0  0  0  0  0  0  0  0  0
   44.7057   -0.9302   27.6094 C   0  0  0  0  0  0  0  0  0  0  0  0
   43.6868   -1.2436   28.4631 C   0  0  0  0  0  0  0  0  0  0  0  0
   42.8911   -2.3036   28.2817 C   0  0  0  0  0  0  0  0  0  0  0  0
   43.0658   -3.1517   27.1966 C   0  0  0  0  0  0  0  0  0  0  0  0
   43.2771   -0.6790   29.5388 N   0  0  0  0  0  0  0  0  0  0  0  0
   41.9822   -2.4195   29.2189 N   0  0  0  0  0  0  0  0  0  0  0  0
   42.2741   -1.3745   29.9797 C   0  0  0  0  0  0  0  0  0  0  0  0
   43.6533    0.1310   29.9531 H   0  0  0  0  0  0  0  0  0  0  0  0
   44.3296   -3.7256   25.1487 C   0  0  0  0  0  0  0  0  0  0  0  0
   44.9670   -3.3170   24.0709 N   0  0  0  0  0  0  0  0  0  0  0  0
   43.8614   -4.9380   25.1897 N   0  0  0  0  0  0  0  0  0  0  0  0
   45.3258   -2.4012   24.0287 H   0  0  0  0  0  0  0  0  0  0  0  0
   45.0846   -3.9274   23.3075 H   0  0  0  0  0  0  0  0  0  0  0  0
   43.3833   -5.2542   25.9902 H   0  0  0  0  0  0  0  0  0  0  0  0
   43.9849   -5.5397   24.4203 H   0  0  0  0  0  0  0  0  0  0  0  0
   41.5555   -1.0194   31.1382 C   0  0  0  0  0  0  0  0  0  0  0  0
   40.2557   -0.5256   31.0132 C   0  0  0  0  0  0  0  0  0  0  0  0
   39.5287   -0.1680   32.1487 C   0  0  0  0  0  0  0  0  0  0  0  0
   40.0729   -0.2960   33.4054 C   0  0  0  0  0  0  0  0  0  0  0  0
   41.3593   -0.7843   33.5673 C   0  0  0  0  0  0  0  0  0  0  0  0
   42.1057   -1.1436   32.4379 C   0  0  0  0  0  0  0  0  0  0  0  0
   43.3942   -1.5899   32.6338 O   0  0  0  0  0  0  0  0  0  0  0  0
   41.8876   -0.9572   34.8394 O   0  0  0  0  0  0  0  0  0  0  0  0
   42.8601   -0.0979   35.4743 C   0  0  0  0  0  0  0  0  0  0  0  0
   42.4973    1.4703   35.3748 C   0  0  0  0  0  0  0  0  0  0  0  0
   41.3613    1.8136   36.3802 C   0  0  0  0  0  0  0  0  0  0  0  0
   43.6703    2.3654   35.7146 C   0  0  0  0  0  0  0  0  0  0  0  0
  1  2  2  0  0  0
  1  7  1  0  0  0
  1 12  1  0  0  0
  2  3  1  0  0  0
  2  4  1  0  0  0
  4  5  2  0  0  0
  5  6  1  0  0  0
  5  8  1  0  0  0
  6  7  2  0  0  0
  6  9  1  0  0  0
 12 13  1  0  0  0
 12 14  2  0  0  0
  8 10  1  0  0  0
  9 10  2  0  0  0
 10 19  1  0  0  0
 19 20  2  0  0  0
 19 24  1  0  0  0
 20 21  1  0  0  0
 21 22  2  0  0  0
 22 23  1  0  0  0
 23 24  2  0  0  0
 23 26  1  0  0  0
 24 25  1  0  0  0
 26 27  1  0  0  0
 27 28  1  0  0  0
 28 29  1  0  0  0
 28 30  1  0  0  0
 13 15  1  0  0  0
 13 16  1  0  0  0
 14 17  1  0  0  0
 14 18  1  0  0  0
  8 11  1  0  0  0
M  CHG 1  14   1
M  CHG 1  25  -1
M  END
> <minimizedAffinity>
-6.96056

$$$$
1O2O_950_A_246


 30 32  0  0  0  0  0  0  0  0999 V2000
   43.2647   -4.2450   29.8713 C   0  0  0  0  0  0  0  0  0  0  0  0
   43.8414   -3.1987   29.1015 C   0  0  0  0  0  0  0  0  0  0  0  0
   44.2362   -3.3638   27.7597 F   0  0  0  0  0  0  0  0  0  0  0  0
   44.0155   -1.9327   29.6524 C   0  0  0  0  0  0  0  0  0  0  0  0
   43.6174   -1.7156   30.9407 C   0  0  0  0  0  0  0  0  0  0  0  0
   43.0678   -2.6709   31.6988 C   0  0  0  0  0  0  0  0  0  0  0  0
   42.8715   -3.9527   31.2033 C   0  0  0  0  0  0  0  0  0  0  0  0
   43.6665   -0.6684   31.6789 N   0  0  0  0  0  0  0  0  0  0  0  0
   42.7633   -2.2488   32.9017 N   0  0  0  0  0  0  0  0  0  0  0  0
   43.1627   -0.9872   32.8316 C   0  0  0  0  0  0  0  0  0  0  0  0
   44.0203    0.2130   31.4197 H   0  0  0  0  0  0  0  0  0  0  0  0
   43.0891   -5.5442   29.3216 C   0  0  0  0  0  0  0  0  0  0  0  0
   43.6902   -6.6083   29.8126 N   0  0  0  0  0  0  0  0  0  0  0  0
   42.3202   -5.6712   28.2807 N   0  0  0  0  0  0  0  0  0  0  0  0
   44.2747   -6.5240   30.6004 H   0  0  0  0  0  0  0  0  0  0  0  0
   43.5551   -7.4881   29.3918 H   0  0  0  0  0  0  0  0  0  0  0  0
   41.8659   -4.8826   27.9052 H   0  0  0  0  0  0  0  0  0  0  0  0
   42.1925   -6.5559   27.8681 H   0  0  0  0  0  0  0  0  0  0  0  0
   43.0303   -0.0602   33.8842 C   0  0  0  0  0  0  0  0  0  0  0  0
   41.7882    0.1036   34.5000 C   0  0  0  0  0  0  0  0  0  0  0  0
   41.6373    1.0171   35.5434 C   0  0  0  0  0  0  0  0  0  0  0  0
   42.7021    1.7674   35.9849 C   0  0  0  0  0  0  0  0  0  0  0  0
   43.9497    1.6297   35.3985 C   0  0  0  0  0  0  0  0  0  0  0  0
   44.1184    0.7208   34.3462 C   0  0  0  0  0  0  0  0  0  0  0  0
   45.3632    0.6370   33.7620 O   0  0  0  0  0  0  0  0  0  0  0  0
   45.0326    2.3536   35.8783 O   0  0  0  0  0  0  0  0  0  0  0  0
   45.3014    2.6518   37.2662 C   0  0  0  0  0  0  0  0  0  0  0  0
   45.7356    1.3614   38.1306 C   0  0  0  0  0  0  0  0  0  0  0  0
   46.8583    0.5824   37.3877 C   0  0  0  0  0  0  0  0  0  0  0  0
   46.2827    1.7270   39.4942 C   0  0  0  0  0  0  0  0  0  0  0  0
  1  2  2  0  0  0
  1  7  1  0  0  0
  1 12  1  0  0  0
  2  3  1  0  0  0
  2  4  1  0  0  0
  4  5  2  0  0  0
  5  6  1  0  0  0
  5  8  1  0  0  0
  6  7  2  0  0  0
  6  9  1  0  0  0
 12 13  1  0  0  0
 12 14  2  0  0  0
  8 10  1  0  0  0
  9 10  2  0  0  0
 10 19  1  0  0  0
 19 20  2  0  0  0
 19 24  1  0  0  0
 20 21  1  0  0  0
 21 22  2  0  0  0
 22 23  1  0  0  0
 23 24  2  0  0  0
 23 26  1  0  0  0
 24 25  1  0  0  0
 26 27  1  0  0  0
 27 28  1  0  0  0
 28 29  1  0  0  0
 28 30  1  0  0  0
 13 15  1  0  0  0
 13 16  1  0  0  0
 14 17  1  0  0  0
 14 18  1  0  0  0
  8 11  1  0  0  0
M  CHG 1  14   1
M  CHG 1  25  -1
M  END
> <minimizedAffinity>
-6.92227

$$$$
1O2O_950_A_246


 30 32  0  0  0  0  0  0  0  0999 V2000
   43.9102   -2.3871   26.6284 C   0  0  0  0  0  0  0  0  0  0  0  0
   43.3368   -3.6245   27.0283 C   0  0  0  0  0  0  0  0  0  0  0  0
   43.2604   -4.7435   26.1765 F   0  0  0  0  0  0  0  0  0  0  0  0
   42.8424   -3.7873   28.3189 C   0  0  0  0  0  0  0  0  0  0  0  0
   42.9242   -2.7398   29.1916 C   0  0  0  0  0  0  0  0  0  0  0  0
   43.4586   -1.5599   28.8574 C   0  0  0  0  0  0  0  0  0  0  0  0
   43.9656   -1.3393   27.5840 C   0  0  0  0  0  0  0  0  0  0  0  0
   42.5486   -2.6206   30.4116 N   0  0  0  0  0  0  0  0  0  0  0  0
   43.4333   -0.6964   29.8431 N   0  0  0  0  0  0  0  0  0  0  0  0
   42.8504   -1.4166   30.7904 C   0  0  0  0  0  0  0  0  0  0  0  0
   42.1126   -3.3131   30.9589 H   0  0  0  0  0  0  0  0  0  0  0  0
   44.4113   -2.2068   25.3104 C   0  0  0  0  0  0  0  0  0  0  0  0
   44.2097   -1.1030   24.6206 N   0  0  0  0  0  0  0  0  0  0  0  0
   45.0742   -3.1846   24.7670 N   0  0  0  0  0  0  0  0  0  0  0  0
   43.7091   -0.3563   25.0219 H   0  0  0  0  0  0  0  0  0  0  0  0
   44.5595   -1.0248   23.7037 H   0  0  0  0  0  0  0  0  0  0  0  0
   45.2309   -4.0143   25.2733 H   0  0  0  0  0  0  0  0  0  0  0  0
   45.4194   -3.0952   23.8494 H   0  0  0  0  0  0  0  0  0  0  0  0
   42.6051   -0.9483   32.0963 C   0  0  0  0  0  0  0  0  0  0  0  0
   43.6813   -0.7276   32.9578 C   0  0  0  0  0  0  0  0  0  0  0  0
   43.4584   -0.2648   34.2547 C   0  0  0  0  0  0  0  0  0  0  0  0
   42.1834   -0.0159   34.7066 C   0  0  0  0  0  0  0  0  0  0  0  0
   41.0919   -0.2218   33.8786 C   0  0  0  0  0  0  0  0  0  0  0  0
   41.2967   -0.6910   32.5748 C   0  0  0  0  0  0  0  0  0  0  0  0
   40.1865   -0.9200   31.7919 O   0  0  0  0  0  0  0  0  0  0  0  0
   39.8106    0.0759   34.3220 O   0  0  0  0  0  0  0  0  0  0  0  0
   39.2302   -0.3487   35.5750 C   0  0  0  0  0  0  0  0  0  0  0  0
   39.0515    0.8480   36.6413 C   0  0  0  0  0  0  0  0  0  0  0  0
   40.1246    0.7219   37.7602 C   0  0  0  0  0  0  0  0  0  0  0  0
   39.2242    2.2175   36.0190 C   0  0  0  0  0  0  0  0  0  0  0  0
  1  2  2  0  0  0
  1  7  1  0  0  0
  1 12  1  0  0  0
  2  3  1  0  0  0
  2  4  1  0  0  0
  4  5  2  0  0  0
  5  6  1  0  0  0
  5  8  1  0  0  0
  6  7  2  0  0  0
  6  9  1  0  0  0
 12 13  1  0  0  0
 12 14  2  0  0  0
  8 10  1  0  0  0
  9 10  2  0  0  0
 10 19  1  0  0  0
 19 20  2  0  0  0
 19 24  1  0  0  0
 20 21  1  0  0  0
 21 22  2  0  0  0
 22 23  1  0  0  0
 23 24  2  0  0  0
 23 26  1  0  0  0
 24 25  1  0  0  0
 26 27  1  0  0  0
 27 28  1  0  0  0
 28 29  1  0  0  0
 28 30  1  0  0  0
 13 15  1  0  0  0
 13 16  1  0  0  0
 14 17  1  0  0  0
 14 18  1  0  0  0
  8 11  1  0  0  0
M  CHG 1  14   1
M  CHG 1  25  -1
M  END
> <minimizedAffinity>
-6.83244

$$$$
1O2O_950_A_246


 30 32  0  0  0  0  0  0  0  0999 V2000
   42.7566   -2.6336   29.0137 C   0  0  0  0  0  0  0  0  0  0  0  0
   41.4162   -2.4073   29.4286 C   0  0  0  0  0  0  0  0  0  0  0  0
   40.3019   -2.8763   28.7062 F   0  0  0  0  0  0  0  0  0  0  0  0
   41.1509   -1.7200   30.6092 C   0  0  0  0  0  0  0  0  0  0  0  0
   42.2005   -1.2740   31.3607 C   0  0  0  0  0  0  0  0  0  0  0  0
   43.4764   -1.4681   31.0087 C   0  0  0  0  0  0  0  0  0  0  0  0
   43.8012   -2.1451   29.8410 C   0  0  0  0  0  0  0  0  0  0  0  0
   42.2375   -0.6228   32.4645 N   0  0  0  0  0  0  0  0  0  0  0  0
   44.3216   -0.9566   31.8699 N   0  0  0  0  0  0  0  0  0  0  0  0
   43.4877   -0.4386   32.7599 C   0  0  0  0  0  0  0  0  0  0  0  0
   41.4623   -0.3191   32.9899 H   0  0  0  0  0  0  0  0  0  0  0  0
   43.0395   -3.3276   27.8058 C   0  0  0  0  0  0  0  0  0  0  0  0
   42.6684   -4.5748   27.6015 N   0  0  0  0  0  0  0  0  0  0  0  0
   43.7102   -2.7040   26.8826 N   0  0  0  0  0  0  0  0  0  0  0  0
   42.1602   -5.0567   28.2935 H   0  0  0  0  0  0  0  0  0  0  0  0
   42.8991   -5.0250   26.7570 H   0  0  0  0  0  0  0  0  0  0  0  0
   43.9928   -1.7717   27.0244 H   0  0  0  0  0  0  0  0  0  0  0  0
   43.9353   -3.1642   26.0419 H   0  0  0  0  0  0  0  0  0  0  0  0
   43.9004    0.2213   33.9343 C   0  0  0  0  0  0  0  0  0  0  0  0
   45.2343    0.6110   34.0678 C   0  0  0  0  0  0  0  0  0  0  0  0
   45.6620    1.2648   35.2234 C   0  0  0  0  0  0  0  0  0  0  0  0
   44.7841    1.5388   36.2461 C   0  0  0  0  0  0  0  0  0  0  0  0
   43.4528    1.1684   36.1471 C   0  0  0  0  0  0  0  0  0  0  0  0
   43.0068    0.5066   34.9960 C   0  0  0  0  0  0  0  0  0  0  0  0
   41.6855    0.1199   34.9476 O   0  0  0  0  0  0  0  0  0  0  0  0
   42.5596    1.4891   37.1603 O   0  0  0  0  0  0  0  0  0  0  0  0
   41.8651    2.7474   37.3073 C   0  0  0  0  0  0  0  0  0  0  0  0
   42.5673    3.7530   38.3546 C   0  0  0  0  0  0  0  0  0  0  0  0
   43.3086    2.9377   39.4523 C   0  0  0  0  0  0  0  0  0  0  0  0
   43.5976    4.6511   37.7032 C   0  0  0  0  0  0  0  0  0  0  0  0
  1  2  2  0  0  0
  1  7  1  0  0  0
  1 12  1  0  0  0
  2  3  1  0  0  0
  2  4  1  0  0  0
  4  5  2  0  0  0
  5  6  1  0  0  0
  5  8  1  0  0  0
  6  7  2  0  0  0
  6  9  1  0  0  0
 12 13  1  0  0  0
 12 14  2  0  0  0
  8 10  1  0  0  0
  9 10  2  0  0  0
 10 19  1  0  0  0
 19 20  2  0  0  0
 19 24  1  0  0  0
 20 21  1  0  0  0
 21 22  2  0  0  0
 22 23  1  0  0  0
 23 24  2  0  0  0
 23 26  1  0  0  0
 24 25  1  0  0  0
 26 27  1  0  0  0
 27 28  1  0  0  0
 28 29  1  0  0  0
 28 30  1  0  0  0
 13 15  1  0  0  0
 13 16  1  0  0  0
 14 17  1  0  0  0
 14 18  1  0  0  0
  8 11  1  0  0  0
M  CHG 1  14   1
M  CHG 1  25  -1
M  END
> <minimizedAffinity>
-6.81070

$$$$
