3NU5_478_B_401
  RCSB PDB12061709583D
Coordinates from PDB:3NU5:B:401 Model:1 without hydrogens
 35 37  0  0  0  0            999 V2000
   12.2590   18.0790   19.6550   C 0  0  0  0  0  0  0  0  0  0  0  0
   14.2270   18.9110   20.7220   C 0  0  0  0  0  0  0  0  0  0  0  0
   14.2680   20.6920   18.1470   C 0  0  0  0  0  0  0  0  0  0  0  0
   13.5910   18.7730   19.3470   C 0  0  0  0  0  0  0  0  0  0  0  0
   14.8880   22.8250   17.0530   C 0  0  0  0  0  0  0  0  0  0  0  0
   15.3150   23.9780   17.9440   C 0  0  0  0  0  0  0  0  0  0  0  0
   14.1940   23.3080   15.7640   C 0  0  0  0  0  0  0  0  0  0  0  0
   13.7020   22.1790   14.8740   C 0  0  0  0  0  0  0  0  0  0  0  0
   12.4060   21.6680   14.9230   C 0  0  0  0  0  0  0  0  0  0  0  0
   14.6020   21.5360   14.0300   C 0  0  0  0  0  0  0  0  0  0  0  0
   12.0540   20.6190   14.0760   C 0  0  0  0  0  0  0  0  0  0  0  0
   14.2960   20.4480   13.2210   C 0  0  0  0  0  0  0  0  0  0  0  0
   13.0140   19.9680   13.3370   C 0  0  0  0  0  0  0  0  0  0  0  0
   16.4030   24.8650   17.3430   C 0  0  0  0  0  0  0  0  0  0  0  0
   18.5990   24.6540   18.3040   C 0  0  0  0  0  0  0  0  0  0  0  0
   18.3630   24.0210   19.6900   C 0  0  0  0  0  0  0  0  0  0  0  0
   19.1580   25.3320   15.1520   C 0  0  0  0  0  0  0  0  0  0  0  0
   18.4640   26.3220   14.4760   C 0  0  0  0  0  0  0  0  0  0  0  0
   19.0550   27.5090   14.0460   C 0  0  0  0  0  0  0  0  0  0  0  0
   20.3860   27.7650   14.3370   C 0  0  0  0  0  0  0  0  0  0  0  0
   21.0890   26.7950   15.0530   C 0  0  0  0  0  0  0  0  0  0  0  0
   20.4660   25.6380   15.4930   C 0  0  0  0  0  0  0  0  0  0  0  0
   18.3950   22.4820   19.6160   C 0  0  0  0  0  0  0  0  0  0  0  0
   19.4180   24.4780   20.7050   C 0  0  0  0  0  0  0  0  0  0  0  0
   13.1390   18.4280   21.7020   C 0  0  0  0  0  0  0  0  0  0  0  0
   13.9610   21.9440   17.7890   N 0  0  0  0  0  0  0  0  0  0  0  0
   17.6870   24.2050   17.2780   N 0  0  0  0  0  0  0  0  0  0  0  0
   20.9780   28.8990   13.9660   N 0  0  0  0  0  0  0  0  0  0  0  0
   13.2540   20.0560   18.7630   O 0  0  0  0  0  0  0  0  0  0  0  0
   15.3510   20.1330   17.9320   O 0  0  0  0  0  0  0  0  0  0  0  0
   14.1660   24.7470   18.3090   O 0  0  0  0  0  0  0  0  0  0  0  0
   17.2420   23.5470   14.8720   O 0  0  0  0  0  0  0  0  0  0  0  0
   19.3230   22.7810   15.9720   O 0  0  0  0  0  0  0  0  0  0  0  0
   11.9120   18.5810   20.9540   O 0  0  0  0  0  0  0  0  0  0  0  0
   18.3540   23.9210   15.7970   S 0  0  0  0  0  0  0  0  0  0  0  0
  1  4  1  0  0  0  0
  1 34  1  0  0  0  0
  2  4  1  0  0  0  0
  2 25  1  0  0  0  0
  3 26  1  0  0  0  0
  3 29  1  0  0  0  0
  3 30  2  0  0  0  0
  4 29  1  0  0  0  0
  5  6  1  0  0  0  0
  5  7  1  0  0  0  0
  5 26  1  0  0  0  0
  6 14  1  0  0  0  0
  6 31  1  0  0  0  0
  7  8  1  0  0  0  0
  8  9  2  0  0  0  0
  8 10  1  0  0  0  0
  9 11  1  0  0  0  0
 10 12  2  0  0  0  0
 11 13  2  0  0  0  0
 12 13  1  0  0  0  0
 14 27  1  0  0  0  0
 15 16  1  0  0  0  0
 15 27  1  0  0  0  0
 16 23  1  0  0  0  0
 16 24  1  0  0  0  0
 17 18  2  0  0  0  0
 17 22  1  0  0  0  0
 17 35  1  0  0  0  0
 18 19  1  0  0  0  0
 19 20  2  0  0  0  0
 20 21  1  0  0  0  0
 20 28  1  0  0  0  0
 21 22  2  0  0  0  0
 25 34  1  0  0  0  0
 27 35  1  0  0  0  0
 32 35  2  0  0  0  0
 33 35  2  0  0  0  0
A    1
C1
A    2
C2
A    3
C3
A    4
C4
A    5
C5
A    6
C6
A    7
C7
A    8
C8
A    9
C9
A   10
C10
A   11
C11
A   12
C12
A   13
C13
A   14
C14
A   15
C15
A   16
C16
A   17
C17
A   18
C18
A   19
C19
A   20
C20
A   21
C21
A   22
C22
A   23
C23
A   24
C24
A   25
C25
A   26
N1
A   27
N2
A   28
N3
A   29
O1
A   30
O2
A   31
O3
A   32
O4
A   33
O5
A   34
O6
A   35
S1
M  END
>  <InstanceId>
3NU5_478_B_401

>  <ChemCompId>
478

>  <PdbId>
3NU5

>  <ChainId>
B

>  <ResidueNumber>
401

>  <InsertionCode>


>  <Model>
1

>  <AltIds>


>  <MissingHeavyAtoms>
0

>  <ObservedFormula>
C25 N3 O6 S

>  <Name>
{3-[(4-AMINO-BENZENESULFONYL)-ISOBUTYL-AMINO]-1-BENZYL-2-HYDROXY-PROPYL}-CARBAMIC ACID TETRAHYDRO-FURAN-3-YL ESTER

>  <SystematicName>
[(3S)-oxolan-3-yl] N-[(2S,3R)-4-[(4-aminophenyl)sulfonyl-(2-methylpropyl)amino]-3-hydroxy-1-phenyl-butan-2-yl]carbamate

>  <Synonyms>
Amprenavir

>  <Type>
NON-POLYMER

>  <Formula>
C25 H35 N3 O6 S

>  <MolecularWeight>
505.627

>  <ModifiedDate>
2011-06-04

>  <Parent>


>  <OneLetterCode>


>  <SubcomponentList>


>  <AmbiguousFlag>
N

>  <InChI>
InChI=1S/C25H35N3O6S/c1-18(2)15-28(35(31,32)22-10-8-20(26)9-11-22)16-24(29)23(14-19-6-4-3-5-7-19)27-25(30)34-21-12-13-33-17-21/h3-11,18,21,23-24,29H,12-17,26H2,1-2H3,(H,27,30)/t21-,23-,24+/m0/s1

>  <InChIKey>
YMARZQAQMVYCKC-OEMFJLHTSA-N

>  <SMILES>
CC(C)C[N@](C[C@H]([C@H](Cc1ccccc1)NC(=O)O[C@H]2CCOC2)O)S(=O)(=O)c3ccc(cc3)N

$$$$
