6FNG_DWT_A_1001
  RCSB PDB08181802393D
Coordinates from PDB:6FNG:A:1001 Model:1 without hydrogens
 37 41  0  0  0  0            999 V2000
 -109.0820  -11.8780   50.3750   F 0  0  0  0  0  0  0  0  0  0  0  0
 -108.9400  -11.7820   51.6550   C 0  0  0  0  0  0  0  0  0  0  0  0
 -107.8940  -11.0240   51.8700   F 0  0  0  0  0  0  0  0  0  0  0  0
 -110.0170  -11.1530   52.1660   F 0  0  0  0  0  0  0  0  0  0  0  0
 -108.7640  -13.0600   52.2460   C 0  0  0  0  0  0  0  0  0  0  0  0
 -107.9710  -14.0370   51.6170   C 0  0  0  0  0  0  0  0  0  0  0  0
 -109.3400  -13.3630   53.4810   C 0  0  0  0  0  0  0  0  0  0  0  0
 -109.1370  -14.6160   54.0630   C 0  0  0  0  0  0  0  0  0  0  0  0
 -108.3620  -15.5780   53.4180   C 0  0  0  0  0  0  0  0  0  0  0  0
 -107.7470  -15.3050   52.1950   C 0  0  0  0  0  0  0  0  0  0  0  0
 -107.0270  -16.3170   51.6150   N 0  0  0  0  0  0  0  0  0  0  0  0
 -106.0110  -16.1300   50.7220   C 0  0  0  0  0  0  0  0  0  0  0  0
 -105.6520  -15.0070   50.3340   O 0  0  0  0  0  0  0  0  0  0  0  0
 -105.5050  -17.2870   50.0670   C 0  0  0  0  0  0  0  0  0  0  0  0
 -104.5550  -17.1180   49.0560   C 0  0  0  0  0  0  0  0  0  0  0  0
 -105.9780  -18.5920   50.2850   C 0  0  0  0  0  0  0  0  0  0  0  0
 -105.4770  -19.6680   49.5370   C 0  0  0  0  0  0  0  0  0  0  0  0
 -104.5170  -19.4870   48.5400   C 0  0  0  0  0  0  0  0  0  0  0  0
 -104.0300  -20.5900   47.8070   C 0  0  0  0  0  0  0  0  0  0  0  0
 -104.0430  -18.1880   48.3210   C 0  0  0  0  0  0  0  0  0  0  0  0
 -103.1340  -17.9890   47.3400   N 0  0  0  0  0  0  0  0  0  0  0  0
 -101.8000  -17.7940   47.5030   C 0  0  0  0  0  0  0  0  0  0  0  0
 -101.1390  -17.2810   46.4500   N 0  0  0  0  0  0  0  0  0  0  0  0
 -101.1130  -18.1160   48.6320   C 0  0  0  0  0  0  0  0  0  0  0  0
 -101.3900  -18.6190   49.8480   C 0  0  0  0  0  0  0  0  0  0  0  0
 -100.2460  -18.6950   50.5430   N 0  0  0  0  0  0  0  0  0  0  0  0
 -100.0450  -19.1760   51.9370   C 0  0  0  0  0  0  0  0  0  0  0  0
  -99.3030  -18.2690   49.8480   N 0  0  0  0  0  0  0  0  0  0  0  0
  -99.7800  -17.9040   48.6600   C 0  0  0  0  0  0  0  0  0  0  0  0
  -99.1290  -17.3960   47.6040   N 0  0  0  0  0  0  0  0  0  0  0  0
  -99.8080  -17.0940   46.4930   C 0  0  0  0  0  0  0  0  0  0  0  0
  -99.1570  -16.5190   45.3970   C 0  0  0  0  0  0  0  0  0  0  0  0
  -97.7780  -16.3420   45.3730   C 0  0  0  0  0  0  0  0  0  0  0  0
  -97.1780  -15.7320   44.2740   C 0  0  0  0  0  0  0  0  0  0  0  0
  -97.9440  -15.2780   43.2090   C 0  0  0  0  0  0  0  0  0  0  0  0
  -99.3230  -15.4330   43.2290   N 0  0  0  0  0  0  0  0  0  0  0  0
  -99.9120  -16.0460   44.3370   C 0  0  0  0  0  0  0  0  0  0  0  0
 35 36  2  0  0  0  0
 35 34  1  0  0  0  0
 36 37  1  0  0  0  0
 34 33  2  0  0  0  0
 37 32  2  0  0  0  0
 33 32  1  0  0  0  0
 32 31  1  0  0  0  0
 23 31  1  0  0  0  0
 23 22  2  0  0  0  0
 31 30  2  0  0  0  0
 21 22  1  0  0  0  0
 21 20  1  0  0  0  0
 22 24  1  0  0  0  0
 30 29  1  0  0  0  0
 19 18  1  0  0  0  0
 20 18  2  0  0  0  0
 20 15  1  0  0  0  0
 18 17  1  0  0  0  0
 24 29  1  0  0  0  0
 24 25  2  0  0  0  0
 29 28  2  0  0  0  0
 15 14  2  0  0  0  0
 17 16  2  0  0  0  0
 28 26  1  0  0  0  0
 25 26  1  0  0  0  0
 14 16  1  0  0  0  0
 14 12  1  0  0  0  0
 13 12  2  0  0  0  0
  1  2  1  0  0  0  0
 26 27  1  0  0  0  0
 12 11  1  0  0  0  0
 11 10  1  0  0  0  0
  6 10  2  0  0  0  0
  6  5  1  0  0  0  0
  2  3  1  0  0  0  0
  2  4  1  0  0  0  0
  2  5  1  0  0  0  0
 10  9  1  0  0  0  0
  5  7  2  0  0  0  0
  9  8  2  0  0  0  0
  7  8  1  0  0  0  0
A    1
FBI
A    2
CBH
A    3
FBJ
A    4
FBK
A    5
CBF
A    6
CBD
A    7
CBG
A    8
CBE
A    9
CBC
A   10
CBB
A   11
NAZ
A   12
CAY
A   13
OBA
A   14
CAV
A   15
CAT
A   16
CAW
A   17
CAU
A   18
CAS
A   19
CAX
A   20
CAR
A   21
NAC
A   22
C6
A   23
N1
A   24
C5
A   25
CAH
A   26
NAI
A   27
CAK
A   28
NAJ
A   29
C4
A   30
N3
A   31
C2
A   32
CAL
A   33
CAN
A   34
CAP
A   35
CAQ
A   36
NAO
A   37
CAM
M  END
>  <InstanceId>
6FNG_DWT_A_1001

>  <ChemCompId>
DWT

>  <PdbId>
6FNG

>  <ChainId>
A

>  <ResidueNumber>
1001

>  <InsertionCode>


>  <Model>
1

>  <AltIds>


>  <MissingHeavyAtoms>
0

>  <ObservedFormula>
C26 N7 O F3

>  <Name>
4-methyl-3-[(2-methyl-6-pyridin-3-yl-pyrazolo[3,4-d]pyrimidin-4-yl)amino]-~{N}-[3-(trifluoromethyl)phenyl]benzamide

>  <SystematicName>
4-methyl-3-[(2-methyl-6-pyridin-3-yl-pyrazolo[3,4-d]pyrimidin-4-yl)amino]-~{N}-[3-(trifluoromethyl)phenyl]benzamide

>  <Synonyms>


>  <Type>
NON-POLYMER

>  <Formula>
C26 H20 F3 N7 O

>  <MolecularWeight>
503.479

>  <ModifiedDate>
2018-08-03

>  <Parent>


>  <OneLetterCode>


>  <SubcomponentList>


>  <AmbiguousFlag>
N

>  <InChI>
InChI=1S/C26H20F3N7O/c1-15-8-9-16(25(37)31-19-7-3-6-18(12-19)26(27,28)29)11-21(15)32-23-20-14-36(2)35-24(20)34-22(33-23)17-5-4-10-30-13-17/h3-14H,1-2H3,(H,31,37)(H,32,33,34,35)

>  <InChIKey>
MWKSRKSEWLRPBL-UHFFFAOYSA-N

>  <SMILES>
Cc1ccc(cc1Nc2c3cn(nc3nc(n2)c4cccnc4)C)C(=O)Nc5cccc(c5)C(F)(F)F

$$$$
