6FNG_DWT_A_1001


 39 43  0  0  0  0  0  0  0  0999 V2000
 -105.2972  -17.3037   49.9337 C   0  0  0  0  0  0  0  0  0  0  0  0
 -104.2817  -17.1947   48.9797 C   0  0  0  0  0  0  0  0  0  0  0  0
 -105.8147  -18.5887   50.1690 C   0  0  0  0  0  0  0  0  0  0  0  0
 -105.2943  -19.7033   49.4946 C   0  0  0  0  0  0  0  0  0  0  0  0
 -104.2694  -19.5820   48.5548 C   0  0  0  0  0  0  0  0  0  0  0  0
 -103.7645  -20.7227   47.8954 C   0  0  0  0  0  0  0  0  0  0  0  0
 -103.7509  -18.3031   48.3187 C   0  0  0  0  0  0  0  0  0  0  0  0
 -106.7817  -16.2537   51.4658 N   0  0  0  0  0  0  0  0  0  0  0  0
 -105.8148  -16.1116   50.5120 C   0  0  0  0  0  0  0  0  0  0  0  0
 -105.5151  -15.0152   50.0134 O   0  0  0  0  0  0  0  0  0  0  0  0
 -106.9676  -17.1615   51.7983 H   0  0  0  0  0  0  0  0  0  0  0  0
 -108.6196  -13.0196   51.8969 C   0  0  0  0  0  0  0  0  0  0  0  0
 -107.8217  -14.0210   51.3143 C   0  0  0  0  0  0  0  0  0  0  0  0
 -109.1118  -13.2262   53.1869 C   0  0  0  0  0  0  0  0  0  0  0  0
 -108.8226  -14.4100   53.8686 C   0  0  0  0  0  0  0  0  0  0  0  0
 -108.0441  -15.3987   53.2697 C   0  0  0  0  0  0  0  0  0  0  0  0
 -107.5110  -15.2194   51.9922 C   0  0  0  0  0  0  0  0  0  0  0  0
 -108.7848  -11.9779   49.9256 F   0  0  0  0  0  0  0  0  0  0  0  0
 -108.8836  -11.8108   51.2023 C   0  0  0  0  0  0  0  0  0  0  0  0
 -108.0191  -10.8858   51.5370 F   0  0  0  0  0  0  0  0  0  0  0  0
 -110.1162  -11.3450   51.4858 F   0  0  0  0  0  0  0  0  0  0  0  0
 -102.7775  -18.1620   47.3909 N   0  0  0  0  0  0  0  0  0  0  0  0
 -103.0478  -18.2478   46.4482 H   0  0  0  0  0  0  0  0  0  0  0  0
 -101.4640  -17.9137   47.6303 C   0  0  0  0  0  0  0  0  0  0  0  0
 -100.7755  -17.3311   46.6326 N   0  0  0  0  0  0  0  0  0  0  0  0
 -100.8205  -18.2480   48.7812 C   0  0  0  0  0  0  0  0  0  0  0  0
 -101.1346  -18.8096   49.9620 C   0  0  0  0  0  0  0  0  0  0  0  0
 -100.0248  -18.8610   50.7125 N   0  0  0  0  0  0  0  0  0  0  0  0
  -99.8721  -19.3861   52.0967 C   0  0  0  0  0  0  0  0  0  0  0  0
  -99.0690  -18.3665   50.0836 N   0  0  0  0  0  0  0  0  0  0  0  0
  -99.5020  -17.9775   48.8864 C   0  0  0  0  0  0  0  0  0  0  0  0
  -98.8231  -17.4003   47.8850 N   0  0  0  0  0  0  0  0  0  0  0  0
  -99.4586  -17.0863   46.7518 C   0  0  0  0  0  0  0  0  0  0  0  0
  -98.7808  -16.4406   45.7129 C   0  0  0  0  0  0  0  0  0  0  0  0
  -99.4536  -15.8988   44.6233 C   0  0  0  0  0  0  0  0  0  0  0  0
  -98.7327  -15.2962   43.5951 C   0  0  0  0  0  0  0  0  0  0  0  0
  -97.3458  -15.2489   43.6345 C   0  0  0  0  0  0  0  0  0  0  0  0
  -96.6619  -15.8017   44.7081 N   0  0  0  0  0  0  0  0  0  0  0  0
  -97.3967  -16.4031   45.7322 C   0  0  0  0  0  0  0  0  0  0  0  0
 37 38  2  0  0  0
 37 36  1  0  0  0
 38 39  1  0  0  0
 36 35  2  0  0  0
 39 34  2  0  0  0
 35 34  1  0  0  0
 34 33  1  0  0  0
 25 33  1  0  0  0
 25 24  2  0  0  0
 33 32  2  0  0  0
 22 24  1  0  0  0
 22  7  1  0  0  0
 24 26  1  0  0  0
 32 31  1  0  0  0
  6  5  1  0  0  0
  7  5  2  0  0  0
  7  2  1  0  0  0
  5  4  1  0  0  0
 26 31  1  0  0  0
 26 27  2  0  0  0
 31 30  2  0  0  0
  2  1  2  0  0  0
  4  3  2  0  0  0
 30 28  1  0  0  0
 27 28  1  0  0  0
  1  3  1  0  0  0
  1  9  1  0  0  0
 10  9  2  0  0  0
 18 19  1  0  0  0
 28 29  1  0  0  0
  9  8  1  0  0  0
  8 17  1  0  0  0
 13 17  2  0  0  0
 13 12  1  0  0  0
 19 20  1  0  0  0
 19 21  1  0  0  0
 19 12  1  0  0  0
 17 16  1  0  0  0
 12 14  2  0  0  0
 16 15  2  0  0  0
 14 15  1  0  0  0
  8 11  1  0  0  0
 22 23  1  0  0  0
M  END
> <minimizedAffinity>
-13.97353

$$$$
6FNG_DWT_A_1001


 39 43  0  0  0  0  0  0  0  0999 V2000
 -105.1981  -17.2406   49.8975 C   0  0  0  0  0  0  0  0  0  0  0  0
 -104.2270  -17.0981   48.9025 C   0  0  0  0  0  0  0  0  0  0  0  0
 -105.6293  -18.5467   50.1844 C   0  0  0  0  0  0  0  0  0  0  0  0
 -105.0690  -19.6469   49.5182 C   0  0  0  0  0  0  0  0  0  0  0  0
 -104.0888  -19.4912   48.5367 C   0  0  0  0  0  0  0  0  0  0  0  0
 -103.5418  -20.6179   47.8867 C   0  0  0  0  0  0  0  0  0  0  0  0
 -103.6563  -18.1911   48.2492 C   0  0  0  0  0  0  0  0  0  0  0  0
 -106.7218  -16.2387   51.4233 N   0  0  0  0  0  0  0  0  0  0  0  0
 -105.7638  -16.0655   50.4658 C   0  0  0  0  0  0  0  0  0  0  0  0
 -105.5111  -14.9624   49.9559 O   0  0  0  0  0  0  0  0  0  0  0  0
 -106.8691  -17.1502   51.7648 H   0  0  0  0  0  0  0  0  0  0  0  0
 -108.6605  -13.0620   51.8403 C   0  0  0  0  0  0  0  0  0  0  0  0
 -107.8208  -14.0347   51.2677 C   0  0  0  0  0  0  0  0  0  0  0  0
 -109.1774  -13.2953   53.1160 C   0  0  0  0  0  0  0  0  0  0  0  0
 -108.8710  -14.4774   53.7933 C   0  0  0  0  0  0  0  0  0  0  0  0
 -108.0508  -15.4377   53.2041 C   0  0  0  0  0  0  0  0  0  0  0  0
 -107.4926  -15.2306   51.9416 C   0  0  0  0  0  0  0  0  0  0  0  0
 -108.8699  -12.0215   49.8725 F   0  0  0  0  0  0  0  0  0  0  0  0
 -108.9419  -11.8541   51.1510 C   0  0  0  0  0  0  0  0  0  0  0  0
 -108.0727  -10.9270   51.4669 F   0  0  0  0  0  0  0  0  0  0  0  0
 -110.1693  -11.3910   51.4604 F   0  0  0  0  0  0  0  0  0  0  0  0
 -102.7281  -18.0185   47.2812 N   0  0  0  0  0  0  0  0  0  0  0  0
 -103.0424  -18.0770   46.3501 H   0  0  0  0  0  0  0  0  0  0  0  0
 -101.4054  -17.7724   47.4658 C   0  0  0  0  0  0  0  0  0  0  0  0
 -100.8809  -18.1773   48.6362 N   0  0  0  0  0  0  0  0  0  0  0  0
 -100.6162  -17.1236   46.5677 C   0  0  0  0  0  0  0  0  0  0  0  0
 -100.7477  -16.5907   45.3401 C   0  0  0  0  0  0  0  0  0  0  0  0
  -99.5622  -16.0845   44.9714 N   0  0  0  0  0  0  0  0  0  0  0  0
  -99.2072  -15.4041   43.6963 C   0  0  0  0  0  0  0  0  0  0  0  0
  -98.7238  -16.2782   45.8733 N   0  0  0  0  0  0  0  0  0  0  0  0
  -99.3207  -16.9098   46.8817 C   0  0  0  0  0  0  0  0  0  0  0  0
  -98.8077  -17.3134   48.0526 N   0  0  0  0  0  0  0  0  0  0  0  0
  -99.5919  -17.9387   48.9361 C   0  0  0  0  0  0  0  0  0  0  0  0
  -99.0663  -18.4103   50.1432 C   0  0  0  0  0  0  0  0  0  0  0  0
  -99.8794  -18.9335   51.1426 C   0  0  0  0  0  0  0  0  0  0  0  0
  -99.3140  -19.3582   52.3425 C   0  0  0  0  0  0  0  0  0  0  0  0
  -97.9479  -19.2455   52.5619 C   0  0  0  0  0  0  0  0  0  0  0  0
  -97.1282  -18.7087   51.5790 N   0  0  0  0  0  0  0  0  0  0  0  0
  -97.7078  -18.2865   50.3807 C   0  0  0  0  0  0  0  0  0  0  0  0
 37 38  2  0  0  0
 37 36  1  0  0  0
 38 39  1  0  0  0
 36 35  2  0  0  0
 39 34  2  0  0  0
 35 34  1  0  0  0
 34 33  1  0  0  0
 25 33  1  0  0  0
 25 24  2  0  0  0
 33 32  2  0  0  0
 22 24  1  0  0  0
 22  7  1  0  0  0
 24 26  1  0  0  0
 32 31  1  0  0  0
  6  5  1  0  0  0
  7  5  2  0  0  0
  7  2  1  0  0  0
  5  4  1  0  0  0
 26 31  1  0  0  0
 26 27  2  0  0  0
 31 30  2  0  0  0
  2  1  2  0  0  0
  4  3  2  0  0  0
 30 28  1  0  0  0
 27 28  1  0  0  0
  1  3  1  0  0  0
  1  9  1  0  0  0
 10  9  2  0  0  0
 18 19  1  0  0  0
 28 29  1  0  0  0
  9  8  1  0  0  0
  8 17  1  0  0  0
 13 17  2  0  0  0
 13 12  1  0  0  0
 19 20  1  0  0  0
 19 21  1  0  0  0
 19 12  1  0  0  0
 17 16  1  0  0  0
 12 14  2  0  0  0
 16 15  2  0  0  0
 14 15  1  0  0  0
  8 11  1  0  0  0
 22 23  1  0  0  0
M  END
> <minimizedAffinity>
-13.81562

$$$$
6FNG_DWT_A_1001


 39 43  0  0  0  0  0  0  0  0999 V2000
  -99.1836  -18.8524   51.9650 C   0  0  0  0  0  0  0  0  0  0  0  0
  -98.4127  -18.3216   50.9272 C   0  0  0  0  0  0  0  0  0  0  0  0
  -98.4997  -19.2580   53.1234 C   0  0  0  0  0  0  0  0  0  0  0  0
  -97.1105  -19.0924   53.2280 C   0  0  0  0  0  0  0  0  0  0  0  0
  -96.3545  -18.5469   52.1891 C   0  0  0  0  0  0  0  0  0  0  0  0
  -94.9589  -18.3899   52.3259 C   0  0  0  0  0  0  0  0  0  0  0  0
  -97.0332  -18.1409   51.0339 C   0  0  0  0  0  0  0  0  0  0  0  0
 -101.0415  -18.8145   50.4815 N   0  0  0  0  0  0  0  0  0  0  0  0
 -100.5742  -19.0533   51.7422 C   0  0  0  0  0  0  0  0  0  0  0  0
 -101.3223  -19.2503   52.7128 O   0  0  0  0  0  0  0  0  0  0  0  0
 -100.3800  -18.6535   49.7703 H   0  0  0  0  0  0  0  0  0  0  0  0
 -104.5279  -17.6604   49.7494 C   0  0  0  0  0  0  0  0  0  0  0  0
 -103.1840  -17.6320   50.1643 C   0  0  0  0  0  0  0  0  0  0  0  0
 -105.0620  -18.8703   49.3026 C   0  0  0  0  0  0  0  0  0  0  0  0
 -104.2665  -20.0172   49.2607 C   0  0  0  0  0  0  0  0  0  0  0  0
 -102.9323  -19.9672   49.6599 C   0  0  0  0  0  0  0  0  0  0  0  0
 -102.3681  -18.7833   50.1381 C   0  0  0  0  0  0  0  0  0  0  0  0
 -105.9621  -16.2937   48.7130 F   0  0  0  0  0  0  0  0  0  0  0  0
 -105.3314  -16.4931   49.8222 C   0  0  0  0  0  0  0  0  0  0  0  0
 -104.5920  -15.4343   50.0396 F   0  0  0  0  0  0  0  0  0  0  0  0
 -106.2296  -16.5813   50.8233 F   0  0  0  0  0  0  0  0  0  0  0  0
  -96.3140  -17.6367   50.0059 N   0  0  0  0  0  0  0  0  0  0  0  0
  -95.5919  -18.2034   49.6500 H   0  0  0  0  0  0  0  0  0  0  0  0
  -96.4888  -16.4263   49.4155 C   0  0  0  0  0  0  0  0  0  0  0  0
  -96.9850  -16.4384   48.1654 N   0  0  0  0  0  0  0  0  0  0  0  0
  -96.1628  -15.2394   49.9945 C   0  0  0  0  0  0  0  0  0  0  0  0
  -95.6715  -14.8164   51.1727 C   0  0  0  0  0  0  0  0  0  0  0  0
  -95.5816  -13.4792   51.1358 N   0  0  0  0  0  0  0  0  0  0  0  0
  -95.1058  -12.5579   52.2035 C   0  0  0  0  0  0  0  0  0  0  0  0
  -95.9884  -13.0609   50.0344 N   0  0  0  0  0  0  0  0  0  0  0  0
  -96.3538  -14.1031   49.2911 C   0  0  0  0  0  0  0  0  0  0  0  0
  -96.8451  -14.1252   48.0441 N   0  0  0  0  0  0  0  0  0  0  0  0
  -97.1511  -15.2958   47.4760 C   0  0  0  0  0  0  0  0  0  0  0  0
  -97.7091  -15.3390   46.1945 C   0  0  0  0  0  0  0  0  0  0  0  0
  -98.9903  -15.8300   45.9684 C   0  0  0  0  0  0  0  0  0  0  0  0
  -99.4902  -15.8863   44.6697 C   0  0  0  0  0  0  0  0  0  0  0  0
  -98.7153  -15.4771   43.5931 C   0  0  0  0  0  0  0  0  0  0  0  0
  -97.4287  -15.0015   43.8040 N   0  0  0  0  0  0  0  0  0  0  0  0
  -96.9394  -14.9506   45.1110 C   0  0  0  0  0  0  0  0  0  0  0  0
 37 38  2  0  0  0
 37 36  1  0  0  0
 38 39  1  0  0  0
 36 35  2  0  0  0
 39 34  2  0  0  0
 35 34  1  0  0  0
 34 33  1  0  0  0
 25 33  1  0  0  0
 25 24  2  0  0  0
 33 32  2  0  0  0
 22 24  1  0  0  0
 22  7  1  0  0  0
 24 26  1  0  0  0
 32 31  1  0  0  0
  6  5  1  0  0  0
  7  5  2  0  0  0
  7  2  1  0  0  0
  5  4  1  0  0  0
 26 31  1  0  0  0
 26 27  2  0  0  0
 31 30  2  0  0  0
  2  1  2  0  0  0
  4  3  2  0  0  0
 30 28  1  0  0  0
 27 28  1  0  0  0
  1  3  1  0  0  0
  1  9  1  0  0  0
 10  9  2  0  0  0
 18 19  1  0  0  0
 28 29  1  0  0  0
  9  8  1  0  0  0
  8 17  1  0  0  0
 13 17  2  0  0  0
 13 12  1  0  0  0
 19 20  1  0  0  0
 19 21  1  0  0  0
 19 12  1  0  0  0
 17 16  1  0  0  0
 12 14  2  0  0  0
 16 15  2  0  0  0
 14 15  1  0  0  0
  8 11  1  0  0  0
 22 23  1  0  0  0
M  END
> <minimizedAffinity>
-11.54255

$$$$
6FNG_DWT_A_1001


 39 43  0  0  0  0  0  0  0  0999 V2000
 -104.8919  -17.5003   49.9752 C   0  0  0  0  0  0  0  0  0  0  0  0
 -103.6574  -17.9524   50.4493 C   0  0  0  0  0  0  0  0  0  0  0  0
 -105.4358  -18.1757   48.8696 C   0  0  0  0  0  0  0  0  0  0  0  0
 -104.7720  -19.2762   48.3071 C   0  0  0  0  0  0  0  0  0  0  0  0
 -103.5463  -19.7267   48.8002 C   0  0  0  0  0  0  0  0  0  0  0  0
 -102.9049  -20.8390   48.2150 C   0  0  0  0  0  0  0  0  0  0  0  0
 -103.0022  -19.0564   49.9023 C   0  0  0  0  0  0  0  0  0  0  0  0
 -106.5176  -16.5067   51.3977 N   0  0  0  0  0  0  0  0  0  0  0  0
 -105.4550  -16.3312   50.5582 C   0  0  0  0  0  0  0  0  0  0  0  0
 -105.0938  -15.2157   50.1512 O   0  0  0  0  0  0  0  0  0  0  0  0
 -106.7464  -17.4272   51.6612 H   0  0  0  0  0  0  0  0  0  0  0  0
 -108.6783  -13.4635   51.7029 C   0  0  0  0  0  0  0  0  0  0  0  0
 -107.8543  -14.4497   51.1307 C   0  0  0  0  0  0  0  0  0  0  0  0
 -108.9344  -13.5222   53.0740 C   0  0  0  0  0  0  0  0  0  0  0  0
 -108.3898  -14.5493   53.8476 C   0  0  0  0  0  0  0  0  0  0  0  0
 -107.5890  -15.5276   53.2612 C   0  0  0  0  0  0  0  0  0  0  0  0
 -107.2874  -15.4893   51.8988 C   0  0  0  0  0  0  0  0  0  0  0  0
 -108.2847  -11.5559   50.6051 F   0  0  0  0  0  0  0  0  0  0  0  0
 -109.2035  -12.4110   50.9091 C   0  0  0  0  0  0  0  0  0  0  0  0
 -110.1345  -11.7597   51.5602 F   0  0  0  0  0  0  0  0  0  0  0  0
 -109.7501  -12.8846   49.7718 F   0  0  0  0  0  0  0  0  0  0  0  0
 -101.8018  -19.4604   50.3758 N   0  0  0  0  0  0  0  0  0  0  0  0
 -101.7923  -20.2843   50.9147 H   0  0  0  0  0  0  0  0  0  0  0  0
 -100.6081  -18.8428   50.1818 C   0  0  0  0  0  0  0  0  0  0  0  0
  -99.7770  -18.8053   51.2386 N   0  0  0  0  0  0  0  0  0  0  0  0
 -100.2369  -18.2459   49.0172 C   0  0  0  0  0  0  0  0  0  0  0  0
 -100.7509  -18.0752   47.7863 C   0  0  0  0  0  0  0  0  0  0  0  0
  -99.8677  -17.3823   47.0534 N   0  0  0  0  0  0  0  0  0  0  0  0
  -99.9815  -16.9588   45.6312 C   0  0  0  0  0  0  0  0  0  0  0  0
  -98.8581  -17.1300   47.7397 N   0  0  0  0  0  0  0  0  0  0  0  0
  -99.0346  -17.6346   48.9589 C   0  0  0  0  0  0  0  0  0  0  0  0
  -98.2146  -17.5988   50.0187 N   0  0  0  0  0  0  0  0  0  0  0  0
  -98.5910  -18.1759   51.1641 C   0  0  0  0  0  0  0  0  0  0  0  0
  -97.7318  -18.1918   52.2673 C   0  0  0  0  0  0  0  0  0  0  0  0
  -96.8257  -17.1644   52.5062 C   0  0  0  0  0  0  0  0  0  0  0  0
  -95.9652  -17.2412   53.5987 C   0  0  0  0  0  0  0  0  0  0  0  0
  -95.9862  -18.3439   54.4418 C   0  0  0  0  0  0  0  0  0  0  0  0
  -96.8737  -19.3839   54.2037 N   0  0  0  0  0  0  0  0  0  0  0  0
  -97.7309  -19.2944   53.1048 C   0  0  0  0  0  0  0  0  0  0  0  0
 37 38  2  0  0  0
 37 36  1  0  0  0
 38 39  1  0  0  0
 36 35  2  0  0  0
 39 34  2  0  0  0
 35 34  1  0  0  0
 34 33  1  0  0  0
 25 33  1  0  0  0
 25 24  2  0  0  0
 33 32  2  0  0  0
 22 24  1  0  0  0
 22  7  1  0  0  0
 24 26  1  0  0  0
 32 31  1  0  0  0
  6  5  1  0  0  0
  7  5  2  0  0  0
  7  2  1  0  0  0
  5  4  1  0  0  0
 26 31  1  0  0  0
 26 27  2  0  0  0
 31 30  2  0  0  0
  2  1  2  0  0  0
  4  3  2  0  0  0
 30 28  1  0  0  0
 27 28  1  0  0  0
  1  3  1  0  0  0
  1  9  1  0  0  0
 10  9  2  0  0  0
 18 19  1  0  0  0
 28 29  1  0  0  0
  9  8  1  0  0  0
  8 17  1  0  0  0
 13 17  2  0  0  0
 13 12  1  0  0  0
 19 20  1  0  0  0
 19 21  1  0  0  0
 19 12  1  0  0  0
 17 16  1  0  0  0
 12 14  2  0  0  0
 16 15  2  0  0  0
 14 15  1  0  0  0
  8 11  1  0  0  0
 22 23  1  0  0  0
M  END
> <minimizedAffinity>
-11.36928

$$$$
6FNG_DWT_A_1001


 39 43  0  0  0  0  0  0  0  0999 V2000
 -100.3146  -18.5211   49.3047 C   0  0  0  0  0  0  0  0  0  0  0  0
  -99.4064  -18.6928   50.3529 C   0  0  0  0  0  0  0  0  0  0  0  0
 -101.6709  -18.7481   49.5934 C   0  0  0  0  0  0  0  0  0  0  0  0
 -102.0774  -19.0923   50.8913 C   0  0  0  0  0  0  0  0  0  0  0  0
 -101.1608  -19.2460   51.9327 C   0  0  0  0  0  0  0  0  0  0  0  0
 -101.6012  -19.5894   53.2286 C   0  0  0  0  0  0  0  0  0  0  0  0
  -99.8088  -19.0196   51.6485 C   0  0  0  0  0  0  0  0  0  0  0  0
  -99.6262  -16.9333   47.6742 N   0  0  0  0  0  0  0  0  0  0  0  0
  -99.8058  -18.2459   48.0051 C   0  0  0  0  0  0  0  0  0  0  0  0
  -99.7230  -19.1676   47.1779 O   0  0  0  0  0  0  0  0  0  0  0  0
  -99.7240  -16.2630   48.3886 H   0  0  0  0  0  0  0  0  0  0  0  0
  -97.7675  -15.7763   44.6361 C   0  0  0  0  0  0  0  0  0  0  0  0
  -98.0179  -16.1847   45.9588 C   0  0  0  0  0  0  0  0  0  0  0  0
  -98.8466  -15.6648   43.7574 C   0  0  0  0  0  0  0  0  0  0  0  0
 -100.1395  -15.9670   44.1898 C   0  0  0  0  0  0  0  0  0  0  0  0
 -100.3673  -16.3862   45.4992 C   0  0  0  0  0  0  0  0  0  0  0  0
  -99.3192  -16.4848   46.4158 C   0  0  0  0  0  0  0  0  0  0  0  0
  -96.4441  -15.0272   42.9971 F   0  0  0  0  0  0  0  0  0  0  0  0
  -96.4520  -15.4474   44.2182 C   0  0  0  0  0  0  0  0  0  0  0  0
  -95.6734  -16.4992   44.2679 F   0  0  0  0  0  0  0  0  0  0  0  0
  -95.9129  -14.4978   45.0084 F   0  0  0  0  0  0  0  0  0  0  0  0
  -98.9032  -19.1916   52.6378 N   0  0  0  0  0  0  0  0  0  0  0  0
  -99.0931  -19.9002   53.2943 H   0  0  0  0  0  0  0  0  0  0  0  0
  -97.7579  -18.4840   52.8158 C   0  0  0  0  0  0  0  0  0  0  0  0
  -97.5298  -17.4882   51.9410 N   0  0  0  0  0  0  0  0  0  0  0  0
  -96.8394  -18.7478   53.7838 C   0  0  0  0  0  0  0  0  0  0  0  0
  -96.7016  -19.6090   54.8073 C   0  0  0  0  0  0  0  0  0  0  0  0
  -95.5371  -19.3522   55.4201 N   0  0  0  0  0  0  0  0  0  0  0  0
  -94.9514  -20.0314   56.6078 C   0  0  0  0  0  0  0  0  0  0  0  0
  -94.9661  -18.3990   54.8550 N   0  0  0  0  0  0  0  0  0  0  0  0
  -95.7220  -17.9920   53.8376 C   0  0  0  0  0  0  0  0  0  0  0  0
  -95.5013  -17.0041   52.9588 N   0  0  0  0  0  0  0  0  0  0  0  0
  -96.4018  -16.7587   52.0020 C   0  0  0  0  0  0  0  0  0  0  0  0
  -96.2145  -15.7027   51.1044 C   0  0  0  0  0  0  0  0  0  0  0  0
  -96.8328  -15.6801   49.8592 C   0  0  0  0  0  0  0  0  0  0  0  0
  -96.5880  -14.6242   48.9845 C   0  0  0  0  0  0  0  0  0  0  0  0
  -95.7153  -13.6024   49.3329 C   0  0  0  0  0  0  0  0  0  0  0  0
  -95.0784  -13.6227   50.5658 N   0  0  0  0  0  0  0  0  0  0  0  0
  -95.3325  -14.6872   51.4334 C   0  0  0  0  0  0  0  0  0  0  0  0
 37 38  2  0  0  0
 37 36  1  0  0  0
 38 39  1  0  0  0
 36 35  2  0  0  0
 39 34  2  0  0  0
 35 34  1  0  0  0
 34 33  1  0  0  0
 25 33  1  0  0  0
 25 24  2  0  0  0
 33 32  2  0  0  0
 22 24  1  0  0  0
 22  7  1  0  0  0
 24 26  1  0  0  0
 32 31  1  0  0  0
  6  5  1  0  0  0
  7  5  2  0  0  0
  7  2  1  0  0  0
  5  4  1  0  0  0
 26 31  1  0  0  0
 26 27  2  0  0  0
 31 30  2  0  0  0
  2  1  2  0  0  0
  4  3  2  0  0  0
 30 28  1  0  0  0
 27 28  1  0  0  0
  1  3  1  0  0  0
  1  9  1  0  0  0
 10  9  2  0  0  0
 18 19  1  0  0  0
 28 29  1  0  0  0
  9  8  1  0  0  0
  8 17  1  0  0  0
 13 17  2  0  0  0
 13 12  1  0  0  0
 19 20  1  0  0  0
 19 21  1  0  0  0
 19 12  1  0  0  0
 17 16  1  0  0  0
 12 14  2  0  0  0
 16 15  2  0  0  0
 14 15  1  0  0  0
  8 11  1  0  0  0
 22 23  1  0  0  0
M  END
> <minimizedAffinity>
-11.27862

$$$$
6FNG_DWT_A_1001


 39 43  0  0  0  0  0  0  0  0999 V2000
  -97.1172  -15.0592   48.6623 C   0  0  0  0  0  0  0  0  0  0  0  0
  -97.6654  -16.3107   48.9560 C   0  0  0  0  0  0  0  0  0  0  0  0
  -97.2648  -14.5922   47.3453 C   0  0  0  0  0  0  0  0  0  0  0  0
  -97.9684  -15.3464   46.3943 C   0  0  0  0  0  0  0  0  0  0  0  0
  -98.5240  -16.5886   46.7053 C   0  0  0  0  0  0  0  0  0  0  0  0
  -99.2293  -17.3219   45.7277 C   0  0  0  0  0  0  0  0  0  0  0  0
  -98.3794  -17.0563   48.0170 C   0  0  0  0  0  0  0  0  0  0  0  0
  -96.0076  -15.1350   50.7639 N   0  0  0  0  0  0  0  0  0  0  0  0
  -96.3558  -14.4000   49.6670 C   0  0  0  0  0  0  0  0  0  0  0  0
  -96.2003  -13.1703   49.6018 O   0  0  0  0  0  0  0  0  0  0  0  0
  -96.1782  -16.1043   50.7392 H   0  0  0  0  0  0  0  0  0  0  0  0
  -95.4521  -13.9093   54.2585 C   0  0  0  0  0  0  0  0  0  0  0  0
  -96.1125  -14.3987   53.1168 C   0  0  0  0  0  0  0  0  0  0  0  0
  -94.0871  -13.6304   54.1707 C   0  0  0  0  0  0  0  0  0  0  0  0
  -93.4005  -13.8487   52.9745 C   0  0  0  0  0  0  0  0  0  0  0  0
  -94.0670  -14.3497   51.8579 C   0  0  0  0  0  0  0  0  0  0  0  0
  -95.4367  -14.6161   51.8969 C   0  0  0  0  0  0  0  0  0  0  0  0
  -96.5919  -14.7723   55.9776 F   0  0  0  0  0  0  0  0  0  0  0  0
  -96.1683  -13.6678   55.4595 C   0  0  0  0  0  0  0  0  0  0  0  0
  -97.2203  -12.9225   55.2299 F   0  0  0  0  0  0  0  0  0  0  0  0
  -95.4004  -13.0294   56.3647 F   0  0  0  0  0  0  0  0  0  0  0  0
  -98.8861  -18.2703   48.3294 N   0  0  0  0  0  0  0  0  0  0  0  0
  -98.7082  -19.0016   47.6947 H   0  0  0  0  0  0  0  0  0  0  0  0
  -99.6159  -18.5812   49.4316 C   0  0  0  0  0  0  0  0  0  0  0  0
 -100.9472  -18.6678   49.2607 N   0  0  0  0  0  0  0  0  0  0  0  0
  -99.0868  -18.7680   50.6707 C   0  0  0  0  0  0  0  0  0  0  0  0
  -97.8654  -18.7746   51.2332 C   0  0  0  0  0  0  0  0  0  0  0  0
  -98.0050  -19.0382   52.5403 N   0  0  0  0  0  0  0  0  0  0  0  0
  -96.9416  -19.1597   53.5745 C   0  0  0  0  0  0  0  0  0  0  0  0
  -99.2111  -19.2011   52.8097 N   0  0  0  0  0  0  0  0  0  0  0  0
  -99.9220  -19.0409   51.6957 C   0  0  0  0  0  0  0  0  0  0  0  0
 -101.2481  -19.1212   51.5166 N   0  0  0  0  0  0  0  0  0  0  0  0
 -101.7627  -18.9236   50.2989 C   0  0  0  0  0  0  0  0  0  0  0  0
 -103.1382  -19.0495   50.0802 C   0  0  0  0  0  0  0  0  0  0  0  0
 -103.6540  -19.9444   49.1493 C   0  0  0  0  0  0  0  0  0  0  0  0
 -105.0296  -20.0092   48.9407 C   0  0  0  0  0  0  0  0  0  0  0  0
 -105.8926  -19.1741   49.6370 C   0  0  0  0  0  0  0  0  0  0  0  0
 -105.3886  -18.2644   50.5560 N   0  0  0  0  0  0  0  0  0  0  0  0
 -104.0075  -18.2094   50.7555 C   0  0  0  0  0  0  0  0  0  0  0  0
 37 38  2  0  0  0
 37 36  1  0  0  0
 38 39  1  0  0  0
 36 35  2  0  0  0
 39 34  2  0  0  0
 35 34  1  0  0  0
 34 33  1  0  0  0
 25 33  1  0  0  0
 25 24  2  0  0  0
 33 32  2  0  0  0
 22 24  1  0  0  0
 22  7  1  0  0  0
 24 26  1  0  0  0
 32 31  1  0  0  0
  6  5  1  0  0  0
  7  5  2  0  0  0
  7  2  1  0  0  0
  5  4  1  0  0  0
 26 31  1  0  0  0
 26 27  2  0  0  0
 31 30  2  0  0  0
  2  1  2  0  0  0
  4  3  2  0  0  0
 30 28  1  0  0  0
 27 28  1  0  0  0
  1  3  1  0  0  0
  1  9  1  0  0  0
 10  9  2  0  0  0
 18 19  1  0  0  0
 28 29  1  0  0  0
  9  8  1  0  0  0
  8 17  1  0  0  0
 13 17  2  0  0  0
 13 12  1  0  0  0
 19 20  1  0  0  0
 19 21  1  0  0  0
 19 12  1  0  0  0
 17 16  1  0  0  0
 12 14  2  0  0  0
 16 15  2  0  0  0
 14 15  1  0  0  0
  8 11  1  0  0  0
 22 23  1  0  0  0
M  END
> <minimizedAffinity>
-11.04921

$$$$
6FNG_DWT_A_1001


 39 43  0  0  0  0  0  0  0  0999 V2000
 -104.4955  -17.5478   49.7886 C   0  0  0  0  0  0  0  0  0  0  0  0
 -103.4829  -17.3922   48.8380 C   0  0  0  0  0  0  0  0  0  0  0  0
 -104.8613  -18.8632   50.1202 C   0  0  0  0  0  0  0  0  0  0  0  0
 -104.2003  -19.9565   49.5405 C   0  0  0  0  0  0  0  0  0  0  0  0
 -103.1801  -19.7865   48.6031 C   0  0  0  0  0  0  0  0  0  0  0  0
 -102.5317  -20.9063   48.0404 C   0  0  0  0  0  0  0  0  0  0  0  0
 -102.8126  -18.4770   48.2714 C   0  0  0  0  0  0  0  0  0  0  0  0
 -106.3176  -16.5757   50.9670 N   0  0  0  0  0  0  0  0  0  0  0  0
 -105.1611  -16.3849   50.2665 C   0  0  0  0  0  0  0  0  0  0  0  0
 -104.7816  -15.2673   49.8825 O   0  0  0  0  0  0  0  0  0  0  0  0
 -106.5529  -17.4973   51.2210 H   0  0  0  0  0  0  0  0  0  0  0  0
 -108.8125  -14.5062   52.8421 C   0  0  0  0  0  0  0  0  0  0  0  0
 -107.9933  -15.5941   52.4896 C   0  0  0  0  0  0  0  0  0  0  0  0
 -108.8094  -13.3764   52.0221 C   0  0  0  0  0  0  0  0  0  0  0  0
 -107.9973  -13.3337   50.8870 C   0  0  0  0  0  0  0  0  0  0  0  0
 -107.1794  -14.4142   50.5618 C   0  0  0  0  0  0  0  0  0  0  0  0
 -107.1735  -15.5724   51.3408 C   0  0  0  0  0  0  0  0  0  0  0  0
 -110.6044  -13.7049   53.9125 F   0  0  0  0  0  0  0  0  0  0  0  0
 -109.6520  -14.5741   53.9841 C   0  0  0  0  0  0  0  0  0  0  0  0
 -108.9742  -14.3130   55.0737 F   0  0  0  0  0  0  0  0  0  0  0  0
 -110.1926  -15.8014   54.1191 F   0  0  0  0  0  0  0  0  0  0  0  0
 -101.8460  -18.2927   47.3440 N   0  0  0  0  0  0  0  0  0  0  0  0
 -102.0867  -18.4840   46.4087 H   0  0  0  0  0  0  0  0  0  0  0  0
 -100.5762  -17.8700   47.5744 C   0  0  0  0  0  0  0  0  0  0  0  0
 -100.0605  -18.1608   48.7820 N   0  0  0  0  0  0  0  0  0  0  0  0
  -99.8350  -17.1567   46.6844 C   0  0  0  0  0  0  0  0  0  0  0  0
  -99.9751  -16.6899   45.4311 C   0  0  0  0  0  0  0  0  0  0  0  0
  -98.8482  -16.0472   45.0925 N   0  0  0  0  0  0  0  0  0  0  0  0
  -98.5231  -15.3726   43.8063 C   0  0  0  0  0  0  0  0  0  0  0  0
  -98.0359  -16.0975   46.0367 N   0  0  0  0  0  0  0  0  0  0  0  0
  -98.5941  -16.7649   47.0442 C   0  0  0  0  0  0  0  0  0  0  0  0
  -98.0900  -17.0559   48.2517 N   0  0  0  0  0  0  0  0  0  0  0  0
  -98.8286  -17.7458   49.1264 C   0  0  0  0  0  0  0  0  0  0  0  0
  -98.3051  -18.1012   50.3735 C   0  0  0  0  0  0  0  0  0  0  0  0
  -97.2788  -17.3781   50.9713 C   0  0  0  0  0  0  0  0  0  0  0  0
  -96.7653  -17.7913   52.1983 C   0  0  0  0  0  0  0  0  0  0  0  0
  -97.2521  -18.9313   52.8232 C   0  0  0  0  0  0  0  0  0  0  0  0
  -98.2642  -19.6714   52.2282 N   0  0  0  0  0  0  0  0  0  0  0  0
  -98.7700  -19.2464   50.9978 C   0  0  0  0  0  0  0  0  0  0  0  0
 37 38  2  0  0  0
 37 36  1  0  0  0
 38 39  1  0  0  0
 36 35  2  0  0  0
 39 34  2  0  0  0
 35 34  1  0  0  0
 34 33  1  0  0  0
 25 33  1  0  0  0
 25 24  2  0  0  0
 33 32  2  0  0  0
 22 24  1  0  0  0
 22  7  1  0  0  0
 24 26  1  0  0  0
 32 31  1  0  0  0
  6  5  1  0  0  0
  7  5  2  0  0  0
  7  2  1  0  0  0
  5  4  1  0  0  0
 26 31  1  0  0  0
 26 27  2  0  0  0
 31 30  2  0  0  0
  2  1  2  0  0  0
  4  3  2  0  0  0
 30 28  1  0  0  0
 27 28  1  0  0  0
  1  3  1  0  0  0
  1  9  1  0  0  0
 10  9  2  0  0  0
 18 19  1  0  0  0
 28 29  1  0  0  0
  9  8  1  0  0  0
  8 17  1  0  0  0
 13 17  2  0  0  0
 13 12  1  0  0  0
 19 20  1  0  0  0
 19 21  1  0  0  0
 19 12  1  0  0  0
 17 16  1  0  0  0
 12 14  2  0  0  0
 16 15  2  0  0  0
 14 15  1  0  0  0
  8 11  1  0  0  0
 22 23  1  0  0  0
M  END
> <minimizedAffinity>
-11.03776

$$$$
6FNG_DWT_A_1001


 39 43  0  0  0  0  0  0  0  0999 V2000
  -98.5710  -18.9156   52.2456 C   0  0  0  0  0  0  0  0  0  0  0  0
  -97.8466  -18.3306   51.2034 C   0  0  0  0  0  0  0  0  0  0  0  0
  -97.8615  -19.2279   53.4176 C   0  0  0  0  0  0  0  0  0  0  0  0
  -96.4969  -18.9218   53.5299 C   0  0  0  0  0  0  0  0  0  0  0  0
  -95.7889  -18.3237   52.4862 C   0  0  0  0  0  0  0  0  0  0  0  0
  -94.4175  -18.0249   52.6309 C   0  0  0  0  0  0  0  0  0  0  0  0
  -96.4932  -18.0104   51.3175 C   0  0  0  0  0  0  0  0  0  0  0  0
 -100.4796  -18.8650   50.8286 N   0  0  0  0  0  0  0  0  0  0  0  0
  -99.9321  -19.2592   52.0158 C   0  0  0  0  0  0  0  0  0  0  0  0
 -100.6064  -19.7249   52.9480 O   0  0  0  0  0  0  0  0  0  0  0  0
  -99.8754  -18.4924   50.1464 H   0  0  0  0  0  0  0  0  0  0  0  0
 -103.7273  -19.7247   49.1743 C   0  0  0  0  0  0  0  0  0  0  0  0
 -102.3424  -19.6309   49.4028 C   0  0  0  0  0  0  0  0  0  0  0  0
 -104.5956  -19.1220   50.0863 C   0  0  0  0  0  0  0  0  0  0  0  0
 -104.0892  -18.4548   51.2036 C   0  0  0  0  0  0  0  0  0  0  0  0
 -102.7148  -18.3859   51.4233 C   0  0  0  0  0  0  0  0  0  0  0  0
 -101.8126  -18.9524   50.5212 C   0  0  0  0  0  0  0  0  0  0  0  0
 -103.5172  -21.4248   47.7376 F   0  0  0  0  0  0  0  0  0  0  0  0
 -104.2264  -20.3834   48.0207 C   0  0  0  0  0  0  0  0  0  0  0  0
 -104.1800  -19.5917   46.9786 F   0  0  0  0  0  0  0  0  0  0  0  0
 -105.5079  -20.7636   48.1929 F   0  0  0  0  0  0  0  0  0  0  0  0
  -95.8178  -17.4568   50.2852 N   0  0  0  0  0  0  0  0  0  0  0  0
  -95.0455  -17.9602   49.9399 H   0  0  0  0  0  0  0  0  0  0  0  0
  -96.0991  -16.2754   49.6774 C   0  0  0  0  0  0  0  0  0  0  0  0
  -96.6805  -16.3508   48.4669 N   0  0  0  0  0  0  0  0  0  0  0  0
  -95.7979  -15.0564   50.2003 C   0  0  0  0  0  0  0  0  0  0  0  0
  -95.2486  -14.5731   51.3286 C   0  0  0  0  0  0  0  0  0  0  0  0
  -95.2341  -13.2348   51.2504 N   0  0  0  0  0  0  0  0  0  0  0  0
  -94.7350  -12.2584   52.2567 C   0  0  0  0  0  0  0  0  0  0  0  0
  -95.7394  -12.8714   50.1704 N   0  0  0  0  0  0  0  0  0  0  0  0
  -96.0991  -13.9531   49.4829 C   0  0  0  0  0  0  0  0  0  0  0  0
  -96.6750  -14.0382   48.2753 N   0  0  0  0  0  0  0  0  0  0  0  0
  -96.9563  -15.2396   47.7616 C   0  0  0  0  0  0  0  0  0  0  0  0
  -97.5999  -15.3502   46.5250 C   0  0  0  0  0  0  0  0  0  0  0  0
  -98.8830  -15.8738   46.4100 C   0  0  0  0  0  0  0  0  0  0  0  0
  -99.4696  -15.9972   45.1528 C   0  0  0  0  0  0  0  0  0  0  0  0
  -98.7791  -15.6229   44.0082 C   0  0  0  0  0  0  0  0  0  0  0  0
  -97.4912  -15.1154   44.1083 N   0  0  0  0  0  0  0  0  0  0  0  0
  -96.9146  -14.9971   45.3748 C   0  0  0  0  0  0  0  0  0  0  0  0
 37 38  2  0  0  0
 37 36  1  0  0  0
 38 39  1  0  0  0
 36 35  2  0  0  0
 39 34  2  0  0  0
 35 34  1  0  0  0
 34 33  1  0  0  0
 25 33  1  0  0  0
 25 24  2  0  0  0
 33 32  2  0  0  0
 22 24  1  0  0  0
 22  7  1  0  0  0
 24 26  1  0  0  0
 32 31  1  0  0  0
  6  5  1  0  0  0
  7  5  2  0  0  0
  7  2  1  0  0  0
  5  4  1  0  0  0
 26 31  1  0  0  0
 26 27  2  0  0  0
 31 30  2  0  0  0
  2  1  2  0  0  0
  4  3  2  0  0  0
 30 28  1  0  0  0
 27 28  1  0  0  0
  1  3  1  0  0  0
  1  9  1  0  0  0
 10  9  2  0  0  0
 18 19  1  0  0  0
 28 29  1  0  0  0
  9  8  1  0  0  0
  8 17  1  0  0  0
 13 17  2  0  0  0
 13 12  1  0  0  0
 19 20  1  0  0  0
 19 21  1  0  0  0
 19 12  1  0  0  0
 17 16  1  0  0  0
 12 14  2  0  0  0
 16 15  2  0  0  0
 14 15  1  0  0  0
  8 11  1  0  0  0
 22 23  1  0  0  0
M  END
> <minimizedAffinity>
-10.98859

$$$$
