1EW9_MMQ_A_559


  7  6  0  0  0  0  0  0  0  0999 V2000
   73.6349   41.1182   45.2474 P   0  0  0  0  0  0  0  0  0  0  0  0
   72.1692   41.5362   45.4651 O   0  0  0  0  0  0  0  0  0  0  0  0
   73.8086   40.5775   43.8255 O   0  0  0  0  0  0  0  0  0  0  0  0
   74.5092   42.2522   45.5100 O   0  0  0  0  0  0  0  0  0  0  0  0
   74.1772   38.2197   45.3982 S   0  0  0  0  0  0  0  0  0  0  0  0
   73.9943   39.7404   46.3819 C   0  0  0  0  0  0  0  0  0  0  0  0
   74.4466   37.1744   46.2254 H   0  0  0  0  0  0  0  0  0  0  0  0
  5  6  1  0  0  0
  1  2  2  0  0  0
  1  3  1  0  0  0
  1  4  1  0  0  0
  1  6  1  0  0  0
  5  7  1  0  0  0
M  CHG 1   3  -1
M  CHG 1   4  -1
M  END
> <minimizedAffinity>
-3.24790

$$$$
1EW9_MMQ_A_559


  7  6  0  0  0  0  0  0  0  0999 V2000
   73.5794   41.1149   45.2568 P   0  0  0  0  0  0  0  0  0  0  0  0
   73.8071   40.6203   43.8167 O   0  0  0  0  0  0  0  0  0  0  0  0
   74.5403   42.2674   45.5616 O   0  0  0  0  0  0  0  0  0  0  0  0
   72.1874   41.5072   45.4230 O   0  0  0  0  0  0  0  0  0  0  0  0
   74.1663   38.2253   45.4118 S   0  0  0  0  0  0  0  0  0  0  0  0
   74.0137   39.7550   46.3867 C   0  0  0  0  0  0  0  0  0  0  0  0
   74.4908   37.1931   46.2357 H   0  0  0  0  0  0  0  0  0  0  0  0
  5  6  1  0  0  0
  1  2  2  0  0  0
  1  3  1  0  0  0
  1  4  1  0  0  0
  1  6  1  0  0  0
  5  7  1  0  0  0
M  CHG 1   3  -1
M  CHG 1   4  -1
M  END
> <minimizedAffinity>
-3.24456

$$$$
1EW9_MMQ_A_559


  7  6  0  0  0  0  0  0  0  0999 V2000
   73.5878   41.0933   45.1865 P   0  0  0  0  0  0  0  0  0  0  0  0
   74.5658   42.2320   45.5288 O   0  0  0  0  0  0  0  0  0  0  0  0
   72.1500   41.5626   45.4251 O   0  0  0  0  0  0  0  0  0  0  0  0
   73.8004   40.6651   43.8115 O   0  0  0  0  0  0  0  0  0  0  0  0
   74.1918   38.2102   45.3894 S   0  0  0  0  0  0  0  0  0  0  0  0
   73.8956   39.7276   46.3504 C   0  0  0  0  0  0  0  0  0  0  0  0
   74.4247   37.1739   46.2388 H   0  0  0  0  0  0  0  0  0  0  0  0
  5  6  1  0  0  0
  1  2  2  0  0  0
  1  3  1  0  0  0
  1  4  1  0  0  0
  1  6  1  0  0  0
  5  7  1  0  0  0
M  CHG 1   3  -1
M  CHG 1   4  -1
M  END
> <minimizedAffinity>
-3.22628

$$$$
1EW9_MMQ_A_559


  7  6  0  0  0  0  0  0  0  0999 V2000
   73.6004   41.0978   44.9559 P   0  0  0  0  0  0  0  0  0  0  0  0
   72.6265   42.0191   44.1989 O   0  0  0  0  0  0  0  0  0  0  0  0
   74.1501   40.0356   43.9998 O   0  0  0  0  0  0  0  0  0  0  0  0
   74.6617   41.8957   45.5527 O   0  0  0  0  0  0  0  0  0  0  0  0
   71.5147   41.3972   47.0244 S   0  0  0  0  0  0  0  0  0  0  0  0
   72.6505   40.2147   46.2336 C   0  0  0  0  0  0  0  0  0  0  0  0
   70.7928   40.7595   47.9845 H   0  0  0  0  0  0  0  0  0  0  0  0
  5  6  1  0  0  0
  1  2  2  0  0  0
  1  3  1  0  0  0
  1  4  1  0  0  0
  1  6  1  0  0  0
  5  7  1  0  0  0
M  CHG 1   3  -1
M  CHG 1   4  -1
M  END
> <minimizedAffinity>
-3.04184

$$$$
1EW9_MMQ_A_559


  7  6  0  0  0  0  0  0  0  0999 V2000
   73.5921   41.1017   45.1614 P   0  0  0  0  0  0  0  0  0  0  0  0
   74.5563   42.2280   45.5762 O   0  0  0  0  0  0  0  0  0  0  0  0
   72.1480   41.5431   45.4144 O   0  0  0  0  0  0  0  0  0  0  0  0
   73.8196   40.7546   43.7661 O   0  0  0  0  0  0  0  0  0  0  0  0
   72.5900   39.6130   47.5062 S   0  0  0  0  0  0  0  0  0  0  0  0
   73.9042   39.6747   46.2482 C   0  0  0  0  0  0  0  0  0  0  0  0
   72.8019   38.5531   48.3315 H   0  0  0  0  0  0  0  0  0  0  0  0
  5  6  1  0  0  0
  1  2  2  0  0  0
  1  3  1  0  0  0
  1  4  1  0  0  0
  1  6  1  0  0  0
  5  7  1  0  0  0
M  CHG 1   3  -1
M  CHG 1   4  -1
M  END
> <minimizedAffinity>
-3.00456

$$$$
1EW9_MMQ_A_559


  7  6  0  0  0  0  0  0  0  0999 V2000
   74.1818   38.5483   45.4052 P   0  0  0  0  0  0  0  0  0  0  0  0
   75.2467   39.1382   46.3476 O   0  0  0  0  0  0  0  0  0  0  0  0
   72.8867   39.3565   45.5243 O   0  0  0  0  0  0  0  0  0  0  0  0
   74.6918   38.5337   44.0418 O   0  0  0  0  0  0  0  0  0  0  0  0
   75.3345   35.8780   45.9144 S   0  0  0  0  0  0  0  0  0  0  0  0
   73.8045   36.8622   45.9791 C   0  0  0  0  0  0  0  0  0  0  0  0
   75.0774   34.6120   46.3393 H   0  0  0  0  0  0  0  0  0  0  0  0
  5  6  1  0  0  0
  1  2  2  0  0  0
  1  3  1  0  0  0
  1  4  1  0  0  0
  1  6  1  0  0  0
  5  7  1  0  0  0
M  CHG 1   3  -1
M  CHG 1   4  -1
M  END
> <minimizedAffinity>
-3.00060

$$$$
1EW9_MMQ_A_559


  7  6  0  0  0  0  0  0  0  0999 V2000
   74.2480   38.3988   45.5514 P   0  0  0  0  0  0  0  0  0  0  0  0
   75.5279   38.5597   46.3918 O   0  0  0  0  0  0  0  0  0  0  0  0
   74.5577   38.6983   44.0822 O   0  0  0  0  0  0  0  0  0  0  0  0
   73.7112   37.0579   45.7330 O   0  0  0  0  0  0  0  0  0  0  0  0
   73.3756   41.1954   45.1825 S   0  0  0  0  0  0  0  0  0  0  0  0
   73.0570   39.6593   46.1058 C   0  0  0  0  0  0  0  0  0  0  0  0
   72.4965   42.1539   45.5800 H   0  0  0  0  0  0  0  0  0  0  0  0
  5  6  1  0  0  0
  1  2  2  0  0  0
  1  3  1  0  0  0
  1  4  1  0  0  0
  1  6  1  0  0  0
  5  7  1  0  0  0
M  CHG 1   3  -1
M  CHG 1   4  -1
M  END
> <minimizedAffinity>
-2.97986

$$$$
1EW9_MMQ_A_559


  7  6  0  0  0  0  0  0  0  0999 V2000
   74.2064   38.5598   45.4548 P   0  0  0  0  0  0  0  0  0  0  0  0
   72.8912   39.3571   45.5228 O   0  0  0  0  0  0  0  0  0  0  0  0
   74.6978   38.5027   44.0058 O   0  0  0  0  0  0  0  0  0  0  0  0
   75.1900   39.1658   46.3405 O   0  0  0  0  0  0  0  0  0  0  0  0
   73.3514   36.8536   47.7078 S   0  0  0  0  0  0  0  0  0  0  0  0
   73.8446   36.8471   45.9556 C   0  0  0  0  0  0  0  0  0  0  0  0
   73.0755   35.5827   48.1057 H   0  0  0  0  0  0  0  0  0  0  0  0
  5  6  1  0  0  0
  1  2  2  0  0  0
  1  3  1  0  0  0
  1  4  1  0  0  0
  1  6  1  0  0  0
  5  7  1  0  0  0
M  CHG 1   3  -1
M  CHG 1   4  -1
M  END
> <minimizedAffinity>
-2.94412

$$$$
1EW9_MMQ_A_559


  7  6  0  0  0  0  0  0  0  0999 V2000
   74.1302   38.6253   45.4271 P   0  0  0  0  0  0  0  0  0  0  0  0
   74.6279   38.6390   43.9703 O   0  0  0  0  0  0  0  0  0  0  0  0
   75.2102   39.2060   46.3440 O   0  0  0  0  0  0  0  0  0  0  0  0
   72.8796   39.3645   45.5218 O   0  0  0  0  0  0  0  0  0  0  0  0
   75.4695   36.2738   46.6081 S   0  0  0  0  0  0  0  0  0  0  0  0
   73.9002   36.8877   45.9196 C   0  0  0  0  0  0  0  0  0  0  0  0
   75.3224   34.9751   46.9839 H   0  0  0  0  0  0  0  0  0  0  0  0
  5  6  1  0  0  0
  1  2  2  0  0  0
  1  3  1  0  0  0
  1  4  1  0  0  0
  1  6  1  0  0  0
  5  7  1  0  0  0
M  CHG 1   3  -1
M  CHG 1   4  -1
M  END
> <minimizedAffinity>
-2.93645

$$$$
1EW9_MMQ_A_559


  7  6  0  0  0  0  0  0  0  0999 V2000
   74.2377   38.5073   45.5777 P   0  0  0  0  0  0  0  0  0  0  0  0
   74.5512   38.7345   44.0876 O   0  0  0  0  0  0  0  0  0  0  0  0
   73.6334   37.1134   45.7683 O   0  0  0  0  0  0  0  0  0  0  0  0
   75.4495   38.6884   46.3638 O   0  0  0  0  0  0  0  0  0  0  0  0
   72.4738   39.3618   47.7860 S   0  0  0  0  0  0  0  0  0  0  0  0
   72.9579   39.7069   46.0655 C   0  0  0  0  0  0  0  0  0  0  0  0
   71.5168   40.2468   48.1739 H   0  0  0  0  0  0  0  0  0  0  0  0
  5  6  1  0  0  0
  1  2  2  0  0  0
  1  3  1  0  0  0
  1  4  1  0  0  0
  1  6  1  0  0  0
  5  7  1  0  0  0
M  CHG 1   3  -1
M  CHG 1   4  -1
M  END
> <minimizedAffinity>
-2.91280

$$$$
