4GQP_B40_H_1201
  RCSB PDB12061712453D
Coordinates from PDB:4GQP:H:1201 Model:1 without hydrogens
 11 11  0  0  0  0            999 V2000
   -2.2240   -2.0410   15.2970   N 0  0  0  0  0  0  0  0  0  0  0  0
   -2.8150   -3.4030   15.5240   C 0  0  0  0  0  0  0  0  0  0  0  0
   -1.6300   -4.3280   15.3530   C 0  0  0  0  0  0  0  0  0  0  0  0
   -3.3150   -3.6640   17.0270   C 0  0  0  0  0  0  0  0  0  0  0  0
   -4.0300   -4.9260   17.2130   C 0  0  0  0  0  0  0  0  0  0  0  0
   -3.3680   -6.0190   17.7230   C 0  0  0  0  0  0  0  0  0  0  0  0
   -5.4040   -5.0520   16.9880   C 0  0  0  0  0  0  0  0  0  0  0  0
   -4.0710   -7.1960   17.9670   C 0  0  0  0  0  0  0  0  0  0  0  0
   -6.1350   -6.2430   17.1710   C 0  0  0  0  0  0  0  0  0  0  0  0
   -5.4650   -7.3510   17.6720   C 0  0  0  0  0  0  0  0  0  0  0  0
   -3.3880   -1.0880   15.2610   C 0  0  0  0  0  0  0  0  0  0  0  0
  1 11  1  0  0  0  0
  1  2  1  0  0  0  0
  3  2  1  0  0  0  0
  2  4  1  0  0  0  0
  4  5  1  0  0  0  0
  7  5  2  0  0  0  0
  5  6  1  0  0  0  0
  6  8  2  0  0  0  0
  7  9  1  0  0  0  0
 10  8  1  0  0  0  0
  9 10  2  0  0  0  0
A    1
N
A    2
CA
A    3
C
A    4
CB
A    5
CG
A    6
CD1
A    7
CD2
A    8
CE1
A    9
CE2
A   10
CZ
A   11
CM
M  END
>  <InstanceId>
4GQP_B40_H_1201

>  <ChemCompId>
B40

>  <PdbId>
4GQP

>  <ChainId>
H

>  <ResidueNumber>
1201

>  <InsertionCode>


>  <Model>
1

>  <AltIds>


>  <MissingHeavyAtoms>
0

>  <ObservedFormula>
C10 N

>  <Name>
(2S)-N-methyl-1-phenylpropan-2-amine

>  <SystematicName>
(2S)-N-methyl-1-phenyl-propan-2-amine

>  <Synonyms>
Methamphetamine

>  <Type>
NON-POLYMER

>  <Formula>
C10 H15 N

>  <MolecularWeight>
149.233

>  <ModifiedDate>
2011-06-04

>  <Parent>


>  <OneLetterCode>


>  <SubcomponentList>


>  <AmbiguousFlag>
N

>  <InChI>
InChI=1S/C10H15N/c1-9(11-2)8-10-6-4-3-5-7-10/h3-7,9,11H,8H2,1-2H3/t9-/m0/s1

>  <InChIKey>
MYWUZJCMWCOHBA-VIFPVBQESA-N

>  <SMILES>
C[C@@H](Cc1ccccc1)NC

$$$$
