2WN9_ZY5_A_301
  RCSB PDB12061707173D
Coordinates from PDB:2WN9:A:301 Model:1 without hydrogens
 22 24  0  0  0  0            999 V2000
   30.2280   -6.5920   62.6450   C 0  0  0  0  0  0  0  0  0  0  0  0
   30.9340   -7.0840   63.8860   C 0  0  0  0  0  0  0  0  0  0  0  0
   30.6000   -8.3240   64.3910   C 0  0  0  0  0  0  0  0  0  0  0  0
   29.6330   -8.9900   63.6950   O 0  0  0  0  0  0  0  0  0  0  0  0
   29.1650  -10.3310   63.9660   C 0  0  0  0  0  0  0  0  0  0  0  0
   31.2340   -8.8180   65.5450   C 0  0  0  0  0  0  0  0  0  0  0  0
   31.9230   -6.3420   64.5230   C 0  0  0  0  0  0  0  0  0  0  0  0
   32.5380   -6.8190   65.6690   C 0  0  0  0  0  0  0  0  0  0  0  0
   32.2130   -8.0570   66.1800   C 0  0  0  0  0  0  0  0  0  0  0  0
   32.8390   -8.5060   67.3310   O 0  0  0  0  0  0  0  0  0  0  0  0
   29.9340   -5.2960   62.4020   C 0  0  0  0  0  0  0  0  0  0  0  0
   30.2990   -4.1670   63.3450   C 0  0  0  0  0  0  0  0  0  0  0  0
   29.4730   -2.9140   63.1080   C 0  0  0  0  0  0  0  0  0  0  0  0
   29.5500   -2.5090   61.6510   C 0  0  0  0  0  0  0  0  0  0  0  0
   29.0780   -3.6860   60.9320   N 0  0  0  0  0  0  0  0  0  0  0  0
   29.2950   -4.9260   61.1410   C 0  0  0  0  0  0  0  0  0  0  0  0
   28.9180   -5.8840   60.0420   C 0  0  0  0  0  0  0  0  0  0  0  0
   27.5920   -6.0490   59.6700   C 0  0  0  0  0  0  0  0  0  0  0  0
   27.2420   -6.8530   58.6610   N 0  0  0  0  0  0  0  0  0  0  0  0
   28.1700   -7.5360   57.9760   C 0  0  0  0  0  0  0  0  0  0  0  0
   29.5370   -7.3990   58.3000   C 0  0  0  0  0  0  0  0  0  0  0  0
   29.9110   -6.5710   59.3450   C 0  0  0  0  0  0  0  0  0  0  0  0
  1  2  1  0  0  0  0
  1 11  2  0  0  0  0
  2  3  1  0  0  0  0
  2  7  2  0  0  0  0
  3  4  1  0  0  0  0
  3  6  2  0  0  0  0
  4  5  1  0  0  0  0
  6  9  1  0  0  0  0
  7  8  1  0  0  0  0
  8  9  2  0  0  0  0
  9 10  1  0  0  0  0
 11 12  1  0  0  0  0
 11 16  1  0  0  0  0
 12 13  1  0  0  0  0
 13 14  1  0  0  0  0
 14 15  1  0  0  0  0
 15 16  2  0  0  0  0
 16 17  1  0  0  0  0
 17 18  1  0  0  0  0
 17 22  2  0  0  0  0
 18 19  2  0  0  0  0
 19 20  1  0  0  0  0
 20 21  2  0  0  0  0
 21 22  1  0  0  0  0
A    1
C7
A    2
C4
A    3
C3
A    4
O21
A    5
C22
A    6
C2
A    7
C5
A    8
C6
A    9
C1
A   10
O20
A   11
C8
A   12
C13
A   13
C12
A   14
C11
A   15
N10
A   16
C9
A   17
C14
A   18
C19
A   19
N18
A   20
C17
A   21
C16
A   22
C15
M  END
>  <InstanceId>
2WN9_ZY5_A_301

>  <ChemCompId>
ZY5

>  <PdbId>
2WN9

>  <ChainId>
A

>  <ResidueNumber>
301

>  <InsertionCode>


>  <Model>
1

>  <AltIds>


>  <MissingHeavyAtoms>
0

>  <ObservedFormula>
C18 N2 O2

>  <Name>
4-[(E)-5,6-DIHYDRO-2,3'-BIPYRIDIN-3(4H)-YLIDENEMETHYL]-3-METHOXYPHENOL

>  <SystematicName>
3-methoxy-4-[(E)-(2-pyridin-3-yl-5,6-dihydro-4H-pyridin-3-ylidene)methyl]phenol

>  <Synonyms>


>  <Type>
non-polymer

>  <Formula>
C18 H18 N2 O2

>  <MolecularWeight>
294.348

>  <ModifiedDate>
2011-06-04

>  <Parent>


>  <OneLetterCode>


>  <SubcomponentList>


>  <AmbiguousFlag>
N

>  <InChI>
InChI=1S/C18H18N2O2/c1-22-17-11-16(21)7-6-13(17)10-14-4-3-9-20-18(14)15-5-2-8-19-12-15/h2,5-8,10-12,21H,3-4,9H2,1H3/b14-10+

>  <InChIKey>
KXAAIPFSUGPVMQ-GXDHUFHOSA-N

>  <SMILES>
COc1cc(ccc1\C=C\2/CCCN=C2c3cccnc3)O

$$$$
