3CJ4_SX5_A_571


 27 28  0  0  0  0  0  0  0  0999 V2000
  -23.6772    7.9984  -14.8525 C   0  0  0  0  0  0  0  0  0  0  0  0
  -22.6148    7.1248  -14.5814 C   0  0  0  0  0  0  0  0  0  0  0  0
  -21.6141    7.4829  -13.6771 C   0  0  0  0  0  0  0  0  0  0  0  0
  -21.6835    8.7231  -13.0398 C   0  0  0  0  0  0  0  0  0  0  0  0
  -20.3229    9.1771  -11.8221 Br  0  0  0  0  0  0  0  0  0  0  0  0
  -22.7277    9.6138  -13.2842 C   0  0  0  0  0  0  0  0  0  0  0  0
  -23.7357    9.2471  -14.1836 C   0  0  0  0  0  0  0  0  0  0  0  0
  -24.8240   10.2192  -14.4530 C   0  0  0  0  0  0  0  0  0  0  0  0
  -24.5869   11.0298  -15.3494 O   0  0  0  0  0  0  0  0  0  0  0  0
  -26.0394   10.2046  -13.7595 N   0  0  0  0  0  0  0  0  0  0  0  0
  -26.2256    9.5090  -12.4689 C   0  0  0  0  0  0  0  0  0  0  0  0
  -26.6625   10.3926  -11.3019 C   0  0  0  0  0  0  0  0  0  0  0  0
  -27.0534    9.5306  -10.1009 C   0  0  0  0  0  0  0  0  0  0  0  0
  -27.8164   11.3145  -11.6943 C   0  0  0  0  0  0  0  0  0  0  0  0
  -27.0208   11.2665  -14.0558 C   0  0  0  0  0  0  0  0  0  0  0  0
  -27.3832   12.1697  -12.8742 C   0  0  0  0  0  0  0  0  0  0  0  0
  -28.4615   13.1813  -13.2545 C   0  0  0  0  0  0  0  0  0  0  0  0
  -25.8137    6.8923  -15.4013 C   0  0  0  0  0  0  0  0  0  0  0  0
  -26.0290    6.4236  -14.2801 O   0  0  0  0  0  0  0  0  0  0  0  0
  -24.7102    7.6448  -15.7487 N   0  0  0  0  0  0  0  0  0  0  0  0
  -24.6385    7.9550  -16.6803 H   0  0  0  0  0  0  0  0  0  0  0  0
  -26.7446    6.7038  -16.5895 C   0  0  0  0  0  0  0  0  0  0  0  0
  -26.1132    5.9210  -17.7348 C   0  0  0  0  0  0  0  0  0  0  0  0
  -26.5870    7.0525  -19.8612 O   0  0  0  0  0  0  0  0  0  0  0  0
  -25.8491    6.8066  -18.9176 C   0  0  0  0  0  0  0  0  0  0  0  0
  -24.6269    7.3576  -18.8490 O   0  0  0  0  0  0  0  0  0  0  0  0
  -24.0662    7.1651  -18.1233 H   0  0  0  0  0  0  0  0  0  0  0  0
 24 25  2  0  0  0
 25 26  1  0  0  0
 25 23  1  0  0  0
 22 23  1  0  0  0
 18 22  1  0  0  0
 19 18  2  0  0  0
 20 18  1  0  0  0
  1 20  1  0  0  0
  2  1  2  0  0  0
  7  1  1  0  0  0
  3  2  1  0  0  0
  4  3  2  0  0  0
  5  4  1  0  0  0
  4  6  1  0  0  0
  6  7  2  0  0  0
  7  8  1  0  0  0
  8 10  1  0  0  0
  8  9  2  0  0  0
 11 10  1  0  0  0
 10 15  1  0  0  0
 12 11  1  0  0  0
 13 12  1  0  0  0
 12 14  1  0  0  0
 14 16  1  0  0  0
 16 15  1  0  0  0
 16 17  1  0  0  0
 26 27  1  0  0  0
 20 21  1  0  0  0
M  END
> <minimizedAffinity>
-7.89770

$$$$
3CJ4_SX5_A_571


 27 28  0  0  0  0  0  0  0  0999 V2000
  -23.9267    7.8215  -14.5373 C   0  0  0  0  0  0  0  0  0  0  0  0
  -22.8478    6.9699  -14.2612 C   0  0  0  0  0  0  0  0  0  0  0  0
  -21.7519    7.4272  -13.5283 C   0  0  0  0  0  0  0  0  0  0  0  0
  -21.7419    8.7451  -13.0679 C   0  0  0  0  0  0  0  0  0  0  0  0
  -20.2533    9.3326  -12.0784 Br  0  0  0  0  0  0  0  0  0  0  0  0
  -22.7997    9.6168  -13.3221 C   0  0  0  0  0  0  0  0  0  0  0  0
  -23.9025    9.1519  -14.0481 C   0  0  0  0  0  0  0  0  0  0  0  0
  -25.0062   10.1018  -14.3336 C   0  0  0  0  0  0  0  0  0  0  0  0
  -24.8030   10.8664  -15.2776 O   0  0  0  0  0  0  0  0  0  0  0  0
  -26.1998   10.1154  -13.6032 N   0  0  0  0  0  0  0  0  0  0  0  0
  -26.3410    9.4864  -12.2733 C   0  0  0  0  0  0  0  0  0  0  0  0
  -26.7492   10.4265  -11.1405 C   0  0  0  0  0  0  0  0  0  0  0  0
  -27.0964    9.6254   -9.8851 C   0  0  0  0  0  0  0  0  0  0  0  0
  -27.9218   11.3195  -11.5442 C   0  0  0  0  0  0  0  0  0  0  0  0
  -27.1981   11.1542  -13.9234 C   0  0  0  0  0  0  0  0  0  0  0  0
  -27.5315   12.1150  -12.7794 C   0  0  0  0  0  0  0  0  0  0  0  0
  -28.6290   13.0987  -13.1779 C   0  0  0  0  0  0  0  0  0  0  0  0
  -26.0279    6.5431  -14.7385 C   0  0  0  0  0  0  0  0  0  0  0  0
  -26.0306    6.0834  -13.5931 O   0  0  0  0  0  0  0  0  0  0  0  0
  -25.0539    7.3706  -15.2595 N   0  0  0  0  0  0  0  0  0  0  0  0
  -25.1509    7.6653  -16.1938 H   0  0  0  0  0  0  0  0  0  0  0  0
  -27.1124    6.2584  -15.7664 C   0  0  0  0  0  0  0  0  0  0  0  0
  -27.8980    4.9840  -15.4800 C   0  0  0  0  0  0  0  0  0  0  0  0
  -26.4145    3.3139  -16.4979 O   0  0  0  0  0  0  0  0  0  0  0  0
  -27.0105    3.7747  -15.5348 C   0  0  0  0  0  0  0  0  0  0  0  0
  -26.9145    3.1874  -14.3314 O   0  0  0  0  0  0  0  0  0  0  0  0
  -27.3737    3.5455  -13.5974 H   0  0  0  0  0  0  0  0  0  0  0  0
 24 25  2  0  0  0
 25 26  1  0  0  0
 25 23  1  0  0  0
 22 23  1  0  0  0
 18 22  1  0  0  0
 19 18  2  0  0  0
 20 18  1  0  0  0
  1 20  1  0  0  0
  2  1  2  0  0  0
  7  1  1  0  0  0
  3  2  1  0  0  0
  4  3  2  0  0  0
  5  4  1  0  0  0
  4  6  1  0  0  0
  6  7  2  0  0  0
  7  8  1  0  0  0
  8 10  1  0  0  0
  8  9  2  0  0  0
 11 10  1  0  0  0
 10 15  1  0  0  0
 12 11  1  0  0  0
 13 12  1  0  0  0
 12 14  1  0  0  0
 14 16  1  0  0  0
 16 15  1  0  0  0
 16 17  1  0  0  0
 26 27  1  0  0  0
 20 21  1  0  0  0
M  END
> <minimizedAffinity>
-7.39256

$$$$
3CJ4_SX5_A_571


 27 28  0  0  0  0  0  0  0  0999 V2000
  -22.9124    5.7772  -16.9098 C   0  0  0  0  0  0  0  0  0  0  0  0
  -21.8877    4.8366  -16.7348 C   0  0  0  0  0  0  0  0  0  0  0  0
  -21.9744    3.5743  -17.3235 C   0  0  0  0  0  0  0  0  0  0  0  0
  -23.0944    3.2574  -18.0945 C   0  0  0  0  0  0  0  0  0  0  0  0
  -23.1819    1.5499  -18.8798 Br  0  0  0  0  0  0  0  0  0  0  0  0
  -24.1293    4.1705  -18.2911 C   0  0  0  0  0  0  0  0  0  0  0  0
  -24.0342    5.4396  -17.7083 C   0  0  0  0  0  0  0  0  0  0  0  0
  -25.1582    6.3883  -17.9047 C   0  0  0  0  0  0  0  0  0  0  0  0
  -24.9907    7.2141  -18.8031 O   0  0  0  0  0  0  0  0  0  0  0  0
  -26.3321    6.3372  -17.1447 N   0  0  0  0  0  0  0  0  0  0  0  0
  -26.4294    5.6233  -15.8543 C   0  0  0  0  0  0  0  0  0  0  0  0
  -26.8206    6.4835  -14.6541 C   0  0  0  0  0  0  0  0  0  0  0  0
  -27.1234    5.5994  -13.4437 C   0  0  0  0  0  0  0  0  0  0  0  0
  -28.0158    7.3818  -14.9702 C   0  0  0  0  0  0  0  0  0  0  0  0
  -27.3530    7.3785  -17.3728 C   0  0  0  0  0  0  0  0  0  0  0  0
  -27.6694    8.2598  -16.1618 C   0  0  0  0  0  0  0  0  0  0  0  0
  -28.7907    9.2495  -16.4690 C   0  0  0  0  0  0  0  0  0  0  0  0
  -23.0985    7.3460  -15.0141 C   0  0  0  0  0  0  0  0  0  0  0  0
  -23.4514    6.5166  -14.1710 O   0  0  0  0  0  0  0  0  0  0  0  0
  -22.8327    7.0670  -16.3392 N   0  0  0  0  0  0  0  0  0  0  0  0
  -22.5708    7.8144  -16.9241 H   0  0  0  0  0  0  0  0  0  0  0  0
  -22.9051    8.8250  -14.7159 C   0  0  0  0  0  0  0  0  0  0  0  0
  -22.4788    9.1019  -13.2790 C   0  0  0  0  0  0  0  0  0  0  0  0
  -20.0391    9.2369  -13.0424 O   0  0  0  0  0  0  0  0  0  0  0  0
  -21.0860    8.6055  -13.0202 C   0  0  0  0  0  0  0  0  0  0  0  0
  -21.0827    7.2936  -12.7355 O   0  0  0  0  0  0  0  0  0  0  0  0
  -21.8883    6.8155  -12.7200 H   0  0  0  0  0  0  0  0  0  0  0  0
 24 25  2  0  0  0
 25 26  1  0  0  0
 25 23  1  0  0  0
 22 23  1  0  0  0
 18 22  1  0  0  0
 19 18  2  0  0  0
 20 18  1  0  0  0
  1 20  1  0  0  0
  2  1  2  0  0  0
  7  1  1  0  0  0
  3  2  1  0  0  0
  4  3  2  0  0  0
  5  4  1  0  0  0
  4  6  1  0  0  0
  6  7  2  0  0  0
  7  8  1  0  0  0
  8 10  1  0  0  0
  8  9  2  0  0  0
 11 10  1  0  0  0
 10 15  1  0  0  0
 12 11  1  0  0  0
 13 12  1  0  0  0
 12 14  1  0  0  0
 14 16  1  0  0  0
 16 15  1  0  0  0
 16 17  1  0  0  0
 26 27  1  0  0  0
 20 21  1  0  0  0
M  END
> <minimizedAffinity>
-6.94023

$$$$
3CJ4_SX5_A_571


 27 28  0  0  0  0  0  0  0  0999 V2000
  -24.8164    7.3299  -15.8878 C   0  0  0  0  0  0  0  0  0  0  0  0
  -24.3318    6.2551  -16.6464 C   0  0  0  0  0  0  0  0  0  0  0  0
  -25.1987    5.4885  -17.4262 C   0  0  0  0  0  0  0  0  0  0  0  0
  -26.5581    5.8056  -17.4463 C   0  0  0  0  0  0  0  0  0  0  0  0
  -27.7025    4.7574  -18.5102 Br  0  0  0  0  0  0  0  0  0  0  0  0
  -27.0721    6.8695  -16.7064 C   0  0  0  0  0  0  0  0  0  0  0  0
  -26.1983    7.6434  -15.9339 C   0  0  0  0  0  0  0  0  0  0  0  0
  -26.7673    8.7539  -15.1307 C   0  0  0  0  0  0  0  0  0  0  0  0
  -26.7331    9.8589  -15.6736 O   0  0  0  0  0  0  0  0  0  0  0  0
  -27.3238    8.5607  -13.8613 N   0  0  0  0  0  0  0  0  0  0  0  0
  -27.0673    7.3588  -13.0404 C   0  0  0  0  0  0  0  0  0  0  0  0
  -26.4303    7.6170  -11.6762 C   0  0  0  0  0  0  0  0  0  0  0  0
  -26.4414    6.3400  -10.8351 C   0  0  0  0  0  0  0  0  0  0  0  0
  -27.1331    8.7516  -10.9319 C   0  0  0  0  0  0  0  0  0  0  0  0
  -27.7905    9.7484  -13.1196 C   0  0  0  0  0  0  0  0  0  0  0  0
  -27.0820   10.0070  -11.7875 C   0  0  0  0  0  0  0  0  0  0  0  0
  -27.6857   11.2040  -11.0569 C   0  0  0  0  0  0  0  0  0  0  0  0
  -23.3961    7.7315  -13.9103 C   0  0  0  0  0  0  0  0  0  0  0  0
  -23.5946    6.6432  -13.3632 O   0  0  0  0  0  0  0  0  0  0  0  0
  -23.9513    8.1303  -15.1091 N   0  0  0  0  0  0  0  0  0  0  0  0
  -23.7304    9.0297  -15.4429 H   0  0  0  0  0  0  0  0  0  0  0  0
  -22.4991    8.8165  -13.3339 C   0  0  0  0  0  0  0  0  0  0  0  0
  -21.0182    8.4570  -13.3647 C   0  0  0  0  0  0  0  0  0  0  0  0
  -19.8084   10.5032  -12.7519 O   0  0  0  0  0  0  0  0  0  0  0  0
  -20.2168    9.3800  -12.4936 C   0  0  0  0  0  0  0  0  0  0  0  0
  -19.9624    8.8223  -11.2992 O   0  0  0  0  0  0  0  0  0  0  0  0
  -20.2782    7.9612  -11.1074 H   0  0  0  0  0  0  0  0  0  0  0  0
 24 25  2  0  0  0
 25 26  1  0  0  0
 25 23  1  0  0  0
 22 23  1  0  0  0
 18 22  1  0  0  0
 19 18  2  0  0  0
 20 18  1  0  0  0
  1 20  1  0  0  0
  2  1  2  0  0  0
  7  1  1  0  0  0
  3  2  1  0  0  0
  4  3  2  0  0  0
  5  4  1  0  0  0
  4  6  1  0  0  0
  6  7  2  0  0  0
  7  8  1  0  0  0
  8 10  1  0  0  0
  8  9  2  0  0  0
 11 10  1  0  0  0
 10 15  1  0  0  0
 12 11  1  0  0  0
 13 12  1  0  0  0
 12 14  1  0  0  0
 14 16  1  0  0  0
 16 15  1  0  0  0
 16 17  1  0  0  0
 26 27  1  0  0  0
 20 21  1  0  0  0
M  END
> <minimizedAffinity>
-6.64015

$$$$
3CJ4_SX5_A_571


 27 28  0  0  0  0  0  0  0  0999 V2000
  -27.8122   10.1610  -15.3462 C   0  0  0  0  0  0  0  0  0  0  0  0
  -29.1681   10.5176  -15.3448 C   0  0  0  0  0  0  0  0  0  0  0  0
  -29.6449   11.4925  -14.4676 C   0  0  0  0  0  0  0  0  0  0  0  0
  -28.7545   12.1143  -13.5904 C   0  0  0  0  0  0  0  0  0  0  0  0
  -29.4248   13.4282  -12.4223 Br  0  0  0  0  0  0  0  0  0  0  0  0
  -27.3999   11.7856  -13.5682 C   0  0  0  0  0  0  0  0  0  0  0  0
  -26.9226   10.8152  -14.4570 C   0  0  0  0  0  0  0  0  0  0  0  0
  -25.4835   10.4577  -14.3996 C   0  0  0  0  0  0  0  0  0  0  0  0
  -24.7708   11.0370  -15.2202 O   0  0  0  0  0  0  0  0  0  0  0  0
  -24.9668    9.5492  -13.4691 N   0  0  0  0  0  0  0  0  0  0  0  0
  -25.8067    8.5844  -12.7288 C   0  0  0  0  0  0  0  0  0  0  0  0
  -25.4554    7.1121  -12.9348 C   0  0  0  0  0  0  0  0  0  0  0  0
  -26.2233    6.2392  -11.9415 C   0  0  0  0  0  0  0  0  0  0  0  0
  -23.9521    6.8683  -12.8073 C   0  0  0  0  0  0  0  0  0  0  0  0
  -23.5329    9.2094  -13.5527 C   0  0  0  0  0  0  0  0  0  0  0  0
  -23.2256    7.7345  -13.8236 C   0  0  0  0  0  0  0  0  0  0  0  0
  -21.7227    7.4657  -13.8114 C   0  0  0  0  0  0  0  0  0  0  0  0
  -27.4700    7.8306  -16.0819 C   0  0  0  0  0  0  0  0  0  0  0  0
  -28.0571    7.2912  -15.1398 O   0  0  0  0  0  0  0  0  0  0  0  0
  -27.3072    9.1917  -16.2411 N   0  0  0  0  0  0  0  0  0  0  0  0
  -26.8073    9.5073  -17.0284 H   0  0  0  0  0  0  0  0  0  0  0  0
  -26.8228    7.0638  -17.2252 C   0  0  0  0  0  0  0  0  0  0  0  0
  -25.5540    6.3249  -16.8164 C   0  0  0  0  0  0  0  0  0  0  0  0
  -23.4040    5.8976  -17.9216 O   0  0  0  0  0  0  0  0  0  0  0  0
  -24.4789    6.4765  -17.8530 C   0  0  0  0  0  0  0  0  0  0  0  0
  -24.8249    7.3802  -18.7834 O   0  0  0  0  0  0  0  0  0  0  0  0
  -25.6500    7.8204  -18.7251 H   0  0  0  0  0  0  0  0  0  0  0  0
 24 25  2  0  0  0
 25 26  1  0  0  0
 25 23  1  0  0  0
 22 23  1  0  0  0
 18 22  1  0  0  0
 19 18  2  0  0  0
 20 18  1  0  0  0
  1 20  1  0  0  0
  2  1  2  0  0  0
  7  1  1  0  0  0
  3  2  1  0  0  0
  4  3  2  0  0  0
  5  4  1  0  0  0
  4  6  1  0  0  0
  6  7  2  0  0  0
  7  8  1  0  0  0
  8 10  1  0  0  0
  8  9  2  0  0  0
 11 10  1  0  0  0
 10 15  1  0  0  0
 12 11  1  0  0  0
 13 12  1  0  0  0
 12 14  1  0  0  0
 14 16  1  0  0  0
 16 15  1  0  0  0
 16 17  1  0  0  0
 26 27  1  0  0  0
 20 21  1  0  0  0
M  END
> <minimizedAffinity>
-6.54721

$$$$
3CJ4_SX5_A_571


 27 28  0  0  0  0  0  0  0  0999 V2000
  -24.1269    6.7159  -14.5738 C   0  0  0  0  0  0  0  0  0  0  0  0
  -22.9869    7.0163  -15.3325 C   0  0  0  0  0  0  0  0  0  0  0  0
  -21.9423    7.7592  -14.7809 C   0  0  0  0  0  0  0  0  0  0  0  0
  -22.0425    8.1992  -13.4597 C   0  0  0  0  0  0  0  0  0  0  0  0
  -20.6169    9.1948  -12.7411 Br  0  0  0  0  0  0  0  0  0  0  0  0
  -23.1605    7.9152  -12.6769 C   0  0  0  0  0  0  0  0  0  0  0  0
  -24.2017    7.1604  -13.2296 C   0  0  0  0  0  0  0  0  0  0  0  0
  -25.3962    6.8921  -12.3910 C   0  0  0  0  0  0  0  0  0  0  0  0
  -25.4610    5.7528  -11.9278 O   0  0  0  0  0  0  0  0  0  0  0  0
  -26.3664    7.8647  -12.1241 N   0  0  0  0  0  0  0  0  0  0  0  0
  -26.5190    9.0960  -12.9271 C   0  0  0  0  0  0  0  0  0  0  0  0
  -27.8816    9.2839  -13.5915 C   0  0  0  0  0  0  0  0  0  0  0  0
  -27.9952   10.6902  -14.1812 C   0  0  0  0  0  0  0  0  0  0  0  0
  -29.0263    9.0221  -12.6135 C   0  0  0  0  0  0  0  0  0  0  0  0
  -27.5525    7.4660  -11.3415 C   0  0  0  0  0  0  0  0  0  0  0  0
  -28.8927    7.6099  -12.0669 C   0  0  0  0  0  0  0  0  0  0  0  0
  -30.0632    7.2531  -11.1538 C   0  0  0  0  0  0  0  0  0  0  0  0
  -26.1572    6.4471  -15.9503 C   0  0  0  0  0  0  0  0  0  0  0  0
  -26.2354    7.6196  -16.3276 O   0  0  0  0  0  0  0  0  0  0  0  0
  -25.1849    5.9474  -15.1080 N   0  0  0  0  0  0  0  0  0  0  0  0
  -25.2316    4.9948  -14.8640 H   0  0  0  0  0  0  0  0  0  0  0  0
  -27.1395    5.3600  -16.3594 C   0  0  0  0  0  0  0  0  0  0  0  0
  -26.6089    3.9491  -16.1341 C   0  0  0  0  0  0  0  0  0  0  0  0
  -28.1069    2.3317  -15.0542 O   0  0  0  0  0  0  0  0  0  0  0  0
  -27.3274    3.2724  -15.0032 C   0  0  0  0  0  0  0  0  0  0  0  0
  -27.0160    3.8339  -13.8242 O   0  0  0  0  0  0  0  0  0  0  0  0
  -26.4180    4.5546  -13.7919 H   0  0  0  0  0  0  0  0  0  0  0  0
 24 25  2  0  0  0
 25 26  1  0  0  0
 25 23  1  0  0  0
 22 23  1  0  0  0
 18 22  1  0  0  0
 19 18  2  0  0  0
 20 18  1  0  0  0
  1 20  1  0  0  0
  2  1  2  0  0  0
  7  1  1  0  0  0
  3  2  1  0  0  0
  4  3  2  0  0  0
  5  4  1  0  0  0
  4  6  1  0  0  0
  6  7  2  0  0  0
  7  8  1  0  0  0
  8 10  1  0  0  0
  8  9  2  0  0  0
 11 10  1  0  0  0
 10 15  1  0  0  0
 12 11  1  0  0  0
 13 12  1  0  0  0
 12 14  1  0  0  0
 14 16  1  0  0  0
 16 15  1  0  0  0
 16 17  1  0  0  0
 26 27  1  0  0  0
 20 21  1  0  0  0
M  END
> <minimizedAffinity>
-6.38906

$$$$
3CJ4_SX5_A_571


 27 28  0  0  0  0  0  0  0  0999 V2000
  -26.4109    8.9146  -12.2773 C   0  0  0  0  0  0  0  0  0  0  0  0
  -26.9513    9.9804  -11.5441 C   0  0  0  0  0  0  0  0  0  0  0  0
  -28.1973    9.8584  -10.9277 C   0  0  0  0  0  0  0  0  0  0  0  0
  -28.9017    8.6589  -11.0459 C   0  0  0  0  0  0  0  0  0  0  0  0
  -30.5769    8.5216  -10.2004 Br  0  0  0  0  0  0  0  0  0  0  0  0
  -28.3916    7.5788  -11.7648 C   0  0  0  0  0  0  0  0  0  0  0  0
  -27.1367    7.7005  -12.3727 C   0  0  0  0  0  0  0  0  0  0  0  0
  -26.6224    6.5509  -13.1576 C   0  0  0  0  0  0  0  0  0  0  0  0
  -25.7842    5.8591  -12.5782 O   0  0  0  0  0  0  0  0  0  0  0  0
  -27.0708    6.2571  -14.4502 N   0  0  0  0  0  0  0  0  0  0  0  0
  -27.7819    7.2343  -15.3009 C   0  0  0  0  0  0  0  0  0  0  0  0
  -27.1103    7.5578  -16.6343 C   0  0  0  0  0  0  0  0  0  0  0  0
  -28.0508    8.3799  -17.5165 C   0  0  0  0  0  0  0  0  0  0  0  0
  -26.6670    6.2904  -17.3641 C   0  0  0  0  0  0  0  0  0  0  0  0
  -26.4344    5.1353  -15.1679 C   0  0  0  0  0  0  0  0  0  0  0  0
  -25.7177    5.5129  -16.4667 C   0  0  0  0  0  0  0  0  0  0  0  0
  -25.1634    4.2805  -17.1774 C   0  0  0  0  0  0  0  0  0  0  0  0
  -24.9126    9.6299  -14.1030 C   0  0  0  0  0  0  0  0  0  0  0  0
  -25.7791   10.1565  -14.8066 O   0  0  0  0  0  0  0  0  0  0  0  0
  -25.1421    9.0120  -12.8905 N   0  0  0  0  0  0  0  0  0  0  0  0
  -24.3725    8.6137  -12.4232 H   0  0  0  0  0  0  0  0  0  0  0  0
  -23.4385    9.5773  -14.4747 C   0  0  0  0  0  0  0  0  0  0  0  0
  -22.5401    9.1350  -13.3256 C   0  0  0  0  0  0  0  0  0  0  0  0
  -20.9349    7.3402  -13.8029 O   0  0  0  0  0  0  0  0  0  0  0  0
  -22.0606    7.7263  -13.5220 C   0  0  0  0  0  0  0  0  0  0  0  0
  -23.0577    6.8446  -13.3474 O   0  0  0  0  0  0  0  0  0  0  0  0
  -23.9181    7.1469  -13.1322 H   0  0  0  0  0  0  0  0  0  0  0  0
 24 25  2  0  0  0
 25 26  1  0  0  0
 25 23  1  0  0  0
 22 23  1  0  0  0
 18 22  1  0  0  0
 19 18  2  0  0  0
 20 18  1  0  0  0
  1 20  1  0  0  0
  2  1  2  0  0  0
  7  1  1  0  0  0
  3  2  1  0  0  0
  4  3  2  0  0  0
  5  4  1  0  0  0
  4  6  1  0  0  0
  6  7  2  0  0  0
  7  8  1  0  0  0
  8 10  1  0  0  0
  8  9  2  0  0  0
 11 10  1  0  0  0
 10 15  1  0  0  0
 12 11  1  0  0  0
 13 12  1  0  0  0
 12 14  1  0  0  0
 14 16  1  0  0  0
 16 15  1  0  0  0
 16 17  1  0  0  0
 26 27  1  0  0  0
 20 21  1  0  0  0
M  END
> <minimizedAffinity>
-6.33230

$$$$
3CJ4_SX5_A_571


 27 28  0  0  0  0  0  0  0  0999 V2000
  -23.1700    6.3914  -16.3331 C   0  0  0  0  0  0  0  0  0  0  0  0
  -21.9889    5.6371  -16.3724 C   0  0  0  0  0  0  0  0  0  0  0  0
  -21.9317    4.4448  -17.0953 C   0  0  0  0  0  0  0  0  0  0  0  0
  -23.0655    4.0105  -17.7845 C   0  0  0  0  0  0  0  0  0  0  0  0
  -22.9576    2.4018  -18.7543 Br  0  0  0  0  0  0  0  0  0  0  0  0
  -24.2545    4.7382  -17.7688 C   0  0  0  0  0  0  0  0  0  0  0  0
  -24.3054    5.9393  -17.0518 C   0  0  0  0  0  0  0  0  0  0  0  0
  -25.5875    6.6858  -17.0228 C   0  0  0  0  0  0  0  0  0  0  0  0
  -25.7459    7.4833  -17.9480 O   0  0  0  0  0  0  0  0  0  0  0  0
  -26.5571    6.4848  -16.0340 N   0  0  0  0  0  0  0  0  0  0  0  0
  -26.2698    5.8278  -14.7417 C   0  0  0  0  0  0  0  0  0  0  0  0
  -26.5460    6.6716  -13.4986 C   0  0  0  0  0  0  0  0  0  0  0  0
  -26.4450    5.8100  -12.2392 C   0  0  0  0  0  0  0  0  0  0  0  0
  -27.9128    7.3512  -13.5711 C   0  0  0  0  0  0  0  0  0  0  0  0
  -27.7616    7.3375  -16.0588 C   0  0  0  0  0  0  0  0  0  0  0  0
  -27.9670    8.2145  -14.8212 C   0  0  0  0  0  0  0  0  0  0  0  0
  -29.2758    8.9965  -14.9017 C   0  0  0  0  0  0  0  0  0  0  0  0
  -23.1235    7.7189  -14.2534 C   0  0  0  0  0  0  0  0  0  0  0  0
  -22.9596    6.7724  -13.4785 O   0  0  0  0  0  0  0  0  0  0  0  0
  -23.2408    7.6112  -15.6243 N   0  0  0  0  0  0  0  0  0  0  0  0
  -23.3828    8.4370  -16.1410 H   0  0  0  0  0  0  0  0  0  0  0  0
  -23.2275    9.1692  -13.8067 C   0  0  0  0  0  0  0  0  0  0  0  0
  -23.9089   10.0702  -14.8299 C   0  0  0  0  0  0  0  0  0  0  0  0
  -26.1401   11.0802  -14.9969 O   0  0  0  0  0  0  0  0  0  0  0  0
  -25.2868   10.4592  -14.3793 C   0  0  0  0  0  0  0  0  0  0  0  0
  -25.5290   10.0302  -13.1304 O   0  0  0  0  0  0  0  0  0  0  0  0
  -24.8710    9.5548  -12.6625 H   0  0  0  0  0  0  0  0  0  0  0  0
 24 25  2  0  0  0
 25 26  1  0  0  0
 25 23  1  0  0  0
 22 23  1  0  0  0
 18 22  1  0  0  0
 19 18  2  0  0  0
 20 18  1  0  0  0
  1 20  1  0  0  0
  2  1  2  0  0  0
  7  1  1  0  0  0
  3  2  1  0  0  0
  4  3  2  0  0  0
  5  4  1  0  0  0
  4  6  1  0  0  0
  6  7  2  0  0  0
  7  8  1  0  0  0
  8 10  1  0  0  0
  8  9  2  0  0  0
 11 10  1  0  0  0
 10 15  1  0  0  0
 12 11  1  0  0  0
 13 12  1  0  0  0
 12 14  1  0  0  0
 14 16  1  0  0  0
 16 15  1  0  0  0
 16 17  1  0  0  0
 26 27  1  0  0  0
 20 21  1  0  0  0
M  END
> <minimizedAffinity>
-6.28049

$$$$
3CJ4_SX5_A_571


 27 28  0  0  0  0  0  0  0  0999 V2000
  -25.9301    5.2593  -14.9240 C   0  0  0  0  0  0  0  0  0  0  0  0
  -26.2668    4.3605  -15.9460 C   0  0  0  0  0  0  0  0  0  0  0  0
  -27.4664    3.6492  -15.8992 C   0  0  0  0  0  0  0  0  0  0  0  0
  -28.3331    3.8446  -14.8223 C   0  0  0  0  0  0  0  0  0  0  0  0
  -29.9454    2.8754  -14.7881 Br  0  0  0  0  0  0  0  0  0  0  0  0
  -28.0303    4.7330  -13.7915 C   0  0  0  0  0  0  0  0  0  0  0  0
  -26.8313    5.4532  -13.8469 C   0  0  0  0  0  0  0  0  0  0  0  0
  -26.5123    6.3729  -12.7268 C   0  0  0  0  0  0  0  0  0  0  0  0
  -25.8546    5.8719  -11.8139 O   0  0  0  0  0  0  0  0  0  0  0  0
  -26.9065    7.7156  -12.7155 N   0  0  0  0  0  0  0  0  0  0  0  0
  -27.9742    8.2521  -13.5852 C   0  0  0  0  0  0  0  0  0  0  0  0
  -29.1584    8.8869  -12.8585 C   0  0  0  0  0  0  0  0  0  0  0  0
  -30.0647    9.6127  -13.8536 C   0  0  0  0  0  0  0  0  0  0  0  0
  -28.6979    9.8447  -11.7603 C   0  0  0  0  0  0  0  0  0  0  0  0
  -26.6018    8.5187  -11.5153 C   0  0  0  0  0  0  0  0  0  0  0  0
  -27.8200    9.0834  -10.7802 C   0  0  0  0  0  0  0  0  0  0  0  0
  -27.4042    9.9643   -9.6046 C   0  0  0  0  0  0  0  0  0  0  0  0
  -24.6041    7.2379  -15.5694 C   0  0  0  0  0  0  0  0  0  0  0  0
  -25.5087    7.8351  -16.1594 O   0  0  0  0  0  0  0  0  0  0  0  0
  -24.7304    6.0038  -14.9646 N   0  0  0  0  0  0  0  0  0  0  0  0
  -23.9336    5.6178  -14.5340 H   0  0  0  0  0  0  0  0  0  0  0  0
  -23.1899    7.7784  -15.4219 C   0  0  0  0  0  0  0  0  0  0  0  0
  -22.4761    7.2732  -14.1736 C   0  0  0  0  0  0  0  0  0  0  0  0
  -20.6031    8.3574  -13.0149 O   0  0  0  0  0  0  0  0  0  0  0  0
  -21.7303    8.3810  -13.4883 C   0  0  0  0  0  0  0  0  0  0  0  0
  -22.4673    9.5018  -13.4332 O   0  0  0  0  0  0  0  0  0  0  0  0
  -23.3303    9.5133  -13.7978 H   0  0  0  0  0  0  0  0  0  0  0  0
 24 25  2  0  0  0
 25 26  1  0  0  0
 25 23  1  0  0  0
 22 23  1  0  0  0
 18 22  1  0  0  0
 19 18  2  0  0  0
 20 18  1  0  0  0
  1 20  1  0  0  0
  2  1  2  0  0  0
  7  1  1  0  0  0
  3  2  1  0  0  0
  4  3  2  0  0  0
  5  4  1  0  0  0
  4  6  1  0  0  0
  6  7  2  0  0  0
  7  8  1  0  0  0
  8 10  1  0  0  0
  8  9  2  0  0  0
 11 10  1  0  0  0
 10 15  1  0  0  0
 12 11  1  0  0  0
 13 12  1  0  0  0
 12 14  1  0  0  0
 14 16  1  0  0  0
 16 15  1  0  0  0
 16 17  1  0  0  0
 26 27  1  0  0  0
 20 21  1  0  0  0
M  END
> <minimizedAffinity>
-5.93623

$$$$
3CJ4_SX5_A_571


 27 28  0  0  0  0  0  0  0  0999 V2000
  -25.8360    8.3754  -12.6596 C   0  0  0  0  0  0  0  0  0  0  0  0
  -26.2066    8.4306  -11.3086 C   0  0  0  0  0  0  0  0  0  0  0  0
  -27.5476    8.3299  -10.9356 C   0  0  0  0  0  0  0  0  0  0  0  0
  -28.5199    8.1696  -11.9245 C   0  0  0  0  0  0  0  0  0  0  0  0
  -30.3191    8.0321  -11.3919 Br  0  0  0  0  0  0  0  0  0  0  0  0
  -28.1851    8.1076  -13.2764 C   0  0  0  0  0  0  0  0  0  0  0  0
  -26.8382    8.1978  -13.6466 C   0  0  0  0  0  0  0  0  0  0  0  0
  -26.5030    8.1586  -15.0916 C   0  0  0  0  0  0  0  0  0  0  0  0
  -26.5089    9.2530  -15.6566 O   0  0  0  0  0  0  0  0  0  0  0  0
  -26.1804    6.9727  -15.7609 N   0  0  0  0  0  0  0  0  0  0  0  0
  -26.5047    5.6316  -15.2314 C   0  0  0  0  0  0  0  0  0  0  0  0
  -27.3997    4.7711  -16.1215 C   0  0  0  0  0  0  0  0  0  0  0  0
  -27.4605    3.3396  -15.5873 C   0  0  0  0  0  0  0  0  0  0  0  0
  -26.9240    4.7783  -17.5737 C   0  0  0  0  0  0  0  0  0  0  0  0
  -25.9393    7.0397  -17.2155 C   0  0  0  0  0  0  0  0  0  0  0  0
  -26.8984    6.2130  -18.0757 C   0  0  0  0  0  0  0  0  0  0  0  0
  -26.5214    6.2793  -19.5537 C   0  0  0  0  0  0  0  0  0  0  0  0
  -23.6349    7.3682  -13.1398 C   0  0  0  0  0  0  0  0  0  0  0  0
  -23.9435    6.2044  -12.8688 O   0  0  0  0  0  0  0  0  0  0  0  0
  -24.4822    8.4543  -13.0550 N   0  0  0  0  0  0  0  0  0  0  0  0
  -24.1200    9.3405  -13.2846 H   0  0  0  0  0  0  0  0  0  0  0  0
  -22.2508    7.7882  -13.6108 C   0  0  0  0  0  0  0  0  0  0  0  0
  -21.8979    9.2254  -13.2464 C   0  0  0  0  0  0  0  0  0  0  0  0
  -19.6016   10.0588  -13.0041 O   0  0  0  0  0  0  0  0  0  0  0  0
  -20.5143    9.3161  -12.6714 C   0  0  0  0  0  0  0  0  0  0  0  0
  -20.3450    8.4370  -11.6711 O   0  0  0  0  0  0  0  0  0  0  0  0
  -21.0484    7.8707  -11.4211 H   0  0  0  0  0  0  0  0  0  0  0  0
 24 25  2  0  0  0
 25 26  1  0  0  0
 25 23  1  0  0  0
 22 23  1  0  0  0
 18 22  1  0  0  0
 19 18  2  0  0  0
 20 18  1  0  0  0
  1 20  1  0  0  0
  2  1  2  0  0  0
  7  1  1  0  0  0
  3  2  1  0  0  0
  4  3  2  0  0  0
  5  4  1  0  0  0
  4  6  1  0  0  0
  6  7  2  0  0  0
  7  8  1  0  0  0
  8 10  1  0  0  0
  8  9  2  0  0  0
 11 10  1  0  0  0
 10 15  1  0  0  0
 12 11  1  0  0  0
 13 12  1  0  0  0
 12 14  1  0  0  0
 14 16  1  0  0  0
 16 15  1  0  0  0
 16 17  1  0  0  0
 26 27  1  0  0  0
 20 21  1  0  0  0
M  END
> <minimizedAffinity>
-5.86817

$$$$
