5OA6_9PT_A_601


 61 66  0  0  0  0  0  0  0  0999 V2000
   10.8031  -10.7870  -23.9963 C   0  0  0  0  0  0  0  0  0  0  0  0
   10.1969   -9.4163  -24.2876 C   0  0  0  0  0  0  0  0  0  0  0  0
   11.1876  -10.8135  -22.5205 C   0  0  0  0  0  0  0  0  0  0  0  0
    9.2913   -9.2317  -22.0681 C   0  0  0  0  0  0  0  0  0  0  0  0
    9.9583  -10.5445  -21.6477 C   0  0  0  0  0  0  0  0  0  0  0  0
   10.3389  -10.4349  -20.2883 O   0  0  0  0  0  0  0  0  0  0  0  0
    9.0555   -9.2378  -23.4624 O   0  0  0  0  0  0  0  0  0  0  0  0
   11.9800  -11.0413  -24.7972 O   0  0  0  0  0  0  0  0  0  0  0  0
   10.9571   -9.6948  -20.1843 H   0  0  0  0  0  0  0  0  0  0  0  0
   12.6538  -10.3708  -24.6039 H   0  0  0  0  0  0  0  0  0  0  0  0
    6.0811   -8.3768  -20.7855 C   0  0  0  0  0  0  0  0  0  0  0  0
    7.3768   -8.0980  -20.8491 C   0  0  0  0  0  0  0  0  0  0  0  0
    5.8674   -9.4740  -21.5032 N   0  0  0  0  0  0  0  0  0  0  0  0
    6.9275   -9.8399  -21.9810 N   0  0  0  0  0  0  0  0  0  0  0  0
    7.8875   -9.0655  -21.6170 N   0  0  0  0  0  0  0  0  0  0  0  0
    4.9729   -7.6090  -20.0268 C   0  0  0  0  0  0  0  0  0  0  0  0
    4.4392   -8.6117  -19.0254 C   0  0  0  0  0  0  0  0  0  0  0  0
    5.2227   -8.4554  -17.7266 C   0  0  0  0  0  0  0  0  0  0  0  0
    2.9504   -7.6558  -16.8515 C   0  0  0  0  0  0  0  0  0  0  0  0
    2.1658   -7.0269  -15.8911 C   0  0  0  0  0  0  0  0  0  0  0  0
    2.7673   -6.5026  -14.7584 C   0  0  0  0  0  0  0  0  0  0  0  0
    4.1453   -6.6172  -14.5901 C   0  0  0  0  0  0  0  0  0  0  0  0
    4.7011   -6.0723  -13.4287 C   0  0  0  0  0  0  0  0  0  0  0  0
    6.0718   -6.1492  -13.2013 C   0  0  0  0  0  0  0  0  0  0  0  0
    6.8858   -6.7724  -14.1416 C   0  0  0  0  0  0  0  0  0  0  0  0
    6.3366   -7.3184  -15.3099 C   0  0  0  0  0  0  0  0  0  0  0  0
    4.9520   -7.2541  -15.5631 C   0  0  0  0  0  0  0  0  0  0  0  0
    4.3785   -7.7766  -16.6967 N   0  0  0  0  0  0  0  0  0  0  0  0
    9.6089   -9.1746  -25.6701 C   0  0  0  0  0  0  0  0  0  0  0  0
    9.1945  -10.4113  -26.2339 O   0  0  0  0  0  0  0  0  0  0  0  0
    8.5221  -10.8170  -25.6645 H   0  0  0  0  0  0  0  0  0  0  0  0
   11.6939  -12.1186  -22.2354 O   0  0  0  0  0  0  0  0  0  0  0  0
   12.9537  -12.1569  -21.5746 C   0  0  0  0  0  0  0  0  0  0  0  0
   13.3775  -13.6207  -21.4247 C   0  0  0  0  0  0  0  0  0  0  0  0
   12.4357  -14.2811  -20.5829 O   0  0  0  0  0  0  0  0  0  0  0  0
   13.9084  -11.4837  -22.3779 O   0  0  0  0  0  0  0  0  0  0  0  0
   15.2109  -11.4070  -21.7648 C   0  0  0  0  0  0  0  0  0  0  0  0
   15.7658  -12.8338  -21.5765 C   0  0  0  0  0  0  0  0  0  0  0  0
   16.9774  -12.7781  -20.8328 O   0  0  0  0  0  0  0  0  0  0  0  0
   14.7588  -13.6721  -20.7901 C   0  0  0  0  0  0  0  0  0  0  0  0
   12.4109  -13.8417  -19.7185 H   0  0  0  0  0  0  0  0  0  0  0  0
   16.8059  -12.3810  -19.9646 H   0  0  0  0  0  0  0  0  0  0  0  0
   16.0012  -10.5221  -22.7189 C   0  0  0  0  0  0  0  0  0  0  0  0
   17.0849  -11.2771  -23.2852 O   0  0  0  0  0  0  0  0  0  0  0  0
   16.7298  -12.0389  -23.7695 H   0  0  0  0  0  0  0  0  0  0  0  0
   15.2268  -15.0357  -20.7645 O   0  0  0  0  0  0  0  0  0  0  0  0
   14.9214  -15.7196  -19.5295 C   0  0  0  0  0  0  0  0  0  0  0  0
   15.6727  -15.1552  -18.4385 O   0  0  0  0  0  0  0  0  0  0  0  0
   15.3197  -15.7601  -17.1653 C   0  0  0  0  0  0  0  0  0  0  0  0
   15.6850  -17.2809  -17.2153 C   0  0  0  0  0  0  0  0  0  0  0  0
   15.2236  -17.9396  -16.0065 O   0  0  0  0  0  0  0  0  0  0  0  0
   15.0476  -17.9661  -18.4263 C   0  0  0  0  0  0  0  0  0  0  0  0
   15.6108  -19.2860  -18.5891 O   0  0  0  0  0  0  0  0  0  0  0  0
   15.3268  -17.1780  -19.6998 C   0  0  0  0  0  0  0  0  0  0  0  0
   14.6063  -17.7736  -20.7699 O   0  0  0  0  0  0  0  0  0  0  0  0
   14.2586  -17.8627  -15.9446 H   0  0  0  0  0  0  0  0  0  0  0  0
   16.5663  -19.2136  -18.7398 H   0  0  0  0  0  0  0  0  0  0  0  0
   13.6568  -17.7507  -20.5727 H   0  0  0  0  0  0  0  0  0  0  0  0
   16.0110  -15.1276  -15.9654 C   0  0  0  0  0  0  0  0  0  0  0  0
   15.6004  -13.7526  -15.9717 O   0  0  0  0  0  0  0  0  0  0  0  0
   15.8541  -13.3433  -16.8138 H   0  0  0  0  0  0  0  0  0  0  0  0
 30 29  1  0  0  0
 29  2  1  0  0  0
  8  1  1  0  0  0
  2  1  1  0  0  0
  2  7  1  0  0  0
  1  3  1  0  0  0
 44 43  1  0  0  0
  7  4  1  0  0  0
 43 37  1  0  0  0
  3 32  1  0  0  0
  3  5  1  0  0  0
 32 33  1  0  0  0
 36 37  1  0  0  0
 36 33  1  0  0  0
  4  5  1  0  0  0
  4 15  1  0  0  0
 37 38  1  0  0  0
 33 34  1  0  0  0
  5  6  1  0  0  0
 34 40  1  0  0  0
 34 35  1  0  0  0
 38 40  1  0  0  0
 38 39  1  0  0  0
 15 14  1  0  0  0
 15 12  1  0  0  0
 14 13  2  0  0  0
 12 11  2  0  0  0
 13 11  1  0  0  0
 40 46  1  0  0  0
 46 47  1  0  0  0
 11 16  1  0  0  0
 55 54  1  0  0  0
 16 17  1  0  0  0
 54 47  1  0  0  0
 54 52  1  0  0  0
 47 48  1  0  0  0
 17 18  1  0  0  0
 48 49  1  0  0  0
 53 52  1  0  0  0
 52 50  1  0  0  0
 18 28  1  0  0  0
 49 50  1  0  0  0
 49 59  1  0  0  0
 50 51  1  0  0  0
 60 59  1  0  0  0
 28 19  2  0  0  0
 28 27  1  0  0  0
 26 27  2  0  0  0
 26 25  1  0  0  0
 19 20  1  0  0  0
 27 22  1  0  0  0
 25 24  2  0  0  0
 20 21  2  0  0  0
 22 21  1  0  0  0
 22 23  2  0  0  0
 24 23  1  0  0  0
  6  9  1  0  0  0
 30 31  1  0  0  0
  8 10  1  0  0  0
 35 41  1  0  0  0
 44 45  1  0  0  0
 39 42  1  0  0  0
 60 61  1  0  0  0
 51 56  1  0  0  0
 53 57  1  0  0  0
 55 58  1  0  0  0
M  CHG 1  28   1
M  END
> <minimizedAffinity>
-11.68890

$$$$
5OA6_9PT_A_601


 61 66  0  0  0  0  0  0  0  0999 V2000
   11.0060  -10.8630  -23.7300 C   0  0  0  0  0  0  0  0  0  0  0  0
   10.3445   -9.5573  -24.1645 C   0  0  0  0  0  0  0  0  0  0  0  0
   11.3347  -10.7381  -22.2457 C   0  0  0  0  0  0  0  0  0  0  0  0
    9.3468   -9.2242  -22.0025 C   0  0  0  0  0  0  0  0  0  0  0  0
   10.0612  -10.4576  -21.4427 C   0  0  0  0  0  0  0  0  0  0  0  0
   10.3836  -10.2079  -20.0868 O   0  0  0  0  0  0  0  0  0  0  0  0
    9.1651   -9.3663  -23.3977 O   0  0  0  0  0  0  0  0  0  0  0  0
   12.2237  -11.1253  -24.4645 O   0  0  0  0  0  0  0  0  0  0  0  0
   10.9602   -9.4300  -20.0296 H   0  0  0  0  0  0  0  0  0  0  0  0
   12.8557  -10.4058  -24.3101 H   0  0  0  0  0  0  0  0  0  0  0  0
    6.0582   -8.4407  -20.8834 C   0  0  0  0  0  0  0  0  0  0  0  0
    7.3454   -8.1193  -20.9025 C   0  0  0  0  0  0  0  0  0  0  0  0
    5.9119   -9.5671  -21.5724 N   0  0  0  0  0  0  0  0  0  0  0  0
    7.0030   -9.9110  -21.9933 N   0  0  0  0  0  0  0  0  0  0  0  0
    7.9203   -9.0925  -21.6158 N   0  0  0  0  0  0  0  0  0  0  0  0
    4.8937   -7.6881  -20.1972 C   0  0  0  0  0  0  0  0  0  0  0  0
    4.5319   -8.5569  -19.0110 C   0  0  0  0  0  0  0  0  0  0  0  0
    5.3520   -8.0956  -17.8111 C   0  0  0  0  0  0  0  0  0  0  0  0
    3.0257   -7.4463  -16.9535 C   0  0  0  0  0  0  0  0  0  0  0  0
    2.1867   -6.9408  -15.9666 C   0  0  0  0  0  0  0  0  0  0  0  0
    2.7284   -6.5250  -14.7610 C   0  0  0  0  0  0  0  0  0  0  0  0
    4.1014   -6.6243  -14.5478 C   0  0  0  0  0  0  0  0  0  0  0  0
    4.5957   -6.1922  -13.3135 C   0  0  0  0  0  0  0  0  0  0  0  0
    5.9580   -6.2605  -13.0379 C   0  0  0  0  0  0  0  0  0  0  0  0
    6.8254   -6.7617  -14.0031 C   0  0  0  0  0  0  0  0  0  0  0  0
    6.3379   -7.1941  -15.2441 C   0  0  0  0  0  0  0  0  0  0  0  0
    4.9631   -7.1359  -15.5473 C   0  0  0  0  0  0  0  0  0  0  0  0
    4.4494   -7.5492  -16.7524 N   0  0  0  0  0  0  0  0  0  0  0  0
    9.7986   -9.4705  -25.5822 C   0  0  0  0  0  0  0  0  0  0  0  0
    9.2719  -10.7327  -25.9675 O   0  0  0  0  0  0  0  0  0  0  0  0
    8.5568  -10.9831  -25.3618 H   0  0  0  0  0  0  0  0  0  0  0  0
   11.8933  -11.9843  -21.8266 O   0  0  0  0  0  0  0  0  0  0  0  0
   13.1811  -11.9080  -21.2256 C   0  0  0  0  0  0  0  0  0  0  0  0
   13.1542  -12.7077  -19.9201 C   0  0  0  0  0  0  0  0  0  0  0  0
   12.2314  -12.0879  -19.0280 O   0  0  0  0  0  0  0  0  0  0  0  0
   14.1271  -12.4955  -22.1031 O   0  0  0  0  0  0  0  0  0  0  0  0
   15.4811  -12.4096  -21.6154 C   0  0  0  0  0  0  0  0  0  0  0  0
   15.5950  -13.2033  -20.2977 C   0  0  0  0  0  0  0  0  0  0  0  0
   16.8824  -12.9965  -19.7284 O   0  0  0  0  0  0  0  0  0  0  0  0
   14.5462  -12.6992  -19.3073 C   0  0  0  0  0  0  0  0  0  0  0  0
   12.5064  -11.1724  -18.8630 H   0  0  0  0  0  0  0  0  0  0  0  0
   17.0083  -12.0517  -19.5483 H   0  0  0  0  0  0  0  0  0  0  0  0
   16.3105  -12.9478  -22.7731 C   0  0  0  0  0  0  0  0  0  0  0  0
   17.0218  -11.8656  -23.3960 O   0  0  0  0  0  0  0  0  0  0  0  0
   17.6072  -11.4468  -22.7458 H   0  0  0  0  0  0  0  0  0  0  0  0
   14.5680  -13.5574  -18.1489 O   0  0  0  0  0  0  0  0  0  0  0  0
   14.5712  -14.9630  -18.4814 C   0  0  0  0  0  0  0  0  0  0  0  0
   13.2394  -15.5051  -18.4043 O   0  0  0  0  0  0  0  0  0  0  0  0
   13.1937  -16.8959  -18.8226 C   0  0  0  0  0  0  0  0  0  0  0  0
   14.0742  -17.7421  -17.8441 C   0  0  0  0  0  0  0  0  0  0  0  0
   14.1545  -19.1139  -18.3129 O   0  0  0  0  0  0  0  0  0  0  0  0
   15.4905  -17.1722  -17.7367 C   0  0  0  0  0  0  0  0  0  0  0  0
   16.1871  -17.8064  -16.6420 O   0  0  0  0  0  0  0  0  0  0  0  0
   15.4488  -15.6747  -17.4599 C   0  0  0  0  0  0  0  0  0  0  0  0
   16.7754  -15.1674  -17.5036 O   0  0  0  0  0  0  0  0  0  0  0  0
   14.5725  -19.1325  -19.1880 H   0  0  0  0  0  0  0  0  0  0  0  0
   15.7164  -17.6283  -15.8128 H   0  0  0  0  0  0  0  0  0  0  0  0
   17.1538  -15.3271  -18.3823 H   0  0  0  0  0  0  0  0  0  0  0  0
   11.7912  -17.4871  -18.8580 C   0  0  0  0  0  0  0  0  0  0  0  0
   11.6163  -18.1268  -17.5854 O   0  0  0  0  0  0  0  0  0  0  0  0
   12.3066  -18.7972  -17.4629 H   0  0  0  0  0  0  0  0  0  0  0  0
 30 29  1  0  0  0
 29  2  1  0  0  0
  8  1  1  0  0  0
  2  1  1  0  0  0
  2  7  1  0  0  0
  1  3  1  0  0  0
 44 43  1  0  0  0
  7  4  1  0  0  0
 43 37  1  0  0  0
  3 32  1  0  0  0
  3  5  1  0  0  0
 32 33  1  0  0  0
 36 37  1  0  0  0
 36 33  1  0  0  0
  4  5  1  0  0  0
  4 15  1  0  0  0
 37 38  1  0  0  0
 33 34  1  0  0  0
  5  6  1  0  0  0
 34 40  1  0  0  0
 34 35  1  0  0  0
 38 40  1  0  0  0
 38 39  1  0  0  0
 15 14  1  0  0  0
 15 12  1  0  0  0
 14 13  2  0  0  0
 12 11  2  0  0  0
 13 11  1  0  0  0
 40 46  1  0  0  0
 46 47  1  0  0  0
 11 16  1  0  0  0
 55 54  1  0  0  0
 16 17  1  0  0  0
 54 47  1  0  0  0
 54 52  1  0  0  0
 47 48  1  0  0  0
 17 18  1  0  0  0
 48 49  1  0  0  0
 53 52  1  0  0  0
 52 50  1  0  0  0
 18 28  1  0  0  0
 49 50  1  0  0  0
 49 59  1  0  0  0
 50 51  1  0  0  0
 60 59  1  0  0  0
 28 19  2  0  0  0
 28 27  1  0  0  0
 26 27  2  0  0  0
 26 25  1  0  0  0
 19 20  1  0  0  0
 27 22  1  0  0  0
 25 24  2  0  0  0
 20 21  2  0  0  0
 22 21  1  0  0  0
 22 23  2  0  0  0
 24 23  1  0  0  0
  6  9  1  0  0  0
 30 31  1  0  0  0
  8 10  1  0  0  0
 35 41  1  0  0  0
 44 45  1  0  0  0
 39 42  1  0  0  0
 60 61  1  0  0  0
 51 56  1  0  0  0
 53 57  1  0  0  0
 55 58  1  0  0  0
M  CHG 1  28   1
M  END
> <minimizedAffinity>
-11.49051

$$$$
5OA6_9PT_A_601


 61 66  0  0  0  0  0  0  0  0999 V2000
   11.0137  -10.8296  -23.7630 C   0  0  0  0  0  0  0  0  0  0  0  0
   10.3345   -9.5266  -24.1781 C   0  0  0  0  0  0  0  0  0  0  0  0
   11.3478  -10.7193  -22.2788 C   0  0  0  0  0  0  0  0  0  0  0  0
    9.3429   -9.2328  -22.0076 C   0  0  0  0  0  0  0  0  0  0  0  0
   10.0747  -10.4644  -21.4666 C   0  0  0  0  0  0  0  0  0  0  0  0
   10.4004  -10.2278  -20.1092 O   0  0  0  0  0  0  0  0  0  0  0  0
    9.1564   -9.3597  -23.4037 O   0  0  0  0  0  0  0  0  0  0  0  0
   12.2311  -11.0678  -24.5062 O   0  0  0  0  0  0  0  0  0  0  0  0
   10.9678   -9.4438  -20.0447 H   0  0  0  0  0  0  0  0  0  0  0  0
   12.8551  -10.3427  -24.3457 H   0  0  0  0  0  0  0  0  0  0  0  0
    6.0689   -8.5529  -20.7827 C   0  0  0  0  0  0  0  0  0  0  0  0
    7.3670   -8.2826  -20.7311 C   0  0  0  0  0  0  0  0  0  0  0  0
    5.8922   -9.5213  -21.6748 N   0  0  0  0  0  0  0  0  0  0  0  0
    6.9762   -9.8198  -22.1459 N   0  0  0  0  0  0  0  0  0  0  0  0
    7.9167   -9.1233  -21.6129 N   0  0  0  0  0  0  0  0  0  0  0  0
    4.9226   -7.9012  -19.9737 C   0  0  0  0  0  0  0  0  0  0  0  0
    5.5510   -7.5603  -18.6389 C   0  0  0  0  0  0  0  0  0  0  0  0
    4.6794   -8.1483  -17.5346 C   0  0  0  0  0  0  0  0  0  0  0  0
    6.4392   -7.5229  -15.7794 C   0  0  0  0  0  0  0  0  0  0  0  0
    6.7969   -6.9791  -14.5507 C   0  0  0  0  0  0  0  0  0  0  0  0
    5.8124   -6.4675  -13.7209 C   0  0  0  0  0  0  0  0  0  0  0  0
    4.4803   -6.4959  -14.1275 C   0  0  0  0  0  0  0  0  0  0  0  0
    3.5272   -5.9654  -13.2531 C   0  0  0  0  0  0  0  0  0  0  0  0
    2.1787   -5.9666  -13.5969 C   0  0  0  0  0  0  0  0  0  0  0  0
    1.7865   -6.5025  -14.8193 C   0  0  0  0  0  0  0  0  0  0  0  0
    2.7357   -7.0390  -15.7000 C   0  0  0  0  0  0  0  0  0  0  0  0
    4.1068   -7.0491  -15.3756 C   0  0  0  0  0  0  0  0  0  0  0  0
    5.0650   -7.5671  -16.2126 N   0  0  0  0  0  0  0  0  0  0  0  0
    9.7810   -9.4287  -25.5921 C   0  0  0  0  0  0  0  0  0  0  0  0
    8.6305  -10.2541  -25.7111 O   0  0  0  0  0  0  0  0  0  0  0  0
    7.9551   -9.9603  -25.0799 H   0  0  0  0  0  0  0  0  0  0  0  0
   11.9234  -11.9638  -21.8780 O   0  0  0  0  0  0  0  0  0  0  0  0
   13.2024  -11.8772  -21.2600 C   0  0  0  0  0  0  0  0  0  0  0  0
   13.1666  -12.6826  -19.9582 C   0  0  0  0  0  0  0  0  0  0  0  0
   12.2262  -12.0757  -19.0756 O   0  0  0  0  0  0  0  0  0  0  0  0
   14.1656  -12.4516  -22.1275 O   0  0  0  0  0  0  0  0  0  0  0  0
   15.5122  -12.3542  -21.6220 C   0  0  0  0  0  0  0  0  0  0  0  0
   15.6170  -13.1523  -20.3061 C   0  0  0  0  0  0  0  0  0  0  0  0
   16.8948  -12.9351  -19.7193 O   0  0  0  0  0  0  0  0  0  0  0  0
   14.5505  -12.6628  -19.3274 C   0  0  0  0  0  0  0  0  0  0  0  0
   12.4899  -11.1582  -18.9034 H   0  0  0  0  0  0  0  0  0  0  0  0
   17.0089  -11.9899  -19.5338 H   0  0  0  0  0  0  0  0  0  0  0  0
   16.3618  -12.8793  -22.7710 C   0  0  0  0  0  0  0  0  0  0  0  0
   17.0662  -11.7868  -23.3836 O   0  0  0  0  0  0  0  0  0  0  0  0
   17.6386  -11.3617  -22.7259 H   0  0  0  0  0  0  0  0  0  0  0  0
   14.5658  -13.5256  -18.1723 O   0  0  0  0  0  0  0  0  0  0  0  0
   14.5747  -14.9298  -18.5104 C   0  0  0  0  0  0  0  0  0  0  0  0
   13.2421  -15.4726  -18.4562 O   0  0  0  0  0  0  0  0  0  0  0  0
   13.2035  -16.8617  -18.8808 C   0  0  0  0  0  0  0  0  0  0  0  0
   14.0689  -17.7116  -17.8920 C   0  0  0  0  0  0  0  0  0  0  0  0
   14.1569  -19.0814  -18.3651 O   0  0  0  0  0  0  0  0  0  0  0  0
   15.4830  -17.1417  -17.7603 C   0  0  0  0  0  0  0  0  0  0  0  0
   16.1627  -17.7801  -16.6574 O   0  0  0  0  0  0  0  0  0  0  0  0
   15.4365  -15.6453  -17.4781 C   0  0  0  0  0  0  0  0  0  0  0  0
   16.7635  -15.1375  -17.4990 O   0  0  0  0  0  0  0  0  0  0  0  0
   14.5885  -19.0965  -19.2336 H   0  0  0  0  0  0  0  0  0  0  0  0
   15.6791  -17.6055  -15.8349 H   0  0  0  0  0  0  0  0  0  0  0  0
   17.1557  -15.2936  -18.3723 H   0  0  0  0  0  0  0  0  0  0  0  0
   11.8019  -17.4531  -18.9405 C   0  0  0  0  0  0  0  0  0  0  0  0
   11.5958  -18.0717  -17.6621 O   0  0  0  0  0  0  0  0  0  0  0  0
   12.2825  -18.7401  -17.5118 H   0  0  0  0  0  0  0  0  0  0  0  0
 30 29  1  0  0  0
 29  2  1  0  0  0
  8  1  1  0  0  0
  2  1  1  0  0  0
  2  7  1  0  0  0
  1  3  1  0  0  0
 44 43  1  0  0  0
  7  4  1  0  0  0
 43 37  1  0  0  0
  3 32  1  0  0  0
  3  5  1  0  0  0
 32 33  1  0  0  0
 36 37  1  0  0  0
 36 33  1  0  0  0
  4  5  1  0  0  0
  4 15  1  0  0  0
 37 38  1  0  0  0
 33 34  1  0  0  0
  5  6  1  0  0  0
 34 40  1  0  0  0
 34 35  1  0  0  0
 38 40  1  0  0  0
 38 39  1  0  0  0
 15 14  1  0  0  0
 15 12  1  0  0  0
 14 13  2  0  0  0
 12 11  2  0  0  0
 13 11  1  0  0  0
 40 46  1  0  0  0
 46 47  1  0  0  0
 11 16  1  0  0  0
 55 54  1  0  0  0
 16 17  1  0  0  0
 54 47  1  0  0  0
 54 52  1  0  0  0
 47 48  1  0  0  0
 17 18  1  0  0  0
 48 49  1  0  0  0
 53 52  1  0  0  0
 52 50  1  0  0  0
 18 28  1  0  0  0
 49 50  1  0  0  0
 49 59  1  0  0  0
 50 51  1  0  0  0
 60 59  1  0  0  0
 28 19  2  0  0  0
 28 27  1  0  0  0
 26 27  2  0  0  0
 26 25  1  0  0  0
 19 20  1  0  0  0
 27 22  1  0  0  0
 25 24  2  0  0  0
 20 21  2  0  0  0
 22 21  1  0  0  0
 22 23  2  0  0  0
 24 23  1  0  0  0
  6  9  1  0  0  0
 30 31  1  0  0  0
  8 10  1  0  0  0
 35 41  1  0  0  0
 44 45  1  0  0  0
 39 42  1  0  0  0
 60 61  1  0  0  0
 51 56  1  0  0  0
 53 57  1  0  0  0
 55 58  1  0  0  0
M  CHG 1  28   1
M  END
> <minimizedAffinity>
-11.35087

$$$$
5OA6_9PT_A_601


 61 66  0  0  0  0  0  0  0  0999 V2000
   10.6003  -14.0941  -23.7629 C   0  0  0  0  0  0  0  0  0  0  0  0
    9.1386  -13.6527  -23.7677 C   0  0  0  0  0  0  0  0  0  0  0  0
   11.4227  -12.9613  -24.3688 C   0  0  0  0  0  0  0  0  0  0  0  0
    9.7291  -11.3414  -23.4685 C   0  0  0  0  0  0  0  0  0  0  0  0
   11.2211  -11.6724  -23.5667 C   0  0  0  0  0  0  0  0  0  0  0  0
   11.8754  -10.5918  -24.2061 O   0  0  0  0  0  0  0  0  0  0  0  0
    9.0174  -12.4679  -22.9950 O   0  0  0  0  0  0  0  0  0  0  0  0
   10.8067  -15.2969  -24.5387 O   0  0  0  0  0  0  0  0  0  0  0  0
   11.4998  -10.4644  -25.0913 H   0  0  0  0  0  0  0  0  0  0  0  0
   10.5474  -15.1362  -25.4595 H   0  0  0  0  0  0  0  0  0  0  0  0
    9.1649   -9.3492  -20.5712 C   0  0  0  0  0  0  0  0  0  0  0  0
    9.6847  -10.4532  -21.0925 C   0  0  0  0  0  0  0  0  0  0  0  0
    8.5681   -8.6807  -21.5519 N   0  0  0  0  0  0  0  0  0  0  0  0
    8.7120   -9.3018  -22.5908 N   0  0  0  0  0  0  0  0  0  0  0  0
    9.3641  -10.3915  -22.3886 N   0  0  0  0  0  0  0  0  0  0  0  0
    9.2056   -8.8744  -19.0994 C   0  0  0  0  0  0  0  0  0  0  0  0
    7.9349   -9.4286  -18.4904 C   0  0  0  0  0  0  0  0  0  0  0  0
    7.2989   -8.3390  -17.6342 C   0  0  0  0  0  0  0  0  0  0  0  0
    5.7611   -7.9117  -19.6394 C   0  0  0  0  0  0  0  0  0  0  0  0
    4.5356   -7.5364  -20.1787 C   0  0  0  0  0  0  0  0  0  0  0  0
    3.5020   -7.1731  -19.3305 C   0  0  0  0  0  0  0  0  0  0  0  0
    3.6978   -7.1947  -17.9515 C   0  0  0  0  0  0  0  0  0  0  0  0
    2.6219   -6.8204  -17.1410 C   0  0  0  0  0  0  0  0  0  0  0  0
    2.7524   -6.8163  -15.7556 C   0  0  0  0  0  0  0  0  0  0  0  0
    3.9648   -7.1870  -15.1831 C   0  0  0  0  0  0  0  0  0  0  0  0
    5.0490   -7.5606  -15.9890 C   0  0  0  0  0  0  0  0  0  0  0  0
    4.9423   -7.5736  -17.3939 C   0  0  0  0  0  0  0  0  0  0  0  0
    5.9831   -7.9325  -18.2153 N   0  0  0  0  0  0  0  0  0  0  0  0
    8.1173  -14.5571  -23.0935 C   0  0  0  0  0  0  0  0  0  0  0  0
    8.0034  -15.7720  -23.8215 O   0  0  0  0  0  0  0  0  0  0  0  0
    8.8643  -16.2183  -23.8426 H   0  0  0  0  0  0  0  0  0  0  0  0
   12.7960  -13.3495  -24.3032 O   0  0  0  0  0  0  0  0  0  0  0  0
   13.4616  -13.0452  -23.0827 C   0  0  0  0  0  0  0  0  0  0  0  0
   14.1021  -14.3289  -22.5474 C   0  0  0  0  0  0  0  0  0  0  0  0
   13.0662  -15.2604  -22.2457 O   0  0  0  0  0  0  0  0  0  0  0  0
   14.4839  -12.0991  -23.3467 O   0  0  0  0  0  0  0  0  0  0  0  0
   15.1795  -11.6708  -22.1588 C   0  0  0  0  0  0  0  0  0  0  0  0
   15.8948  -12.8827  -21.5273 C   0  0  0  0  0  0  0  0  0  0  0  0
   16.4529  -12.5050  -20.2742 O   0  0  0  0  0  0  0  0  0  0  0  0
   14.8826  -14.0013  -21.2838 C   0  0  0  0  0  0  0  0  0  0  0  0
   12.4675  -14.8759  -21.5865 H   0  0  0  0  0  0  0  0  0  0  0  0
   15.7455  -12.2034  -19.6830 H   0  0  0  0  0  0  0  0  0  0  0  0
   16.0958  -10.5644  -22.6630 C   0  0  0  0  0  0  0  0  0  0  0  0
   17.1983  -11.1451  -23.3789 O   0  0  0  0  0  0  0  0  0  0  0  0
   16.8618  -11.6551  -24.1323 H   0  0  0  0  0  0  0  0  0  0  0  0
   15.5993  -15.1723  -20.8429 O   0  0  0  0  0  0  0  0  0  0  0  0
   15.1240  -15.6893  -19.5808 C   0  0  0  0  0  0  0  0  0  0  0  0
   15.8955  -15.1519  -18.4902 O   0  0  0  0  0  0  0  0  0  0  0  0
   15.3837  -15.5806  -17.1995 C   0  0  0  0  0  0  0  0  0  0  0  0
   15.5064  -17.1377  -17.1044 C   0  0  0  0  0  0  0  0  0  0  0  0
   14.8827  -17.6083  -15.8807 O   0  0  0  0  0  0  0  0  0  0  0  0
   14.8346  -17.8220  -18.2971 C   0  0  0  0  0  0  0  0  0  0  0  0
   15.1902  -19.2217  -18.3170 O   0  0  0  0  0  0  0  0  0  0  0  0
   15.3025  -17.2018  -19.6076 C   0  0  0  0  0  0  0  0  0  0  0  0
   14.5554  -17.7727  -20.6728 O   0  0  0  0  0  0  0  0  0  0  0  0
   13.9401  -17.3797  -15.8896 H   0  0  0  0  0  0  0  0  0  0  0  0
   16.1518  -19.3097  -18.4089 H   0  0  0  0  0  0  0  0  0  0  0  0
   13.6122  -17.5876  -20.5418 H   0  0  0  0  0  0  0  0  0  0  0  0
   16.1009  -14.9573  -16.0100 C   0  0  0  0  0  0  0  0  0  0  0  0
   15.5296  -13.6489  -15.8649 O   0  0  0  0  0  0  0  0  0  0  0  0
   15.6543  -13.1487  -16.6866 H   0  0  0  0  0  0  0  0  0  0  0  0
 30 29  1  0  0  0
 29  2  1  0  0  0
  8  1  1  0  0  0
  2  1  1  0  0  0
  2  7  1  0  0  0
  1  3  1  0  0  0
 44 43  1  0  0  0
  7  4  1  0  0  0
 43 37  1  0  0  0
  3 32  1  0  0  0
  3  5  1  0  0  0
 32 33  1  0  0  0
 36 37  1  0  0  0
 36 33  1  0  0  0
  4  5  1  0  0  0
  4 15  1  0  0  0
 37 38  1  0  0  0
 33 34  1  0  0  0
  5  6  1  0  0  0
 34 40  1  0  0  0
 34 35  1  0  0  0
 38 40  1  0  0  0
 38 39  1  0  0  0
 15 14  1  0  0  0
 15 12  1  0  0  0
 14 13  2  0  0  0
 12 11  2  0  0  0
 13 11  1  0  0  0
 40 46  1  0  0  0
 46 47  1  0  0  0
 11 16  1  0  0  0
 55 54  1  0  0  0
 16 17  1  0  0  0
 54 47  1  0  0  0
 54 52  1  0  0  0
 47 48  1  0  0  0
 17 18  1  0  0  0
 48 49  1  0  0  0
 53 52  1  0  0  0
 52 50  1  0  0  0
 18 28  1  0  0  0
 49 50  1  0  0  0
 49 59  1  0  0  0
 50 51  1  0  0  0
 60 59  1  0  0  0
 28 19  2  0  0  0
 28 27  1  0  0  0
 26 27  2  0  0  0
 26 25  1  0  0  0
 19 20  1  0  0  0
 27 22  1  0  0  0
 25 24  2  0  0  0
 20 21  2  0  0  0
 22 21  1  0  0  0
 22 23  2  0  0  0
 24 23  1  0  0  0
  6  9  1  0  0  0
 30 31  1  0  0  0
  8 10  1  0  0  0
 35 41  1  0  0  0
 44 45  1  0  0  0
 39 42  1  0  0  0
 60 61  1  0  0  0
 51 56  1  0  0  0
 53 57  1  0  0  0
 55 58  1  0  0  0
M  CHG 1  28   1
M  END
> <minimizedAffinity>
-10.76750

$$$$
5OA6_9PT_A_601


 61 66  0  0  0  0  0  0  0  0999 V2000
   10.8854  -10.6992  -23.3655 C   0  0  0  0  0  0  0  0  0  0  0  0
    9.8964   -9.8341  -24.1431 C   0  0  0  0  0  0  0  0  0  0  0  0
   11.2483   -9.9459  -22.0898 C   0  0  0  0  0  0  0  0  0  0  0  0
    8.9598   -8.9145  -22.1287 C   0  0  0  0  0  0  0  0  0  0  0  0
    9.9883   -9.6553  -21.2693 C   0  0  0  0  0  0  0  0  0  0  0  0
   10.3074   -8.8406  -20.1561 O   0  0  0  0  0  0  0  0  0  0  0  0
    8.7478   -9.6178  -23.3371 O   0  0  0  0  0  0  0  0  0  0  0  0
   12.0905  -10.9590  -24.1215 O   0  0  0  0  0  0  0  0  0  0  0  0
   10.6728   -7.9975  -20.4666 H   0  0  0  0  0  0  0  0  0  0  0  0
   12.5291  -10.1191  -24.3293 H   0  0  0  0  0  0  0  0  0  0  0  0
    5.7387   -8.5546  -20.6535 C   0  0  0  0  0  0  0  0  0  0  0  0
    6.9948   -8.1334  -20.7269 C   0  0  0  0  0  0  0  0  0  0  0  0
    5.6073   -9.5828  -21.4844 N   0  0  0  0  0  0  0  0  0  0  0  0
    6.6772   -9.7782  -22.0349 N   0  0  0  0  0  0  0  0  0  0  0  0
    7.5677   -8.9502  -21.6163 N   0  0  0  0  0  0  0  0  0  0  0  0
    4.5921   -7.9982  -19.7766 C   0  0  0  0  0  0  0  0  0  0  0  0
    5.2828   -7.5085  -18.5212 C   0  0  0  0  0  0  0  0  0  0  0  0
    4.7252   -8.2850  -17.3333 C   0  0  0  0  0  0  0  0  0  0  0  0
    6.4668   -7.4689  -15.6394 C   0  0  0  0  0  0  0  0  0  0  0  0
    6.8079   -6.8305  -14.4522 C   0  0  0  0  0  0  0  0  0  0  0  0
    5.8070   -6.3097  -13.6481 C   0  0  0  0  0  0  0  0  0  0  0  0
    4.4749   -6.4236  -14.0393 C   0  0  0  0  0  0  0  0  0  0  0  0
    3.5047   -5.8796  -13.1923 C   0  0  0  0  0  0  0  0  0  0  0  0
    2.1554   -5.9630  -13.5224 C   0  0  0  0  0  0  0  0  0  0  0  0
    1.7795   -6.5946  -14.7035 C   0  0  0  0  0  0  0  0  0  0  0  0
    2.7459   -7.1451  -15.5564 C   0  0  0  0  0  0  0  0  0  0  0  0
    4.1183   -7.0732  -15.2451 C   0  0  0  0  0  0  0  0  0  0  0  0
    5.0931   -7.6021  -16.0557 N   0  0  0  0  0  0  0  0  0  0  0  0
    9.2738  -10.4177  -25.4030 C   0  0  0  0  0  0  0  0  0  0  0  0
    8.4943  -11.5567  -25.0649 O   0  0  0  0  0  0  0  0  0  0  0  0
    7.7914  -11.2963  -24.4493 H   0  0  0  0  0  0  0  0  0  0  0  0
   12.1223  -10.7854  -21.3333 O   0  0  0  0  0  0  0  0  0  0  0  0
   11.6039  -12.0680  -20.9995 C   0  0  0  0  0  0  0  0  0  0  0  0
   12.7771  -13.0408  -20.8511 C   0  0  0  0  0  0  0  0  0  0  0  0
   13.4284  -13.1610  -22.1133 O   0  0  0  0  0  0  0  0  0  0  0  0
   10.9265  -11.9747  -19.7575 O   0  0  0  0  0  0  0  0  0  0  0  0
   10.3032  -13.2118  -19.3582 C   0  0  0  0  0  0  0  0  0  0  0  0
   11.3934  -14.2834  -19.1519 C   0  0  0  0  0  0  0  0  0  0  0  0
   10.7803  -15.5445  -18.9109 O   0  0  0  0  0  0  0  0  0  0  0  0
   12.2419  -14.3969  -20.4177 C   0  0  0  0  0  0  0  0  0  0  0  0
   12.7962  -13.4852  -22.7737 H   0  0  0  0  0  0  0  0  0  0  0  0
   10.2292  -15.7867  -19.6715 H   0  0  0  0  0  0  0  0  0  0  0  0
    9.5222  -12.8291  -18.1087 C   0  0  0  0  0  0  0  0  0  0  0  0
    9.5166  -11.3991  -17.9670 O   0  0  0  0  0  0  0  0  0  0  0  0
    9.0985  -10.9987  -18.7453 H   0  0  0  0  0  0  0  0  0  0  0  0
   13.3445  -15.2853  -20.1455 O   0  0  0  0  0  0  0  0  0  0  0  0
   14.1180  -14.8956  -18.9897 C   0  0  0  0  0  0  0  0  0  0  0  0
   15.3038  -14.1836  -19.3901 O   0  0  0  0  0  0  0  0  0  0  0  0
   16.0574  -13.6969  -18.2469 C   0  0  0  0  0  0  0  0  0  0  0  0
   16.5403  -14.9251  -17.4061 C   0  0  0  0  0  0  0  0  0  0  0  0
   17.1832  -14.4672  -16.1875 O   0  0  0  0  0  0  0  0  0  0  0  0
   15.3705  -15.8393  -17.0350 C   0  0  0  0  0  0  0  0  0  0  0  0
   15.8762  -17.0804  -16.4967 O   0  0  0  0  0  0  0  0  0  0  0  0
   14.5336  -16.1691  -18.2645 C   0  0  0  0  0  0  0  0  0  0  0  0
   13.3892  -16.9032  -17.8517 O   0  0  0  0  0  0  0  0  0  0  0  0
   16.5457  -13.9678  -15.6536 H   0  0  0  0  0  0  0  0  0  0  0  0
   16.4188  -17.5258  -17.1661 H   0  0  0  0  0  0  0  0  0  0  0  0
   12.8667  -16.3675  -17.2346 H   0  0  0  0  0  0  0  0  0  0  0  0
   17.2660  -12.8484  -18.6167 C   0  0  0  0  0  0  0  0  0  0  0  0
   17.2421  -12.7568  -20.0487 O   0  0  0  0  0  0  0  0  0  0  0  0
   17.2744  -13.6480  -20.4302 H   0  0  0  0  0  0  0  0  0  0  0  0
 30 29  1  0  0  0
 29  2  1  0  0  0
  8  1  1  0  0  0
  2  1  1  0  0  0
  2  7  1  0  0  0
  1  3  1  0  0  0
 44 43  1  0  0  0
  7  4  1  0  0  0
 43 37  1  0  0  0
  3 32  1  0  0  0
  3  5  1  0  0  0
 32 33  1  0  0  0
 36 37  1  0  0  0
 36 33  1  0  0  0
  4  5  1  0  0  0
  4 15  1  0  0  0
 37 38  1  0  0  0
 33 34  1  0  0  0
  5  6  1  0  0  0
 34 40  1  0  0  0
 34 35  1  0  0  0
 38 40  1  0  0  0
 38 39  1  0  0  0
 15 14  1  0  0  0
 15 12  1  0  0  0
 14 13  2  0  0  0
 12 11  2  0  0  0
 13 11  1  0  0  0
 40 46  1  0  0  0
 46 47  1  0  0  0
 11 16  1  0  0  0
 55 54  1  0  0  0
 16 17  1  0  0  0
 54 47  1  0  0  0
 54 52  1  0  0  0
 47 48  1  0  0  0
 17 18  1  0  0  0
 48 49  1  0  0  0
 53 52  1  0  0  0
 52 50  1  0  0  0
 18 28  1  0  0  0
 49 50  1  0  0  0
 49 59  1  0  0  0
 50 51  1  0  0  0
 60 59  1  0  0  0
 28 19  2  0  0  0
 28 27  1  0  0  0
 26 27  2  0  0  0
 26 25  1  0  0  0
 19 20  1  0  0  0
 27 22  1  0  0  0
 25 24  2  0  0  0
 20 21  2  0  0  0
 22 21  1  0  0  0
 22 23  2  0  0  0
 24 23  1  0  0  0
  6  9  1  0  0  0
 30 31  1  0  0  0
  8 10  1  0  0  0
 35 41  1  0  0  0
 44 45  1  0  0  0
 39 42  1  0  0  0
 60 61  1  0  0  0
 51 56  1  0  0  0
 53 57  1  0  0  0
 55 58  1  0  0  0
M  CHG 1  28   1
M  END
> <minimizedAffinity>
-10.45925

$$$$
5OA6_9PT_A_601


 61 66  0  0  0  0  0  0  0  0999 V2000
    6.7859   -9.4851  -21.1829 C   0  0  0  0  0  0  0  0  0  0  0  0
    6.9351  -10.9877  -21.4091 C   0  0  0  0  0  0  0  0  0  0  0  0
    6.9286   -9.2309  -19.6857 C   0  0  0  0  0  0  0  0  0  0  0  0
    8.4584  -11.2178  -19.5632 C   0  0  0  0  0  0  0  0  0  0  0  0
    8.2832   -9.7435  -19.1879 C   0  0  0  0  0  0  0  0  0  0  0  0
    8.3602   -9.6308  -17.7786 O   0  0  0  0  0  0  0  0  0  0  0  0
    8.2137  -11.3940  -20.9448 O   0  0  0  0  0  0  0  0  0  0  0  0
    5.4999   -8.9944  -21.6263 O   0  0  0  0  0  0  0  0  0  0  0  0
    7.6611  -10.1670  -17.3728 H   0  0  0  0  0  0  0  0  0  0  0  0
    4.7953   -9.4412  -21.1316 H   0  0  0  0  0  0  0  0  0  0  0  0
   11.7138  -12.6055  -19.9601 C   0  0  0  0  0  0  0  0  0  0  0  0
   10.4730  -12.5007  -20.4185 C   0  0  0  0  0  0  0  0  0  0  0  0
   11.7939  -11.8924  -18.8421 N   0  0  0  0  0  0  0  0  0  0  0  0
   10.7088  -11.3798  -18.6282 N   0  0  0  0  0  0  0  0  0  0  0  0
    9.8562  -11.7144  -19.5310 N   0  0  0  0  0  0  0  0  0  0  0  0
   12.8940  -13.4016  -20.5656 C   0  0  0  0  0  0  0  0  0  0  0  0
   12.6623  -13.3384  -22.0607 C   0  0  0  0  0  0  0  0  0  0  0  0
   13.2713  -12.0428  -22.5858 C   0  0  0  0  0  0  0  0  0  0  0  0
   13.4746  -12.4817  -25.1027 C   0  0  0  0  0  0  0  0  0  0  0  0
   13.0699  -12.2651  -26.4152 C   0  0  0  0  0  0  0  0  0  0  0  0
   12.0332  -11.3821  -26.6703 C   0  0  0  0  0  0  0  0  0  0  0  0
   11.4041  -10.7286  -25.6131 C   0  0  0  0  0  0  0  0  0  0  0  0
   10.3630   -9.8494  -25.9256 C   0  0  0  0  0  0  0  0  0  0  0  0
    9.6956   -9.1618  -24.9166 C   0  0  0  0  0  0  0  0  0  0  0  0
   10.0747   -9.3558  -23.5923 C   0  0  0  0  0  0  0  0  0  0  0  0
   11.1195  -10.2332  -23.2711 C   0  0  0  0  0  0  0  0  0  0  0  0
   11.8105  -10.9416  -24.2742 C   0  0  0  0  0  0  0  0  0  0  0  0
   12.8396  -11.8084  -23.9974 N   0  0  0  0  0  0  0  0  0  0  0  0
    6.9610  -11.4949  -22.8435 C   0  0  0  0  0  0  0  0  0  0  0  0
    5.7866  -11.0687  -23.5203 O   0  0  0  0  0  0  0  0  0  0  0  0
    5.7482  -10.0994  -23.5222 H   0  0  0  0  0  0  0  0  0  0  0  0
    6.8541   -7.8186  -19.4843 O   0  0  0  0  0  0  0  0  0  0  0  0
    5.9414   -7.3895  -18.4802 C   0  0  0  0  0  0  0  0  0  0  0  0
    4.5232   -7.7555  -18.9267 C   0  0  0  0  0  0  0  0  0  0  0  0
    4.2205   -7.0286  -20.1149 O   0  0  0  0  0  0  0  0  0  0  0  0
    6.2345   -8.0781  -17.2761 O   0  0  0  0  0  0  0  0  0  0  0  0
    5.4053   -7.6650  -16.1714 C   0  0  0  0  0  0  0  0  0  0  0  0
    3.9342   -8.0025  -16.4899 C   0  0  0  0  0  0  0  0  0  0  0  0
    3.0928   -7.4598  -15.4790 O   0  0  0  0  0  0  0  0  0  0  0  0
    3.5452   -7.3726  -17.8266 C   0  0  0  0  0  0  0  0  0  0  0  0
    4.2890   -6.0773  -19.9382 H   0  0  0  0  0  0  0  0  0  0  0  0
    3.2040   -6.4967  -15.4485 H   0  0  0  0  0  0  0  0  0  0  0  0
    6.0007   -8.4074  -14.9831 C   0  0  0  0  0  0  0  0  0  0  0  0
    6.9484   -9.3804  -15.4526 O   0  0  0  0  0  0  0  0  0  0  0  0
    7.6561   -8.9324  -15.9419 H   0  0  0  0  0  0  0  0  0  0  0  0
    2.2236   -7.8314  -18.1758 O   0  0  0  0  0  0  0  0  0  0  0  0
    2.1498   -9.2608  -18.3699 C   0  0  0  0  0  0  0  0  0  0  0  0
    2.2679   -9.5893  -19.7668 O   0  0  0  0  0  0  0  0  0  0  0  0
    2.2901  -11.0254  -19.9873 C   0  0  0  0  0  0  0  0  0  0  0  0
    0.9289  -11.6272  -19.5039 C   0  0  0  0  0  0  0  0  0  0  0  0
    0.9712  -13.0759  -19.5895 O   0  0  0  0  0  0  0  0  0  0  0  0
    0.6256  -11.2255  -18.0587 C   0  0  0  0  0  0  0  0  0  0  0  0
   -0.7394  -11.5694  -17.7356 O   0  0  0  0  0  0  0  0  0  0  0  0
    0.7858   -9.7220  -17.8726 C   0  0  0  0  0  0  0  0  0  0  0  0
    0.6285   -9.4153  -16.4941 O   0  0  0  0  0  0  0  0  0  0  0  0
    1.6730  -13.4136  -19.0111 H   0  0  0  0  0  0  0  0  0  0  0  0
   -1.3419  -11.0892  -18.3249 H   0  0  0  0  0  0  0  0  0  0  0  0
    1.3053   -9.8824  -15.9797 H   0  0  0  0  0  0  0  0  0  0  0  0
    2.5173  -11.4266  -21.4382 C   0  0  0  0  0  0  0  0  0  0  0  0
    3.1561  -10.2961  -22.0493 O   0  0  0  0  0  0  0  0  0  0  0  0
    2.5883   -9.5151  -21.9571 H   0  0  0  0  0  0  0  0  0  0  0  0
 30 29  1  0  0  0
 29  2  1  0  0  0
  8  1  1  0  0  0
  2  1  1  0  0  0
  2  7  1  0  0  0
  1  3  1  0  0  0
 44 43  1  0  0  0
  7  4  1  0  0  0
 43 37  1  0  0  0
  3 32  1  0  0  0
  3  5  1  0  0  0
 32 33  1  0  0  0
 36 37  1  0  0  0
 36 33  1  0  0  0
  4  5  1  0  0  0
  4 15  1  0  0  0
 37 38  1  0  0  0
 33 34  1  0  0  0
  5  6  1  0  0  0
 34 40  1  0  0  0
 34 35  1  0  0  0
 38 40  1  0  0  0
 38 39  1  0  0  0
 15 14  1  0  0  0
 15 12  1  0  0  0
 14 13  2  0  0  0
 12 11  2  0  0  0
 13 11  1  0  0  0
 40 46  1  0  0  0
 46 47  1  0  0  0
 11 16  1  0  0  0
 55 54  1  0  0  0
 16 17  1  0  0  0
 54 47  1  0  0  0
 54 52  1  0  0  0
 47 48  1  0  0  0
 17 18  1  0  0  0
 48 49  1  0  0  0
 53 52  1  0  0  0
 52 50  1  0  0  0
 18 28  1  0  0  0
 49 50  1  0  0  0
 49 59  1  0  0  0
 50 51  1  0  0  0
 60 59  1  0  0  0
 28 19  2  0  0  0
 28 27  1  0  0  0
 26 27  2  0  0  0
 26 25  1  0  0  0
 19 20  1  0  0  0
 27 22  1  0  0  0
 25 24  2  0  0  0
 20 21  2  0  0  0
 22 21  1  0  0  0
 22 23  2  0  0  0
 24 23  1  0  0  0
  6  9  1  0  0  0
 30 31  1  0  0  0
  8 10  1  0  0  0
 35 41  1  0  0  0
 44 45  1  0  0  0
 39 42  1  0  0  0
 60 61  1  0  0  0
 51 56  1  0  0  0
 53 57  1  0  0  0
 55 58  1  0  0  0
M  CHG 1  28   1
M  END
> <minimizedAffinity>
-10.33080

$$$$
5OA6_9PT_A_601


 61 66  0  0  0  0  0  0  0  0999 V2000
    9.5589  -12.2031  -23.9641 C   0  0  0  0  0  0  0  0  0  0  0  0
    8.4002  -11.2387  -23.7220 C   0  0  0  0  0  0  0  0  0  0  0  0
   10.8094  -11.5790  -23.3531 C   0  0  0  0  0  0  0  0  0  0  0  0
    9.3395  -10.4697  -21.6468 C   0  0  0  0  0  0  0  0  0  0  0  0
   10.5960  -11.3189  -21.8591 C   0  0  0  0  0  0  0  0  0  0  0  0
   11.7029  -10.6178  -21.3223 O   0  0  0  0  0  0  0  0  0  0  0  0
    8.2442  -11.0553  -22.3229 O   0  0  0  0  0  0  0  0  0  0  0  0
    9.7857  -12.4363  -25.3731 O   0  0  0  0  0  0  0  0  0  0  0  0
   11.7938   -9.7636  -21.7727 H   0  0  0  0  0  0  0  0  0  0  0  0
   10.0011  -11.5970  -25.8092 H   0  0  0  0  0  0  0  0  0  0  0  0
    7.5343  -10.4912  -18.5772 C   0  0  0  0  0  0  0  0  0  0  0  0
    7.5167  -10.3009  -19.8903 C   0  0  0  0  0  0  0  0  0  0  0  0
    8.7796  -10.7956  -18.2290 N   0  0  0  0  0  0  0  0  0  0  0  0
    9.4730  -10.8069  -19.2315 N   0  0  0  0  0  0  0  0  0  0  0  0
    8.7815  -10.5026  -20.2723 N   0  0  0  0  0  0  0  0  0  0  0  0
    6.3572  -10.3860  -17.5788 C   0  0  0  0  0  0  0  0  0  0  0  0
    6.7166   -9.2090  -16.6967 C   0  0  0  0  0  0  0  0  0  0  0  0
    6.8401   -9.7063  -15.2606 C   0  0  0  0  0  0  0  0  0  0  0  0
    6.5909   -7.2119  -14.7274 C   0  0  0  0  0  0  0  0  0  0  0  0
    6.3307   -6.1745  -13.8388 C   0  0  0  0  0  0  0  0  0  0  0  0
    6.0392   -6.4687  -12.5166 C   0  0  0  0  0  0  0  0  0  0  0  0
    6.0022   -7.7956  -12.0943 C   0  0  0  0  0  0  0  0  0  0  0  0
    5.7016   -8.0371  -10.7505 C   0  0  0  0  0  0  0  0  0  0  0  0
    5.6526   -9.3396  -10.2632 C   0  0  0  0  0  0  0  0  0  0  0  0
    5.9071  -10.4011  -11.1257 C   0  0  0  0  0  0  0  0  0  0  0  0
    6.2122  -10.1670  -12.4735 C   0  0  0  0  0  0  0  0  0  0  0  0
    6.2674   -8.8578  -12.9914 C   0  0  0  0  0  0  0  0  0  0  0  0
    6.5640   -8.5900  -14.3057 N   0  0  0  0  0  0  0  0  0  0  0  0
    7.0025  -11.6864  -24.1241 C   0  0  0  0  0  0  0  0  0  0  0  0
    6.7314  -11.2638  -25.4534 O   0  0  0  0  0  0  0  0  0  0  0  0
    7.3814  -11.6569  -26.0566 H   0  0  0  0  0  0  0  0  0  0  0  0
   11.8778  -12.5120  -23.5230 O   0  0  0  0  0  0  0  0  0  0  0  0
   12.9061  -12.4525  -22.5410 C   0  0  0  0  0  0  0  0  0  0  0  0
   13.3737  -13.8797  -22.2425 C   0  0  0  0  0  0  0  0  0  0  0  0
   12.2850  -14.6037  -21.6746 O   0  0  0  0  0  0  0  0  0  0  0  0
   13.9956  -11.7146  -23.0687 O   0  0  0  0  0  0  0  0  0  0  0  0
   15.0699  -11.5374  -22.1237 C   0  0  0  0  0  0  0  0  0  0  0  0
   15.6499  -12.9178  -21.7532 C   0  0  0  0  0  0  0  0  0  0  0  0
   16.6026  -12.7676  -20.7072 O   0  0  0  0  0  0  0  0  0  0  0  0
   14.5265  -13.8243  -21.2519 C   0  0  0  0  0  0  0  0  0  0  0  0
   11.9921  -14.1624  -20.8620 H   0  0  0  0  0  0  0  0  0  0  0  0
   16.1710  -12.3794  -19.9301 H   0  0  0  0  0  0  0  0  0  0  0  0
   16.0286  -10.6016  -22.8470 C   0  0  0  0  0  0  0  0  0  0  0  0
   17.1697  -11.3456  -23.3045 O   0  0  0  0  0  0  0  0  0  0  0  0
   16.8784  -12.0432  -23.9123 H   0  0  0  0  0  0  0  0  0  0  0  0
   15.0637  -15.1490  -21.0633 O   0  0  0  0  0  0  0  0  0  0  0  0
   14.9196  -15.6348  -19.7108 C   0  0  0  0  0  0  0  0  0  0  0  0
   15.7485  -14.8775  -18.8092 O   0  0  0  0  0  0  0  0  0  0  0  0
   15.5570  -15.2809  -17.4264 C   0  0  0  0  0  0  0  0  0  0  0  0
   15.9908  -16.7769  -17.2767 C   0  0  0  0  0  0  0  0  0  0  0  0
   15.6877  -17.2472  -15.9369 O   0  0  0  0  0  0  0  0  0  0  0  0
   15.2690  -17.6689  -18.2893 C   0  0  0  0  0  0  0  0  0  0  0  0
   15.8779  -18.9784  -18.3032 O   0  0  0  0  0  0  0  0  0  0  0  0
   15.3780  -17.0874  -19.6931 C   0  0  0  0  0  0  0  0  0  0  0  0
   14.5833  -17.8711  -20.5726 O   0  0  0  0  0  0  0  0  0  0  0  0
   14.7314  -17.1934  -15.7840 H   0  0  0  0  0  0  0  0  0  0  0  0
   16.8084  -18.8996  -18.5657 H   0  0  0  0  0  0  0  0  0  0  0  0
   13.6588  -17.8482  -20.2800 H   0  0  0  0  0  0  0  0  0  0  0  0
   16.3339  -14.4408  -16.4222 C   0  0  0  0  0  0  0  0  0  0  0  0
   15.5871  -14.5234  -15.1995 O   0  0  0  0  0  0  0  0  0  0  0  0
   14.6857  -14.1974  -15.3486 H   0  0  0  0  0  0  0  0  0  0  0  0
 30 29  1  0  0  0
 29  2  1  0  0  0
  8  1  1  0  0  0
  2  1  1  0  0  0
  2  7  1  0  0  0
  1  3  1  0  0  0
 44 43  1  0  0  0
  7  4  1  0  0  0
 43 37  1  0  0  0
  3 32  1  0  0  0
  3  5  1  0  0  0
 32 33  1  0  0  0
 36 37  1  0  0  0
 36 33  1  0  0  0
  4  5  1  0  0  0
  4 15  1  0  0  0
 37 38  1  0  0  0
 33 34  1  0  0  0
  5  6  1  0  0  0
 34 40  1  0  0  0
 34 35  1  0  0  0
 38 40  1  0  0  0
 38 39  1  0  0  0
 15 14  1  0  0  0
 15 12  1  0  0  0
 14 13  2  0  0  0
 12 11  2  0  0  0
 13 11  1  0  0  0
 40 46  1  0  0  0
 46 47  1  0  0  0
 11 16  1  0  0  0
 55 54  1  0  0  0
 16 17  1  0  0  0
 54 47  1  0  0  0
 54 52  1  0  0  0
 47 48  1  0  0  0
 17 18  1  0  0  0
 48 49  1  0  0  0
 53 52  1  0  0  0
 52 50  1  0  0  0
 18 28  1  0  0  0
 49 50  1  0  0  0
 49 59  1  0  0  0
 50 51  1  0  0  0
 60 59  1  0  0  0
 28 19  2  0  0  0
 28 27  1  0  0  0
 26 27  2  0  0  0
 26 25  1  0  0  0
 19 20  1  0  0  0
 27 22  1  0  0  0
 25 24  2  0  0  0
 20 21  2  0  0  0
 22 21  1  0  0  0
 22 23  2  0  0  0
 24 23  1  0  0  0
  6  9  1  0  0  0
 30 31  1  0  0  0
  8 10  1  0  0  0
 35 41  1  0  0  0
 44 45  1  0  0  0
 39 42  1  0  0  0
 60 61  1  0  0  0
 51 56  1  0  0  0
 53 57  1  0  0  0
 55 58  1  0  0  0
M  CHG 1  28   1
M  END
> <minimizedAffinity>
-10.25632

$$$$
5OA6_9PT_A_601


 61 66  0  0  0  0  0  0  0  0999 V2000
    5.6725   -8.9796  -20.2569 C   0  0  0  0  0  0  0  0  0  0  0  0
    5.1698   -7.7264  -19.5443 C   0  0  0  0  0  0  0  0  0  0  0  0
    7.1851   -9.0380  -20.0683 C   0  0  0  0  0  0  0  0  0  0  0  0
    6.8876   -7.8662  -17.8680 C   0  0  0  0  0  0  0  0  0  0  0  0
    7.5327   -9.0605  -18.5770 C   0  0  0  0  0  0  0  0  0  0  0  0
    8.9351   -8.9781  -18.4011 O   0  0  0  0  0  0  0  0  0  0  0  0
    5.5065   -7.8181  -18.1682 O   0  0  0  0  0  0  0  0  0  0  0  0
    5.3719   -8.9574  -21.6712 O   0  0  0  0  0  0  0  0  0  0  0  0
    9.2601   -8.1462  -18.7795 H   0  0  0  0  0  0  0  0  0  0  0  0
    5.8008   -8.1898  -22.0809 H   0  0  0  0  0  0  0  0  0  0  0  0
    6.4472   -7.6778  -14.3393 C   0  0  0  0  0  0  0  0  0  0  0  0
    6.4511   -7.0473  -15.5069 C   0  0  0  0  0  0  0  0  0  0  0  0
    6.7630   -8.9484  -14.5643 N   0  0  0  0  0  0  0  0  0  0  0  0
    6.9360   -9.1009  -15.7613 N   0  0  0  0  0  0  0  0  0  0  0  0
    6.7793   -7.9920  -16.3936 N   0  0  0  0  0  0  0  0  0  0  0  0
    6.1456   -7.0957  -12.9381 C   0  0  0  0  0  0  0  0  0  0  0  0
    5.0917   -6.0379  -13.1893 C   0  0  0  0  0  0  0  0  0  0  0  0
    3.7350   -6.6087  -12.7914 C   0  0  0  0  0  0  0  0  0  0  0  0
    2.9686   -6.8602  -15.2240 C   0  0  0  0  0  0  0  0  0  0  0  0
    2.0421   -6.6489  -16.2391 C   0  0  0  0  0  0  0  0  0  0  0  0
    0.8726   -5.9603  -15.9598 C   0  0  0  0  0  0  0  0  0  0  0  0
    0.6344   -5.4952  -14.6686 C   0  0  0  0  0  0  0  0  0  0  0  0
   -0.5616   -4.8079  -14.4406 C   0  0  0  0  0  0  0  0  0  0  0  0
   -0.8589   -4.3137  -13.1742 C   0  0  0  0  0  0  0  0  0  0  0  0
    0.0460   -4.5082  -12.1357 C   0  0  0  0  0  0  0  0  0  0  0  0
    1.2485   -5.1935  -12.3571 C   0  0  0  0  0  0  0  0  0  0  0  0
    1.5726   -5.7041  -13.6297 C   0  0  0  0  0  0  0  0  0  0  0  0
    2.7414   -6.3794  -13.8842 N   0  0  0  0  0  0  0  0  0  0  0  0
    3.6666   -7.5007  -19.4714 C   0  0  0  0  0  0  0  0  0  0  0  0
    3.0299   -8.6830  -19.0067 O   0  0  0  0  0  0  0  0  0  0  0  0
    3.3653   -8.9053  -18.1241 H   0  0  0  0  0  0  0  0  0  0  0  0
    7.6444  -10.2448  -20.6795 O   0  0  0  0  0  0  0  0  0  0  0  0
    8.8267  -10.1244  -21.4622 C   0  0  0  0  0  0  0  0  0  0  0  0
    9.7842  -11.2532  -21.0699 C   0  0  0  0  0  0  0  0  0  0  0  0
   10.1578  -11.0768  -19.7058 O   0  0  0  0  0  0  0  0  0  0  0  0
    8.4827  -10.2703  -22.8298 O   0  0  0  0  0  0  0  0  0  0  0  0
    9.6053  -10.0975  -23.7176 C   0  0  0  0  0  0  0  0  0  0  0  0
   10.6465  -11.2002  -23.4363 C   0  0  0  0  0  0  0  0  0  0  0  0
   11.8229  -10.9477  -24.1957 O   0  0  0  0  0  0  0  0  0  0  0  0
   11.0194  -11.1823  -21.9545 C   0  0  0  0  0  0  0  0  0  0  0  0
   10.5845  -10.2126  -19.5966 H   0  0  0  0  0  0  0  0  0  0  0  0
   12.1901  -10.0854  -23.9459 H   0  0  0  0  0  0  0  0  0  0  0  0
    8.9730  -10.1375  -25.1020 C   0  0  0  0  0  0  0  0  0  0  0  0
    9.1634   -8.8701  -25.7519 O   0  0  0  0  0  0  0  0  0  0  0  0
   10.1127   -8.6886  -25.8349 H   0  0  0  0  0  0  0  0  0  0  0  0
   11.8688  -12.3166  -21.6876 O   0  0  0  0  0  0  0  0  0  0  0  0
   13.1805  -11.9460  -21.2099 C   0  0  0  0  0  0  0  0  0  0  0  0
   14.1804  -12.2229  -22.2083 O   0  0  0  0  0  0  0  0  0  0  0  0
   15.4998  -11.7761  -21.7945 C   0  0  0  0  0  0  0  0  0  0  0  0
   15.9191  -12.5722  -20.5143 C   0  0  0  0  0  0  0  0  0  0  0  0
   17.1752  -12.0557  -20.0010 O   0  0  0  0  0  0  0  0  0  0  0  0
   14.8554  -12.4644  -19.4193 C   0  0  0  0  0  0  0  0  0  0  0  0
   15.1437  -13.4114  -18.3677 O   0  0  0  0  0  0  0  0  0  0  0  0
   13.4749  -12.7891  -19.9758 C   0  0  0  0  0  0  0  0  0  0  0  0
   12.5080  -12.5450  -18.9636 O   0  0  0  0  0  0  0  0  0  0  0  0
   17.0651  -11.1240  -19.7546 H   0  0  0  0  0  0  0  0  0  0  0  0
   15.1275  -14.3112  -18.7296 H   0  0  0  0  0  0  0  0  0  0  0  0
   12.5435  -11.6119  -18.7008 H   0  0  0  0  0  0  0  0  0  0  0  0
   16.5756  -11.9520  -22.8572 C   0  0  0  0  0  0  0  0  0  0  0  0
   17.1424  -13.2476  -22.6132 O   0  0  0  0  0  0  0  0  0  0  0  0
   17.4938  -13.2818  -21.7097 H   0  0  0  0  0  0  0  0  0  0  0  0
 30 29  1  0  0  0
 29  2  1  0  0  0
  8  1  1  0  0  0
  2  1  1  0  0  0
  2  7  1  0  0  0
  1  3  1  0  0  0
 44 43  1  0  0  0
  7  4  1  0  0  0
 43 37  1  0  0  0
  3 32  1  0  0  0
  3  5  1  0  0  0
 32 33  1  0  0  0
 36 37  1  0  0  0
 36 33  1  0  0  0
  4  5  1  0  0  0
  4 15  1  0  0  0
 37 38  1  0  0  0
 33 34  1  0  0  0
  5  6  1  0  0  0
 34 40  1  0  0  0
 34 35  1  0  0  0
 38 40  1  0  0  0
 38 39  1  0  0  0
 15 14  1  0  0  0
 15 12  1  0  0  0
 14 13  2  0  0  0
 12 11  2  0  0  0
 13 11  1  0  0  0
 40 46  1  0  0  0
 46 47  1  0  0  0
 11 16  1  0  0  0
 55 54  1  0  0  0
 16 17  1  0  0  0
 54 47  1  0  0  0
 54 52  1  0  0  0
 47 48  1  0  0  0
 17 18  1  0  0  0
 48 49  1  0  0  0
 53 52  1  0  0  0
 52 50  1  0  0  0
 18 28  1  0  0  0
 49 50  1  0  0  0
 49 59  1  0  0  0
 50 51  1  0  0  0
 60 59  1  0  0  0
 28 19  2  0  0  0
 28 27  1  0  0  0
 26 27  2  0  0  0
 26 25  1  0  0  0
 19 20  1  0  0  0
 27 22  1  0  0  0
 25 24  2  0  0  0
 20 21  2  0  0  0
 22 21  1  0  0  0
 22 23  2  0  0  0
 24 23  1  0  0  0
  6  9  1  0  0  0
 30 31  1  0  0  0
  8 10  1  0  0  0
 35 41  1  0  0  0
 44 45  1  0  0  0
 39 42  1  0  0  0
 60 61  1  0  0  0
 51 56  1  0  0  0
 53 57  1  0  0  0
 55 58  1  0  0  0
M  CHG 1  28   1
M  END
> <minimizedAffinity>
-10.13382

$$$$
5OA6_9PT_A_601


 61 66  0  0  0  0  0  0  0  0999 V2000
    9.0367  -11.8201  -18.5778 C   0  0  0  0  0  0  0  0  0  0  0  0
   10.4301  -11.2916  -18.9100 C   0  0  0  0  0  0  0  0  0  0  0  0
    8.0541  -10.6680  -18.7619 C   0  0  0  0  0  0  0  0  0  0  0  0
    9.5682   -9.7508  -20.5420 C   0  0  0  0  0  0  0  0  0  0  0  0
    8.1266  -10.1337  -20.1952 C   0  0  0  0  0  0  0  0  0  0  0  0
    7.3157   -8.9807  -20.3283 O   0  0  0  0  0  0  0  0  0  0  0  0
   10.4347  -10.8302  -20.2526 O   0  0  0  0  0  0  0  0  0  0  0  0
    8.9498  -12.3042  -17.2179 O   0  0  0  0  0  0  0  0  0  0  0  0
    7.6346   -8.2899  -19.7266 H   0  0  0  0  0  0  0  0  0  0  0  0
    9.1477  -11.5801  -16.6036 H   0  0  0  0  0  0  0  0  0  0  0  0
   10.5348   -9.9046  -23.9659 C   0  0  0  0  0  0  0  0  0  0  0  0
   10.6696  -10.3868  -22.7371 C   0  0  0  0  0  0  0  0  0  0  0  0
    9.6643   -8.9024  -23.9142 N   0  0  0  0  0  0  0  0  0  0  0  0
    9.2813   -8.7778  -22.7637 N   0  0  0  0  0  0  0  0  0  0  0  0
    9.8569   -9.6309  -21.9925 N   0  0  0  0  0  0  0  0  0  0  0  0
   11.2386  -10.3741  -25.2611 C   0  0  0  0  0  0  0  0  0  0  0  0
   10.8375  -11.8274  -25.4012 C   0  0  0  0  0  0  0  0  0  0  0  0
   12.0986  -12.6524  -25.6340 C   0  0  0  0  0  0  0  0  0  0  0  0
   11.5919  -14.2078  -23.6611 C   0  0  0  0  0  0  0  0  0  0  0  0
   11.9682  -14.8517  -22.4875 C   0  0  0  0  0  0  0  0  0  0  0  0
   13.2451  -14.6589  -21.9854 C   0  0  0  0  0  0  0  0  0  0  0  0
   14.1379  -13.8315  -22.6627 C   0  0  0  0  0  0  0  0  0  0  0  0
   15.4139  -13.6726  -22.1139 C   0  0  0  0  0  0  0  0  0  0  0  0
   16.3522  -12.8566  -22.7386 C   0  0  0  0  0  0  0  0  0  0  0  0
   16.0087  -12.1981  -23.9149 C   0  0  0  0  0  0  0  0  0  0  0  0
   14.7305  -12.3499  -24.4696 C   0  0  0  0  0  0  0  0  0  0  0  0
   13.7630  -13.1707  -23.8569 C   0  0  0  0  0  0  0  0  0  0  0  0
   12.5006  -13.3425  -24.3706 N   0  0  0  0  0  0  0  0  0  0  0  0
   11.5842  -12.2832  -18.9291 C   0  0  0  0  0  0  0  0  0  0  0  0
   12.4225  -12.0595  -17.8037 O   0  0  0  0  0  0  0  0  0  0  0  0
   11.9092  -12.1785  -16.9894 H   0  0  0  0  0  0  0  0  0  0  0  0
    6.7442  -11.1816  -18.5141 O   0  0  0  0  0  0  0  0  0  0  0  0
    5.8998  -10.3525  -17.7237 C   0  0  0  0  0  0  0  0  0  0  0  0
    6.7606   -9.6482  -16.6712 C   0  0  0  0  0  0  0  0  0  0  0  0
    7.3171  -10.6353  -15.8065 O   0  0  0  0  0  0  0  0  0  0  0  0
    5.3102   -9.3736  -18.5628 O   0  0  0  0  0  0  0  0  0  0  0  0
    4.3796   -8.5190  -17.8685 C   0  0  0  0  0  0  0  0  0  0  0  0
    5.1349   -7.7270  -16.7815 C   0  0  0  0  0  0  0  0  0  0  0  0
    4.2029   -6.9998  -15.9897 O   0  0  0  0  0  0  0  0  0  0  0  0
    5.8825   -8.6993  -15.8700 C   0  0  0  0  0  0  0  0  0  0  0  0
    6.6014  -11.1358  -15.3843 H   0  0  0  0  0  0  0  0  0  0  0  0
    3.5850   -7.6176  -15.5686 H   0  0  0  0  0  0  0  0  0  0  0  0
    3.7710   -7.6778  -18.9819 C   0  0  0  0  0  0  0  0  0  0  0  0
    4.8038   -7.2742  -19.8960 O   0  0  0  0  0  0  0  0  0  0  0  0
    5.2235   -8.0610  -20.2775 H   0  0  0  0  0  0  0  0  0  0  0  0
    6.7024   -7.9322  -14.9653 O   0  0  0  0  0  0  0  0  0  0  0  0
    6.5205   -8.3005  -13.5806 C   0  0  0  0  0  0  0  0  0  0  0  0
    5.5942   -9.3969  -13.4652 O   0  0  0  0  0  0  0  0  0  0  0  0
    5.4596   -9.8523  -12.0919 C   0  0  0  0  0  0  0  0  0  0  0  0
    4.8729   -8.6838  -11.2322 C   0  0  0  0  0  0  0  0  0  0  0  0
    4.8500   -9.0647   -9.8313 O   0  0  0  0  0  0  0  0  0  0  0  0
    5.7058   -7.4090  -11.3848 C   0  0  0  0  0  0  0  0  0  0  0  0
    4.9987   -6.2944  -10.7987 O   0  0  0  0  0  0  0  0  0  0  0  0
    5.9410   -7.0923  -12.8562 C   0  0  0  0  0  0  0  0  0  0  0  0
    6.8270   -5.9851  -12.9468 O   0  0  0  0  0  0  0  0  0  0  0  0
    5.7551   -9.2375   -9.5283 H   0  0  0  0  0  0  0  0  0  0  0  0
    4.1533   -6.1704  -11.2577 H   0  0  0  0  0  0  0  0  0  0  0  0
    7.6696   -6.2097  -12.5219 H   0  0  0  0  0  0  0  0  0  0  0  0
    4.5702  -11.0771  -11.9291 C   0  0  0  0  0  0  0  0  0  0  0  0
    5.1295  -11.8093  -10.8288 O   0  0  0  0  0  0  0  0  0  0  0  0
    6.0520  -12.0350  -11.0263 H   0  0  0  0  0  0  0  0  0  0  0  0
 30 29  1  0  0  0
 29  2  1  0  0  0
  8  1  1  0  0  0
  2  1  1  0  0  0
  2  7  1  0  0  0
  1  3  1  0  0  0
 44 43  1  0  0  0
  7  4  1  0  0  0
 43 37  1  0  0  0
  3 32  1  0  0  0
  3  5  1  0  0  0
 32 33  1  0  0  0
 36 37  1  0  0  0
 36 33  1  0  0  0
  4  5  1  0  0  0
  4 15  1  0  0  0
 37 38  1  0  0  0
 33 34  1  0  0  0
  5  6  1  0  0  0
 34 40  1  0  0  0
 34 35  1  0  0  0
 38 40  1  0  0  0
 38 39  1  0  0  0
 15 14  1  0  0  0
 15 12  1  0  0  0
 14 13  2  0  0  0
 12 11  2  0  0  0
 13 11  1  0  0  0
 40 46  1  0  0  0
 46 47  1  0  0  0
 11 16  1  0  0  0
 55 54  1  0  0  0
 16 17  1  0  0  0
 54 47  1  0  0  0
 54 52  1  0  0  0
 47 48  1  0  0  0
 17 18  1  0  0  0
 48 49  1  0  0  0
 53 52  1  0  0  0
 52 50  1  0  0  0
 18 28  1  0  0  0
 49 50  1  0  0  0
 49 59  1  0  0  0
 50 51  1  0  0  0
 60 59  1  0  0  0
 28 19  2  0  0  0
 28 27  1  0  0  0
 26 27  2  0  0  0
 26 25  1  0  0  0
 19 20  1  0  0  0
 27 22  1  0  0  0
 25 24  2  0  0  0
 20 21  2  0  0  0
 22 21  1  0  0  0
 22 23  2  0  0  0
 24 23  1  0  0  0
  6  9  1  0  0  0
 30 31  1  0  0  0
  8 10  1  0  0  0
 35 41  1  0  0  0
 44 45  1  0  0  0
 39 42  1  0  0  0
 60 61  1  0  0  0
 51 56  1  0  0  0
 53 57  1  0  0  0
 55 58  1  0  0  0
M  CHG 1  28   1
M  END
> <minimizedAffinity>
-10.11101

$$$$
5OA6_9PT_A_601


 61 66  0  0  0  0  0  0  0  0999 V2000
    9.2839  -11.9157  -22.5721 C   0  0  0  0  0  0  0  0  0  0  0  0
    8.1555  -11.1694  -23.2799 C   0  0  0  0  0  0  0  0  0  0  0  0
   10.2521  -10.8710  -22.0263 C   0  0  0  0  0  0  0  0  0  0  0  0
    8.3094   -9.3009  -21.7749 C   0  0  0  0  0  0  0  0  0  0  0  0
    9.5227   -9.9188  -21.0741 C   0  0  0  0  0  0  0  0  0  0  0  0
   10.3870   -8.8711  -20.6742 O   0  0  0  0  0  0  0  0  0  0  0  0
    7.5109  -10.3211  -22.3416 O   0  0  0  0  0  0  0  0  0  0  0  0
    9.9961  -12.7994  -23.4683 O   0  0  0  0  0  0  0  0  0  0  0  0
   10.6687   -8.3687  -21.4546 H   0  0  0  0  0  0  0  0  0  0  0  0
   10.3879  -12.2817  -24.1890 H   0  0  0  0  0  0  0  0  0  0  0  0
    5.5254   -8.2089  -19.8414 C   0  0  0  0  0  0  0  0  0  0  0  0
    5.9700   -8.9188  -20.8705 C   0  0  0  0  0  0  0  0  0  0  0  0
    6.5720   -7.6200  -19.2735 N   0  0  0  0  0  0  0  0  0  0  0  0
    7.5779   -7.9413  -19.8824 N   0  0  0  0  0  0  0  0  0  0  0  0
    7.2908   -8.7133  -20.8700 N   0  0  0  0  0  0  0  0  0  0  0  0
    4.0683   -8.0497  -19.3465 C   0  0  0  0  0  0  0  0  0  0  0  0
    4.1824   -7.1714  -18.1183 C   0  0  0  0  0  0  0  0  0  0  0  0
    4.0703   -8.0581  -16.8829 C   0  0  0  0  0  0  0  0  0  0  0  0
    6.2030   -7.4248  -15.6104 C   0  0  0  0  0  0  0  0  0  0  0  0
    6.8492   -6.8247  -14.5354 C   0  0  0  0  0  0  0  0  0  0  0  0
    6.0979   -6.2038  -13.5506 C   0  0  0  0  0  0  0  0  0  0  0  0
    4.7087   -6.1804  -13.6510 C   0  0  0  0  0  0  0  0  0  0  0  0
    3.9986   -5.5396  -12.6313 C   0  0  0  0  0  0  0  0  0  0  0  0
    2.6087   -5.4841  -12.6690 C   0  0  0  0  0  0  0  0  0  0  0  0
    1.9306   -6.0739  -13.7309 C   0  0  0  0  0  0  0  0  0  0  0  0
    2.6351   -6.7208  -14.7554 C   0  0  0  0  0  0  0  0  0  0  0  0
    4.0423   -6.7902  -14.7407 C   0  0  0  0  0  0  0  0  0  0  0  0
    4.7661   -7.4164  -15.7261 N   0  0  0  0  0  0  0  0  0  0  0  0
    6.9816  -11.9823  -23.8062 C   0  0  0  0  0  0  0  0  0  0  0  0
    5.8826  -11.1192  -24.0637 O   0  0  0  0  0  0  0  0  0  0  0  0
    6.1388  -10.4580  -24.7255 H   0  0  0  0  0  0  0  0  0  0  0  0
   11.2715  -11.5686  -21.3087 O   0  0  0  0  0  0  0  0  0  0  0  0
   12.5728  -11.5128  -21.8821 C   0  0  0  0  0  0  0  0  0  0  0  0
   13.4617  -12.5335  -21.1659 C   0  0  0  0  0  0  0  0  0  0  0  0
   13.5827  -12.1485  -19.7988 O   0  0  0  0  0  0  0  0  0  0  0  0
   12.4810  -11.8670  -23.2518 O   0  0  0  0  0  0  0  0  0  0  0  0
   13.7415  -11.7769  -23.9456 C   0  0  0  0  0  0  0  0  0  0  0  0
   14.7322  -12.7841  -23.3266 C   0  0  0  0  0  0  0  0  0  0  0  0
   16.0214  -12.5946  -23.8979 O   0  0  0  0  0  0  0  0  0  0  0  0
   14.8340  -12.5390  -21.8218 C   0  0  0  0  0  0  0  0  0  0  0  0
   13.9699  -11.2607  -19.7460 H   0  0  0  0  0  0  0  0  0  0  0  0
   16.3250  -11.6910  -23.7183 H   0  0  0  0  0  0  0  0  0  0  0  0
   13.3675  -12.0406  -25.3977 C   0  0  0  0  0  0  0  0  0  0  0  0
   14.5632  -12.1617  -26.1855 O   0  0  0  0  0  0  0  0  0  0  0  0
   15.0980  -12.8982  -25.8503 H   0  0  0  0  0  0  0  0  0  0  0  0
   15.6390  -13.5874  -21.2457 O   0  0  0  0  0  0  0  0  0  0  0  0
   14.9654  -14.3082  -20.1907 C   0  0  0  0  0  0  0  0  0  0  0  0
   15.7769  -14.3416  -19.0016 O   0  0  0  0  0  0  0  0  0  0  0  0
   15.0891  -14.9800  -17.8922 C   0  0  0  0  0  0  0  0  0  0  0  0
   14.7995  -16.4698  -18.2733 C   0  0  0  0  0  0  0  0  0  0  0  0
   13.9974  -17.0973  -17.2385 O   0  0  0  0  0  0  0  0  0  0  0  0
   14.0530  -16.5677  -19.6057 C   0  0  0  0  0  0  0  0  0  0  0  0
   14.0359  -17.9409  -20.0527 O   0  0  0  0  0  0  0  0  0  0  0  0
   14.7491  -15.7360  -20.6755 C   0  0  0  0  0  0  0  0  0  0  0  0
   13.9508  -15.7473  -21.8509 O   0  0  0  0  0  0  0  0  0  0  0  0
   13.1483  -16.6346  -17.1625 H   0  0  0  0  0  0  0  0  0  0  0  0
   14.9461  -18.2499  -20.1827 H   0  0  0  0  0  0  0  0  0  0  0  0
   13.0809  -15.3657  -21.6546 H   0  0  0  0  0  0  0  0  0  0  0  0
   15.8639  -14.9494  -16.5821 C   0  0  0  0  0  0  0  0  0  0  0  0
   15.4641  -13.7338  -15.9326 O   0  0  0  0  0  0  0  0  0  0  0  0
   15.6637  -12.9789  -16.5081 H   0  0  0  0  0  0  0  0  0  0  0  0
 30 29  1  0  0  0
 29  2  1  0  0  0
  8  1  1  0  0  0
  2  1  1  0  0  0
  2  7  1  0  0  0
  1  3  1  0  0  0
 44 43  1  0  0  0
  7  4  1  0  0  0
 43 37  1  0  0  0
  3 32  1  0  0  0
  3  5  1  0  0  0
 32 33  1  0  0  0
 36 37  1  0  0  0
 36 33  1  0  0  0
  4  5  1  0  0  0
  4 15  1  0  0  0
 37 38  1  0  0  0
 33 34  1  0  0  0
  5  6  1  0  0  0
 34 40  1  0  0  0
 34 35  1  0  0  0
 38 40  1  0  0  0
 38 39  1  0  0  0
 15 14  1  0  0  0
 15 12  1  0  0  0
 14 13  2  0  0  0
 12 11  2  0  0  0
 13 11  1  0  0  0
 40 46  1  0  0  0
 46 47  1  0  0  0
 11 16  1  0  0  0
 55 54  1  0  0  0
 16 17  1  0  0  0
 54 47  1  0  0  0
 54 52  1  0  0  0
 47 48  1  0  0  0
 17 18  1  0  0  0
 48 49  1  0  0  0
 53 52  1  0  0  0
 52 50  1  0  0  0
 18 28  1  0  0  0
 49 50  1  0  0  0
 49 59  1  0  0  0
 50 51  1  0  0  0
 60 59  1  0  0  0
 28 19  2  0  0  0
 28 27  1  0  0  0
 26 27  2  0  0  0
 26 25  1  0  0  0
 19 20  1  0  0  0
 27 22  1  0  0  0
 25 24  2  0  0  0
 20 21  2  0  0  0
 22 21  1  0  0  0
 22 23  2  0  0  0
 24 23  1  0  0  0
  6  9  1  0  0  0
 30 31  1  0  0  0
  8 10  1  0  0  0
 35 41  1  0  0  0
 44 45  1  0  0  0
 39 42  1  0  0  0
 60 61  1  0  0  0
 51 56  1  0  0  0
 53 57  1  0  0  0
 55 58  1  0  0  0
M  CHG 1  28   1
M  END
> <minimizedAffinity>
-10.05226

$$$$
