1FL3_SPB_L_225
  RCSB PDB12061702303D
Coordinates from PDB:1FL3:L:225 Model:1 without hydrogens
 23 24  0  0  0  0            999 V2000
   59.5400    3.3230  -29.6790   C 0  0  0  0  0  0  0  0  0  0  0  0
   58.3370    3.9800  -29.3220   C 0  0  0  0  0  0  0  0  0  0  0  0
   57.2970    3.2470  -28.6820   C 0  0  0  0  0  0  0  0  0  0  0  0
   57.4620    1.8800  -28.3950   C 0  0  0  0  0  0  0  0  0  0  0  0
   58.6460    1.2260  -28.7450   C 0  0  0  0  0  0  0  0  0  0  0  0
   59.6890    1.9480  -29.3870   C 0  0  0  0  0  0  0  0  0  0  0  0
   60.9550    1.2720  -29.7800   C 0  0  0  0  0  0  0  0  0  0  0  0
   61.2760   -0.0050  -29.5310   C 0  0  0  0  0  0  0  0  0  0  0  0
   62.5820   -0.5900  -29.9670   C 0  0  0  0  0  0  0  0  0  0  0  0
   63.4690    0.1920  -30.7440   C 0  0  0  0  0  0  0  0  0  0  0  0
   64.6930   -0.3390  -31.1580   C 0  0  0  0  0  0  0  0  0  0  0  0
   65.0730   -1.6670  -30.8320   C 0  0  0  0  0  0  0  0  0  0  0  0
   64.1800   -2.4700  -30.0440   C 0  0  0  0  0  0  0  0  0  0  0  0
   62.9280   -1.9170  -29.6130   C 0  0  0  0  0  0  0  0  0  0  0  0
   66.3590   -2.0810  -31.3510   N 0  0  0  0  0  0  0  0  0  0  0  0
   66.9390   -3.2280  -31.6390   C 0  0  0  0  0  0  0  0  0  0  0  0
   68.4550   -3.1800  -31.8220   C 0  0  0  0  0  0  0  0  0  0  0  0
   69.0110   -4.0680  -32.8790   C 0  0  0  0  0  0  0  0  0  0  0  0
   70.5010   -3.9830  -32.9240   C 0  0  0  0  0  0  0  0  0  0  0  0
   71.0470   -4.8510  -34.0070   C 0  0  0  0  0  0  0  0  0  0  0  0
   71.4070   -4.0790  -35.1020   O 0  0  0  0  0  0  0  0  0  0  0  0
   66.3740   -4.2990  -31.7320   O 0  0  0  0  0  0  0  0  0  0  0  0
   71.0830   -6.0660  -33.9470   O 0  0  0  0  0  0  0  0  0  0  0  0
  1  2  2  0  0  0  0
  1  6  1  0  0  0  0
  2  3  1  0  0  0  0
  3  4  2  0  0  0  0
  4  5  1  0  0  0  0
  5  6  2  0  0  0  0
  6  7  1  0  0  0  0
  7  8  2  0  0  0  0
  8  9  1  0  0  0  0
  9 10  2  0  0  0  0
  9 14  1  0  0  0  0
 10 11  1  0  0  0  0
 11 12  2  0  0  0  0
 12 13  1  0  0  0  0
 12 15  1  0  0  0  0
 13 14  2  0  0  0  0
 15 16  1  0  0  0  0
 16 17  1  0  0  0  0
 16 22  2  0  0  0  0
 17 18  1  0  0  0  0
 18 19  1  0  0  0  0
 19 20  1  0  0  0  0
 20 21  2  0  0  0  0
 20 23  1  0  0  0  0
A    1
C1
A    2
C2
A    3
C3
A    4
C4
A    5
C5
A    6
C6
A    7
C7
A    8
C8
A    9
C9
A   10
C10
A   11
C11
A   12
C12
A   13
C13
A   14
C14
A   15
N15
A   16
C16
A   17
C17
A   18
C18
A   19
C19
A   20
C20
A   21
O21
A   22
O22
A   23
O23
M  END
>  <InstanceId>
1FL3_SPB_L_225

>  <ChemCompId>
SPB

>  <PdbId>
1FL3

>  <ChainId>
L

>  <ResidueNumber>
225

>  <InsertionCode>


>  <Model>
1

>  <AltIds>


>  <MissingHeavyAtoms>
0

>  <ObservedFormula>
C19 N O3

>  <Name>
4-(4-STYRYL-PHENYLCARBAMOYL)-BUTYRIC ACID

>  <SystematicName>
5-oxo-5-[[4-[(E)-2-phenylethenyl]phenyl]amino]pentanoic acid

>  <Synonyms>
5-OXO-5-({4-[(E)-2-PHENYLVINYL]PHENYL}AMINO)PENTANOIC ACID; N-(TRANS-4-STILBENYL)-5-AMINO-5-OXO-PENTANOIC ACID

>  <Type>
NON-POLYMER

>  <Formula>
C19 H19 N O3

>  <MolecularWeight>
309.359

>  <ModifiedDate>
2011-06-04

>  <Parent>


>  <OneLetterCode>


>  <SubcomponentList>


>  <AmbiguousFlag>
N

>  <InChI>
InChI=1S/C19H19NO3/c21-18(7-4-8-19(22)23)20-17-13-11-16(12-14-17)10-9-15-5-2-1-3-6-15/h1-3,5-6,9-14H,4,7-8H2,(H,20,21)(H,22,23)/b10-9+

>  <InChIKey>
FTXJWRRYLLRFMG-MDZDMXLPSA-N

>  <SMILES>
c1ccc(cc1)\C=C\c2ccc(cc2)NC(=O)CCCC(=O)O

$$$$
