1V1M_TDP_A_1401
  RCSB PDB12061704173D
Coordinates from PDB:1V1M:A:1401 Model:1 without hydrogens
 26 27  0  0  0  0            999 V2000
   77.0360    0.6090   11.1920   N 0  0  0  0  0  0  0  0  0  0  0  0
   77.2770    1.7880   11.7620   C 0  0  0  0  0  0  0  0  0  0  0  0
   77.4390    1.9590   13.2600   C 0  0  0  0  0  0  0  0  0  0  0  0
   77.3610    2.8970   10.9710   N 0  0  0  0  0  0  0  0  0  0  0  0
   77.2890    2.8230    9.6240   C 0  0  0  0  0  0  0  0  0  0  0  0
   77.4370    3.9870    8.9510   N 0  0  0  0  0  0  0  0  0  0  0  0
   77.0120    1.5830    9.0030   C 0  0  0  0  0  0  0  0  0  0  0  0
   76.9010    0.4930    9.8570   C 0  0  0  0  0  0  0  0  0  0  0  0
   76.8960    1.3740    7.4660   C 0  0  0  0  0  0  0  0  0  0  0  0
   75.6220    1.9350    7.0040   N 0  3  0  0  0  0  0  0  0  0  0  0
   75.7320    3.2610    6.3570   C 0  0  0  0  0  0  0  0  0  0  0  0
   73.9910    3.5920    5.9110   S 0  0  0  0  0  0  0  0  0  0  0  0
   73.3250    2.1140    6.5260   C 0  0  0  0  0  0  0  0  0  0  0  0
   74.3850    1.3610    7.0790   C 0  0  0  0  0  0  0  0  0  0  0  0
   74.1640   -0.0290    7.6780   C 0  0  0  0  0  0  0  0  0  0  0  0
   71.8700    1.8700    6.4450   C 0  0  0  0  0  0  0  0  0  0  0  0
   71.0800    2.9800    7.2100   C 0  0  0  0  0  0  0  0  0  0  0  0
   69.6840    2.6740    7.1470   O 0  0  0  0  0  0  0  0  0  0  0  0
   68.6020    3.7010    7.6550   P 0  0  0  0  0  0  0  0  0  0  0  0
   68.7530    5.0260    6.7070   O 0  0  0  0  0  0  0  0  0  0  0  0
   69.0390    4.1450    9.0110   O 0  0  0  0  0  0  0  0  0  0  0  0
   67.2820    3.0810    7.5180   O 0  0  0  0  0  0  0  0  0  0  0  0
   68.4430    5.1190    5.0550   P 0  0  0  0  0  0  0  0  0  0  0  0
   69.8320    4.8360    4.3350   O 0  0  0  0  0  0  0  0  0  0  0  0
   67.3170    4.0740    4.7440   O 0  5  0  0  0  0  0  0  0  0  0  0
   67.9690    6.5360    4.8620   O 0  0  0  0  0  0  0  0  0  0  0  0
  1  2  2  0  0  0  0
  1  8  1  0  0  0  0
  2  3  1  0  0  0  0
  2  4  1  0  0  0  0
  4  5  2  0  0  0  0
  5  6  1  0  0  0  0
  5  7  1  0  0  0  0
  7  8  2  0  0  0  0
  7  9  1  0  0  0  0
  9 10  1  0  0  0  0
 10 11  2  0  0  0  0
 10 14  1  0  0  0  0
 11 12  1  0  0  0  0
 12 13  1  0  0  0  0
 13 14  2  0  0  0  0
 13 16  1  0  0  0  0
 14 15  1  0  0  0  0
 16 17  1  0  0  0  0
 17 18  1  0  0  0  0
 18 19  1  0  0  0  0
 19 20  1  0  0  0  0
 19 21  2  0  0  0  0
 19 22  1  0  0  0  0
 20 23  1  0  0  0  0
 23 24  2  0  0  0  0
 23 25  1  0  0  0  0
 23 26  1  0  0  0  0
M  CHG  2  10   1  25  -1
A    1
N1'
A    2
C2'
A    3
C2A
A    4
N3'
A    5
C4'
A    6
N4'
A    7
C5'
A    8
C6'
A    9
C35
A   10
N3
A   11
C2
A   12
S1
A   13
C5
A   14
C4
A   15
C4A
A   16
C5A
A   17
C5B
A   18
O5G
A   19
P1
A   20
O11
A   21
O12
A   22
O13
A   23
P2
A   24
O21
A   25
O22
A   26
O23
M  END
>  <InstanceId>
1V1M_TDP_A_1401

>  <ChemCompId>
TDP

>  <PdbId>
1V1M

>  <ChainId>
A

>  <ResidueNumber>
1401

>  <InsertionCode>


>  <Model>
1

>  <AltIds>


>  <MissingHeavyAtoms>
0

>  <ObservedFormula>
C12 N4 O7 P2 S

>  <Name>
THIAMIN DIPHOSPHATE

>  <SystematicName>
[2-[3-[(4-amino-2-methyl-pyrimidin-5-yl)methyl]-4-methyl-1,3-thiazol-3-ium-5-yl]ethoxy-hydroxy-phosphoryl] hydrogen phosphate

>  <Synonyms>


>  <Type>
NON-POLYMER

>  <Formula>
C12 H18 N4 O7 P2 S

>  <MolecularWeight>
424.306

>  <ModifiedDate>
2011-06-04

>  <Parent>


>  <OneLetterCode>


>  <SubcomponentList>


>  <AmbiguousFlag>
N

>  <InChI>
InChI=1S/C12H18N4O7P2S/c1-8-11(3-4-22-25(20,21)23-24(17,18)19)26-7-16(8)6-10-5-14-9(2)15-12(10)13/h5,7H,3-4,6H2,1-2H3,(H4-,13,14,15,17,18,19,20,21)

>  <InChIKey>
AYEKOFBPNLCAJY-UHFFFAOYSA-N

>  <SMILES>
Cc1c(sc[n+]1Cc2cnc(nc2N)C)CCO[P@@](=O)(O)O[P@](=O)(O)[O-]

$$$$
