1V1M_TDP_A_1401


 30 31  0  0  0  0  0  0  0  0999 V2000
   75.4050    2.1099    6.7941 N   0  0  0  0  0  0  0  0  0  0  0  0
   75.4327    3.4191    6.1055 C   0  0  0  0  0  0  0  0  0  0  0  0
   73.6590    3.6793    5.7506 S   0  0  0  0  0  0  0  0  0  0  0  0
   73.0800    2.1990    6.4432 C   0  0  0  0  0  0  0  0  0  0  0  0
   74.1948    1.4980    6.9554 C   0  0  0  0  0  0  0  0  0  0  0  0
   74.0558    0.1198    7.6043 C   0  0  0  0  0  0  0  0  0  0  0  0
   76.7216    1.6050    7.1980 C   0  0  0  0  0  0  0  0  0  0  0  0
   76.9521    0.8159   10.9145 N   0  0  0  0  0  0  0  0  0  0  0  0
   77.2423    1.9847   11.4825 C   0  0  0  0  0  0  0  0  0  0  0  0
   77.4537    2.1429   12.9757 C   0  0  0  0  0  0  0  0  0  0  0  0
   77.3328    3.0954   10.6946 N   0  0  0  0  0  0  0  0  0  0  0  0
   77.2185    3.0308    9.3500 C   0  0  0  0  0  0  0  0  0  0  0  0
   77.3781    4.1941    8.6784 N   0  0  0  0  0  0  0  0  0  0  0  0
   76.8892    1.8023    8.7318 C   0  0  0  0  0  0  0  0  0  0  0  0
   76.7741    0.7110    9.5836 C   0  0  0  0  0  0  0  0  0  0  0  0
   77.6078    5.0172    9.1672 H   0  0  0  0  0  0  0  0  0  0  0  0
   77.2646    4.2176    7.7007 H   0  0  0  0  0  0  0  0  0  0  0  0
   71.6321    1.9049    6.4522 C   0  0  0  0  0  0  0  0  0  0  0  0
   70.8571    2.9694    7.2934 C   0  0  0  0  0  0  0  0  0  0  0  0
   69.4978    3.0028    6.8488 O   0  0  0  0  0  0  0  0  0  0  0  0
   68.4173    3.8709    7.5988 P   0  0  0  0  0  0  0  0  0  0  0  0
   69.0515    4.3398    8.8657 O   0  0  0  0  0  0  0  0  0  0  0  0
   67.1821    3.0886    7.6874 O   0  0  0  0  0  0  0  0  0  0  0  0
   66.8840    2.8529    6.7950 H   0  0  0  0  0  0  0  0  0  0  0  0
   68.2176    5.2234    6.7000 O   0  0  0  0  0  0  0  0  0  0  0  0
   68.2256    5.3222    5.0195 P   0  0  0  0  0  0  0  0  0  0  0  0
   67.3420    6.5924    4.6540 O   0  0  0  0  0  0  0  0  0  0  0  0
   69.7262    5.4165    4.5767 O   0  0  0  0  0  0  0  0  0  0  0  0
   67.5875    4.0285    4.5848 O   0  0  0  0  0  0  0  0  0  0  0  0
   66.6629    4.0098    4.8773 H   0  0  0  0  0  0  0  0  0  0  0  0
  8  9  2  0  0  0
  8 15  1  0  0  0
  9 10  1  0  0  0
  9 11  1  0  0  0
 11 12  2  0  0  0
 12 13  1  0  0  0
 12 14  1  0  0  0
 14 15  2  0  0  0
 14  7  1  0  0  0
  7  1  1  0  0  0
  1  2  2  0  0  0
  1  5  1  0  0  0
  2  3  1  0  0  0
  3  4  1  0  0  0
  4  5  2  0  0  0
  4 18  1  0  0  0
  5  6  1  0  0  0
 18 19  1  0  0  0
 19 20  1  0  0  0
 20 21  1  0  0  0
 21 25  1  0  0  0
 21 22  2  0  0  0
 21 23  1  0  0  0
 25 26  1  0  0  0
 26 27  2  0  0  0
 26 28  1  0  0  0
 26 29  1  0  0  0
 13 16  1  0  0  0
 13 17  1  0  0  0
 23 24  1  0  0  0
 29 30  1  0  0  0
M  CHG 1   1   1
M  CHG 1  28  -1
M  END
> <minimizedAffinity>
-10.54255

$$$$
1V1M_TDP_A_1401


 30 31  0  0  0  0  0  0  0  0999 V2000
   75.5247    2.4208    6.8161 N   0  0  0  0  0  0  0  0  0  0  0  0
   75.4669    3.8016    6.2878 C   0  0  0  0  0  0  0  0  0  0  0  0
   73.6754    3.9992    5.9859 S   0  0  0  0  0  0  0  0  0  0  0  0
   73.1925    2.4166    6.5040 C   0  0  0  0  0  0  0  0  0  0  0  0
   74.3536    1.7254    6.9169 C   0  0  0  0  0  0  0  0  0  0  0  0
   74.3035    0.2745    7.3987 C   0  0  0  0  0  0  0  0  0  0  0  0
   76.8744    1.9485    7.1426 C   0  0  0  0  0  0  0  0  0  0  0  0
   77.2191    3.1843   10.7261 N   0  0  0  0  0  0  0  0  0  0  0  0
   77.2676    2.0714   11.4557 C   0  0  0  0  0  0  0  0  0  0  0  0
   77.3806    2.0841   12.9678 C   0  0  0  0  0  0  0  0  0  0  0  0
   77.2367    0.8647   10.8189 N   0  0  0  0  0  0  0  0  0  0  0  0
   77.0762    0.7648    9.4812 C   0  0  0  0  0  0  0  0  0  0  0  0
   77.0111   -0.4889    8.9773 N   0  0  0  0  0  0  0  0  0  0  0  0
   77.0447    1.9356    8.6887 C   0  0  0  0  0  0  0  0  0  0  0  0
   77.1151    3.1360    9.3842 C   0  0  0  0  0  0  0  0  0  0  0  0
   77.0378   -1.2647    9.5828 H   0  0  0  0  0  0  0  0  0  0  0  0
   76.9369   -0.6254    8.0052 H   0  0  0  0  0  0  0  0  0  0  0  0
   71.7636    2.0406    6.4938 C   0  0  0  0  0  0  0  0  0  0  0  0
   70.9241    3.0358    7.3576 C   0  0  0  0  0  0  0  0  0  0  0  0
   69.5855    3.0623    6.8537 O   0  0  0  0  0  0  0  0  0  0  0  0
   68.4532    3.8709    7.5938 P   0  0  0  0  0  0  0  0  0  0  0  0
   69.0445    4.3579    8.8744 O   0  0  0  0  0  0  0  0  0  0  0  0
   67.2557    3.0296    7.6562 O   0  0  0  0  0  0  0  0  0  0  0  0
   66.9830    2.7882    6.7572 H   0  0  0  0  0  0  0  0  0  0  0  0
   68.2027    5.2205    6.7033 O   0  0  0  0  0  0  0  0  0  0  0  0
   68.2777    5.3448    5.0262 P   0  0  0  0  0  0  0  0  0  0  0  0
   67.3956    6.6112    4.6439 O   0  0  0  0  0  0  0  0  0  0  0  0
   69.7938    5.4613    4.6461 O   0  0  0  0  0  0  0  0  0  0  0  0
   67.6718    4.0513    4.5469 O   0  0  0  0  0  0  0  0  0  0  0  0
   66.7364    4.0186    4.8013 H   0  0  0  0  0  0  0  0  0  0  0  0
  8  9  2  0  0  0
  8 15  1  0  0  0
  9 10  1  0  0  0
  9 11  1  0  0  0
 11 12  2  0  0  0
 12 13  1  0  0  0
 12 14  1  0  0  0
 14 15  2  0  0  0
 14  7  1  0  0  0
  7  1  1  0  0  0
  1  2  2  0  0  0
  1  5  1  0  0  0
  2  3  1  0  0  0
  3  4  1  0  0  0
  4  5  2  0  0  0
  4 18  1  0  0  0
  5  6  1  0  0  0
 18 19  1  0  0  0
 19 20  1  0  0  0
 20 21  1  0  0  0
 21 25  1  0  0  0
 21 22  2  0  0  0
 21 23  1  0  0  0
 25 26  1  0  0  0
 26 27  2  0  0  0
 26 28  1  0  0  0
 26 29  1  0  0  0
 13 16  1  0  0  0
 13 17  1  0  0  0
 23 24  1  0  0  0
 29 30  1  0  0  0
M  CHG 1   1   1
M  CHG 1  28  -1
M  END
> <minimizedAffinity>
-10.23634

$$$$
1V1M_TDP_A_1401


 30 31  0  0  0  0  0  0  0  0999 V2000
   75.3515    1.9728    6.6811 N   0  0  0  0  0  0  0  0  0  0  0  0
   74.3174    1.1211    7.3090 C   0  0  0  0  0  0  0  0  0  0  0  0
   72.7861    1.8460    6.6239 S   0  0  0  0  0  0  0  0  0  0  0  0
   73.5389    3.0907    5.6804 C   0  0  0  0  0  0  0  0  0  0  0  0
   74.9365    2.9774    5.8541 C   0  0  0  0  0  0  0  0  0  0  0  0
   75.9157    3.9505    5.1952 C   0  0  0  0  0  0  0  0  0  0  0  0
   76.7285    1.6425    7.0633 C   0  0  0  0  0  0  0  0  0  0  0  0
   76.9532    0.8312   10.7753 N   0  0  0  0  0  0  0  0  0  0  0  0
   77.2219    2.0005   11.3529 C   0  0  0  0  0  0  0  0  0  0  0  0
   77.4234    2.1516   12.8482 C   0  0  0  0  0  0  0  0  0  0  0  0
   77.2987    3.1179   10.5731 N   0  0  0  0  0  0  0  0  0  0  0  0
   77.1920    3.0610    9.2276 C   0  0  0  0  0  0  0  0  0  0  0  0
   77.3364    4.2313    8.5648 N   0  0  0  0  0  0  0  0  0  0  0  0
   76.8854    1.8317    8.5992 C   0  0  0  0  0  0  0  0  0  0  0  0
   76.7835    0.7328    9.4429 C   0  0  0  0  0  0  0  0  0  0  0  0
   77.5505    5.0545    9.0604 H   0  0  0  0  0  0  0  0  0  0  0  0
   77.2273    4.2598    7.5868 H   0  0  0  0  0  0  0  0  0  0  0  0
   72.7105    3.9961    4.8574 C   0  0  0  0  0  0  0  0  0  0  0  0
   71.2080    3.5707    4.9095 C   0  0  0  0  0  0  0  0  0  0  0  0
   70.4206    4.5962    4.2974 O   0  0  0  0  0  0  0  0  0  0  0  0
   68.8803    4.7309    4.6024 P   0  0  0  0  0  0  0  0  0  0  0  0
   68.1618    4.3000    3.3676 O   0  0  0  0  0  0  0  0  0  0  0  0
   68.6315    6.0796    5.1170 O   0  0  0  0  0  0  0  0  0  0  0  0
   69.1608    6.2231    5.9172 H   0  0  0  0  0  0  0  0  0  0  0  0
   68.5355    3.5821    5.7152 O   0  0  0  0  0  0  0  0  0  0  0  0
   68.5720    3.7622    7.3886 P   0  0  0  0  0  0  0  0  0  0  0  0
   69.5104    2.5990    7.9311 O   0  0  0  0  0  0  0  0  0  0  0  0
   69.0897    5.2129    7.6786 O   0  0  0  0  0  0  0  0  0  0  0  0
   67.1328    3.5828    7.7964 O   0  0  0  0  0  0  0  0  0  0  0  0
   66.8522    2.6751    7.6010 H   0  0  0  0  0  0  0  0  0  0  0  0
  8  9  2  0  0  0
  8 15  1  0  0  0
  9 10  1  0  0  0
  9 11  1  0  0  0
 11 12  2  0  0  0
 12 13  1  0  0  0
 12 14  1  0  0  0
 14 15  2  0  0  0
 14  7  1  0  0  0
  7  1  1  0  0  0
  1  2  2  0  0  0
  1  5  1  0  0  0
  2  3  1  0  0  0
  3  4  1  0  0  0
  4  5  2  0  0  0
  4 18  1  0  0  0
  5  6  1  0  0  0
 18 19  1  0  0  0
 19 20  1  0  0  0
 20 21  1  0  0  0
 21 25  1  0  0  0
 21 22  2  0  0  0
 21 23  1  0  0  0
 25 26  1  0  0  0
 26 27  2  0  0  0
 26 28  1  0  0  0
 26 29  1  0  0  0
 13 16  1  0  0  0
 13 17  1  0  0  0
 23 24  1  0  0  0
 29 30  1  0  0  0
M  CHG 1   1   1
M  CHG 1  28  -1
M  END
> <minimizedAffinity>
-9.36132

$$$$
1V1M_TDP_A_1401


 30 31  0  0  0  0  0  0  0  0999 V2000
   75.3555    2.8514    6.7582 N   0  0  0  0  0  0  0  0  0  0  0  0
   75.5415    1.5057    7.3442 C   0  0  0  0  0  0  0  0  0  0  0  0
   73.8479    0.8274    7.2389 S   0  0  0  0  0  0  0  0  0  0  0  0
   73.1006    2.2202    6.5263 C   0  0  0  0  0  0  0  0  0  0  0  0
   74.1008    3.2022    6.3484 C   0  0  0  0  0  0  0  0  0  0  0  0
   73.7843    4.5860    5.7785 C   0  0  0  0  0  0  0  0  0  0  0  0
   76.5693    3.6739    6.7212 C   0  0  0  0  0  0  0  0  0  0  0  0
   77.7117    4.1652    3.1238 N   0  0  0  0  0  0  0  0  0  0  0  0
   78.5902    3.1856    2.9199 C   0  0  0  0  0  0  0  0  0  0  0  0
   79.3301    3.0047    1.6087 C   0  0  0  0  0  0  0  0  0  0  0  0
   78.8223    2.2898    3.9232 N   0  0  0  0  0  0  0  0  0  0  0  0
   78.2511    2.4147    5.1410 C   0  0  0  0  0  0  0  0  0  0  0  0
   78.6013    1.4908    6.0649 N   0  0  0  0  0  0  0  0  0  0  0  0
   77.2996    3.4358    5.3686 C   0  0  0  0  0  0  0  0  0  0  0  0
   77.0747    4.2982    4.3030 C   0  0  0  0  0  0  0  0  0  0  0  0
   79.2716    0.8041    5.8448 H   0  0  0  0  0  0  0  0  0  0  0  0
   78.1861    1.5052    6.9574 H   0  0  0  0  0  0  0  0  0  0  0  0
   71.6633    2.1933    6.1850 C   0  0  0  0  0  0  0  0  0  0  0  0
   70.7989    2.6750    7.3943 C   0  0  0  0  0  0  0  0  0  0  0  0
   69.4494    2.8477    6.9522 O   0  0  0  0  0  0  0  0  0  0  0  0
   68.4909    3.8858    7.6502 P   0  0  0  0  0  0  0  0  0  0  0  0
   69.1584    4.2953    8.9204 O   0  0  0  0  0  0  0  0  0  0  0  0
   67.1530    3.2944    7.7268 O   0  0  0  0  0  0  0  0  0  0  0  0
   66.8436    3.0778    6.8333 H   0  0  0  0  0  0  0  0  0  0  0  0
   68.5109    5.2254    6.7109 O   0  0  0  0  0  0  0  0  0  0  0  0
   68.3748    5.2776    5.0338 P   0  0  0  0  0  0  0  0  0  0  0  0
   67.4564    6.5346    4.7107 O   0  0  0  0  0  0  0  0  0  0  0  0
   69.8314    5.3640    4.4617 O   0  0  0  0  0  0  0  0  0  0  0  0
   67.7087    3.9705    4.6908 O   0  0  0  0  0  0  0  0  0  0  0  0
   66.8125    3.9572    5.0618 H   0  0  0  0  0  0  0  0  0  0  0  0
  8  9  2  0  0  0
  8 15  1  0  0  0
  9 10  1  0  0  0
  9 11  1  0  0  0
 11 12  2  0  0  0
 12 13  1  0  0  0
 12 14  1  0  0  0
 14 15  2  0  0  0
 14  7  1  0  0  0
  7  1  1  0  0  0
  1  2  2  0  0  0
  1  5  1  0  0  0
  2  3  1  0  0  0
  3  4  1  0  0  0
  4  5  2  0  0  0
  4 18  1  0  0  0
  5  6  1  0  0  0
 18 19  1  0  0  0
 19 20  1  0  0  0
 20 21  1  0  0  0
 21 25  1  0  0  0
 21 22  2  0  0  0
 21 23  1  0  0  0
 25 26  1  0  0  0
 26 27  2  0  0  0
 26 28  1  0  0  0
 26 29  1  0  0  0
 13 16  1  0  0  0
 13 17  1  0  0  0
 23 24  1  0  0  0
 29 30  1  0  0  0
M  CHG 1   1   1
M  CHG 1  28  -1
M  END
> <minimizedAffinity>
-9.25241

$$$$
1V1M_TDP_A_1401


 30 31  0  0  0  0  0  0  0  0999 V2000
   75.4775    1.7176    6.9166 N   0  0  0  0  0  0  0  0  0  0  0  0
   74.4474    0.8400    7.5146 C   0  0  0  0  0  0  0  0  0  0  0  0
   72.9188    1.5272    6.7861 S   0  0  0  0  0  0  0  0  0  0  0  0
   73.6671    2.7910    5.8646 C   0  0  0  0  0  0  0  0  0  0  0  0
   75.0615    2.7122    6.0782 C   0  0  0  0  0  0  0  0  0  0  0  0
   76.0346    3.7098    5.4477 C   0  0  0  0  0  0  0  0  0  0  0  0
   76.8508    1.4212    7.3380 C   0  0  0  0  0  0  0  0  0  0  0  0
   77.0568    0.7846   11.0850 N   0  0  0  0  0  0  0  0  0  0  0  0
   77.2687    1.9884   11.6130 C   0  0  0  0  0  0  0  0  0  0  0  0
   77.4427    2.2137   13.1024 C   0  0  0  0  0  0  0  0  0  0  0  0
   77.3100    3.0726   10.7851 N   0  0  0  0  0  0  0  0  0  0  0  0
   77.2248    2.9520    9.4423 C   0  0  0  0  0  0  0  0  0  0  0  0
   77.3298    4.0969    8.7297 N   0  0  0  0  0  0  0  0  0  0  0  0
   76.9782    1.6844    8.8657 C   0  0  0  0  0  0  0  0  0  0  0  0
   76.9100    0.6204    9.7563 C   0  0  0  0  0  0  0  0  0  0  0  0
   77.5026    4.9495    9.1906 H   0  0  0  0  0  0  0  0  0  0  0  0
   77.2334    4.0777    7.7501 H   0  0  0  0  0  0  0  0  0  0  0  0
   72.8403    3.6762    5.0184 C   0  0  0  0  0  0  0  0  0  0  0  0
   72.6275    5.0611    5.7100 C   0  0  0  0  0  0  0  0  0  0  0  0
   71.6036    4.9257    6.6998 O   0  0  0  0  0  0  0  0  0  0  0  0
   70.5327    6.0600    6.9234 P   0  0  0  0  0  0  0  0  0  0  0  0
   71.2904    7.3344    7.0930 O   0  0  0  0  0  0  0  0  0  0  0  0
   69.6345    5.6363    8.0001 O   0  0  0  0  0  0  0  0  0  0  0  0
   69.2112    4.7981    7.7570 H   0  0  0  0  0  0  0  0  0  0  0  0
   69.7414    6.2245    5.5007 O   0  0  0  0  0  0  0  0  0  0  0  0
   68.6672    5.1237    4.8164 P   0  0  0  0  0  0  0  0  0  0  0  0
   67.6962    5.9798    3.8933 O   0  0  0  0  0  0  0  0  0  0  0  0
   69.5299    4.0602    4.0539 O   0  0  0  0  0  0  0  0  0  0  0  0
   67.9602    4.5305    6.0072 O   0  0  0  0  0  0  0  0  0  0  0  0
   67.4393    5.2188    6.4498 H   0  0  0  0  0  0  0  0  0  0  0  0
  8  9  2  0  0  0
  8 15  1  0  0  0
  9 10  1  0  0  0
  9 11  1  0  0  0
 11 12  2  0  0  0
 12 13  1  0  0  0
 12 14  1  0  0  0
 14 15  2  0  0  0
 14  7  1  0  0  0
  7  1  1  0  0  0
  1  2  2  0  0  0
  1  5  1  0  0  0
  2  3  1  0  0  0
  3  4  1  0  0  0
  4  5  2  0  0  0
  4 18  1  0  0  0
  5  6  1  0  0  0
 18 19  1  0  0  0
 19 20  1  0  0  0
 20 21  1  0  0  0
 21 25  1  0  0  0
 21 22  2  0  0  0
 21 23  1  0  0  0
 25 26  1  0  0  0
 26 27  2  0  0  0
 26 28  1  0  0  0
 26 29  1  0  0  0
 13 16  1  0  0  0
 13 17  1  0  0  0
 23 24  1  0  0  0
 29 30  1  0  0  0
M  CHG 1   1   1
M  CHG 1  28  -1
M  END
> <minimizedAffinity>
-8.67059

$$$$
1V1M_TDP_A_1401


 30 31  0  0  0  0  0  0  0  0999 V2000
   75.2233    1.1892    7.2819 N   0  0  0  0  0  0  0  0  0  0  0  0
   74.7156   -0.1546    7.6360 C   0  0  0  0  0  0  0  0  0  0  0  0
   72.9441    0.0054    7.2169 S   0  0  0  0  0  0  0  0  0  0  0  0
   72.9958    1.6541    6.6829 C   0  0  0  0  0  0  0  0  0  0  0  0
   74.3304    2.1032    6.7995 C   0  0  0  0  0  0  0  0  0  0  0  0
   74.7352    3.5369    6.4529 C   0  0  0  0  0  0  0  0  0  0  0  0
   76.6550    1.3860    7.5324 C   0  0  0  0  0  0  0  0  0  0  0  0
   76.9956    0.8401   11.2839 N   0  0  0  0  0  0  0  0  0  0  0  0
   77.2999    2.0433   11.7661 C   0  0  0  0  0  0  0  0  0  0  0  0
   77.5546    2.2982   13.2391 C   0  0  0  0  0  0  0  0  0  0  0  0
   77.3653    3.1004   10.9054 N   0  0  0  0  0  0  0  0  0  0  0  0
   77.2119    2.9487    9.5718 C   0  0  0  0  0  0  0  0  0  0  0  0
   77.3496    4.0658    8.8216 N   0  0  0  0  0  0  0  0  0  0  0  0
   76.8670    1.6825    9.0446 C   0  0  0  0  0  0  0  0  0  0  0  0
   76.7789    0.6489    9.9684 C   0  0  0  0  0  0  0  0  0  0  0  0
   77.5919    4.9190    9.2490 H   0  0  0  0  0  0  0  0  0  0  0  0
   77.2075    4.0257    7.8482 H   0  0  0  0  0  0  0  0  0  0  0  0
   71.7692    2.3056    6.1789 C   0  0  0  0  0  0  0  0  0  0  0  0
   70.7754    2.5937    7.3497 C   0  0  0  0  0  0  0  0  0  0  0  0
   69.6039    3.2150    6.8132 O   0  0  0  0  0  0  0  0  0  0  0  0
   69.0484    4.5613    7.4152 P   0  0  0  0  0  0  0  0  0  0  0  0
   69.0406    4.3941    8.8981 O   0  0  0  0  0  0  0  0  0  0  0  0
   67.7851    4.8764    6.7442 O   0  0  0  0  0  0  0  0  0  0  0  0
   67.9372    4.9562    5.7895 H   0  0  0  0  0  0  0  0  0  0  0  0
   70.1914    5.6951    7.1234 O   0  0  0  0  0  0  0  0  0  0  0  0
   70.7872    6.1556    5.6179 P   0  0  0  0  0  0  0  0  0  0  0  0
   70.6684    7.7404    5.5690 O   0  0  0  0  0  0  0  0  0  0  0  0
   72.2508    5.6033    5.5196 O   0  0  0  0  0  0  0  0  0  0  0  0
   69.8591    5.4752    4.6455 O   0  0  0  0  0  0  0  0  0  0  0  0
   68.9669    5.8443    4.7380 H   0  0  0  0  0  0  0  0  0  0  0  0
  8  9  2  0  0  0
  8 15  1  0  0  0
  9 10  1  0  0  0
  9 11  1  0  0  0
 11 12  2  0  0  0
 12 13  1  0  0  0
 12 14  1  0  0  0
 14 15  2  0  0  0
 14  7  1  0  0  0
  7  1  1  0  0  0
  1  2  2  0  0  0
  1  5  1  0  0  0
  2  3  1  0  0  0
  3  4  1  0  0  0
  4  5  2  0  0  0
  4 18  1  0  0  0
  5  6  1  0  0  0
 18 19  1  0  0  0
 19 20  1  0  0  0
 20 21  1  0  0  0
 21 25  1  0  0  0
 21 22  2  0  0  0
 21 23  1  0  0  0
 25 26  1  0  0  0
 26 27  2  0  0  0
 26 28  1  0  0  0
 26 29  1  0  0  0
 13 16  1  0  0  0
 13 17  1  0  0  0
 23 24  1  0  0  0
 29 30  1  0  0  0
M  CHG 1   1   1
M  CHG 1  28  -1
M  END
> <minimizedAffinity>
-8.59352

$$$$
1V1M_TDP_A_1401


 30 31  0  0  0  0  0  0  0  0999 V2000
   72.6620    3.8886    5.8085 N   0  0  0  0  0  0  0  0  0  0  0  0
   72.6375    2.4110    5.7378 C   0  0  0  0  0  0  0  0  0  0  0  0
   71.3631    2.0098    6.9847 S   0  0  0  0  0  0  0  0  0  0  0  0
   71.0103    3.6378    7.4655 C   0  0  0  0  0  0  0  0  0  0  0  0
   71.8266    4.4999    6.6994 C   0  0  0  0  0  0  0  0  0  0  0  0
   71.8079    6.0170    6.8938 C   0  0  0  0  0  0  0  0  0  0  0  0
   73.6316    4.5263    4.9115 C   0  0  0  0  0  0  0  0  0  0  0  0
   76.7622    3.2567    6.6652 N   0  0  0  0  0  0  0  0  0  0  0  0
   77.4724    2.6814    5.6968 C   0  0  0  0  0  0  0  0  0  0  0  0
   78.8076    2.0072    5.9463 C   0  0  0  0  0  0  0  0  0  0  0  0
   76.9934    2.7160    4.4194 N   0  0  0  0  0  0  0  0  0  0  0  0
   75.7854    3.2426    4.1215 C   0  0  0  0  0  0  0  0  0  0  0  0
   75.4032    3.1708    2.8260 N   0  0  0  0  0  0  0  0  0  0  0  0
   75.0275    3.8769    5.1331 C   0  0  0  0  0  0  0  0  0  0  0  0
   75.5776    3.8438    6.4083 C   0  0  0  0  0  0  0  0  0  0  0  0
   75.9763    2.7145    2.1682 H   0  0  0  0  0  0  0  0  0  0  0  0
   74.5519    3.5748    2.5408 H   0  0  0  0  0  0  0  0  0  0  0  0
   69.9704    3.8983    8.4823 C   0  0  0  0  0  0  0  0  0  0  0  0
   68.5546    3.9527    7.8236 C   0  0  0  0  0  0  0  0  0  0  0  0
   68.4221    5.1943    7.1255 O   0  0  0  0  0  0  0  0  0  0  0  0
   68.0134    5.2329    5.6040 P   0  0  0  0  0  0  0  0  0  0  0  0
   68.8758    6.2646    4.9569 O   0  0  0  0  0  0  0  0  0  0  0  0
   66.5595    5.3922    5.5241 O   0  0  0  0  0  0  0  0  0  0  0  0
   66.1277    4.6553    5.9840 H   0  0  0  0  0  0  0  0  0  0  0  0
   68.5053    3.8091    4.9653 O   0  0  0  0  0  0  0  0  0  0  0  0
   68.8924    3.5120    3.3541 P   0  0  0  0  0  0  0  0  0  0  0  0
   68.0079    4.5208    2.5010 O   0  0  0  0  0  0  0  0  0  0  0  0
   70.4402    3.7148    3.2133 O   0  0  0  0  0  0  0  0  0  0  0  0
   68.4891    2.0746    3.1514 O   0  0  0  0  0  0  0  0  0  0  0  0
   67.5273    1.9922    3.2464 H   0  0  0  0  0  0  0  0  0  0  0  0
  8  9  2  0  0  0
  8 15  1  0  0  0
  9 10  1  0  0  0
  9 11  1  0  0  0
 11 12  2  0  0  0
 12 13  1  0  0  0
 12 14  1  0  0  0
 14 15  2  0  0  0
 14  7  1  0  0  0
  7  1  1  0  0  0
  1  2  2  0  0  0
  1  5  1  0  0  0
  2  3  1  0  0  0
  3  4  1  0  0  0
  4  5  2  0  0  0
  4 18  1  0  0  0
  5  6  1  0  0  0
 18 19  1  0  0  0
 19 20  1  0  0  0
 20 21  1  0  0  0
 21 25  1  0  0  0
 21 22  2  0  0  0
 21 23  1  0  0  0
 25 26  1  0  0  0
 26 27  2  0  0  0
 26 28  1  0  0  0
 26 29  1  0  0  0
 13 16  1  0  0  0
 13 17  1  0  0  0
 23 24  1  0  0  0
 29 30  1  0  0  0
M  CHG 1   1   1
M  CHG 1  28  -1
M  END
> <minimizedAffinity>
-7.83882

$$$$
1V1M_TDP_A_1401


 30 31  0  0  0  0  0  0  0  0999 V2000
   76.7552    3.7634    3.3655 N   0  0  0  0  0  0  0  0  0  0  0  0
   77.8568    3.9988    4.3247 C   0  0  0  0  0  0  0  0  0  0  0  0
   76.9773    3.8818    5.9223 S   0  0  0  0  0  0  0  0  0  0  0  0
   75.3958    3.5827    5.2777 C   0  0  0  0  0  0  0  0  0  0  0  0
   75.5027    3.5559    3.8690 C   0  0  0  0  0  0  0  0  0  0  0  0
   74.2826    3.3561    2.9684 C   0  0  0  0  0  0  0  0  0  0  0  0
   77.1526    3.8174    1.9547 C   0  0  0  0  0  0  0  0  0  0  0  0
   80.3100    1.7581    1.4275 N   0  0  0  0  0  0  0  0  0  0  0  0
   79.8644    0.5262    1.1890 C   0  0  0  0  0  0  0  0  0  0  0  0
   80.7901   -0.6492    0.9417 C   0  0  0  0  0  0  0  0  0  0  0  0
   78.5176    0.3106    1.1422 N   0  0  0  0  0  0  0  0  0  0  0  0
   77.6259    1.2893    1.4109 C   0  0  0  0  0  0  0  0  0  0  0  0
   76.3206    0.9357    1.3807 N   0  0  0  0  0  0  0  0  0  0  0  0
   78.0803    2.6079    1.6448 C   0  0  0  0  0  0  0  0  0  0  0  0
   79.4589    2.7787    1.6464 C   0  0  0  0  0  0  0  0  0  0  0  0
   76.0681   -0.0009    1.2127 H   0  0  0  0  0  0  0  0  0  0  0  0
   75.6231    1.6149    1.5269 H   0  0  0  0  0  0  0  0  0  0  0  0
   74.2546    3.3684    6.1914 C   0  0  0  0  0  0  0  0  0  0  0  0
   73.3775    4.6575    6.2921 C   0  0  0  0  0  0  0  0  0  0  0  0
   72.1821    4.4583    5.5321 O   0  0  0  0  0  0  0  0  0  0  0  0
   70.9900    5.4863    5.6057 P   0  0  0  0  0  0  0  0  0  0  0  0
   71.4048    6.6780    4.8091 O   0  0  0  0  0  0  0  0  0  0  0  0
   70.6381    5.6796    7.0144 O   0  0  0  0  0  0  0  0  0  0  0  0
   70.3901    4.8273    7.4055 H   0  0  0  0  0  0  0  0  0  0  0  0
   69.7607    4.8178    4.7578 O   0  0  0  0  0  0  0  0  0  0  0  0
   68.1147    5.0444    5.0286 P   0  0  0  0  0  0  0  0  0  0  0  0
   67.9058    4.8864    6.5968 O   0  0  0  0  0  0  0  0  0  0  0  0
   67.7498    6.4572    4.4563 O   0  0  0  0  0  0  0  0  0  0  0  0
   67.4694    3.9320    4.2437 O   0  0  0  0  0  0  0  0  0  0  0  0
   67.7194    3.0774    4.6286 H   0  0  0  0  0  0  0  0  0  0  0  0
  8  9  2  0  0  0
  8 15  1  0  0  0
  9 10  1  0  0  0
  9 11  1  0  0  0
 11 12  2  0  0  0
 12 13  1  0  0  0
 12 14  1  0  0  0
 14 15  2  0  0  0
 14  7  1  0  0  0
  7  1  1  0  0  0
  1  2  2  0  0  0
  1  5  1  0  0  0
  2  3  1  0  0  0
  3  4  1  0  0  0
  4  5  2  0  0  0
  4 18  1  0  0  0
  5  6  1  0  0  0
 18 19  1  0  0  0
 19 20  1  0  0  0
 20 21  1  0  0  0
 21 25  1  0  0  0
 21 22  2  0  0  0
 21 23  1  0  0  0
 25 26  1  0  0  0
 26 27  2  0  0  0
 26 28  1  0  0  0
 26 29  1  0  0  0
 13 16  1  0  0  0
 13 17  1  0  0  0
 23 24  1  0  0  0
 29 30  1  0  0  0
M  CHG 1   1   1
M  CHG 1  28  -1
M  END
> <minimizedAffinity>
-7.75312

$$$$
1V1M_TDP_A_1401


 30 31  0  0  0  0  0  0  0  0999 V2000
   75.9629    3.9680    4.6834 N   0  0  0  0  0  0  0  0  0  0  0  0
   75.2250    3.7104    3.4271 C   0  0  0  0  0  0  0  0  0  0  0  0
   73.5320    3.4256    4.0532 S   0  0  0  0  0  0  0  0  0  0  0  0
   73.8874    3.6270    5.7383 C   0  0  0  0  0  0  0  0  0  0  0  0
   75.2650    3.9181    5.8563 C   0  0  0  0  0  0  0  0  0  0  0  0
   75.9370    4.1152    7.2162 C   0  0  0  0  0  0  0  0  0  0  0  0
   77.3974    4.2185    4.5081 C   0  0  0  0  0  0  0  0  0  0  0  0
   79.2311    2.3352    1.7552 N   0  0  0  0  0  0  0  0  0  0  0  0
   79.2429    1.0707    2.1720 C   0  0  0  0  0  0  0  0  0  0  0  0
   79.9019   -0.0473    1.3875 C   0  0  0  0  0  0  0  0  0  0  0  0
   78.6176    0.7577    3.3440 N   0  0  0  0  0  0  0  0  0  0  0  0
   78.0597    1.7023    4.1325 C   0  0  0  0  0  0  0  0  0  0  0  0
   77.5154    1.2696    5.2927 N   0  0  0  0  0  0  0  0  0  0  0  0
   78.0189    3.0467    3.6956 C   0  0  0  0  0  0  0  0  0  0  0  0
   78.6390    3.3041    2.4795 C   0  0  0  0  0  0  0  0  0  0  0  0
   77.5773    0.3189    5.5411 H   0  0  0  0  0  0  0  0  0  0  0  0
   77.0572    1.9053    5.8888 H   0  0  0  0  0  0  0  0  0  0  0  0
   72.8045    3.5250    6.7384 C   0  0  0  0  0  0  0  0  0  0  0  0
   71.6447    4.5159    6.4002 C   0  0  0  0  0  0  0  0  0  0  0  0
   70.7854    4.6203    7.5390 O   0  0  0  0  0  0  0  0  0  0  0  0
   69.3317    4.0121    7.5202 P   0  0  0  0  0  0  0  0  0  0  0  0
   68.9430    3.7919    8.9440 O   0  0  0  0  0  0  0  0  0  0  0  0
   69.3278    2.8626    6.6124 O   0  0  0  0  0  0  0  0  0  0  0  0
   69.5988    3.1495    5.7263 H   0  0  0  0  0  0  0  0  0  0  0  0
   68.3462    5.2071    6.9927 O   0  0  0  0  0  0  0  0  0  0  0  0
   67.9640    5.5598    5.3917 P   0  0  0  0  0  0  0  0  0  0  0  0
   69.2317    6.3134    4.7976 O   0  0  0  0  0  0  0  0  0  0  0  0
   67.6232    4.1979    4.6948 O   0  0  0  0  0  0  0  0  0  0  0  0
   66.7579    6.4556    5.5037 O   0  0  0  0  0  0  0  0  0  0  0  0
   67.0104    7.2849    5.9389 H   0  0  0  0  0  0  0  0  0  0  0  0
  8  9  2  0  0  0
  8 15  1  0  0  0
  9 10  1  0  0  0
  9 11  1  0  0  0
 11 12  2  0  0  0
 12 13  1  0  0  0
 12 14  1  0  0  0
 14 15  2  0  0  0
 14  7  1  0  0  0
  7  1  1  0  0  0
  1  2  2  0  0  0
  1  5  1  0  0  0
  2  3  1  0  0  0
  3  4  1  0  0  0
  4  5  2  0  0  0
  4 18  1  0  0  0
  5  6  1  0  0  0
 18 19  1  0  0  0
 19 20  1  0  0  0
 20 21  1  0  0  0
 21 25  1  0  0  0
 21 22  2  0  0  0
 21 23  1  0  0  0
 25 26  1  0  0  0
 26 27  2  0  0  0
 26 28  1  0  0  0
 26 29  1  0  0  0
 13 16  1  0  0  0
 13 17  1  0  0  0
 23 24  1  0  0  0
 29 30  1  0  0  0
M  CHG 1   1   1
M  CHG 1  28  -1
M  END
> <minimizedAffinity>
-7.71676

$$$$
1V1M_TDP_A_1401


 30 31  0  0  0  0  0  0  0  0999 V2000
   75.8517    2.9525    4.7093 N   0  0  0  0  0  0  0  0  0  0  0  0
   75.4921    2.6728    3.3016 C   0  0  0  0  0  0  0  0  0  0  0  0
   73.8010    3.3603    3.2164 S   0  0  0  0  0  0  0  0  0  0  0  0
   73.6990    3.8897    4.8643 C   0  0  0  0  0  0  0  0  0  0  0  0
   74.9225    3.5719    5.4955 C   0  0  0  0  0  0  0  0  0  0  0  0
   75.1677    3.8605    6.9775 C   0  0  0  0  0  0  0  0  0  0  0  0
   77.1856    2.4860    5.1024 C   0  0  0  0  0  0  0  0  0  0  0  0
   79.4373    3.5739    2.2329 N   0  0  0  0  0  0  0  0  0  0  0  0
   79.7799    2.4357    1.6326 C   0  0  0  0  0  0  0  0  0  0  0  0
   80.7048    2.3857    0.4320 C   0  0  0  0  0  0  0  0  0  0  0  0
   79.2619    1.2628    2.1001 N   0  0  0  0  0  0  0  0  0  0  0  0
   78.4798    1.2136    3.2006 C   0  0  0  0  0  0  0  0  0  0  0  0
   78.0711   -0.0154    3.5909 N   0  0  0  0  0  0  0  0  0  0  0  0
   78.0883    2.4139    3.8377 C   0  0  0  0  0  0  0  0  0  0  0  0
   78.6156    3.5811    3.2999 C   0  0  0  0  0  0  0  0  0  0  0  0
   78.3797   -0.8141    3.1051 H   0  0  0  0  0  0  0  0  0  0  0  0
   77.4652   -0.1111    4.3610 H   0  0  0  0  0  0  0  0  0  0  0  0
   72.4839    4.5801    5.3440 C   0  0  0  0  0  0  0  0  0  0  0  0
   71.2597    4.2404    4.4344 C   0  0  0  0  0  0  0  0  0  0  0  0
   70.2202    5.1884    4.6933 O   0  0  0  0  0  0  0  0  0  0  0  0
   68.7030    4.8019    4.5136 P   0  0  0  0  0  0  0  0  0  0  0  0
   68.5925    4.1094    3.1964 O   0  0  0  0  0  0  0  0  0  0  0  0
   67.8947    6.0027    4.7380 O   0  0  0  0  0  0  0  0  0  0  0  0
   68.0655    6.3456    5.6291 H   0  0  0  0  0  0  0  0  0  0  0  0
   68.3943    3.6440    5.6275 O   0  0  0  0  0  0  0  0  0  0  0  0
   68.5510    3.7900    7.2972 P   0  0  0  0  0  0  0  0  0  0  0  0
   69.7782    2.8636    7.7018 O   0  0  0  0  0  0  0  0  0  0  0  0
   68.7495    5.3142    7.6038 O   0  0  0  0  0  0  0  0  0  0  0  0
   67.2373    3.2732    7.8236 O   0  0  0  0  0  0  0  0  0  0  0  0
   67.1536    2.3299    7.6140 H   0  0  0  0  0  0  0  0  0  0  0  0
  8  9  2  0  0  0
  8 15  1  0  0  0
  9 10  1  0  0  0
  9 11  1  0  0  0
 11 12  2  0  0  0
 12 13  1  0  0  0
 12 14  1  0  0  0
 14 15  2  0  0  0
 14  7  1  0  0  0
  7  1  1  0  0  0
  1  2  2  0  0  0
  1  5  1  0  0  0
  2  3  1  0  0  0
  3  4  1  0  0  0
  4  5  2  0  0  0
  4 18  1  0  0  0
  5  6  1  0  0  0
 18 19  1  0  0  0
 19 20  1  0  0  0
 20 21  1  0  0  0
 21 25  1  0  0  0
 21 22  2  0  0  0
 21 23  1  0  0  0
 25 26  1  0  0  0
 26 27  2  0  0  0
 26 28  1  0  0  0
 26 29  1  0  0  0
 13 16  1  0  0  0
 13 17  1  0  0  0
 23 24  1  0  0  0
 29 30  1  0  0  0
M  CHG 1   1   1
M  CHG 1  28  -1
M  END
> <minimizedAffinity>
-7.60944

$$$$
