5DQ8_FLF_A_501
  RCSB PDB12061717213D
Coordinates from PDB:5DQ8:A:501 Model:1 without hydrogens
 20 21  0  0  0  0            999 V2000
   45.6700   41.7520  -14.7990   C 0  0  0  0  0  0  0  0  0  0  0  0
   47.4980   40.4290  -13.9040   O 0  0  0  0  0  0  0  0  0  0  0  0
   45.2500   40.5460  -15.3050   C 0  0  0  0  0  0  0  0  0  0  0  0
   44.0340   40.4730  -15.9710   C 0  0  0  0  0  0  0  0  0  0  0  0
   47.5760   42.5920  -13.6990   O 0  0  0  0  0  0  0  0  0  0  0  0
   43.2440   41.5990  -16.1290   C 0  0  0  0  0  0  0  0  0  0  0  0
   43.6680   42.8170  -15.6230   C 0  0  0  0  0  0  0  0  0  0  0  0
   44.8940   42.8500  -14.9480   C 0  0  0  0  0  0  0  0  0  0  0  0
   46.9930   41.5630  -14.1080   C 0  0  0  0  0  0  0  0  0  0  0  0
   45.4570   43.9820  -14.3550   N 0  0  0  0  0  0  0  0  0  0  0  0
   45.0050   45.2400  -14.6940   C 0  0  0  0  0  0  0  0  0  0  0  0
   45.9310   46.0420  -15.2850   C 0  0  0  0  0  0  0  0  0  0  0  0
   45.5560   47.3070  -15.6510   C 0  0  0  0  0  0  0  0  0  0  0  0
   44.2660   47.7790  -15.4170   C 0  0  0  0  0  0  0  0  0  0  0  0
   43.3300   46.9490  -14.8150   C 0  0  0  0  0  0  0  0  0  0  0  0
   43.7090   45.6620  -14.4460   C 0  0  0  0  0  0  0  0  0  0  0  0
   46.5770   48.1930  -16.2740   C 0  0  0  0  0  0  0  0  0  0  0  0
   47.7750   47.9500  -15.7050   F 0  0  0  0  0  0  0  0  0  0  0  0
   46.7680   47.9740  -17.5840   F 0  0  0  0  0  0  0  0  0  0  0  0
   46.0290   49.3950  -16.0030   F 0  0  0  0  0  0  0  0  0  0  0  0
  1  3  2  0  0  0  0
  1  8  1  0  0  0  0
  1  9  1  0  0  0  0
  2  9  2  0  0  0  0
  3  4  1  0  0  0  0
  4  6  2  0  0  0  0
  5  9  1  0  0  0  0
  6  7  1  0  0  0  0
  7  8  2  0  0  0  0
  8 10  1  0  0  0  0
 10 11  1  0  0  0  0
 11 12  2  0  0  0  0
 11 16  1  0  0  0  0
 12 13  1  0  0  0  0
 13 14  2  0  0  0  0
 13 17  1  0  0  0  0
 14 15  1  0  0  0  0
 15 16  2  0  0  0  0
 17 18  1  0  0  0  0
 17 19  1  0  0  0  0
 17 20  1  0  0  0  0
A    1
C1
A    2
O1
A    3
C2
A    4
C3
A    5
O2
A    6
C4
A    7
C5
A    8
C6
A    9
C7
A   10
N
A   11
C1'
A   12
C2'
A   13
C3'
A   14
C4'
A   15
C5'
A   16
C6'
A   17
C7'
A   18
F1
A   19
F2
A   20
F3
M  END
>  <InstanceId>
5DQ8_FLF_A_501

>  <ChemCompId>
FLF

>  <PdbId>
5DQ8

>  <ChainId>
A

>  <ResidueNumber>
501

>  <InsertionCode>


>  <Model>
1

>  <AltIds>


>  <MissingHeavyAtoms>
0

>  <ObservedFormula>
C14 N O2 F3

>  <Name>
2-[[3-(TRIFLUOROMETHYL)PHENYL]AMINO] BENZOIC ACID

>  <SystematicName>
2-[[3-(trifluoromethyl)phenyl]amino]benzoic acid

>  <Synonyms>
FLUFENAMIC ACID

>  <Type>
NON-POLYMER

>  <Formula>
C14 H10 F3 N O2

>  <MolecularWeight>
281.23

>  <ModifiedDate>
2011-06-04

>  <Parent>


>  <OneLetterCode>


>  <SubcomponentList>


>  <AmbiguousFlag>
N

>  <InChI>
InChI=1S/C14H10F3NO2/c15-14(16,17)9-4-3-5-10(8-9)18-12-7-2-1-6-11(12)13(19)20/h1-8,18H,(H,19,20)

>  <InChIKey>
LPEPZBJOKDYZAD-UHFFFAOYSA-N

>  <SMILES>
c1ccc(c(c1)C(=O)O)Nc2cccc(c2)C(F)(F)F

$$$$
