4MMP_SLB_A_401
  RCSB PDB12061713453D
Coordinates from PDB:4MMP:A:401 Model:1 without hydrogens
 21 21  0  0  0  0            999 V2000
   21.4500   30.2640   12.8010   C 0  0  0  0  0  0  0  0  0  0  0  0
   19.9550   30.1270   12.9040   C 0  0  0  0  0  0  0  0  0  0  0  0
   19.5600   28.8940   13.7070   C 0  0  0  0  0  0  0  0  0  0  0  0
   18.0560   28.7140   13.5890   C 0  0  0  0  0  0  0  0  0  0  0  0
   17.6290   28.5850   12.1340   C 0  0  0  0  0  0  0  0  0  0  0  0
   18.1260   29.9150   11.4110   C 0  0  0  0  0  0  0  0  0  0  0  0
   17.9160   29.9690    9.9150   C 0  0  0  0  0  0  0  0  0  0  0  0
   18.4120   31.2880    9.2660   C 0  0  0  0  0  0  0  0  0  0  0  0
   18.1150   31.4290    7.7820   C 0  0  0  0  0  0  0  0  0  0  0  0
   15.6760   27.2480   11.5380   C 0  0  0  0  0  0  0  0  0  0  0  0
   14.1610   27.2530   11.3670   C 0  0  0  0  0  0  0  0  0  0  0  0
   16.1910   28.4220   11.9390   N 0  0  0  0  0  0  0  0  0  0  0  0
   22.0060   31.2390   13.3540   O 0  0  0  0  0  0  0  0  0  0  0  0
   22.1090   29.4010   12.1610   O 0  0  0  0  0  0  0  0  0  0  0  0
   19.4220   31.3760   13.4870   O 0  0  0  0  0  0  0  0  0  0  0  0
   17.6180   27.5500   14.2900   O 0  0  0  0  0  0  0  0  0  0  0  0
   19.5870   30.0530   11.5380   O 0  0  0  0  0  0  0  0  0  0  0  0
   18.5650   28.8340    9.2540   O 0  0  0  0  0  0  0  0  0  0  0  0
   17.8390   32.3610    9.9950   O 0  0  0  0  0  0  0  0  0  0  0  0
   16.6590   31.2090    7.4970   O 0  0  0  0  0  0  0  0  0  0  0  0
   16.4190   26.2590   11.3270   O 0  0  0  0  0  0  0  0  0  0  0  0
  1  2  1  0  0  0  0
  1 13  2  0  0  0  0
  1 14  1  0  0  0  0
  2  3  1  0  0  0  0
  2 15  1  0  0  0  0
  2 17  1  0  0  0  0
  3  4  1  0  0  0  0
  4  5  1  0  0  0  0
  4 16  1  0  0  0  0
  5  6  1  0  0  0  0
  5 12  1  0  0  0  0
  6  7  1  0  0  0  0
  6 17  1  0  0  0  0
  7  8  1  0  0  0  0
  7 18  1  0  0  0  0
  8  9  1  0  0  0  0
  8 19  1  0  0  0  0
  9 20  1  0  0  0  0
 10 11  1  0  0  0  0
 10 12  1  0  0  0  0
 10 21  2  0  0  0  0
A    1
C1
A    2
C2
A    3
C3
A    4
C4
A    5
C5
A    6
C6
A    7
C7
A    8
C8
A    9
C9
A   10
C10
A   11
C11
A   12
N5
A   13
O1A
A   14
O1B
A   15
O2
A   16
O4
A   17
O6
A   18
O7
A   19
O8
A   20
O9
A   21
O10
M  END
>  <InstanceId>
4MMP_SLB_A_401

>  <ChemCompId>
SLB

>  <PdbId>
4MMP

>  <ChainId>
A

>  <ResidueNumber>
401

>  <InsertionCode>


>  <Model>
1

>  <AltIds>


>  <MissingHeavyAtoms>
0

>  <ObservedFormula>
C11 N O9

>  <Name>
5-N-ACETYL-BETA-D-NEURAMINIC ACID

>  <SystematicName>
(2S,4S,5R,6R)-5-acetamido-2,4-dihydroxy-6-[(1R,2R)-1,2,3-trihydroxypropyl]oxane-2-carboxylic acid

>  <Synonyms>
BETA-SIALIC ACID

>  <Type>
NON-POLYMER

>  <Formula>
C11 H19 N O9

>  <MolecularWeight>
309.27

>  <ModifiedDate>
2011-06-04

>  <Parent>


>  <OneLetterCode>


>  <SubcomponentList>


>  <AmbiguousFlag>
N

>  <InChI>
InChI=1S/C11H19NO9/c1-4(14)12-7-5(15)2-11(20,10(18)19)21-9(7)8(17)6(16)3-13/h5-9,13,15-17,20H,2-3H2,1H3,(H,12,14)(H,18,19)/t5-,6+,7+,8+,9+,11-/m0/s1

>  <InChIKey>
SQVRNKJHWKZAKO-PFQGKNLYSA-N

>  <SMILES>
CC(=O)N[C@@H]1[C@H](C[C@](O[C@H]1[C@@H]([C@@H](CO)O)O)(C(=O)O)O)O

$$$$
