1F0S_PR2_A_401


 31 35  0  0  0  0  0  0  0  0999 V2000
    5.7091    7.2713   21.9573 N   0  0  0  0  0  0  0  0  0  0  0  0
    5.9788    6.1406   21.2634 C   0  0  0  0  0  0  0  0  0  0  0  0
    4.8656    5.1642   21.5607 C   0  0  0  0  0  0  0  0  0  0  0  0
    4.1722    5.7280   22.8040 C   0  0  0  0  0  0  0  0  0  0  0  0
    4.4878    7.2024   22.7555 C   0  0  0  0  0  0  0  0  0  0  0  0
    6.9355    5.9470   20.5217 O   0  0  0  0  0  0  0  0  0  0  0  0
    5.3657    3.8328   21.8770 N   0  0  0  0  0  0  0  0  0  0  0  0
    5.3181    3.7295   22.8906 H   0  0  0  0  0  0  0  0  0  0  0  0
    4.6247    2.5287   21.2286 S   0  0  0  0  0  0  0  0  0  0  0  0
    3.4711    3.1702   20.6799 O   0  0  0  0  0  0  0  0  0  0  0  0
    4.4938    1.5986   22.3165 O   0  0  0  0  0  0  0  0  0  0  0  0
    6.7328    0.8525   18.0674 C   0  0  0  0  0  0  0  0  0  0  0  0
    7.1930    0.2732   16.8535 C   0  0  0  0  0  0  0  0  0  0  0  0
    8.5703   -0.1109   16.7439 C   0  0  0  0  0  0  0  0  0  0  0  0
    9.4211    0.1068   17.8763 C   0  0  0  0  0  0  0  0  0  0  0  0
    8.9505    0.6704   19.0385 N   0  0  0  0  0  0  0  0  0  0  0  0
    7.6081    1.0471   19.1394 C   0  0  0  0  0  0  0  0  0  0  0  0
    7.0584    1.6430   20.3126 C   0  0  0  0  0  0  0  0  0  0  0  0
    5.6830    1.8804   20.0377 C   0  0  0  0  0  0  0  0  0  0  0  0
    5.1942    1.3894   18.4729 S   0  0  0  0  0  0  0  0  0  0  0  0
    6.4992    8.5041   21.9614 C   0  0  0  0  0  0  0  0  0  0  0  0
    9.4915    8.6188   24.0487 C   0  0  0  0  0  0  0  0  0  0  0  0
    8.6483    7.8070   24.9146 C   0  0  0  0  0  0  0  0  0  0  0  0
    9.1405    7.3430   26.1705 C   0  0  0  0  0  0  0  0  0  0  0  0
   10.4728    7.7092   26.5284 C   0  0  0  0  0  0  0  0  0  0  0  0
   11.2315    8.4743   25.6823 N   0  0  0  0  0  0  0  0  0  0  0  0
   10.8135    8.9397   24.4785 C   0  0  0  0  0  0  0  0  0  0  0  0
    7.4171    7.6421   24.2601 C   0  0  0  0  0  0  0  0  0  0  0  0
    7.5456    8.3440   23.0456 C   0  0  0  0  0  0  0  0  0  0  0  0
    8.7583    8.9144   22.9203 N   0  0  0  0  0  0  0  0  0  0  0  0
    9.0679    9.4503   22.1546 H   0  0  0  0  0  0  0  0  0  0  0  0
 12 13  1  0  0  0
 12 17  2  0  0  0
 12 20  1  0  0  0
 13 14  2  0  0  0
 14 15  1  0  0  0
 15 16  2  0  0  0
 16 17  1  0  0  0
 17 18  1  0  0  0
 18 19  2  0  0  0
 19 20  1  0  0  0
 19  9  1  0  0  0
  1  2  1  0  0  0
  1  5  1  0  0  0
  1 21  1  0  0  0
  2  3  1  0  0  0
  2  6  2  0  0  0
  3  4  1  0  0  0
  3  7  1  0  0  0
  4  5  1  0  0  0
  7  9  1  0  0  0
  9 10  2  0  0  0
  9 11  2  0  0  0
 21 29  1  0  0  0
 22 23  2  0  0  0
 22 27  1  0  0  0
 22 30  1  0  0  0
 23 24  1  0  0  0
 23 28  1  0  0  0
 24 25  2  0  0  0
 25 26  1  0  0  0
 26 27  2  0  0  0
 28 29  2  0  0  0
 29 30  1  0  0  0
  7  8  1  0  0  0
 30 31  1  0  0  0
M  END
> <minimizedAffinity>
-9.55453

$$$$
1F0S_PR2_A_401


 31 35  0  0  0  0  0  0  0  0999 V2000
    6.7836    8.0272   22.5782 N   0  0  0  0  0  0  0  0  0  0  0  0
    6.9246    7.0911   21.6106 C   0  0  0  0  0  0  0  0  0  0  0  0
    5.7157    6.1893   21.6895 C   0  0  0  0  0  0  0  0  0  0  0  0
    5.0973    6.4827   23.0592 C   0  0  0  0  0  0  0  0  0  0  0  0
    5.5688    7.8803   23.3758 C   0  0  0  0  0  0  0  0  0  0  0  0
    7.8487    6.9980   20.8105 O   0  0  0  0  0  0  0  0  0  0  0  0
    6.0728    4.7776   21.6390 N   0  0  0  0  0  0  0  0  0  0  0  0
    6.2139    4.4712   22.6016 H   0  0  0  0  0  0  0  0  0  0  0  0
    5.0382    3.7185   20.9475 S   0  0  0  0  0  0  0  0  0  0  0  0
    4.1557    4.6443   20.3091 O   0  0  0  0  0  0  0  0  0  0  0  0
    4.5730    2.8954   22.0300 O   0  0  0  0  0  0  0  0  0  0  0  0
    6.7729    1.3542   18.0068 C   0  0  0  0  0  0  0  0  0  0  0  0
    7.1074    0.5731   16.8671 C   0  0  0  0  0  0  0  0  0  0  0  0
    8.3899   -0.0662   16.8136 C   0  0  0  0  0  0  0  0  0  0  0  0
    9.2771    0.1127   17.9246 C   0  0  0  0  0  0  0  0  0  0  0  0
    8.9290    0.8748   19.0145 N   0  0  0  0  0  0  0  0  0  0  0  0
    7.6793    1.4995   19.0605 C   0  0  0  0  0  0  0  0  0  0  0  0
    7.2595    2.3088   20.1571 C   0  0  0  0  0  0  0  0  0  0  0  0
    5.9482    2.7630   19.8442 C   0  0  0  0  0  0  0  0  0  0  0  0
    5.3626    2.2042   18.3364 S   0  0  0  0  0  0  0  0  0  0  0  0
    7.7014    9.1309   22.8673 C   0  0  0  0  0  0  0  0  0  0  0  0
    9.2544    7.6025   25.7958 C   0  0  0  0  0  0  0  0  0  0  0  0
   10.4479    8.1648   25.1802 C   0  0  0  0  0  0  0  0  0  0  0  0
   11.7247    7.9903   25.7919 C   0  0  0  0  0  0  0  0  0  0  0  0
   11.7718    7.2502   27.0114 C   0  0  0  0  0  0  0  0  0  0  0  0
   10.6232    6.7393   27.5561 N   0  0  0  0  0  0  0  0  0  0  0  0
    9.3858    6.8770   27.0173 C   0  0  0  0  0  0  0  0  0  0  0  0
   10.0413    8.8195   24.0066 C   0  0  0  0  0  0  0  0  0  0  0  0
    8.6458    8.6377   23.9448 C   0  0  0  0  0  0  0  0  0  0  0  0
    8.1844    7.9274   24.9910 N   0  0  0  0  0  0  0  0  0  0  0  0
    7.2447    7.6824   25.1530 H   0  0  0  0  0  0  0  0  0  0  0  0
 12 13  1  0  0  0
 12 17  2  0  0  0
 12 20  1  0  0  0
 13 14  2  0  0  0
 14 15  1  0  0  0
 15 16  2  0  0  0
 16 17  1  0  0  0
 17 18  1  0  0  0
 18 19  2  0  0  0
 19 20  1  0  0  0
 19  9  1  0  0  0
  1  2  1  0  0  0
  1  5  1  0  0  0
  1 21  1  0  0  0
  2  3  1  0  0  0
  2  6  2  0  0  0
  3  4  1  0  0  0
  3  7  1  0  0  0
  4  5  1  0  0  0
  7  9  1  0  0  0
  9 10  2  0  0  0
  9 11  2  0  0  0
 21 29  1  0  0  0
 22 23  2  0  0  0
 22 27  1  0  0  0
 22 30  1  0  0  0
 23 24  1  0  0  0
 23 28  1  0  0  0
 24 25  2  0  0  0
 25 26  1  0  0  0
 26 27  2  0  0  0
 28 29  2  0  0  0
 29 30  1  0  0  0
  7  8  1  0  0  0
 30 31  1  0  0  0
M  END
> <minimizedAffinity>
-9.53204

$$$$
1F0S_PR2_A_401


 31 35  0  0  0  0  0  0  0  0999 V2000
    5.5571    7.0781   22.1391 N   0  0  0  0  0  0  0  0  0  0  0  0
    4.9349    5.9481   22.5499 C   0  0  0  0  0  0  0  0  0  0  0  0
    5.1301    4.9171   21.4637 C   0  0  0  0  0  0  0  0  0  0  0  0
    5.5756    5.7194   20.2380 C   0  0  0  0  0  0  0  0  0  0  0  0
    6.1875    6.9665   20.8263 C   0  0  0  0  0  0  0  0  0  0  0  0
    4.3383    5.7838   23.6081 O   0  0  0  0  0  0  0  0  0  0  0  0
    3.8944    4.2198   21.1327 N   0  0  0  0  0  0  0  0  0  0  0  0
    3.6921    4.4203   20.1533 H   0  0  0  0  0  0  0  0  0  0  0  0
    3.8225    2.5972   21.3127 S   0  0  0  0  0  0  0  0  0  0  0  0
    2.5119    2.3669   20.7904 O   0  0  0  0  0  0  0  0  0  0  0  0
    4.1045    2.3664   22.7030 O   0  0  0  0  0  0  0  0  0  0  0  0
    7.1864    1.1133   19.3816 C   0  0  0  0  0  0  0  0  0  0  0  0
    8.4732    0.6688   18.9724 C   0  0  0  0  0  0  0  0  0  0  0  0
    8.6554    0.2097   17.6260 C   0  0  0  0  0  0  0  0  0  0  0  0
    7.5207    0.2262   16.7509 C   0  0  0  0  0  0  0  0  0  0  0  0
    6.2864    0.6600   17.1728 N   0  0  0  0  0  0  0  0  0  0  0  0
    6.1125    1.1029   18.4873 C   0  0  0  0  0  0  0  0  0  0  0  0
    4.8582    1.5583   18.9901 C   0  0  0  0  0  0  0  0  0  0  0  0
    5.0760    1.9211   20.3483 C   0  0  0  0  0  0  0  0  0  0  0  0
    6.6885    1.6966   20.8756 S   0  0  0  0  0  0  0  0  0  0  0  0
    5.6554    8.3394   22.8763 C   0  0  0  0  0  0  0  0  0  0  0  0
    8.4887    7.8075   25.1153 C   0  0  0  0  0  0  0  0  0  0  0  0
    9.1459    8.6436   24.1210 C   0  0  0  0  0  0  0  0  0  0  0  0
   10.5250    8.9806   24.2608 C   0  0  0  0  0  0  0  0  0  0  0  0
   11.2137    8.4653   25.3998 C   0  0  0  0  0  0  0  0  0  0  0  0
   10.5553    7.6826   26.3114 N   0  0  0  0  0  0  0  0  0  0  0  0
    9.2470    7.3338   26.2271 C   0  0  0  0  0  0  0  0  0  0  0  0
    8.1855    8.9671   23.1493 C   0  0  0  0  0  0  0  0  0  0  0  0
    7.0017    8.3308   23.5715 C   0  0  0  0  0  0  0  0  0  0  0  0
    7.1774    7.6536   24.7214 N   0  0  0  0  0  0  0  0  0  0  0  0
    6.4881    7.1374   25.1986 H   0  0  0  0  0  0  0  0  0  0  0  0
 12 13  1  0  0  0
 12 17  2  0  0  0
 12 20  1  0  0  0
 13 14  2  0  0  0
 14 15  1  0  0  0
 15 16  2  0  0  0
 16 17  1  0  0  0
 17 18  1  0  0  0
 18 19  2  0  0  0
 19 20  1  0  0  0
 19  9  1  0  0  0
  1  2  1  0  0  0
  1  5  1  0  0  0
  1 21  1  0  0  0
  2  3  1  0  0  0
  2  6  2  0  0  0
  3  4  1  0  0  0
  3  7  1  0  0  0
  4  5  1  0  0  0
  7  9  1  0  0  0
  9 10  2  0  0  0
  9 11  2  0  0  0
 21 29  1  0  0  0
 22 23  2  0  0  0
 22 27  1  0  0  0
 22 30  1  0  0  0
 23 24  1  0  0  0
 23 28  1  0  0  0
 24 25  2  0  0  0
 25 26  1  0  0  0
 26 27  2  0  0  0
 28 29  2  0  0  0
 29 30  1  0  0  0
  7  8  1  0  0  0
 30 31  1  0  0  0
M  END
> <minimizedAffinity>
-9.45166

$$$$
1F0S_PR2_A_401


 31 35  0  0  0  0  0  0  0  0999 V2000
    4.2758    3.5235   20.3228 N   0  0  0  0  0  0  0  0  0  0  0  0
    4.5659    4.0937   21.5158 C   0  0  0  0  0  0  0  0  0  0  0  0
    4.6880    5.5799   21.2766 C   0  0  0  0  0  0  0  0  0  0  0  0
    4.8351    5.7212   19.7591 C   0  0  0  0  0  0  0  0  0  0  0  0
    4.1860    4.4724   19.2160 C   0  0  0  0  0  0  0  0  0  0  0  0
    4.6917    3.5188   22.5912 O   0  0  0  0  0  0  0  0  0  0  0  0
    5.8719    6.1477   21.9083 N   0  0  0  0  0  0  0  0  0  0  0  0
    6.6360    6.0657   21.2376 H   0  0  0  0  0  0  0  0  0  0  0  0
    5.8397    7.7032   22.4078 S   0  0  0  0  0  0  0  0  0  0  0  0
    4.6342    7.6723   23.1753 O   0  0  0  0  0  0  0  0  0  0  0  0
    5.9164    8.4808   21.2014 O   0  0  0  0  0  0  0  0  0  0  0  0
    9.4599    8.5643   24.2515 C   0  0  0  0  0  0  0  0  0  0  0  0
   10.7556    9.0057   24.6355 C   0  0  0  0  0  0  0  0  0  0  0  0
   11.2970    8.5674   25.8890 C   0  0  0  0  0  0  0  0  0  0  0  0
   10.4985    7.6945   26.6977 C   0  0  0  0  0  0  0  0  0  0  0  0
    9.2474    7.2837   26.3030 N   0  0  0  0  0  0  0  0  0  0  0  0
    8.7220    7.7167   25.0822 C   0  0  0  0  0  0  0  0  0  0  0  0
    7.4291    7.3340   24.6177 C   0  0  0  0  0  0  0  0  0  0  0  0
    7.2517    7.9642   23.3547 C   0  0  0  0  0  0  0  0  0  0  0  0
    8.5876    8.9122   22.8593 S   0  0  0  0  0  0  0  0  0  0  0  0
    4.0429    2.1006   20.0674 C   0  0  0  0  0  0  0  0  0  0  0  0
    6.5506    0.6983   17.8160 C   0  0  0  0  0  0  0  0  0  0  0  0
    7.4020    0.9423   18.9716 C   0  0  0  0  0  0  0  0  0  0  0  0
    8.7911    0.6212   18.9239 C   0  0  0  0  0  0  0  0  0  0  0  0
    9.2935    0.0622   17.7105 C   0  0  0  0  0  0  0  0  0  0  0  0
    8.4559   -0.1513   16.6476 N   0  0  0  0  0  0  0  0  0  0  0  0
    7.1297    0.1342   16.6404 C   0  0  0  0  0  0  0  0  0  0  0  0
    6.5908    1.4925   19.9769 C   0  0  0  0  0  0  0  0  0  0  0  0
    5.3015    1.5664   19.4143 C   0  0  0  0  0  0  0  0  0  0  0  0
    5.2765    1.1012   18.1514 N   0  0  0  0  0  0  0  0  0  0  0  0
    4.4846    1.0566   17.5682 H   0  0  0  0  0  0  0  0  0  0  0  0
 12 13  1  0  0  0
 12 17  2  0  0  0
 12 20  1  0  0  0
 13 14  2  0  0  0
 14 15  1  0  0  0
 15 16  2  0  0  0
 16 17  1  0  0  0
 17 18  1  0  0  0
 18 19  2  0  0  0
 19 20  1  0  0  0
 19  9  1  0  0  0
  1  2  1  0  0  0
  1  5  1  0  0  0
  1 21  1  0  0  0
  2  3  1  0  0  0
  2  6  2  0  0  0
  3  4  1  0  0  0
  3  7  1  0  0  0
  4  5  1  0  0  0
  7  9  1  0  0  0
  9 10  2  0  0  0
  9 11  2  0  0  0
 21 29  1  0  0  0
 22 23  2  0  0  0
 22 27  1  0  0  0
 22 30  1  0  0  0
 23 24  1  0  0  0
 23 28  1  0  0  0
 24 25  2  0  0  0
 25 26  1  0  0  0
 26 27  2  0  0  0
 28 29  2  0  0  0
 29 30  1  0  0  0
  7  8  1  0  0  0
 30 31  1  0  0  0
M  END
> <minimizedAffinity>
-9.11703

$$$$
1F0S_PR2_A_401


 31 35  0  0  0  0  0  0  0  0999 V2000
    4.3870    3.5179   19.3681 N   0  0  0  0  0  0  0  0  0  0  0  0
    4.7641    4.3686   20.3512 C   0  0  0  0  0  0  0  0  0  0  0  0
    4.6960    5.7640   19.7775 C   0  0  0  0  0  0  0  0  0  0  0  0
    4.6332    5.5610   18.2612 C   0  0  0  0  0  0  0  0  0  0  0  0
    4.0569    4.1755   18.1064 C   0  0  0  0  0  0  0  0  0  0  0  0
    5.0859    4.0692   21.4956 O   0  0  0  0  0  0  0  0  0  0  0  0
    5.8834    6.5495   20.0876 N   0  0  0  0  0  0  0  0  0  0  0  0
    6.3434    6.7570   19.2012 H   0  0  0  0  0  0  0  0  0  0  0  0
    5.7154    7.9676   20.8820 S   0  0  0  0  0  0  0  0  0  0  0  0
    4.3931    7.7875   21.3945 O   0  0  0  0  0  0  0  0  0  0  0  0
    5.9839    8.9781   19.8958 O   0  0  0  0  0  0  0  0  0  0  0  0
    8.2477    7.9285   24.1732 C   0  0  0  0  0  0  0  0  0  0  0  0
    8.8844    7.7976   25.4375 C   0  0  0  0  0  0  0  0  0  0  0  0
   10.2184    8.2980   25.6001 C   0  0  0  0  0  0  0  0  0  0  0  0
   10.8475    8.9147   24.4698 C   0  0  0  0  0  0  0  0  0  0  0  0
   10.2094    9.0272   23.2574 N   0  0  0  0  0  0  0  0  0  0  0  0
    8.9105    8.5344   23.1023 C   0  0  0  0  0  0  0  0  0  0  0  0
    8.1957    8.6126   21.8707 C   0  0  0  0  0  0  0  0  0  0  0  0
    6.9259    8.0148   22.1029 C   0  0  0  0  0  0  0  0  0  0  0  0
    6.7114    7.4416   23.7011 S   0  0  0  0  0  0  0  0  0  0  0  0
    4.2763    2.0612   19.4673 C   0  0  0  0  0  0  0  0  0  0  0  0
    6.9861    0.4962   17.5881 C   0  0  0  0  0  0  0  0  0  0  0  0
    7.7326    0.8755   18.7790 C   0  0  0  0  0  0  0  0  0  0  0  0
    9.1252    0.5833   18.8802 C   0  0  0  0  0  0  0  0  0  0  0  0
    9.7370   -0.0840   17.7766 C   0  0  0  0  0  0  0  0  0  0  0  0
    8.9958   -0.4234   16.6755 N   0  0  0  0  0  0  0  0  0  0  0  0
    7.6710   -0.1706   16.5289 C   0  0  0  0  0  0  0  0  0  0  0  0
    6.8312    1.5059   19.6516 C   0  0  0  0  0  0  0  0  0  0  0  0
    5.5934    1.4927   18.9793 C   0  0  0  0  0  0  0  0  0  0  0  0
    5.6824    0.9015   17.7733 N   0  0  0  0  0  0  0  0  0  0  0  0
    4.9436    0.7798   17.1340 H   0  0  0  0  0  0  0  0  0  0  0  0
 12 13  1  0  0  0
 12 17  2  0  0  0
 12 20  1  0  0  0
 13 14  2  0  0  0
 14 15  1  0  0  0
 15 16  2  0  0  0
 16 17  1  0  0  0
 17 18  1  0  0  0
 18 19  2  0  0  0
 19 20  1  0  0  0
 19  9  1  0  0  0
  1  2  1  0  0  0
  1  5  1  0  0  0
  1 21  1  0  0  0
  2  3  1  0  0  0
  2  6  2  0  0  0
  3  4  1  0  0  0
  3  7  1  0  0  0
  4  5  1  0  0  0
  7  9  1  0  0  0
  9 10  2  0  0  0
  9 11  2  0  0  0
 21 29  1  0  0  0
 22 23  2  0  0  0
 22 27  1  0  0  0
 22 30  1  0  0  0
 23 24  1  0  0  0
 23 28  1  0  0  0
 24 25  2  0  0  0
 25 26  1  0  0  0
 26 27  2  0  0  0
 28 29  2  0  0  0
 29 30  1  0  0  0
  7  8  1  0  0  0
 30 31  1  0  0  0
M  END
> <minimizedAffinity>
-8.93299

$$$$
1F0S_PR2_A_401


 31 35  0  0  0  0  0  0  0  0999 V2000
    3.9312    6.5166   22.0802 N   0  0  0  0  0  0  0  0  0  0  0  0
    3.8496    5.2142   22.4403 C   0  0  0  0  0  0  0  0  0  0  0  0
    3.8366    4.4039   21.1659 C   0  0  0  0  0  0  0  0  0  0  0  0
    3.5110    5.4148   20.0628 C   0  0  0  0  0  0  0  0  0  0  0  0
    3.9669    6.7336   20.6362 C   0  0  0  0  0  0  0  0  0  0  0  0
    3.8092    4.7712   23.5826 O   0  0  0  0  0  0  0  0  0  0  0  0
    2.8007    3.3793   21.1710 N   0  0  0  0  0  0  0  0  0  0  0  0
    2.3646    3.3917   20.2490 H   0  0  0  0  0  0  0  0  0  0  0  0
    3.2148    1.8296   21.4826 S   0  0  0  0  0  0  0  0  0  0  0  0
    2.0160    1.1812   21.0513 O   0  0  0  0  0  0  0  0  0  0  0  0
    3.5911    1.8190   22.8697 O   0  0  0  0  0  0  0  0  0  0  0  0
    6.8203    1.1005   19.5551 C   0  0  0  0  0  0  0  0  0  0  0  0
    8.1717    0.9089   19.1574 C   0  0  0  0  0  0  0  0  0  0  0  0
    8.4585    0.6242   17.7814 C   0  0  0  0  0  0  0  0  0  0  0  0
    7.3579    0.5504   16.8667 C   0  0  0  0  0  0  0  0  0  0  0  0
    6.0598    0.7386   17.2781 N   0  0  0  0  0  0  0  0  0  0  0  0
    5.7845    1.0119   18.6211 C   0  0  0  0  0  0  0  0  0  0  0  0
    4.4611    1.2098   19.1143 C   0  0  0  0  0  0  0  0  0  0  0  0
    4.5842    1.4619   20.5090 C   0  0  0  0  0  0  0  0  0  0  0  0
    6.1984    1.4423   21.0771 S   0  0  0  0  0  0  0  0  0  0  0  0
    3.9965    7.6701   22.9798 C   0  0  0  0  0  0  0  0  0  0  0  0
    7.3600    7.8378   24.3881 C   0  0  0  0  0  0  0  0  0  0  0  0
    7.6128    8.5224   23.1283 C   0  0  0  0  0  0  0  0  0  0  0  0
    8.9198    9.0031   22.8191 C   0  0  0  0  0  0  0  0  0  0  0  0
    9.9458    8.7814   23.7862 C   0  0  0  0  0  0  0  0  0  0  0  0
    9.6629    8.1329   24.9594 N   0  0  0  0  0  0  0  0  0  0  0  0
    8.4396    7.6578   25.3032 C   0  0  0  0  0  0  0  0  0  0  0  0
    6.3974    8.5644   22.4267 C   0  0  0  0  0  0  0  0  0  0  0  0
    5.4649    7.9172   23.2609 C   0  0  0  0  0  0  0  0  0  0  0  0
    6.0261    7.4930   24.4084 N   0  0  0  0  0  0  0  0  0  0  0  0
    5.5635    7.0185   25.1365 H   0  0  0  0  0  0  0  0  0  0  0  0
 12 13  1  0  0  0
 12 17  2  0  0  0
 12 20  1  0  0  0
 13 14  2  0  0  0
 14 15  1  0  0  0
 15 16  2  0  0  0
 16 17  1  0  0  0
 17 18  1  0  0  0
 18 19  2  0  0  0
 19 20  1  0  0  0
 19  9  1  0  0  0
  1  2  1  0  0  0
  1  5  1  0  0  0
  1 21  1  0  0  0
  2  3  1  0  0  0
  2  6  2  0  0  0
  3  4  1  0  0  0
  3  7  1  0  0  0
  4  5  1  0  0  0
  7  9  1  0  0  0
  9 10  2  0  0  0
  9 11  2  0  0  0
 21 29  1  0  0  0
 22 23  2  0  0  0
 22 27  1  0  0  0
 22 30  1  0  0  0
 23 24  1  0  0  0
 23 28  1  0  0  0
 24 25  2  0  0  0
 25 26  1  0  0  0
 26 27  2  0  0  0
 28 29  2  0  0  0
 29 30  1  0  0  0
  7  8  1  0  0  0
 30 31  1  0  0  0
M  END
> <minimizedAffinity>
-8.02924

$$$$
1F0S_PR2_A_401


 31 35  0  0  0  0  0  0  0  0999 V2000
    3.3892    5.8981   22.1755 N   0  0  0  0  0  0  0  0  0  0  0  0
    2.9055    5.5726   20.9538 C   0  0  0  0  0  0  0  0  0  0  0  0
    3.1287    4.0901   20.7713 C   0  0  0  0  0  0  0  0  0  0  0  0
    4.1487    3.7125   21.8490 C   0  0  0  0  0  0  0  0  0  0  0  0
    3.9650    4.7724   22.9067 C   0  0  0  0  0  0  0  0  0  0  0  0
    2.3729    6.3307   20.1510 O   0  0  0  0  0  0  0  0  0  0  0  0
    3.6972    3.7713   19.4682 N   0  0  0  0  0  0  0  0  0  0  0  0
    4.6975    3.9625   19.5245 H   0  0  0  0  0  0  0  0  0  0  0  0
    3.5330    2.2571   18.8763 S   0  0  0  0  0  0  0  0  0  0  0  0
    2.8583    2.5613   17.6534 O   0  0  0  0  0  0  0  0  0  0  0  0
    2.8635    1.5242   19.9158 O   0  0  0  0  0  0  0  0  0  0  0  0
    7.4947    1.0164   18.7657 C   0  0  0  0  0  0  0  0  0  0  0  0
    8.8701    0.7312   18.9847 C   0  0  0  0  0  0  0  0  0  0  0  0
    9.6057    0.0321   17.9714 C   0  0  0  0  0  0  0  0  0  0  0  0
    8.9116   -0.3438   16.7754 C   0  0  0  0  0  0  0  0  0  0  0  0
    7.5801   -0.0567   16.5897 N   0  0  0  0  0  0  0  0  0  0  0  0
    6.8659    0.6213   17.5818 C   0  0  0  0  0  0  0  0  0  0  0  0
    5.4824    0.9431   17.4553 C   0  0  0  0  0  0  0  0  0  0  0  0
    5.1159    1.6236   18.6496 C   0  0  0  0  0  0  0  0  0  0  0  0
    6.4017    1.8101   19.7635 S   0  0  0  0  0  0  0  0  0  0  0  0
    3.3707    7.2230   22.7986 C   0  0  0  0  0  0  0  0  0  0  0  0
    6.7929    8.4095   22.3463 C   0  0  0  0  0  0  0  0  0  0  0  0
    6.8390    8.1402   23.7763 C   0  0  0  0  0  0  0  0  0  0  0  0
    8.0340    8.3816   24.5169 C   0  0  0  0  0  0  0  0  0  0  0  0
    9.1578    8.8919   23.8001 C   0  0  0  0  0  0  0  0  0  0  0  0
    9.0703    9.1301   22.4538 N   0  0  0  0  0  0  0  0  0  0  0  0
    7.9607    8.9170   21.7028 C   0  0  0  0  0  0  0  0  0  0  0  0
    5.5755    7.6542   24.1487 C   0  0  0  0  0  0  0  0  0  0  0  0
    4.8169    7.6449   22.9619 C   0  0  0  0  0  0  0  0  0  0  0  0
    5.5279    8.0851   21.9071 N   0  0  0  0  0  0  0  0  0  0  0  0
    5.2006    8.1620   20.9818 H   0  0  0  0  0  0  0  0  0  0  0  0
 12 13  1  0  0  0
 12 17  2  0  0  0
 12 20  1  0  0  0
 13 14  2  0  0  0
 14 15  1  0  0  0
 15 16  2  0  0  0
 16 17  1  0  0  0
 17 18  1  0  0  0
 18 19  2  0  0  0
 19 20  1  0  0  0
 19  9  1  0  0  0
  1  2  1  0  0  0
  1  5  1  0  0  0
  1 21  1  0  0  0
  2  3  1  0  0  0
  2  6  2  0  0  0
  3  4  1  0  0  0
  3  7  1  0  0  0
  4  5  1  0  0  0
  7  9  1  0  0  0
  9 10  2  0  0  0
  9 11  2  0  0  0
 21 29  1  0  0  0
 22 23  2  0  0  0
 22 27  1  0  0  0
 22 30  1  0  0  0
 23 24  1  0  0  0
 23 28  1  0  0  0
 24 25  2  0  0  0
 25 26  1  0  0  0
 26 27  2  0  0  0
 28 29  2  0  0  0
 29 30  1  0  0  0
  7  8  1  0  0  0
 30 31  1  0  0  0
M  END
> <minimizedAffinity>
-7.75661

$$$$
1F0S_PR2_A_401


 31 35  0  0  0  0  0  0  0  0999 V2000
    6.1367    9.8284   18.0926 N   0  0  0  0  0  0  0  0  0  0  0  0
    5.7452    9.0024   19.0910 C   0  0  0  0  0  0  0  0  0  0  0  0
    6.6478    9.2768   20.2704 C   0  0  0  0  0  0  0  0  0  0  0  0
    7.8327   10.0497   19.6847 C   0  0  0  0  0  0  0  0  0  0  0  0
    7.2684   10.6848   18.4381 C   0  0  0  0  0  0  0  0  0  0  0  0
    4.8240    8.1943   19.0545 O   0  0  0  0  0  0  0  0  0  0  0  0
    7.1525    8.0529   20.8788 N   0  0  0  0  0  0  0  0  0  0  0  0
    8.0781    7.8839   20.4849 H   0  0  0  0  0  0  0  0  0  0  0  0
    7.3037    7.9749   22.5040 S   0  0  0  0  0  0  0  0  0  0  0  0
    7.6765    9.3301   22.7646 O   0  0  0  0  0  0  0  0  0  0  0  0
    8.2341    6.9047   22.7381 O   0  0  0  0  0  0  0  0  0  0  0  0
    3.5115    6.6692   23.5818 C   0  0  0  0  0  0  0  0  0  0  0  0
    2.2351    6.0565   23.7102 C   0  0  0  0  0  0  0  0  0  0  0  0
    1.3688    6.4699   24.7757 C   0  0  0  0  0  0  0  0  0  0  0  0
    1.8363    7.4928   25.6637 C   0  0  0  0  0  0  0  0  0  0  0  0
    3.0763    8.0679   25.5178 N   0  0  0  0  0  0  0  0  0  0  0  0
    3.9191    7.6590   24.4802 C   0  0  0  0  0  0  0  0  0  0  0  0
    5.2191    8.2093   24.2777 C   0  0  0  0  0  0  0  0  0  0  0  0
    5.7627    7.5509   23.1398 C   0  0  0  0  0  0  0  0  0  0  0  0
    4.7161    6.3882   22.4460 S   0  0  0  0  0  0  0  0  0  0  0  0
    5.5368    9.9363   16.7612 C   0  0  0  0  0  0  0  0  0  0  0  0
    7.8471    7.8814   14.8211 C   0  0  0  0  0  0  0  0  0  0  0  0
    8.0341    9.1449   14.1224 C   0  0  0  0  0  0  0  0  0  0  0  0
    8.9355    9.2324   13.0202 C   0  0  0  0  0  0  0  0  0  0  0  0
    9.6284    8.0427   12.6439 C   0  0  0  0  0  0  0  0  0  0  0  0
    9.4226    6.8750   13.3303 N   0  0  0  0  0  0  0  0  0  0  0  0
    8.5795    6.7376   14.3843 C   0  0  0  0  0  0  0  0  0  0  0  0
    7.2072   10.0920   14.7474 C   0  0  0  0  0  0  0  0  0  0  0  0
    6.5563    9.3912   15.7815 C   0  0  0  0  0  0  0  0  0  0  0  0
    6.9305    8.0990   15.8264 N   0  0  0  0  0  0  0  0  0  0  0  0
    6.6055    7.4258   16.4670 H   0  0  0  0  0  0  0  0  0  0  0  0
 12 13  1  0  0  0
 12 17  2  0  0  0
 12 20  1  0  0  0
 13 14  2  0  0  0
 14 15  1  0  0  0
 15 16  2  0  0  0
 16 17  1  0  0  0
 17 18  1  0  0  0
 18 19  2  0  0  0
 19 20  1  0  0  0
 19  9  1  0  0  0
  1  2  1  0  0  0
  1  5  1  0  0  0
  1 21  1  0  0  0
  2  3  1  0  0  0
  2  6  2  0  0  0
  3  4  1  0  0  0
  3  7  1  0  0  0
  4  5  1  0  0  0
  7  9  1  0  0  0
  9 10  2  0  0  0
  9 11  2  0  0  0
 21 29  1  0  0  0
 22 23  2  0  0  0
 22 27  1  0  0  0
 22 30  1  0  0  0
 23 24  1  0  0  0
 23 28  1  0  0  0
 24 25  2  0  0  0
 25 26  1  0  0  0
 26 27  2  0  0  0
 28 29  2  0  0  0
 29 30  1  0  0  0
  7  8  1  0  0  0
 30 31  1  0  0  0
M  END
> <minimizedAffinity>
-7.68994

$$$$
1F0S_PR2_A_401


 31 35  0  0  0  0  0  0  0  0999 V2000
    4.3683    6.1480   21.5397 N   0  0  0  0  0  0  0  0  0  0  0  0
    5.5187    6.7071   21.0962 C   0  0  0  0  0  0  0  0  0  0  0  0
    6.1243    7.4535   22.2611 C   0  0  0  0  0  0  0  0  0  0  0  0
    4.9860    7.5836   23.2768 C   0  0  0  0  0  0  0  0  0  0  0  0
    4.0693    6.4337   22.9405 C   0  0  0  0  0  0  0  0  0  0  0  0
    5.9907    6.6151   19.9685 O   0  0  0  0  0  0  0  0  0  0  0  0
    6.5668    8.7918   21.8922 N   0  0  0  0  0  0  0  0  0  0  0  0
    6.2370    9.4260   22.6199 H   0  0  0  0  0  0  0  0  0  0  0  0
    8.1640    9.0774   21.6979 S   0  0  0  0  0  0  0  0  0  0  0  0
    8.1148   10.4812   21.4326 O   0  0  0  0  0  0  0  0  0  0  0  0
    8.5829    8.1565   20.6770 O   0  0  0  0  0  0  0  0  0  0  0  0
   10.4896    8.2912   25.0475 C   0  0  0  0  0  0  0  0  0  0  0  0
   11.4977    8.1531   26.0403 C   0  0  0  0  0  0  0  0  0  0  0  0
   11.1930    7.4411   27.2472 C   0  0  0  0  0  0  0  0  0  0  0  0
    9.8757    6.8956   27.3916 C   0  0  0  0  0  0  0  0  0  0  0  0
    8.9187    7.0449   26.4161 N   0  0  0  0  0  0  0  0  0  0  0  0
    9.2190    7.7432   25.2429 C   0  0  0  0  0  0  0  0  0  0  0  0
    8.2706    7.9402   24.1962 C   0  0  0  0  0  0  0  0  0  0  0  0
    8.9368    8.6847   23.1834 C   0  0  0  0  0  0  0  0  0  0  0  0
   10.5636    9.0621   23.5574 S   0  0  0  0  0  0  0  0  0  0  0  0
    3.4497    5.3088   20.7677 C   0  0  0  0  0  0  0  0  0  0  0  0
    5.2315    3.0782   18.4931 C   0  0  0  0  0  0  0  0  0  0  0  0
    5.6407    2.4801   19.7558 C   0  0  0  0  0  0  0  0  0  0  0  0
    6.5088    1.3482   19.7691 C   0  0  0  0  0  0  0  0  0  0  0  0
    6.9481    0.8439   18.5082 C   0  0  0  0  0  0  0  0  0  0  0  0
    6.5372    1.4376   17.3439 N   0  0  0  0  0  0  0  0  0  0  0  0
    5.7131    2.5130   17.2748 C   0  0  0  0  0  0  0  0  0  0  0  0
    5.0319    3.2192   20.7826 C   0  0  0  0  0  0  0  0  0  0  0  0
    4.2900    4.2220   20.1282 C   0  0  0  0  0  0  0  0  0  0  0  0
    4.4049    4.1399   18.7896 N   0  0  0  0  0  0  0  0  0  0  0  0
    3.9730    4.7355   18.1355 H   0  0  0  0  0  0  0  0  0  0  0  0
 12 13  1  0  0  0
 12 17  2  0  0  0
 12 20  1  0  0  0
 13 14  2  0  0  0
 14 15  1  0  0  0
 15 16  2  0  0  0
 16 17  1  0  0  0
 17 18  1  0  0  0
 18 19  2  0  0  0
 19 20  1  0  0  0
 19  9  1  0  0  0
  1  2  1  0  0  0
  1  5  1  0  0  0
  1 21  1  0  0  0
  2  3  1  0  0  0
  2  6  2  0  0  0
  3  4  1  0  0  0
  3  7  1  0  0  0
  4  5  1  0  0  0
  7  9  1  0  0  0
  9 10  2  0  0  0
  9 11  2  0  0  0
 21 29  1  0  0  0
 22 23  2  0  0  0
 22 27  1  0  0  0
 22 30  1  0  0  0
 23 24  1  0  0  0
 23 28  1  0  0  0
 24 25  2  0  0  0
 25 26  1  0  0  0
 26 27  2  0  0  0
 28 29  2  0  0  0
 29 30  1  0  0  0
  7  8  1  0  0  0
 30 31  1  0  0  0
M  END
> <minimizedAffinity>
-7.65668

$$$$
1F0S_PR2_A_401


 31 35  0  0  0  0  0  0  0  0999 V2000
    4.4117    6.6737   19.3541 N   0  0  0  0  0  0  0  0  0  0  0  0
    4.1837    5.5730   20.1083 C   0  0  0  0  0  0  0  0  0  0  0  0
    4.3732    4.3747   19.2088 C   0  0  0  0  0  0  0  0  0  0  0  0
    4.3314    4.9421   17.7872 C   0  0  0  0  0  0  0  0  0  0  0  0
    4.7433    6.3828   17.9617 C   0  0  0  0  0  0  0  0  0  0  0  0
    3.8933    5.5481   21.2990 O   0  0  0  0  0  0  0  0  0  0  0  0
    3.2974    3.4018   19.3474 N   0  0  0  0  0  0  0  0  0  0  0  0
    2.8594    3.3090   18.4310 H   0  0  0  0  0  0  0  0  0  0  0  0
    3.6505    1.8919   19.8630 S   0  0  0  0  0  0  0  0  0  0  0  0
    2.5015    1.2046   19.3623 O   0  0  0  0  0  0  0  0  0  0  0  0
    3.8617    2.0243   21.2785 O   0  0  0  0  0  0  0  0  0  0  0  0
    6.8878    0.5956   17.6078 C   0  0  0  0  0  0  0  0  0  0  0  0
    7.7956    0.1139   16.6256 C   0  0  0  0  0  0  0  0  0  0  0  0
    9.1715   -0.0758   16.9829 C   0  0  0  0  0  0  0  0  0  0  0  0
    9.5651    0.2290   18.3267 C   0  0  0  0  0  0  0  0  0  0  0  0
    8.6667    0.6951   19.2569 N   0  0  0  0  0  0  0  0  0  0  0  0
    7.3273    0.8823   18.9030 C   0  0  0  0  0  0  0  0  0  0  0  0
    6.3470    1.3693   19.8171 C   0  0  0  0  0  0  0  0  0  0  0  0
    5.1192    1.4230   19.1005 C   0  0  0  0  0  0  0  0  0  0  0  0
    5.2432    0.9074   17.4734 S   0  0  0  0  0  0  0  0  0  0  0  0
    4.3675    8.0665   19.8041 C   0  0  0  0  0  0  0  0  0  0  0  0
    6.4262    8.3908   22.8008 C   0  0  0  0  0  0  0  0  0  0  0  0
    7.4786    8.4781   21.7986 C   0  0  0  0  0  0  0  0  0  0  0  0
    8.8396    8.6382   22.1947 C   0  0  0  0  0  0  0  0  0  0  0  0
    9.1116    8.7047   23.5943 C   0  0  0  0  0  0  0  0  0  0  0  0
    8.0899    8.6191   24.5030 N   0  0  0  0  0  0  0  0  0  0  0  0
    6.7808    8.4681   24.1806 C   0  0  0  0  0  0  0  0  0  0  0  0
    6.8638    8.3768   20.5403 C   0  0  0  0  0  0  0  0  0  0  0  0
    5.4888    8.2323   20.8098 C   0  0  0  0  0  0  0  0  0  0  0  0
    5.2315    8.2415   22.1310 N   0  0  0  0  0  0  0  0  0  0  0  0
    4.3432    8.1563   22.5468 H   0  0  0  0  0  0  0  0  0  0  0  0
 12 13  1  0  0  0
 12 17  2  0  0  0
 12 20  1  0  0  0
 13 14  2  0  0  0
 14 15  1  0  0  0
 15 16  2  0  0  0
 16 17  1  0  0  0
 17 18  1  0  0  0
 18 19  2  0  0  0
 19 20  1  0  0  0
 19  9  1  0  0  0
  1  2  1  0  0  0
  1  5  1  0  0  0
  1 21  1  0  0  0
  2  3  1  0  0  0
  2  6  2  0  0  0
  3  4  1  0  0  0
  3  7  1  0  0  0
  4  5  1  0  0  0
  7  9  1  0  0  0
  9 10  2  0  0  0
  9 11  2  0  0  0
 21 29  1  0  0  0
 22 23  2  0  0  0
 22 27  1  0  0  0
 22 30  1  0  0  0
 23 24  1  0  0  0
 23 28  1  0  0  0
 24 25  2  0  0  0
 25 26  1  0  0  0
 26 27  2  0  0  0
 28 29  2  0  0  0
 29 30  1  0  0  0
  7  8  1  0  0  0
 30 31  1  0  0  0
M  END
> <minimizedAffinity>
-7.55569

$$$$
