3UBD_SL0_A_400


 41 44  0  0  0  0  0  0  0  0999 V2000
   34.4108    3.6183    8.7685 C   0  0  0  0  0  0  0  0  0  0  0  0
   35.9423    3.5244    8.7943 C   0  0  0  0  0  0  0  0  0  0  0  0
   36.6230    3.6357    7.7631 O   0  0  0  0  0  0  0  0  0  0  0  0
   33.7304    3.4996    9.9166 C   0  0  0  0  0  0  0  0  0  0  0  0
   34.3684    3.3120   11.1428 O   0  0  0  0  0  0  0  0  0  0  0  0
   35.8680    3.1943   11.2591 C   0  0  0  0  0  0  0  0  0  0  0  0
   36.3842    3.0212   12.5116 C   0  0  0  0  0  0  0  0  0  0  0  0
   37.7422    2.9191   12.6271 C   0  0  0  0  0  0  0  0  0  0  0  0
   38.2314    2.7446   13.8874 O   0  0  0  0  0  0  0  0  0  0  0  0
   38.5757    3.0270   11.5204 C   0  0  0  0  0  0  0  0  0  0  0  0
   38.0108    3.2192   10.2748 C   0  0  0  0  0  0  0  0  0  0  0  0
   36.6490    3.3173   10.1420 C   0  0  0  0  0  0  0  0  0  0  0  0
   38.8258    3.3195    9.1213 O   0  0  0  0  0  0  0  0  0  0  0  0
   37.6426    2.6753   14.6131 H   0  0  0  0  0  0  0  0  0  0  0  0
   39.7573    3.2542    9.1988 H   0  0  0  0  0  0  0  0  0  0  0  0
   32.2096    3.4964   10.0711 C   0  0  0  0  0  0  0  0  0  0  0  0
   31.6486    4.1436   11.1790 C   0  0  0  0  0  0  0  0  0  0  0  0
   30.2738    4.0997   11.3752 C   0  0  0  0  0  0  0  0  0  0  0  0
   29.4871    3.3594   10.4835 C   0  0  0  0  0  0  0  0  0  0  0  0
   28.1059    3.3022   10.6642 O   0  0  0  0  0  0  0  0  0  0  0  0
   30.0543    2.6773    9.4095 C   0  0  0  0  0  0  0  0  0  0  0  0
   31.4422    2.7215    9.2154 C   0  0  0  0  0  0  0  0  0  0  0  0
   27.7081    3.7552   11.3815 H   0  0  0  0  0  0  0  0  0  0  0  0
   33.7429    3.8004    7.5518 O   0  0  0  0  0  0  0  0  0  0  0  0
   31.7424    5.2402    6.0636 C   0  0  0  0  0  0  0  0  0  0  0  0
   33.1476    5.1318    5.6791 C   0  0  0  0  0  0  0  0  0  0  0  0
   33.4909    6.2701    4.9489 O   0  0  0  0  0  0  0  0  0  0  0  0
   31.5014    6.4316    7.0095 C   0  0  0  0  0  0  0  0  0  0  0  0
   32.4862    6.3604    8.1520 C   0  0  0  0  0  0  0  0  0  0  0  0
   32.4084    7.5944    9.0549 C   0  0  0  0  0  0  0  0  0  0  0  0
   33.7862    6.1531    7.7024 O   0  0  0  0  0  0  0  0  0  0  0  0
   34.0354    5.0285    6.9229 C   0  0  0  0  0  0  0  0  0  0  0  0
   33.3539    7.0590    5.4964 H   0  0  0  0  0  0  0  0  0  0  0  0
   30.9271    5.3582    4.9379 O   0  0  0  0  0  0  0  0  0  0  0  0
   29.5920    3.3455    5.6971 C   0  0  0  0  0  0  0  0  0  0  0  0
   30.1543    4.2611    4.5912 C   0  0  0  0  0  0  0  0  0  0  0  0
   29.8074    4.0992    3.4077 O   0  0  0  0  0  0  0  0  0  0  0  0
   30.1836    6.4523    7.4492 O   0  0  0  0  0  0  0  0  0  0  0  0
   29.3070    7.4448    7.0429 C   0  0  0  0  0  0  0  0  0  0  0  0
   28.1577    7.4941    7.5121 O   0  0  0  0  0  0  0  0  0  0  0  0
   29.8230    8.5574    6.1901 C   0  0  0  0  0  0  0  0  0  0  0  0
 35 36  1  0  0  0
 36 34  1  0  0  0
 36 37  2  0  0  0
 34 25  1  0  0  0
 25 28  1  0  0  0
 26 25  1  0  0  0
 26 32  1  0  0  0
 27 26  1  0  0  0
 28 38  1  0  0  0
 28 29  1  0  0  0
 39 41  1  0  0  0
 39 38  1  0  0  0
 40 39  2  0  0  0
 29 30  1  0  0  0
 31 29  1  0  0  0
 32 31  1  0  0  0
 32 24  1  0  0  0
 24  1  1  0  0  0
  1  2  1  0  0  0
  1  4  2  0  0  0
  2 12  1  0  0  0
  3  2  2  0  0  0
  4 16  1  0  0  0
  4  5  1  0  0  0
 16 22  2  0  0  0
 17 18  2  0  0  0
 17 16  1  0  0  0
 18 19  1  0  0  0
 19 20  1  0  0  0
 19 21  2  0  0  0
 22 21  1  0  0  0
  5  6  1  0  0  0
  6  7  1  0  0  0
  7  8  2  0  0  0
  8  9  1  0  0  0
 10  8  1  0  0  0
 11 10  2  0  0  0
 12 11  1  0  0  0
 12  6  2  0  0  0
 13 11  1  0  0  0
 27 33  1  0  0  0
 20 23  1  0  0  0
  9 14  1  0  0  0
 13 15  1  0  0  0
M  END
> <minimizedAffinity>
-10.03197

$$$$
3UBD_SL0_A_400


 41 44  0  0  0  0  0  0  0  0999 V2000
   34.2038    3.7900    8.6693 C   0  0  0  0  0  0  0  0  0  0  0  0
   35.7363    3.7197    8.6270 C   0  0  0  0  0  0  0  0  0  0  0  0
   36.3772    4.0051    7.6038 O   0  0  0  0  0  0  0  0  0  0  0  0
   33.5676    3.4789    9.8066 C   0  0  0  0  0  0  0  0  0  0  0  0
   34.2523    3.1102   10.9646 O   0  0  0  0  0  0  0  0  0  0  0  0
   35.7565    3.0016   11.0089 C   0  0  0  0  0  0  0  0  0  0  0  0
   36.3204    2.6409   12.1993 C   0  0  0  0  0  0  0  0  0  0  0  0
   37.6829    2.5454   12.2502 C   0  0  0  0  0  0  0  0  0  0  0  0
   38.2201    2.1816   13.4490 O   0  0  0  0  0  0  0  0  0  0  0  0
   38.4737    2.8420   11.1466 C   0  0  0  0  0  0  0  0  0  0  0  0
   37.8612    3.2195    9.9677 C   0  0  0  0  0  0  0  0  0  0  0  0
   36.4944    3.3138    9.8993 C   0  0  0  0  0  0  0  0  0  0  0  0
   38.6320    3.5156    8.8176 O   0  0  0  0  0  0  0  0  0  0  0  0
   37.6593    1.9879   14.1743 H   0  0  0  0  0  0  0  0  0  0  0  0
   39.5664    3.4550    8.8514 H   0  0  0  0  0  0  0  0  0  0  0  0
   32.0536    3.4248   10.0110 C   0  0  0  0  0  0  0  0  0  0  0  0
   31.4953    4.1524   11.0693 C   0  0  0  0  0  0  0  0  0  0  0  0
   30.1302    4.0683   11.3142 C   0  0  0  0  0  0  0  0  0  0  0  0
   29.3533    3.2108   10.5246 C   0  0  0  0  0  0  0  0  0  0  0  0
   27.9821    3.1117   10.7557 O   0  0  0  0  0  0  0  0  0  0  0  0
   29.9206    2.4522    9.5032 C   0  0  0  0  0  0  0  0  0  0  0  0
   31.2987    2.5373    9.2599 C   0  0  0  0  0  0  0  0  0  0  0  0
   27.5845    3.6151   11.4387 H   0  0  0  0  0  0  0  0  0  0  0  0
   33.4895    4.1512    7.5208 O   0  0  0  0  0  0  0  0  0  0  0  0
   32.3541    5.3225    5.1483 C   0  0  0  0  0  0  0  0  0  0  0  0
   33.3545    5.9657    5.9966 C   0  0  0  0  0  0  0  0  0  0  0  0
   33.1881    7.3477    5.8992 O   0  0  0  0  0  0  0  0  0  0  0  0
   30.9226    5.6066    5.6408 C   0  0  0  0  0  0  0  0  0  0  0  0
   30.8348    5.2822    7.1129 C   0  0  0  0  0  0  0  0  0  0  0  0
   29.4823    5.6815    7.7092 C   0  0  0  0  0  0  0  0  0  0  0  0
   31.8828    5.8488    7.8311 O   0  0  0  0  0  0  0  0  0  0  0  0
   33.1819    5.5260    7.4536 C   0  0  0  0  0  0  0  0  0  0  0  0
   32.2955    7.5874    6.1938 H   0  0  0  0  0  0  0  0  0  0  0  0
   32.4881    5.7346    3.8224 O   0  0  0  0  0  0  0  0  0  0  0  0
   32.2206    3.5670    2.5418 C   0  0  0  0  0  0  0  0  0  0  0  0
   33.0241    4.8268    2.9225 C   0  0  0  0  0  0  0  0  0  0  0  0
   34.0820    5.0983    2.3275 O   0  0  0  0  0  0  0  0  0  0  0  0
   29.9936    4.8989    4.8881 O   0  0  0  0  0  0  0  0  0  0  0  0
   29.0985    5.5505    4.0556 C   0  0  0  0  0  0  0  0  0  0  0  0
   28.7540    6.7187    4.3005 O   0  0  0  0  0  0  0  0  0  0  0  0
   28.7106    4.9031    2.7665 C   0  0  0  0  0  0  0  0  0  0  0  0
 35 36  1  0  0  0
 36 34  1  0  0  0
 36 37  2  0  0  0
 34 25  1  0  0  0
 25 28  1  0  0  0
 26 25  1  0  0  0
 26 32  1  0  0  0
 27 26  1  0  0  0
 28 38  1  0  0  0
 28 29  1  0  0  0
 39 41  1  0  0  0
 39 38  1  0  0  0
 40 39  2  0  0  0
 29 30  1  0  0  0
 31 29  1  0  0  0
 32 31  1  0  0  0
 32 24  1  0  0  0
 24  1  1  0  0  0
  1  2  1  0  0  0
  1  4  2  0  0  0
  2 12  1  0  0  0
  3  2  2  0  0  0
  4 16  1  0  0  0
  4  5  1  0  0  0
 16 22  2  0  0  0
 17 18  2  0  0  0
 17 16  1  0  0  0
 18 19  1  0  0  0
 19 20  1  0  0  0
 19 21  2  0  0  0
 22 21  1  0  0  0
  5  6  1  0  0  0
  6  7  1  0  0  0
  7  8  2  0  0  0
  8  9  1  0  0  0
 10  8  1  0  0  0
 11 10  2  0  0  0
 12 11  1  0  0  0
 12  6  2  0  0  0
 13 11  1  0  0  0
 27 33  1  0  0  0
 20 23  1  0  0  0
  9 14  1  0  0  0
 13 15  1  0  0  0
M  END
> <minimizedAffinity>
-9.22950

$$$$
3UBD_SL0_A_400


 41 44  0  0  0  0  0  0  0  0999 V2000
   29.7049    4.0418    9.0106 C   0  0  0  0  0  0  0  0  0  0  0  0
   28.2314    3.6813    8.7781 C   0  0  0  0  0  0  0  0  0  0  0  0
   27.5574    4.2216    7.8877 O   0  0  0  0  0  0  0  0  0  0  0  0
   30.3840    3.4171    9.9819 C   0  0  0  0  0  0  0  0  0  0  0  0
   29.8025    2.4323   10.7806 O   0  0  0  0  0  0  0  0  0  0  0  0
   28.3574    2.0255   10.6307 C   0  0  0  0  0  0  0  0  0  0  0  0
   27.8971    1.0437   11.4610 C   0  0  0  0  0  0  0  0  0  0  0  0
   26.5906    0.6648   11.3286 C   0  0  0  0  0  0  0  0  0  0  0  0
   26.1559   -0.3151   12.1706 O   0  0  0  0  0  0  0  0  0  0  0  0
   25.7663    1.2249   10.3601 C   0  0  0  0  0  0  0  0  0  0  0  0
   26.2792    2.2027    9.5303 C   0  0  0  0  0  0  0  0  0  0  0  0
   27.5868    2.5981    9.6553 C   0  0  0  0  0  0  0  0  0  0  0  0
   25.4667    2.8076    8.5411 O   0  0  0  0  0  0  0  0  0  0  0  0
   26.7367   -0.6722   12.8133 H   0  0  0  0  0  0  0  0  0  0  0  0
   24.5719    2.5463    8.4457 H   0  0  0  0  0  0  0  0  0  0  0  0
   31.8278    3.6959   10.4001 C   0  0  0  0  0  0  0  0  0  0  0  0
   32.1625    4.9863   10.8288 C   0  0  0  0  0  0  0  0  0  0  0  0
   33.4811    5.2806   11.1530 C   0  0  0  0  0  0  0  0  0  0  0  0
   34.4552    4.2872   10.9899 C   0  0  0  0  0  0  0  0  0  0  0  0
   35.7839    4.5635   11.3087 O   0  0  0  0  0  0  0  0  0  0  0  0
   34.1259    3.0187   10.5177 C   0  0  0  0  0  0  0  0  0  0  0  0
   32.7948    2.7253   10.1891 C   0  0  0  0  0  0  0  0  0  0  0  0
   36.0225    5.4117   11.6276 H   0  0  0  0  0  0  0  0  0  0  0  0
   30.3135    5.0304    8.2283 O   0  0  0  0  0  0  0  0  0  0  0  0
   31.6351    6.7781    6.3604 C   0  0  0  0  0  0  0  0  0  0  0  0
   30.6368    5.7750    5.9979 C   0  0  0  0  0  0  0  0  0  0  0  0
   30.8944    5.3524    4.6933 O   0  0  0  0  0  0  0  0  0  0  0  0
   33.0558    6.1838    6.3867 C   0  0  0  0  0  0  0  0  0  0  0  0
   33.0510    4.9333    7.2332 C   0  0  0  0  0  0  0  0  0  0  0  0
   34.3951    4.2018    7.1846 C   0  0  0  0  0  0  0  0  0  0  0  0
   32.0068    4.0805    6.8904 O   0  0  0  0  0  0  0  0  0  0  0  0
   30.7100    4.5792    6.9522 C   0  0  0  0  0  0  0  0  0  0  0  0
   31.7848    4.9703    4.6470 H   0  0  0  0  0  0  0  0  0  0  0  0
   31.5922    7.8614    5.4826 O   0  0  0  0  0  0  0  0  0  0  0  0
   29.6775    9.2332    4.5541 C   0  0  0  0  0  0  0  0  0  0  0  0
   30.6203    8.8245    5.7038 C   0  0  0  0  0  0  0  0  0  0  0  0
   30.4256    9.2524    6.8553 O   0  0  0  0  0  0  0  0  0  0  0  0
   33.9741    7.1235    6.8386 O   0  0  0  0  0  0  0  0  0  0  0  0
   34.0911    7.4222    8.1860 C   0  0  0  0  0  0  0  0  0  0  0  0
   35.1430    7.1636    8.7945 O   0  0  0  0  0  0  0  0  0  0  0  0
   33.0184    8.2292    8.8412 C   0  0  0  0  0  0  0  0  0  0  0  0
 35 36  1  0  0  0
 36 34  1  0  0  0
 36 37  2  0  0  0
 34 25  1  0  0  0
 25 28  1  0  0  0
 26 25  1  0  0  0
 26 32  1  0  0  0
 27 26  1  0  0  0
 28 38  1  0  0  0
 28 29  1  0  0  0
 39 41  1  0  0  0
 39 38  1  0  0  0
 40 39  2  0  0  0
 29 30  1  0  0  0
 31 29  1  0  0  0
 32 31  1  0  0  0
 32 24  1  0  0  0
 24  1  1  0  0  0
  1  2  1  0  0  0
  1  4  2  0  0  0
  2 12  1  0  0  0
  3  2  2  0  0  0
  4 16  1  0  0  0
  4  5  1  0  0  0
 16 22  2  0  0  0
 17 18  2  0  0  0
 17 16  1  0  0  0
 18 19  1  0  0  0
 19 20  1  0  0  0
 19 21  2  0  0  0
 22 21  1  0  0  0
  5  6  1  0  0  0
  6  7  1  0  0  0
  7  8  2  0  0  0
  8  9  1  0  0  0
 10  8  1  0  0  0
 11 10  2  0  0  0
 12 11  1  0  0  0
 12  6  2  0  0  0
 13 11  1  0  0  0
 27 33  1  0  0  0
 20 23  1  0  0  0
  9 14  1  0  0  0
 13 15  1  0  0  0
M  END
> <minimizedAffinity>
-8.43740

$$$$
3UBD_SL0_A_400


 41 44  0  0  0  0  0  0  0  0999 V2000
   32.7136    4.4147    8.8896 C   0  0  0  0  0  0  0  0  0  0  0  0
   33.5425    3.9927   10.1102 C   0  0  0  0  0  0  0  0  0  0  0  0
   33.0324    3.8553   11.2328 O   0  0  0  0  0  0  0  0  0  0  0  0
   33.3189    4.5371    7.7006 C   0  0  0  0  0  0  0  0  0  0  0  0
   34.6781    4.2750    7.5279 O   0  0  0  0  0  0  0  0  0  0  0  0
   35.5705    3.8688    8.6745 C   0  0  0  0  0  0  0  0  0  0  0  0
   36.8839    3.6285    8.3871 C   0  0  0  0  0  0  0  0  0  0  0  0
   37.6986    3.2546    9.4188 C   0  0  0  0  0  0  0  0  0  0  0  0
   39.0049    3.0230    9.1056 O   0  0  0  0  0  0  0  0  0  0  0  0
   37.2073    3.0841   10.7075 C   0  0  0  0  0  0  0  0  0  0  0  0
   35.8683    3.3215   10.9489 C   0  0  0  0  0  0  0  0  0  0  0  0
   35.0393    3.7035    9.9249 C   0  0  0  0  0  0  0  0  0  0  0  0
   35.3332    3.1728   12.2514 O   0  0  0  0  0  0  0  0  0  0  0  0
   39.3051    3.1474    8.2267 H   0  0  0  0  0  0  0  0  0  0  0  0
   35.8891    2.9123   12.9593 H   0  0  0  0  0  0  0  0  0  0  0  0
   32.6713    5.0124    6.4000 C   0  0  0  0  0  0  0  0  0  0  0  0
   32.5031    4.0893    5.3605 C   0  0  0  0  0  0  0  0  0  0  0  0
   31.9758    4.5123    4.1466 C   0  0  0  0  0  0  0  0  0  0  0  0
   31.6749    5.8698    3.9766 C   0  0  0  0  0  0  0  0  0  0  0  0
   31.1462    6.3138    2.7655 O   0  0  0  0  0  0  0  0  0  0  0  0
   31.8883    6.7936    4.9972 C   0  0  0  0  0  0  0  0  0  0  0  0
   32.4228    6.3642    6.2202 C   0  0  0  0  0  0  0  0  0  0  0  0
   30.9964    5.7057    2.0686 H   0  0  0  0  0  0  0  0  0  0  0  0
   31.3487    4.6901    9.0339 O   0  0  0  0  0  0  0  0  0  0  0  0
   28.4765    4.7092    8.8333 C   0  0  0  0  0  0  0  0  0  0  0  0
   29.2309    4.0756    9.9120 C   0  0  0  0  0  0  0  0  0  0  0  0
   28.4796    3.0072   10.4029 O   0  0  0  0  0  0  0  0  0  0  0  0
   28.2785    3.7550    7.6405 C   0  0  0  0  0  0  0  0  0  0  0  0
   29.6157    3.1743    7.2471 C   0  0  0  0  0  0  0  0  0  0  0  0
   29.4792    2.1003    6.1646 C   0  0  0  0  0  0  0  0  0  0  0  0
   30.3120    2.6864    8.3482 O   0  0  0  0  0  0  0  0  0  0  0  0
   30.5783    3.5646    9.3932 C   0  0  0  0  0  0  0  0  0  0  0  0
   28.3179    2.3706    9.6890 H   0  0  0  0  0  0  0  0  0  0  0  0
   27.2373    5.1576    9.2905 O   0  0  0  0  0  0  0  0  0  0  0  0
   25.6822    7.1081    9.7231 C   0  0  0  0  0  0  0  0  0  0  0  0
   26.8871    6.4679    9.0050 C   0  0  0  0  0  0  0  0  0  0  0  0
   27.6226    7.1594    8.2783 O   0  0  0  0  0  0  0  0  0  0  0  0
   27.6562    4.4096    6.5846 O   0  0  0  0  0  0  0  0  0  0  0  0
   26.4011    4.0257    6.1422 C   0  0  0  0  0  0  0  0  0  0  0  0
   25.9900    4.3964    5.0300 O   0  0  0  0  0  0  0  0  0  0  0  0
   25.6387    3.0103    6.9291 C   0  0  0  0  0  0  0  0  0  0  0  0
 35 36  1  0  0  0
 36 34  1  0  0  0
 36 37  2  0  0  0
 34 25  1  0  0  0
 25 28  1  0  0  0
 26 25  1  0  0  0
 26 32  1  0  0  0
 27 26  1  0  0  0
 28 38  1  0  0  0
 28 29  1  0  0  0
 39 41  1  0  0  0
 39 38  1  0  0  0
 40 39  2  0  0  0
 29 30  1  0  0  0
 31 29  1  0  0  0
 32 31  1  0  0  0
 32 24  1  0  0  0
 24  1  1  0  0  0
  1  2  1  0  0  0
  1  4  2  0  0  0
  2 12  1  0  0  0
  3  2  2  0  0  0
  4 16  1  0  0  0
  4  5  1  0  0  0
 16 22  2  0  0  0
 17 18  2  0  0  0
 17 16  1  0  0  0
 18 19  1  0  0  0
 19 20  1  0  0  0
 19 21  2  0  0  0
 22 21  1  0  0  0
  5  6  1  0  0  0
  6  7  1  0  0  0
  7  8  2  0  0  0
  8  9  1  0  0  0
 10  8  1  0  0  0
 11 10  2  0  0  0
 12 11  1  0  0  0
 12  6  2  0  0  0
 13 11  1  0  0  0
 27 33  1  0  0  0
 20 23  1  0  0  0
  9 14  1  0  0  0
 13 15  1  0  0  0
M  END
> <minimizedAffinity>
-8.21419

$$$$
3UBD_SL0_A_400


 41 44  0  0  0  0  0  0  0  0999 V2000
   29.8040    7.2532    6.6737 C   0  0  0  0  0  0  0  0  0  0  0  0
   28.7202    7.7169    5.6911 C   0  0  0  0  0  0  0  0  0  0  0  0
   27.5810    7.2255    5.6923 O   0  0  0  0  0  0  0  0  0  0  0  0
   31.0131    7.8285    6.6306 C   0  0  0  0  0  0  0  0  0  0  0  0
   31.3179    8.8519    5.7330 O   0  0  0  0  0  0  0  0  0  0  0  0
   30.3184    9.3598    4.7235 C   0  0  0  0  0  0  0  0  0  0  0  0
   30.7233   10.3718    3.9005 C   0  0  0  0  0  0  0  0  0  0  0  0
   29.8225   10.8419    2.9864 C   0  0  0  0  0  0  0  0  0  0  0  0
   30.2524   11.8502    2.1760 O   0  0  0  0  0  0  0  0  0  0  0  0
   28.5279   10.3414    2.9183 C   0  0  0  0  0  0  0  0  0  0  0  0
   28.1564    9.3298    3.7821 C   0  0  0  0  0  0  0  0  0  0  0  0
   29.0513    8.8430    4.7008 C   0  0  0  0  0  0  0  0  0  0  0  0
   26.8510    8.7837    3.7337 O   0  0  0  0  0  0  0  0  0  0  0  0
   31.1319   12.1655    2.2467 H   0  0  0  0  0  0  0  0  0  0  0  0
   26.2305    9.1076    3.1107 H   0  0  0  0  0  0  0  0  0  0  0  0
   32.2270    7.4484    7.4785 C   0  0  0  0  0  0  0  0  0  0  0  0
   33.1990    6.6110    6.9173 C   0  0  0  0  0  0  0  0  0  0  0  0
   34.2786    6.2001    7.6894 C   0  0  0  0  0  0  0  0  0  0  0  0
   34.3377    6.5935    9.0325 C   0  0  0  0  0  0  0  0  0  0  0  0
   35.4123    6.1905    9.8239 O   0  0  0  0  0  0  0  0  0  0  0  0
   33.3439    7.3875    9.6004 C   0  0  0  0  0  0  0  0  0  0  0  0
   32.2545    7.7986    8.8195 C   0  0  0  0  0  0  0  0  0  0  0  0
   36.0894    5.6562    9.4576 H   0  0  0  0  0  0  0  0  0  0  0  0
   29.5287    6.2240    7.5818 O   0  0  0  0  0  0  0  0  0  0  0  0
   29.6707    3.9067    9.2848 C   0  0  0  0  0  0  0  0  0  0  0  0
   30.4955    4.1185    8.0978 C   0  0  0  0  0  0  0  0  0  0  0  0
   30.8318    2.8714    7.5700 O   0  0  0  0  0  0  0  0  0  0  0  0
   28.3337    3.2269    8.9349 C   0  0  0  0  0  0  0  0  0  0  0  0
   27.6737    3.9878    7.8100 C   0  0  0  0  0  0  0  0  0  0  0  0
   26.4111    3.2849    7.3044 C   0  0  0  0  0  0  0  0  0  0  0  0
   28.5578    4.2365    6.7651 O   0  0  0  0  0  0  0  0  0  0  0  0
   29.7275    4.9321    7.0518 C   0  0  0  0  0  0  0  0  0  0  0  0
   30.0227    2.3914    7.3339 H   0  0  0  0  0  0  0  0  0  0  0  0
   30.3531    3.1464   10.2346 O   0  0  0  0  0  0  0  0  0  0  0  0
   32.6335    3.9712   10.9624 C   0  0  0  0  0  0  0  0  0  0  0  0
   31.1127    3.8281   11.1725 C   0  0  0  0  0  0  0  0  0  0  0  0
   30.5492    4.4333   12.1016 O   0  0  0  0  0  0  0  0  0  0  0  0
   27.5202    3.1338   10.0576 O   0  0  0  0  0  0  0  0  0  0  0  0
   27.1542    1.9037   10.5785 C   0  0  0  0  0  0  0  0  0  0  0  0
   27.8815    1.3358   11.4104 O   0  0  0  0  0  0  0  0  0  0  0  0
   25.7925    1.3692   10.2761 C   0  0  0  0  0  0  0  0  0  0  0  0
 35 36  1  0  0  0
 36 34  1  0  0  0
 36 37  2  0  0  0
 34 25  1  0  0  0
 25 28  1  0  0  0
 26 25  1  0  0  0
 26 32  1  0  0  0
 27 26  1  0  0  0
 28 38  1  0  0  0
 28 29  1  0  0  0
 39 41  1  0  0  0
 39 38  1  0  0  0
 40 39  2  0  0  0
 29 30  1  0  0  0
 31 29  1  0  0  0
 32 31  1  0  0  0
 32 24  1  0  0  0
 24  1  1  0  0  0
  1  2  1  0  0  0
  1  4  2  0  0  0
  2 12  1  0  0  0
  3  2  2  0  0  0
  4 16  1  0  0  0
  4  5  1  0  0  0
 16 22  2  0  0  0
 17 18  2  0  0  0
 17 16  1  0  0  0
 18 19  1  0  0  0
 19 20  1  0  0  0
 19 21  2  0  0  0
 22 21  1  0  0  0
  5  6  1  0  0  0
  6  7  1  0  0  0
  7  8  2  0  0  0
  8  9  1  0  0  0
 10  8  1  0  0  0
 11 10  2  0  0  0
 12 11  1  0  0  0
 12  6  2  0  0  0
 13 11  1  0  0  0
 27 33  1  0  0  0
 20 23  1  0  0  0
  9 14  1  0  0  0
 13 15  1  0  0  0
M  END
> <minimizedAffinity>
-8.04126

$$$$
3UBD_SL0_A_400


 41 44  0  0  0  0  0  0  0  0999 V2000
   29.6309    7.2917    6.7494 C   0  0  0  0  0  0  0  0  0  0  0  0
   28.6086    7.7382    5.6954 C   0  0  0  0  0  0  0  0  0  0  0  0
   27.4693    7.2504    5.6398 O   0  0  0  0  0  0  0  0  0  0  0  0
   30.8429    7.8623    6.7656 C   0  0  0  0  0  0  0  0  0  0  0  0
   31.2042    8.8659    5.8667 O   0  0  0  0  0  0  0  0  0  0  0  0
   30.2679    9.3558    4.7899 C   0  0  0  0  0  0  0  0  0  0  0  0
   30.7247   10.3492    3.9715 C   0  0  0  0  0  0  0  0  0  0  0  0
   29.8811   10.8031    2.9966 C   0  0  0  0  0  0  0  0  0  0  0  0
   30.3621   11.7929    2.1923 O   0  0  0  0  0  0  0  0  0  0  0  0
   28.5906   10.3051    2.8628 C   0  0  0  0  0  0  0  0  0  0  0  0
   28.1648    9.3128    3.7239 C   0  0  0  0  0  0  0  0  0  0  0  0
   29.0021    8.8425    4.7034 C   0  0  0  0  0  0  0  0  0  0  0  0
   26.8621    8.7698    3.6101 O   0  0  0  0  0  0  0  0  0  0  0  0
   31.2373   12.1069    2.3081 H   0  0  0  0  0  0  0  0  0  0  0  0
   26.2806    9.0825    2.9452 H   0  0  0  0  0  0  0  0  0  0  0  0
   32.0033    7.4962    7.6910 C   0  0  0  0  0  0  0  0  0  0  0  0
   31.7487    7.3610    9.0614 C   0  0  0  0  0  0  0  0  0  0  0  0
   32.7988    7.0918    9.9306 C   0  0  0  0  0  0  0  0  0  0  0  0
   34.0995    7.0158    9.4162 C   0  0  0  0  0  0  0  0  0  0  0  0
   35.1665    6.7478   10.2725 O   0  0  0  0  0  0  0  0  0  0  0  0
   34.3548    7.1983    8.0590 C   0  0  0  0  0  0  0  0  0  0  0  0
   33.2935    7.4722    7.1846 C   0  0  0  0  0  0  0  0  0  0  0  0
   35.0122    6.6225   11.1881 H   0  0  0  0  0  0  0  0  0  0  0  0
   29.2984    6.2824    7.6607 O   0  0  0  0  0  0  0  0  0  0  0  0
   30.8200    3.8386    7.7138 C   0  0  0  0  0  0  0  0  0  0  0  0
   30.0362    4.3060    6.5730 C   0  0  0  0  0  0  0  0  0  0  0  0
   29.6128    3.1922    5.8470 O   0  0  0  0  0  0  0  0  0  0  0  0
   29.9663    3.0051    8.6878 C   0  0  0  0  0  0  0  0  0  0  0  0
   28.7141    3.7767    9.0294 C   0  0  0  0  0  0  0  0  0  0  0  0
   27.7426    2.9493    9.8754 C   0  0  0  0  0  0  0  0  0  0  0  0
   28.0859    4.2734    7.8920 O   0  0  0  0  0  0  0  0  0  0  0  0
   28.8196    5.1039    7.0515 C   0  0  0  0  0  0  0  0  0  0  0  0
   29.0702    2.6231    6.4150 H   0  0  0  0  0  0  0  0  0  0  0  0
   31.9182    3.0907    7.2890 O   0  0  0  0  0  0  0  0  0  0  0  0
   34.3157    3.8136    7.6626 C   0  0  0  0  0  0  0  0  0  0  0  0
   33.0228    3.7862    6.8228 C   0  0  0  0  0  0  0  0  0  0  0  0
   33.0109    4.2671    5.6758 O   0  0  0  0  0  0  0  0  0  0  0  0
   30.7002    2.6633    9.8170 O   0  0  0  0  0  0  0  0  0  0  0  0
   31.3421    3.6288   10.5750 C   0  0  0  0  0  0  0  0  0  0  0  0
   30.6803    4.4657   11.2115 O   0  0  0  0  0  0  0  0  0  0  0  0
   32.8196    3.5277   10.7698 C   0  0  0  0  0  0  0  0  0  0  0  0
 35 36  1  0  0  0
 36 34  1  0  0  0
 36 37  2  0  0  0
 34 25  1  0  0  0
 25 28  1  0  0  0
 26 25  1  0  0  0
 26 32  1  0  0  0
 27 26  1  0  0  0
 28 38  1  0  0  0
 28 29  1  0  0  0
 39 41  1  0  0  0
 39 38  1  0  0  0
 40 39  2  0  0  0
 29 30  1  0  0  0
 31 29  1  0  0  0
 32 31  1  0  0  0
 32 24  1  0  0  0
 24  1  1  0  0  0
  1  2  1  0  0  0
  1  4  2  0  0  0
  2 12  1  0  0  0
  3  2  2  0  0  0
  4 16  1  0  0  0
  4  5  1  0  0  0
 16 22  2  0  0  0
 17 18  2  0  0  0
 17 16  1  0  0  0
 18 19  1  0  0  0
 19 20  1  0  0  0
 19 21  2  0  0  0
 22 21  1  0  0  0
  5  6  1  0  0  0
  6  7  1  0  0  0
  7  8  2  0  0  0
  8  9  1  0  0  0
 10  8  1  0  0  0
 11 10  2  0  0  0
 12 11  1  0  0  0
 12  6  2  0  0  0
 13 11  1  0  0  0
 27 33  1  0  0  0
 20 23  1  0  0  0
  9 14  1  0  0  0
 13 15  1  0  0  0
M  END
> <minimizedAffinity>
-7.92738

$$$$
3UBD_SL0_A_400


 41 44  0  0  0  0  0  0  0  0999 V2000
   32.0522    5.0980    5.8702 C   0  0  0  0  0  0  0  0  0  0  0  0
   32.5969    5.7211    4.5778 C   0  0  0  0  0  0  0  0  0  0  0  0
   33.8106    5.7415    4.3212 O   0  0  0  0  0  0  0  0  0  0  0  0
   30.7302    5.0973    6.0874 C   0  0  0  0  0  0  0  0  0  0  0  0
   29.8254    5.6281    5.1678 O   0  0  0  0  0  0  0  0  0  0  0  0
   30.2736    6.2721    3.8791 C   0  0  0  0  0  0  0  0  0  0  0  0
   29.2995    6.7498    3.0496 C   0  0  0  0  0  0  0  0  0  0  0  0
   29.6961    7.3300    1.8773 C   0  0  0  0  0  0  0  0  0  0  0  0
   28.7046    7.8004    1.0687 O   0  0  0  0  0  0  0  0  0  0  0  0
   31.0366    7.3984    1.5175 C   0  0  0  0  0  0  0  0  0  0  0  0
   31.9867    6.8867    2.3796 C   0  0  0  0  0  0  0  0  0  0  0  0
   31.6046    6.3071    3.5627 C   0  0  0  0  0  0  0  0  0  0  0  0
   33.3634    6.9508    2.0552 O   0  0  0  0  0  0  0  0  0  0  0  0
   27.8100    7.7394    1.3404 H   0  0  0  0  0  0  0  0  0  0  0  0
   33.6372    7.3441    1.2500 H   0  0  0  0  0  0  0  0  0  0  0  0
   30.0192    4.5881    7.3412 C   0  0  0  0  0  0  0  0  0  0  0  0
   30.0815    3.2207    7.6365 C   0  0  0  0  0  0  0  0  0  0  0  0
   29.3904    2.7243    8.7349 C   0  0  0  0  0  0  0  0  0  0  0  0
   28.6020    3.6016    9.4904 C   0  0  0  0  0  0  0  0  0  0  0  0
   27.9001    3.1224   10.5955 O   0  0  0  0  0  0  0  0  0  0  0  0
   28.5046    4.9527    9.1652 C   0  0  0  0  0  0  0  0  0  0  0  0
   29.2012    5.4503    8.0548 C   0  0  0  0  0  0  0  0  0  0  0  0
   27.9546    2.2164   10.8282 H   0  0  0  0  0  0  0  0  0  0  0  0
   32.9368    4.5631    6.8141 O   0  0  0  0  0  0  0  0  0  0  0  0
   33.3667    4.6046    9.6608 C   0  0  0  0  0  0  0  0  0  0  0  0
   33.2236    5.7932    8.8237 C   0  0  0  0  0  0  0  0  0  0  0  0
   33.9373    6.8351    9.4169 O   0  0  0  0  0  0  0  0  0  0  0  0
   34.8293    4.1258    9.7243 C   0  0  0  0  0  0  0  0  0  0  0  0
   35.3686    4.0024    8.3192 C   0  0  0  0  0  0  0  0  0  0  0  0
   36.8643    3.6758    8.3049 C   0  0  0  0  0  0  0  0  0  0  0  0
   35.0988    5.1365    7.5601 O   0  0  0  0  0  0  0  0  0  0  0  0
   33.7713    5.5262    7.4185 C   0  0  0  0  0  0  0  0  0  0  0  0
   34.8723    6.5869    9.4885 H   0  0  0  0  0  0  0  0  0  0  0  0
   32.8918    4.8449   10.9501 O   0  0  0  0  0  0  0  0  0  0  0  0
   30.8563    4.5772   12.4317 C   0  0  0  0  0  0  0  0  0  0  0  0
   31.8811    4.0222   11.4221 C   0  0  0  0  0  0  0  0  0  0  0  0
   31.7254    2.8905   10.9299 O   0  0  0  0  0  0  0  0  0  0  0  0
   34.9271    2.9351   10.4336 O   0  0  0  0  0  0  0  0  0  0  0  0
   35.7675    2.8190   11.5284 C   0  0  0  0  0  0  0  0  0  0  0  0
   36.6706    1.9658   11.5354 O   0  0  0  0  0  0  0  0  0  0  0  0
   35.6970    3.8529   12.6042 C   0  0  0  0  0  0  0  0  0  0  0  0
 35 36  1  0  0  0
 36 34  1  0  0  0
 36 37  2  0  0  0
 34 25  1  0  0  0
 25 28  1  0  0  0
 26 25  1  0  0  0
 26 32  1  0  0  0
 27 26  1  0  0  0
 28 38  1  0  0  0
 28 29  1  0  0  0
 39 41  1  0  0  0
 39 38  1  0  0  0
 40 39  2  0  0  0
 29 30  1  0  0  0
 31 29  1  0  0  0
 32 31  1  0  0  0
 32 24  1  0  0  0
 24  1  1  0  0  0
  1  2  1  0  0  0
  1  4  2  0  0  0
  2 12  1  0  0  0
  3  2  2  0  0  0
  4 16  1  0  0  0
  4  5  1  0  0  0
 16 22  2  0  0  0
 17 18  2  0  0  0
 17 16  1  0  0  0
 18 19  1  0  0  0
 19 20  1  0  0  0
 19 21  2  0  0  0
 22 21  1  0  0  0
  5  6  1  0  0  0
  6  7  1  0  0  0
  7  8  2  0  0  0
  8  9  1  0  0  0
 10  8  1  0  0  0
 11 10  2  0  0  0
 12 11  1  0  0  0
 12  6  2  0  0  0
 13 11  1  0  0  0
 27 33  1  0  0  0
 20 23  1  0  0  0
  9 14  1  0  0  0
 13 15  1  0  0  0
M  END
> <minimizedAffinity>
-7.44006

$$$$
3UBD_SL0_A_400


 41 44  0  0  0  0  0  0  0  0999 V2000
   29.4579    8.6402    4.8872 C   0  0  0  0  0  0  0  0  0  0  0  0
   29.8849    9.7497    3.9167 C   0  0  0  0  0  0  0  0  0  0  0  0
   31.0791   10.0076    3.7009 O   0  0  0  0  0  0  0  0  0  0  0  0
   28.1526    8.4017    5.0720 C   0  0  0  0  0  0  0  0  0  0  0  0
   27.1634    9.1162    4.3962 O   0  0  0  0  0  0  0  0  0  0  0  0
   27.4921   10.2320    3.4354 C   0  0  0  0  0  0  0  0  0  0  0  0
   26.4431   10.8566    2.8232 C   0  0  0  0  0  0  0  0  0  0  0  0
   26.7318   11.8650    1.9470 C   0  0  0  0  0  0  0  0  0  0  0  0
   25.6671   12.4732    1.3515 O   0  0  0  0  0  0  0  0  0  0  0  0
   28.0431   12.2200    1.6543 C   0  0  0  0  0  0  0  0  0  0  0  0
   29.0733   11.5494    2.2840 C   0  0  0  0  0  0  0  0  0  0  0  0
   28.7993   10.5393    3.1708 C   0  0  0  0  0  0  0  0  0  0  0  0
   30.4222   11.8919    2.0231 O   0  0  0  0  0  0  0  0  0  0  0  0
   24.7947   12.2107    1.5708 H   0  0  0  0  0  0  0  0  0  0  0  0
   30.6225   12.5800    1.4194 H   0  0  0  0  0  0  0  0  0  0  0  0
   27.5461    7.3915    6.0459 C   0  0  0  0  0  0  0  0  0  0  0  0
   26.6406    6.4453    5.5502 C   0  0  0  0  0  0  0  0  0  0  0  0
   26.0277    5.5580    6.4264 C   0  0  0  0  0  0  0  0  0  0  0  0
   26.2931    5.6700    7.7972 C   0  0  0  0  0  0  0  0  0  0  0  0
   25.6869    4.7898    8.6924 O   0  0  0  0  0  0  0  0  0  0  0  0
   27.1580    6.6436    8.2917 C   0  0  0  0  0  0  0  0  0  0  0  0
   27.7732    7.5390    7.4054 C   0  0  0  0  0  0  0  0  0  0  0  0
   25.1025    4.1290    8.3765 H   0  0  0  0  0  0  0  0  0  0  0  0
   30.4285    7.9106    5.5839 O   0  0  0  0  0  0  0  0  0  0  0  0
   32.4872    6.2186    6.6745 C   0  0  0  0  0  0  0  0  0  0  0  0
   32.3821    6.6001    5.2682 C   0  0  0  0  0  0  0  0  0  0  0  0
   32.9473    5.5848    4.4957 O   0  0  0  0  0  0  0  0  0  0  0  0
   31.6664    4.9525    6.9837 C   0  0  0  0  0  0  0  0  0  0  0  0
   30.2616    5.1365    6.4613 C   0  0  0  0  0  0  0  0  0  0  0  0
   29.4267    3.8603    6.5973 C   0  0  0  0  0  0  0  0  0  0  0  0
   30.2538    5.5996    5.1496 O   0  0  0  0  0  0  0  0  0  0  0  0
   30.9144    6.7923    4.8749 C   0  0  0  0  0  0  0  0  0  0  0  0
   32.4706    4.7549    4.6537 H   0  0  0  0  0  0  0  0  0  0  0  0
   33.8192    6.0184    7.0367 O   0  0  0  0  0  0  0  0  0  0  0  0
   34.8044    6.4141    9.3352 C   0  0  0  0  0  0  0  0  0  0  0  0
   34.3766    6.9104    7.9394 C   0  0  0  0  0  0  0  0  0  0  0  0
   34.6525    8.0670    7.5745 O   0  0  0  0  0  0  0  0  0  0  0  0
   31.6909    4.6700    8.3439 O   0  0  0  0  0  0  0  0  0  0  0  0
   32.2325    3.4881    8.8216 C   0  0  0  0  0  0  0  0  0  0  0  0
   33.4605    3.3032    8.7842 O   0  0  0  0  0  0  0  0  0  0  0  0
   31.3469    2.5332    9.5532 C   0  0  0  0  0  0  0  0  0  0  0  0
 35 36  1  0  0  0
 36 34  1  0  0  0
 36 37  2  0  0  0
 34 25  1  0  0  0
 25 28  1  0  0  0
 26 25  1  0  0  0
 26 32  1  0  0  0
 27 26  1  0  0  0
 28 38  1  0  0  0
 28 29  1  0  0  0
 39 41  1  0  0  0
 39 38  1  0  0  0
 40 39  2  0  0  0
 29 30  1  0  0  0
 31 29  1  0  0  0
 32 31  1  0  0  0
 32 24  1  0  0  0
 24  1  1  0  0  0
  1  2  1  0  0  0
  1  4  2  0  0  0
  2 12  1  0  0  0
  3  2  2  0  0  0
  4 16  1  0  0  0
  4  5  1  0  0  0
 16 22  2  0  0  0
 17 18  2  0  0  0
 17 16  1  0  0  0
 18 19  1  0  0  0
 19 20  1  0  0  0
 19 21  2  0  0  0
 22 21  1  0  0  0
  5  6  1  0  0  0
  6  7  1  0  0  0
  7  8  2  0  0  0
  8  9  1  0  0  0
 10  8  1  0  0  0
 11 10  2  0  0  0
 12 11  1  0  0  0
 12  6  2  0  0  0
 13 11  1  0  0  0
 27 33  1  0  0  0
 20 23  1  0  0  0
  9 14  1  0  0  0
 13 15  1  0  0  0
M  END
> <minimizedAffinity>
-7.36732

$$$$
3UBD_SL0_A_400


 41 44  0  0  0  0  0  0  0  0999 V2000
   29.1067    8.2822    5.3832 C   0  0  0  0  0  0  0  0  0  0  0  0
   29.9021    9.3226    4.5831 C   0  0  0  0  0  0  0  0  0  0  0  0
   31.1168    9.4993    4.7636 O   0  0  0  0  0  0  0  0  0  0  0  0
   27.7987    8.1303    5.1367 C   0  0  0  0  0  0  0  0  0  0  0  0
   27.1347    8.8739    4.1610 O   0  0  0  0  0  0  0  0  0  0  0  0
   27.8347    9.9269    3.3379 C   0  0  0  0  0  0  0  0  0  0  0  0
   27.0874   10.5871    2.4047 C   0  0  0  0  0  0  0  0  0  0  0  0
   27.7146   11.5389    1.6506 C   0  0  0  0  0  0  0  0  0  0  0  0
   26.9459   12.1844    0.7283 O   0  0  0  0  0  0  0  0  0  0  0  0
   29.0715   11.8022    1.7947 C   0  0  0  0  0  0  0  0  0  0  0  0
   29.7921   11.0980    2.7394 C   0  0  0  0  0  0  0  0  0  0  0  0
   29.1752   10.1440    3.5082 C   0  0  0  0  0  0  0  0  0  0  0  0
   31.1732   11.3479    2.9260 O   0  0  0  0  0  0  0  0  0  0  0  0
   26.0335   11.9840    0.6562 H   0  0  0  0  0  0  0  0  0  0  0  0
   31.6062   11.9969    2.4071 H   0  0  0  0  0  0  0  0  0  0  0  0
   26.8398    7.1997    5.8794 C   0  0  0  0  0  0  0  0  0  0  0  0
   26.5872    7.4434    7.2350 C   0  0  0  0  0  0  0  0  0  0  0  0
   25.7698    6.5744    7.9472 C   0  0  0  0  0  0  0  0  0  0  0  0
   25.2610    5.4414    7.2994 C   0  0  0  0  0  0  0  0  0  0  0  0
   24.4400    4.5569    7.9974 O   0  0  0  0  0  0  0  0  0  0  0  0
   25.5534    5.1769    5.9634 C   0  0  0  0  0  0  0  0  0  0  0  0
   26.3805    6.0543    5.2479 C   0  0  0  0  0  0  0  0  0  0  0  0
   24.2333    4.7199    8.8966 H   0  0  0  0  0  0  0  0  0  0  0  0
   29.7452    7.5255    6.3728 O   0  0  0  0  0  0  0  0  0  0  0  0
   31.5788    5.9963    7.9821 C   0  0  0  0  0  0  0  0  0  0  0  0
   31.7205    6.2207    6.5455 C   0  0  0  0  0  0  0  0  0  0  0  0
   32.4084    5.1369    5.9987 O   0  0  0  0  0  0  0  0  0  0  0  0
   30.7134    4.7580    8.2820 C   0  0  0  0  0  0  0  0  0  0  0  0
   29.4211    4.8609    7.5078 C   0  0  0  0  0  0  0  0  0  0  0  0
   28.5719    3.5935    7.6369 C   0  0  0  0  0  0  0  0  0  0  0  0
   29.6424    5.1785    6.1716 O   0  0  0  0  0  0  0  0  0  0  0  0
   30.3438    6.3449    5.8858 C   0  0  0  0  0  0  0  0  0  0  0  0
   31.9094    4.3214    6.1623 H   0  0  0  0  0  0  0  0  0  0  0  0
   32.8272    5.8586    8.5888 O   0  0  0  0  0  0  0  0  0  0  0  0
   34.5479    6.6937   10.2477 C   0  0  0  0  0  0  0  0  0  0  0  0
   33.1919    6.8146    9.5239 C   0  0  0  0  0  0  0  0  0  0  0  0
   32.4902    7.8306    9.6741 O   0  0  0  0  0  0  0  0  0  0  0  0
   30.5007    4.6255    9.6487 O   0  0  0  0  0  0  0  0  0  0  0  0
   31.1922    3.6853   10.3947 C   0  0  0  0  0  0  0  0  0  0  0  0
   31.5241    2.6028    9.8834 O   0  0  0  0  0  0  0  0  0  0  0  0
   31.6981    4.0685   11.7470 C   0  0  0  0  0  0  0  0  0  0  0  0
 35 36  1  0  0  0
 36 34  1  0  0  0
 36 37  2  0  0  0
 34 25  1  0  0  0
 25 28  1  0  0  0
 26 25  1  0  0  0
 26 32  1  0  0  0
 27 26  1  0  0  0
 28 38  1  0  0  0
 28 29  1  0  0  0
 39 41  1  0  0  0
 39 38  1  0  0  0
 40 39  2  0  0  0
 29 30  1  0  0  0
 31 29  1  0  0  0
 32 31  1  0  0  0
 32 24  1  0  0  0
 24  1  1  0  0  0
  1  2  1  0  0  0
  1  4  2  0  0  0
  2 12  1  0  0  0
  3  2  2  0  0  0
  4 16  1  0  0  0
  4  5  1  0  0  0
 16 22  2  0  0  0
 17 18  2  0  0  0
 17 16  1  0  0  0
 18 19  1  0  0  0
 19 20  1  0  0  0
 19 21  2  0  0  0
 22 21  1  0  0  0
  5  6  1  0  0  0
  6  7  1  0  0  0
  7  8  2  0  0  0
  8  9  1  0  0  0
 10  8  1  0  0  0
 11 10  2  0  0  0
 12 11  1  0  0  0
 12  6  2  0  0  0
 13 11  1  0  0  0
 27 33  1  0  0  0
 20 23  1  0  0  0
  9 14  1  0  0  0
 13 15  1  0  0  0
M  END
> <minimizedAffinity>
-7.33218

$$$$
3UBD_SL0_A_400


 41 44  0  0  0  0  0  0  0  0999 V2000
   29.8313    4.0764    9.0348 C   0  0  0  0  0  0  0  0  0  0  0  0
   28.3552    3.7573    8.7617 C   0  0  0  0  0  0  0  0  0  0  0  0
   27.7194    4.3212    7.8578 O   0  0  0  0  0  0  0  0  0  0  0  0
   30.4678    3.4275   10.0190 C   0  0  0  0  0  0  0  0  0  0  0  0
   29.8393    2.4539   10.7955 O   0  0  0  0  0  0  0  0  0  0  0  0
   28.3882    2.0872   10.6054 C   0  0  0  0  0  0  0  0  0  0  0  0
   27.8802    1.1131   11.4167 C   0  0  0  0  0  0  0  0  0  0  0  0
   26.5678    0.7706   11.2478 C   0  0  0  0  0  0  0  0  0  0  0  0
   26.0851   -0.2024   12.0715 O   0  0  0  0  0  0  0  0  0  0  0  0
   25.7845    1.3588   10.2622 C   0  0  0  0  0  0  0  0  0  0  0  0
   26.3449    2.3275    9.4528 C   0  0  0  0  0  0  0  0  0  0  0  0
   27.6590    2.6865    9.6144 C   0  0  0  0  0  0  0  0  0  0  0  0
   25.5751    2.9603    8.4470 O   0  0  0  0  0  0  0  0  0  0  0  0
   26.6391   -0.5792   12.7265 H   0  0  0  0  0  0  0  0  0  0  0  0
   24.6764    2.7239    8.3266 H   0  0  0  0  0  0  0  0  0  0  0  0
   31.9071    3.6645   10.4765 C   0  0  0  0  0  0  0  0  0  0  0  0
   32.9168    2.8431    9.9599 C   0  0  0  0  0  0  0  0  0  0  0  0
   34.2227    2.9973   10.4087 C   0  0  0  0  0  0  0  0  0  0  0  0
   34.4861    3.9396   11.4111 C   0  0  0  0  0  0  0  0  0  0  0  0
   35.7897    4.1082   11.8755 O   0  0  0  0  0  0  0  0  0  0  0  0
   33.4707    4.7218   11.9567 C   0  0  0  0  0  0  0  0  0  0  0  0
   32.1535    4.5623   11.5035 C   0  0  0  0  0  0  0  0  0  0  0  0
   36.4846    3.5902   11.5193 H   0  0  0  0  0  0  0  0  0  0  0  0
   30.4865    5.0530    8.2754 O   0  0  0  0  0  0  0  0  0  0  0  0
   30.6318    5.7814    5.4936 C   0  0  0  0  0  0  0  0  0  0  0  0
   30.9025    4.4453    6.0190 C   0  0  0  0  0  0  0  0  0  0  0  0
   31.8133    3.8168    5.1691 O   0  0  0  0  0  0  0  0  0  0  0  0
   31.8936    6.6646    5.5069 C   0  0  0  0  0  0  0  0  0  0  0  0
   32.5126    6.6185    6.8835 C   0  0  0  0  0  0  0  0  0  0  0  0
   33.8554    7.3523    6.9342 C   0  0  0  0  0  0  0  0  0  0  0  0
   32.6395    5.3142    7.3503 O   0  0  0  0  0  0  0  0  0  0  0  0
   31.4901    4.5352    7.4305 C   0  0  0  0  0  0  0  0  0  0  0  0
   32.6327    4.3346    5.1335 H   0  0  0  0  0  0  0  0  0  0  0  0
   30.1178    5.7112    4.1988 O   0  0  0  0  0  0  0  0  0  0  0  0
   27.6437    5.8799    4.7092 C   0  0  0  0  0  0  0  0  0  0  0  0
   28.8465    5.1810    4.0442 C   0  0  0  0  0  0  0  0  0  0  0  0
   28.6649    4.2294    3.2640 O   0  0  0  0  0  0  0  0  0  0  0  0
   31.5915    7.9606    5.1073 O   0  0  0  0  0  0  0  0  0  0  0  0
   30.5146    8.6450    5.6461 C   0  0  0  0  0  0  0  0  0  0  0  0
   30.5441    9.0255    6.8284 O   0  0  0  0  0  0  0  0  0  0  0  0
   29.4130    9.0851    4.7384 C   0  0  0  0  0  0  0  0  0  0  0  0
 35 36  1  0  0  0
 36 34  1  0  0  0
 36 37  2  0  0  0
 34 25  1  0  0  0
 25 28  1  0  0  0
 26 25  1  0  0  0
 26 32  1  0  0  0
 27 26  1  0  0  0
 28 38  1  0  0  0
 28 29  1  0  0  0
 39 41  1  0  0  0
 39 38  1  0  0  0
 40 39  2  0  0  0
 29 30  1  0  0  0
 31 29  1  0  0  0
 32 31  1  0  0  0
 32 24  1  0  0  0
 24  1  1  0  0  0
  1  2  1  0  0  0
  1  4  2  0  0  0
  2 12  1  0  0  0
  3  2  2  0  0  0
  4 16  1  0  0  0
  4  5  1  0  0  0
 16 22  2  0  0  0
 17 18  2  0  0  0
 17 16  1  0  0  0
 18 19  1  0  0  0
 19 20  1  0  0  0
 19 21  2  0  0  0
 22 21  1  0  0  0
  5  6  1  0  0  0
  6  7  1  0  0  0
  7  8  2  0  0  0
  8  9  1  0  0  0
 10  8  1  0  0  0
 11 10  2  0  0  0
 12 11  1  0  0  0
 12  6  2  0  0  0
 13 11  1  0  0  0
 27 33  1  0  0  0
 20 23  1  0  0  0
  9 14  1  0  0  0
 13 15  1  0  0  0
M  END
> <minimizedAffinity>
-7.24301

$$$$
