6C0S_EEJ_A_301


 48 52  0  0  0  0  0  0  0  0999 V2000
   40.1172  -21.0729   29.3733 C   0  0  0  0  0  0  0  0  0  0  0  0
   42.5418  -21.1667   30.0390 C   0  0  0  0  0  0  0  0  0  0  0  0
   45.7544  -21.2417   27.6299 Cl  0  0  0  0  0  0  0  0  0  0  0  0
   41.5868  -20.9258   29.0571 C   0  0  0  0  0  0  0  0  0  0  0  0
   41.9220  -20.7088   27.7845 N   0  0  0  0  0  0  0  0  0  0  0  0
   43.2063  -20.7829   27.4131 N   0  0  0  0  0  0  0  0  0  0  0  0
   44.1503  -21.0589   28.2883 C   0  0  0  0  0  0  0  0  0  0  0  0
   43.8826  -21.2517   29.6617 C   0  0  0  0  0  0  0  0  0  0  0  0
   44.7633  -22.7221   31.5129 C   0  0  0  0  0  0  0  0  0  0  0  0
   45.9901  -20.7498   30.9457 C   0  0  0  0  0  0  0  0  0  0  0  0
   46.9237  -21.0423   31.9273 C   0  0  0  0  0  0  0  0  0  0  0  0
   46.7673  -22.1661   32.7395 C   0  0  0  0  0  0  0  0  0  0  0  0
   44.8880  -21.5810   30.7171 C   0  0  0  0  0  0  0  0  0  0  0  0
   45.6703  -23.0015   32.5240 C   0  0  0  0  0  0  0  0  0  0  0  0
   49.0193  -22.8004   33.6666 C   0  0  0  0  0  0  0  0  0  0  0  0
   47.7324  -22.3572   33.7789 N   0  0  0  0  0  0  0  0  0  0  0  0
   49.5715  -23.1615   32.6478 O   0  0  0  0  0  0  0  0  0  0  0  0
   47.4301  -22.1419   34.6908 H   0  0  0  0  0  0  0  0  0  0  0  0
   49.6033  -22.8011   34.8772 O   0  0  0  0  0  0  0  0  0  0  0  0
   50.5204  -21.7085   35.1472 C   0  0  0  0  0  0  0  0  0  0  0  0
   39.4527  -19.7945   29.1140 N   0  0  0  0  0  0  0  0  0  0  0  0
   39.3541  -18.9101   30.1291 C   0  0  0  0  0  0  0  0  0  0  0  0
   39.8695  -19.1231   31.2299 O   0  0  0  0  0  0  0  0  0  0  0  0
   39.0877  -19.5855   28.2238 H   0  0  0  0  0  0  0  0  0  0  0  0
   37.4884  -17.4656   29.2252 C   0  0  0  0  0  0  0  0  0  0  0  0
   38.6544  -17.6391   29.8295 C   0  0  0  0  0  0  0  0  0  0  0  0
   37.4490  -15.2787   27.9589 C   0  0  0  0  0  0  0  0  0  0  0  0
   36.8793  -14.0186   27.7704 C   0  0  0  0  0  0  0  0  0  0  0  0
   35.7982  -13.6095   28.5360 C   0  0  0  0  0  0  0  0  0  0  0  0
   35.2835  -14.4653   29.4896 C   0  0  0  0  0  0  0  0  0  0  0  0
   35.8244  -15.7142   29.6980 C   0  0  0  0  0  0  0  0  0  0  0  0
   36.9213  -16.1393   28.9364 C   0  0  0  0  0  0  0  0  0  0  0  0
   33.8935  -13.9744   30.4300 Cl  0  0  0  0  0  0  0  0  0  0  0  0
   39.7304  -15.8303   27.0099 C   0  0  0  0  0  0  0  0  0  0  0  0
   38.3972  -15.7701   27.0113 N   0  0  0  0  0  0  0  0  0  0  0  0
   40.1405  -16.5164   25.9788 N   0  0  0  0  0  0  0  0  0  0  0  0
   39.0149  -16.9317   25.3472 N   0  0  0  0  0  0  0  0  0  0  0  0
   37.9576  -16.4897   25.9494 N   0  0  0  0  0  0  0  0  0  0  0  0
   39.5581  -22.2759   28.5916 C   0  0  0  0  0  0  0  0  0  0  0  0
   40.1565  -23.6482   28.9892 C   0  0  0  0  0  0  0  0  0  0  0  0
   40.1736  -23.9127   30.4916 C   0  0  0  0  0  0  0  0  0  0  0  0
   40.8854  -25.2193   30.8178 C   0  0  0  0  0  0  0  0  0  0  0  0
   40.3144  -26.3817   30.0011 C   0  0  0  0  0  0  0  0  0  0  0  0
   40.1616  -26.0647   28.5675 N   0  0  0  0  0  0  0  0  0  0  0  0
   39.4456  -24.8100   28.3048 C   0  0  0  0  0  0  0  0  0  0  0  0
   40.7085  -26.8619   27.5949 C   0  0  0  0  0  0  0  0  0  0  0  0
   41.4419  -27.7936   27.8839 O   0  0  0  0  0  0  0  0  0  0  0  0
   40.4368  -26.5253   26.1609 C   0  0  0  0  0  0  0  0  0  0  0  0
 36 34  2  0  0  0
 36 37  1  0  0  0
 34 35  1  0  0  0
 48 46  1  0  0  0
 37 38  2  0  0  0
 35 38  1  0  0  0
 35 27  1  0  0  0
 46 47  2  0  0  0
 46 44  1  0  0  0
 28 27  2  0  0  0
 28 29  1  0  0  0
  6  5  2  0  0  0
  6  7  1  0  0  0
 27 32  1  0  0  0
  3  7  1  0  0  0
  5  4  1  0  0  0
 45 44  1  0  0  0
 45 40  1  0  0  0
 29 30  2  0  0  0
  7  8  2  0  0  0
 44 43  1  0  0  0
 32 25  1  0  0  0
 32 31  2  0  0  0
 39 40  1  0  0  0
 39  1  1  0  0  0
 25 26  2  0  0  0
 40 41  1  0  0  0
  4  1  1  0  0  0
  4  2  2  0  0  0
 30 31  1  0  0  0
 30 33  1  0  0  0
 21  1  1  0  0  0
 21 22  1  0  0  0
  8  2  1  0  0  0
  8 13  1  0  0  0
 26 22  1  0  0  0
 43 42  1  0  0  0
 22 23  2  0  0  0
 41 42  1  0  0  0
 13  9  2  0  0  0
 13 10  1  0  0  0
  9 14  1  0  0  0
 10 11  2  0  0  0
 14 12  2  0  0  0
 11 12  1  0  0  0
 12 16  1  0  0  0
 17 15  2  0  0  0
 16 15  1  0  0  0
 15 19  1  0  0  0
 19 20  1  0  0  0
 21 24  1  0  0  0
 16 18  1  0  0  0
M  END
> <minimizedAffinity>
-11.43451

$$$$
6C0S_EEJ_A_301


 48 52  0  0  0  0  0  0  0  0999 V2000
   40.3878  -21.1800   28.2896 C   0  0  0  0  0  0  0  0  0  0  0  0
   42.6834  -21.1567   29.3194 C   0  0  0  0  0  0  0  0  0  0  0  0
   46.2280  -21.1531   27.4310 Cl  0  0  0  0  0  0  0  0  0  0  0  0
   41.8819  -20.9788   28.1968 C   0  0  0  0  0  0  0  0  0  0  0  0
   42.3999  -20.7776   26.9843 N   0  0  0  0  0  0  0  0  0  0  0  0
   43.7278  -20.8065   26.8152 N   0  0  0  0  0  0  0  0  0  0  0  0
   44.5362  -21.0223   27.8318 C   0  0  0  0  0  0  0  0  0  0  0  0
   44.0685  -21.1942   29.1534 C   0  0  0  0  0  0  0  0  0  0  0  0
   45.8560  -20.5289   30.8048 C   0  0  0  0  0  0  0  0  0  0  0  0
   44.7846  -22.6485   31.0806 C   0  0  0  0  0  0  0  0  0  0  0  0
   45.5676  -22.9046   32.1951 C   0  0  0  0  0  0  0  0  0  0  0  0
   46.5322  -21.9849   32.6081 C   0  0  0  0  0  0  0  0  0  0  0  0
   44.9118  -21.4566   30.3588 C   0  0  0  0  0  0  0  0  0  0  0  0
   46.6715  -20.7936   31.8946 C   0  0  0  0  0  0  0  0  0  0  0  0
   48.6373  -22.8154   33.7091 C   0  0  0  0  0  0  0  0  0  0  0  0
   47.3511  -22.3564   33.7215 N   0  0  0  0  0  0  0  0  0  0  0  0
   49.3146  -23.0371   32.7265 O   0  0  0  0  0  0  0  0  0  0  0  0
   46.9342  -22.2702   34.6092 H   0  0  0  0  0  0  0  0  0  0  0  0
   49.0579  -23.0129   34.9703 O   0  0  0  0  0  0  0  0  0  0  0  0
   50.2597  -22.3002   35.3643 C   0  0  0  0  0  0  0  0  0  0  0  0
   39.7360  -19.8698   28.2483 N   0  0  0  0  0  0  0  0  0  0  0  0
   39.4851  -19.2457   29.4187 C   0  0  0  0  0  0  0  0  0  0  0  0
   39.8549  -19.7147   30.4985 O   0  0  0  0  0  0  0  0  0  0  0  0
   39.4875  -19.4553   27.3906 H   0  0  0  0  0  0  0  0  0  0  0  0
   37.7039  -17.6204   28.6634 C   0  0  0  0  0  0  0  0  0  0  0  0
   38.8039  -17.9329   29.3321 C   0  0  0  0  0  0  0  0  0  0  0  0
   37.7135  -15.2347   27.8289 C   0  0  0  0  0  0  0  0  0  0  0  0
   37.1565  -13.9555   27.8645 C   0  0  0  0  0  0  0  0  0  0  0  0
   36.0559  -13.6852   28.6633 C   0  0  0  0  0  0  0  0  0  0  0  0
   35.5090  -14.6988   29.4250 C   0  0  0  0  0  0  0  0  0  0  0  0
   36.0367  -15.9704   29.4103 C   0  0  0  0  0  0  0  0  0  0  0  0
   37.1528  -16.2574   28.6129 C   0  0  0  0  0  0  0  0  0  0  0  0
   34.0950  -14.3776   30.4022 Cl  0  0  0  0  0  0  0  0  0  0  0  0
   38.6339  -15.6073   25.5001 C   0  0  0  0  0  0  0  0  0  0  0  0
   38.6861  -15.5502   26.8324 N   0  0  0  0  0  0  0  0  0  0  0  0
   39.8328  -15.7884   25.0185 N   0  0  0  0  0  0  0  0  0  0  0  0
   40.6591  -15.7980   26.0936 N   0  0  0  0  0  0  0  0  0  0  0  0
   39.9887  -15.6611   27.1925 N   0  0  0  0  0  0  0  0  0  0  0  0
   39.9497  -22.1680   27.1930 C   0  0  0  0  0  0  0  0  0  0  0  0
   38.9139  -21.6087   26.1860 C   0  0  0  0  0  0  0  0  0  0  0  0
   39.4352  -20.4654   25.3209 C   0  0  0  0  0  0  0  0  0  0  0  0
   38.3327  -19.8835   24.4456 C   0  0  0  0  0  0  0  0  0  0  0  0
   37.6232  -20.9788   23.6448 C   0  0  0  0  0  0  0  0  0  0  0  0
   37.2535  -22.1501   24.4635 N   0  0  0  0  0  0  0  0  0  0  0  0
   38.3565  -22.6904   25.2680 C   0  0  0  0  0  0  0  0  0  0  0  0
   35.9677  -22.6259   24.4944 C   0  0  0  0  0  0  0  0  0  0  0  0
   35.0610  -22.0249   23.9410 O   0  0  0  0  0  0  0  0  0  0  0  0
   35.6869  -23.8709   25.2783 C   0  0  0  0  0  0  0  0  0  0  0  0
 36 34  2  0  0  0
 36 37  1  0  0  0
 34 35  1  0  0  0
 48 46  1  0  0  0
 37 38  2  0  0  0
 35 38  1  0  0  0
 35 27  1  0  0  0
 46 47  2  0  0  0
 46 44  1  0  0  0
 28 27  2  0  0  0
 28 29  1  0  0  0
  6  5  2  0  0  0
  6  7  1  0  0  0
 27 32  1  0  0  0
  3  7  1  0  0  0
  5  4  1  0  0  0
 45 44  1  0  0  0
 45 40  1  0  0  0
 29 30  2  0  0  0
  7  8  2  0  0  0
 44 43  1  0  0  0
 32 25  1  0  0  0
 32 31  2  0  0  0
 39 40  1  0  0  0
 39  1  1  0  0  0
 25 26  2  0  0  0
 40 41  1  0  0  0
  4  1  1  0  0  0
  4  2  2  0  0  0
 30 31  1  0  0  0
 30 33  1  0  0  0
 21  1  1  0  0  0
 21 22  1  0  0  0
  8  2  1  0  0  0
  8 13  1  0  0  0
 26 22  1  0  0  0
 43 42  1  0  0  0
 22 23  2  0  0  0
 41 42  1  0  0  0
 13  9  2  0  0  0
 13 10  1  0  0  0
  9 14  1  0  0  0
 10 11  2  0  0  0
 14 12  2  0  0  0
 11 12  1  0  0  0
 12 16  1  0  0  0
 17 15  2  0  0  0
 16 15  1  0  0  0
 15 19  1  0  0  0
 19 20  1  0  0  0
 21 24  1  0  0  0
 16 18  1  0  0  0
M  END
> <minimizedAffinity>
-10.11413

$$$$
6C0S_EEJ_A_301


 48 52  0  0  0  0  0  0  0  0999 V2000
   40.9373  -21.2731   28.1804 C   0  0  0  0  0  0  0  0  0  0  0  0
   43.4528  -21.3179   28.2163 C   0  0  0  0  0  0  0  0  0  0  0  0
   45.8834  -20.5782   31.3267 Cl  0  0  0  0  0  0  0  0  0  0  0  0
   42.2535  -21.3122   28.9205 C   0  0  0  0  0  0  0  0  0  0  0  0
   42.2150  -21.1896   30.2480 N   0  0  0  0  0  0  0  0  0  0  0  0
   43.3509  -21.0035   30.9319 N   0  0  0  0  0  0  0  0  0  0  0  0
   44.5126  -20.9480   30.3148 C   0  0  0  0  0  0  0  0  0  0  0  0
   44.6420  -21.1189   28.9187 C   0  0  0  0  0  0  0  0  0  0  0  0
   46.9009  -22.0376   28.2717 C   0  0  0  0  0  0  0  0  0  0  0  0
   46.1626  -20.0072   27.2472 C   0  0  0  0  0  0  0  0  0  0  0  0
   47.3433  -19.9369   26.5247 C   0  0  0  0  0  0  0  0  0  0  0  0
   48.3351  -20.9035   26.6949 C   0  0  0  0  0  0  0  0  0  0  0  0
   45.9149  -21.0572   28.1383 C   0  0  0  0  0  0  0  0  0  0  0  0
   48.1018  -21.9541   27.5834 C   0  0  0  0  0  0  0  0  0  0  0  0
   50.6230  -19.9334   26.2978 C   0  0  0  0  0  0  0  0  0  0  0  0
   49.5550  -20.7189   25.9697 N   0  0  0  0  0  0  0  0  0  0  0  0
   50.7108  -19.2014   27.2621 O   0  0  0  0  0  0  0  0  0  0  0  0
   49.6345  -21.2221   25.1272 H   0  0  0  0  0  0  0  0  0  0  0  0
   51.5855  -20.0701   25.3696 O   0  0  0  0  0  0  0  0  0  0  0  0
   52.5552  -18.9928   25.2881 C   0  0  0  0  0  0  0  0  0  0  0  0
   40.3987  -19.9139   28.2554 N   0  0  0  0  0  0  0  0  0  0  0  0
   39.2085  -19.7329   28.8661 C   0  0  0  0  0  0  0  0  0  0  0  0
   38.6125  -20.6618   29.4179 O   0  0  0  0  0  0  0  0  0  0  0  0
   40.8910  -19.1529   27.8711 H   0  0  0  0  0  0  0  0  0  0  0  0
   37.6045  -17.8598   28.3155 C   0  0  0  0  0  0  0  0  0  0  0  0
   38.6898  -18.3456   28.8994 C   0  0  0  0  0  0  0  0  0  0  0  0
   37.9258  -15.4282   27.7055 C   0  0  0  0  0  0  0  0  0  0  0  0
   37.5254  -14.0988   27.8483 C   0  0  0  0  0  0  0  0  0  0  0  0
   36.4412  -13.7685   28.6469 C   0  0  0  0  0  0  0  0  0  0  0  0
   35.7535  -14.7716   29.3008 C   0  0  0  0  0  0  0  0  0  0  0  0
   36.1251  -16.0917   29.1789 C   0  0  0  0  0  0  0  0  0  0  0  0
   37.2227  -16.4406   28.3804 C   0  0  0  0  0  0  0  0  0  0  0  0
   34.3590  -14.3685   30.2756 Cl  0  0  0  0  0  0  0  0  0  0  0  0
   38.8251  -15.8154   25.3709 C   0  0  0  0  0  0  0  0  0  0  0  0
   38.8835  -15.7699   26.7033 N   0  0  0  0  0  0  0  0  0  0  0  0
   40.0155  -16.0344   24.8837 N   0  0  0  0  0  0  0  0  0  0  0  0
   40.8444  -16.0803   25.9558 N   0  0  0  0  0  0  0  0  0  0  0  0
   40.1827  -15.9283   27.0581 N   0  0  0  0  0  0  0  0  0  0  0  0
   41.1507  -21.8190   26.7566 C   0  0  0  0  0  0  0  0  0  0  0  0
   40.3167  -23.0768   26.4076 C   0  0  0  0  0  0  0  0  0  0  0  0
   41.0026  -24.3970   26.7454 C   0  0  0  0  0  0  0  0  0  0  0  0
   40.1838  -25.5878   26.2639 C   0  0  0  0  0  0  0  0  0  0  0  0
   38.7389  -25.5067   26.7637 C   0  0  0  0  0  0  0  0  0  0  0  0
   38.1298  -24.1765   26.5670 N   0  0  0  0  0  0  0  0  0  0  0  0
   38.9447  -23.0644   27.0718 C   0  0  0  0  0  0  0  0  0  0  0  0
   36.9360  -24.0250   25.9094 C   0  0  0  0  0  0  0  0  0  0  0  0
   36.3962  -24.9713   25.3592 O   0  0  0  0  0  0  0  0  0  0  0  0
   36.3369  -22.6547   25.8260 C   0  0  0  0  0  0  0  0  0  0  0  0
 36 34  2  0  0  0
 36 37  1  0  0  0
 34 35  1  0  0  0
 48 46  1  0  0  0
 37 38  2  0  0  0
 35 38  1  0  0  0
 35 27  1  0  0  0
 46 47  2  0  0  0
 46 44  1  0  0  0
 28 27  2  0  0  0
 28 29  1  0  0  0
  6  5  2  0  0  0
  6  7  1  0  0  0
 27 32  1  0  0  0
  3  7  1  0  0  0
  5  4  1  0  0  0
 45 44  1  0  0  0
 45 40  1  0  0  0
 29 30  2  0  0  0
  7  8  2  0  0  0
 44 43  1  0  0  0
 32 25  1  0  0  0
 32 31  2  0  0  0
 39 40  1  0  0  0
 39  1  1  0  0  0
 25 26  2  0  0  0
 40 41  1  0  0  0
  4  1  1  0  0  0
  4  2  2  0  0  0
 30 31  1  0  0  0
 30 33  1  0  0  0
 21  1  1  0  0  0
 21 22  1  0  0  0
  8  2  1  0  0  0
  8 13  1  0  0  0
 26 22  1  0  0  0
 43 42  1  0  0  0
 22 23  2  0  0  0
 41 42  1  0  0  0
 13  9  2  0  0  0
 13 10  1  0  0  0
  9 14  1  0  0  0
 10 11  2  0  0  0
 14 12  2  0  0  0
 11 12  1  0  0  0
 12 16  1  0  0  0
 17 15  2  0  0  0
 16 15  1  0  0  0
 15 19  1  0  0  0
 19 20  1  0  0  0
 21 24  1  0  0  0
 16 18  1  0  0  0
M  END
> <minimizedAffinity>
-9.23128

$$$$
6C0S_EEJ_A_301


 48 52  0  0  0  0  0  0  0  0999 V2000
   40.7771  -24.9577   26.0032 C   0  0  0  0  0  0  0  0  0  0  0  0
   39.2240  -23.0085   26.3484 C   0  0  0  0  0  0  0  0  0  0  0  0
   35.5827  -22.4495   24.7489 Cl  0  0  0  0  0  0  0  0  0  0  0  0
   39.4132  -24.3153   25.9116 C   0  0  0  0  0  0  0  0  0  0  0  0
   38.4592  -24.9895   25.2681 N   0  0  0  0  0  0  0  0  0  0  0  0
   37.3021  -24.3846   24.9713 N   0  0  0  0  0  0  0  0  0  0  0  0
   37.0847  -23.1319   25.3131 C   0  0  0  0  0  0  0  0  0  0  0  0
   38.0240  -22.3668   26.0393 C   0  0  0  0  0  0  0  0  0  0  0  0
   37.5247  -19.9459   25.5343 C   0  0  0  0  0  0  0  0  0  0  0  0
   38.0575  -20.5521   27.7850 C   0  0  0  0  0  0  0  0  0  0  0  0
   37.9203  -19.2303   28.1786 C   0  0  0  0  0  0  0  0  0  0  0  0
   37.6156  -18.2417   27.2422 C   0  0  0  0  0  0  0  0  0  0  0  0
   37.8651  -20.9401   26.4545 C   0  0  0  0  0  0  0  0  0  0  0  0
   37.4246  -18.6152   25.9111 C   0  0  0  0  0  0  0  0  0  0  0  0
   38.6062  -16.0365   27.9415 C   0  0  0  0  0  0  0  0  0  0  0  0
   37.5658  -16.8915   27.7141 N   0  0  0  0  0  0  0  0  0  0  0  0
   39.7874  -16.2903   27.8237 O   0  0  0  0  0  0  0  0  0  0  0  0
   36.6674  -16.5335   27.8982 H   0  0  0  0  0  0  0  0  0  0  0  0
   38.1314  -14.8454   28.3446 O   0  0  0  0  0  0  0  0  0  0  0  0
   36.8833  -14.8702   29.0857 C   0  0  0  0  0  0  0  0  0  0  0  0
   41.6093  -24.1619   26.9071 N   0  0  0  0  0  0  0  0  0  0  0  0
   42.8808  -23.8991   26.5373 C   0  0  0  0  0  0  0  0  0  0  0  0
   43.3238  -24.2462   25.4392 O   0  0  0  0  0  0  0  0  0  0  0  0
   41.2516  -23.8275   27.7612 H   0  0  0  0  0  0  0  0  0  0  0  0
   44.0408  -23.4238   28.7312 C   0  0  0  0  0  0  0  0  0  0  0  0
   43.6944  -23.1103   27.4915 C   0  0  0  0  0  0  0  0  0  0  0  0
   44.2159  -21.5283   30.3937 C   0  0  0  0  0  0  0  0  0  0  0  0
   45.0197  -20.6876   31.1651 C   0  0  0  0  0  0  0  0  0  0  0  0
   46.3991  -20.8272   31.1596 C   0  0  0  0  0  0  0  0  0  0  0  0
   46.9751  -21.8135   30.3835 C   0  0  0  0  0  0  0  0  0  0  0  0
   46.2079  -22.6576   29.6125 C   0  0  0  0  0  0  0  0  0  0  0  0
   44.8128  -22.5246   29.6027 C   0  0  0  0  0  0  0  0  0  0  0  0
   48.7107  -22.0245   30.4038 Cl  0  0  0  0  0  0  0  0  0  0  0  0
   42.0068  -22.1601   31.4566 C   0  0  0  0  0  0  0  0  0  0  0  0
   42.8021  -21.5258   30.5929 N   0  0  0  0  0  0  0  0  0  0  0  0
   40.7876  -21.7082   31.3483 N   0  0  0  0  0  0  0  0  0  0  0  0
   40.8450  -20.7274   30.4139 N   0  0  0  0  0  0  0  0  0  0  0  0
   42.0455  -20.6059   29.9449 N   0  0  0  0  0  0  0  0  0  0  0  0
   40.6052  -26.4362   26.3972 C   0  0  0  0  0  0  0  0  0  0  0  0
   41.4229  -26.8815   27.6351 C   0  0  0  0  0  0  0  0  0  0  0  0
   40.6480  -27.7552   28.6168 C   0  0  0  0  0  0  0  0  0  0  0  0
   41.4693  -28.0516   29.8649 C   0  0  0  0  0  0  0  0  0  0  0  0
   42.8459  -28.6156   29.5029 C   0  0  0  0  0  0  0  0  0  0  0  0
   43.5281  -27.8475   28.4428 N   0  0  0  0  0  0  0  0  0  0  0  0
   42.7047  -27.6114   27.2504 C   0  0  0  0  0  0  0  0  0  0  0  0
   44.7974  -27.3582   28.6161 C   0  0  0  0  0  0  0  0  0  0  0  0
   45.3601  -27.4372   29.6962 O   0  0  0  0  0  0  0  0  0  0  0  0
   45.4577  -26.6651   27.4641 C   0  0  0  0  0  0  0  0  0  0  0  0
 36 34  2  0  0  0
 36 37  1  0  0  0
 34 35  1  0  0  0
 48 46  1  0  0  0
 37 38  2  0  0  0
 35 38  1  0  0  0
 35 27  1  0  0  0
 46 47  2  0  0  0
 46 44  1  0  0  0
 28 27  2  0  0  0
 28 29  1  0  0  0
  6  5  2  0  0  0
  6  7  1  0  0  0
 27 32  1  0  0  0
  3  7  1  0  0  0
  5  4  1  0  0  0
 45 44  1  0  0  0
 45 40  1  0  0  0
 29 30  2  0  0  0
  7  8  2  0  0  0
 44 43  1  0  0  0
 32 25  1  0  0  0
 32 31  2  0  0  0
 39 40  1  0  0  0
 39  1  1  0  0  0
 25 26  2  0  0  0
 40 41  1  0  0  0
  4  1  1  0  0  0
  4  2  2  0  0  0
 30 31  1  0  0  0
 30 33  1  0  0  0
 21  1  1  0  0  0
 21 22  1  0  0  0
  8  2  1  0  0  0
  8 13  1  0  0  0
 26 22  1  0  0  0
 43 42  1  0  0  0
 22 23  2  0  0  0
 41 42  1  0  0  0
 13  9  2  0  0  0
 13 10  1  0  0  0
  9 14  1  0  0  0
 10 11  2  0  0  0
 14 12  2  0  0  0
 11 12  1  0  0  0
 12 16  1  0  0  0
 17 15  2  0  0  0
 16 15  1  0  0  0
 15 19  1  0  0  0
 19 20  1  0  0  0
 21 24  1  0  0  0
 16 18  1  0  0  0
M  END
> <minimizedAffinity>
-9.22639

$$$$
6C0S_EEJ_A_301


 48 52  0  0  0  0  0  0  0  0999 V2000
   42.3559  -21.2930   24.6734 C   0  0  0  0  0  0  0  0  0  0  0  0
   40.7997  -19.3840   25.1882 C   0  0  0  0  0  0  0  0  0  0  0  0
   40.4648  -15.8878   23.2404 Cl  0  0  0  0  0  0  0  0  0  0  0  0
   41.6617  -20.0068   24.2920 C   0  0  0  0  0  0  0  0  0  0  0  0
   42.0232  -19.4313   23.1444 N   0  0  0  0  0  0  0  0  0  0  0  0
   41.6023  -18.1925   22.8601 N   0  0  0  0  0  0  0  0  0  0  0  0
   40.8264  -17.5320   23.6938 C   0  0  0  0  0  0  0  0  0  0  0  0
   40.3597  -18.0905   24.9043 C   0  0  0  0  0  0  0  0  0  0  0  0
   38.1882  -17.8443   26.1648 C   0  0  0  0  0  0  0  0  0  0  0  0
   39.9564  -16.3044   26.6333 C   0  0  0  0  0  0  0  0  0  0  0  0
   39.1557  -15.6607   27.5636 C   0  0  0  0  0  0  0  0  0  0  0  0
   37.8438  -16.0835   27.7806 C   0  0  0  0  0  0  0  0  0  0  0  0
   39.4910  -17.4091   25.9113 C   0  0  0  0  0  0  0  0  0  0  0  0
   37.3664  -17.1821   27.0643 C   0  0  0  0  0  0  0  0  0  0  0  0
   36.4279  -14.1274   28.4889 C   0  0  0  0  0  0  0  0  0  0  0  0
   37.0579  -15.3203   28.7015 N   0  0  0  0  0  0  0  0  0  0  0  0
   36.4602  -13.4658   27.4718 O   0  0  0  0  0  0  0  0  0  0  0  0
   36.9589  -15.7039   29.6027 H   0  0  0  0  0  0  0  0  0  0  0  0
   35.7627  -13.7645   29.5990 O   0  0  0  0  0  0  0  0  0  0  0  0
   34.5709  -14.5322   29.9121 C   0  0  0  0  0  0  0  0  0  0  0  0
   42.7869  -21.1958   26.0691 N   0  0  0  0  0  0  0  0  0  0  0  0
   44.1099  -21.1095   26.3229 C   0  0  0  0  0  0  0  0  0  0  0  0
   44.9431  -21.0367   25.4156 O   0  0  0  0  0  0  0  0  0  0  0  0
   42.1299  -21.1934   26.8023 H   0  0  0  0  0  0  0  0  0  0  0  0
   44.6147  -22.0254   28.6231 C   0  0  0  0  0  0  0  0  0  0  0  0
   44.5033  -21.0360   27.7493 C   0  0  0  0  0  0  0  0  0  0  0  0
   44.0156  -21.8512   31.0723 C   0  0  0  0  0  0  0  0  0  0  0  0
   44.4191  -21.6026   32.3851 C   0  0  0  0  0  0  0  0  0  0  0  0
   45.7454  -21.3227   32.6764 C   0  0  0  0  0  0  0  0  0  0  0  0
   46.6708  -21.2958   31.6519 C   0  0  0  0  0  0  0  0  0  0  0  0
   46.3024  -21.5371   30.3474 C   0  0  0  0  0  0  0  0  0  0  0  0
   44.9645  -21.8151   30.0365 C   0  0  0  0  0  0  0  0  0  0  0  0
   48.3528  -20.9861   32.0158 Cl  0  0  0  0  0  0  0  0  0  0  0  0
   42.2462  -23.5962   30.5891 C   0  0  0  0  0  0  0  0  0  0  0  0
   42.7072  -22.3662   30.8249 N   0  0  0  0  0  0  0  0  0  0  0  0
   40.9416  -23.5850   30.5817 N   0  0  0  0  0  0  0  0  0  0  0  0
   40.5871  -22.3081   30.8686 N   0  0  0  0  0  0  0  0  0  0  0  0
   41.6334  -21.5597   31.0134 N   0  0  0  0  0  0  0  0  0  0  0  0
   41.4232  -22.4755   24.3533 C   0  0  0  0  0  0  0  0  0  0  0  0
   39.9147  -22.1929   24.5634 C   0  0  0  0  0  0  0  0  0  0  0  0
   39.0085  -22.8052   23.4997 C   0  0  0  0  0  0  0  0  0  0  0  0
   37.5576  -22.3854   23.6972 C   0  0  0  0  0  0  0  0  0  0  0  0
   37.0896  -22.6614   25.1286 C   0  0  0  0  0  0  0  0  0  0  0  0
   38.0460  -22.1968   26.1525 N   0  0  0  0  0  0  0  0  0  0  0  0
   39.4252  -22.6499   25.9327 C   0  0  0  0  0  0  0  0  0  0  0  0
   37.6580  -21.3638   27.1703 C   0  0  0  0  0  0  0  0  0  0  0  0
   36.5372  -20.8815   27.1959 O   0  0  0  0  0  0  0  0  0  0  0  0
   38.6634  -21.0060   28.2213 C   0  0  0  0  0  0  0  0  0  0  0  0
 36 34  2  0  0  0
 36 37  1  0  0  0
 34 35  1  0  0  0
 48 46  1  0  0  0
 37 38  2  0  0  0
 35 38  1  0  0  0
 35 27  1  0  0  0
 46 47  2  0  0  0
 46 44  1  0  0  0
 28 27  2  0  0  0
 28 29  1  0  0  0
  6  5  2  0  0  0
  6  7  1  0  0  0
 27 32  1  0  0  0
  3  7  1  0  0  0
  5  4  1  0  0  0
 45 44  1  0  0  0
 45 40  1  0  0  0
 29 30  2  0  0  0
  7  8  2  0  0  0
 44 43  1  0  0  0
 32 25  1  0  0  0
 32 31  2  0  0  0
 39 40  1  0  0  0
 39  1  1  0  0  0
 25 26  2  0  0  0
 40 41  1  0  0  0
  4  1  1  0  0  0
  4  2  2  0  0  0
 30 31  1  0  0  0
 30 33  1  0  0  0
 21  1  1  0  0  0
 21 22  1  0  0  0
  8  2  1  0  0  0
  8 13  1  0  0  0
 26 22  1  0  0  0
 43 42  1  0  0  0
 22 23  2  0  0  0
 41 42  1  0  0  0
 13  9  2  0  0  0
 13 10  1  0  0  0
  9 14  1  0  0  0
 10 11  2  0  0  0
 14 12  2  0  0  0
 11 12  1  0  0  0
 12 16  1  0  0  0
 17 15  2  0  0  0
 16 15  1  0  0  0
 15 19  1  0  0  0
 19 20  1  0  0  0
 21 24  1  0  0  0
 16 18  1  0  0  0
M  END
> <minimizedAffinity>
-9.04601

$$$$
6C0S_EEJ_A_301


 48 52  0  0  0  0  0  0  0  0999 V2000
   40.6618  -22.6092   30.0235 C   0  0  0  0  0  0  0  0  0  0  0  0
   39.9459  -20.7699   28.4629 C   0  0  0  0  0  0  0  0  0  0  0  0
   38.6187  -17.1034   29.4248 Cl  0  0  0  0  0  0  0  0  0  0  0  0
   40.3280  -21.1634   29.7410 C   0  0  0  0  0  0  0  0  0  0  0  0
   40.2704  -20.3321   30.7823 N   0  0  0  0  0  0  0  0  0  0  0  0
   39.7746  -19.0987   30.6220 N   0  0  0  0  0  0  0  0  0  0  0  0
   39.3487  -18.6867   29.4463 C   0  0  0  0  0  0  0  0  0  0  0  0
   39.4223  -19.4885   28.2859 C   0  0  0  0  0  0  0  0  0  0  0  0
   39.8211  -18.5579   25.9752 C   0  0  0  0  0  0  0  0  0  0  0  0
   37.6151  -19.2837   26.5441 C   0  0  0  0  0  0  0  0  0  0  0  0
   37.1666  -18.9253   25.2827 C   0  0  0  0  0  0  0  0  0  0  0  0
   38.0384  -18.3445   24.3609 C   0  0  0  0  0  0  0  0  0  0  0  0
   38.9512  -19.1066   26.9202 C   0  0  0  0  0  0  0  0  0  0  0  0
   39.3729  -18.1593   24.7249 C   0  0  0  0  0  0  0  0  0  0  0  0
   37.2428  -18.6935   21.9990 C   0  0  0  0  0  0  0  0  0  0  0  0
   37.4815  -17.9334   23.1082 N   0  0  0  0  0  0  0  0  0  0  0  0
   37.5077  -19.8699   21.8600 O   0  0  0  0  0  0  0  0  0  0  0  0
   37.2399  -16.9817   23.0371 H   0  0  0  0  0  0  0  0  0  0  0  0
   36.6751  -17.9347   21.0458 O   0  0  0  0  0  0  0  0  0  0  0  0
   35.2456  -17.7138   21.1690 C   0  0  0  0  0  0  0  0  0  0  0  0
   40.5142  -23.3741   28.7841 N   0  0  0  0  0  0  0  0  0  0  0  0
   39.9783  -24.6109   28.8586 C   0  0  0  0  0  0  0  0  0  0  0  0
   39.5493  -25.0713   29.9200 O   0  0  0  0  0  0  0  0  0  0  0  0
   40.7980  -22.9970   27.9201 H   0  0  0  0  0  0  0  0  0  0  0  0
   39.1344  -25.0668   26.5209 C   0  0  0  0  0  0  0  0  0  0  0  0
   39.8684  -25.3587   27.5844 C   0  0  0  0  0  0  0  0  0  0  0  0
   37.8645  -26.2418   24.6785 C   0  0  0  0  0  0  0  0  0  0  0  0
   37.8806  -27.0954   23.5743 C   0  0  0  0  0  0  0  0  0  0  0  0
   39.0728  -27.6310   23.1117 C   0  0  0  0  0  0  0  0  0  0  0  0
   40.2522  -27.3082   23.7532 C   0  0  0  0  0  0  0  0  0  0  0  0
   40.2675  -26.4689   24.8446 C   0  0  0  0  0  0  0  0  0  0  0  0
   39.0698  -25.9248   25.3277 C   0  0  0  0  0  0  0  0  0  0  0  0
   41.7651  -27.9448   23.1504 Cl  0  0  0  0  0  0  0  0  0  0  0  0
   36.3954  -24.2159   25.0615 C   0  0  0  0  0  0  0  0  0  0  0  0
   36.6733  -25.5192   24.9908 N   0  0  0  0  0  0  0  0  0  0  0  0
   35.1130  -24.0463   25.2314 N   0  0  0  0  0  0  0  0  0  0  0  0
   34.5767  -25.2916   25.2196 N   0  0  0  0  0  0  0  0  0  0  0  0
   35.4983  -26.1901   25.0808 N   0  0  0  0  0  0  0  0  0  0  0  0
   42.0533  -22.6796   30.6789 C   0  0  0  0  0  0  0  0  0  0  0  0
   43.1638  -21.8924   29.9397 C   0  0  0  0  0  0  0  0  0  0  0  0
   44.2393  -21.3165   30.8557 C   0  0  0  0  0  0  0  0  0  0  0  0
   45.2263  -20.4537   30.0800 C   0  0  0  0  0  0  0  0  0  0  0  0
   45.7931  -21.2066   28.8733 C   0  0  0  0  0  0  0  0  0  0  0  0
   44.7558  -21.8872   28.0734 N   0  0  0  0  0  0  0  0  0  0  0  0
   43.8467  -22.7275   28.8627 C   0  0  0  0  0  0  0  0  0  0  0  0
   44.6413  -21.6796   26.7228 C   0  0  0  0  0  0  0  0  0  0  0  0
   45.3151  -20.8340   26.1568 O   0  0  0  0  0  0  0  0  0  0  0  0
   43.6220  -22.4723   25.9636 C   0  0  0  0  0  0  0  0  0  0  0  0
 36 34  2  0  0  0
 36 37  1  0  0  0
 34 35  1  0  0  0
 48 46  1  0  0  0
 37 38  2  0  0  0
 35 38  1  0  0  0
 35 27  1  0  0  0
 46 47  2  0  0  0
 46 44  1  0  0  0
 28 27  2  0  0  0
 28 29  1  0  0  0
  6  5  2  0  0  0
  6  7  1  0  0  0
 27 32  1  0  0  0
  3  7  1  0  0  0
  5  4  1  0  0  0
 45 44  1  0  0  0
 45 40  1  0  0  0
 29 30  2  0  0  0
  7  8  2  0  0  0
 44 43  1  0  0  0
 32 25  1  0  0  0
 32 31  2  0  0  0
 39 40  1  0  0  0
 39  1  1  0  0  0
 25 26  2  0  0  0
 40 41  1  0  0  0
  4  1  1  0  0  0
  4  2  2  0  0  0
 30 31  1  0  0  0
 30 33  1  0  0  0
 21  1  1  0  0  0
 21 22  1  0  0  0
  8  2  1  0  0  0
  8 13  1  0  0  0
 26 22  1  0  0  0
 43 42  1  0  0  0
 22 23  2  0  0  0
 41 42  1  0  0  0
 13  9  2  0  0  0
 13 10  1  0  0  0
  9 14  1  0  0  0
 10 11  2  0  0  0
 14 12  2  0  0  0
 11 12  1  0  0  0
 12 16  1  0  0  0
 17 15  2  0  0  0
 16 15  1  0  0  0
 15 19  1  0  0  0
 19 20  1  0  0  0
 21 24  1  0  0  0
 16 18  1  0  0  0
M  END
> <minimizedAffinity>
-9.00225

$$$$
6C0S_EEJ_A_301


 48 52  0  0  0  0  0  0  0  0999 V2000
   42.4668  -22.1005   24.6185 C   0  0  0  0  0  0  0  0  0  0  0  0
   40.9943  -20.0851   24.9361 C   0  0  0  0  0  0  0  0  0  0  0  0
   41.1443  -16.5915   22.9608 Cl  0  0  0  0  0  0  0  0  0  0  0  0
   41.9154  -20.7733   24.1536 C   0  0  0  0  0  0  0  0  0  0  0  0
   42.4546  -20.2341   23.0594 N   0  0  0  0  0  0  0  0  0  0  0  0
   42.1584  -18.9719   22.7249 N   0  0  0  0  0  0  0  0  0  0  0  0
   41.3329  -18.2526   23.4559 C   0  0  0  0  0  0  0  0  0  0  0  0
   40.6830  -18.7671   24.5995 C   0  0  0  0  0  0  0  0  0  0  0  0
   38.3630  -18.2011   25.4133 C   0  0  0  0  0  0  0  0  0  0  0  0
   40.2258  -17.1040   26.4345 C   0  0  0  0  0  0  0  0  0  0  0  0
   39.3643  -16.3994   27.2604 C   0  0  0  0  0  0  0  0  0  0  0  0
   37.9833  -16.5642   27.1470 C   0  0  0  0  0  0  0  0  0  0  0  0
   39.7456  -18.0190   25.4911 C   0  0  0  0  0  0  0  0  0  0  0  0
   37.4914  -17.4714   26.2074 C   0  0  0  0  0  0  0  0  0  0  0  0
   36.6363  -16.0449   29.2083 C   0  0  0  0  0  0  0  0  0  0  0  0
   37.1594  -15.7453   27.9829 N   0  0  0  0  0  0  0  0  0  0  0  0
   36.7429  -17.0995   29.7998 O   0  0  0  0  0  0  0  0  0  0  0  0
   36.9420  -14.8524   27.6295 H   0  0  0  0  0  0  0  0  0  0  0  0
   35.9502  -14.9882   29.6765 O   0  0  0  0  0  0  0  0  0  0  0  0
   35.9170  -13.8154   28.8215 C   0  0  0  0  0  0  0  0  0  0  0  0
   42.8725  -21.9736   26.0193 N   0  0  0  0  0  0  0  0  0  0  0  0
   44.1263  -21.5486   26.2836 C   0  0  0  0  0  0  0  0  0  0  0  0
   44.8978  -21.1997   25.3860 O   0  0  0  0  0  0  0  0  0  0  0  0
   42.2483  -22.1923   26.7485 H   0  0  0  0  0  0  0  0  0  0  0  0
   44.4675  -22.4071   28.6355 C   0  0  0  0  0  0  0  0  0  0  0  0
   44.5025  -21.4564   27.7135 C   0  0  0  0  0  0  0  0  0  0  0  0
   43.8694  -21.8348   31.0234 C   0  0  0  0  0  0  0  0  0  0  0  0
   44.2865  -21.5908   32.3328 C   0  0  0  0  0  0  0  0  0  0  0  0
   45.6265  -21.6822   32.6768 C   0  0  0  0  0  0  0  0  0  0  0  0
   46.5507  -22.0228   31.7090 C   0  0  0  0  0  0  0  0  0  0  0  0
   46.1688  -22.2692   30.4093 C   0  0  0  0  0  0  0  0  0  0  0  0
   44.8190  -22.1745   30.0449 C   0  0  0  0  0  0  0  0  0  0  0  0
   48.2368  -22.1823   32.1434 Cl  0  0  0  0  0  0  0  0  0  0  0  0
   41.6019  -22.9576   30.9394 C   0  0  0  0  0  0  0  0  0  0  0  0
   42.4758  -21.9683   30.7433 N   0  0  0  0  0  0  0  0  0  0  0  0
   40.3965  -22.5443   30.6594 N   0  0  0  0  0  0  0  0  0  0  0  0
   40.5293  -21.2380   30.3214 N   0  0  0  0  0  0  0  0  0  0  0  0
   41.7712  -20.8745   30.3611 N   0  0  0  0  0  0  0  0  0  0  0  0
   41.4271  -23.1993   24.3312 C   0  0  0  0  0  0  0  0  0  0  0  0
   40.5331  -23.5835   25.5365 C   0  0  0  0  0  0  0  0  0  0  0  0
   39.0428  -23.3470   25.3116 C   0  0  0  0  0  0  0  0  0  0  0  0
   38.2389  -23.6272   26.5747 C   0  0  0  0  0  0  0  0  0  0  0  0
   38.5572  -25.0144   27.1393 C   0  0  0  0  0  0  0  0  0  0  0  0
   40.0049  -25.2928   27.2147 N   0  0  0  0  0  0  0  0  0  0  0  0
   40.7304  -25.0330   25.9649 C   0  0  0  0  0  0  0  0  0  0  0  0
   40.5971  -25.6966   28.3837 C   0  0  0  0  0  0  0  0  0  0  0  0
   39.9699  -25.7233   29.4303 O   0  0  0  0  0  0  0  0  0  0  0  0
   42.0537  -26.0455   28.3616 C   0  0  0  0  0  0  0  0  0  0  0  0
 36 34  2  0  0  0
 36 37  1  0  0  0
 34 35  1  0  0  0
 48 46  1  0  0  0
 37 38  2  0  0  0
 35 38  1  0  0  0
 35 27  1  0  0  0
 46 47  2  0  0  0
 46 44  1  0  0  0
 28 27  2  0  0  0
 28 29  1  0  0  0
  6  5  2  0  0  0
  6  7  1  0  0  0
 27 32  1  0  0  0
  3  7  1  0  0  0
  5  4  1  0  0  0
 45 44  1  0  0  0
 45 40  1  0  0  0
 29 30  2  0  0  0
  7  8  2  0  0  0
 44 43  1  0  0  0
 32 25  1  0  0  0
 32 31  2  0  0  0
 39 40  1  0  0  0
 39  1  1  0  0  0
 25 26  2  0  0  0
 40 41  1  0  0  0
  4  1  1  0  0  0
  4  2  2  0  0  0
 30 31  1  0  0  0
 30 33  1  0  0  0
 21  1  1  0  0  0
 21 22  1  0  0  0
  8  2  1  0  0  0
  8 13  1  0  0  0
 26 22  1  0  0  0
 43 42  1  0  0  0
 22 23  2  0  0  0
 41 42  1  0  0  0
 13  9  2  0  0  0
 13 10  1  0  0  0
  9 14  1  0  0  0
 10 11  2  0  0  0
 14 12  2  0  0  0
 11 12  1  0  0  0
 12 16  1  0  0  0
 17 15  2  0  0  0
 16 15  1  0  0  0
 15 19  1  0  0  0
 19 20  1  0  0  0
 21 24  1  0  0  0
 16 18  1  0  0  0
M  END
> <minimizedAffinity>
-8.82034

$$$$
6C0S_EEJ_A_301


 48 52  0  0  0  0  0  0  0  0999 V2000
   42.4869  -25.8818   28.4682 C   0  0  0  0  0  0  0  0  0  0  0  0
   42.1422  -23.3894   28.4750 C   0  0  0  0  0  0  0  0  0  0  0  0
   44.4541  -20.5897   30.1915 Cl  0  0  0  0  0  0  0  0  0  0  0  0
   42.9883  -24.4734   28.6836 C   0  0  0  0  0  0  0  0  0  0  0  0
   44.2022  -24.3288   29.2167 N   0  0  0  0  0  0  0  0  0  0  0  0
   44.6096  -23.1207   29.6255 N   0  0  0  0  0  0  0  0  0  0  0  0
   43.8322  -22.0653   29.5017 C   0  0  0  0  0  0  0  0  0  0  0  0
   42.5546  -22.1267   28.9027 C   0  0  0  0  0  0  0  0  0  0  0  0
   40.8557  -20.4959   29.8076 C   0  0  0  0  0  0  0  0  0  0  0  0
   41.4316  -20.3699   27.4904 C   0  0  0  0  0  0  0  0  0  0  0  0
   40.5473  -19.3160   27.3230 C   0  0  0  0  0  0  0  0  0  0  0  0
   39.7785  -18.8609   28.3948 C   0  0  0  0  0  0  0  0  0  0  0  0
   41.6048  -20.9853   28.7351 C   0  0  0  0  0  0  0  0  0  0  0  0
   39.9393  -19.4686   29.6408 C   0  0  0  0  0  0  0  0  0  0  0  0
   39.0824  -16.5349   27.7328 C   0  0  0  0  0  0  0  0  0  0  0  0
   38.8346  -17.8200   28.1231 N   0  0  0  0  0  0  0  0  0  0  0  0
   40.1732  -16.0229   27.5869 O   0  0  0  0  0  0  0  0  0  0  0  0
   37.8862  -18.0609   28.2312 H   0  0  0  0  0  0  0  0  0  0  0  0
   37.9191  -15.8883   27.5451 O   0  0  0  0  0  0  0  0  0  0  0  0
   37.4668  -15.0511   28.6414 C   0  0  0  0  0  0  0  0  0  0  0  0
   41.3369  -25.8357   27.5635 N   0  0  0  0  0  0  0  0  0  0  0  0
   40.1721  -26.3718   27.9857 C   0  0  0  0  0  0  0  0  0  0  0  0
   40.0396  -26.8242   29.1261 O   0  0  0  0  0  0  0  0  0  0  0  0
   41.4110  -25.4251   26.6718 H   0  0  0  0  0  0  0  0  0  0  0  0
   38.1542  -25.3558   26.8541 C   0  0  0  0  0  0  0  0  0  0  0  0
   39.0409  -26.3242   27.0304 C   0  0  0  0  0  0  0  0  0  0  0  0
   36.3470  -24.3272   25.4176 C   0  0  0  0  0  0  0  0  0  0  0  0
   35.2705  -24.5021   24.5466 C   0  0  0  0  0  0  0  0  0  0  0  0
   34.8769  -25.7725   24.1547 C   0  0  0  0  0  0  0  0  0  0  0  0
   35.5652  -26.8702   24.6322 C   0  0  0  0  0  0  0  0  0  0  0  0
   36.6310  -26.7287   25.4923 C   0  0  0  0  0  0  0  0  0  0  0  0
   37.0365  -25.4516   25.9025 C   0  0  0  0  0  0  0  0  0  0  0  0
   35.1029  -28.4734   24.1094 Cl  0  0  0  0  0  0  0  0  0  0  0  0
   37.8377  -22.3242   24.9992 C   0  0  0  0  0  0  0  0  0  0  0  0
   36.8820  -23.0191   25.6196 N   0  0  0  0  0  0  0  0  0  0  0  0
   37.8581  -21.1005   25.4510 N   0  0  0  0  0  0  0  0  0  0  0  0
   36.8467  -21.0282   26.3512 N   0  0  0  0  0  0  0  0  0  0  0  0
   36.2515  -22.1717   26.4700 N   0  0  0  0  0  0  0  0  0  0  0  0
   43.6601  -26.7609   27.9973 C   0  0  0  0  0  0  0  0  0  0  0  0
   44.0929  -27.8623   28.9968 C   0  0  0  0  0  0  0  0  0  0  0  0
   42.9755  -28.8218   29.3946 C   0  0  0  0  0  0  0  0  0  0  0  0
   43.4371  -29.7976   30.4693 C   0  0  0  0  0  0  0  0  0  0  0  0
   44.7305  -30.5060   30.0576 C   0  0  0  0  0  0  0  0  0  0  0  0
   45.7565  -29.5836   29.5327 N   0  0  0  0  0  0  0  0  0  0  0  0
   45.2696  -28.6825   28.4807 C   0  0  0  0  0  0  0  0  0  0  0  0
   47.0262  -29.5545   30.0500 C   0  0  0  0  0  0  0  0  0  0  0  0
   47.3168  -30.2044   31.0413 O   0  0  0  0  0  0  0  0  0  0  0  0
   48.0373  -28.6552   29.4077 C   0  0  0  0  0  0  0  0  0  0  0  0
 36 34  2  0  0  0
 36 37  1  0  0  0
 34 35  1  0  0  0
 48 46  1  0  0  0
 37 38  2  0  0  0
 35 38  1  0  0  0
 35 27  1  0  0  0
 46 47  2  0  0  0
 46 44  1  0  0  0
 28 27  2  0  0  0
 28 29  1  0  0  0
  6  5  2  0  0  0
  6  7  1  0  0  0
 27 32  1  0  0  0
  3  7  1  0  0  0
  5  4  1  0  0  0
 45 44  1  0  0  0
 45 40  1  0  0  0
 29 30  2  0  0  0
  7  8  2  0  0  0
 44 43  1  0  0  0
 32 25  1  0  0  0
 32 31  2  0  0  0
 39 40  1  0  0  0
 39  1  1  0  0  0
 25 26  2  0  0  0
 40 41  1  0  0  0
  4  1  1  0  0  0
  4  2  2  0  0  0
 30 31  1  0  0  0
 30 33  1  0  0  0
 21  1  1  0  0  0
 21 22  1  0  0  0
  8  2  1  0  0  0
  8 13  1  0  0  0
 26 22  1  0  0  0
 43 42  1  0  0  0
 22 23  2  0  0  0
 41 42  1  0  0  0
 13  9  2  0  0  0
 13 10  1  0  0  0
  9 14  1  0  0  0
 10 11  2  0  0  0
 14 12  2  0  0  0
 11 12  1  0  0  0
 12 16  1  0  0  0
 17 15  2  0  0  0
 16 15  1  0  0  0
 15 19  1  0  0  0
 19 20  1  0  0  0
 21 24  1  0  0  0
 16 18  1  0  0  0
M  END
> <minimizedAffinity>
-8.74371

$$$$
6C0S_EEJ_A_301


 48 52  0  0  0  0  0  0  0  0999 V2000
   42.2814  -21.1595   30.2701 C   0  0  0  0  0  0  0  0  0  0  0  0
   44.7359  -21.2552   30.8152 C   0  0  0  0  0  0  0  0  0  0  0  0
   47.7996  -21.8220   28.2810 Cl  0  0  0  0  0  0  0  0  0  0  0  0
   43.7344  -21.1229   29.8592 C   0  0  0  0  0  0  0  0  0  0  0  0
   44.0027  -21.1115   28.5528 N   0  0  0  0  0  0  0  0  0  0  0  0
   45.2601  -21.2938   28.1305 N   0  0  0  0  0  0  0  0  0  0  0  0
   46.2433  -21.4762   28.9869 C   0  0  0  0  0  0  0  0  0  0  0  0
   46.0491  -21.4515   30.3857 C   0  0  0  0  0  0  0  0  0  0  0  0
   48.3843  -21.1270   31.2836 C   0  0  0  0  0  0  0  0  0  0  0  0
   46.8365  -22.4109   32.5769 C   0  0  0  0  0  0  0  0  0  0  0  0
   47.8086  -22.6189   33.5426 C   0  0  0  0  0  0  0  0  0  0  0  0
   49.0960  -22.1089   33.3714 C   0  0  0  0  0  0  0  0  0  0  0  0
   47.1020  -21.6625   31.4249 C   0  0  0  0  0  0  0  0  0  0  0  0
   49.3747  -21.3635   32.2249 C   0  0  0  0  0  0  0  0  0  0  0  0
   50.9845  -23.4387   34.3707 C   0  0  0  0  0  0  0  0  0  0  0  0
   50.0627  -22.4310   34.3764 N   0  0  0  0  0  0  0  0  0  0  0  0
   51.1210  -24.2865   33.5128 O   0  0  0  0  0  0  0  0  0  0  0  0
   50.0633  -21.8527   35.1731 H   0  0  0  0  0  0  0  0  0  0  0  0
   51.7302  -23.3742   35.4871 O   0  0  0  0  0  0  0  0  0  0  0  0
   52.5364  -22.1781   35.6513 C   0  0  0  0  0  0  0  0  0  0  0  0
   41.4526  -21.0512   29.0682 N   0  0  0  0  0  0  0  0  0  0  0  0
   40.3172  -20.3246   29.1405 C   0  0  0  0  0  0  0  0  0  0  0  0
   40.0083  -19.6998   30.1587 O   0  0  0  0  0  0  0  0  0  0  0  0
   41.7160  -21.4961   28.2304 H   0  0  0  0  0  0  0  0  0  0  0  0
   38.3689  -19.5961   27.7058 C   0  0  0  0  0  0  0  0  0  0  0  0
   39.4972  -20.2602   27.9083 C   0  0  0  0  0  0  0  0  0  0  0  0
   37.3774  -18.5272   25.6414 C   0  0  0  0  0  0  0  0  0  0  0  0
   36.6193  -18.6574   24.4768 C   0  0  0  0  0  0  0  0  0  0  0  0
   36.1013  -19.8882   24.1039 C   0  0  0  0  0  0  0  0  0  0  0  0
   36.3463  -20.9922   24.8963 C   0  0  0  0  0  0  0  0  0  0  0  0
   37.0906  -20.8944   26.0505 C   0  0  0  0  0  0  0  0  0  0  0  0
   37.6154  -19.6559   26.4438 C   0  0  0  0  0  0  0  0  0  0  0  0
   35.7332  -22.5562   24.4112 Cl  0  0  0  0  0  0  0  0  0  0  0  0
   39.2572  -16.8450   25.4270 C   0  0  0  0  0  0  0  0  0  0  0  0
   38.0942  -17.3160   25.8815 N   0  0  0  0  0  0  0  0  0  0  0  0
   39.4155  -15.6096   25.8155 N   0  0  0  0  0  0  0  0  0  0  0  0
   38.2862  -15.2949   26.4968 N   0  0  0  0  0  0  0  0  0  0  0  0
   37.4823  -16.3082   26.5514 N   0  0  0  0  0  0  0  0  0  0  0  0
   42.0381  -22.4158   31.1265 C   0  0  0  0  0  0  0  0  0  0  0  0
   42.1672  -23.7593   30.3664 C   0  0  0  0  0  0  0  0  0  0  0  0
   43.2055  -24.7123   30.9504 C   0  0  0  0  0  0  0  0  0  0  0  0
   43.3679  -25.9554   30.0851 C   0  0  0  0  0  0  0  0  0  0  0  0
   42.0167  -26.6208   29.8100 C   0  0  0  0  0  0  0  0  0  0  0  0
   40.9739  -25.6656   29.3868 N   0  0  0  0  0  0  0  0  0  0  0  0
   40.8379  -24.4988   30.2676 C   0  0  0  0  0  0  0  0  0  0  0  0
   40.2579  -25.8512   28.2321 C   0  0  0  0  0  0  0  0  0  0  0  0
   40.5409  -26.7473   27.4534 O   0  0  0  0  0  0  0  0  0  0  0  0
   39.1561  -24.8877   27.9137 C   0  0  0  0  0  0  0  0  0  0  0  0
 36 34  2  0  0  0
 36 37  1  0  0  0
 34 35  1  0  0  0
 48 46  1  0  0  0
 37 38  2  0  0  0
 35 38  1  0  0  0
 35 27  1  0  0  0
 46 47  2  0  0  0
 46 44  1  0  0  0
 28 27  2  0  0  0
 28 29  1  0  0  0
  6  5  2  0  0  0
  6  7  1  0  0  0
 27 32  1  0  0  0
  3  7  1  0  0  0
  5  4  1  0  0  0
 45 44  1  0  0  0
 45 40  1  0  0  0
 29 30  2  0  0  0
  7  8  2  0  0  0
 44 43  1  0  0  0
 32 25  1  0  0  0
 32 31  2  0  0  0
 39 40  1  0  0  0
 39  1  1  0  0  0
 25 26  2  0  0  0
 40 41  1  0  0  0
  4  1  1  0  0  0
  4  2  2  0  0  0
 30 31  1  0  0  0
 30 33  1  0  0  0
 21  1  1  0  0  0
 21 22  1  0  0  0
  8  2  1  0  0  0
  8 13  1  0  0  0
 26 22  1  0  0  0
 43 42  1  0  0  0
 22 23  2  0  0  0
 41 42  1  0  0  0
 13  9  2  0  0  0
 13 10  1  0  0  0
  9 14  1  0  0  0
 10 11  2  0  0  0
 14 12  2  0  0  0
 11 12  1  0  0  0
 12 16  1  0  0  0
 17 15  2  0  0  0
 16 15  1  0  0  0
 15 19  1  0  0  0
 19 20  1  0  0  0
 21 24  1  0  0  0
 16 18  1  0  0  0
M  END
> <minimizedAffinity>
-8.70021

$$$$
6C0S_EEJ_A_301


 48 52  0  0  0  0  0  0  0  0999 V2000
   38.9588  -19.9018   26.0105 C   0  0  0  0  0  0  0  0  0  0  0  0
   38.2264  -22.1884   25.2581 C   0  0  0  0  0  0  0  0  0  0  0  0
   37.7358  -23.5011   21.4944 Cl  0  0  0  0  0  0  0  0  0  0  0  0
   38.8062  -20.9632   24.9467 C   0  0  0  0  0  0  0  0  0  0  0  0
   39.1060  -20.6226   23.6925 N   0  0  0  0  0  0  0  0  0  0  0  0
   38.7896  -21.4467   22.6858 N   0  0  0  0  0  0  0  0  0  0  0  0
   38.1925  -22.5978   22.9140 C   0  0  0  0  0  0  0  0  0  0  0  0
   37.8874  -23.0523   24.2160 C   0  0  0  0  0  0  0  0  0  0  0  0
   35.8117  -24.4589   24.4951 C   0  0  0  0  0  0  0  0  0  0  0  0
   37.9327  -25.4535   24.9738 C   0  0  0  0  0  0  0  0  0  0  0  0
   37.3050  -26.6438   25.3055 C   0  0  0  0  0  0  0  0  0  0  0  0
   35.9138  -26.7440   25.2681 C   0  0  0  0  0  0  0  0  0  0  0  0
   37.2012  -24.3336   24.5632 C   0  0  0  0  0  0  0  0  0  0  0  0
   35.1724  -25.6330   24.8635 C   0  0  0  0  0  0  0  0  0  0  0  0
   34.8106  -28.9804   24.9296 C   0  0  0  0  0  0  0  0  0  0  0  0
   35.3387  -27.9822   25.6976 N   0  0  0  0  0  0  0  0  0  0  0  0
   34.6920  -28.9752   23.7216 O   0  0  0  0  0  0  0  0  0  0  0  0
   35.3216  -28.1335   26.6702 H   0  0  0  0  0  0  0  0  0  0  0  0
   34.4099  -29.9923   25.7184 O   0  0  0  0  0  0  0  0  0  0  0  0
   33.8634  -31.1548   25.0420 C   0  0  0  0  0  0  0  0  0  0  0  0
   40.0714  -20.2738   26.8861 N   0  0  0  0  0  0  0  0  0  0  0  0
   39.7863  -20.6769   28.1426 C   0  0  0  0  0  0  0  0  0  0  0  0
   38.6240  -20.8072   28.5360 O   0  0  0  0  0  0  0  0  0  0  0  0
   41.0020  -20.2312   26.5675 H   0  0  0  0  0  0  0  0  0  0  0  0
   41.5425  -22.1950   29.1404 C   0  0  0  0  0  0  0  0  0  0  0  0
   40.9427  -21.0219   29.0018 C   0  0  0  0  0  0  0  0  0  0  0  0
   42.8434  -23.6368   30.7580 C   0  0  0  0  0  0  0  0  0  0  0  0
   43.9028  -23.7638   31.6578 C   0  0  0  0  0  0  0  0  0  0  0  0
   44.7720  -22.7069   31.8807 C   0  0  0  0  0  0  0  0  0  0  0  0
   44.5831  -21.5215   31.1983 C   0  0  0  0  0  0  0  0  0  0  0  0
   43.5472  -21.3668   30.3046 C   0  0  0  0  0  0  0  0  0  0  0  0
   42.6566  -22.4239   30.0734 C   0  0  0  0  0  0  0  0  0  0  0  0
   45.6997  -20.1981   31.4411 Cl  0  0  0  0  0  0  0  0  0  0  0  0
   42.4101  -25.8412   29.5910 C   0  0  0  0  0  0  0  0  0  0  0  0
   42.1103  -24.7979   30.3672 N   0  0  0  0  0  0  0  0  0  0  0  0
   41.4613  -26.7338   29.6648 N   0  0  0  0  0  0  0  0  0  0  0  0
   40.5658  -26.2399   30.5552 N   0  0  0  0  0  0  0  0  0  0  0  0
   40.9355  -25.0760   30.9847 N   0  0  0  0  0  0  0  0  0  0  0  0
   39.0896  -18.5281   25.3275 C   0  0  0  0  0  0  0  0  0  0  0  0
   38.8937  -17.3111   26.2657 C   0  0  0  0  0  0  0  0  0  0  0  0
   38.8589  -15.9655   25.5475 C   0  0  0  0  0  0  0  0  0  0  0  0
   38.7895  -14.8093   26.5367 C   0  0  0  0  0  0  0  0  0  0  0  0
   37.6417  -14.9983   27.5323 C   0  0  0  0  0  0  0  0  0  0  0  0
   37.5935  -16.3546   28.1129 N   0  0  0  0  0  0  0  0  0  0  0  0
   37.6358  -17.4336   27.1180 C   0  0  0  0  0  0  0  0  0  0  0  0
   37.5758  -16.5532   29.4696 C   0  0  0  0  0  0  0  0  0  0  0  0
   37.7208  -15.6211   30.2439 O   0  0  0  0  0  0  0  0  0  0  0  0
   37.4373  -17.9534   29.9834 C   0  0  0  0  0  0  0  0  0  0  0  0
 36 34  2  0  0  0
 36 37  1  0  0  0
 34 35  1  0  0  0
 48 46  1  0  0  0
 37 38  2  0  0  0
 35 38  1  0  0  0
 35 27  1  0  0  0
 46 47  2  0  0  0
 46 44  1  0  0  0
 28 27  2  0  0  0
 28 29  1  0  0  0
  6  5  2  0  0  0
  6  7  1  0  0  0
 27 32  1  0  0  0
  3  7  1  0  0  0
  5  4  1  0  0  0
 45 44  1  0  0  0
 45 40  1  0  0  0
 29 30  2  0  0  0
  7  8  2  0  0  0
 44 43  1  0  0  0
 32 25  1  0  0  0
 32 31  2  0  0  0
 39 40  1  0  0  0
 39  1  1  0  0  0
 25 26  2  0  0  0
 40 41  1  0  0  0
  4  1  1  0  0  0
  4  2  2  0  0  0
 30 31  1  0  0  0
 30 33  1  0  0  0
 21  1  1  0  0  0
 21 22  1  0  0  0
  8  2  1  0  0  0
  8 13  1  0  0  0
 26 22  1  0  0  0
 43 42  1  0  0  0
 22 23  2  0  0  0
 41 42  1  0  0  0
 13  9  2  0  0  0
 13 10  1  0  0  0
  9 14  1  0  0  0
 10 11  2  0  0  0
 14 12  2  0  0  0
 11 12  1  0  0  0
 12 16  1  0  0  0
 17 15  2  0  0  0
 16 15  1  0  0  0
 15 19  1  0  0  0
 19 20  1  0  0  0
 21 24  1  0  0  0
 16 18  1  0  0  0
M  END
> <minimizedAffinity>
-8.67940

$$$$
