6C0S_EEJ_A_301
  RCSB PDB03171809583D
Coordinates from PDB:6C0S:A:301 Model:1 without hydrogens
 46 50  0  0  0  0            999 V2000
   45.9500  -20.8730   30.9580   C 0  0  0  0  0  0  0  0  0  0  0  0
   44.4280  -22.4450   31.9220   C 0  0  0  0  0  0  0  0  0  0  0  0
   45.3500  -22.7360   32.9150   C 0  0  0  0  0  0  0  0  0  0  0  0
   46.6020  -22.1200   32.9200   C 0  0  0  0  0  0  0  0  0  0  0  0
   37.7750  -15.0380   27.6760   C 0  0  0  0  0  0  0  0  0  0  0  0
   37.1050  -13.8170   27.5850   C 0  0  0  0  0  0  0  0  0  0  0  0
   35.9790  -13.5690   28.3550   C 0  0  0  0  0  0  0  0  0  0  0  0
   35.5200  -14.5470   29.2150   C 0  0  0  0  0  0  0  0  0  0  0  0
   36.1600  -15.7610   29.3260   C 0  0  0  0  0  0  0  0  0  0  0  0
   37.3030  -16.0240   28.5590   C 0  0  0  0  0  0  0  0  0  0  0  0
   42.3600  -21.1700   30.2040   C 0  0  0  0  0  0  0  0  0  0  0  0
   44.7070  -21.5090   30.9200   C 0  0  0  0  0  0  0  0  0  0  0  0
   48.8390  -22.1840   34.0710   C 0  0  0  0  0  0  0  0  0  0  0  0
   38.8830  -15.1410   25.4020   C 0  0  0  0  0  0  0  0  0  0  0  0
   34.0760  -14.2590   30.1580  Cl 0  0  0  0  0  0  0  0  0  0  0  0
   45.6130  -21.1290   27.8490  Cl 0  0  0  0  0  0  0  0  0  0  0  0
   39.2430  -19.8970   29.2330   N 0  0  0  0  0  0  0  0  0  0  0  0
   39.9450  -21.1540   29.4980   C 0  0  0  0  0  0  0  0  0  0  0  0
   41.4140  -20.9570   29.2070   C 0  0  0  0  0  0  0  0  0  0  0  0
   39.4390  -22.3710   28.7020   C 0  0  0  0  0  0  0  0  0  0  0  0
   41.7630  -20.7240   27.9410   N 0  0  0  0  0  0  0  0  0  0  0  0
   43.0550  -20.7540   27.5910   N 0  0  0  0  0  0  0  0  0  0  0  0
   43.9930  -21.0020   28.4810   C 0  0  0  0  0  0  0  0  0  0  0  0
   43.7090  -21.2090   29.8490   C 0  0  0  0  0  0  0  0  0  0  0  0
   46.8940  -21.1870   31.9240   C 0  0  0  0  0  0  0  0  0  0  0  0
   47.5250  -22.5300   33.9340   N 0  0  0  0  0  0  0  0  0  0  0  0
   38.7790  -15.3620   26.7140   N 0  0  0  0  0  0  0  0  0  0  0  0
   37.9740  -17.3200   28.7440   C 0  0  0  0  0  0  0  0  0  0  0  0
   40.0700  -15.4900   24.9880   N 0  0  0  0  0  0  0  0  0  0  0  0
   40.7360  -15.8990   26.0960   N 0  0  0  0  0  0  0  0  0  0  0  0
   39.9760  -15.8340   27.1420   N 0  0  0  0  0  0  0  0  0  0  0  0
   38.4970  -17.7070   29.8980   C 0  0  0  0  0  0  0  0  0  0  0  0
   39.2380  -18.9540   30.1990   C 0  0  0  0  0  0  0  0  0  0  0  0
   39.8650  -19.0980   31.2520   O 0  0  0  0  0  0  0  0  0  0  0  0
   49.4840  -21.4870   33.3150   O 0  0  0  0  0  0  0  0  0  0  0  0
   49.3420  -22.7530   35.1800   O 0  0  0  0  0  0  0  0  0  0  0  0
   50.7650  -22.5730   35.4040   C 0  0  0  0  0  0  0  0  0  0  0  0
   40.1290  -23.7130   29.0520   C 0  0  0  0  0  0  0  0  0  0  0  0
   40.0910  -24.0690   30.5350   C 0  0  0  0  0  0  0  0  0  0  0  0
   40.8920  -25.3320   30.8240   C 0  0  0  0  0  0  0  0  0  0  0  0
   40.4630  -26.4830   29.9100   C 0  0  0  0  0  0  0  0  0  0  0  0
   40.3580  -26.0900   28.4910   N 0  0  0  0  0  0  0  0  0  0  0  0
   39.5540  -24.8830   28.2620   C 0  0  0  0  0  0  0  0  0  0  0  0
   41.0190  -26.7780   27.5060   C 0  0  0  0  0  0  0  0  0  0  0  0
   41.8120  -27.6640   27.7810   O 0  0  0  0  0  0  0  0  0  0  0  0
   40.7940  -26.3750   26.0810   C 0  0  0  0  0  0  0  0  0  0  0  0
 29 14  2  0  0  0  0
 29 30  1  0  0  0  0
 14 27  1  0  0  0  0
 46 44  1  0  0  0  0
 30 31  2  0  0  0  0
 27 31  1  0  0  0  0
 27  5  1  0  0  0  0
 44 45  2  0  0  0  0
 44 42  1  0  0  0  0
  6  5  2  0  0  0  0
  6  7  1  0  0  0  0
 22 21  2  0  0  0  0
 22 23  1  0  0  0  0
  5 10  1  0  0  0  0
 16 23  1  0  0  0  0
 21 19  1  0  0  0  0
 43 42  1  0  0  0  0
 43 38  1  0  0  0  0
  7  8  2  0  0  0  0
 23 24  2  0  0  0  0
 42 41  1  0  0  0  0
 10 28  1  0  0  0  0
 10  9  2  0  0  0  0
 20 38  1  0  0  0  0
 20 18  1  0  0  0  0
 28 32  2  0  0  0  0
 38 39  1  0  0  0  0
 19 18  1  0  0  0  0
 19 11  2  0  0  0  0
  8  9  1  0  0  0  0
  8 15  1  0  0  0  0
 17 18  1  0  0  0  0
 17 33  1  0  0  0  0
 24 11  1  0  0  0  0
 24 12  1  0  0  0  0
 32 33  1  0  0  0  0
 41 40  1  0  0  0  0
 33 34  2  0  0  0  0
 39 40  1  0  0  0  0
 12  1  2  0  0  0  0
 12  2  1  0  0  0  0
  1 25  1  0  0  0  0
  2  3  2  0  0  0  0
 25  4  2  0  0  0  0
  3  4  1  0  0  0  0
  4 26  1  0  0  0  0
 35 13  2  0  0  0  0
 26 13  1  0  0  0  0
 13 36  1  0  0  0  0
 36 37  1  0  0  0  0
A    1
C13
A    2
C17
A    3
C16
A    4
C15
A    5
C19
A    6
C20
A    7
C21
A    8
C22
A    9
C23
A   10
C24
A   11
C11
A   12
C12
A   13
C34
A   14
C27
A   15
CL1
A   16
CL2
A   17
N3
A   18
C4
A   19
C5
A   20
C6
A   21
N7
A   22
N8
A   23
C9
A   24
C10
A   25
C14
A   26
N18
A   27
N25
A   28
C26
A   29
N28
A   30
N29
A   31
N30
A   32
C31
A   33
C32
A   34
O33
A   35
O35
A   36
O36
A   37
C37
A   38
C38
A   39
C39
A   40
C40
A   41
C41
A   42
N42
A   43
C43
A   44
C44
A   45
O45
A   46
C46
M  END
>  <InstanceId>
6C0S_EEJ_A_301

>  <ChemCompId>
EEJ

>  <PdbId>
6C0S

>  <ChainId>
A

>  <ResidueNumber>
301

>  <InsertionCode>


>  <Model>
1

>  <AltIds>


>  <MissingHeavyAtoms>
0

>  <ObservedFormula>
C31 N9 O4 Cl2

>  <Name>
methyl (4-{6-[(1S)-2-[(3R)-1-acetylpiperidin-3-yl]-1-({(2E)-3-[5-chloro-2-(1H-tetrazol-1-yl)phenyl]prop-2-enoyl}amino)ethyl]-3-chloropyridazin-4-yl}phenyl)carbamate

>  <SystematicName>
methyl ~{N}-[4-[3-chloranyl-6-[(1~{S})-1-[[(~{E})-3-[5-chloranyl-2-(1,2,3,4-tetrazol-1-yl)phenyl]prop-2-enoyl]amino]-2-[(3~{R})-1-ethanoylpiperidin-3-yl]ethyl]pyridazin-4-yl]phenyl]carbamate

>  <Synonyms>


>  <Type>
NON-POLYMER

>  <Formula>
C31 H31 Cl2 N9 O4

>  <MolecularWeight>
664.542

>  <ModifiedDate>
2018-03-02

>  <Parent>


>  <OneLetterCode>


>  <SubcomponentList>


>  <AmbiguousFlag>
N

>  <InChI>
InChI=1S/C31H31Cl2N9O4/c1-19(43)41-13-3-4-20(17-41)14-26(36-29(44)12-7-22-15-23(32)8-11-28(22)42-18-34-39-40-42)27-16-25(30(33)38-37-27)21-5-9-24(10-6-21)35-31(45)46-2/h5-12,15-16,18,20,26H,3-4,13-14,17H2,1-2H3,(H,35,45)(H,36,44)/b12-7+/t20-,26+/m1/s1

>  <InChIKey>
QCCGVMDYTWPPFU-BONIYOLGSA-N

>  <SMILES>
CC(=O)N1CCC[C@@H](C1)C[C@@H](c2cc(c(nn2)Cl)c3ccc(cc3)NC(=O)OC)NC(=O)/C=C/c4cc(ccc4n5cnnn5)Cl

$$$$
