2P3A_3TL_A_201


 74 77  0  0  0  0  0  0  0  0999 V2000
   18.8061    0.0005    0.4964 C   0  0  0  0  0  0  0  0  0  0  0  0
   20.1500   -0.0794    0.0488 O   0  0  0  0  0  0  0  0  0  0  0  0
   20.1734   -0.0093   -0.9184 H   0  0  0  0  0  0  0  0  0  0  0  0
   18.2327    1.3514    0.0807 C   0  0  0  0  0  0  0  0  0  0  0  0
   19.2700    2.3136    0.1654 O   0  0  0  0  0  0  0  0  0  0  0  0
   19.5749    2.3804    1.0838 H   0  0  0  0  0  0  0  0  0  0  0  0
   17.0984    1.8465    0.9532 C   0  0  0  0  0  0  0  0  0  0  0  0
   17.5163    1.8843    2.3438 N   0  0  0  0  0  0  0  0  0  0  0  0
   16.9131    1.2638    3.3650 C   0  0  0  0  0  0  0  0  0  0  0  0
   15.8003    0.7866    3.2873 O   0  0  0  0  0  0  0  0  0  0  0  0
   18.3177    2.4158    2.5549 H   0  0  0  0  0  0  0  0  0  0  0  0
   17.6660    1.2937    4.6728 C   0  0  0  0  0  0  0  0  0  0  0  0
   16.9183    2.2328    5.4929 N   0  0  0  0  0  0  0  0  0  0  0  0
   17.2831    3.4825    5.7675 C   0  0  0  0  0  0  0  0  0  0  0  0
   18.3017    4.0469    5.3719 O   0  0  0  0  0  0  0  0  0  0  0  0
   16.0692    1.9169    5.8781 H   0  0  0  0  0  0  0  0  0  0  0  0
   16.3575    4.1982    6.7015 C   0  0  0  0  0  0  0  0  0  0  0  0
   15.6800    3.2636    7.6907 C   0  0  0  0  0  0  0  0  0  0  0  0
   15.3578    4.8592    5.8867 N   0  0  0  0  0  0  0  0  0  0  0  0
   14.7166    5.9167    6.3415 C   0  0  0  0  0  0  0  0  0  0  0  0
   15.1661    6.7191    7.1459 O   0  0  0  0  0  0  0  0  0  0  0  0
   15.1561    4.5154    4.9865 H   0  0  0  0  0  0  0  0  0  0  0  0
   13.3911    6.1549    5.8357 O   0  0  0  0  0  0  0  0  0  0  0  0
   13.1852    7.4479    5.2400 C   0  0  0  0  0  0  0  0  0  0  0  0
   12.0566    7.4891    4.2309 C   0  0  0  0  0  0  0  0  0  0  0  0
   11.8169    6.3431    3.4565 C   0  0  0  0  0  0  0  0  0  0  0  0
   10.7937    6.3234    2.5064 C   0  0  0  0  0  0  0  0  0  0  0  0
    9.9852    7.4472    2.3160 C   0  0  0  0  0  0  0  0  0  0  0  0
   10.2212    8.6019    3.0875 C   0  0  0  0  0  0  0  0  0  0  0  0
   11.2465    8.6177    4.0494 C   0  0  0  0  0  0  0  0  0  0  0  0
   17.7899   -0.0766    5.3856 C   0  0  0  0  0  0  0  0  0  0  0  0
   17.8235   -1.2876    4.4737 C   0  0  0  0  0  0  0  0  0  0  0  0
   16.7129   -0.2979    6.4613 C   0  0  0  0  0  0  0  0  0  0  0  0
   16.7754    3.2276    0.3643 C   0  0  0  0  0  0  0  0  0  0  0  0
   16.6789    4.4021    1.3065 C   0  0  0  0  0  0  0  0  0  0  0  0
   15.4515    4.7491    1.8532 C   0  0  0  0  0  0  0  0  0  0  0  0
   17.8241    5.1670    1.5958 C   0  0  0  0  0  0  0  0  0  0  0  0
   15.3706    5.8380    2.7047 C   0  0  0  0  0  0  0  0  0  0  0  0
   17.7481    6.2700    2.4491 C   0  0  0  0  0  0  0  0  0  0  0  0
   16.5061    6.6080    2.9958 C   0  0  0  0  0  0  0  0  0  0  0  0
   18.0557   -1.1539   -0.1417 C   0  0  0  0  0  0  0  0  0  0  0  0
   17.1678   -1.0860   -2.4153 C   0  0  0  0  0  0  0  0  0  0  0  0
   16.0113   -1.0064   -2.0391 O   0  0  0  0  0  0  0  0  0  0  0  0
   18.2059   -1.1517   -1.5841 N   0  0  0  0  0  0  0  0  0  0  0  0
   19.1127   -1.2008   -1.9643 H   0  0  0  0  0  0  0  0  0  0  0  0
   17.4965   -1.1386   -3.8792 C   0  0  0  0  0  0  0  0  0  0  0  0
   17.6325   -3.1191   -5.1801 C   0  0  0  0  0  0  0  0  0  0  0  0
   18.7802   -2.8284   -5.4614 O   0  0  0  0  0  0  0  0  0  0  0  0
   16.8508   -2.3084   -4.4642 N   0  0  0  0  0  0  0  0  0  0  0  0
   15.8914   -2.4897   -4.3380 H   0  0  0  0  0  0  0  0  0  0  0  0
   17.0306   -4.4353   -5.6053 C   0  0  0  0  0  0  0  0  0  0  0  0
   15.5637   -4.2468   -5.9391 C   0  0  0  0  0  0  0  0  0  0  0  0
   17.2487   -6.7209   -4.7933 C   0  0  0  0  0  0  0  0  0  0  0  0
   17.0518   -7.2863   -5.8516 O   0  0  0  0  0  0  0  0  0  0  0  0
   17.1166   -5.4274   -4.5722 N   0  0  0  0  0  0  0  0  0  0  0  0
   17.0743   -5.1226   -3.6371 H   0  0  0  0  0  0  0  0  0  0  0  0
   17.6481   -7.4979   -3.6379 O   0  0  0  0  0  0  0  0  0  0  0  0
   17.7396   -8.9096   -3.7589 C   0  0  0  0  0  0  0  0  0  0  0  0
   18.7953   -9.4245   -2.8148 C   0  0  0  0  0  0  0  0  0  0  0  0
   19.6466   -8.5094   -2.1977 C   0  0  0  0  0  0  0  0  0  0  0  0
   20.6251   -8.9718   -1.3085 C   0  0  0  0  0  0  0  0  0  0  0  0
   20.7457  -10.3368   -1.0323 C   0  0  0  0  0  0  0  0  0  0  0  0
   19.8803  -11.2469   -1.6529 C   0  0  0  0  0  0  0  0  0  0  0  0
   18.8967  -10.7916   -2.5374 C   0  0  0  0  0  0  0  0  0  0  0  0
   17.1385    0.1269   -4.6697 C   0  0  0  0  0  0  0  0  0  0  0  0
   17.4681    1.3904   -3.8807 C   0  0  0  0  0  0  0  0  0  0  0  0
   15.6599    0.1048   -5.0872 C   0  0  0  0  0  0  0  0  0  0  0  0
   18.6753   -2.4219    0.4044 C   0  0  0  0  0  0  0  0  0  0  0  0
   17.7857   -3.5832    0.0806 C   0  0  0  0  0  0  0  0  0  0  0  0
   18.3336   -4.7058   -0.5724 C   0  0  0  0  0  0  0  0  0  0  0  0
   16.4322   -3.5294    0.4351 C   0  0  0  0  0  0  0  0  0  0  0  0
   17.5028   -5.7908   -0.8709 C   0  0  0  0  0  0  0  0  0  0  0  0
   15.6107   -4.6072    0.1309 C   0  0  0  0  0  0  0  0  0  0  0  0
   16.1443   -5.7340   -0.5122 C   0  0  0  0  0  0  0  0  0  0  0  0
 53 54  2  0  0  0
 53 57  1  0  0  0
 53 55  1  0  0  0
 57 58  1  0  0  0
 58 59  1  0  0  0
 59 60  2  0  0  0
 59 64  1  0  0  0
 60 61  1  0  0  0
 61 62  2  0  0  0
 62 63  1  0  0  0
 63 64  2  0  0  0
 55 51  1  0  0  0
 51 47  1  0  0  0
 51 52  1  0  0  0
 47 48  2  0  0  0
 47 49  1  0  0  0
 49 46  1  0  0  0
 46 42  1  0  0  0
 46 65  1  0  0  0
 42 43  2  0  0  0
 42 44  1  0  0  0
 65 66  1  0  0  0
 65 67  1  0  0  0
  1  2  1  0  0  0
  1 41  1  0  0  0
  1  4  1  0  0  0
 41 44  1  0  0  0
 41 68  1  0  0  0
 68 69  1  0  0  0
 69 70  2  0  0  0
 69 71  1  0  0  0
 70 72  1  0  0  0
 71 73  2  0  0  0
 72 74  2  0  0  0
 73 74  1  0  0  0
  8  7  1  0  0  0
  8  9  1  0  0  0
  7  4  1  0  0  0
  7 34  1  0  0  0
  4  5  1  0  0  0
 34 35  1  0  0  0
 35 36  2  0  0  0
 35 37  1  0  0  0
 36 38  1  0  0  0
 37 39  2  0  0  0
 38 40  2  0  0  0
 39 40  1  0  0  0
 13 12  1  0  0  0
 13 14  1  0  0  0
 12  9  1  0  0  0
 12 31  1  0  0  0
  9 10  2  0  0  0
 31 32  1  0  0  0
 31 33  1  0  0  0
 19 17  1  0  0  0
 19 20  1  0  0  0
 17 14  1  0  0  0
 17 18  1  0  0  0
 14 15  2  0  0  0
 20 21  2  0  0  0
 20 23  1  0  0  0
 23 24  1  0  0  0
 24 25  1  0  0  0
 25 26  2  0  0  0
 25 30  1  0  0  0
 26 27  1  0  0  0
 27 28  2  0  0  0
 28 29  1  0  0  0
 29 30  2  0  0  0
 55 56  1  0  0  0
 49 50  1  0  0  0
  2  3  1  0  0  0
 44 45  1  0  0  0
  8 11  1  0  0  0
  5  6  1  0  0  0
 13 16  1  0  0  0
 19 22  1  0  0  0
M  END
> <minimizedAffinity>
-11.25978

$$$$
2P3A_3TL_A_201


 74 77  0  0  0  0  0  0  0  0999 V2000
   18.8049   -0.0522    0.5397 C   0  0  0  0  0  0  0  0  0  0  0  0
   20.1501   -0.1907    0.1107 O   0  0  0  0  0  0  0  0  0  0  0  0
   20.1903   -0.1183   -0.8558 H   0  0  0  0  0  0  0  0  0  0  0  0
   18.2985    1.3246    0.1217 C   0  0  0  0  0  0  0  0  0  0  0  0
   19.3656    2.2466    0.2634 O   0  0  0  0  0  0  0  0  0  0  0  0
   19.6345    2.2894    1.1944 H   0  0  0  0  0  0  0  0  0  0  0  0
   17.1478    1.8491    0.9545 C   0  0  0  0  0  0  0  0  0  0  0  0
   17.4974    1.8231    2.3641 N   0  0  0  0  0  0  0  0  0  0  0  0
   16.8279    1.1830    3.3304 C   0  0  0  0  0  0  0  0  0  0  0  0
   15.7076    0.7417    3.1807 O   0  0  0  0  0  0  0  0  0  0  0  0
   18.3017    2.3227    2.6339 H   0  0  0  0  0  0  0  0  0  0  0  0
   17.5158    1.1423    4.6732 C   0  0  0  0  0  0  0  0  0  0  0  0
   16.8347    2.1625    5.4534 N   0  0  0  0  0  0  0  0  0  0  0  0
   17.3978    3.2589    5.9547 C   0  0  0  0  0  0  0  0  0  0  0  0
   18.5762    3.5905    5.8371 O   0  0  0  0  0  0  0  0  0  0  0  0
   15.8744    2.0308    5.6257 H   0  0  0  0  0  0  0  0  0  0  0  0
   16.4737    4.0967    6.7825 C   0  0  0  0  0  0  0  0  0  0  0  0
   15.7177    3.2870    7.8237 C   0  0  0  0  0  0  0  0  0  0  0  0
   15.5362    4.7232    5.8720 N   0  0  0  0  0  0  0  0  0  0  0  0
   14.8272    5.7658    6.2547 C   0  0  0  0  0  0  0  0  0  0  0  0
   15.1782    6.5866    7.0889 O   0  0  0  0  0  0  0  0  0  0  0  0
   15.4282    4.3669    4.9606 H   0  0  0  0  0  0  0  0  0  0  0  0
   13.5483    5.9629    5.6261 O   0  0  0  0  0  0  0  0  0  0  0  0
   13.3085    7.2904    5.1268 C   0  0  0  0  0  0  0  0  0  0  0  0
   12.1394    7.3870    4.1688 C   0  0  0  0  0  0  0  0  0  0  0  0
   11.4104    8.5859    4.1305 C   0  0  0  0  0  0  0  0  0  0  0  0
   10.3193    8.7321    3.2713 C   0  0  0  0  0  0  0  0  0  0  0  0
    9.9393    7.6845    2.4281 C   0  0  0  0  0  0  0  0  0  0  0  0
   10.6644    6.4774    2.4625 C   0  0  0  0  0  0  0  0  0  0  0  0
   11.7677    6.3343    3.3223 C   0  0  0  0  0  0  0  0  0  0  0  0
   17.4575   -0.2277    5.3948 C   0  0  0  0  0  0  0  0  0  0  0  0
   18.1242   -0.2790    6.7558 C   0  0  0  0  0  0  0  0  0  0  0  0
   17.9953   -1.3859    4.5372 C   0  0  0  0  0  0  0  0  0  0  0  0
   16.9221    3.2621    0.3969 C   0  0  0  0  0  0  0  0  0  0  0  0
   16.8122    4.4071    1.3732 C   0  0  0  0  0  0  0  0  0  0  0  0
   15.5613    4.8551    1.7734 C   0  0  0  0  0  0  0  0  0  0  0  0
   17.9757    5.0443    1.8430 C   0  0  0  0  0  0  0  0  0  0  0  0
   15.4708    5.9166    2.6579 C   0  0  0  0  0  0  0  0  0  0  0  0
   17.8911    6.1194    2.7305 C   0  0  0  0  0  0  0  0  0  0  0  0
   16.6249    6.5597    3.1284 C   0  0  0  0  0  0  0  0  0  0  0  0
   18.0126   -1.1695   -0.1137 C   0  0  0  0  0  0  0  0  0  0  0  0
   17.2633   -0.9921   -2.4309 C   0  0  0  0  0  0  0  0  0  0  0  0
   16.1162   -0.7267   -2.1160 O   0  0  0  0  0  0  0  0  0  0  0  0
   18.2344   -1.2096   -1.5463 N   0  0  0  0  0  0  0  0  0  0  0  0
   19.1402   -1.4057   -1.8784 H   0  0  0  0  0  0  0  0  0  0  0  0
   17.6536   -1.1147   -3.8754 C   0  0  0  0  0  0  0  0  0  0  0  0
   17.6301   -3.2418   -4.9278 C   0  0  0  0  0  0  0  0  0  0  0  0
   18.8450   -3.2011   -4.9860 O   0  0  0  0  0  0  0  0  0  0  0  0
   16.9074   -2.2168   -4.4720 N   0  0  0  0  0  0  0  0  0  0  0  0
   15.9250   -2.2051   -4.5349 H   0  0  0  0  0  0  0  0  0  0  0  0
   16.8662   -4.4735   -5.3460 C   0  0  0  0  0  0  0  0  0  0  0  0
   17.5569   -5.7135   -4.8129 C   0  0  0  0  0  0  0  0  0  0  0  0
   16.0407   -3.8360   -7.5467 C   0  0  0  0  0  0  0  0  0  0  0  0
   15.1341   -3.1157   -7.1752 O   0  0  0  0  0  0  0  0  0  0  0  0
   16.7862   -4.6009   -6.7730 N   0  0  0  0  0  0  0  0  0  0  0  0
   17.3230   -5.3055   -7.2028 H   0  0  0  0  0  0  0  0  0  0  0  0
   16.3558   -3.9080   -8.9587 O   0  0  0  0  0  0  0  0  0  0  0  0
   15.6735   -4.8557   -9.7663 C   0  0  0  0  0  0  0  0  0  0  0  0
   16.6260   -5.9555  -10.1587 C   0  0  0  0  0  0  0  0  0  0  0  0
   16.3954   -7.2443   -9.6804 C   0  0  0  0  0  0  0  0  0  0  0  0
   17.2653   -8.2794  -10.0461 C   0  0  0  0  0  0  0  0  0  0  0  0
   18.3515   -8.0296  -10.8898 C   0  0  0  0  0  0  0  0  0  0  0  0
   18.5698   -6.7318  -11.3700 C   0  0  0  0  0  0  0  0  0  0  0  0
   17.7015   -5.6944  -11.0138 C   0  0  0  0  0  0  0  0  0  0  0  0
   17.4805    0.1651   -4.7043 C   0  0  0  0  0  0  0  0  0  0  0  0
   17.7942    1.4106   -3.8810 C   0  0  0  0  0  0  0  0  0  0  0  0
   16.0662    0.2372   -5.3005 C   0  0  0  0  0  0  0  0  0  0  0  0
   18.5192   -2.4625    0.4877 C   0  0  0  0  0  0  0  0  0  0  0  0
   17.6595   -3.5949    0.0150 C   0  0  0  0  0  0  0  0  0  0  0  0
   16.2644   -3.5216    0.2027 C   0  0  0  0  0  0  0  0  0  0  0  0
   18.2592   -4.6984   -0.6041 C   0  0  0  0  0  0  0  0  0  0  0  0
   15.4626   -4.5779   -0.2424 C   0  0  0  0  0  0  0  0  0  0  0  0
   17.4586   -5.7469   -1.0386 C   0  0  0  0  0  0  0  0  0  0  0  0
   16.0680   -5.6840   -0.8648 C   0  0  0  0  0  0  0  0  0  0  0  0
 53 54  2  0  0  0
 53 57  1  0  0  0
 53 55  1  0  0  0
 57 58  1  0  0  0
 58 59  1  0  0  0
 59 60  2  0  0  0
 59 64  1  0  0  0
 60 61  1  0  0  0
 61 62  2  0  0  0
 62 63  1  0  0  0
 63 64  2  0  0  0
 55 51  1  0  0  0
 51 47  1  0  0  0
 51 52  1  0  0  0
 47 48  2  0  0  0
 47 49  1  0  0  0
 49 46  1  0  0  0
 46 42  1  0  0  0
 46 65  1  0  0  0
 42 43  2  0  0  0
 42 44  1  0  0  0
 65 66  1  0  0  0
 65 67  1  0  0  0
  1  2  1  0  0  0
  1 41  1  0  0  0
  1  4  1  0  0  0
 41 44  1  0  0  0
 41 68  1  0  0  0
 68 69  1  0  0  0
 69 70  2  0  0  0
 69 71  1  0  0  0
 70 72  1  0  0  0
 71 73  2  0  0  0
 72 74  2  0  0  0
 73 74  1  0  0  0
  8  7  1  0  0  0
  8  9  1  0  0  0
  7  4  1  0  0  0
  7 34  1  0  0  0
  4  5  1  0  0  0
 34 35  1  0  0  0
 35 36  2  0  0  0
 35 37  1  0  0  0
 36 38  1  0  0  0
 37 39  2  0  0  0
 38 40  2  0  0  0
 39 40  1  0  0  0
 13 12  1  0  0  0
 13 14  1  0  0  0
 12  9  1  0  0  0
 12 31  1  0  0  0
  9 10  2  0  0  0
 31 32  1  0  0  0
 31 33  1  0  0  0
 19 17  1  0  0  0
 19 20  1  0  0  0
 17 14  1  0  0  0
 17 18  1  0  0  0
 14 15  2  0  0  0
 20 21  2  0  0  0
 20 23  1  0  0  0
 23 24  1  0  0  0
 24 25  1  0  0  0
 25 26  2  0  0  0
 25 30  1  0  0  0
 26 27  1  0  0  0
 27 28  2  0  0  0
 28 29  1  0  0  0
 29 30  2  0  0  0
 55 56  1  0  0  0
 49 50  1  0  0  0
  2  3  1  0  0  0
 44 45  1  0  0  0
  8 11  1  0  0  0
  5  6  1  0  0  0
 13 16  1  0  0  0
 19 22  1  0  0  0
M  END
> <minimizedAffinity>
-11.08248

$$$$
2P3A_3TL_A_201


 74 77  0  0  0  0  0  0  0  0999 V2000
   18.8861   -0.1587    0.4131 C   0  0  0  0  0  0  0  0  0  0  0  0
   20.2467   -0.2243    0.0167 O   0  0  0  0  0  0  0  0  0  0  0  0
   20.3110   -0.0910   -0.9419 H   0  0  0  0  0  0  0  0  0  0  0  0
   18.3422    1.2231    0.0644 C   0  0  0  0  0  0  0  0  0  0  0  0
   19.3536    2.1763    0.3432 O   0  0  0  0  0  0  0  0  0  0  0  0
   19.5613    2.1595    1.2906 H   0  0  0  0  0  0  0  0  0  0  0  0
   17.1182    1.6334    0.8558 C   0  0  0  0  0  0  0  0  0  0  0  0
   17.4454    1.7347    2.2674 N   0  0  0  0  0  0  0  0  0  0  0  0
   16.8255    1.0971    3.2678 C   0  0  0  0  0  0  0  0  0  0  0  0
   15.7560    0.5392    3.1370 O   0  0  0  0  0  0  0  0  0  0  0  0
   18.1928    2.3274    2.5109 H   0  0  0  0  0  0  0  0  0  0  0  0
   17.4920    1.2127    4.6171 C   0  0  0  0  0  0  0  0  0  0  0  0
   16.8539    2.3650    5.2320 N   0  0  0  0  0  0  0  0  0  0  0  0
   17.4834    3.4333    5.7146 C   0  0  0  0  0  0  0  0  0  0  0  0
   18.6984    3.6233    5.7151 O   0  0  0  0  0  0  0  0  0  0  0  0
   15.8716    2.3540    5.2970 H   0  0  0  0  0  0  0  0  0  0  0  0
   16.5786    4.4356    6.3611 C   0  0  0  0  0  0  0  0  0  0  0  0
   16.9429    5.8697    6.0121 C   0  0  0  0  0  0  0  0  0  0  0  0
   16.6789    4.2382    7.7934 N   0  0  0  0  0  0  0  0  0  0  0  0
   15.5962    4.2259    8.5443 C   0  0  0  0  0  0  0  0  0  0  0  0
   14.4867    3.8743    8.1725 O   0  0  0  0  0  0  0  0  0  0  0  0
   17.5627    4.1122    8.2085 H   0  0  0  0  0  0  0  0  0  0  0  0
   15.7368    4.6408    9.9146 O   0  0  0  0  0  0  0  0  0  0  0  0
   15.5926    6.0533   10.1454 C   0  0  0  0  0  0  0  0  0  0  0  0
   14.1814    6.5684    9.9537 C   0  0  0  0  0  0  0  0  0  0  0  0
   13.9585    7.5410    8.9663 C   0  0  0  0  0  0  0  0  0  0  0  0
   12.6797    8.0573    8.7470 C   0  0  0  0  0  0  0  0  0  0  0  0
   11.5966    7.6068    9.5064 C   0  0  0  0  0  0  0  0  0  0  0  0
   11.8127    6.6328   10.5009 C   0  0  0  0  0  0  0  0  0  0  0  0
   13.0992    6.1079   10.7152 C   0  0  0  0  0  0  0  0  0  0  0  0
   17.3531   -0.0373    5.5224 C   0  0  0  0  0  0  0  0  0  0  0  0
   18.0466    0.0495    6.8681 C   0  0  0  0  0  0  0  0  0  0  0  0
   17.7862   -1.3388    4.8264 C   0  0  0  0  0  0  0  0  0  0  0  0
   16.7133    2.9690    0.2150 C   0  0  0  0  0  0  0  0  0  0  0  0
   16.6383    4.1914    1.0963 C   0  0  0  0  0  0  0  0  0  0  0  0
   15.4653    4.4780    1.7802 C   0  0  0  0  0  0  0  0  0  0  0  0
   17.7421    5.0591    1.1900 C   0  0  0  0  0  0  0  0  0  0  0  0
   15.4014    5.6105    2.5743 C   0  0  0  0  0  0  0  0  0  0  0  0
   17.6821    6.2062    1.9844 C   0  0  0  0  0  0  0  0  0  0  0  0
   16.4955    6.4827    2.6708 C   0  0  0  0  0  0  0  0  0  0  0  0
   18.1529   -1.2600   -0.3302 C   0  0  0  0  0  0  0  0  0  0  0  0
   17.3018   -1.0128   -2.6055 C   0  0  0  0  0  0  0  0  0  0  0  0
   16.1385   -0.9732   -2.2438 O   0  0  0  0  0  0  0  0  0  0  0  0
   18.3267   -1.1385   -1.7648 N   0  0  0  0  0  0  0  0  0  0  0  0
   19.2400   -1.1493   -2.1323 H   0  0  0  0  0  0  0  0  0  0  0  0
   17.6548   -0.9428   -4.0630 C   0  0  0  0  0  0  0  0  0  0  0  0
   17.4670   -2.8513   -5.4613 C   0  0  0  0  0  0  0  0  0  0  0  0
   18.6778   -2.8525   -5.5838 O   0  0  0  0  0  0  0  0  0  0  0  0
   16.8228   -1.8917   -4.7943 N   0  0  0  0  0  0  0  0  0  0  0  0
   15.8404   -1.8277   -4.7958 H   0  0  0  0  0  0  0  0  0  0  0  0
   16.6197   -3.9580   -6.0383 C   0  0  0  0  0  0  0  0  0  0  0  0
   15.6171   -3.3811   -7.0185 C   0  0  0  0  0  0  0  0  0  0  0  0
   15.8469   -5.9713   -4.9068 C   0  0  0  0  0  0  0  0  0  0  0  0
   16.1878   -6.7727   -5.7555 O   0  0  0  0  0  0  0  0  0  0  0  0
   15.8830   -4.6583   -5.0255 N   0  0  0  0  0  0  0  0  0  0  0  0
   15.3708   -4.1236   -4.3766 H   0  0  0  0  0  0  0  0  0  0  0  0
   15.3309   -6.4540   -3.6423 O   0  0  0  0  0  0  0  0  0  0  0  0
   14.7309   -7.7398   -3.5922 C   0  0  0  0  0  0  0  0  0  0  0  0
   13.2513   -7.5914   -3.3477 C   0  0  0  0  0  0  0  0  0  0  0  0
   12.7500   -6.3346   -3.0132 C   0  0  0  0  0  0  0  0  0  0  0  0
   11.3753   -6.1785   -2.7946 C   0  0  0  0  0  0  0  0  0  0  0  0
   10.5083   -7.2681   -2.9179 C   0  0  0  0  0  0  0  0  0  0  0  0
   11.0223   -8.5252   -3.2612 C   0  0  0  0  0  0  0  0  0  0  0  0
   12.3934   -8.6871   -3.4870 C   0  0  0  0  0  0  0  0  0  0  0  0
   17.5549    0.4553   -4.6875 C   0  0  0  0  0  0  0  0  0  0  0  0
   17.9364    1.5425   -3.6875 C   0  0  0  0  0  0  0  0  0  0  0  0
   16.1478    0.6953   -5.2563 C   0  0  0  0  0  0  0  0  0  0  0  0
   18.7710   -2.5658    0.1201 C   0  0  0  0  0  0  0  0  0  0  0  0
   17.7725   -3.6691   -0.0557 C   0  0  0  0  0  0  0  0  0  0  0  0
   18.1930   -4.8916   -0.6175 C   0  0  0  0  0  0  0  0  0  0  0  0
   16.4463   -3.4632    0.3434 C   0  0  0  0  0  0  0  0  0  0  0  0
   17.2607   -5.9220   -0.7777 C   0  0  0  0  0  0  0  0  0  0  0  0
   15.5237   -4.4878    0.1763 C   0  0  0  0  0  0  0  0  0  0  0  0
   15.9300   -5.7123   -0.3747 C   0  0  0  0  0  0  0  0  0  0  0  0
 53 54  2  0  0  0
 53 57  1  0  0  0
 53 55  1  0  0  0
 57 58  1  0  0  0
 58 59  1  0  0  0
 59 60  2  0  0  0
 59 64  1  0  0  0
 60 61  1  0  0  0
 61 62  2  0  0  0
 62 63  1  0  0  0
 63 64  2  0  0  0
 55 51  1  0  0  0
 51 47  1  0  0  0
 51 52  1  0  0  0
 47 48  2  0  0  0
 47 49  1  0  0  0
 49 46  1  0  0  0
 46 42  1  0  0  0
 46 65  1  0  0  0
 42 43  2  0  0  0
 42 44  1  0  0  0
 65 66  1  0  0  0
 65 67  1  0  0  0
  1  2  1  0  0  0
  1 41  1  0  0  0
  1  4  1  0  0  0
 41 44  1  0  0  0
 41 68  1  0  0  0
 68 69  1  0  0  0
 69 70  2  0  0  0
 69 71  1  0  0  0
 70 72  1  0  0  0
 71 73  2  0  0  0
 72 74  2  0  0  0
 73 74  1  0  0  0
  8  7  1  0  0  0
  8  9  1  0  0  0
  7  4  1  0  0  0
  7 34  1  0  0  0
  4  5  1  0  0  0
 34 35  1  0  0  0
 35 36  2  0  0  0
 35 37  1  0  0  0
 36 38  1  0  0  0
 37 39  2  0  0  0
 38 40  2  0  0  0
 39 40  1  0  0  0
 13 12  1  0  0  0
 13 14  1  0  0  0
 12  9  1  0  0  0
 12 31  1  0  0  0
  9 10  2  0  0  0
 31 32  1  0  0  0
 31 33  1  0  0  0
 19 17  1  0  0  0
 19 20  1  0  0  0
 17 14  1  0  0  0
 17 18  1  0  0  0
 14 15  2  0  0  0
 20 21  2  0  0  0
 20 23  1  0  0  0
 23 24  1  0  0  0
 24 25  1  0  0  0
 25 26  2  0  0  0
 25 30  1  0  0  0
 26 27  1  0  0  0
 27 28  2  0  0  0
 28 29  1  0  0  0
 29 30  2  0  0  0
 55 56  1  0  0  0
 49 50  1  0  0  0
  2  3  1  0  0  0
 44 45  1  0  0  0
  8 11  1  0  0  0
  5  6  1  0  0  0
 13 16  1  0  0  0
 19 22  1  0  0  0
M  END
> <minimizedAffinity>
-10.67695

$$$$
2P3A_3TL_A_201


 74 77  0  0  0  0  0  0  0  0999 V2000
   18.0286    0.7589   -0.2402 C   0  0  0  0  0  0  0  0  0  0  0  0
   18.4940    1.5372   -1.3314 O   0  0  0  0  0  0  0  0  0  0  0  0
   17.7998    1.5953   -2.0064 H   0  0  0  0  0  0  0  0  0  0  0  0
   16.8051    1.4434    0.3608 C   0  0  0  0  0  0  0  0  0  0  0  0
   16.6634    2.7111   -0.2571 O   0  0  0  0  0  0  0  0  0  0  0  0
   17.4435    3.2542   -0.0636 H   0  0  0  0  0  0  0  0  0  0  0  0
   16.8922    1.6864    1.8529 C   0  0  0  0  0  0  0  0  0  0  0  0
   16.3475    2.9925    2.1801 N   0  0  0  0  0  0  0  0  0  0  0  0
   16.7861    3.8102    3.1448 C   0  0  0  0  0  0  0  0  0  0  0  0
   17.5437    3.4536    4.0230 O   0  0  0  0  0  0  0  0  0  0  0  0
   15.5847    3.3056    1.6422 H   0  0  0  0  0  0  0  0  0  0  0  0
   16.1833    5.1939    3.1407 C   0  0  0  0  0  0  0  0  0  0  0  0
   15.5648    5.3169    4.4504 N   0  0  0  0  0  0  0  0  0  0  0  0
   14.4337    5.9658    4.7151 C   0  0  0  0  0  0  0  0  0  0  0  0
   13.7276    6.5590    3.9014 O   0  0  0  0  0  0  0  0  0  0  0  0
   16.0220    4.8828    5.2066 H   0  0  0  0  0  0  0  0  0  0  0  0
   14.0708    5.9942    6.1672 C   0  0  0  0  0  0  0  0  0  0  0  0
   13.3495    7.2705    6.5695 C   0  0  0  0  0  0  0  0  0  0  0  0
   15.3049    5.8705    6.9170 N   0  0  0  0  0  0  0  0  0  0  0  0
   15.5499    4.7886    7.6282 C   0  0  0  0  0  0  0  0  0  0  0  0
   15.1252    3.6709    7.3767 O   0  0  0  0  0  0  0  0  0  0  0  0
   15.9652    6.6004    6.8948 H   0  0  0  0  0  0  0  0  0  0  0  0
   16.4001    4.9326    8.7798 O   0  0  0  0  0  0  0  0  0  0  0  0
   15.7237    4.9022   10.0489 C   0  0  0  0  0  0  0  0  0  0  0  0
   14.5692    5.8766   10.1557 C   0  0  0  0  0  0  0  0  0  0  0  0
   13.2636    5.3609   10.1557 C   0  0  0  0  0  0  0  0  0  0  0  0
   12.1592    6.2107   10.2465 C   0  0  0  0  0  0  0  0  0  0  0  0
   12.3383    7.5931   10.3459 C   0  0  0  0  0  0  0  0  0  0  0  0
   13.6453    8.1183   10.3441 C   0  0  0  0  0  0  0  0  0  0  0  0
   14.7566    7.2611   10.2607 C   0  0  0  0  0  0  0  0  0  0  0  0
   17.1934    6.3447    2.9027 C   0  0  0  0  0  0  0  0  0  0  0  0
   18.2531    6.0779    1.8515 C   0  0  0  0  0  0  0  0  0  0  0  0
   17.8849    6.8183    4.1925 C   0  0  0  0  0  0  0  0  0  0  0  0
   16.0978    0.5153    2.4494 C   0  0  0  0  0  0  0  0  0  0  0  0
   16.5918   -0.1036    3.7337 C   0  0  0  0  0  0  0  0  0  0  0  0
   16.1193    0.3643    4.9517 C   0  0  0  0  0  0  0  0  0  0  0  0
   17.5601   -1.1241    3.6952 C   0  0  0  0  0  0  0  0  0  0  0  0
   16.5904   -0.1999    6.1252 C   0  0  0  0  0  0  0  0  0  0  0  0
   18.0438   -1.6931    4.8753 C   0  0  0  0  0  0  0  0  0  0  0  0
   17.5579   -1.2148    6.0962 C   0  0  0  0  0  0  0  0  0  0  0  0
   17.6965   -0.6177   -0.7857 C   0  0  0  0  0  0  0  0  0  0  0  0
   17.2139   -1.1758   -3.1133 C   0  0  0  0  0  0  0  0  0  0  0  0
   16.0635   -1.4991   -2.8733 O   0  0  0  0  0  0  0  0  0  0  0  0
   18.0605   -0.7362   -2.1845 N   0  0  0  0  0  0  0  0  0  0  0  0
   18.9710   -0.4810   -2.4585 H   0  0  0  0  0  0  0  0  0  0  0  0
   17.7651   -1.2787   -4.5060 C   0  0  0  0  0  0  0  0  0  0  0  0
   17.7000   -3.4436   -5.4766 C   0  0  0  0  0  0  0  0  0  0  0  0
   18.8922   -3.5525   -5.2583 O   0  0  0  0  0  0  0  0  0  0  0  0
   17.0334   -2.3151   -5.2257 N   0  0  0  0  0  0  0  0  0  0  0  0
   16.0994   -2.1891   -5.5105 H   0  0  0  0  0  0  0  0  0  0  0  0
   16.8947   -4.5962   -6.0231 C   0  0  0  0  0  0  0  0  0  0  0  0
   15.5177   -4.1131   -6.4342 C   0  0  0  0  0  0  0  0  0  0  0  0
   16.7720   -6.9275   -5.3293 C   0  0  0  0  0  0  0  0  0  0  0  0
   16.7092   -7.4215   -6.4386 O   0  0  0  0  0  0  0  0  0  0  0  0
   16.7173   -5.6389   -5.0534 N   0  0  0  0  0  0  0  0  0  0  0  0
   16.5434   -5.3752   -4.1209 H   0  0  0  0  0  0  0  0  0  0  0  0
   16.9001   -7.7921   -4.1742 O   0  0  0  0  0  0  0  0  0  0  0  0
   17.6465   -7.3364   -3.0557 C   0  0  0  0  0  0  0  0  0  0  0  0
   18.6563   -8.3856   -2.6681 C   0  0  0  0  0  0  0  0  0  0  0  0
   19.7669   -8.0022   -1.9180 C   0  0  0  0  0  0  0  0  0  0  0  0
   20.7081   -8.9682   -1.5399 C   0  0  0  0  0  0  0  0  0  0  0  0
   20.5359  -10.3074   -1.9016 C   0  0  0  0  0  0  0  0  0  0  0  0
   19.4125  -10.6825   -2.6497 C   0  0  0  0  0  0  0  0  0  0  0  0
   18.4652   -9.7241   -3.0255 C   0  0  0  0  0  0  0  0  0  0  0  0
   17.7646    0.0333   -5.3017 C   0  0  0  0  0  0  0  0  0  0  0  0
   16.6085    0.9381   -4.8865 C   0  0  0  0  0  0  0  0  0  0  0  0
   17.7320   -0.2489   -6.8118 C   0  0  0  0  0  0  0  0  0  0  0  0
   18.5217   -1.6049    0.0111 C   0  0  0  0  0  0  0  0  0  0  0  0
   17.7923   -2.9118    0.0816 C   0  0  0  0  0  0  0  0  0  0  0  0
   16.4304   -2.9184    0.4452 C   0  0  0  0  0  0  0  0  0  0  0  0
   18.4773   -4.0959   -0.2170 C   0  0  0  0  0  0  0  0  0  0  0  0
   15.7497   -4.1389    0.5070 C   0  0  0  0  0  0  0  0  0  0  0  0
   17.7978   -5.3053   -0.1481 C   0  0  0  0  0  0  0  0  0  0  0  0
   16.4404   -5.3260    0.2053 C   0  0  0  0  0  0  0  0  0  0  0  0
 53 54  2  0  0  0
 53 57  1  0  0  0
 53 55  1  0  0  0
 57 58  1  0  0  0
 58 59  1  0  0  0
 59 60  2  0  0  0
 59 64  1  0  0  0
 60 61  1  0  0  0
 61 62  2  0  0  0
 62 63  1  0  0  0
 63 64  2  0  0  0
 55 51  1  0  0  0
 51 47  1  0  0  0
 51 52  1  0  0  0
 47 48  2  0  0  0
 47 49  1  0  0  0
 49 46  1  0  0  0
 46 42  1  0  0  0
 46 65  1  0  0  0
 42 43  2  0  0  0
 42 44  1  0  0  0
 65 66  1  0  0  0
 65 67  1  0  0  0
  1  2  1  0  0  0
  1 41  1  0  0  0
  1  4  1  0  0  0
 41 44  1  0  0  0
 41 68  1  0  0  0
 68 69  1  0  0  0
 69 70  2  0  0  0
 69 71  1  0  0  0
 70 72  1  0  0  0
 71 73  2  0  0  0
 72 74  2  0  0  0
 73 74  1  0  0  0
  8  7  1  0  0  0
  8  9  1  0  0  0
  7  4  1  0  0  0
  7 34  1  0  0  0
  4  5  1  0  0  0
 34 35  1  0  0  0
 35 36  2  0  0  0
 35 37  1  0  0  0
 36 38  1  0  0  0
 37 39  2  0  0  0
 38 40  2  0  0  0
 39 40  1  0  0  0
 13 12  1  0  0  0
 13 14  1  0  0  0
 12  9  1  0  0  0
 12 31  1  0  0  0
  9 10  2  0  0  0
 31 32  1  0  0  0
 31 33  1  0  0  0
 19 17  1  0  0  0
 19 20  1  0  0  0
 17 14  1  0  0  0
 17 18  1  0  0  0
 14 15  2  0  0  0
 20 21  2  0  0  0
 20 23  1  0  0  0
 23 24  1  0  0  0
 24 25  1  0  0  0
 25 26  2  0  0  0
 25 30  1  0  0  0
 26 27  1  0  0  0
 27 28  2  0  0  0
 28 29  1  0  0  0
 29 30  2  0  0  0
 55 56  1  0  0  0
 49 50  1  0  0  0
  2  3  1  0  0  0
 44 45  1  0  0  0
  8 11  1  0  0  0
  5  6  1  0  0  0
 13 16  1  0  0  0
 19 22  1  0  0  0
M  END
> <minimizedAffinity>
-10.37201

$$$$
2P3A_3TL_A_201


 74 77  0  0  0  0  0  0  0  0999 V2000
   18.7029    0.2300    1.0768 C   0  0  0  0  0  0  0  0  0  0  0  0
   20.0342    0.4853    1.4954 O   0  0  0  0  0  0  0  0  0  0  0  0
   20.5873   -0.2882    1.3038 H   0  0  0  0  0  0  0  0  0  0  0  0
   18.7040   -0.0216   -0.4277 C   0  0  0  0  0  0  0  0  0  0  0  0
   19.9916   -0.4874   -0.7940 O   0  0  0  0  0  0  0  0  0  0  0  0
   20.6508    0.1966   -0.5978 H   0  0  0  0  0  0  0  0  0  0  0  0
   18.4223    1.2056   -1.2689 C   0  0  0  0  0  0  0  0  0  0  0  0
   18.3858    0.8499   -2.6767 N   0  0  0  0  0  0  0  0  0  0  0  0
   17.8587   -0.2665   -3.1940 C   0  0  0  0  0  0  0  0  0  0  0  0
   17.5591   -1.2316   -2.5225 O   0  0  0  0  0  0  0  0  0  0  0  0
   18.7860    1.4893   -3.3093 H   0  0  0  0  0  0  0  0  0  0  0  0
   17.7633   -0.2966   -4.7001 C   0  0  0  0  0  0  0  0  0  0  0  0
   17.4536   -1.6827   -5.0098 N   0  0  0  0  0  0  0  0  0  0  0  0
   17.7273   -2.3001   -6.1562 C   0  0  0  0  0  0  0  0  0  0  0  0
   18.2877   -1.8059   -7.1330 O   0  0  0  0  0  0  0  0  0  0  0  0
   17.0027   -2.2099   -4.3112 H   0  0  0  0  0  0  0  0  0  0  0  0
   17.2258   -3.7089   -6.2266 C   0  0  0  0  0  0  0  0  0  0  0  0
   15.8177   -3.8056   -6.7914 C   0  0  0  0  0  0  0  0  0  0  0  0
   17.2511   -4.2378   -4.8775 N   0  0  0  0  0  0  0  0  0  0  0  0
   18.3542   -4.7651   -4.3864 C   0  0  0  0  0  0  0  0  0  0  0  0
   19.4892   -4.4480   -4.7091 O   0  0  0  0  0  0  0  0  0  0  0  0
   16.4378   -4.2028   -4.3238 H   0  0  0  0  0  0  0  0  0  0  0  0
   18.2097   -5.7800   -3.3771 O   0  0  0  0  0  0  0  0  0  0  0  0
   19.4421   -6.3357   -2.8855 C   0  0  0  0  0  0  0  0  0  0  0  0
   19.3592   -7.8073   -2.5369 C   0  0  0  0  0  0  0  0  0  0  0  0
   18.1908   -8.5055   -2.8802 C   0  0  0  0  0  0  0  0  0  0  0  0
   18.0545   -9.8624   -2.5799 C   0  0  0  0  0  0  0  0  0  0  0  0
   19.0866  -10.5503   -1.9361 C   0  0  0  0  0  0  0  0  0  0  0  0
   20.2612   -9.8558   -1.5862 C   0  0  0  0  0  0  0  0  0  0  0  0
   20.4004   -8.4916   -1.8963 C   0  0  0  0  0  0  0  0  0  0  0  0
   16.6965    0.6505   -5.3052 C   0  0  0  0  0  0  0  0  0  0  0  0
   16.7638    2.0927   -4.8417 C   0  0  0  0  0  0  0  0  0  0  0  0
   15.2581    0.1382   -5.1187 C   0  0  0  0  0  0  0  0  0  0  0  0
   17.0791    1.7098   -0.7210 C   0  0  0  0  0  0  0  0  0  0  0  0
   17.0491    3.0450   -0.0189 C   0  0  0  0  0  0  0  0  0  0  0  0
   15.8446    3.5525    0.4474 C   0  0  0  0  0  0  0  0  0  0  0  0
   18.2340    3.7904    0.1247 C   0  0  0  0  0  0  0  0  0  0  0  0
   15.8252    4.7857    1.0768 C   0  0  0  0  0  0  0  0  0  0  0  0
   18.2203    5.0376    0.7531 C   0  0  0  0  0  0  0  0  0  0  0  0
   17.0007    5.5370    1.2210 C   0  0  0  0  0  0  0  0  0  0  0  0
   18.2172   -0.9802    1.8529 C   0  0  0  0  0  0  0  0  0  0  0  0
   17.7091    0.5541    3.6833 C   0  0  0  0  0  0  0  0  0  0  0  0
   17.5462    1.5046    2.9379 O   0  0  0  0  0  0  0  0  0  0  0  0
   18.0214   -0.6675    3.2555 N   0  0  0  0  0  0  0  0  0  0  0  0
   18.1236   -1.3880    3.9185 H   0  0  0  0  0  0  0  0  0  0  0  0
   17.5856    0.7156    5.1707 C   0  0  0  0  0  0  0  0  0  0  0  0
   17.5233    2.7480    6.3949 C   0  0  0  0  0  0  0  0  0  0  0  0
   18.4325    2.3316    7.0885 O   0  0  0  0  0  0  0  0  0  0  0  0
   16.9488    1.9971    5.4531 N   0  0  0  0  0  0  0  0  0  0  0  0
   16.1400    2.2918    4.9754 H   0  0  0  0  0  0  0  0  0  0  0  0
   17.0068    4.1575    6.5429 C   0  0  0  0  0  0  0  0  0  0  0  0
   15.5104    4.1347    6.7860 C   0  0  0  0  0  0  0  0  0  0  0  0
   17.5120    6.2370    5.3802 C   0  0  0  0  0  0  0  0  0  0  0  0
   17.3395    6.9910    6.3185 O   0  0  0  0  0  0  0  0  0  0  0  0
   17.2435    4.9457    5.3674 N   0  0  0  0  0  0  0  0  0  0  0  0
   17.2029    4.4930    4.4941 H   0  0  0  0  0  0  0  0  0  0  0  0
   18.0403    6.7609    4.1374 O   0  0  0  0  0  0  0  0  0  0  0  0
   17.6032    8.0352    3.6893 C   0  0  0  0  0  0  0  0  0  0  0  0
   18.7630    8.7719    3.0705 C   0  0  0  0  0  0  0  0  0  0  0  0
   18.8568   10.1504    3.2550 C   0  0  0  0  0  0  0  0  0  0  0  0
   19.9355   10.8472    2.6959 C   0  0  0  0  0  0  0  0  0  0  0  0
   20.9167   10.1702    1.9658 C   0  0  0  0  0  0  0  0  0  0  0  0
   20.8160    8.7837    1.7925 C   0  0  0  0  0  0  0  0  0  0  0  0
   19.7446    8.0804    2.3532 C   0  0  0  0  0  0  0  0  0  0  0  0
   16.8473   -0.4230    5.8871 C   0  0  0  0  0  0  0  0  0  0  0  0
   15.3350   -0.2905    5.7358 C   0  0  0  0  0  0  0  0  0  0  0  0
   17.2524   -0.4841    7.3680 C   0  0  0  0  0  0  0  0  0  0  0  0
   16.8812   -1.3648    1.2551 C   0  0  0  0  0  0  0  0  0  0  0  0
   16.9587   -2.7700    0.7406 C   0  0  0  0  0  0  0  0  0  0  0  0
   18.2225   -3.3324    0.4697 C   0  0  0  0  0  0  0  0  0  0  0  0
   15.7764   -3.4935    0.5428 C   0  0  0  0  0  0  0  0  0  0  0  0
   18.2936   -4.6455   -0.0071 C   0  0  0  0  0  0  0  0  0  0  0  0
   15.8529   -4.7949    0.0635 C   0  0  0  0  0  0  0  0  0  0  0  0
   17.1044   -5.3698   -0.2034 C   0  0  0  0  0  0  0  0  0  0  0  0
 53 54  2  0  0  0
 53 57  1  0  0  0
 53 55  1  0  0  0
 57 58  1  0  0  0
 58 59  1  0  0  0
 59 60  2  0  0  0
 59 64  1  0  0  0
 60 61  1  0  0  0
 61 62  2  0  0  0
 62 63  1  0  0  0
 63 64  2  0  0  0
 55 51  1  0  0  0
 51 47  1  0  0  0
 51 52  1  0  0  0
 47 48  2  0  0  0
 47 49  1  0  0  0
 49 46  1  0  0  0
 46 42  1  0  0  0
 46 65  1  0  0  0
 42 43  2  0  0  0
 42 44  1  0  0  0
 65 66  1  0  0  0
 65 67  1  0  0  0
  1  2  1  0  0  0
  1 41  1  0  0  0
  1  4  1  0  0  0
 41 44  1  0  0  0
 41 68  1  0  0  0
 68 69  1  0  0  0
 69 70  2  0  0  0
 69 71  1  0  0  0
 70 72  1  0  0  0
 71 73  2  0  0  0
 72 74  2  0  0  0
 73 74  1  0  0  0
  8  7  1  0  0  0
  8  9  1  0  0  0
  7  4  1  0  0  0
  7 34  1  0  0  0
  4  5  1  0  0  0
 34 35  1  0  0  0
 35 36  2  0  0  0
 35 37  1  0  0  0
 36 38  1  0  0  0
 37 39  2  0  0  0
 38 40  2  0  0  0
 39 40  1  0  0  0
 13 12  1  0  0  0
 13 14  1  0  0  0
 12  9  1  0  0  0
 12 31  1  0  0  0
  9 10  2  0  0  0
 31 32  1  0  0  0
 31 33  1  0  0  0
 19 17  1  0  0  0
 19 20  1  0  0  0
 17 14  1  0  0  0
 17 18  1  0  0  0
 14 15  2  0  0  0
 20 21  2  0  0  0
 20 23  1  0  0  0
 23 24  1  0  0  0
 24 25  1  0  0  0
 25 26  2  0  0  0
 25 30  1  0  0  0
 26 27  1  0  0  0
 27 28  2  0  0  0
 28 29  1  0  0  0
 29 30  2  0  0  0
 55 56  1  0  0  0
 49 50  1  0  0  0
  2  3  1  0  0  0
 44 45  1  0  0  0
  8 11  1  0  0  0
  5  6  1  0  0  0
 13 16  1  0  0  0
 19 22  1  0  0  0
M  END
> <minimizedAffinity>
-10.16186

$$$$
2P3A_3TL_A_201


 74 77  0  0  0  0  0  0  0  0999 V2000
   18.7172    0.2079    1.0153 C   0  0  0  0  0  0  0  0  0  0  0  0
   20.0258    0.5439    1.4484 O   0  0  0  0  0  0  0  0  0  0  0  0
   20.6275   -0.1937    1.2617 H   0  0  0  0  0  0  0  0  0  0  0  0
   18.7498   -0.0400   -0.4894 C   0  0  0  0  0  0  0  0  0  0  0  0
   20.0590   -0.4570   -0.8375 O   0  0  0  0  0  0  0  0  0  0  0  0
   20.6895    0.2505   -0.6304 H   0  0  0  0  0  0  0  0  0  0  0  0
   18.4352    1.1778   -1.3326 C   0  0  0  0  0  0  0  0  0  0  0  0
   18.3628    0.8100   -2.7359 N   0  0  0  0  0  0  0  0  0  0  0  0
   17.8819   -0.3392   -3.2256 C   0  0  0  0  0  0  0  0  0  0  0  0
   17.6672   -1.3152   -2.5374 O   0  0  0  0  0  0  0  0  0  0  0  0
   18.6987    1.4671   -3.3875 H   0  0  0  0  0  0  0  0  0  0  0  0
   17.7277   -0.3861   -4.7263 C   0  0  0  0  0  0  0  0  0  0  0  0
   17.3602   -1.7650   -5.0036 N   0  0  0  0  0  0  0  0  0  0  0  0
   17.6387   -2.4310   -6.1213 C   0  0  0  0  0  0  0  0  0  0  0  0
   18.2526   -1.9957   -7.0940 O   0  0  0  0  0  0  0  0  0  0  0  0
   16.8626   -2.2474   -4.3044 H   0  0  0  0  0  0  0  0  0  0  0  0
   17.0712   -3.8156   -6.1652 C   0  0  0  0  0  0  0  0  0  0  0  0
   15.8045   -3.9072   -7.0008 C   0  0  0  0  0  0  0  0  0  0  0  0
   16.7865   -4.2026   -4.7978 N   0  0  0  0  0  0  0  0  0  0  0  0
   17.1489   -5.3871   -4.3486 C   0  0  0  0  0  0  0  0  0  0  0  0
   18.1088   -6.0277   -4.7501 O   0  0  0  0  0  0  0  0  0  0  0  0
   16.3187   -3.5757   -4.2001 H   0  0  0  0  0  0  0  0  0  0  0  0
   16.3634   -5.9614   -3.2889 O   0  0  0  0  0  0  0  0  0  0  0  0
   15.7589   -7.2309   -3.5925 C   0  0  0  0  0  0  0  0  0  0  0  0
   14.2536   -7.2522   -3.4272 C   0  0  0  0  0  0  0  0  0  0  0  0
   13.5757   -8.4556   -3.6778 C   0  0  0  0  0  0  0  0  0  0  0  0
   12.1877   -8.5349   -3.5470 C   0  0  0  0  0  0  0  0  0  0  0  0
   11.4500   -7.4141   -3.1566 C   0  0  0  0  0  0  0  0  0  0  0  0
   12.1229   -6.2022   -2.9058 C   0  0  0  0  0  0  0  0  0  0  0  0
   13.5213   -6.1258   -3.0300 C   0  0  0  0  0  0  0  0  0  0  0  0
   16.6704    0.5884   -5.3041 C   0  0  0  0  0  0  0  0  0  0  0  0
   16.8180    2.0378   -4.8838 C   0  0  0  0  0  0  0  0  0  0  0  0
   15.2240    0.1404   -5.0338 C   0  0  0  0  0  0  0  0  0  0  0  0
   17.1037    1.6762   -0.7520 C   0  0  0  0  0  0  0  0  0  0  0  0
   17.0852    3.0106   -0.0480 C   0  0  0  0  0  0  0  0  0  0  0  0
   18.2732    3.6964    0.1621 C   0  0  0  0  0  0  0  0  0  0  0  0
   15.8705    3.5365    0.4297 C   0  0  0  0  0  0  0  0  0  0  0  0
   18.2475    4.9130    0.8228 C   0  0  0  0  0  0  0  0  0  0  0  0
   15.8385    4.7602    1.1021 C   0  0  0  0  0  0  0  0  0  0  0  0
   17.0420    5.4429    1.3054 C   0  0  0  0  0  0  0  0  0  0  0  0
   18.2988   -1.0316    1.7845 C   0  0  0  0  0  0  0  0  0  0  0  0
   17.6920    0.4288    3.6450 C   0  0  0  0  0  0  0  0  0  0  0  0
   17.3882    1.3553    2.9138 O   0  0  0  0  0  0  0  0  0  0  0  0
   18.1266   -0.7470    3.1960 N   0  0  0  0  0  0  0  0  0  0  0  0
   18.3397   -1.4522    3.8491 H   0  0  0  0  0  0  0  0  0  0  0  0
   17.6126    0.5713    5.1374 C   0  0  0  0  0  0  0  0  0  0  0  0
   17.5902    2.4872    6.5381 C   0  0  0  0  0  0  0  0  0  0  0  0
   18.3356    1.9069    7.3053 O   0  0  0  0  0  0  0  0  0  0  0  0
   17.0839    1.8929    5.4559 N   0  0  0  0  0  0  0  0  0  0  0  0
   16.3918    2.3226    4.9031 H   0  0  0  0  0  0  0  0  0  0  0  0
   17.2136    3.9319    6.7535 C   0  0  0  0  0  0  0  0  0  0  0  0
   15.7394    4.0347    7.0927 C   0  0  0  0  0  0  0  0  0  0  0  0
   17.5774    6.0433    5.5956 C   0  0  0  0  0  0  0  0  0  0  0  0
   17.2632    6.7827    6.5084 O   0  0  0  0  0  0  0  0  0  0  0  0
   17.4467    4.7309    5.5846 N   0  0  0  0  0  0  0  0  0  0  0  0
   17.5136    4.2692    4.7177 H   0  0  0  0  0  0  0  0  0  0  0  0
   18.1320    6.6096    4.3832 O   0  0  0  0  0  0  0  0  0  0  0  0
   17.6216    7.8462    3.9077 C   0  0  0  0  0  0  0  0  0  0  0  0
   18.7338    8.6297    3.2597 C   0  0  0  0  0  0  0  0  0  0  0  0
   19.6336    7.9582    2.4335 C   0  0  0  0  0  0  0  0  0  0  0  0
   20.6656    8.6750    1.8147 C   0  0  0  0  0  0  0  0  0  0  0  0
   20.7917   10.0529    2.0135 C   0  0  0  0  0  0  0  0  0  0  0  0
   19.8777   10.7187    2.8404 C   0  0  0  0  0  0  0  0  0  0  0  0
   18.8408   10.0102    3.4568 C   0  0  0  0  0  0  0  0  0  0  0  0
   16.8028   -0.5198    5.8505 C   0  0  0  0  0  0  0  0  0  0  0  0
   17.2315   -1.9146    5.4052 C   0  0  0  0  0  0  0  0  0  0  0  0
   15.2969   -0.3071    5.6316 C   0  0  0  0  0  0  0  0  0  0  0  0
   16.9642   -1.4597    1.2139 C   0  0  0  0  0  0  0  0  0  0  0  0
   17.0789   -2.8592    0.6911 C   0  0  0  0  0  0  0  0  0  0  0  0
   15.9204   -3.6581    0.6099 C   0  0  0  0  0  0  0  0  0  0  0  0
   18.3317   -3.3415    0.2930 C   0  0  0  0  0  0  0  0  0  0  0  0
   16.0283   -4.9632    0.1181 C   0  0  0  0  0  0  0  0  0  0  0  0
   18.4337   -4.6402   -0.1888 C   0  0  0  0  0  0  0  0  0  0  0  0
   17.2877   -5.4439   -0.2821 C   0  0  0  0  0  0  0  0  0  0  0  0
 53 54  2  0  0  0
 53 57  1  0  0  0
 53 55  1  0  0  0
 57 58  1  0  0  0
 58 59  1  0  0  0
 59 60  2  0  0  0
 59 64  1  0  0  0
 60 61  1  0  0  0
 61 62  2  0  0  0
 62 63  1  0  0  0
 63 64  2  0  0  0
 55 51  1  0  0  0
 51 47  1  0  0  0
 51 52  1  0  0  0
 47 48  2  0  0  0
 47 49  1  0  0  0
 49 46  1  0  0  0
 46 42  1  0  0  0
 46 65  1  0  0  0
 42 43  2  0  0  0
 42 44  1  0  0  0
 65 66  1  0  0  0
 65 67  1  0  0  0
  1  2  1  0  0  0
  1 41  1  0  0  0
  1  4  1  0  0  0
 41 44  1  0  0  0
 41 68  1  0  0  0
 68 69  1  0  0  0
 69 70  2  0  0  0
 69 71  1  0  0  0
 70 72  1  0  0  0
 71 73  2  0  0  0
 72 74  2  0  0  0
 73 74  1  0  0  0
  8  7  1  0  0  0
  8  9  1  0  0  0
  7  4  1  0  0  0
  7 34  1  0  0  0
  4  5  1  0  0  0
 34 35  1  0  0  0
 35 36  2  0  0  0
 35 37  1  0  0  0
 36 38  1  0  0  0
 37 39  2  0  0  0
 38 40  2  0  0  0
 39 40  1  0  0  0
 13 12  1  0  0  0
 13 14  1  0  0  0
 12  9  1  0  0  0
 12 31  1  0  0  0
  9 10  2  0  0  0
 31 32  1  0  0  0
 31 33  1  0  0  0
 19 17  1  0  0  0
 19 20  1  0  0  0
 17 14  1  0  0  0
 17 18  1  0  0  0
 14 15  2  0  0  0
 20 21  2  0  0  0
 20 23  1  0  0  0
 23 24  1  0  0  0
 24 25  1  0  0  0
 25 26  2  0  0  0
 25 30  1  0  0  0
 26 27  1  0  0  0
 27 28  2  0  0  0
 28 29  1  0  0  0
 29 30  2  0  0  0
 55 56  1  0  0  0
 49 50  1  0  0  0
  2  3  1  0  0  0
 44 45  1  0  0  0
  8 11  1  0  0  0
  5  6  1  0  0  0
 13 16  1  0  0  0
 19 22  1  0  0  0
M  END
> <minimizedAffinity>
-10.01073

$$$$
2P3A_3TL_A_201


 74 77  0  0  0  0  0  0  0  0999 V2000
   18.3806    0.6915   -0.8528 C   0  0  0  0  0  0  0  0  0  0  0  0
   18.4997    1.2957   -2.1309 O   0  0  0  0  0  0  0  0  0  0  0  0
   17.6255    1.3440   -2.5485 H   0  0  0  0  0  0  0  0  0  0  0  0
   17.4629    1.5517    0.0101 C   0  0  0  0  0  0  0  0  0  0  0  0
   17.6380    2.9043   -0.3758 O   0  0  0  0  0  0  0  0  0  0  0  0
   18.5551    3.1722   -0.2082 H   0  0  0  0  0  0  0  0  0  0  0  0
   17.7463    1.4759    1.4957 C   0  0  0  0  0  0  0  0  0  0  0  0
   17.7071    2.8045    2.0813 N   0  0  0  0  0  0  0  0  0  0  0  0
   16.6192    3.5715    2.2228 C   0  0  0  0  0  0  0  0  0  0  0  0
   15.5693    3.3442    1.6587 O   0  0  0  0  0  0  0  0  0  0  0  0
   18.5599    3.1755    2.4041 H   0  0  0  0  0  0  0  0  0  0  0  0
   16.8132    4.8192    3.0496 C   0  0  0  0  0  0  0  0  0  0  0  0
   15.5090    5.0580    3.6456 N   0  0  0  0  0  0  0  0  0  0  0  0
   14.8654    6.2225    3.6601 C   0  0  0  0  0  0  0  0  0  0  0  0
   15.2616    7.2790    3.1710 O   0  0  0  0  0  0  0  0  0  0  0  0
   15.0637    4.2924    4.0754 H   0  0  0  0  0  0  0  0  0  0  0  0
   13.5707    6.1960    4.4113 C   0  0  0  0  0  0  0  0  0  0  0  0
   12.4614    6.9545    3.7006 C   0  0  0  0  0  0  0  0  0  0  0  0
   13.8192    6.7912    5.7091 N   0  0  0  0  0  0  0  0  0  0  0  0
   14.0109    6.0309    6.7681 C   0  0  0  0  0  0  0  0  0  0  0  0
   14.4900    4.9071    6.7492 O   0  0  0  0  0  0  0  0  0  0  0  0
   13.8450    7.7712    5.8002 H   0  0  0  0  0  0  0  0  0  0  0  0
   13.6449    6.5755    8.0484 O   0  0  0  0  0  0  0  0  0  0  0  0
   13.7167    5.6535    9.1501 C   0  0  0  0  0  0  0  0  0  0  0  0
   14.8074    5.9730   10.1512 C   0  0  0  0  0  0  0  0  0  0  0  0
   15.9820    5.2050   10.1202 C   0  0  0  0  0  0  0  0  0  0  0  0
   17.0201    5.4494   11.0217 C   0  0  0  0  0  0  0  0  0  0  0  0
   16.9073    6.4713   11.9682 C   0  0  0  0  0  0  0  0  0  0  0  0
   15.7306    7.2447   12.0072 C   0  0  0  0  0  0  0  0  0  0  0  0
   14.6895    7.0028   11.0938 C   0  0  0  0  0  0  0  0  0  0  0  0
   17.9039    4.7127    4.1453 C   0  0  0  0  0  0  0  0  0  0  0  0
   17.5541    3.8379    5.3334 C   0  0  0  0  0  0  0  0  0  0  0  0
   18.3772    6.0819    4.6621 C   0  0  0  0  0  0  0  0  0  0  0  0
   16.6507    0.5348    2.0177 C   0  0  0  0  0  0  0  0  0  0  0  0
   16.7977   -0.0322    3.4082 C   0  0  0  0  0  0  0  0  0  0  0  0
   17.6310   -1.1204    3.6251 C   0  0  0  0  0  0  0  0  0  0  0  0
   16.0591    0.5168    4.4727 C   0  0  0  0  0  0  0  0  0  0  0  0
   17.7473   -1.6431    4.9021 C   0  0  0  0  0  0  0  0  0  0  0  0
   16.1672   -0.0095    5.7619 C   0  0  0  0  0  0  0  0  0  0  0  0
   17.0122   -1.1045    5.9682 C   0  0  0  0  0  0  0  0  0  0  0  0
   17.8140   -0.6995   -1.0697 C   0  0  0  0  0  0  0  0  0  0  0  0
   17.1289   -1.3206   -3.3297 C   0  0  0  0  0  0  0  0  0  0  0  0
   15.9584   -1.0472   -3.1283 O   0  0  0  0  0  0  0  0  0  0  0  0
   18.0830   -1.1786   -2.4118 N   0  0  0  0  0  0  0  0  0  0  0  0
   19.0091   -1.4082   -2.6543 H   0  0  0  0  0  0  0  0  0  0  0  0
   17.5714   -1.8700   -4.6549 C   0  0  0  0  0  0  0  0  0  0  0  0
   17.9756   -4.2063   -4.7603 C   0  0  0  0  0  0  0  0  0  0  0  0
   19.1706   -3.9761   -4.7707 O   0  0  0  0  0  0  0  0  0  0  0  0
   17.0653   -3.2310   -4.7921 N   0  0  0  0  0  0  0  0  0  0  0  0
   16.1054   -3.4198   -4.9022 H   0  0  0  0  0  0  0  0  0  0  0  0
   17.4501   -5.6182   -4.6831 C   0  0  0  0  0  0  0  0  0  0  0  0
   15.9349   -5.6072   -4.7360 C   0  0  0  0  0  0  0  0  0  0  0  0
   18.3038   -7.5047   -3.4011 C   0  0  0  0  0  0  0  0  0  0  0  0
   18.2275   -8.3425   -4.2791 O   0  0  0  0  0  0  0  0  0  0  0  0
   17.8372   -6.2728   -3.4662 N   0  0  0  0  0  0  0  0  0  0  0  0
   17.7486   -5.7694   -2.6248 H   0  0  0  0  0  0  0  0  0  0  0  0
   18.9391   -7.8490   -2.1457 O   0  0  0  0  0  0  0  0  0  0  0  0
   20.3124   -8.2096   -2.1482 C   0  0  0  0  0  0  0  0  0  0  0  0
   20.4723   -9.5719   -1.5241 C   0  0  0  0  0  0  0  0  0  0  0  0
   20.3943  -10.6974   -2.3427 C   0  0  0  0  0  0  0  0  0  0  0  0
   20.5528  -11.9699   -1.7791 C   0  0  0  0  0  0  0  0  0  0  0  0
   20.7956  -12.1151   -0.4102 C   0  0  0  0  0  0  0  0  0  0  0  0
   20.8789  -10.9767    0.4018 C   0  0  0  0  0  0  0  0  0  0  0  0
   20.7277   -9.7024   -0.1552 C   0  0  0  0  0  0  0  0  0  0  0  0
   17.1770   -1.0226   -5.8720 C   0  0  0  0  0  0  0  0  0  0  0  0
   17.6392   -1.6676   -7.1751 C   0  0  0  0  0  0  0  0  0  0  0  0
   17.7242    0.4068   -5.7371 C   0  0  0  0  0  0  0  0  0  0  0  0
   18.5182   -1.6074   -0.0849 C   0  0  0  0  0  0  0  0  0  0  0  0
   17.7639   -2.8977    0.0209 C   0  0  0  0  0  0  0  0  0  0  0  0
   18.4338   -4.1080   -0.2497 C   0  0  0  0  0  0  0  0  0  0  0  0
   16.4128   -2.8735    0.3879 C   0  0  0  0  0  0  0  0  0  0  0  0
   17.7294   -5.3121   -0.1469 C   0  0  0  0  0  0  0  0  0  0  0  0
   15.7169   -4.0718    0.4825 C   0  0  0  0  0  0  0  0  0  0  0  0
   16.3730   -5.2843    0.2232 C   0  0  0  0  0  0  0  0  0  0  0  0
 53 54  2  0  0  0
 53 57  1  0  0  0
 53 55  1  0  0  0
 57 58  1  0  0  0
 58 59  1  0  0  0
 59 60  2  0  0  0
 59 64  1  0  0  0
 60 61  1  0  0  0
 61 62  2  0  0  0
 62 63  1  0  0  0
 63 64  2  0  0  0
 55 51  1  0  0  0
 51 47  1  0  0  0
 51 52  1  0  0  0
 47 48  2  0  0  0
 47 49  1  0  0  0
 49 46  1  0  0  0
 46 42  1  0  0  0
 46 65  1  0  0  0
 42 43  2  0  0  0
 42 44  1  0  0  0
 65 66  1  0  0  0
 65 67  1  0  0  0
  1  2  1  0  0  0
  1 41  1  0  0  0
  1  4  1  0  0  0
 41 44  1  0  0  0
 41 68  1  0  0  0
 68 69  1  0  0  0
 69 70  2  0  0  0
 69 71  1  0  0  0
 70 72  1  0  0  0
 71 73  2  0  0  0
 72 74  2  0  0  0
 73 74  1  0  0  0
  8  7  1  0  0  0
  8  9  1  0  0  0
  7  4  1  0  0  0
  7 34  1  0  0  0
  4  5  1  0  0  0
 34 35  1  0  0  0
 35 36  2  0  0  0
 35 37  1  0  0  0
 36 38  1  0  0  0
 37 39  2  0  0  0
 38 40  2  0  0  0
 39 40  1  0  0  0
 13 12  1  0  0  0
 13 14  1  0  0  0
 12  9  1  0  0  0
 12 31  1  0  0  0
  9 10  2  0  0  0
 31 32  1  0  0  0
 31 33  1  0  0  0
 19 17  1  0  0  0
 19 20  1  0  0  0
 17 14  1  0  0  0
 17 18  1  0  0  0
 14 15  2  0  0  0
 20 21  2  0  0  0
 20 23  1  0  0  0
 23 24  1  0  0  0
 24 25  1  0  0  0
 25 26  2  0  0  0
 25 30  1  0  0  0
 26 27  1  0  0  0
 27 28  2  0  0  0
 28 29  1  0  0  0
 29 30  2  0  0  0
 55 56  1  0  0  0
 49 50  1  0  0  0
  2  3  1  0  0  0
 44 45  1  0  0  0
  8 11  1  0  0  0
  5  6  1  0  0  0
 13 16  1  0  0  0
 19 22  1  0  0  0
M  END
> <minimizedAffinity>
-9.83670

$$$$
2P3A_3TL_A_201


 74 77  0  0  0  0  0  0  0  0999 V2000
   18.2548    0.8748   -0.4684 C   0  0  0  0  0  0  0  0  0  0  0  0
   18.5073    1.5705   -1.6789 O   0  0  0  0  0  0  0  0  0  0  0  0
   17.6894    1.6246   -2.1974 H   0  0  0  0  0  0  0  0  0  0  0  0
   17.2091    1.6473    0.3294 C   0  0  0  0  0  0  0  0  0  0  0  0
   17.1487    2.9659   -0.1870 O   0  0  0  0  0  0  0  0  0  0  0  0
   18.0076    3.4001   -0.0663 H   0  0  0  0  0  0  0  0  0  0  0  0
   17.5103    1.7655    1.8087 C   0  0  0  0  0  0  0  0  0  0  0  0
   17.5249    3.1624    2.2065 N   0  0  0  0  0  0  0  0  0  0  0  0
   16.4614    3.9720    2.2801 C   0  0  0  0  0  0  0  0  0  0  0  0
   15.3851    3.6993    1.7908 O   0  0  0  0  0  0  0  0  0  0  0  0
   18.3982    3.5498    2.4442 H   0  0  0  0  0  0  0  0  0  0  0  0
   16.7167    5.3151    2.9195 C   0  0  0  0  0  0  0  0  0  0  0  0
   15.9956    5.2523    4.1802 N   0  0  0  0  0  0  0  0  0  0  0  0
   14.9963    6.0530    4.5417 C   0  0  0  0  0  0  0  0  0  0  0  0
   14.5178    6.9671    3.8726 O   0  0  0  0  0  0  0  0  0  0  0  0
   16.2703    4.5577    4.8215 H   0  0  0  0  0  0  0  0  0  0  0  0
   14.4894    5.8095    5.9292 C   0  0  0  0  0  0  0  0  0  0  0  0
   13.6300    6.9496    6.4511 C   0  0  0  0  0  0  0  0  0  0  0  0
   15.6486    5.6382    6.7820 N   0  0  0  0  0  0  0  0  0  0  0  0
   15.7241    4.6167    7.6110 C   0  0  0  0  0  0  0  0  0  0  0  0
   15.1969    3.5286    7.4355 O   0  0  0  0  0  0  0  0  0  0  0  0
   16.3853    6.2900    6.7416 H   0  0  0  0  0  0  0  0  0  0  0  0
   16.5048    4.7915    8.8066 O   0  0  0  0  0  0  0  0  0  0  0  0
   15.7524    4.8151   10.0323 C   0  0  0  0  0  0  0  0  0  0  0  0
   14.6520    5.8554   10.0602 C   0  0  0  0  0  0  0  0  0  0  0  0
   13.3200    5.4123   10.0593 C   0  0  0  0  0  0  0  0  0  0  0  0
   12.2630    6.3246   10.0792 C   0  0  0  0  0  0  0  0  0  0  0  0
   12.5166    7.6986   10.1070 C   0  0  0  0  0  0  0  0  0  0  0  0
   13.8506    8.1510   10.1055 C   0  0  0  0  0  0  0  0  0  0  0  0
   14.9140    7.2313   10.0936 C   0  0  0  0  0  0  0  0  0  0  0  0
   18.2105    5.6497    3.1600 C   0  0  0  0  0  0  0  0  0  0  0  0
   18.6370    5.7304    4.6129 C   0  0  0  0  0  0  0  0  0  0  0  0
   18.6667    6.9297    2.4393 C   0  0  0  0  0  0  0  0  0  0  0  0
   16.3904    0.9448    2.4649 C   0  0  0  0  0  0  0  0  0  0  0  0
   16.7247    0.1295    3.6896 C   0  0  0  0  0  0  0  0  0  0  0  0
   17.5180   -1.0027    3.5695 C   0  0  0  0  0  0  0  0  0  0  0  0
   16.1983    0.4951    4.9425 C   0  0  0  0  0  0  0  0  0  0  0  0
   17.8064   -1.7528    4.6971 C   0  0  0  0  0  0  0  0  0  0  0  0
   16.4805   -0.2606    6.0826 C   0  0  0  0  0  0  0  0  0  0  0  0
   17.2832   -1.3979    5.9490 C   0  0  0  0  0  0  0  0  0  0  0  0
   17.7682   -0.5121   -0.8460 C   0  0  0  0  0  0  0  0  0  0  0  0
   17.2117   -0.8975   -3.1921 C   0  0  0  0  0  0  0  0  0  0  0  0
   16.0274   -0.6629   -3.0251 O   0  0  0  0  0  0  0  0  0  0  0  0
   18.1147   -0.8415   -2.2151 N   0  0  0  0  0  0  0  0  0  0  0  0
   19.0562   -1.0315   -2.4311 H   0  0  0  0  0  0  0  0  0  0  0  0
   17.7319   -1.2962   -4.5428 C   0  0  0  0  0  0  0  0  0  0  0  0
   17.5563   -3.5562   -5.2461 C   0  0  0  0  0  0  0  0  0  0  0  0
   18.7657   -3.6551   -5.1537 O   0  0  0  0  0  0  0  0  0  0  0  0
   16.9227   -2.3979   -5.0516 N   0  0  0  0  0  0  0  0  0  0  0  0
   15.9623   -2.2929   -5.2410 H   0  0  0  0  0  0  0  0  0  0  0  0
   16.6939   -4.7528   -5.5623 C   0  0  0  0  0  0  0  0  0  0  0  0
   17.2823   -5.9950   -4.9225 C   0  0  0  0  0  0  0  0  0  0  0  0
   15.9075   -4.2475   -7.8112 C   0  0  0  0  0  0  0  0  0  0  0  0
   15.0534   -3.4383   -7.5041 O   0  0  0  0  0  0  0  0  0  0  0  0
   16.6012   -4.9939   -6.9738 N   0  0  0  0  0  0  0  0  0  0  0  0
   17.0872   -5.7672   -7.3412 H   0  0  0  0  0  0  0  0  0  0  0  0
   16.2128   -4.4595   -9.2112 O   0  0  0  0  0  0  0  0  0  0  0  0
   15.9067   -5.7158   -9.7975 C   0  0  0  0  0  0  0  0  0  0  0  0
   17.1558   -6.3020  -10.4031 C   0  0  0  0  0  0  0  0  0  0  0  0
   17.3637   -7.6773  -10.3109 C   0  0  0  0  0  0  0  0  0  0  0  0
   18.5142   -8.2385  -10.8794 C   0  0  0  0  0  0  0  0  0  0  0  0
   19.4447   -7.4326  -11.5419 C   0  0  0  0  0  0  0  0  0  0  0  0
   19.2222   -6.0526  -11.6345 C   0  0  0  0  0  0  0  0  0  0  0  0
   18.0722   -5.4861  -11.0743 C   0  0  0  0  0  0  0  0  0  0  0  0
   17.8032   -0.1596   -5.5712 C   0  0  0  0  0  0  0  0  0  0  0  0
   17.6889    1.2069   -4.9024 C   0  0  0  0  0  0  0  0  0  0  0  0
   16.7262   -0.3387   -6.6523 C   0  0  0  0  0  0  0  0  0  0  0  0
   18.4773   -1.4806    0.0757 C   0  0  0  0  0  0  0  0  0  0  0  0
   17.7405   -2.7853    0.0793 C   0  0  0  0  0  0  0  0  0  0  0  0
   16.3745   -2.8006    0.4268 C   0  0  0  0  0  0  0  0  0  0  0  0
   18.4230   -3.9587   -0.2643 C   0  0  0  0  0  0  0  0  0  0  0  0
   15.6870   -4.0188    0.4261 C   0  0  0  0  0  0  0  0  0  0  0  0
   17.7366   -5.1661   -0.2574 C   0  0  0  0  0  0  0  0  0  0  0  0
   16.3750   -5.1950    0.0793 C   0  0  0  0  0  0  0  0  0  0  0  0
 53 54  2  0  0  0
 53 57  1  0  0  0
 53 55  1  0  0  0
 57 58  1  0  0  0
 58 59  1  0  0  0
 59 60  2  0  0  0
 59 64  1  0  0  0
 60 61  1  0  0  0
 61 62  2  0  0  0
 62 63  1  0  0  0
 63 64  2  0  0  0
 55 51  1  0  0  0
 51 47  1  0  0  0
 51 52  1  0  0  0
 47 48  2  0  0  0
 47 49  1  0  0  0
 49 46  1  0  0  0
 46 42  1  0  0  0
 46 65  1  0  0  0
 42 43  2  0  0  0
 42 44  1  0  0  0
 65 66  1  0  0  0
 65 67  1  0  0  0
  1  2  1  0  0  0
  1 41  1  0  0  0
  1  4  1  0  0  0
 41 44  1  0  0  0
 41 68  1  0  0  0
 68 69  1  0  0  0
 69 70  2  0  0  0
 69 71  1  0  0  0
 70 72  1  0  0  0
 71 73  2  0  0  0
 72 74  2  0  0  0
 73 74  1  0  0  0
  8  7  1  0  0  0
  8  9  1  0  0  0
  7  4  1  0  0  0
  7 34  1  0  0  0
  4  5  1  0  0  0
 34 35  1  0  0  0
 35 36  2  0  0  0
 35 37  1  0  0  0
 36 38  1  0  0  0
 37 39  2  0  0  0
 38 40  2  0  0  0
 39 40  1  0  0  0
 13 12  1  0  0  0
 13 14  1  0  0  0
 12  9  1  0  0  0
 12 31  1  0  0  0
  9 10  2  0  0  0
 31 32  1  0  0  0
 31 33  1  0  0  0
 19 17  1  0  0  0
 19 20  1  0  0  0
 17 14  1  0  0  0
 17 18  1  0  0  0
 14 15  2  0  0  0
 20 21  2  0  0  0
 20 23  1  0  0  0
 23 24  1  0  0  0
 24 25  1  0  0  0
 25 26  2  0  0  0
 25 30  1  0  0  0
 26 27  1  0  0  0
 27 28  2  0  0  0
 28 29  1  0  0  0
 29 30  2  0  0  0
 55 56  1  0  0  0
 49 50  1  0  0  0
  2  3  1  0  0  0
 44 45  1  0  0  0
  8 11  1  0  0  0
  5  6  1  0  0  0
 13 16  1  0  0  0
 19 22  1  0  0  0
M  END
> <minimizedAffinity>
-9.70517

$$$$
2P3A_3TL_A_201


 74 77  0  0  0  0  0  0  0  0999 V2000
   18.7537    0.1250    1.0326 C   0  0  0  0  0  0  0  0  0  0  0  0
   20.0224    0.5384    1.5146 O   0  0  0  0  0  0  0  0  0  0  0  0
   20.6479   -0.2006    1.4538 H   0  0  0  0  0  0  0  0  0  0  0  0
   18.8974   -0.2872   -0.4289 C   0  0  0  0  0  0  0  0  0  0  0  0
   20.2419   -0.6814   -0.6438 O   0  0  0  0  0  0  0  0  0  0  0  0
   20.8300    0.0722   -0.4793 H   0  0  0  0  0  0  0  0  0  0  0  0
   18.5955    0.8138   -1.4237 C   0  0  0  0  0  0  0  0  0  0  0  0
   18.6182    0.2861   -2.7767 N   0  0  0  0  0  0  0  0  0  0  0  0
   17.8333   -0.6863   -3.2566 C   0  0  0  0  0  0  0  0  0  0  0  0
   17.1679   -1.4121   -2.5478 O   0  0  0  0  0  0  0  0  0  0  0  0
   19.2716    0.6803   -3.3987 H   0  0  0  0  0  0  0  0  0  0  0  0
   17.9145   -0.9032   -4.7480 C   0  0  0  0  0  0  0  0  0  0  0  0
   17.1926   -2.1458   -4.9671 N   0  0  0  0  0  0  0  0  0  0  0  0
   17.7464   -3.3432   -5.1406 C   0  0  0  0  0  0  0  0  0  0  0  0
   18.9500   -3.5954   -5.1388 O   0  0  0  0  0  0  0  0  0  0  0  0
   16.2096   -2.0973   -4.9889 H   0  0  0  0  0  0  0  0  0  0  0  0
   16.7631   -4.4363   -5.4221 C   0  0  0  0  0  0  0  0  0  0  0  0
   15.7777   -4.0739   -6.5216 C   0  0  0  0  0  0  0  0  0  0  0  0
   16.0485   -4.6946   -4.1880 N   0  0  0  0  0  0  0  0  0  0  0  0
   16.1178   -5.8765   -3.6096 C   0  0  0  0  0  0  0  0  0  0  0  0
   17.0675   -6.6416   -3.6853 O   0  0  0  0  0  0  0  0  0  0  0  0
   15.5072   -3.9814   -3.7785 H   0  0  0  0  0  0  0  0  0  0  0  0
   14.9946   -6.2890   -2.8110 O   0  0  0  0  0  0  0  0  0  0  0  0
   14.2175   -7.3692   -3.3573 C   0  0  0  0  0  0  0  0  0  0  0  0
   12.7770   -7.0054   -3.6512 C   0  0  0  0  0  0  0  0  0  0  0  0
   12.2105   -7.4577   -4.8533 C   0  0  0  0  0  0  0  0  0  0  0  0
   10.8886   -7.1495   -5.1813 C   0  0  0  0  0  0  0  0  0  0  0  0
   10.1043   -6.3881   -4.3106 C   0  0  0  0  0  0  0  0  0  0  0  0
   10.6664   -5.9284   -3.1036 C   0  0  0  0  0  0  0  0  0  0  0  0
   11.9950   -6.2462   -2.7709 C   0  0  0  0  0  0  0  0  0  0  0  0
   17.3127    0.2376   -5.6069 C   0  0  0  0  0  0  0  0  0  0  0  0
   15.9945    0.8019   -5.1136 C   0  0  0  0  0  0  0  0  0  0  0  0
   17.1652   -0.1369   -7.0915 C   0  0  0  0  0  0  0  0  0  0  0  0
   17.2169    1.3242   -0.9794 C   0  0  0  0  0  0  0  0  0  0  0  0
   17.1475    2.6228   -0.2143 C   0  0  0  0  0  0  0  0  0  0  0  0
   15.9214    3.0979    0.2289 C   0  0  0  0  0  0  0  0  0  0  0  0
   18.3192    3.3688    0.0118 C   0  0  0  0  0  0  0  0  0  0  0  0
   15.8663    4.2984    0.9168 C   0  0  0  0  0  0  0  0  0  0  0  0
   18.2697    4.5832    0.6997 C   0  0  0  0  0  0  0  0  0  0  0  0
   17.0285    5.0501    1.1436 C   0  0  0  0  0  0  0  0  0  0  0  0
   18.3018   -1.0314    1.9053 C   0  0  0  0  0  0  0  0  0  0  0  0
   17.7300    0.5855    3.6435 C   0  0  0  0  0  0  0  0  0  0  0  0
   17.4134    1.4461    2.8406 O   0  0  0  0  0  0  0  0  0  0  0  0
   18.1556   -0.6255    3.2899 N   0  0  0  0  0  0  0  0  0  0  0  0
   18.3804   -1.2721    3.9976 H   0  0  0  0  0  0  0  0  0  0  0  0
   17.6781    0.8567    5.1192 C   0  0  0  0  0  0  0  0  0  0  0  0
   17.6393    3.1691    5.6521 C   0  0  0  0  0  0  0  0  0  0  0  0
   18.8329    3.1128    5.8824 O   0  0  0  0  0  0  0  0  0  0  0  0
   16.9245    2.0849    5.3452 N   0  0  0  0  0  0  0  0  0  0  0  0
   15.9429    2.1124    5.2752 H   0  0  0  0  0  0  0  0  0  0  0  0
   16.8978    4.4826    5.6744 C   0  0  0  0  0  0  0  0  0  0  0  0
   17.7251    5.5526    4.9892 C   0  0  0  0  0  0  0  0  0  0  0  0
   15.8527    4.2953    7.8662 C   0  0  0  0  0  0  0  0  0  0  0  0
   15.0541    3.4214    7.5885 O   0  0  0  0  0  0  0  0  0  0  0  0
   16.6315    4.9299    7.0116 N   0  0  0  0  0  0  0  0  0  0  0  0
   17.0580    5.7652    7.3108 H   0  0  0  0  0  0  0  0  0  0  0  0
   15.9832    4.7252    9.2433 O   0  0  0  0  0  0  0  0  0  0  0  0
   15.9325    6.1135    9.5362 C   0  0  0  0  0  0  0  0  0  0  0  0
   14.5003    6.5804    9.4969 C   0  0  0  0  0  0  0  0  0  0  0  0
   13.7115    6.4198   10.6349 C   0  0  0  0  0  0  0  0  0  0  0  0
   12.3818    6.8596   10.6175 C   0  0  0  0  0  0  0  0  0  0  0  0
   11.8479    7.4626    9.4750 C   0  0  0  0  0  0  0  0  0  0  0  0
   12.6519    7.6251    8.3393 C   0  0  0  0  0  0  0  0  0  0  0  0
   13.9826    7.1937    8.3515 C   0  0  0  0  0  0  0  0  0  0  0  0
   17.1109   -0.2883    5.9689 C   0  0  0  0  0  0  0  0  0  0  0  0
   15.5954   -0.3914    5.8271 C   0  0  0  0  0  0  0  0  0  0  0  0
   17.5194   -0.1243    7.4410 C   0  0  0  0  0  0  0  0  0  0  0  0
   16.9467   -1.4578    1.3837 C   0  0  0  0  0  0  0  0  0  0  0  0
   17.0495   -2.8432    0.8223 C   0  0  0  0  0  0  0  0  0  0  0  0
   15.8927   -3.6463    0.7617 C   0  0  0  0  0  0  0  0  0  0  0  0
   18.2898   -3.3085    0.3685 C   0  0  0  0  0  0  0  0  0  0  0  0
   15.9893   -4.9381    0.2340 C   0  0  0  0  0  0  0  0  0  0  0  0
   18.3808   -4.5942   -0.1490 C   0  0  0  0  0  0  0  0  0  0  0  0
   17.2360   -5.4017   -0.2220 C   0  0  0  0  0  0  0  0  0  0  0  0
 53 54  2  0  0  0
 53 57  1  0  0  0
 53 55  1  0  0  0
 57 58  1  0  0  0
 58 59  1  0  0  0
 59 60  2  0  0  0
 59 64  1  0  0  0
 60 61  1  0  0  0
 61 62  2  0  0  0
 62 63  1  0  0  0
 63 64  2  0  0  0
 55 51  1  0  0  0
 51 47  1  0  0  0
 51 52  1  0  0  0
 47 48  2  0  0  0
 47 49  1  0  0  0
 49 46  1  0  0  0
 46 42  1  0  0  0
 46 65  1  0  0  0
 42 43  2  0  0  0
 42 44  1  0  0  0
 65 66  1  0  0  0
 65 67  1  0  0  0
  1  2  1  0  0  0
  1 41  1  0  0  0
  1  4  1  0  0  0
 41 44  1  0  0  0
 41 68  1  0  0  0
 68 69  1  0  0  0
 69 70  2  0  0  0
 69 71  1  0  0  0
 70 72  1  0  0  0
 71 73  2  0  0  0
 72 74  2  0  0  0
 73 74  1  0  0  0
  8  7  1  0  0  0
  8  9  1  0  0  0
  7  4  1  0  0  0
  7 34  1  0  0  0
  4  5  1  0  0  0
 34 35  1  0  0  0
 35 36  2  0  0  0
 35 37  1  0  0  0
 36 38  1  0  0  0
 37 39  2  0  0  0
 38 40  2  0  0  0
 39 40  1  0  0  0
 13 12  1  0  0  0
 13 14  1  0  0  0
 12  9  1  0  0  0
 12 31  1  0  0  0
  9 10  2  0  0  0
 31 32  1  0  0  0
 31 33  1  0  0  0
 19 17  1  0  0  0
 19 20  1  0  0  0
 17 14  1  0  0  0
 17 18  1  0  0  0
 14 15  2  0  0  0
 20 21  2  0  0  0
 20 23  1  0  0  0
 23 24  1  0  0  0
 24 25  1  0  0  0
 25 26  2  0  0  0
 25 30  1  0  0  0
 26 27  1  0  0  0
 27 28  2  0  0  0
 28 29  1  0  0  0
 29 30  2  0  0  0
 55 56  1  0  0  0
 49 50  1  0  0  0
  2  3  1  0  0  0
 44 45  1  0  0  0
  8 11  1  0  0  0
  5  6  1  0  0  0
 13 16  1  0  0  0
 19 22  1  0  0  0
M  END
> <minimizedAffinity>
-9.48143

$$$$
2P3A_3TL_A_201


 74 77  0  0  0  0  0  0  0  0999 V2000
   16.7667    6.7853    5.0914 C   0  0  0  0  0  0  0  0  0  0  0  0
   17.6312    6.4984    6.1792 O   0  0  0  0  0  0  0  0  0  0  0  0
   18.2250    7.2509    6.3274 H   0  0  0  0  0  0  0  0  0  0  0  0
   15.9349    8.0154    5.4403 C   0  0  0  0  0  0  0  0  0  0  0  0
   16.6203    8.7371    6.4495 O   0  0  0  0  0  0  0  0  0  0  0  0
   16.6995    8.1861    7.2439 H   0  0  0  0  0  0  0  0  0  0  0  0
   14.5537    7.7064    5.9788 C   0  0  0  0  0  0  0  0  0  0  0  0
   14.5416    7.8292    7.4260 N   0  0  0  0  0  0  0  0  0  0  0  0
   13.4686    8.0773    8.1868 C   0  0  0  0  0  0  0  0  0  0  0  0
   12.4120    8.4682    7.7363 O   0  0  0  0  0  0  0  0  0  0  0  0
   15.4027    7.7198    7.8906 H   0  0  0  0  0  0  0  0  0  0  0  0
   13.6894    7.9486    9.6744 C   0  0  0  0  0  0  0  0  0  0  0  0
   14.7974    7.0148    9.7905 N   0  0  0  0  0  0  0  0  0  0  0  0
   14.7376    5.8069   10.3453 C   0  0  0  0  0  0  0  0  0  0  0  0
   13.7421    5.2829   10.8424 O   0  0  0  0  0  0  0  0  0  0  0  0
   15.6667    7.3006    9.4275 H   0  0  0  0  0  0  0  0  0  0  0  0
   16.0517    5.0916   10.3955 C   0  0  0  0  0  0  0  0  0  0  0  0
   17.0683    5.7883   11.2856 C   0  0  0  0  0  0  0  0  0  0  0  0
   16.5524    5.0250    9.0371 N   0  0  0  0  0  0  0  0  0  0  0  0
   16.0642    4.1450    8.1865 C   0  0  0  0  0  0  0  0  0  0  0  0
   14.9271    3.6986    8.2121 O   0  0  0  0  0  0  0  0  0  0  0  0
   17.2628    5.6421    8.7476 H   0  0  0  0  0  0  0  0  0  0  0  0
   16.9330    3.6896    7.1342 O   0  0  0  0  0  0  0  0  0  0  0  0
   17.8017    2.5983    7.4856 C   0  0  0  0  0  0  0  0  0  0  0  0
   17.4367    1.2835    6.8284 C   0  0  0  0  0  0  0  0  0  0  0  0
   16.2449    1.2196    6.0894 C   0  0  0  0  0  0  0  0  0  0  0  0
   15.8533    0.0333    5.4654 C   0  0  0  0  0  0  0  0  0  0  0  0
   16.6490   -1.1114    5.5622 C   0  0  0  0  0  0  0  0  0  0  0  0
   17.8452   -1.0559    6.3041 C   0  0  0  0  0  0  0  0  0  0  0  0
   18.2423    0.1413    6.9252 C   0  0  0  0  0  0  0  0  0  0  0  0
   14.0151    9.2769   10.4028 C   0  0  0  0  0  0  0  0  0  0  0  0
   15.4896    9.5685   10.6033 C   0  0  0  0  0  0  0  0  0  0  0  0
   13.2955    9.4169   11.7551 C   0  0  0  0  0  0  0  0  0  0  0  0
   13.6576    8.7267    5.2616 C   0  0  0  0  0  0  0  0  0  0  0  0
   12.5455    8.2089    4.3831 C   0  0  0  0  0  0  0  0  0  0  0  0
   12.5361    6.8766    3.9951 C   0  0  0  0  0  0  0  0  0  0  0  0
   11.5445    9.0861    3.9262 C   0  0  0  0  0  0  0  0  0  0  0  0
   11.5195    6.4147    3.1762 C   0  0  0  0  0  0  0  0  0  0  0  0
   10.5198    8.6279    3.0952 C   0  0  0  0  0  0  0  0  0  0  0  0
   10.5199    7.2827    2.7132 C   0  0  0  0  0  0  0  0  0  0  0  0
   17.6444    7.0213    3.8762 C   0  0  0  0  0  0  0  0  0  0  0  0
   17.4351    4.7823    2.9247 C   0  0  0  0  0  0  0  0  0  0  0  0
   17.8036    4.2336    3.9488 O   0  0  0  0  0  0  0  0  0  0  0  0
   17.3206    6.1031    2.8014 N   0  0  0  0  0  0  0  0  0  0  0  0
   17.0031    6.4715    1.9454 H   0  0  0  0  0  0  0  0  0  0  0  0
   17.1007    3.9787    1.7015 C   0  0  0  0  0  0  0  0  0  0  0  0
   17.4901    1.6476    1.4844 C   0  0  0  0  0  0  0  0  0  0  0  0
   18.2098    1.8797    0.5309 O   0  0  0  0  0  0  0  0  0  0  0  0
   16.8040    2.6090    2.1054 N   0  0  0  0  0  0  0  0  0  0  0  0
   16.1345    2.4050    2.7979 H   0  0  0  0  0  0  0  0  0  0  0  0
   17.3518    0.2523    2.0407 C   0  0  0  0  0  0  0  0  0  0  0  0
   18.6119   -0.1296    2.7925 C   0  0  0  0  0  0  0  0  0  0  0  0
   16.0719   -0.7923    0.2513 C   0  0  0  0  0  0  0  0  0  0  0  0
   15.0090   -0.2453    0.4744 O   0  0  0  0  0  0  0  0  0  0  0  0
   17.1499   -0.7234    1.0081 N   0  0  0  0  0  0  0  0  0  0  0  0
   17.8628   -1.3847    0.8544 H   0  0  0  0  0  0  0  0  0  0  0  0
   16.2096   -1.6194   -0.9298 O   0  0  0  0  0  0  0  0  0  0  0  0
   17.3997   -1.5251   -1.6983 C   0  0  0  0  0  0  0  0  0  0  0  0
   17.2267   -0.4695   -2.7597 C   0  0  0  0  0  0  0  0  0  0  0  0
   16.1763   -0.5972   -3.6671 C   0  0  0  0  0  0  0  0  0  0  0  0
   15.9955    0.3822   -4.6519 C   0  0  0  0  0  0  0  0  0  0  0  0
   16.8524    1.4843   -4.7235 C   0  0  0  0  0  0  0  0  0  0  0  0
   17.9006    1.6059   -3.8021 C   0  0  0  0  0  0  0  0  0  0  0  0
   18.0835    0.6347   -2.8120 C   0  0  0  0  0  0  0  0  0  0  0  0
   15.9619    4.5469    0.8442 C   0  0  0  0  0  0  0  0  0  0  0  0
   16.4373    5.7167   -0.0121 C   0  0  0  0  0  0  0  0  0  0  0  0
   14.7713    4.9542    1.7259 C   0  0  0  0  0  0  0  0  0  0  0  0
   17.3569    8.4311    3.4072 C   0  0  0  0  0  0  0  0  0  0  0  0
   18.6343    9.0681    2.9515 C   0  0  0  0  0  0  0  0  0  0  0  0
   19.6560    8.2539    2.4223 C   0  0  0  0  0  0  0  0  0  0  0  0
   18.7842   10.4561    3.0589 C   0  0  0  0  0  0  0  0  0  0  0  0
   20.8466    8.8503    1.9939 C   0  0  0  0  0  0  0  0  0  0  0  0
   19.9709   11.0420    2.6375 C   0  0  0  0  0  0  0  0  0  0  0  0
   20.9933   10.2446    2.1019 C   0  0  0  0  0  0  0  0  0  0  0  0
 53 54  2  0  0  0
 53 57  1  0  0  0
 53 55  1  0  0  0
 57 58  1  0  0  0
 58 59  1  0  0  0
 59 60  2  0  0  0
 59 64  1  0  0  0
 60 61  1  0  0  0
 61 62  2  0  0  0
 62 63  1  0  0  0
 63 64  2  0  0  0
 55 51  1  0  0  0
 51 47  1  0  0  0
 51 52  1  0  0  0
 47 48  2  0  0  0
 47 49  1  0  0  0
 49 46  1  0  0  0
 46 42  1  0  0  0
 46 65  1  0  0  0
 42 43  2  0  0  0
 42 44  1  0  0  0
 65 66  1  0  0  0
 65 67  1  0  0  0
  1  2  1  0  0  0
  1 41  1  0  0  0
  1  4  1  0  0  0
 41 44  1  0  0  0
 41 68  1  0  0  0
 68 69  1  0  0  0
 69 70  2  0  0  0
 69 71  1  0  0  0
 70 72  1  0  0  0
 71 73  2  0  0  0
 72 74  2  0  0  0
 73 74  1  0  0  0
  8  7  1  0  0  0
  8  9  1  0  0  0
  7  4  1  0  0  0
  7 34  1  0  0  0
  4  5  1  0  0  0
 34 35  1  0  0  0
 35 36  2  0  0  0
 35 37  1  0  0  0
 36 38  1  0  0  0
 37 39  2  0  0  0
 38 40  2  0  0  0
 39 40  1  0  0  0
 13 12  1  0  0  0
 13 14  1  0  0  0
 12  9  1  0  0  0
 12 31  1  0  0  0
  9 10  2  0  0  0
 31 32  1  0  0  0
 31 33  1  0  0  0
 19 17  1  0  0  0
 19 20  1  0  0  0
 17 14  1  0  0  0
 17 18  1  0  0  0
 14 15  2  0  0  0
 20 21  2  0  0  0
 20 23  1  0  0  0
 23 24  1  0  0  0
 24 25  1  0  0  0
 25 26  2  0  0  0
 25 30  1  0  0  0
 26 27  1  0  0  0
 27 28  2  0  0  0
 28 29  1  0  0  0
 29 30  2  0  0  0
 55 56  1  0  0  0
 49 50  1  0  0  0
  2  3  1  0  0  0
 44 45  1  0  0  0
  8 11  1  0  0  0
  5  6  1  0  0  0
 13 16  1  0  0  0
 19 22  1  0  0  0
M  END
> <minimizedAffinity>
-9.47013

$$$$
