4X6N_3Y5_A_301


 47 52  0  0  0  0  0  0  0  0999 V2000
   40.1150  -20.9599   28.5995 C   0  0  0  0  0  0  0  0  0  0  0  0
   42.3734  -21.0538   29.6181 N   0  0  0  0  0  0  0  0  0  0  0  0
   43.6644  -20.9693   29.1476 C   0  0  0  0  0  0  0  0  0  0  0  0
   43.6559  -20.7348   27.8147 C   0  0  0  0  0  0  0  0  0  0  0  0
   41.6091  -20.8647   28.5643 C   0  0  0  0  0  0  0  0  0  0  0  0
   42.3346  -20.6621   27.4342 N   0  0  0  0  0  0  0  0  0  0  0  0
   44.9144  -20.5291   26.6937 Cl  0  0  0  0  0  0  0  0  0  0  0  0
   41.9868  -20.4970   26.5281 H   0  0  0  0  0  0  0  0  0  0  0  0
   45.6672  -22.2421   32.0664 C   0  0  0  0  0  0  0  0  0  0  0  0
   46.0660  -20.7378   29.7302 C   0  0  0  0  0  0  0  0  0  0  0  0
   44.7845  -21.1567   30.0884 C   0  0  0  0  0  0  0  0  0  0  0  0
   44.5927  -21.8844   31.2702 C   0  0  0  0  0  0  0  0  0  0  0  0
   46.9644  -21.8963   31.6882 C   0  0  0  0  0  0  0  0  0  0  0  0
   47.1445  -21.1448   30.5097 C   0  0  0  0  0  0  0  0  0  0  0  0
   48.4858  -21.0067   30.3346 N   0  0  0  0  0  0  0  0  0  0  0  0
   49.1927  -21.6098   31.3367 N   0  0  0  0  0  0  0  0  0  0  0  0
   48.3223  -22.1593   32.1848 C   0  0  0  0  0  0  0  0  0  0  0  0
   48.7127  -22.7895   33.2967 N   0  0  0  0  0  0  0  0  0  0  0  0
   48.8976  -20.5302   29.5779 H   0  0  0  0  0  0  0  0  0  0  0  0
   49.6718  -22.8884   33.4956 H   0  0  0  0  0  0  0  0  0  0  0  0
   48.0412  -23.1548   33.9170 H   0  0  0  0  0  0  0  0  0  0  0  0
   39.3118  -18.7686   29.2973 C   0  0  0  0  0  0  0  0  0  0  0  0
   39.4626  -19.6897   28.2913 N   0  0  0  0  0  0  0  0  0  0  0  0
   38.6880  -17.6044   28.9848 N   0  0  0  0  0  0  0  0  0  0  0  0
   39.7871  -18.9596   30.4209 O   0  0  0  0  0  0  0  0  0  0  0  0
   39.1381  -19.4986   27.3817 H   0  0  0  0  0  0  0  0  0  0  0  0
   38.9720  -16.7903   29.4601 H   0  0  0  0  0  0  0  0  0  0  0  0
   37.6242  -17.4761   27.9915 C   0  0  0  0  0  0  0  0  0  0  0  0
   37.0131  -16.0897   27.9362 C   0  0  0  0  0  0  0  0  0  0  0  0
   35.9076  -13.5127   27.9112 C   0  0  0  0  0  0  0  0  0  0  0  0
   37.5183  -15.1071   27.0667 C   0  0  0  0  0  0  0  0  0  0  0  0
   36.9632  -13.8240   27.0661 C   0  0  0  0  0  0  0  0  0  0  0  0
   35.4083  -14.4922   28.7463 C   0  0  0  0  0  0  0  0  0  0  0  0
   35.9510  -15.7605   28.7737 C   0  0  0  0  0  0  0  0  0  0  0  0
   34.0247  -14.1400   29.7586 Cl  0  0  0  0  0  0  0  0  0  0  0  0
   38.6288  -15.3668   26.2003 N   0  0  0  0  0  0  0  0  0  0  0  0
   38.7444  -15.4024   24.8625 C   0  0  0  0  0  0  0  0  0  0  0  0
   39.9577  -15.7539   24.5344 N   0  0  0  0  0  0  0  0  0  0  0  0
   40.6156  -15.9368   25.7081 N   0  0  0  0  0  0  0  0  0  0  0  0
   39.8376  -15.6977   26.7178 N   0  0  0  0  0  0  0  0  0  0  0  0
   39.6529  -22.0842   27.6552 C   0  0  0  0  0  0  0  0  0  0  0  0
   40.0600  -23.7627   29.4917 C   0  0  0  0  0  0  0  0  0  0  0  0
   40.0574  -23.4610   28.1358 C   0  0  0  0  0  0  0  0  0  0  0  0
   40.3027  -24.4884   27.2334 C   0  0  0  0  0  0  0  0  0  0  0  0
   40.4859  -25.7908   27.6691 C   0  0  0  0  0  0  0  0  0  0  0  0
   40.4620  -26.0807   29.0145 C   0  0  0  0  0  0  0  0  0  0  0  0
   40.2580  -25.0625   29.9280 C   0  0  0  0  0  0  0  0  0  0  0  0
 38 37  2  0  0  0
 38 39  1  0  0  0
 37 36  1  0  0  0
 39 40  2  0  0  0
 36 40  1  0  0  0
 36 31  1  0  0  0
  7  4  1  0  0  0
 31 32  2  0  0  0
 31 29  1  0  0  0
 32 30  1  0  0  0
 42 47  2  0  0  0
 42 43  1  0  0  0
  6  4  1  0  0  0
  6  5  1  0  0  0
 41 43  1  0  0  0
 41  1  1  0  0  0
  4  3  2  0  0  0
 47 46  1  0  0  0
 29 28  1  0  0  0
 29 34  2  0  0  0
 28 24  1  0  0  0
 30 33  2  0  0  0
 43 44  2  0  0  0
 23  1  1  0  0  0
 23 22  1  0  0  0
  5  1  1  0  0  0
  5  2  2  0  0  0
 34 33  1  0  0  0
 33 35  1  0  0  0
 24 22  1  0  0  0
 46 45  2  0  0  0
  3  2  1  0  0  0
  3 11  1  0  0  0
 22 25  2  0  0  0
 44 45  1  0  0  0
 10 11  2  0  0  0
 10 14  1  0  0  0
 11 12  1  0  0  0
 15 14  1  0  0  0
 15 16  1  0  0  0
 14 13  2  0  0  0
 12  9  2  0  0  0
 16 17  2  0  0  0
 13  9  1  0  0  0
 13 17  1  0  0  0
 17 18  1  0  0  0
 23 26  1  0  0  0
  6  8  1  0  0  0
 24 27  1  0  0  0
 15 19  1  0  0  0
 18 20  1  0  0  0
 18 21  1  0  0  0
M  END
> <minimizedAffinity>
-11.79383

$$$$
4X6N_3Y5_A_301


 47 52  0  0  0  0  0  0  0  0999 V2000
   39.8871  -20.9436   28.4139 C   0  0  0  0  0  0  0  0  0  0  0  0
   42.1276  -21.0371   29.4715 N   0  0  0  0  0  0  0  0  0  0  0  0
   43.4266  -20.9551   29.0230 C   0  0  0  0  0  0  0  0  0  0  0  0
   43.4412  -20.7239   27.6896 C   0  0  0  0  0  0  0  0  0  0  0  0
   41.3817  -20.8500   28.4042 C   0  0  0  0  0  0  0  0  0  0  0  0
   42.1267  -20.6509   27.2862 N   0  0  0  0  0  0  0  0  0  0  0  0
   44.7190  -20.5222   26.5899 Cl  0  0  0  0  0  0  0  0  0  0  0  0
   41.7947  -20.4878   26.3739 H   0  0  0  0  0  0  0  0  0  0  0  0
   45.3897  -22.2468   31.9604 C   0  0  0  0  0  0  0  0  0  0  0  0
   45.8117  -20.6958   29.6591 C   0  0  0  0  0  0  0  0  0  0  0  0
   44.5301  -21.1411   29.9835 C   0  0  0  0  0  0  0  0  0  0  0  0
   44.3260  -21.8923   31.1484 C   0  0  0  0  0  0  0  0  0  0  0  0
   46.6886  -21.8740   31.6151 C   0  0  0  0  0  0  0  0  0  0  0  0
   46.8805  -21.0993   30.4536 C   0  0  0  0  0  0  0  0  0  0  0  0
   48.2226  -20.9370   30.3087 N   0  0  0  0  0  0  0  0  0  0  0  0
   48.9187  -21.5463   31.3147 N   0  0  0  0  0  0  0  0  0  0  0  0
   48.0401  -22.1242   32.1351 C   0  0  0  0  0  0  0  0  0  0  0  0
   48.4178  -22.7674   33.2439 N   0  0  0  0  0  0  0  0  0  0  0  0
   48.6421  -20.4409   29.5690 H   0  0  0  0  0  0  0  0  0  0  0  0
   49.3742  -22.8546   33.4608 H   0  0  0  0  0  0  0  0  0  0  0  0
   47.7398  -23.1541   33.8438 H   0  0  0  0  0  0  0  0  0  0  0  0
   39.2019  -18.7344   29.1777 C   0  0  0  0  0  0  0  0  0  0  0  0
   39.2408  -19.6577   28.1633 N   0  0  0  0  0  0  0  0  0  0  0  0
   38.5812  -17.5551   28.9203 N   0  0  0  0  0  0  0  0  0  0  0  0
   39.7699  -18.9380   30.2551 O   0  0  0  0  0  0  0  0  0  0  0  0
   38.8418  -19.4578   27.2857 H   0  0  0  0  0  0  0  0  0  0  0  0
   38.9256  -16.7486   29.3678 H   0  0  0  0  0  0  0  0  0  0  0  0
   37.4371  -17.4001   28.0249 C   0  0  0  0  0  0  0  0  0  0  0  0
   36.8897  -15.9869   27.9829 C   0  0  0  0  0  0  0  0  0  0  0  0
   35.9024  -13.3622   27.9827 C   0  0  0  0  0  0  0  0  0  0  0  0
   37.4421  -15.0189   27.1257 C   0  0  0  0  0  0  0  0  0  0  0  0
   36.9458  -13.7120   27.1374 C   0  0  0  0  0  0  0  0  0  0  0  0
   35.3563  -14.3269   28.8055 C   0  0  0  0  0  0  0  0  0  0  0  0
   35.8408  -15.6188   28.8208 C   0  0  0  0  0  0  0  0  0  0  0  0
   33.9865  -13.9232   29.8174 Cl  0  0  0  0  0  0  0  0  0  0  0  0
   38.5426  -15.3194   26.2598 N   0  0  0  0  0  0  0  0  0  0  0  0
   38.6446  -15.4110   24.9236 C   0  0  0  0  0  0  0  0  0  0  0  0
   39.8531  -15.7814   24.5984 N   0  0  0  0  0  0  0  0  0  0  0  0
   40.5220  -15.9185   25.7720 N   0  0  0  0  0  0  0  0  0  0  0  0
   39.7552  -15.6342   26.7786 N   0  0  0  0  0  0  0  0  0  0  0  0
   39.4365  -22.0163   27.4061 C   0  0  0  0  0  0  0  0  0  0  0  0
   37.3062  -21.1632   26.3621 C   0  0  0  0  0  0  0  0  0  0  0  0
   38.6617  -21.4413   26.2403 C   0  0  0  0  0  0  0  0  0  0  0  0
   39.3099  -21.0539   25.0742 C   0  0  0  0  0  0  0  0  0  0  0  0
   38.6380  -20.3558   24.0838 C   0  0  0  0  0  0  0  0  0  0  0  0
   37.3003  -20.0651   24.2275 C   0  0  0  0  0  0  0  0  0  0  0  0
   36.6311  -20.4782   25.3651 C   0  0  0  0  0  0  0  0  0  0  0  0
 38 37  2  0  0  0
 38 39  1  0  0  0
 37 36  1  0  0  0
 39 40  2  0  0  0
 36 40  1  0  0  0
 36 31  1  0  0  0
  7  4  1  0  0  0
 31 32  2  0  0  0
 31 29  1  0  0  0
 32 30  1  0  0  0
 42 47  2  0  0  0
 42 43  1  0  0  0
  6  4  1  0  0  0
  6  5  1  0  0  0
 41 43  1  0  0  0
 41  1  1  0  0  0
  4  3  2  0  0  0
 47 46  1  0  0  0
 29 28  1  0  0  0
 29 34  2  0  0  0
 28 24  1  0  0  0
 30 33  2  0  0  0
 43 44  2  0  0  0
 23  1  1  0  0  0
 23 22  1  0  0  0
  5  1  1  0  0  0
  5  2  2  0  0  0
 34 33  1  0  0  0
 33 35  1  0  0  0
 24 22  1  0  0  0
 46 45  2  0  0  0
  3  2  1  0  0  0
  3 11  1  0  0  0
 22 25  2  0  0  0
 44 45  1  0  0  0
 10 11  2  0  0  0
 10 14  1  0  0  0
 11 12  1  0  0  0
 15 14  1  0  0  0
 15 16  1  0  0  0
 14 13  2  0  0  0
 12  9  2  0  0  0
 16 17  2  0  0  0
 13  9  1  0  0  0
 13 17  1  0  0  0
 17 18  1  0  0  0
 23 26  1  0  0  0
  6  8  1  0  0  0
 24 27  1  0  0  0
 15 19  1  0  0  0
 18 20  1  0  0  0
 18 21  1  0  0  0
M  END
> <minimizedAffinity>
-11.42061

$$$$
4X6N_3Y5_A_301


 47 52  0  0  0  0  0  0  0  0999 V2000
   40.9589  -21.9973   28.6263 C   0  0  0  0  0  0  0  0  0  0  0  0
   39.8494  -19.7884   28.4340 N   0  0  0  0  0  0  0  0  0  0  0  0
   38.7390  -19.3037   27.7805 C   0  0  0  0  0  0  0  0  0  0  0  0
   38.1045  -20.3117   27.1379 C   0  0  0  0  0  0  0  0  0  0  0  0
   39.8638  -21.0789   28.1791 C   0  0  0  0  0  0  0  0  0  0  0  0
   38.8221  -21.4584   27.3947 N   0  0  0  0  0  0  0  0  0  0  0  0
   36.6994  -20.3393   26.1850 Cl  0  0  0  0  0  0  0  0  0  0  0  0
   38.6211  -22.3676   27.0751 H   0  0  0  0  0  0  0  0  0  0  0  0
   38.8298  -15.6225   27.0116 C   0  0  0  0  0  0  0  0  0  0  0  0
   37.2961  -17.4248   28.5211 C   0  0  0  0  0  0  0  0  0  0  0  0
   38.4383  -17.8616   27.8500 C   0  0  0  0  0  0  0  0  0  0  0  0
   39.2117  -16.9487   27.1209 C   0  0  0  0  0  0  0  0  0  0  0  0
   37.6519  -15.1812   27.6141 C   0  0  0  0  0  0  0  0  0  0  0  0
   36.8932  -16.1022   28.3641 C   0  0  0  0  0  0  0  0  0  0  0  0
   35.7766  -15.4452   28.7767 N   0  0  0  0  0  0  0  0  0  0  0  0
   35.7676  -14.1455   28.3543 N   0  0  0  0  0  0  0  0  0  0  0  0
   36.8803  -13.9311   27.6509 C   0  0  0  0  0  0  0  0  0  0  0  0
   37.1786  -12.7336   27.1379 N   0  0  0  0  0  0  0  0  0  0  0  0
   35.0614  -15.8559   29.3143 H   0  0  0  0  0  0  0  0  0  0  0  0
   36.5521  -11.9819   27.2460 H   0  0  0  0  0  0  0  0  0  0  0  0
   38.0248  -12.6032   26.6519 H   0  0  0  0  0  0  0  0  0  0  0  0
   41.2393  -24.1497   29.7319 C   0  0  0  0  0  0  0  0  0  0  0  0
   40.4780  -23.3446   28.9224 N   0  0  0  0  0  0  0  0  0  0  0  0
   40.7747  -25.4013   29.9765 N   0  0  0  0  0  0  0  0  0  0  0  0
   42.2666  -23.7301   30.2736 O   0  0  0  0  0  0  0  0  0  0  0  0
   39.6262  -23.6679   28.5493 H   0  0  0  0  0  0  0  0  0  0  0  0
   40.9759  -25.8017   30.8531 H   0  0  0  0  0  0  0  0  0  0  0  0
   39.9965  -26.1952   29.0284 C   0  0  0  0  0  0  0  0  0  0  0  0
   40.8344  -26.8107   27.9248 C   0  0  0  0  0  0  0  0  0  0  0  0
   42.3564  -28.0234   25.9058 C   0  0  0  0  0  0  0  0  0  0  0  0
   40.5618  -26.5448   26.5714 C   0  0  0  0  0  0  0  0  0  0  0  0
   41.3235  -27.1587   25.5726 C   0  0  0  0  0  0  0  0  0  0  0  0
   42.6259  -28.2610   27.2388 C   0  0  0  0  0  0  0  0  0  0  0  0
   41.8772  -27.6773   28.2401 C   0  0  0  0  0  0  0  0  0  0  0  0
   43.9769  -29.2837   27.6770 Cl  0  0  0  0  0  0  0  0  0  0  0  0
   39.4851  -25.6881   26.1739 N   0  0  0  0  0  0  0  0  0  0  0  0
   38.2366  -25.9413   25.7482 C   0  0  0  0  0  0  0  0  0  0  0  0
   37.6421  -24.8220   25.4361 N   0  0  0  0  0  0  0  0  0  0  0  0
   38.5514  -23.8440   25.6817 N   0  0  0  0  0  0  0  0  0  0  0  0
   39.6586  -24.3439   26.1359 N   0  0  0  0  0  0  0  0  0  0  0  0
   42.0784  -22.0088   27.5699 C   0  0  0  0  0  0  0  0  0  0  0  0
   43.5385  -20.9929   29.3564 C   0  0  0  0  0  0  0  0  0  0  0  0
   43.3124  -21.2517   28.0106 C   0  0  0  0  0  0  0  0  0  0  0  0
   44.3083  -20.9189   27.1009 C   0  0  0  0  0  0  0  0  0  0  0  0
   45.5188  -20.3980   27.5287 C   0  0  0  0  0  0  0  0  0  0  0  0
   45.7396  -20.1689   28.8678 C   0  0  0  0  0  0  0  0  0  0  0  0
   44.7434  -20.4583   29.7825 C   0  0  0  0  0  0  0  0  0  0  0  0
 38 37  2  0  0  0
 38 39  1  0  0  0
 37 36  1  0  0  0
 39 40  2  0  0  0
 36 40  1  0  0  0
 36 31  1  0  0  0
  7  4  1  0  0  0
 31 32  2  0  0  0
 31 29  1  0  0  0
 32 30  1  0  0  0
 42 47  2  0  0  0
 42 43  1  0  0  0
  6  4  1  0  0  0
  6  5  1  0  0  0
 41 43  1  0  0  0
 41  1  1  0  0  0
  4  3  2  0  0  0
 47 46  1  0  0  0
 29 28  1  0  0  0
 29 34  2  0  0  0
 28 24  1  0  0  0
 30 33  2  0  0  0
 43 44  2  0  0  0
 23  1  1  0  0  0
 23 22  1  0  0  0
  5  1  1  0  0  0
  5  2  2  0  0  0
 34 33  1  0  0  0
 33 35  1  0  0  0
 24 22  1  0  0  0
 46 45  2  0  0  0
  3  2  1  0  0  0
  3 11  1  0  0  0
 22 25  2  0  0  0
 44 45  1  0  0  0
 10 11  2  0  0  0
 10 14  1  0  0  0
 11 12  1  0  0  0
 15 14  1  0  0  0
 15 16  1  0  0  0
 14 13  2  0  0  0
 12  9  2  0  0  0
 16 17  2  0  0  0
 13  9  1  0  0  0
 13 17  1  0  0  0
 17 18  1  0  0  0
 23 26  1  0  0  0
  6  8  1  0  0  0
 24 27  1  0  0  0
 15 19  1  0  0  0
 18 20  1  0  0  0
 18 21  1  0  0  0
M  END
> <minimizedAffinity>
-11.05527

$$$$
4X6N_3Y5_A_301


 47 52  0  0  0  0  0  0  0  0999 V2000
   41.3678  -21.6790   29.1679 C   0  0  0  0  0  0  0  0  0  0  0  0
   40.1217  -19.5654   28.8116 N   0  0  0  0  0  0  0  0  0  0  0  0
   39.0002  -19.1970   28.1032 C   0  0  0  0  0  0  0  0  0  0  0  0
   38.4510  -20.2827   27.5105 C   0  0  0  0  0  0  0  0  0  0  0  0
   40.2275  -20.8651   28.6386 C   0  0  0  0  0  0  0  0  0  0  0  0
   39.2349  -21.3609   27.8555 N   0  0  0  0  0  0  0  0  0  0  0  0
   37.0775  -20.4627   26.5287 Cl  0  0  0  0  0  0  0  0  0  0  0  0
   39.1028  -22.2994   27.5889 H   0  0  0  0  0  0  0  0  0  0  0  0
   38.8316  -15.5836   27.0713 C   0  0  0  0  0  0  0  0  0  0  0  0
   37.4444  -17.3692   28.7347 C   0  0  0  0  0  0  0  0  0  0  0  0
   38.6040  -17.7768   28.0750 C   0  0  0  0  0  0  0  0  0  0  0  0
   39.3036  -16.8701   27.2681 C   0  0  0  0  0  0  0  0  0  0  0  0
   37.6352  -15.1787   27.6630 C   0  0  0  0  0  0  0  0  0  0  0  0
   36.9510  -16.0910   28.4911 C   0  0  0  0  0  0  0  0  0  0  0  0
   35.7986  -15.4813   28.8767 N   0  0  0  0  0  0  0  0  0  0  0  0
   35.6960  -14.2192   28.3627 N   0  0  0  0  0  0  0  0  0  0  0  0
   36.7817  -13.9831   27.6249 C   0  0  0  0  0  0  0  0  0  0  0  0
   36.9912  -12.8090   27.0219 N   0  0  0  0  0  0  0  0  0  0  0  0
   35.1204  -15.8984   29.4558 H   0  0  0  0  0  0  0  0  0  0  0  0
   36.3170  -12.0946   27.0878 H   0  0  0  0  0  0  0  0  0  0  0  0
   37.8197  -12.6584   26.5119 H   0  0  0  0  0  0  0  0  0  0  0  0
   40.3671  -23.8612   29.5806 C   0  0  0  0  0  0  0  0  0  0  0  0
   41.2421  -23.0989   28.8483 N   0  0  0  0  0  0  0  0  0  0  0  0
   40.2834  -25.1801   29.2711 N   0  0  0  0  0  0  0  0  0  0  0  0
   39.6339  -23.3559   30.4361 O   0  0  0  0  0  0  0  0  0  0  0  0
   41.7736  -23.5002   28.1232 H   0  0  0  0  0  0  0  0  0  0  0  0
   39.4121  -25.6236   29.3867 H   0  0  0  0  0  0  0  0  0  0  0  0
   41.3973  -25.9869   28.7782 C   0  0  0  0  0  0  0  0  0  0  0  0
   41.2244  -26.4429   27.3426 C   0  0  0  0  0  0  0  0  0  0  0  0
   40.8916  -27.2082   24.6654 C   0  0  0  0  0  0  0  0  0  0  0  0
   42.2946  -27.0055   26.6251 C   0  0  0  0  0  0  0  0  0  0  0  0
   42.1193  -27.3788   25.2892 C   0  0  0  0  0  0  0  0  0  0  0  0
   39.8437  -26.6724   25.3870 C   0  0  0  0  0  0  0  0  0  0  0  0
   39.9990  -26.2834   26.7017 C   0  0  0  0  0  0  0  0  0  0  0  0
   38.2673  -26.5268   24.6405 Cl  0  0  0  0  0  0  0  0  0  0  0  0
   43.5909  -27.1704   27.2115 N   0  0  0  0  0  0  0  0  0  0  0  0
   44.6816  -26.3868   27.2319 C   0  0  0  0  0  0  0  0  0  0  0  0
   45.6562  -27.0042   27.8423 N   0  0  0  0  0  0  0  0  0  0  0  0
   45.1498  -28.2073   28.2162 N   0  0  0  0  0  0  0  0  0  0  0  0
   43.9088  -28.3199   27.8565 N   0  0  0  0  0  0  0  0  0  0  0  0
   42.6951  -21.0924   28.6546 C   0  0  0  0  0  0  0  0  0  0  0  0
   43.7568  -22.0926   30.7108 C   0  0  0  0  0  0  0  0  0  0  0  0
   43.8064  -21.1637   29.6793 C   0  0  0  0  0  0  0  0  0  0  0  0
   44.9586  -20.4008   29.5368 C   0  0  0  0  0  0  0  0  0  0  0  0
   46.0527  -20.6014   30.3628 C   0  0  0  0  0  0  0  0  0  0  0  0
   45.9996  -21.5424   31.3659 C   0  0  0  0  0  0  0  0  0  0  0  0
   44.8455  -22.2828   31.5461 C   0  0  0  0  0  0  0  0  0  0  0  0
 38 37  2  0  0  0
 38 39  1  0  0  0
 37 36  1  0  0  0
 39 40  2  0  0  0
 36 40  1  0  0  0
 36 31  1  0  0  0
  7  4  1  0  0  0
 31 32  2  0  0  0
 31 29  1  0  0  0
 32 30  1  0  0  0
 42 47  2  0  0  0
 42 43  1  0  0  0
  6  4  1  0  0  0
  6  5  1  0  0  0
 41 43  1  0  0  0
 41  1  1  0  0  0
  4  3  2  0  0  0
 47 46  1  0  0  0
 29 28  1  0  0  0
 29 34  2  0  0  0
 28 24  1  0  0  0
 30 33  2  0  0  0
 43 44  2  0  0  0
 23  1  1  0  0  0
 23 22  1  0  0  0
  5  1  1  0  0  0
  5  2  2  0  0  0
 34 33  1  0  0  0
 33 35  1  0  0  0
 24 22  1  0  0  0
 46 45  2  0  0  0
  3  2  1  0  0  0
  3 11  1  0  0  0
 22 25  2  0  0  0
 44 45  1  0  0  0
 10 11  2  0  0  0
 10 14  1  0  0  0
 11 12  1  0  0  0
 15 14  1  0  0  0
 15 16  1  0  0  0
 14 13  2  0  0  0
 12  9  2  0  0  0
 16 17  2  0  0  0
 13  9  1  0  0  0
 13 17  1  0  0  0
 17 18  1  0  0  0
 23 26  1  0  0  0
  6  8  1  0  0  0
 24 27  1  0  0  0
 15 19  1  0  0  0
 18 20  1  0  0  0
 18 21  1  0  0  0
M  END
> <minimizedAffinity>
-10.80147

$$$$
4X6N_3Y5_A_301


 47 52  0  0  0  0  0  0  0  0999 V2000
   41.8805  -21.5166   28.7121 C   0  0  0  0  0  0  0  0  0  0  0  0
   40.4916  -19.4726   28.5116 N   0  0  0  0  0  0  0  0  0  0  0  0
   39.2569  -19.1757   27.9802 C   0  0  0  0  0  0  0  0  0  0  0  0
   38.6762  -20.3014   27.5036 C   0  0  0  0  0  0  0  0  0  0  0  0
   40.6331  -20.7705   28.3512 C   0  0  0  0  0  0  0  0  0  0  0  0
   39.5563  -21.3328   27.7438 N   0  0  0  0  0  0  0  0  0  0  0  0
   37.1772  -20.5712   26.7531 Cl  0  0  0  0  0  0  0  0  0  0  0  0
   39.4307  -22.2834   27.5208 H   0  0  0  0  0  0  0  0  0  0  0  0
   38.8882  -15.5593   27.0127 C   0  0  0  0  0  0  0  0  0  0  0  0
   37.6300  -17.4360   28.6783 C   0  0  0  0  0  0  0  0  0  0  0  0
   38.7916  -17.7763   27.9849 C   0  0  0  0  0  0  0  0  0  0  0  0
   39.4266  -16.8240   27.1768 C   0  0  0  0  0  0  0  0  0  0  0  0
   37.6883  -15.2225   27.6389 C   0  0  0  0  0  0  0  0  0  0  0  0
   37.0694  -16.1799   28.4676 C   0  0  0  0  0  0  0  0  0  0  0  0
   35.8985  -15.6333   28.8903 N   0  0  0  0  0  0  0  0  0  0  0  0
   35.7223  -14.3699   28.3999 N   0  0  0  0  0  0  0  0  0  0  0  0
   36.7770  -14.0696   27.6407 C   0  0  0  0  0  0  0  0  0  0  0  0
   36.9146  -12.8775   27.0526 N   0  0  0  0  0  0  0  0  0  0  0  0
   35.2556  -16.0919   29.4782 H   0  0  0  0  0  0  0  0  0  0  0  0
   36.2083  -12.1980   27.1462 H   0  0  0  0  0  0  0  0  0  0  0  0
   37.7222  -12.6788   26.5258 H   0  0  0  0  0  0  0  0  0  0  0  0
   41.9731  -23.9024   28.2294 C   0  0  0  0  0  0  0  0  0  0  0  0
   42.1650  -22.6157   27.7928 N   0  0  0  0  0  0  0  0  0  0  0  0
   42.2607  -24.9029   27.3585 N   0  0  0  0  0  0  0  0  0  0  0  0
   41.4908  -24.1394   29.3412 O   0  0  0  0  0  0  0  0  0  0  0  0
   42.4874  -22.4372   26.8799 H   0  0  0  0  0  0  0  0  0  0  0  0
   41.7227  -25.7257   27.4117 H   0  0  0  0  0  0  0  0  0  0  0  0
   43.3138  -24.8429   26.3475 C   0  0  0  0  0  0  0  0  0  0  0  0
   44.6276  -24.3003   26.8749 C   0  0  0  0  0  0  0  0  0  0  0  0
   47.0158  -23.2399   27.8926 C   0  0  0  0  0  0  0  0  0  0  0  0
   45.4446  -25.0707   27.7209 C   0  0  0  0  0  0  0  0  0  0  0  0
   46.6307  -24.5304   28.2269 C   0  0  0  0  0  0  0  0  0  0  0  0
   46.2142  -22.5011   27.0456 C   0  0  0  0  0  0  0  0  0  0  0  0
   45.0323  -23.0094   26.5470 C   0  0  0  0  0  0  0  0  0  0  0  0
   46.7263  -20.9030   26.5486 Cl  0  0  0  0  0  0  0  0  0  0  0  0
   45.0753  -26.3944   28.1243 N   0  0  0  0  0  0  0  0  0  0  0  0
   45.2439  -27.5964   27.5490 C   0  0  0  0  0  0  0  0  0  0  0  0
   44.6689  -28.5165   28.2744 N   0  0  0  0  0  0  0  0  0  0  0  0
   44.1314  -27.8625   29.3360 N   0  0  0  0  0  0  0  0  0  0  0  0
   44.3752  -26.5905   29.2688 N   0  0  0  0  0  0  0  0  0  0  0  0
   43.0573  -20.5288   28.8043 C   0  0  0  0  0  0  0  0  0  0  0  0
   43.9423  -22.1132   30.5542 C   0  0  0  0  0  0  0  0  0  0  0  0
   44.1194  -20.9676   29.7890 C   0  0  0  0  0  0  0  0  0  0  0  0
   45.3455  -20.3175   29.8531 C   0  0  0  0  0  0  0  0  0  0  0  0
   46.3847  -20.8299   30.6128 C   0  0  0  0  0  0  0  0  0  0  0  0
   46.2039  -21.9796   31.3476 C   0  0  0  0  0  0  0  0  0  0  0  0
   44.9768  -22.6172   31.3254 C   0  0  0  0  0  0  0  0  0  0  0  0
 38 37  2  0  0  0
 38 39  1  0  0  0
 37 36  1  0  0  0
 39 40  2  0  0  0
 36 40  1  0  0  0
 36 31  1  0  0  0
  7  4  1  0  0  0
 31 32  2  0  0  0
 31 29  1  0  0  0
 32 30  1  0  0  0
 42 47  2  0  0  0
 42 43  1  0  0  0
  6  4  1  0  0  0
  6  5  1  0  0  0
 41 43  1  0  0  0
 41  1  1  0  0  0
  4  3  2  0  0  0
 47 46  1  0  0  0
 29 28  1  0  0  0
 29 34  2  0  0  0
 28 24  1  0  0  0
 30 33  2  0  0  0
 43 44  2  0  0  0
 23  1  1  0  0  0
 23 22  1  0  0  0
  5  1  1  0  0  0
  5  2  2  0  0  0
 34 33  1  0  0  0
 33 35  1  0  0  0
 24 22  1  0  0  0
 46 45  2  0  0  0
  3  2  1  0  0  0
  3 11  1  0  0  0
 22 25  2  0  0  0
 44 45  1  0  0  0
 10 11  2  0  0  0
 10 14  1  0  0  0
 11 12  1  0  0  0
 15 14  1  0  0  0
 15 16  1  0  0  0
 14 13  2  0  0  0
 12  9  2  0  0  0
 16 17  2  0  0  0
 13  9  1  0  0  0
 13 17  1  0  0  0
 17 18  1  0  0  0
 23 26  1  0  0  0
  6  8  1  0  0  0
 24 27  1  0  0  0
 15 19  1  0  0  0
 18 20  1  0  0  0
 18 21  1  0  0  0
M  END
> <minimizedAffinity>
-10.56955

$$$$
4X6N_3Y5_A_301


 47 52  0  0  0  0  0  0  0  0999 V2000
   41.0763  -21.0199   28.4092 C   0  0  0  0  0  0  0  0  0  0  0  0
   39.4059  -19.1967   28.2273 N   0  0  0  0  0  0  0  0  0  0  0  0
   38.1605  -19.0628   27.6562 C   0  0  0  0  0  0  0  0  0  0  0  0
   37.7718  -20.2404   27.1142 C   0  0  0  0  0  0  0  0  0  0  0  0
   39.7452  -20.4514   28.0246 C   0  0  0  0  0  0  0  0  0  0  0  0
   38.7868  -21.1398   27.3523 N   0  0  0  0  0  0  0  0  0  0  0  0
   36.3577  -20.6960   26.2922 Cl  0  0  0  0  0  0  0  0  0  0  0  0
   38.8126  -22.0881   27.0889 H   0  0  0  0  0  0  0  0  0  0  0  0
   36.2631  -16.0868   28.9576 C   0  0  0  0  0  0  0  0  0  0  0  0
   37.7379  -16.8185   26.6841 C   0  0  0  0  0  0  0  0  0  0  0  0
   37.4917  -17.7490   27.6938 C   0  0  0  0  0  0  0  0  0  0  0  0
   36.7320  -17.3811   28.8120 C   0  0  0  0  0  0  0  0  0  0  0  0
   36.5604  -15.1221   27.9951 C   0  0  0  0  0  0  0  0  0  0  0  0
   37.3058  -15.5079   26.8629 C   0  0  0  0  0  0  0  0  0  0  0  0
   37.5149  -14.3821   26.1297 N   0  0  0  0  0  0  0  0  0  0  0  0
   36.9373  -13.2863   26.7071 N   0  0  0  0  0  0  0  0  0  0  0  0
   36.3428  -13.6776   27.8351 C   0  0  0  0  0  0  0  0  0  0  0  0
   35.6519  -12.8324   28.6059 N   0  0  0  0  0  0  0  0  0  0  0  0
   38.0208  -14.3591   25.2855 H   0  0  0  0  0  0  0  0  0  0  0  0
   35.5967  -11.8794   28.3649 H   0  0  0  0  0  0  0  0  0  0  0  0
   35.1983  -13.1626   29.4149 H   0  0  0  0  0  0  0  0  0  0  0  0
   41.2786  -22.6032   30.2492 C   0  0  0  0  0  0  0  0  0  0  0  0
   40.9780  -22.3817   28.9288 N   0  0  0  0  0  0  0  0  0  0  0  0
   41.1934  -23.8808   30.6994 N   0  0  0  0  0  0  0  0  0  0  0  0
   41.5449  -21.6707   31.0136 O   0  0  0  0  0  0  0  0  0  0  0  0
   40.7022  -23.1243   28.3443 H   0  0  0  0  0  0  0  0  0  0  0  0
   40.9218  -24.0198   31.6354 H   0  0  0  0  0  0  0  0  0  0  0  0
   41.4771  -25.0640   29.8905 C   0  0  0  0  0  0  0  0  0  0  0  0
   42.5661  -24.8439   28.8589 C   0  0  0  0  0  0  0  0  0  0  0  0
   44.6184  -24.5042   26.9783 C   0  0  0  0  0  0  0  0  0  0  0  0
   42.2930  -24.9379   27.4829 C   0  0  0  0  0  0  0  0  0  0  0  0
   43.3246  -24.7719   26.5540 C   0  0  0  0  0  0  0  0  0  0  0  0
   44.8692  -24.3954   28.3316 C   0  0  0  0  0  0  0  0  0  0  0  0
   43.8689  -24.5704   29.2657 C   0  0  0  0  0  0  0  0  0  0  0  0
   46.4777  -23.9769   28.8801 Cl  0  0  0  0  0  0  0  0  0  0  0  0
   40.9827  -25.2470   26.9941 N   0  0  0  0  0  0  0  0  0  0  0  0
   40.4004  -26.4022   26.6330 C   0  0  0  0  0  0  0  0  0  0  0  0
   39.1979  -26.1676   26.1830 N   0  0  0  0  0  0  0  0  0  0  0  0
   39.0293  -24.8233   26.2735 N   0  0  0  0  0  0  0  0  0  0  0  0
   40.0852  -24.2560   26.7688 N   0  0  0  0  0  0  0  0  0  0  0  0
   42.0344  -20.9339   27.2075 C   0  0  0  0  0  0  0  0  0  0  0  0
   44.4944  -20.9465   26.6564 C   0  0  0  0  0  0  0  0  0  0  0  0
   43.4912  -20.9048   27.6162 C   0  0  0  0  0  0  0  0  0  0  0  0
   43.8569  -20.7004   28.9408 C   0  0  0  0  0  0  0  0  0  0  0  0
   45.1803  -20.4840   29.2893 C   0  0  0  0  0  0  0  0  0  0  0  0
   46.1623  -20.5036   28.3250 C   0  0  0  0  0  0  0  0  0  0  0  0
   45.8193  -20.7448   27.0071 C   0  0  0  0  0  0  0  0  0  0  0  0
 38 37  2  0  0  0
 38 39  1  0  0  0
 37 36  1  0  0  0
 39 40  2  0  0  0
 36 40  1  0  0  0
 36 31  1  0  0  0
  7  4  1  0  0  0
 31 32  2  0  0  0
 31 29  1  0  0  0
 32 30  1  0  0  0
 42 47  2  0  0  0
 42 43  1  0  0  0
  6  4  1  0  0  0
  6  5  1  0  0  0
 41 43  1  0  0  0
 41  1  1  0  0  0
  4  3  2  0  0  0
 47 46  1  0  0  0
 29 28  1  0  0  0
 29 34  2  0  0  0
 28 24  1  0  0  0
 30 33  2  0  0  0
 43 44  2  0  0  0
 23  1  1  0  0  0
 23 22  1  0  0  0
  5  1  1  0  0  0
  5  2  2  0  0  0
 34 33  1  0  0  0
 33 35  1  0  0  0
 24 22  1  0  0  0
 46 45  2  0  0  0
  3  2  1  0  0  0
  3 11  1  0  0  0
 22 25  2  0  0  0
 44 45  1  0  0  0
 10 11  2  0  0  0
 10 14  1  0  0  0
 11 12  1  0  0  0
 15 14  1  0  0  0
 15 16  1  0  0  0
 14 13  2  0  0  0
 12  9  2  0  0  0
 16 17  2  0  0  0
 13  9  1  0  0  0
 13 17  1  0  0  0
 17 18  1  0  0  0
 23 26  1  0  0  0
  6  8  1  0  0  0
 24 27  1  0  0  0
 15 19  1  0  0  0
 18 20  1  0  0  0
 18 21  1  0  0  0
M  END
> <minimizedAffinity>
-10.54981

$$$$
4X6N_3Y5_A_301


 47 52  0  0  0  0  0  0  0  0999 V2000
   39.0684  -22.1086   24.9358 C   0  0  0  0  0  0  0  0  0  0  0  0
   38.4603  -19.8156   25.6563 N   0  0  0  0  0  0  0  0  0  0  0  0
   38.2829  -18.6051   25.0249 C   0  0  0  0  0  0  0  0  0  0  0  0
   38.4437  -18.7529   23.6893 C   0  0  0  0  0  0  0  0  0  0  0  0
   38.7202  -20.6724   24.6927 C   0  0  0  0  0  0  0  0  0  0  0  0
   38.7214  -20.0834   23.4690 N   0  0  0  0  0  0  0  0  0  0  0  0
   38.3435  -17.6437   22.4077 Cl  0  0  0  0  0  0  0  0  0  0  0  0
   38.8869  -20.5188   22.6016 H   0  0  0  0  0  0  0  0  0  0  0  0
   37.7619  -15.0006   25.9662 C   0  0  0  0  0  0  0  0  0  0  0  0
   37.3529  -17.5491   27.0695 C   0  0  0  0  0  0  0  0  0  0  0  0
   37.9895  -17.4091   25.8362 C   0  0  0  0  0  0  0  0  0  0  0  0
   38.2125  -16.1313   25.3067 C   0  0  0  0  0  0  0  0  0  0  0  0
   37.0586  -15.1227   27.1645 C   0  0  0  0  0  0  0  0  0  0  0  0
   36.8595  -16.4110   27.7001 C   0  0  0  0  0  0  0  0  0  0  0  0
   36.0967  -16.2576   28.8151 N   0  0  0  0  0  0  0  0  0  0  0  0
   35.7983  -14.9446   29.0489 N   0  0  0  0  0  0  0  0  0  0  0  0
   36.3589  -14.2144   28.0837 C   0  0  0  0  0  0  0  0  0  0  0  0
   36.2783  -12.8806   28.0622 N   0  0  0  0  0  0  0  0  0  0  0  0
   35.7958  -17.0020   29.3848 H   0  0  0  0  0  0  0  0  0  0  0  0
   35.7652  -12.4072   28.7563 H   0  0  0  0  0  0  0  0  0  0  0  0
   36.7322  -12.3715   27.3523 H   0  0  0  0  0  0  0  0  0  0  0  0
   41.3093  -23.0612   25.0059 C   0  0  0  0  0  0  0  0  0  0  0  0
   40.3589  -22.2702   25.6011 N   0  0  0  0  0  0  0  0  0  0  0  0
   42.4925  -23.2051   25.6551 N   0  0  0  0  0  0  0  0  0  0  0  0
   41.1238  -23.5625   23.8928 O   0  0  0  0  0  0  0  0  0  0  0  0
   40.5428  -21.8214   26.4578 H   0  0  0  0  0  0  0  0  0  0  0  0
   43.3041  -23.3176   25.1093 H   0  0  0  0  0  0  0  0  0  0  0  0
   42.6447  -23.2044   27.1082 C   0  0  0  0  0  0  0  0  0  0  0  0
   41.8233  -24.2731   27.8024 C   0  0  0  0  0  0  0  0  0  0  0  0
   40.3733  -26.2812   29.1173 C   0  0  0  0  0  0  0  0  0  0  0  0
   40.9120  -23.9420   28.8206 C   0  0  0  0  0  0  0  0  0  0  0  0
   40.1981  -24.9515   29.4732 C   0  0  0  0  0  0  0  0  0  0  0  0
   41.2570  -26.5910   28.1028 C   0  0  0  0  0  0  0  0  0  0  0  0
   41.9827  -25.6119   27.4559 C   0  0  0  0  0  0  0  0  0  0  0  0
   41.4285  -28.2543   27.5860 Cl  0  0  0  0  0  0  0  0  0  0  0  0
   40.7203  -22.5890   29.2494 N   0  0  0  0  0  0  0  0  0  0  0  0
   41.2670  -21.8677   30.2418 C   0  0  0  0  0  0  0  0  0  0  0  0
   40.7174  -20.6845   30.2809 N   0  0  0  0  0  0  0  0  0  0  0  0
   39.8041  -20.6720   29.2762 N   0  0  0  0  0  0  0  0  0  0  0  0
   39.8002  -21.8018   28.6393 N   0  0  0  0  0  0  0  0  0  0  0  0
   37.9306  -22.7834   25.7227 C   0  0  0  0  0  0  0  0  0  0  0  0
   38.4483  -25.2496   25.7994 C   0  0  0  0  0  0  0  0  0  0  0  0
   37.6799  -24.2113   25.2886 C   0  0  0  0  0  0  0  0  0  0  0  0
   36.5966  -24.5316   24.4799 C   0  0  0  0  0  0  0  0  0  0  0  0
   36.2546  -25.8520   24.2371 C   0  0  0  0  0  0  0  0  0  0  0  0
   37.0100  -26.8721   24.7694 C   0  0  0  0  0  0  0  0  0  0  0  0
   38.1148  -26.5697   25.5444 C   0  0  0  0  0  0  0  0  0  0  0  0
 38 37  2  0  0  0
 38 39  1  0  0  0
 37 36  1  0  0  0
 39 40  2  0  0  0
 36 40  1  0  0  0
 36 31  1  0  0  0
  7  4  1  0  0  0
 31 32  2  0  0  0
 31 29  1  0  0  0
 32 30  1  0  0  0
 42 47  2  0  0  0
 42 43  1  0  0  0
  6  4  1  0  0  0
  6  5  1  0  0  0
 41 43  1  0  0  0
 41  1  1  0  0  0
  4  3  2  0  0  0
 47 46  1  0  0  0
 29 28  1  0  0  0
 29 34  2  0  0  0
 28 24  1  0  0  0
 30 33  2  0  0  0
 43 44  2  0  0  0
 23  1  1  0  0  0
 23 22  1  0  0  0
  5  1  1  0  0  0
  5  2  2  0  0  0
 34 33  1  0  0  0
 33 35  1  0  0  0
 24 22  1  0  0  0
 46 45  2  0  0  0
  3  2  1  0  0  0
  3 11  1  0  0  0
 22 25  2  0  0  0
 44 45  1  0  0  0
 10 11  2  0  0  0
 10 14  1  0  0  0
 11 12  1  0  0  0
 15 14  1  0  0  0
 15 16  1  0  0  0
 14 13  2  0  0  0
 12  9  2  0  0  0
 16 17  2  0  0  0
 13  9  1  0  0  0
 13 17  1  0  0  0
 17 18  1  0  0  0
 23 26  1  0  0  0
  6  8  1  0  0  0
 24 27  1  0  0  0
 15 19  1  0  0  0
 18 20  1  0  0  0
 18 21  1  0  0  0
M  END
> <minimizedAffinity>
-10.44368

$$$$
4X6N_3Y5_A_301


 47 52  0  0  0  0  0  0  0  0999 V2000
   37.8472  -17.9578   27.6705 C   0  0  0  0  0  0  0  0  0  0  0  0
   37.1834  -19.8635   26.2302 N   0  0  0  0  0  0  0  0  0  0  0  0
   36.7720  -20.0076   24.9244 C   0  0  0  0  0  0  0  0  0  0  0  0
   36.7900  -18.8074   24.2993 C   0  0  0  0  0  0  0  0  0  0  0  0
   37.4465  -18.5823   26.3696 C   0  0  0  0  0  0  0  0  0  0  0  0
   37.2279  -17.8861   25.2242 N   0  0  0  0  0  0  0  0  0  0  0  0
   36.4029  -18.3532   22.7097 Cl  0  0  0  0  0  0  0  0  0  0  0  0
   37.3562  -16.9201   25.0839 H   0  0  0  0  0  0  0  0  0  0  0  0
   36.2969  -23.7372   24.8044 C   0  0  0  0  0  0  0  0  0  0  0  0
   35.4558  -21.4574   23.3992 C   0  0  0  0  0  0  0  0  0  0  0  0
   36.3780  -21.3435   24.4397 C   0  0  0  0  0  0  0  0  0  0  0  0
   36.8113  -22.4907   25.1172 C   0  0  0  0  0  0  0  0  0  0  0  0
   35.3198  -23.8637   23.8171 C   0  0  0  0  0  0  0  0  0  0  0  0
   34.9073  -22.7068   23.1259 C   0  0  0  0  0  0  0  0  0  0  0  0
   33.9120  -23.0890   22.2822 N   0  0  0  0  0  0  0  0  0  0  0  0
   33.6600  -24.4294   22.3694 N   0  0  0  0  0  0  0  0  0  0  0  0
   34.4860  -24.9477   23.2793 C   0  0  0  0  0  0  0  0  0  0  0  0
   34.5075  -26.2543   23.5589 N   0  0  0  0  0  0  0  0  0  0  0  0
   33.4313  -22.4748   21.6814 H   0  0  0  0  0  0  0  0  0  0  0  0
   33.8776  -26.8640   23.1109 H   0  0  0  0  0  0  0  0  0  0  0  0
   35.1533  -26.6071   24.2129 H   0  0  0  0  0  0  0  0  0  0  0  0
   40.0506  -18.9963   27.6707 C   0  0  0  0  0  0  0  0  0  0  0  0
   38.8969  -18.7081   28.3555 N   0  0  0  0  0  0  0  0  0  0  0  0
   41.0013  -19.7080   28.3279 N   0  0  0  0  0  0  0  0  0  0  0  0
   40.2466  -18.5652   26.5303 O   0  0  0  0  0  0  0  0  0  0  0  0
   38.7793  -19.0006   29.2881 H   0  0  0  0  0  0  0  0  0  0  0  0
   41.9436  -19.5262   28.1082 H   0  0  0  0  0  0  0  0  0  0  0  0
   40.7225  -20.7254   29.3388 C   0  0  0  0  0  0  0  0  0  0  0  0
   41.1173  -22.1256   28.9120 C   0  0  0  0  0  0  0  0  0  0  0  0
   41.8381  -24.6929   28.0439 C   0  0  0  0  0  0  0  0  0  0  0  0
   42.4114  -22.6205   29.1514 C   0  0  0  0  0  0  0  0  0  0  0  0
   42.7618  -23.8998   28.7097 C   0  0  0  0  0  0  0  0  0  0  0  0
   40.5651  -24.2024   27.8322 C   0  0  0  0  0  0  0  0  0  0  0  0
   40.2027  -22.9370   28.2464 C   0  0  0  0  0  0  0  0  0  0  0  0
   39.3642  -25.2204   27.0676 Cl  0  0  0  0  0  0  0  0  0  0  0  0
   43.4120  -21.8293   29.8026 N   0  0  0  0  0  0  0  0  0  0  0  0
   43.9849  -21.9127   31.0146 C   0  0  0  0  0  0  0  0  0  0  0  0
   44.8055  -20.9119   31.1838 N   0  0  0  0  0  0  0  0  0  0  0  0
   44.7416  -20.1885   30.0365 N   0  0  0  0  0  0  0  0  0  0  0  0
   43.9196  -20.7303   29.1920 N   0  0  0  0  0  0  0  0  0  0  0  0
   38.2552  -16.4933   27.4293 C   0  0  0  0  0  0  0  0  0  0  0  0
   36.1668  -15.8072   28.6637 C   0  0  0  0  0  0  0  0  0  0  0  0
   37.1354  -15.5154   27.7118 C   0  0  0  0  0  0  0  0  0  0  0  0
   37.1252  -14.2543   27.1291 C   0  0  0  0  0  0  0  0  0  0  0  0
   36.2118  -13.2922   27.5285 C   0  0  0  0  0  0  0  0  0  0  0  0
   35.2724  -13.5863   28.4906 C   0  0  0  0  0  0  0  0  0  0  0  0
   35.2441  -14.8498   29.0524 C   0  0  0  0  0  0  0  0  0  0  0  0
 38 37  2  0  0  0
 38 39  1  0  0  0
 37 36  1  0  0  0
 39 40  2  0  0  0
 36 40  1  0  0  0
 36 31  1  0  0  0
  7  4  1  0  0  0
 31 32  2  0  0  0
 31 29  1  0  0  0
 32 30  1  0  0  0
 42 47  2  0  0  0
 42 43  1  0  0  0
  6  4  1  0  0  0
  6  5  1  0  0  0
 41 43  1  0  0  0
 41  1  1  0  0  0
  4  3  2  0  0  0
 47 46  1  0  0  0
 29 28  1  0  0  0
 29 34  2  0  0  0
 28 24  1  0  0  0
 30 33  2  0  0  0
 43 44  2  0  0  0
 23  1  1  0  0  0
 23 22  1  0  0  0
  5  1  1  0  0  0
  5  2  2  0  0  0
 34 33  1  0  0  0
 33 35  1  0  0  0
 24 22  1  0  0  0
 46 45  2  0  0  0
  3  2  1  0  0  0
  3 11  1  0  0  0
 22 25  2  0  0  0
 44 45  1  0  0  0
 10 11  2  0  0  0
 10 14  1  0  0  0
 11 12  1  0  0  0
 15 14  1  0  0  0
 15 16  1  0  0  0
 14 13  2  0  0  0
 12  9  2  0  0  0
 16 17  2  0  0  0
 13  9  1  0  0  0
 13 17  1  0  0  0
 17 18  1  0  0  0
 23 26  1  0  0  0
  6  8  1  0  0  0
 24 27  1  0  0  0
 15 19  1  0  0  0
 18 20  1  0  0  0
 18 21  1  0  0  0
M  END
> <minimizedAffinity>
-10.39257

$$$$
4X6N_3Y5_A_301


 47 52  0  0  0  0  0  0  0  0999 V2000
   40.9881  -20.4565   27.4633 C   0  0  0  0  0  0  0  0  0  0  0  0
   39.4726  -22.1419   26.4583 N   0  0  0  0  0  0  0  0  0  0  0  0
   39.2011  -23.4727   26.6831 C   0  0  0  0  0  0  0  0  0  0  0  0
   39.9191  -23.9185   27.7401 C   0  0  0  0  0  0  0  0  0  0  0  0
   40.3447  -21.8066   27.3843 C   0  0  0  0  0  0  0  0  0  0  0  0
   40.6544  -22.8484   28.1986 N   0  0  0  0  0  0  0  0  0  0  0  0
   40.0051  -25.4398   28.4891 Cl  0  0  0  0  0  0  0  0  0  0  0  0
   41.2774  -22.8402   28.9609 H   0  0  0  0  0  0  0  0  0  0  0  0
   37.2506  -26.2536   25.0669 C   0  0  0  0  0  0  0  0  0  0  0  0
   37.2742  -23.4472   25.1188 C   0  0  0  0  0  0  0  0  0  0  0  0
   38.2572  -24.1727   25.7921 C   0  0  0  0  0  0  0  0  0  0  0  0
   38.2518  -25.5726   25.7380 C   0  0  0  0  0  0  0  0  0  0  0  0
   36.2176  -25.5491   24.4489 C   0  0  0  0  0  0  0  0  0  0  0  0
   36.2447  -24.1406   24.4898 C   0  0  0  0  0  0  0  0  0  0  0  0
   35.1053  -23.7095   23.8860 N   0  0  0  0  0  0  0  0  0  0  0  0
   34.3426  -24.7518   23.4391 N   0  0  0  0  0  0  0  0  0  0  0  0
   34.9704  -25.8870   23.7491 C   0  0  0  0  0  0  0  0  0  0  0  0
   34.4884  -27.0844   23.4030 N   0  0  0  0  0  0  0  0  0  0  0  0
   34.8595  -22.7617   23.7832 H   0  0  0  0  0  0  0  0  0  0  0  0
   33.6268  -27.1507   22.9314 H   0  0  0  0  0  0  0  0  0  0  0  0
   34.9950  -27.9003   23.6198 H   0  0  0  0  0  0  0  0  0  0  0  0
   39.5803  -18.9921   28.8076 C   0  0  0  0  0  0  0  0  0  0  0  0
   40.0131  -19.3731   27.5624 N   0  0  0  0  0  0  0  0  0  0  0  0
   38.6628  -17.9936   28.8673 N   0  0  0  0  0  0  0  0  0  0  0  0
   40.0579  -19.4858   29.8337 O   0  0  0  0  0  0  0  0  0  0  0  0
   39.6739  -18.9261   26.7535 H   0  0  0  0  0  0  0  0  0  0  0  0
   38.6921  -17.3901   29.6446 H   0  0  0  0  0  0  0  0  0  0  0  0
   37.6347  -17.7528   27.8575 C   0  0  0  0  0  0  0  0  0  0  0  0
   37.0782  -16.3428   27.8859 C   0  0  0  0  0  0  0  0  0  0  0  0
   36.0732  -13.7281   28.0168 C   0  0  0  0  0  0  0  0  0  0  0  0
   37.6325  -15.3267   27.0878 C   0  0  0  0  0  0  0  0  0  0  0  0
   37.1273  -14.0254   27.1646 C   0  0  0  0  0  0  0  0  0  0  0  0
   35.5255  -14.7391   28.7809 C   0  0  0  0  0  0  0  0  0  0  0  0
   36.0185  -16.0269   28.7316 C   0  0  0  0  0  0  0  0  0  0  0  0
   34.1431  -14.3990   29.7989 Cl  0  0  0  0  0  0  0  0  0  0  0  0
   38.7436  -15.5733   26.2183 N   0  0  0  0  0  0  0  0  0  0  0  0
   38.8802  -15.5103   24.8836 C   0  0  0  0  0  0  0  0  0  0  0  0
   40.0804  -15.8954   24.5449 N   0  0  0  0  0  0  0  0  0  0  0  0
   40.7084  -16.2019   25.7091 N   0  0  0  0  0  0  0  0  0  0  0  0
   39.9258  -16.0036   26.7241 N   0  0  0  0  0  0  0  0  0  0  0  0
   41.9878  -20.4353   28.6335 C   0  0  0  0  0  0  0  0  0  0  0  0
   43.7285  -20.7677   26.8404 C   0  0  0  0  0  0  0  0  0  0  0  0
   43.4210  -20.6287   28.1878 C   0  0  0  0  0  0  0  0  0  0  0  0
   44.4691  -20.5366   29.0950 C   0  0  0  0  0  0  0  0  0  0  0  0
   45.7857  -20.5233   28.6637 C   0  0  0  0  0  0  0  0  0  0  0  0
   46.0763  -20.6373   27.3231 C   0  0  0  0  0  0  0  0  0  0  0  0
   45.0454  -20.7693   26.4107 C   0  0  0  0  0  0  0  0  0  0  0  0
 38 37  2  0  0  0
 38 39  1  0  0  0
 37 36  1  0  0  0
 39 40  2  0  0  0
 36 40  1  0  0  0
 36 31  1  0  0  0
  7  4  1  0  0  0
 31 32  2  0  0  0
 31 29  1  0  0  0
 32 30  1  0  0  0
 42 47  2  0  0  0
 42 43  1  0  0  0
  6  4  1  0  0  0
  6  5  1  0  0  0
 41 43  1  0  0  0
 41  1  1  0  0  0
  4  3  2  0  0  0
 47 46  1  0  0  0
 29 28  1  0  0  0
 29 34  2  0  0  0
 28 24  1  0  0  0
 30 33  2  0  0  0
 43 44  2  0  0  0
 23  1  1  0  0  0
 23 22  1  0  0  0
  5  1  1  0  0  0
  5  2  2  0  0  0
 34 33  1  0  0  0
 33 35  1  0  0  0
 24 22  1  0  0  0
 46 45  2  0  0  0
  3  2  1  0  0  0
  3 11  1  0  0  0
 22 25  2  0  0  0
 44 45  1  0  0  0
 10 11  2  0  0  0
 10 14  1  0  0  0
 11 12  1  0  0  0
 15 14  1  0  0  0
 15 16  1  0  0  0
 14 13  2  0  0  0
 12  9  2  0  0  0
 16 17  2  0  0  0
 13  9  1  0  0  0
 13 17  1  0  0  0
 17 18  1  0  0  0
 23 26  1  0  0  0
  6  8  1  0  0  0
 24 27  1  0  0  0
 15 19  1  0  0  0
 18 20  1  0  0  0
 18 21  1  0  0  0
M  END
> <minimizedAffinity>
-10.33020

$$$$
4X6N_3Y5_A_301


 47 52  0  0  0  0  0  0  0  0999 V2000
   40.0122  -23.7322   26.1295 C   0  0  0  0  0  0  0  0  0  0  0  0
   39.3674  -21.3823   26.5870 N   0  0  0  0  0  0  0  0  0  0  0  0
   38.2445  -20.6153   26.3725 C   0  0  0  0  0  0  0  0  0  0  0  0
   37.2675  -21.3711   25.8194 C   0  0  0  0  0  0  0  0  0  0  0  0
   39.0483  -22.5866   26.1647 C   0  0  0  0  0  0  0  0  0  0  0  0
   37.7782  -22.6430   25.6872 N   0  0  0  0  0  0  0  0  0  0  0  0
   35.6818  -20.9977   25.3410 Cl  0  0  0  0  0  0  0  0  0  0  0  0
   37.3168  -23.4320   25.3213 H   0  0  0  0  0  0  0  0  0  0  0  0
   38.0692  -16.8734   26.0287 C   0  0  0  0  0  0  0  0  0  0  0  0
   38.1862  -18.8013   28.0657 C   0  0  0  0  0  0  0  0  0  0  0  0
   38.2749  -19.1842   26.7272 C   0  0  0  0  0  0  0  0  0  0  0  0
   38.2421  -18.2116   25.7192 C   0  0  0  0  0  0  0  0  0  0  0  0
   37.9050  -16.4774   27.3560 C   0  0  0  0  0  0  0  0  0  0  0  0
   37.9623  -17.4607   28.3640 C   0  0  0  0  0  0  0  0  0  0  0  0
   37.7047  -16.8303   29.5408 N   0  0  0  0  0  0  0  0  0  0  0  0
   37.4977  -15.4910   29.3640 N   0  0  0  0  0  0  0  0  0  0  0  0
   37.6117  -15.2227   28.0625 C   0  0  0  0  0  0  0  0  0  0  0  0
   37.5022  -13.9816   27.5793 N   0  0  0  0  0  0  0  0  0  0  0  0
   37.6712  -17.2835   30.4141 H   0  0  0  0  0  0  0  0  0  0  0  0
   37.2990  -13.2333   28.1859 H   0  0  0  0  0  0  0  0  0  0  0  0
   37.6247  -13.8156   26.6166 H   0  0  0  0  0  0  0  0  0  0  0  0
   42.3917  -23.2175   26.2145 C   0  0  0  0  0  0  0  0  0  0  0  0
   41.2276  -23.4692   26.8962 N   0  0  0  0  0  0  0  0  0  0  0  0
   43.5076  -22.9922   26.9536 N   0  0  0  0  0  0  0  0  0  0  0  0
   42.4096  -23.1279   24.9831 O   0  0  0  0  0  0  0  0  0  0  0  0
   41.2118  -23.4724   27.8806 H   0  0  0  0  0  0  0  0  0  0  0  0
   44.1792  -22.3700   26.5916 H   0  0  0  0  0  0  0  0  0  0  0  0
   43.7807  -23.6095   28.2493 C   0  0  0  0  0  0  0  0  0  0  0  0
   44.7288  -22.8031   29.1151 C   0  0  0  0  0  0  0  0  0  0  0  0
   46.5206  -21.2857   30.6483 C   0  0  0  0  0  0  0  0  0  0  0  0
   44.2672  -21.7208   29.8847 C   0  0  0  0  0  0  0  0  0  0  0  0
   45.1699  -20.9677   30.6414 C   0  0  0  0  0  0  0  0  0  0  0  0
   46.9578  -22.3627   29.9033 C   0  0  0  0  0  0  0  0  0  0  0  0
   46.0864  -23.1100   29.1377 C   0  0  0  0  0  0  0  0  0  0  0  0
   48.6440  -22.8275   29.9657 Cl  0  0  0  0  0  0  0  0  0  0  0  0
   42.8895  -21.3296   29.8848 N   0  0  0  0  0  0  0  0  0  0  0  0
   41.8403  -21.7103   30.6321 C   0  0  0  0  0  0  0  0  0  0  0  0
   40.7586  -21.1154   30.2084 N   0  0  0  0  0  0  0  0  0  0  0  0
   41.1529  -20.3371   29.1679 N   0  0  0  0  0  0  0  0  0  0  0  0
   42.4297  -20.4439   28.9669 N   0  0  0  0  0  0  0  0  0  0  0  0
   39.3015  -25.0120   26.6051 C   0  0  0  0  0  0  0  0  0  0  0  0
   37.6672  -26.3206   25.2007 C   0  0  0  0  0  0  0  0  0  0  0  0
   38.9818  -25.9640   25.4731 C   0  0  0  0  0  0  0  0  0  0  0  0
   39.9736  -26.3941   24.6006 C   0  0  0  0  0  0  0  0  0  0  0  0
   39.6557  -27.1087   23.4570 C   0  0  0  0  0  0  0  0  0  0  0  0
   38.3462  -27.4347   23.1858 C   0  0  0  0  0  0  0  0  0  0  0  0
   37.3511  -27.0478   24.0649 C   0  0  0  0  0  0  0  0  0  0  0  0
 38 37  2  0  0  0
 38 39  1  0  0  0
 37 36  1  0  0  0
 39 40  2  0  0  0
 36 40  1  0  0  0
 36 31  1  0  0  0
  7  4  1  0  0  0
 31 32  2  0  0  0
 31 29  1  0  0  0
 32 30  1  0  0  0
 42 47  2  0  0  0
 42 43  1  0  0  0
  6  4  1  0  0  0
  6  5  1  0  0  0
 41 43  1  0  0  0
 41  1  1  0  0  0
  4  3  2  0  0  0
 47 46  1  0  0  0
 29 28  1  0  0  0
 29 34  2  0  0  0
 28 24  1  0  0  0
 30 33  2  0  0  0
 43 44  2  0  0  0
 23  1  1  0  0  0
 23 22  1  0  0  0
  5  1  1  0  0  0
  5  2  2  0  0  0
 34 33  1  0  0  0
 33 35  1  0  0  0
 24 22  1  0  0  0
 46 45  2  0  0  0
  3  2  1  0  0  0
  3 11  1  0  0  0
 22 25  2  0  0  0
 44 45  1  0  0  0
 10 11  2  0  0  0
 10 14  1  0  0  0
 11 12  1  0  0  0
 15 14  1  0  0  0
 15 16  1  0  0  0
 14 13  2  0  0  0
 12  9  2  0  0  0
 16 17  2  0  0  0
 13  9  1  0  0  0
 13 17  1  0  0  0
 17 18  1  0  0  0
 23 26  1  0  0  0
  6  8  1  0  0  0
 24 27  1  0  0  0
 15 19  1  0  0  0
 18 20  1  0  0  0
 18 21  1  0  0  0
M  END
> <minimizedAffinity>
-10.09684

$$$$
