1TD7_NFL_A_2001


 22 23  0  0  0  0  0  0  0  0999 V2000
   10.6162   15.2019    2.7952 N   0  0  0  0  0  0  0  0  0  0  0  0
   10.8171   15.8786    3.4814 H   0  0  0  0  0  0  0  0  0  0  0  0
   10.0883   11.6261    3.9361 C   0  0  0  0  0  0  0  0  0  0  0  0
   10.7640   12.7487    3.3900 C   0  0  0  0  0  0  0  0  0  0  0  0
   10.1229   14.0098    3.3113 C   0  0  0  0  0  0  0  0  0  0  0  0
    8.8243   14.0923    3.8098 C   0  0  0  0  0  0  0  0  0  0  0  0
    8.1724   12.9932    4.3621 C   0  0  0  0  0  0  0  0  0  0  0  0
    8.8006   11.7644    4.4297 C   0  0  0  0  0  0  0  0  0  0  0  0
   11.4146   10.1817    5.2392 F   0  0  0  0  0  0  0  0  0  0  0  0
   10.6911   10.2493    4.1214 C   0  0  0  0  0  0  0  0  0  0  0  0
    9.6234    9.4726    4.2957 F   0  0  0  0  0  0  0  0  0  0  0  0
   11.3016    9.7382    3.0536 F   0  0  0  0  0  0  0  0  0  0  0  0
   10.8800   15.6224    1.5016 C   0  0  0  0  0  0  0  0  0  0  0  0
   10.0236   15.3148    0.5006 N   0  0  0  0  0  0  0  0  0  0  0  0
   12.1047   16.4405    1.1244 C   0  0  0  0  0  0  0  0  0  0  0  0
   12.2651   16.7994   -0.2193 C   0  0  0  0  0  0  0  0  0  0  0  0
   11.3190   16.4199   -1.1629 C   0  0  0  0  0  0  0  0  0  0  0  0
   10.2141   15.6831   -0.7745 C   0  0  0  0  0  0  0  0  0  0  0  0
   13.2023   16.9023    2.0839 C   0  0  0  0  0  0  0  0  0  0  0  0
   14.3914   16.7718    1.8155 O   0  0  0  0  0  0  0  0  0  0  0  0
   12.9201   17.4300    3.1623 O   0  0  0  0  0  0  0  0  0  0  0  0
   14.6482   16.3757    1.0061 H   0  0  0  0  0  0  0  0  0  0  0  0
  9 10  1  0  0  0
 10 11  1  0  0  0
 10 12  1  0  0  0
 10  3  1  0  0  0
  3  4  2  0  0  0
  3  8  1  0  0  0
  4  5  1  0  0  0
  5  6  2  0  0  0
  5  1  1  0  0  0
  6  7  1  0  0  0
  7  8  2  0  0  0
  1 13  1  0  0  0
 13 14  2  0  0  0
 13 15  1  0  0  0
 14 18  1  0  0  0
 15 19  1  0  0  0
 15 16  2  0  0  0
 19 20  1  0  0  0
 19 21  2  0  0  0
 16 17  1  0  0  0
 17 18  2  0  0  0
  1  2  1  0  0  0
 20 22  1  0  0  0
M  END
> <minimizedAffinity>
-7.75644

$$$$
1TD7_NFL_A_2001


 22 23  0  0  0  0  0  0  0  0999 V2000
   11.0290   14.4393    4.0683 N   0  0  0  0  0  0  0  0  0  0  0  0
   11.2993   14.9263    4.8801 H   0  0  0  0  0  0  0  0  0  0  0  0
   10.9468   15.9306    0.5846 C   0  0  0  0  0  0  0  0  0  0  0  0
   10.5063   15.1849    1.7094 C   0  0  0  0  0  0  0  0  0  0  0  0
   11.2885   15.1276    2.8895 C   0  0  0  0  0  0  0  0  0  0  0  0
   12.4815   15.8475    2.8941 C   0  0  0  0  0  0  0  0  0  0  0  0
   12.9003   16.5931    1.7956 C   0  0  0  0  0  0  0  0  0  0  0  0
   12.1363   16.6394    0.6452 C   0  0  0  0  0  0  0  0  0  0  0  0
   10.3874   17.3094   -1.2400 F   0  0  0  0  0  0  0  0  0  0  0  0
   10.1707   16.1083   -0.7035 C   0  0  0  0  0  0  0  0  0  0  0  0
   10.7227   15.2088   -1.5157 F   0  0  0  0  0  0  0  0  0  0  0  0
    8.8847   15.7650   -0.6544 F   0  0  0  0  0  0  0  0  0  0  0  0
   10.4635   13.2001    4.3223 C   0  0  0  0  0  0  0  0  0  0  0  0
   11.2441   12.1647    4.7079 N   0  0  0  0  0  0  0  0  0  0  0  0
    8.9737   12.9229    4.1999 C   0  0  0  0  0  0  0  0  0  0  0  0
    8.5232   11.6264    4.4762 C   0  0  0  0  0  0  0  0  0  0  0  0
    9.4227   10.6396    4.8594 C   0  0  0  0  0  0  0  0  0  0  0  0
   10.7695   10.9378    4.9671 C   0  0  0  0  0  0  0  0  0  0  0  0
    7.9066   13.9355    3.7824 C   0  0  0  0  0  0  0  0  0  0  0  0
    7.0627   13.6712    2.9333 O   0  0  0  0  0  0  0  0  0  0  0  0
    7.8600   15.0553    4.2974 O   0  0  0  0  0  0  0  0  0  0  0  0
    7.0632   12.8313    2.5178 H   0  0  0  0  0  0  0  0  0  0  0  0
  9 10  1  0  0  0
 10 11  1  0  0  0
 10 12  1  0  0  0
 10  3  1  0  0  0
  3  4  2  0  0  0
  3  8  1  0  0  0
  4  5  1  0  0  0
  5  6  2  0  0  0
  5  1  1  0  0  0
  6  7  1  0  0  0
  7  8  2  0  0  0
  1 13  1  0  0  0
 13 14  2  0  0  0
 13 15  1  0  0  0
 14 18  1  0  0  0
 15 19  1  0  0  0
 15 16  2  0  0  0
 19 20  1  0  0  0
 19 21  2  0  0  0
 16 17  1  0  0  0
 17 18  2  0  0  0
  1  2  1  0  0  0
 20 22  1  0  0  0
M  END
> <minimizedAffinity>
-7.48720

$$$$
1TD7_NFL_A_2001


 22 23  0  0  0  0  0  0  0  0999 V2000
   10.0014   14.1551    2.9276 N   0  0  0  0  0  0  0  0  0  0  0  0
   10.0528   14.8473    3.6258 H   0  0  0  0  0  0  0  0  0  0  0  0
   10.9133   10.5634    3.7249 C   0  0  0  0  0  0  0  0  0  0  0  0
   11.0235   11.8519    3.1394 C   0  0  0  0  0  0  0  0  0  0  0  0
   10.0650   12.8572    3.4198 C   0  0  0  0  0  0  0  0  0  0  0  0
    9.0390   12.5255    4.3023 C   0  0  0  0  0  0  0  0  0  0  0  0
    8.9457   11.2665    4.8891 C   0  0  0  0  0  0  0  0  0  0  0  0
    9.8797   10.2884    4.6063 C   0  0  0  0  0  0  0  0  0  0  0  0
   11.4163    8.4806    2.7491 F   0  0  0  0  0  0  0  0  0  0  0  0
   11.9053    9.4338    3.5426 C   0  0  0  0  0  0  0  0  0  0  0  0
   12.9086   10.0152    2.8876 F   0  0  0  0  0  0  0  0  0  0  0  0
   12.4635    8.9702    4.6595 F   0  0  0  0  0  0  0  0  0  0  0  0
    9.8796   14.6635    1.6445 C   0  0  0  0  0  0  0  0  0  0  0  0
   10.9475   15.2265    1.0340 N   0  0  0  0  0  0  0  0  0  0  0  0
    8.5840   14.6200    0.8501 C   0  0  0  0  0  0  0  0  0  0  0  0
    8.5844   15.1739   -0.4356 C   0  0  0  0  0  0  0  0  0  0  0  0
    9.7447   15.7320   -0.9570 C   0  0  0  0  0  0  0  0  0  0  0  0
   10.9047   15.7423   -0.2029 C   0  0  0  0  0  0  0  0  0  0  0  0
    7.2569   14.0346    1.3344 C   0  0  0  0  0  0  0  0  0  0  0  0
    6.6804   13.1452    0.7182 O   0  0  0  0  0  0  0  0  0  0  0  0
    6.7268   14.4397    2.3718 O   0  0  0  0  0  0  0  0  0  0  0  0
    7.0498   12.8094   -0.0748 H   0  0  0  0  0  0  0  0  0  0  0  0
  9 10  1  0  0  0
 10 11  1  0  0  0
 10 12  1  0  0  0
 10  3  1  0  0  0
  3  4  2  0  0  0
  3  8  1  0  0  0
  4  5  1  0  0  0
  5  6  2  0  0  0
  5  1  1  0  0  0
  6  7  1  0  0  0
  7  8  2  0  0  0
  1 13  1  0  0  0
 13 14  2  0  0  0
 13 15  1  0  0  0
 14 18  1  0  0  0
 15 19  1  0  0  0
 15 16  2  0  0  0
 19 20  1  0  0  0
 19 21  2  0  0  0
 16 17  1  0  0  0
 17 18  2  0  0  0
  1  2  1  0  0  0
 20 22  1  0  0  0
M  END
> <minimizedAffinity>
-7.45972

$$$$
1TD7_NFL_A_2001


 22 23  0  0  0  0  0  0  0  0999 V2000
   10.3796   15.2979    2.9208 N   0  0  0  0  0  0  0  0  0  0  0  0
    9.8111   15.9500    3.3905 H   0  0  0  0  0  0  0  0  0  0  0  0
   12.2281   12.6262    4.8734 C   0  0  0  0  0  0  0  0  0  0  0  0
   12.0451   13.7895    4.0806 C   0  0  0  0  0  0  0  0  0  0  0  0
   10.7455   14.2085    3.7019 C   0  0  0  0  0  0  0  0  0  0  0  0
    9.6749   13.4431    4.1596 C   0  0  0  0  0  0  0  0  0  0  0  0
    9.8580   12.3139    4.9529 C   0  0  0  0  0  0  0  0  0  0  0  0
   11.1283   11.9066    5.3131 C   0  0  0  0  0  0  0  0  0  0  0  0
   13.5157   10.8101    5.6396 F   0  0  0  0  0  0  0  0  0  0  0  0
   13.5605   12.1176    5.3828 C   0  0  0  0  0  0  0  0  0  0  0  0
   14.3682   12.2862    4.3375 F   0  0  0  0  0  0  0  0  0  0  0  0
   14.1201   12.8377    6.3534 F   0  0  0  0  0  0  0  0  0  0  0  0
   10.6602   15.6438    1.6088 C   0  0  0  0  0  0  0  0  0  0  0  0
    9.7907   15.3253    0.6227 N   0  0  0  0  0  0  0  0  0  0  0  0
   11.9185   16.3897    1.1943 C   0  0  0  0  0  0  0  0  0  0  0  0
   12.0931   16.6762   -0.1650 C   0  0  0  0  0  0  0  0  0  0  0  0
   11.1309   16.2925   -1.0904 C   0  0  0  0  0  0  0  0  0  0  0  0
    9.9958   15.6231   -0.6684 C   0  0  0  0  0  0  0  0  0  0  0  0
   13.0356   16.8499    2.1318 C   0  0  0  0  0  0  0  0  0  0  0  0
   14.2188   16.7257    1.8360 O   0  0  0  0  0  0  0  0  0  0  0  0
   12.7756   17.3698    3.2196 O   0  0  0  0  0  0  0  0  0  0  0  0
   14.4590   16.3357    1.0186 H   0  0  0  0  0  0  0  0  0  0  0  0
  9 10  1  0  0  0
 10 11  1  0  0  0
 10 12  1  0  0  0
 10  3  1  0  0  0
  3  4  2  0  0  0
  3  8  1  0  0  0
  4  5  1  0  0  0
  5  6  2  0  0  0
  5  1  1  0  0  0
  6  7  1  0  0  0
  7  8  2  0  0  0
  1 13  1  0  0  0
 13 14  2  0  0  0
 13 15  1  0  0  0
 14 18  1  0  0  0
 15 19  1  0  0  0
 15 16  2  0  0  0
 19 20  1  0  0  0
 19 21  2  0  0  0
 16 17  1  0  0  0
 17 18  2  0  0  0
  1  2  1  0  0  0
 20 22  1  0  0  0
M  END
> <minimizedAffinity>
-7.31592

$$$$
1TD7_NFL_A_2001


 22 23  0  0  0  0  0  0  0  0999 V2000
   10.4309   14.2416    3.5515 N   0  0  0  0  0  0  0  0  0  0  0  0
   10.5548   15.0787    4.0547 H   0  0  0  0  0  0  0  0  0  0  0  0
   13.6469   12.4302    4.4136 C   0  0  0  0  0  0  0  0  0  0  0  0
   12.7352   13.5118    4.2939 C   0  0  0  0  0  0  0  0  0  0  0  0
   11.4386   13.3080    3.7601 C   0  0  0  0  0  0  0  0  0  0  0  0
   11.1050   12.0079    3.3857 C   0  0  0  0  0  0  0  0  0  0  0  0
   11.9956   10.9467    3.5226 C   0  0  0  0  0  0  0  0  0  0  0  0
   13.2611   11.1533    4.0377 C   0  0  0  0  0  0  0  0  0  0  0  0
   14.9793   12.8578    6.3070 F   0  0  0  0  0  0  0  0  0  0  0  0
   15.0323   12.5190    5.0187 C   0  0  0  0  0  0  0  0  0  0  0  0
   15.4692   11.2623    4.9596 F   0  0  0  0  0  0  0  0  0  0  0  0
   15.9254   13.2136    4.3159 F   0  0  0  0  0  0  0  0  0  0  0  0
    9.2853   14.2225    2.7722 C   0  0  0  0  0  0  0  0  0  0  0  0
    8.0931   13.9048    3.3270 N   0  0  0  0  0  0  0  0  0  0  0  0
    9.2808   14.5545    1.2886 C   0  0  0  0  0  0  0  0  0  0  0  0
    8.0596   14.4928    0.6067 C   0  0  0  0  0  0  0  0  0  0  0  0
    6.8967   14.1475    1.2834 C   0  0  0  0  0  0  0  0  0  0  0  0
    6.9447   13.8617    2.6364 C   0  0  0  0  0  0  0  0  0  0  0  0
   10.5031   14.9397    0.4543 C   0  0  0  0  0  0  0  0  0  0  0  0
   10.5343   14.7737   -0.7600 O   0  0  0  0  0  0  0  0  0  0  0  0
   11.4991   15.4391    0.9831 O   0  0  0  0  0  0  0  0  0  0  0  0
    9.7979   14.3972   -1.2005 H   0  0  0  0  0  0  0  0  0  0  0  0
  9 10  1  0  0  0
 10 11  1  0  0  0
 10 12  1  0  0  0
 10  3  1  0  0  0
  3  4  2  0  0  0
  3  8  1  0  0  0
  4  5  1  0  0  0
  5  6  2  0  0  0
  5  1  1  0  0  0
  6  7  1  0  0  0
  7  8  2  0  0  0
  1 13  1  0  0  0
 13 14  2  0  0  0
 13 15  1  0  0  0
 14 18  1  0  0  0
 15 19  1  0  0  0
 15 16  2  0  0  0
 19 20  1  0  0  0
 19 21  2  0  0  0
 16 17  1  0  0  0
 17 18  2  0  0  0
  1  2  1  0  0  0
 20 22  1  0  0  0
M  END
> <minimizedAffinity>
-7.24545

$$$$
1TD7_NFL_A_2001


 22 23  0  0  0  0  0  0  0  0999 V2000
   10.0426   15.0517    3.1386 N   0  0  0  0  0  0  0  0  0  0  0  0
    9.7330   15.8194    3.6715 H   0  0  0  0  0  0  0  0  0  0  0  0
   10.3085   11.8477    5.1462 C   0  0  0  0  0  0  0  0  0  0  0  0
    9.7091   12.8545    4.3447 C   0  0  0  0  0  0  0  0  0  0  0  0
   10.4624   13.9708    3.9042 C   0  0  0  0  0  0  0  0  0  0  0  0
   11.8048   14.0154    4.2754 C   0  0  0  0  0  0  0  0  0  0  0  0
   12.3932   13.0160    5.0455 C   0  0  0  0  0  0  0  0  0  0  0  0
   11.6514   11.9333    5.4776 C   0  0  0  0  0  0  0  0  0  0  0  0
    9.5326   10.5565    6.9556 F   0  0  0  0  0  0  0  0  0  0  0  0
    9.6187   10.5876    5.6255 C   0  0  0  0  0  0  0  0  0  0  0  0
    8.3807   10.7224    5.1537 F   0  0  0  0  0  0  0  0  0  0  0  0
   10.0561    9.4502    5.0879 F   0  0  0  0  0  0  0  0  0  0  0  0
    9.9756   15.2582    1.7701 C   0  0  0  0  0  0  0  0  0  0  0  0
   11.0040   15.8527    1.1228 N   0  0  0  0  0  0  0  0  0  0  0  0
    8.7863   14.8383    0.9210 C   0  0  0  0  0  0  0  0  0  0  0  0
    8.8330   15.1084   -0.4519 C   0  0  0  0  0  0  0  0  0  0  0  0
    9.9442   15.7317   -1.0053 C   0  0  0  0  0  0  0  0  0  0  0  0
   11.0089   16.0889   -0.1970 C   0  0  0  0  0  0  0  0  0  0  0  0
    7.5187   14.1533    1.4333 C   0  0  0  0  0  0  0  0  0  0  0  0
    6.9667   13.2602    0.8003 O   0  0  0  0  0  0  0  0  0  0  0  0
    7.0145   14.4783    2.5109 O   0  0  0  0  0  0  0  0  0  0  0  0
    7.3179   12.9836   -0.0232 H   0  0  0  0  0  0  0  0  0  0  0  0
  9 10  1  0  0  0
 10 11  1  0  0  0
 10 12  1  0  0  0
 10  3  1  0  0  0
  3  4  2  0  0  0
  3  8  1  0  0  0
  4  5  1  0  0  0
  5  6  2  0  0  0
  5  1  1  0  0  0
  6  7  1  0  0  0
  7  8  2  0  0  0
  1 13  1  0  0  0
 13 14  2  0  0  0
 13 15  1  0  0  0
 14 18  1  0  0  0
 15 19  1  0  0  0
 15 16  2  0  0  0
 19 20  1  0  0  0
 19 21  2  0  0  0
 16 17  1  0  0  0
 17 18  2  0  0  0
  1  2  1  0  0  0
 20 22  1  0  0  0
M  END
> <minimizedAffinity>
-7.21171

$$$$
1TD7_NFL_A_2001


 22 23  0  0  0  0  0  0  0  0999 V2000
   10.4307   14.9837    3.0020 N   0  0  0  0  0  0  0  0  0  0  0  0
    9.9923   15.6574    3.5705 H   0  0  0  0  0  0  0  0  0  0  0  0
   12.9271   12.6304    4.6133 C   0  0  0  0  0  0  0  0  0  0  0  0
   12.4569   13.7326    3.8523 C   0  0  0  0  0  0  0  0  0  0  0  0
   11.0677   13.9765    3.7165 C   0  0  0  0  0  0  0  0  0  0  0  0
   10.2041   13.1045    4.3763 C   0  0  0  0  0  0  0  0  0  0  0  0
   10.6702   12.0361    5.1373 C   0  0  0  0  0  0  0  0  0  0  0  0
   12.0261   11.7995    5.2603 C   0  0  0  0  0  0  0  0  0  0  0  0
   14.5778   11.9156    6.1325 F   0  0  0  0  0  0  0  0  0  0  0  0
   14.3835   12.3063    4.8727 C   0  0  0  0  0  0  0  0  0  0  0  0
   14.6011   11.2480    4.0941 F   0  0  0  0  0  0  0  0  0  0  0  0
   15.2610   13.2147    4.4497 F   0  0  0  0  0  0  0  0  0  0  0  0
   10.2931   15.2233    1.6442 C   0  0  0  0  0  0  0  0  0  0  0  0
   11.3140   15.7703    0.9453 N   0  0  0  0  0  0  0  0  0  0  0  0
    9.0314   14.8925    0.8631 C   0  0  0  0  0  0  0  0  0  0  0  0
    9.0107   15.1890   -0.5050 C   0  0  0  0  0  0  0  0  0  0  0  0
   10.1215   15.7579   -1.1149 C   0  0  0  0  0  0  0  0  0  0  0  0
   11.2529   16.0343   -0.3678 C   0  0  0  0  0  0  0  0  0  0  0  0
    7.7584   14.2722    1.4405 C   0  0  0  0  0  0  0  0  0  0  0  0
    7.3221   14.5982    2.5388 O   0  0  0  0  0  0  0  0  0  0  0  0
    7.1249   13.4230    0.8091 O   0  0  0  0  0  0  0  0  0  0  0  0
    7.7737   15.2402    3.0505 H   0  0  0  0  0  0  0  0  0  0  0  0
  9 10  1  0  0  0
 10 11  1  0  0  0
 10 12  1  0  0  0
 10  3  1  0  0  0
  3  4  2  0  0  0
  3  8  1  0  0  0
  4  5  1  0  0  0
  5  6  2  0  0  0
  5  1  1  0  0  0
  6  7  1  0  0  0
  7  8  2  0  0  0
  1 13  1  0  0  0
 13 14  2  0  0  0
 13 15  1  0  0  0
 14 18  1  0  0  0
 15 19  1  0  0  0
 15 16  2  0  0  0
 19 20  1  0  0  0
 19 21  2  0  0  0
 16 17  1  0  0  0
 17 18  2  0  0  0
  1  2  1  0  0  0
 20 22  1  0  0  0
M  END
> <minimizedAffinity>
-7.12534

$$$$
1TD7_NFL_A_2001


 22 23  0  0  0  0  0  0  0  0999 V2000
   10.4246   14.2331    3.2618 N   0  0  0  0  0  0  0  0  0  0  0  0
   10.6267   15.1248    3.6268 H   0  0  0  0  0  0  0  0  0  0  0  0
   12.4116   11.0433    3.7562 C   0  0  0  0  0  0  0  0  0  0  0  0
   11.3222   11.8721    3.3801 C   0  0  0  0  0  0  0  0  0  0  0  0
   11.3905   13.2770    3.5512 C   0  0  0  0  0  0  0  0  0  0  0  0
   12.5719   13.7940    4.0789 C   0  0  0  0  0  0  0  0  0  0  0  0
   13.6452   12.9792    4.4286 C   0  0  0  0  0  0  0  0  0  0  0  0
   13.5697   11.6092    4.2656 C   0  0  0  0  0  0  0  0  0  0  0  0
   11.4741    9.1078    2.7980 F   0  0  0  0  0  0  0  0  0  0  0  0
   12.4721    9.5419    3.5681 C   0  0  0  0  0  0  0  0  0  0  0  0
   13.6016    9.3681    2.8842 F   0  0  0  0  0  0  0  0  0  0  0  0
   12.6444    8.8277    4.6790 F   0  0  0  0  0  0  0  0  0  0  0  0
    9.2320   14.1742    2.5589 C   0  0  0  0  0  0  0  0  0  0  0  0
    8.0960   13.7857    3.1821 N   0  0  0  0  0  0  0  0  0  0  0  0
    9.1129   14.5381    1.0875 C   0  0  0  0  0  0  0  0  0  0  0  0
    7.8534   14.4309    0.4856 C   0  0  0  0  0  0  0  0  0  0  0  0
    6.7560   14.0135    1.2279 C   0  0  0  0  0  0  0  0  0  0  0  0
    6.9075   13.7008    2.5672 C   0  0  0  0  0  0  0  0  0  0  0  0
   10.2570   15.0017    0.1851 C   0  0  0  0  0  0  0  0  0  0  0  0
   10.1279   15.0818   -1.0315 O   0  0  0  0  0  0  0  0  0  0  0  0
   11.3505   15.3174    0.6603 O   0  0  0  0  0  0  0  0  0  0  0  0
    9.3130   14.8513   -1.4323 H   0  0  0  0  0  0  0  0  0  0  0  0
  9 10  1  0  0  0
 10 11  1  0  0  0
 10 12  1  0  0  0
 10  3  1  0  0  0
  3  4  2  0  0  0
  3  8  1  0  0  0
  4  5  1  0  0  0
  5  6  2  0  0  0
  5  1  1  0  0  0
  6  7  1  0  0  0
  7  8  2  0  0  0
  1 13  1  0  0  0
 13 14  2  0  0  0
 13 15  1  0  0  0
 14 18  1  0  0  0
 15 19  1  0  0  0
 15 16  2  0  0  0
 19 20  1  0  0  0
 19 21  2  0  0  0
 16 17  1  0  0  0
 17 18  2  0  0  0
  1  2  1  0  0  0
 20 22  1  0  0  0
M  END
> <minimizedAffinity>
-7.00283

$$$$
1TD7_NFL_A_2001


 22 23  0  0  0  0  0  0  0  0999 V2000
    9.8419   11.7299    5.2362 N   0  0  0  0  0  0  0  0  0  0  0  0
   10.3551   12.0507    6.0127 H   0  0  0  0  0  0  0  0  0  0  0  0
    8.3532   13.9148    2.5201 C   0  0  0  0  0  0  0  0  0  0  0  0
    8.4486   12.8383    3.4406 C   0  0  0  0  0  0  0  0  0  0  0  0
    9.5712   12.7172    4.2967 C   0  0  0  0  0  0  0  0  0  0  0  0
   10.5486   13.7060    4.2032 C   0  0  0  0  0  0  0  0  0  0  0  0
   10.4416   14.7704    3.3124 C   0  0  0  0  0  0  0  0  0  0  0  0
    9.3476   14.8791    2.4754 C   0  0  0  0  0  0  0  0  0  0  0  0
    7.5174   14.9866    0.5976 F   0  0  0  0  0  0  0  0  0  0  0  0
    7.1790   14.1753    1.6000 C   0  0  0  0  0  0  0  0  0  0  0  0
    6.9368   12.9768    1.0721 F   0  0  0  0  0  0  0  0  0  0  0  0
    6.0382   14.5093    2.2007 F   0  0  0  0  0  0  0  0  0  0  0  0
    9.5292   10.3812    5.2916 C   0  0  0  0  0  0  0  0  0  0  0  0
    8.5086    9.9531    6.0695 N   0  0  0  0  0  0  0  0  0  0  0  0
   10.2779    9.3189    4.5026 C   0  0  0  0  0  0  0  0  0  0  0  0
    9.8725    7.9868    4.6482 C   0  0  0  0  0  0  0  0  0  0  0  0
    8.8103    7.6657    5.4838 C   0  0  0  0  0  0  0  0  0  0  0  0
    8.1507    8.6654    6.1766 C   0  0  0  0  0  0  0  0  0  0  0  0
   11.4588    9.5681    3.5636 C   0  0  0  0  0  0  0  0  0  0  0  0
   11.6650    8.8606    2.5838 O   0  0  0  0  0  0  0  0  0  0  0  0
   12.2410   10.5006    3.7632 O   0  0  0  0  0  0  0  0  0  0  0  0
   11.0941    8.1417    2.3965 H   0  0  0  0  0  0  0  0  0  0  0  0
  9 10  1  0  0  0
 10 11  1  0  0  0
 10 12  1  0  0  0
 10  3  1  0  0  0
  3  4  2  0  0  0
  3  8  1  0  0  0
  4  5  1  0  0  0
  5  6  2  0  0  0
  5  1  1  0  0  0
  6  7  1  0  0  0
  7  8  2  0  0  0
  1 13  1  0  0  0
 13 14  2  0  0  0
 13 15  1  0  0  0
 14 18  1  0  0  0
 15 19  1  0  0  0
 15 16  2  0  0  0
 19 20  1  0  0  0
 19 21  2  0  0  0
 16 17  1  0  0  0
 17 18  2  0  0  0
  1  2  1  0  0  0
 20 22  1  0  0  0
M  END
> <minimizedAffinity>
-6.89258

$$$$
1TD7_NFL_A_2001


 22 23  0  0  0  0  0  0  0  0999 V2000
   10.8772   15.0015    3.1537 N   0  0  0  0  0  0  0  0  0  0  0  0
   10.8515   15.8076    3.7183 H   0  0  0  0  0  0  0  0  0  0  0  0
   11.0905   11.7055    5.0132 C   0  0  0  0  0  0  0  0  0  0  0  0
   10.4931   12.7925    4.3227 C   0  0  0  0  0  0  0  0  0  0  0  0
   11.2860   13.8576    3.8284 C   0  0  0  0  0  0  0  0  0  0  0  0
   12.6615   13.7715    4.0338 C   0  0  0  0  0  0  0  0  0  0  0  0
   13.2451   12.6942    4.6948 C   0  0  0  0  0  0  0  0  0  0  0  0
   12.4655   11.6619    5.1805 C   0  0  0  0  0  0  0  0  0  0  0  0
    9.2434   10.8381    6.1877 F   0  0  0  0  0  0  0  0  0  0  0  0
   10.3520   10.4902    5.5339 C   0  0  0  0  0  0  0  0  0  0  0  0
    9.9730    9.8664    4.4200 F   0  0  0  0  0  0  0  0  0  0  0  0
   11.0977    9.5941    6.1781 F   0  0  0  0  0  0  0  0  0  0  0  0
   10.4985   15.2271    1.8401 C   0  0  0  0  0  0  0  0  0  0  0  0
    9.3244   14.7381    1.3793 N   0  0  0  0  0  0  0  0  0  0  0  0
   11.3406   16.0214    0.8545 C   0  0  0  0  0  0  0  0  0  0  0  0
   10.8539   16.1747   -0.4492 C   0  0  0  0  0  0  0  0  0  0  0  0
    9.6324   15.6203   -0.8100 C   0  0  0  0  0  0  0  0  0  0  0  0
    8.8939   14.9123    0.1215 C   0  0  0  0  0  0  0  0  0  0  0  0
   12.6957   16.6651    1.1511 C   0  0  0  0  0  0  0  0  0  0  0  0
   13.3134   17.2919    0.2975 O   0  0  0  0  0  0  0  0  0  0  0  0
   13.2077   16.5768    2.2697 O   0  0  0  0  0  0  0  0  0  0  0  0
   12.9591   17.3825   -0.5652 H   0  0  0  0  0  0  0  0  0  0  0  0
  9 10  1  0  0  0
 10 11  1  0  0  0
 10 12  1  0  0  0
 10  3  1  0  0  0
  3  4  2  0  0  0
  3  8  1  0  0  0
  4  5  1  0  0  0
  5  6  2  0  0  0
  5  1  1  0  0  0
  6  7  1  0  0  0
  7  8  2  0  0  0
  1 13  1  0  0  0
 13 14  2  0  0  0
 13 15  1  0  0  0
 14 18  1  0  0  0
 15 19  1  0  0  0
 15 16  2  0  0  0
 19 20  1  0  0  0
 19 21  2  0  0  0
 16 17  1  0  0  0
 17 18  2  0  0  0
  1  2  1  0  0  0
 20 22  1  0  0  0
M  END
> <minimizedAffinity>
-6.80240

$$$$
