4ZOW_CLM_A_500
  RCSB PDB12061716403D
Coordinates from PDB:4ZOW:A:500 Model:1 without hydrogens
 20 20  0  0  0  0            999 V2000
  -17.5680   10.0890   24.5440   C 0  0  0  0  0  0  0  0  0  0  0  0
  -18.6100    9.9190   23.1360  Cl 0  0  0  0  0  0  0  0  0  0  0  0
  -15.8740    9.7580   24.1820  Cl 0  0  0  0  0  0  0  0  0  0  0  0
  -17.7580   11.4690   25.1950   C 0  0  0  0  0  0  0  0  0  0  0  0
  -17.0470   11.8100   26.1070   O 0  0  0  0  0  0  0  0  0  0  0  0
  -18.7840   12.3380   24.7190   N 0  0  0  0  0  0  0  0  0  0  0  0
  -18.9840   13.6370   25.3390   C 0  0  0  0  0  0  0  0  0  0  0  0
  -20.3480   13.6530   25.9080   C 0  0  0  0  0  0  0  0  0  0  0  0
  -21.2490   13.1750   24.9220   O 0  0  0  0  0  0  0  0  0  0  0  0
  -18.8380   14.7740   24.3260   C 0  0  0  0  0  0  0  0  0  0  0  0
  -18.7590   14.2480   23.0160   O 0  0  0  0  0  0  0  0  0  0  0  0
  -17.5900   15.5610   24.6540   C 0  0  0  0  0  0  0  0  0  0  0  0
  -16.6350   15.7850   23.6990   C 0  0  0  0  0  0  0  0  0  0  0  0
  -15.4810   16.5190   24.0270   C 0  0  0  0  0  0  0  0  0  0  0  0
  -15.3090   17.0310   25.3620   C 0  0  0  0  0  0  0  0  0  0  0  0
  -14.1830   17.7460   25.6890   N 0  3  0  0  0  0  0  0  0  0  0  0
  -13.8920   17.9880   26.9960   O 0  5  0  0  0  0  0  0  0  0  0  0
  -13.3630   18.2130   24.7100   O 0  0  0  0  0  0  0  0  0  0  0  0
  -16.2710   16.8000   26.3190   C 0  0  0  0  0  0  0  0  0  0  0  0
  -17.4100   16.0750   25.9950   C 0  0  0  0  0  0  0  0  0  0  0  0
  1  2  1  0  0  0  0
  1  3  1  0  0  0  0
  1  4  1  0  0  0  0
  4  5  2  0  0  0  0
  4  6  1  0  0  0  0
  6  7  1  0  0  0  0
  7  8  1  0  0  0  0
  7 10  1  0  0  0  0
  8  9  1  0  0  0  0
 10 11  1  0  0  0  0
 10 12  1  0  0  0  0
 12 13  2  0  0  0  0
 12 20  1  0  0  0  0
 13 14  1  0  0  0  0
 14 15  2  0  0  0  0
 15 16  1  0  0  0  0
 15 19  1  0  0  0  0
 16 17  1  0  0  0  0
 16 18  2  0  0  0  0
 19 20  2  0  0  0  0
M  CHG  2  16   1  17  -1
A    1
C1
A    2
CL1
A    3
CL2
A    4
C2
A    5
O2
A    6
N2
A    7
C3
A    8
C4
A    9
O4
A   10
C5
A   11
O5
A   12
C6
A   13
C7
A   14
C8
A   15
C9
A   16
N9
A   17
O9A
A   18
O9B
A   19
C10
A   20
C11
M  END
>  <InstanceId>
4ZOW_CLM_A_500

>  <ChemCompId>
CLM

>  <PdbId>
4ZOW

>  <ChainId>
A

>  <ResidueNumber>
500

>  <InsertionCode>


>  <Model>
1

>  <AltIds>


>  <MissingHeavyAtoms>
0

>  <ObservedFormula>
C11 N2 O5 Cl2

>  <Name>
CHLORAMPHENICOL

>  <SystematicName>
2,2-dichloro-N-[(1R,2R)-1,3-dihydroxy-1-(4-nitrophenyl)propan-2-yl]ethanamide

>  <Synonyms>


>  <Type>
NON-POLYMER

>  <Formula>
C11 H12 Cl2 N2 O5

>  <MolecularWeight>
323.129

>  <ModifiedDate>
2011-06-04

>  <Parent>


>  <OneLetterCode>


>  <SubcomponentList>


>  <AmbiguousFlag>
N

>  <InChI>
InChI=1S/C11H12Cl2N2O5/c12-10(13)11(18)14-8(5-16)9(17)6-1-3-7(4-2-6)15(19)20/h1-4,8-10,16-17H,5H2,(H,14,18)/t8-,9-/m1/s1

>  <InChIKey>
WIIZWVCIJKGZOK-RKDXNWHRSA-N

>  <SMILES>
c1cc(ccc1[C@H]([C@@H](CO)NC(=O)C(Cl)Cl)O)[N+](=O)[O-]

$$$$
