4ZOW_CLM_A_500


 23 23  0  0  0  0  0  0  0  0999 V2000
  -18.7393   15.2446   24.6500 C   0  0  0  0  0  0  0  0  0  0  0  0
  -18.9533   15.0099   23.2722 O   0  0  0  0  0  0  0  0  0  0  0  0
  -18.2298   14.4680   22.9204 H   0  0  0  0  0  0  0  0  0  0  0  0
  -17.4333   15.9748   24.8635 C   0  0  0  0  0  0  0  0  0  0  0  0
  -16.3514   15.7180   24.0648 C   0  0  0  0  0  0  0  0  0  0  0  0
  -15.1457   16.4086   24.2825 C   0  0  0  0  0  0  0  0  0  0  0  0
  -15.0540   17.3805   25.3412 C   0  0  0  0  0  0  0  0  0  0  0  0
  -16.1440   17.6323   26.1432 C   0  0  0  0  0  0  0  0  0  0  0  0
  -17.3341   16.9502   25.9283 C   0  0  0  0  0  0  0  0  0  0  0  0
  -13.8785   18.0559   25.5604 N   0  0  0  0  0  0  0  0  0  0  0  0
  -12.8928   18.0187   24.6231 O   0  0  0  0  0  0  0  0  0  0  0  0
  -13.6989   18.7572   26.7114 O   0  0  0  0  0  0  0  0  0  0  0  0
  -18.6903   13.9158   25.4063 C   0  0  0  0  0  0  0  0  0  0  0  0
  -17.4930   11.7630   25.0113 C   0  0  0  0  0  0  0  0  0  0  0  0
  -17.0753   11.7874   26.1420 O   0  0  0  0  0  0  0  0  0  0  0  0
  -18.3291   12.8138   24.5305 N   0  0  0  0  0  0  0  0  0  0  0  0
  -18.6620   12.7925   23.6042 H   0  0  0  0  0  0  0  0  0  0  0  0
  -17.1330   10.5923   24.0817 C   0  0  0  0  0  0  0  0  0  0  0  0
  -16.0848    9.4448   24.9073 Cl  0  0  0  0  0  0  0  0  0  0  0  0
  -18.5674    9.8315   23.3932 Cl  0  0  0  0  0  0  0  0  0  0  0  0
  -20.0237   13.6175   25.9699 C   0  0  0  0  0  0  0  0  0  0  0  0
  -20.7912   12.9574   24.9761 O   0  0  0  0  0  0  0  0  0  0  0  0
  -20.8730   13.5299   24.1974 H   0  0  0  0  0  0  0  0  0  0  0  0
 18 19  1  0  0  0
 18 20  1  0  0  0
 18 14  1  0  0  0
 14 15  2  0  0  0
 14 16  1  0  0  0
 16 13  1  0  0  0
 13 21  1  0  0  0
 13  1  1  0  0  0
 21 22  1  0  0  0
  1  2  1  0  0  0
  1  4  1  0  0  0
  4  5  2  0  0  0
  4  9  1  0  0  0
  5  6  1  0  0  0
  6  7  2  0  0  0
  7 10  1  0  0  0
  7  8  1  0  0  0
 10 11  1  0  0  0
 10 12  2  0  0  0
  8  9  2  0  0  0
 16 17  1  0  0  0
 22 23  1  0  0  0
  2  3  1  0  0  0
M  CHG 1  10   1
M  CHG 1  11  -1
M  END
> <minimizedAffinity>
-6.68032

$$$$
4ZOW_CLM_A_500


 23 23  0  0  0  0  0  0  0  0999 V2000
  -18.6202   13.4438   23.5645 C   0  0  0  0  0  0  0  0  0  0  0  0
  -19.7946   12.7818   23.1383 O   0  0  0  0  0  0  0  0  0  0  0  0
  -20.0511   12.1204   23.7999 H   0  0  0  0  0  0  0  0  0  0  0  0
  -17.4891   12.4552   23.7313 C   0  0  0  0  0  0  0  0  0  0  0  0
  -16.1871   12.8781   23.7328 C   0  0  0  0  0  0  0  0  0  0  0  0
  -15.1505   11.9403   23.8883 C   0  0  0  0  0  0  0  0  0  0  0  0
  -15.4618   10.5430   24.0453 C   0  0  0  0  0  0  0  0  0  0  0  0
  -16.7726   10.1231   24.0398 C   0  0  0  0  0  0  0  0  0  0  0  0
  -17.7957   11.0491   23.8859 C   0  0  0  0  0  0  0  0  0  0  0  0
  -14.4539    9.6222   24.1946 N   0  0  0  0  0  0  0  0  0  0  0  0
  -13.8629    9.0827   23.0941 O   0  0  0  0  0  0  0  0  0  0  0  0
  -14.0495    9.2488   25.4380 O   0  0  0  0  0  0  0  0  0  0  0  0
  -18.8680   14.1396   24.9041 C   0  0  0  0  0  0  0  0  0  0  0  0
  -17.3532   15.8558   25.8962 C   0  0  0  0  0  0  0  0  0  0  0  0
  -18.1530   16.7172   25.6284 O   0  0  0  0  0  0  0  0  0  0  0  0
  -17.6219   14.4955   25.5616 N   0  0  0  0  0  0  0  0  0  0  0  0
  -16.9623   13.7969   25.7764 H   0  0  0  0  0  0  0  0  0  0  0  0
  -16.0398   16.2182   26.6090 C   0  0  0  0  0  0  0  0  0  0  0  0
  -15.0946   14.7712   26.9403 Cl  0  0  0  0  0  0  0  0  0  0  0  0
  -15.1262   17.4417   25.7267 Cl  0  0  0  0  0  0  0  0  0  0  0  0
  -19.6028   13.2287   25.8068 C   0  0  0  0  0  0  0  0  0  0  0  0
  -20.9777   13.5761   25.7697 O   0  0  0  0  0  0  0  0  0  0  0  0
  -21.0863   14.4967   26.0556 H   0  0  0  0  0  0  0  0  0  0  0  0
 18 19  1  0  0  0
 18 20  1  0  0  0
 18 14  1  0  0  0
 14 15  2  0  0  0
 14 16  1  0  0  0
 16 13  1  0  0  0
 13 21  1  0  0  0
 13  1  1  0  0  0
 21 22  1  0  0  0
  1  2  1  0  0  0
  1  4  1  0  0  0
  4  5  2  0  0  0
  4  9  1  0  0  0
  5  6  1  0  0  0
  6  7  2  0  0  0
  7 10  1  0  0  0
  7  8  1  0  0  0
 10 11  1  0  0  0
 10 12  2  0  0  0
  8  9  2  0  0  0
 16 17  1  0  0  0
 22 23  1  0  0  0
  2  3  1  0  0  0
M  CHG 1  10   1
M  CHG 1  11  -1
M  END
> <minimizedAffinity>
-6.55035

$$$$
4ZOW_CLM_A_500


 23 23  0  0  0  0  0  0  0  0999 V2000
  -17.0716   15.5219   24.6752 C   0  0  0  0  0  0  0  0  0  0  0  0
  -16.5163   15.2958   23.3948 O   0  0  0  0  0  0  0  0  0  0  0  0
  -15.8570   14.5863   23.4490 H   0  0  0  0  0  0  0  0  0  0  0  0
  -15.9934   15.9302   25.6526 C   0  0  0  0  0  0  0  0  0  0  0  0
  -15.4528   17.1873   25.6105 C   0  0  0  0  0  0  0  0  0  0  0  0
  -14.4497   17.5451   26.5290 C   0  0  0  0  0  0  0  0  0  0  0  0
  -13.9965   16.5907   27.5077 C   0  0  0  0  0  0  0  0  0  0  0  0
  -14.5413   15.3272   27.5434 C   0  0  0  0  0  0  0  0  0  0  0  0
  -15.5314   14.9742   26.6362 C   0  0  0  0  0  0  0  0  0  0  0  0
  -13.0153   16.9333   28.4054 N   0  0  0  0  0  0  0  0  0  0  0  0
  -11.7998   16.3249   28.3428 O   0  0  0  0  0  0  0  0  0  0  0  0
  -13.2583   17.8753   29.3554 O   0  0  0  0  0  0  0  0  0  0  0  0
  -17.7436   14.2467   25.1874 C   0  0  0  0  0  0  0  0  0  0  0  0
  -17.5004   11.7884   24.8387 C   0  0  0  0  0  0  0  0  0  0  0  0
  -17.7270   11.5997   26.0077 O   0  0  0  0  0  0  0  0  0  0  0  0
  -17.4805   13.1148   24.3148 N   0  0  0  0  0  0  0  0  0  0  0  0
  -17.2883   13.2638   23.3608 H   0  0  0  0  0  0  0  0  0  0  0  0
  -17.2396   10.5971   23.9021 C   0  0  0  0  0  0  0  0  0  0  0  0
  -16.0185    9.5286   24.5835 Cl  0  0  0  0  0  0  0  0  0  0  0  0
  -18.7283    9.7500   23.4819 Cl  0  0  0  0  0  0  0  0  0  0  0  0
  -19.2079   14.4426   25.2325 C   0  0  0  0  0  0  0  0  0  0  0  0
  -19.5695   15.3480   24.2020 O   0  0  0  0  0  0  0  0  0  0  0  0
  -19.1105   16.1917   24.3372 H   0  0  0  0  0  0  0  0  0  0  0  0
 18 19  1  0  0  0
 18 20  1  0  0  0
 18 14  1  0  0  0
 14 15  2  0  0  0
 14 16  1  0  0  0
 16 13  1  0  0  0
 13 21  1  0  0  0
 13  1  1  0  0  0
 21 22  1  0  0  0
  1  2  1  0  0  0
  1  4  1  0  0  0
  4  5  2  0  0  0
  4  9  1  0  0  0
  5  6  1  0  0  0
  6  7  2  0  0  0
  7 10  1  0  0  0
  7  8  1  0  0  0
 10 11  1  0  0  0
 10 12  2  0  0  0
  8  9  2  0  0  0
 16 17  1  0  0  0
 22 23  1  0  0  0
  2  3  1  0  0  0
M  CHG 1  10   1
M  CHG 1  11  -1
M  END
> <minimizedAffinity>
-6.42261

$$$$
4ZOW_CLM_A_500


 23 23  0  0  0  0  0  0  0  0999 V2000
  -17.1318   16.3253   24.5529 C   0  0  0  0  0  0  0  0  0  0  0  0
  -17.7800   17.0340   25.5905 O   0  0  0  0  0  0  0  0  0  0  0  0
  -17.6599   16.5612   26.4290 H   0  0  0  0  0  0  0  0  0  0  0  0
  -17.7144   14.9371   24.4190 C   0  0  0  0  0  0  0  0  0  0  0  0
  -17.1801   14.0383   23.5353 C   0  0  0  0  0  0  0  0  0  0  0  0
  -17.7393   12.7523   23.4265 C   0  0  0  0  0  0  0  0  0  0  0  0
  -18.8679   12.3869   24.2430 C   0  0  0  0  0  0  0  0  0  0  0  0
  -19.4029   13.2958   25.1275 C   0  0  0  0  0  0  0  0  0  0  0  0
  -18.8510   14.5654   25.2343 C   0  0  0  0  0  0  0  0  0  0  0  0
  -19.4200   11.1337   24.1392 N   0  0  0  0  0  0  0  0  0  0  0  0
  -19.6018   10.5749   22.9120 O   0  0  0  0  0  0  0  0  0  0  0  0
  -19.7862   10.4546   25.2588 O   0  0  0  0  0  0  0  0  0  0  0  0
  -15.6369   16.2054   24.8550 C   0  0  0  0  0  0  0  0  0  0  0  0
  -14.8821   14.8160   26.7847 C   0  0  0  0  0  0  0  0  0  0  0  0
  -14.6653   13.8950   26.0374 O   0  0  0  0  0  0  0  0  0  0  0  0
  -15.3887   16.0494   26.2783 N   0  0  0  0  0  0  0  0  0  0  0  0
  -15.5705   16.7960   26.8938 H   0  0  0  0  0  0  0  0  0  0  0  0
  -14.6051   14.6687   28.2900 C   0  0  0  0  0  0  0  0  0  0  0  0
  -12.9559   14.1201   28.5660 Cl  0  0  0  0  0  0  0  0  0  0  0  0
  -14.9909   16.1422   29.1790 Cl  0  0  0  0  0  0  0  0  0  0  0  0
  -14.9427   17.4335   24.4143 C   0  0  0  0  0  0  0  0  0  0  0  0
  -15.8899   18.2801   23.7830 O   0  0  0  0  0  0  0  0  0  0  0  0
  -16.2790   17.8198   23.0230 H   0  0  0  0  0  0  0  0  0  0  0  0
 18 19  1  0  0  0
 18 20  1  0  0  0
 18 14  1  0  0  0
 14 15  2  0  0  0
 14 16  1  0  0  0
 16 13  1  0  0  0
 13 21  1  0  0  0
 13  1  1  0  0  0
 21 22  1  0  0  0
  1  2  1  0  0  0
  1  4  1  0  0  0
  4  5  2  0  0  0
  4  9  1  0  0  0
  5  6  1  0  0  0
  6  7  2  0  0  0
  7 10  1  0  0  0
  7  8  1  0  0  0
 10 11  1  0  0  0
 10 12  2  0  0  0
  8  9  2  0  0  0
 16 17  1  0  0  0
 22 23  1  0  0  0
  2  3  1  0  0  0
M  CHG 1  10   1
M  CHG 1  11  -1
M  END
> <minimizedAffinity>
-6.39821

$$$$
4ZOW_CLM_A_500


 23 23  0  0  0  0  0  0  0  0999 V2000
  -18.7851   15.1018   24.2585 C   0  0  0  0  0  0  0  0  0  0  0  0
  -18.9049   15.2358   22.8561 O   0  0  0  0  0  0  0  0  0  0  0  0
  -18.1334   14.8350   22.4260 H   0  0  0  0  0  0  0  0  0  0  0  0
  -17.5359   15.7967   24.7495 C   0  0  0  0  0  0  0  0  0  0  0  0
  -17.5006   16.3749   25.9899 C   0  0  0  0  0  0  0  0  0  0  0  0
  -16.3278   17.0173   26.4256 C   0  0  0  0  0  0  0  0  0  0  0  0
  -15.1717   17.0638   25.5680 C   0  0  0  0  0  0  0  0  0  0  0  0
  -15.2140   16.4835   24.3206 C   0  0  0  0  0  0  0  0  0  0  0  0
  -16.3721   15.8497   23.8906 C   0  0  0  0  0  0  0  0  0  0  0  0
  -14.0246   17.6921   25.9868 N   0  0  0  0  0  0  0  0  0  0  0  0
  -12.8743   17.5433   25.2753 O   0  0  0  0  0  0  0  0  0  0  0  0
  -14.0373   18.4580   27.1102 O   0  0  0  0  0  0  0  0  0  0  0  0
  -18.7075   13.6220   24.6385 C   0  0  0  0  0  0  0  0  0  0  0  0
  -17.2109   12.2619   26.0995 C   0  0  0  0  0  0  0  0  0  0  0  0
  -18.1744   11.7315   26.5935 O   0  0  0  0  0  0  0  0  0  0  0  0
  -17.3754   13.2531   25.0872 N   0  0  0  0  0  0  0  0  0  0  0  0
  -16.5855   13.6880   24.6920 H   0  0  0  0  0  0  0  0  0  0  0  0
  -15.7960   11.8658   26.5528 C   0  0  0  0  0  0  0  0  0  0  0  0
  -15.0227   13.1970   27.4053 Cl  0  0  0  0  0  0  0  0  0  0  0  0
  -15.7969   10.3686   27.4849 Cl  0  0  0  0  0  0  0  0  0  0  0  0
  -19.0255   12.7905   23.4587 C   0  0  0  0  0  0  0  0  0  0  0  0
  -20.4337   12.6340   23.3889 O   0  0  0  0  0  0  0  0  0  0  0  0
  -20.7522   12.2074   24.1997 H   0  0  0  0  0  0  0  0  0  0  0  0
 18 19  1  0  0  0
 18 20  1  0  0  0
 18 14  1  0  0  0
 14 15  2  0  0  0
 14 16  1  0  0  0
 16 13  1  0  0  0
 13 21  1  0  0  0
 13  1  1  0  0  0
 21 22  1  0  0  0
  1  2  1  0  0  0
  1  4  1  0  0  0
  4  5  2  0  0  0
  4  9  1  0  0  0
  5  6  1  0  0  0
  6  7  2  0  0  0
  7 10  1  0  0  0
  7  8  1  0  0  0
 10 11  1  0  0  0
 10 12  2  0  0  0
  8  9  2  0  0  0
 16 17  1  0  0  0
 22 23  1  0  0  0
  2  3  1  0  0  0
M  CHG 1  10   1
M  CHG 1  11  -1
M  END
> <minimizedAffinity>
-6.38634

$$$$
4ZOW_CLM_A_500


 23 23  0  0  0  0  0  0  0  0999 V2000
  -15.9699   17.1564   24.5643 C   0  0  0  0  0  0  0  0  0  0  0  0
  -16.4161   18.0026   25.6054 O   0  0  0  0  0  0  0  0  0  0  0  0
  -16.4598   17.5002   26.4341 H   0  0  0  0  0  0  0  0  0  0  0  0
  -16.9222   15.9968   24.3832 C   0  0  0  0  0  0  0  0  0  0  0  0
  -16.7160   15.0722   23.3948 C   0  0  0  0  0  0  0  0  0  0  0  0
  -17.6158   14.0018   23.2439 C   0  0  0  0  0  0  0  0  0  0  0  0
  -18.7470   13.8826   24.1271 C   0  0  0  0  0  0  0  0  0  0  0  0
  -18.9512   14.8170   25.1170 C   0  0  0  0  0  0  0  0  0  0  0  0
  -18.0629   15.8738   25.2656 C   0  0  0  0  0  0  0  0  0  0  0  0
  -19.6307   12.8413   23.9828 N   0  0  0  0  0  0  0  0  0  0  0  0
  -19.4070   11.8917   23.0343 O   0  0  0  0  0  0  0  0  0  0  0  0
  -20.7269   12.7607   24.7833 O   0  0  0  0  0  0  0  0  0  0  0  0
  -14.5812   16.6066   24.8950 C   0  0  0  0  0  0  0  0  0  0  0  0
  -14.1092   14.4402   26.0387 C   0  0  0  0  0  0  0  0  0  0  0  0
  -13.6787   13.9888   25.0069 O   0  0  0  0  0  0  0  0  0  0  0  0
  -14.6035   15.7772   26.0881 N   0  0  0  0  0  0  0  0  0  0  0  0
  -14.9601   16.1386   26.9316 H   0  0  0  0  0  0  0  0  0  0  0  0
  -14.1199   13.5781   27.3119 C   0  0  0  0  0  0  0  0  0  0  0  0
  -14.5080   14.5584   28.7210 Cl  0  0  0  0  0  0  0  0  0  0  0  0
  -15.1731   12.1730   27.1484 Cl  0  0  0  0  0  0  0  0  0  0  0  0
  -13.6526   17.7278   25.1501 C   0  0  0  0  0  0  0  0  0  0  0  0
  -13.6814   18.0252   26.5369 O   0  0  0  0  0  0  0  0  0  0  0  0
  -14.5841   18.2670   26.7970 H   0  0  0  0  0  0  0  0  0  0  0  0
 18 19  1  0  0  0
 18 20  1  0  0  0
 18 14  1  0  0  0
 14 15  2  0  0  0
 14 16  1  0  0  0
 16 13  1  0  0  0
 13 21  1  0  0  0
 13  1  1  0  0  0
 21 22  1  0  0  0
  1  2  1  0  0  0
  1  4  1  0  0  0
  4  5  2  0  0  0
  4  9  1  0  0  0
  5  6  1  0  0  0
  6  7  2  0  0  0
  7 10  1  0  0  0
  7  8  1  0  0  0
 10 11  1  0  0  0
 10 12  2  0  0  0
  8  9  2  0  0  0
 16 17  1  0  0  0
 22 23  1  0  0  0
  2  3  1  0  0  0
M  CHG 1  10   1
M  CHG 1  11  -1
M  END
> <minimizedAffinity>
-6.33516

$$$$
4ZOW_CLM_A_500


 23 23  0  0  0  0  0  0  0  0999 V2000
  -18.4315   11.4546   25.3088 C   0  0  0  0  0  0  0  0  0  0  0  0
  -18.8693   12.2458   26.3957 O   0  0  0  0  0  0  0  0  0  0  0  0
  -18.2388   12.9678   26.5446 H   0  0  0  0  0  0  0  0  0  0  0  0
  -17.0716   10.8633   25.6015 C   0  0  0  0  0  0  0  0  0  0  0  0
  -16.5401   10.9256   26.8616 C   0  0  0  0  0  0  0  0  0  0  0  0
  -15.2724   10.3698   27.1108 C   0  0  0  0  0  0  0  0  0  0  0  0
  -14.5407    9.7388   26.0428 C   0  0  0  0  0  0  0  0  0  0  0  0
  -15.0787    9.6820   24.7771 C   0  0  0  0  0  0  0  0  0  0  0  0
  -16.3300   10.2311   24.5314 C   0  0  0  0  0  0  0  0  0  0  0  0
  -13.3012    9.1969   26.2794 N   0  0  0  0  0  0  0  0  0  0  0  0
  -12.7652    9.2555   27.5287 O   0  0  0  0  0  0  0  0  0  0  0  0
  -12.6105    8.6060   25.2681 O   0  0  0  0  0  0  0  0  0  0  0  0
  -18.3352   12.3094   24.0438 C   0  0  0  0  0  0  0  0  0  0  0  0
  -17.1068   14.4778   23.9286 C   0  0  0  0  0  0  0  0  0  0  0  0
  -16.2215   13.9437   23.3084 O   0  0  0  0  0  0  0  0  0  0  0  0
  -18.2388   13.7246   24.3596 N   0  0  0  0  0  0  0  0  0  0  0  0
  -18.9557   14.1641   24.8716 H   0  0  0  0  0  0  0  0  0  0  0  0
  -17.0245   15.9788   24.2518 C   0  0  0  0  0  0  0  0  0  0  0  0
  -17.7927   16.3232   25.7972 Cl  0  0  0  0  0  0  0  0  0  0  0  0
  -15.3699   16.5828   24.1637 Cl  0  0  0  0  0  0  0  0  0  0  0  0
  -19.5499   12.1185   23.2237 C   0  0  0  0  0  0  0  0  0  0  0  0
  -20.6566   12.6511   23.9336 O   0  0  0  0  0  0  0  0  0  0  0  0
  -20.7463   12.1926   24.7837 H   0  0  0  0  0  0  0  0  0  0  0  0
 18 19  1  0  0  0
 18 20  1  0  0  0
 18 14  1  0  0  0
 14 15  2  0  0  0
 14 16  1  0  0  0
 16 13  1  0  0  0
 13 21  1  0  0  0
 13  1  1  0  0  0
 21 22  1  0  0  0
  1  2  1  0  0  0
  1  4  1  0  0  0
  4  5  2  0  0  0
  4  9  1  0  0  0
  5  6  1  0  0  0
  6  7  2  0  0  0
  7 10  1  0  0  0
  7  8  1  0  0  0
 10 11  1  0  0  0
 10 12  2  0  0  0
  8  9  2  0  0  0
 16 17  1  0  0  0
 22 23  1  0  0  0
  2  3  1  0  0  0
M  CHG 1  10   1
M  CHG 1  11  -1
M  END
> <minimizedAffinity>
-6.29374

$$$$
4ZOW_CLM_A_500


 23 23  0  0  0  0  0  0  0  0999 V2000
  -14.9494   15.7788   23.4288 C   0  0  0  0  0  0  0  0  0  0  0  0
  -15.2863   17.1282   23.6830 O   0  0  0  0  0  0  0  0  0  0  0  0
  -15.6650   17.2049   24.5727 H   0  0  0  0  0  0  0  0  0  0  0  0
  -16.1788   14.9038   23.5137 C   0  0  0  0  0  0  0  0  0  0  0  0
  -17.4252   15.4598   23.6214 C   0  0  0  0  0  0  0  0  0  0  0  0
  -18.5552   14.6262   23.7002 C   0  0  0  0  0  0  0  0  0  0  0  0
  -18.3974   13.1951   23.6670 C   0  0  0  0  0  0  0  0  0  0  0  0
  -17.1416   12.6415   23.5617 C   0  0  0  0  0  0  0  0  0  0  0  0
  -16.0262   13.4648   23.4843 C   0  0  0  0  0  0  0  0  0  0  0  0
  -19.4968   12.3759   23.7464 N   0  0  0  0  0  0  0  0  0  0  0  0
  -20.5634   12.7479   24.5049 O   0  0  0  0  0  0  0  0  0  0  0  0
  -19.5184   11.1956   23.0716 O   0  0  0  0  0  0  0  0  0  0  0  0
  -13.9261   15.2919   24.4565 C   0  0  0  0  0  0  0  0  0  0  0  0
  -13.8240   15.5783   26.9327 C   0  0  0  0  0  0  0  0  0  0  0  0
  -13.8011   14.3808   27.0707 O   0  0  0  0  0  0  0  0  0  0  0  0
  -13.8931   16.1509   25.6282 N   0  0  0  0  0  0  0  0  0  0  0  0
  -13.9184   17.1293   25.5214 H   0  0  0  0  0  0  0  0  0  0  0  0
  -13.7701   16.4973   28.1643 C   0  0  0  0  0  0  0  0  0  0  0  0
  -13.5518   18.1743   27.6775 Cl  0  0  0  0  0  0  0  0  0  0  0  0
  -15.1655   16.2698   29.2186 Cl  0  0  0  0  0  0  0  0  0  0  0  0
  -12.5757   15.3067   23.8559 C   0  0  0  0  0  0  0  0  0  0  0  0
  -12.2570   16.6441   23.5061 O   0  0  0  0  0  0  0  0  0  0  0  0
  -12.9126   16.9780   22.8740 H   0  0  0  0  0  0  0  0  0  0  0  0
 18 19  1  0  0  0
 18 20  1  0  0  0
 18 14  1  0  0  0
 14 15  2  0  0  0
 14 16  1  0  0  0
 16 13  1  0  0  0
 13 21  1  0  0  0
 13  1  1  0  0  0
 21 22  1  0  0  0
  1  2  1  0  0  0
  1  4  1  0  0  0
  4  5  2  0  0  0
  4  9  1  0  0  0
  5  6  1  0  0  0
  6  7  2  0  0  0
  7 10  1  0  0  0
  7  8  1  0  0  0
 10 11  1  0  0  0
 10 12  2  0  0  0
  8  9  2  0  0  0
 16 17  1  0  0  0
 22 23  1  0  0  0
  2  3  1  0  0  0
M  CHG 1  10   1
M  CHG 1  11  -1
M  END
> <minimizedAffinity>
-6.29198

$$$$
4ZOW_CLM_A_500


 23 23  0  0  0  0  0  0  0  0999 V2000
  -16.7586   16.0554   24.0730 C   0  0  0  0  0  0  0  0  0  0  0  0
  -16.3976   15.2779   22.9487 O   0  0  0  0  0  0  0  0  0  0  0  0
  -15.7053   14.6469   23.2007 H   0  0  0  0  0  0  0  0  0  0  0  0
  -15.5628   16.8222   24.5893 C   0  0  0  0  0  0  0  0  0  0  0  0
  -14.4117   16.8992   23.8522 C   0  0  0  0  0  0  0  0  0  0  0  0
  -13.3109   17.6172   24.3530 C   0  0  0  0  0  0  0  0  0  0  0  0
  -13.3986   18.2671   25.6351 C   0  0  0  0  0  0  0  0  0  0  0  0
  -14.5574   18.1837   26.3733 C   0  0  0  0  0  0  0  0  0  0  0  0
  -15.6438   17.4744   25.8789 C   0  0  0  0  0  0  0  0  0  0  0  0
  -12.3261   18.9673   26.1306 N   0  0  0  0  0  0  0  0  0  0  0  0
  -11.7196   18.5531   27.2761 O   0  0  0  0  0  0  0  0  0  0  0  0
  -11.8733   20.0723   25.4803 O   0  0  0  0  0  0  0  0  0  0  0  0
  -17.2830   15.1503   25.1892 C   0  0  0  0  0  0  0  0  0  0  0  0
  -16.0614   13.0862   25.8758 C   0  0  0  0  0  0  0  0  0  0  0  0
  -15.6153   13.6680   26.8328 O   0  0  0  0  0  0  0  0  0  0  0  0
  -16.9265   13.7597   24.9634 N   0  0  0  0  0  0  0  0  0  0  0  0
  -17.2826   13.2819   24.1797 H   0  0  0  0  0  0  0  0  0  0  0  0
  -15.7065   11.6092   25.6373 C   0  0  0  0  0  0  0  0  0  0  0  0
  -16.1827   10.6266   27.0174 Cl  0  0  0  0  0  0  0  0  0  0  0  0
  -16.3646   11.0101   24.1148 Cl  0  0  0  0  0  0  0  0  0  0  0  0
  -18.7581   15.2290   25.2386 C   0  0  0  0  0  0  0  0  0  0  0  0
  -19.2541   15.1538   23.9116 O   0  0  0  0  0  0  0  0  0  0  0  0
  -18.8930   15.8872   23.3894 H   0  0  0  0  0  0  0  0  0  0  0  0
 18 19  1  0  0  0
 18 20  1  0  0  0
 18 14  1  0  0  0
 14 15  2  0  0  0
 14 16  1  0  0  0
 16 13  1  0  0  0
 13 21  1  0  0  0
 13  1  1  0  0  0
 21 22  1  0  0  0
  1  2  1  0  0  0
  1  4  1  0  0  0
  4  5  2  0  0  0
  4  9  1  0  0  0
  5  6  1  0  0  0
  6  7  2  0  0  0
  7 10  1  0  0  0
  7  8  1  0  0  0
 10 11  1  0  0  0
 10 12  2  0  0  0
  8  9  2  0  0  0
 16 17  1  0  0  0
 22 23  1  0  0  0
  2  3  1  0  0  0
M  CHG 1  10   1
M  CHG 1  11  -1
M  END
> <minimizedAffinity>
-6.14585

$$$$
4ZOW_CLM_A_500


 23 23  0  0  0  0  0  0  0  0999 V2000
  -14.8112   11.2538   26.9121 C   0  0  0  0  0  0  0  0  0  0  0  0
  -14.9169    9.9509   27.4509 O   0  0  0  0  0  0  0  0  0  0  0  0
  -15.2273    9.3410   26.7635 H   0  0  0  0  0  0  0  0  0  0  0  0
  -16.1559   11.7270   26.4097 C   0  0  0  0  0  0  0  0  0  0  0  0
  -16.2426   12.7562   25.5112 C   0  0  0  0  0  0  0  0  0  0  0  0
  -17.5046   13.1807   25.0582 C   0  0  0  0  0  0  0  0  0  0  0  0
  -18.6973   12.5328   25.5396 C   0  0  0  0  0  0  0  0  0  0  0  0
  -18.6043   11.5006   26.4454 C   0  0  0  0  0  0  0  0  0  0  0  0
  -17.3583   11.0820   26.8927 C   0  0  0  0  0  0  0  0  0  0  0  0
  -19.9325   12.9448   25.1031 N   0  0  0  0  0  0  0  0  0  0  0  0
  -20.3388   12.6416   23.8404 O   0  0  0  0  0  0  0  0  0  0  0  0
  -20.7459   13.6556   25.9290 O   0  0  0  0  0  0  0  0  0  0  0  0
  -13.8199   11.2600   25.7470 C   0  0  0  0  0  0  0  0  0  0  0  0
  -14.1497    9.3872   24.1321 C   0  0  0  0  0  0  0  0  0  0  0  0
  -14.9479   10.0534   23.5218 O   0  0  0  0  0  0  0  0  0  0  0  0
  -13.5146    9.9126   25.2961 N   0  0  0  0  0  0  0  0  0  0  0  0
  -12.8686    9.3619   25.7948 H   0  0  0  0  0  0  0  0  0  0  0  0
  -13.8046    7.9673   23.6533 C   0  0  0  0  0  0  0  0  0  0  0  0
  -13.8060    7.8885   21.8952 Cl  0  0  0  0  0  0  0  0  0  0  0  0
  -12.2995    7.3803   24.3605 Cl  0  0  0  0  0  0  0  0  0  0  0  0
  -12.5511   11.8824   26.1798 C   0  0  0  0  0  0  0  0  0  0  0  0
  -12.0330   11.1316   27.2662 O   0  0  0  0  0  0  0  0  0  0  0  0
  -12.6748   11.1300   27.9934 H   0  0  0  0  0  0  0  0  0  0  0  0
 18 19  1  0  0  0
 18 20  1  0  0  0
 18 14  1  0  0  0
 14 15  2  0  0  0
 14 16  1  0  0  0
 16 13  1  0  0  0
 13 21  1  0  0  0
 13  1  1  0  0  0
 21 22  1  0  0  0
  1  2  1  0  0  0
  1  4  1  0  0  0
  4  5  2  0  0  0
  4  9  1  0  0  0
  5  6  1  0  0  0
  6  7  2  0  0  0
  7 10  1  0  0  0
  7  8  1  0  0  0
 10 11  1  0  0  0
 10 12  2  0  0  0
  8  9  2  0  0  0
 16 17  1  0  0  0
 22 23  1  0  0  0
  2  3  1  0  0  0
M  CHG 1  10   1
M  CHG 1  11  -1
M  END
> <minimizedAffinity>
-6.08710

$$$$
