3O9D_K19_A_200


 43 47  0  0  0  0  0  0  0  0999 V2000
   19.9305   29.3146   15.4795 C   0  0  0  0  0  0  0  0  0  0  0  0
   20.0434   28.2058   16.3832 O   0  0  0  0  0  0  0  0  0  0  0  0
   19.1858   27.7583   16.4548 H   0  0  0  0  0  0  0  0  0  0  0  0
   18.9534   30.3536   16.0294 C   0  0  0  0  0  0  0  0  0  0  0  0
   19.2942   31.6608   15.4453 N   0  0  0  0  0  0  0  0  0  0  0  0
   18.0347   32.4099   14.7531 S   0  0  0  0  0  0  0  0  0  0  0  0
   18.6131   33.3030   13.7799 O   0  0  0  0  0  0  0  0  0  0  0  0
   17.1786   31.4238   14.1823 O   0  0  0  0  0  0  0  0  0  0  0  0
   15.9093   36.6224   19.0542 C   0  0  0  0  0  0  0  0  0  0  0  0
   15.2464   35.4538   18.9292 N   0  0  0  0  0  0  0  0  0  0  0  0
   17.2572   36.8260   17.9769 S   0  0  0  0  0  0  0  0  0  0  0  0
   15.7810   34.6467   17.9550 C   0  0  0  0  0  0  0  0  0  0  0  0
   16.8941   35.2582   17.3688 C   0  0  0  0  0  0  0  0  0  0  0  0
   17.5826   34.5677   16.3371 C   0  0  0  0  0  0  0  0  0  0  0  0
   17.2163   33.2834   15.8811 C   0  0  0  0  0  0  0  0  0  0  0  0
   16.0919   32.7138   16.4938 C   0  0  0  0  0  0  0  0  0  0  0  0
   15.3929   33.3873   17.5142 C   0  0  0  0  0  0  0  0  0  0  0  0
   20.0562   32.5415   16.3711 C   0  0  0  0  0  0  0  0  0  0  0  0
   21.2700   33.1771   15.6957 C   0  0  0  0  0  0  0  0  0  0  0  0
   21.9700   34.2510   16.5307 C   0  0  0  0  0  0  0  0  0  0  0  0
   22.2544   32.0754   15.2754 C   0  0  0  0  0  0  0  0  0  0  0  0
   23.4610   32.5938   14.5389 C   0  0  0  0  0  0  0  0  0  0  0  0
   19.5642   28.7902   14.0984 C   0  0  0  0  0  0  0  0  0  0  0  0
   20.6752   27.9714   13.6734 N   0  0  0  0  0  0  0  0  0  0  0  0
   21.7811   28.4268   13.1032 C   0  0  0  0  0  0  0  0  0  0  0  0
   22.1029   29.5742   12.8343 O   0  0  0  0  0  0  0  0  0  0  0  0
   20.6056   27.0002   13.8186 H   0  0  0  0  0  0  0  0  0  0  0  0
   22.6709   27.3522   12.7770 O   0  0  0  0  0  0  0  0  0  0  0  0
   23.4885   27.4786   11.6246 C   0  0  0  0  0  0  0  0  0  0  0  0
   24.8135   26.8678   12.0447 C   0  0  0  0  0  0  0  0  0  0  0  0
   24.5876   25.4677   11.9036 O   0  0  0  0  0  0  0  0  0  0  0  0
   23.6720   25.2356   10.8448 C   0  0  0  0  0  0  0  0  0  0  0  0
   22.6851   24.3268   11.2917 O   0  0  0  0  0  0  0  0  0  0  0  0
   21.4038   24.9611   11.3798 C   0  0  0  0  0  0  0  0  0  0  0  0
   21.5166   26.2161   10.5293 C   0  0  0  0  0  0  0  0  0  0  0  0
   22.9951   26.5565   10.5294 C   0  0  0  0  0  0  0  0  0  0  0  0
   18.2853   27.9608   14.0083 C   0  0  0  0  0  0  0  0  0  0  0  0
   17.7834   28.4807   11.5863 C   0  0  0  0  0  0  0  0  0  0  0  0
   17.5602   28.0851   10.2675 C   0  0  0  0  0  0  0  0  0  0  0  0
   17.5707   26.7502    9.9300 C   0  0  0  0  0  0  0  0  0  0  0  0
   17.8066   25.7943   10.9011 C   0  0  0  0  0  0  0  0  0  0  0  0
   18.0361   26.1901   12.2080 C   0  0  0  0  0  0  0  0  0  0  0  0
   18.0296   27.5328   12.5702 C   0  0  0  0  0  0  0  0  0  0  0  0
  9 10  2  0  0  0
  9 11  1  0  0  0
 10 12  1  0  0  0
 11 13  1  0  0  0
 12 13  2  0  0  0
 12 17  1  0  0  0
 13 14  1  0  0  0
 14 15  2  0  0  0
 15 16  1  0  0  0
 15  6  1  0  0  0
 16 17  2  0  0  0
  6  7  2  0  0  0
  6  8  2  0  0  0
  6  5  1  0  0  0
  5 18  1  0  0  0
  5  4  1  0  0  0
 18 19  1  0  0  0
 19 20  1  0  0  0
 19 21  1  0  0  0
 21 22  1  0  0  0
  4  1  1  0  0  0
  1  2  1  0  0  0
  1 23  1  0  0  0
 23 24  1  0  0  0
 23 37  1  0  0  0
 24 25  1  0  0  0
 25 26  2  0  0  0
 25 28  1  0  0  0
 28 29  1  0  0  0
 29 30  1  0  0  0
 29 36  1  0  0  0
 30 31  1  0  0  0
 31 32  1  0  0  0
 32 33  1  0  0  0
 32 36  1  0  0  0
 33 34  1  0  0  0
 34 35  1  0  0  0
 35 36  1  0  0  0
 37 43  1  0  0  0
 38 39  2  0  0  0
 38 43  1  0  0  0
 39 40  1  0  0  0
 40 41  2  0  0  0
 41 42  1  0  0  0
 42 43  2  0  0  0
  2  3  1  0  0  0
 24 27  1  0  0  0
M  END
> <minimizedAffinity>
-10.31412

$$$$
3O9D_K19_A_200


 43 47  0  0  0  0  0  0  0  0999 V2000
   18.1134   30.5185   14.7595 C   0  0  0  0  0  0  0  0  0  0  0  0
   18.3994   29.2329   15.3291 O   0  0  0  0  0  0  0  0  0  0  0  0
   19.2716   28.9330   15.0287 H   0  0  0  0  0  0  0  0  0  0  0  0
   18.0280   30.4202   13.2365 C   0  0  0  0  0  0  0  0  0  0  0  0
   18.6701   29.1633   12.8193 N   0  0  0  0  0  0  0  0  0  0  0  0
   17.6241   28.0480   12.2821 S   0  0  0  0  0  0  0  0  0  0  0  0
   17.3597   27.1986   13.4170 O   0  0  0  0  0  0  0  0  0  0  0  0
   16.4651   28.7141   11.7879 O   0  0  0  0  0  0  0  0  0  0  0  0
   19.4526   25.2461    6.8445 C   0  0  0  0  0  0  0  0  0  0  0  0
   19.9366   24.7561    8.0047 N   0  0  0  0  0  0  0  0  0  0  0  0
   18.4027   26.6213    7.0040 S   0  0  0  0  0  0  0  0  0  0  0  0
   19.4940   25.4589    9.0985 C   0  0  0  0  0  0  0  0  0  0  0  0
   18.6339   26.4889    8.7037 C   0  0  0  0  0  0  0  0  0  0  0  0
   18.0725   27.3250    9.7041 C   0  0  0  0  0  0  0  0  0  0  0  0
   18.3198   27.1617   11.0839 C   0  0  0  0  0  0  0  0  0  0  0  0
   19.1919   26.1209   11.4306 C   0  0  0  0  0  0  0  0  0  0  0  0
   19.7631   25.2859   10.4509 C   0  0  0  0  0  0  0  0  0  0  0  0
   19.8250   29.3649   11.9034 C   0  0  0  0  0  0  0  0  0  0  0  0
   21.1614   29.0864   12.5890 C   0  0  0  0  0  0  0  0  0  0  0  0
   21.0675   28.1749   13.8141 C   0  0  0  0  0  0  0  0  0  0  0  0
   22.1555   28.5277   11.5599 C   0  0  0  0  0  0  0  0  0  0  0  0
   23.0089   27.4074   12.0925 C   0  0  0  0  0  0  0  0  0  0  0  0
   19.1454   31.5200   15.2583 C   0  0  0  0  0  0  0  0  0  0  0  0
   18.4261   32.4546   16.0915 N   0  0  0  0  0  0  0  0  0  0  0  0
   17.7331   33.4927   15.6468 C   0  0  0  0  0  0  0  0  0  0  0  0
   17.5426   33.8680   14.4999 O   0  0  0  0  0  0  0  0  0  0  0  0
   18.4525   32.3094   17.0649 H   0  0  0  0  0  0  0  0  0  0  0  0
   17.1665   34.2356   16.7330 O   0  0  0  0  0  0  0  0  0  0  0  0
   15.7899   34.5732   16.6749 C   0  0  0  0  0  0  0  0  0  0  0  0
   15.1645   33.7620   17.7957 C   0  0  0  0  0  0  0  0  0  0  0  0
   15.4498   34.5360   18.9580 O   0  0  0  0  0  0  0  0  0  0  0  0
   15.4806   35.9134   18.6193 C   0  0  0  0  0  0  0  0  0  0  0  0
   16.6423   36.4913   19.1817 O   0  0  0  0  0  0  0  0  0  0  0  0
   17.5612   36.8967   18.1605 C   0  0  0  0  0  0  0  0  0  0  0  0
   16.7386   36.9686   16.8841 C   0  0  0  0  0  0  0  0  0  0  0  0
   15.5847   36.0094   17.1085 C   0  0  0  0  0  0  0  0  0  0  0  0
   20.3094   30.9460   16.0627 C   0  0  0  0  0  0  0  0  0  0  0  0
   21.9597   32.6822   16.8693 C   0  0  0  0  0  0  0  0  0  0  0  0
   23.1086   33.4547   16.6997 C   0  0  0  0  0  0  0  0  0  0  0  0
   23.8477   33.3581   15.5420 C   0  0  0  0  0  0  0  0  0  0  0  0
   23.4531   32.4889   14.5414 C   0  0  0  0  0  0  0  0  0  0  0  0
   22.3168   31.7171   14.7156 C   0  0  0  0  0  0  0  0  0  0  0  0
   21.5559   31.7995   15.8768 C   0  0  0  0  0  0  0  0  0  0  0  0
  9 10  2  0  0  0
  9 11  1  0  0  0
 10 12  1  0  0  0
 11 13  1  0  0  0
 12 13  2  0  0  0
 12 17  1  0  0  0
 13 14  1  0  0  0
 14 15  2  0  0  0
 15 16  1  0  0  0
 15  6  1  0  0  0
 16 17  2  0  0  0
  6  7  2  0  0  0
  6  8  2  0  0  0
  6  5  1  0  0  0
  5 18  1  0  0  0
  5  4  1  0  0  0
 18 19  1  0  0  0
 19 20  1  0  0  0
 19 21  1  0  0  0
 21 22  1  0  0  0
  4  1  1  0  0  0
  1  2  1  0  0  0
  1 23  1  0  0  0
 23 24  1  0  0  0
 23 37  1  0  0  0
 24 25  1  0  0  0
 25 26  2  0  0  0
 25 28  1  0  0  0
 28 29  1  0  0  0
 29 30  1  0  0  0
 29 36  1  0  0  0
 30 31  1  0  0  0
 31 32  1  0  0  0
 32 33  1  0  0  0
 32 36  1  0  0  0
 33 34  1  0  0  0
 34 35  1  0  0  0
 35 36  1  0  0  0
 37 43  1  0  0  0
 38 39  2  0  0  0
 38 43  1  0  0  0
 39 40  1  0  0  0
 40 41  2  0  0  0
 41 42  1  0  0  0
 42 43  2  0  0  0
  2  3  1  0  0  0
 24 27  1  0  0  0
M  END
> <minimizedAffinity>
-9.79545

$$$$
3O9D_K19_A_200


 43 47  0  0  0  0  0  0  0  0999 V2000
   19.7908   30.2058   16.1076 C   0  0  0  0  0  0  0  0  0  0  0  0
   19.8921   29.6495   17.4264 O   0  0  0  0  0  0  0  0  0  0  0  0
   20.8193   29.6599   17.7114 H   0  0  0  0  0  0  0  0  0  0  0  0
   20.5539   29.3415   15.1040 C   0  0  0  0  0  0  0  0  0  0  0  0
   20.0664   29.6648   13.7535 N   0  0  0  0  0  0  0  0  0  0  0  0
   21.2471   30.0550   12.7141 S   0  0  0  0  0  0  0  0  0  0  0  0
   20.5756   30.6400   11.5800 O   0  0  0  0  0  0  0  0  0  0  0  0
   22.1473   30.9478   13.3649 O   0  0  0  0  0  0  0  0  0  0  0  0
   23.1653   24.4544   10.3234 C   0  0  0  0  0  0  0  0  0  0  0  0
   23.9920   25.0979   11.1737 N   0  0  0  0  0  0  0  0  0  0  0  0
   21.6782   25.2810    9.9713 S   0  0  0  0  0  0  0  0  0  0  0  0
   23.4811   26.3009   11.5955 C   0  0  0  0  0  0  0  0  0  0  0  0
   22.2174   26.5193   11.0369 C   0  0  0  0  0  0  0  0  0  0  0  0
   21.5295   27.7174   11.3628 C   0  0  0  0  0  0  0  0  0  0  0  0
   22.0439   28.6968   12.2392 C   0  0  0  0  0  0  0  0  0  0  0  0
   23.3149   28.4370   12.7693 C   0  0  0  0  0  0  0  0  0  0  0  0
   24.0146   27.2567   12.4517 C   0  0  0  0  0  0  0  0  0  0  0  0
   19.1233   28.6522   13.2071 C   0  0  0  0  0  0  0  0  0  0  0  0
   17.6974   29.1895   13.0998 C   0  0  0  0  0  0  0  0  0  0  0  0
   17.5424   30.6592   13.4956 C   0  0  0  0  0  0  0  0  0  0  0  0
   17.1643   28.9406   11.6809 C   0  0  0  0  0  0  0  0  0  0  0  0
   18.0637   28.0716   10.8426 C   0  0  0  0  0  0  0  0  0  0  0  0
   20.2474   31.6572   16.1478 C   0  0  0  0  0  0  0  0  0  0  0  0
   19.1830   32.3940   16.7879 N   0  0  0  0  0  0  0  0  0  0  0  0
   18.3800   33.2538   16.1784 C   0  0  0  0  0  0  0  0  0  0  0  0
   18.3469   33.5908   15.0047 O   0  0  0  0  0  0  0  0  0  0  0  0
   19.0434   32.2461   17.7511 H   0  0  0  0  0  0  0  0  0  0  0  0
   17.4530   33.8352   17.1033 O   0  0  0  0  0  0  0  0  0  0  0  0
   16.1522   34.1614   16.6407 C   0  0  0  0  0  0  0  0  0  0  0  0
   15.2305   33.3414   17.5259 C   0  0  0  0  0  0  0  0  0  0  0  0
   15.1522   34.1139   18.7210 O   0  0  0  0  0  0  0  0  0  0  0  0
   15.2694   35.4927   18.4073 C   0  0  0  0  0  0  0  0  0  0  0  0
   16.2074   36.0786   19.2886 O   0  0  0  0  0  0  0  0  0  0  0  0
   17.3837   36.4950   18.5852 C   0  0  0  0  0  0  0  0  0  0  0  0
   16.9749   36.5640   17.1226 C   0  0  0  0  0  0  0  0  0  0  0  0
   15.8149   35.5945   16.9951 C   0  0  0  0  0  0  0  0  0  0  0  0
   21.5498   31.9349   16.8947 C   0  0  0  0  0  0  0  0  0  0  0  0
   21.6768   34.3197   16.0670 C   0  0  0  0  0  0  0  0  0  0  0  0
   21.8214   35.6891   16.2889 C   0  0  0  0  0  0  0  0  0  0  0  0
   22.0182   36.1707   17.5638 C   0  0  0  0  0  0  0  0  0  0  0  0
   22.0702   35.2946   18.6324 C   0  0  0  0  0  0  0  0  0  0  0  0
   21.9183   33.9363   18.4105 C   0  0  0  0  0  0  0  0  0  0  0  0
   21.7188   33.4290   17.1310 C   0  0  0  0  0  0  0  0  0  0  0  0
  9 10  2  0  0  0
  9 11  1  0  0  0
 10 12  1  0  0  0
 11 13  1  0  0  0
 12 13  2  0  0  0
 12 17  1  0  0  0
 13 14  1  0  0  0
 14 15  2  0  0  0
 15 16  1  0  0  0
 15  6  1  0  0  0
 16 17  2  0  0  0
  6  7  2  0  0  0
  6  8  2  0  0  0
  6  5  1  0  0  0
  5 18  1  0  0  0
  5  4  1  0  0  0
 18 19  1  0  0  0
 19 20  1  0  0  0
 19 21  1  0  0  0
 21 22  1  0  0  0
  4  1  1  0  0  0
  1  2  1  0  0  0
  1 23  1  0  0  0
 23 24  1  0  0  0
 23 37  1  0  0  0
 24 25  1  0  0  0
 25 26  2  0  0  0
 25 28  1  0  0  0
 28 29  1  0  0  0
 29 30  1  0  0  0
 29 36  1  0  0  0
 30 31  1  0  0  0
 31 32  1  0  0  0
 32 33  1  0  0  0
 32 36  1  0  0  0
 33 34  1  0  0  0
 34 35  1  0  0  0
 35 36  1  0  0  0
 37 43  1  0  0  0
 38 39  2  0  0  0
 38 43  1  0  0  0
 39 40  1  0  0  0
 40 41  2  0  0  0
 41 42  1  0  0  0
 42 43  2  0  0  0
  2  3  1  0  0  0
 24 27  1  0  0  0
M  END
> <minimizedAffinity>
-9.54402

$$$$
3O9D_K19_A_200


 43 47  0  0  0  0  0  0  0  0999 V2000
   21.1380   31.7577   15.7238 C   0  0  0  0  0  0  0  0  0  0  0  0
   22.4305   31.1759   15.9468 O   0  0  0  0  0  0  0  0  0  0  0  0
   23.1136   31.7498   15.5661 H   0  0  0  0  0  0  0  0  0  0  0  0
   20.8401   31.8377   14.2266 C   0  0  0  0  0  0  0  0  0  0  0  0
   20.4681   30.4928   13.7586 N   0  0  0  0  0  0  0  0  0  0  0  0
   18.8846   30.3268   13.4557 S   0  0  0  0  0  0  0  0  0  0  0  0
   18.2456   30.3650   14.7478 O   0  0  0  0  0  0  0  0  0  0  0  0
   18.4761   31.3807   12.5877 O   0  0  0  0  0  0  0  0  0  0  0  0
   17.8003   25.3787    9.5696 C   0  0  0  0  0  0  0  0  0  0  0  0
   17.6707   25.1823   10.8982 N   0  0  0  0  0  0  0  0  0  0  0  0
   18.2864   26.9802    9.1034 S   0  0  0  0  0  0  0  0  0  0  0  0
   17.9569   26.3103   11.6276 C   0  0  0  0  0  0  0  0  0  0  0  0
   18.2864   27.3720   10.7786 C   0  0  0  0  0  0  0  0  0  0  0  0
   18.6116   28.6271   11.3566 C   0  0  0  0  0  0  0  0  0  0  0  0
   18.6018   28.8699   12.7468 C   0  0  0  0  0  0  0  0  0  0  0  0
   18.2714   27.7752   13.5571 C   0  0  0  0  0  0  0  0  0  0  0  0
   17.9526   26.5212   13.0011 C   0  0  0  0  0  0  0  0  0  0  0  0
   21.3264   29.9938   12.6506 C   0  0  0  0  0  0  0  0  0  0  0  0
   22.2691   28.8815   13.1063 C   0  0  0  0  0  0  0  0  0  0  0  0
   21.8054   28.1298   14.3555 C   0  0  0  0  0  0  0  0  0  0  0  0
   22.5173   27.9137   11.9397 C   0  0  0  0  0  0  0  0  0  0  0  0
   21.7312   26.6336   12.0405 C   0  0  0  0  0  0  0  0  0  0  0  0
   21.0699   33.0984   16.4410 C   0  0  0  0  0  0  0  0  0  0  0  0
   19.7222   33.2138   16.9467 N   0  0  0  0  0  0  0  0  0  0  0  0
   18.6788   33.6281   16.2429 C   0  0  0  0  0  0  0  0  0  0  0  0
   18.6164   33.9734   15.0728 O   0  0  0  0  0  0  0  0  0  0  0  0
   19.5667   32.9656   17.8866 H   0  0  0  0  0  0  0  0  0  0  0  0
   17.4941   33.6555   17.0483 O   0  0  0  0  0  0  0  0  0  0  0  0
   16.2500   33.8987   16.4114 C   0  0  0  0  0  0  0  0  0  0  0  0
   15.2976   32.9233   17.0799 C   0  0  0  0  0  0  0  0  0  0  0  0
   14.9612   33.5788   18.2999 O   0  0  0  0  0  0  0  0  0  0  0  0
   14.9788   34.9845   18.1077 C   0  0  0  0  0  0  0  0  0  0  0  0
   15.7081   35.5761   19.1650 O   0  0  0  0  0  0  0  0  0  0  0  0
   16.9260   36.1590   18.6868 C   0  0  0  0  0  0  0  0  0  0  0  0
   16.7352   36.3163   17.1868 C   0  0  0  0  0  0  0  0  0  0  0  0
   15.7154   35.2583   16.8097 C   0  0  0  0  0  0  0  0  0  0  0  0
   22.0438   33.2941   17.6007 C   0  0  0  0  0  0  0  0  0  0  0  0
   21.9471   35.0757   19.3908 C   0  0  0  0  0  0  0  0  0  0  0  0
   21.9684   36.4103   19.7957 C   0  0  0  0  0  0  0  0  0  0  0  0
   22.0850   37.4183   18.8649 C   0  0  0  0  0  0  0  0  0  0  0  0
   22.1850   37.1087   17.5209 C   0  0  0  0  0  0  0  0  0  0  0  0
   22.1719   35.7828   17.1222 C   0  0  0  0  0  0  0  0  0  0  0  0
   22.0547   34.7496   18.0458 C   0  0  0  0  0  0  0  0  0  0  0  0
  9 10  2  0  0  0
  9 11  1  0  0  0
 10 12  1  0  0  0
 11 13  1  0  0  0
 12 13  2  0  0  0
 12 17  1  0  0  0
 13 14  1  0  0  0
 14 15  2  0  0  0
 15 16  1  0  0  0
 15  6  1  0  0  0
 16 17  2  0  0  0
  6  7  2  0  0  0
  6  8  2  0  0  0
  6  5  1  0  0  0
  5 18  1  0  0  0
  5  4  1  0  0  0
 18 19  1  0  0  0
 19 20  1  0  0  0
 19 21  1  0  0  0
 21 22  1  0  0  0
  4  1  1  0  0  0
  1  2  1  0  0  0
  1 23  1  0  0  0
 23 24  1  0  0  0
 23 37  1  0  0  0
 24 25  1  0  0  0
 25 26  2  0  0  0
 25 28  1  0  0  0
 28 29  1  0  0  0
 29 30  1  0  0  0
 29 36  1  0  0  0
 30 31  1  0  0  0
 31 32  1  0  0  0
 32 33  1  0  0  0
 32 36  1  0  0  0
 33 34  1  0  0  0
 34 35  1  0  0  0
 35 36  1  0  0  0
 37 43  1  0  0  0
 38 39  2  0  0  0
 38 43  1  0  0  0
 39 40  1  0  0  0
 40 41  2  0  0  0
 41 42  1  0  0  0
 42 43  2  0  0  0
  2  3  1  0  0  0
 24 27  1  0  0  0
M  END
> <minimizedAffinity>
-9.43072

$$$$
3O9D_K19_A_200


 43 47  0  0  0  0  0  0  0  0999 V2000
   21.0880   31.2196   13.6335 C   0  0  0  0  0  0  0  0  0  0  0  0
   22.0240   32.2950   13.4712 O   0  0  0  0  0  0  0  0  0  0  0  0
   21.6123   33.0073   12.9574 H   0  0  0  0  0  0  0  0  0  0  0  0
   20.7315   30.6134   12.2762 C   0  0  0  0  0  0  0  0  0  0  0  0
   20.4881   29.1741   12.4643 N   0  0  0  0  0  0  0  0  0  0  0  0
   18.9168   28.7772   12.4666 S   0  0  0  0  0  0  0  0  0  0  0  0
   18.6392   28.3364   13.8112 O   0  0  0  0  0  0  0  0  0  0  0  0
   18.1600   29.9194   12.0747 O   0  0  0  0  0  0  0  0  0  0  0  0
   17.8443   24.9391    7.4785 C   0  0  0  0  0  0  0  0  0  0  0  0
   17.7673   24.4075    8.7162 N   0  0  0  0  0  0  0  0  0  0  0  0
   18.2659   26.6237    7.4228 S   0  0  0  0  0  0  0  0  0  0  0  0
   18.0453   25.3236    9.7010 C   0  0  0  0  0  0  0  0  0  0  0  0
   18.3131   26.5775    9.1420 C   0  0  0  0  0  0  0  0  0  0  0  0
   18.6209   27.6563   10.0117 C   0  0  0  0  0  0  0  0  0  0  0  0
   18.6527   27.5381   11.4177 C   0  0  0  0  0  0  0  0  0  0  0  0
   18.3837   26.2620   11.9309 C   0  0  0  0  0  0  0  0  0  0  0  0
   18.0830   25.1789   11.0826 C   0  0  0  0  0  0  0  0  0  0  0  0
   21.3028   28.3141   11.5642 C   0  0  0  0  0  0  0  0  0  0  0  0
   22.1041   27.2669   12.3355 C   0  0  0  0  0  0  0  0  0  0  0  0
   22.0184   25.8523   11.7592 C   0  0  0  0  0  0  0  0  0  0  0  0
   23.5647   27.7277   12.4532 C   0  0  0  0  0  0  0  0  0  0  0  0
   24.5329   26.8639   11.6895 C   0  0  0  0  0  0  0  0  0  0  0  0
   19.8873   31.7248   14.4205 C   0  0  0  0  0  0  0  0  0  0  0  0
   20.3914   32.7468   15.3076 N   0  0  0  0  0  0  0  0  0  0  0  0
   20.7966   32.5411   16.5521 C   0  0  0  0  0  0  0  0  0  0  0  0
   20.8476   31.5022   17.1928 O   0  0  0  0  0  0  0  0  0  0  0  0
   20.4375   33.6671   14.9609 H   0  0  0  0  0  0  0  0  0  0  0  0
   21.2083   33.7677   17.1677 O   0  0  0  0  0  0  0  0  0  0  0  0
   20.4148   34.9257   16.9629 C   0  0  0  0  0  0  0  0  0  0  0  0
   19.0575   34.5463   17.5279 C   0  0  0  0  0  0  0  0  0  0  0  0
   19.2227   34.7358   18.9308 O   0  0  0  0  0  0  0  0  0  0  0  0
   20.1431   35.7898   19.1657 C   0  0  0  0  0  0  0  0  0  0  0  0
   21.0814   35.3633   20.1337 O   0  0  0  0  0  0  0  0  0  0  0  0
   22.3883   35.2345   19.5617 C   0  0  0  0  0  0  0  0  0  0  0  0
   22.3448   36.0397   18.2730 C   0  0  0  0  0  0  0  0  0  0  0  0
   20.8831   36.0472   17.8662 C   0  0  0  0  0  0  0  0  0  0  0  0
   18.7415   32.3133   13.6005 C   0  0  0  0  0  0  0  0  0  0  0  0
   17.1159   34.0025   14.5451 C   0  0  0  0  0  0  0  0  0  0  0  0
   16.0444   34.3458   15.3695 C   0  0  0  0  0  0  0  0  0  0  0  0
   15.4433   33.3940   16.1623 C   0  0  0  0  0  0  0  0  0  0  0  0
   15.9001   32.0889   16.1410 C   0  0  0  0  0  0  0  0  0  0  0  0
   16.9587   31.7489   15.3157 C   0  0  0  0  0  0  0  0  0  0  0  0
   17.5801   32.6947   14.5074 C   0  0  0  0  0  0  0  0  0  0  0  0
  9 10  2  0  0  0
  9 11  1  0  0  0
 10 12  1  0  0  0
 11 13  1  0  0  0
 12 13  2  0  0  0
 12 17  1  0  0  0
 13 14  1  0  0  0
 14 15  2  0  0  0
 15 16  1  0  0  0
 15  6  1  0  0  0
 16 17  2  0  0  0
  6  7  2  0  0  0
  6  8  2  0  0  0
  6  5  1  0  0  0
  5 18  1  0  0  0
  5  4  1  0  0  0
 18 19  1  0  0  0
 19 20  1  0  0  0
 19 21  1  0  0  0
 21 22  1  0  0  0
  4  1  1  0  0  0
  1  2  1  0  0  0
  1 23  1  0  0  0
 23 24  1  0  0  0
 23 37  1  0  0  0
 24 25  1  0  0  0
 25 26  2  0  0  0
 25 28  1  0  0  0
 28 29  1  0  0  0
 29 30  1  0  0  0
 29 36  1  0  0  0
 30 31  1  0  0  0
 31 32  1  0  0  0
 32 33  1  0  0  0
 32 36  1  0  0  0
 33 34  1  0  0  0
 34 35  1  0  0  0
 35 36  1  0  0  0
 37 43  1  0  0  0
 38 39  2  0  0  0
 38 43  1  0  0  0
 39 40  1  0  0  0
 40 41  2  0  0  0
 41 42  1  0  0  0
 42 43  2  0  0  0
  2  3  1  0  0  0
 24 27  1  0  0  0
M  END
> <minimizedAffinity>
-9.13907

$$$$
3O9D_K19_A_200


 43 47  0  0  0  0  0  0  0  0999 V2000
   18.5860   34.7650   17.6756 C   0  0  0  0  0  0  0  0  0  0  0  0
   18.3827   34.1297   18.9461 O   0  0  0  0  0  0  0  0  0  0  0  0
   18.4282   34.7944   19.6510 H   0  0  0  0  0  0  0  0  0  0  0  0
   19.9879   35.3697   17.5999 C   0  0  0  0  0  0  0  0  0  0  0  0
   20.9669   34.2728   17.6658 N   0  0  0  0  0  0  0  0  0  0  0  0
   21.5887   33.8713   16.2241 S   0  0  0  0  0  0  0  0  0  0  0  0
   20.9520   34.7535   15.2777 O   0  0  0  0  0  0  0  0  0  0  0  0
   23.0044   34.0255   16.2820 O   0  0  0  0  0  0  0  0  0  0  0  0
   20.5888   28.1260   13.6254 C   0  0  0  0  0  0  0  0  0  0  0  0
   20.0478   28.3779   14.8355 N   0  0  0  0  0  0  0  0  0  0  0  0
   21.5276   29.4233   12.9513 S   0  0  0  0  0  0  0  0  0  0  0  0
   20.3566   29.6332   15.2994 C   0  0  0  0  0  0  0  0  0  0  0  0
   21.1388   30.3215   14.3661 C   0  0  0  0  0  0  0  0  0  0  0  0
   21.5548   31.6435   14.6730 C   0  0  0  0  0  0  0  0  0  0  0  0
   21.2049   32.3127   15.8652 C   0  0  0  0  0  0  0  0  0  0  0  0
   20.4256   31.5813   16.7717 C   0  0  0  0  0  0  0  0  0  0  0  0
   20.0094   30.2665   16.4866 C   0  0  0  0  0  0  0  0  0  0  0  0
   22.0064   34.4700   18.7117 C   0  0  0  0  0  0  0  0  0  0  0  0
   21.5204   35.3697   19.8466 C   0  0  0  0  0  0  0  0  0  0  0  0
   21.0896   34.6206   21.1092 C   0  0  0  0  0  0  0  0  0  0  0  0
   22.5994   36.4153   20.1659 C   0  0  0  0  0  0  0  0  0  0  0  0
   23.5941   35.9589   21.1999 C   0  0  0  0  0  0  0  0  0  0  0  0
   17.4656   35.7679   17.4404 C   0  0  0  0  0  0  0  0  0  0  0  0
   18.1087   37.0088   17.0774 N   0  0  0  0  0  0  0  0  0  0  0  0
   17.5330   38.2016   17.1098 C   0  0  0  0  0  0  0  0  0  0  0  0
   16.4000   38.5105   17.4465 O   0  0  0  0  0  0  0  0  0  0  0  0
   19.0472   36.9650   16.7832 H   0  0  0  0  0  0  0  0  0  0  0  0
   18.4348   39.2198   16.6596 O   0  0  0  0  0  0  0  0  0  0  0  0
   18.9179   40.1605   17.6053 C   0  0  0  0  0  0  0  0  0  0  0  0
   19.2403   39.3203   18.8282 C   0  0  0  0  0  0  0  0  0  0  0  0
   20.5161   38.7663   18.5172 O   0  0  0  0  0  0  0  0  0  0  0  0
   21.2471   39.6742   17.7084 C   0  0  0  0  0  0  0  0  0  0  0  0
   21.7952   38.9649   16.6147 O   0  0  0  0  0  0  0  0  0  0  0  0
   21.1946   39.3770   15.3813 C   0  0  0  0  0  0  0  0  0  0  0  0
   20.5469   40.7200   15.6778 C   0  0  0  0  0  0  0  0  0  0  0  0
   20.2649   40.6970   17.1684 C   0  0  0  0  0  0  0  0  0  0  0  0
   16.4539   35.4077   16.3549 C   0  0  0  0  0  0  0  0  0  0  0  0
   16.1245   32.9030   16.4321 C   0  0  0  0  0  0  0  0  0  0  0  0
   16.3590   31.6191   15.9398 C   0  0  0  0  0  0  0  0  0  0  0  0
   17.1885   31.4295   14.8573 C   0  0  0  0  0  0  0  0  0  0  0  0
   17.7914   32.5162   14.2507 C   0  0  0  0  0  0  0  0  0  0  0  0
   17.5505   33.7904   14.7361 C   0  0  0  0  0  0  0  0  0  0  0  0
   16.7164   34.0040   15.8283 C   0  0  0  0  0  0  0  0  0  0  0  0
  9 10  2  0  0  0
  9 11  1  0  0  0
 10 12  1  0  0  0
 11 13  1  0  0  0
 12 13  2  0  0  0
 12 17  1  0  0  0
 13 14  1  0  0  0
 14 15  2  0  0  0
 15 16  1  0  0  0
 15  6  1  0  0  0
 16 17  2  0  0  0
  6  7  2  0  0  0
  6  8  2  0  0  0
  6  5  1  0  0  0
  5 18  1  0  0  0
  5  4  1  0  0  0
 18 19  1  0  0  0
 19 20  1  0  0  0
 19 21  1  0  0  0
 21 22  1  0  0  0
  4  1  1  0  0  0
  1  2  1  0  0  0
  1 23  1  0  0  0
 23 24  1  0  0  0
 23 37  1  0  0  0
 24 25  1  0  0  0
 25 26  2  0  0  0
 25 28  1  0  0  0
 28 29  1  0  0  0
 29 30  1  0  0  0
 29 36  1  0  0  0
 30 31  1  0  0  0
 31 32  1  0  0  0
 32 33  1  0  0  0
 32 36  1  0  0  0
 33 34  1  0  0  0
 34 35  1  0  0  0
 35 36  1  0  0  0
 37 43  1  0  0  0
 38 39  2  0  0  0
 38 43  1  0  0  0
 39 40  1  0  0  0
 40 41  2  0  0  0
 41 42  1  0  0  0
 42 43  2  0  0  0
  2  3  1  0  0  0
 24 27  1  0  0  0
M  END
> <minimizedAffinity>
-8.90010

$$$$
3O9D_K19_A_200


 43 47  0  0  0  0  0  0  0  0999 V2000
   18.9708   30.7704   16.1949 C   0  0  0  0  0  0  0  0  0  0  0  0
   19.4818   30.0907   17.3508 O   0  0  0  0  0  0  0  0  0  0  0  0
   20.0820   30.6802   17.8335 H   0  0  0  0  0  0  0  0  0  0  0  0
   20.1062   31.1058   15.2279 C   0  0  0  0  0  0  0  0  0  0  0  0
   19.8416   30.4218   13.9519 N   0  0  0  0  0  0  0  0  0  0  0  0
   21.0241   30.6075   12.8594 S   0  0  0  0  0  0  0  0  0  0  0  0
   20.4020   31.2616   11.7350 O   0  0  0  0  0  0  0  0  0  0  0  0
   22.0731   31.3691   13.4516 O   0  0  0  0  0  0  0  0  0  0  0  0
   21.9799   24.7218   10.5776 C   0  0  0  0  0  0  0  0  0  0  0  0
   22.9373   25.2623   11.3595 N   0  0  0  0  0  0  0  0  0  0  0  0
   20.6092   25.7452   10.2736 S   0  0  0  0  0  0  0  0  0  0  0  0
   22.6292   26.5384   11.7633 C   0  0  0  0  0  0  0  0  0  0  0  0
   21.3802   26.9219   11.2638 C   0  0  0  0  0  0  0  0  0  0  0  0
   20.8909   28.2161   11.5813 C   0  0  0  0  0  0  0  0  0  0  0  0
   21.5895   29.1349   12.3933 C   0  0  0  0  0  0  0  0  0  0  0  0
   22.8382   28.7085   12.8655 C   0  0  0  0  0  0  0  0  0  0  0  0
   23.3421   27.4306   12.5550 C   0  0  0  0  0  0  0  0  0  0  0  0
   19.4210   29.0044   14.1169 C   0  0  0  0  0  0  0  0  0  0  0  0
   17.9481   28.7948   13.7701 C   0  0  0  0  0  0  0  0  0  0  0  0
   17.5343   29.3441   12.4035 C   0  0  0  0  0  0  0  0  0  0  0  0
   17.6026   27.3033   13.8935 C   0  0  0  0  0  0  0  0  0  0  0  0
   17.7502   26.5414   12.6033 C   0  0  0  0  0  0  0  0  0  0  0  0
   18.1667   31.9802   16.6492 C   0  0  0  0  0  0  0  0  0  0  0  0
   19.1207   33.0485   16.8336 N   0  0  0  0  0  0  0  0  0  0  0  0
   19.0807   33.9436   17.8097 C   0  0  0  0  0  0  0  0  0  0  0  0
   18.2855   34.0570   18.7301 O   0  0  0  0  0  0  0  0  0  0  0  0
   19.8574   33.1170   16.1842 H   0  0  0  0  0  0  0  0  0  0  0  0
   20.1547   34.8842   17.6886 O   0  0  0  0  0  0  0  0  0  0  0  0
   21.4623   34.4660   18.0463 C   0  0  0  0  0  0  0  0  0  0  0  0
   22.3214   34.8994   16.8718 C   0  0  0  0  0  0  0  0  0  0  0  0
   22.5435   36.2847   17.1228 O   0  0  0  0  0  0  0  0  0  0  0  0
   22.5736   36.5181   18.5220 C   0  0  0  0  0  0  0  0  0  0  0  0
   21.7514   37.6313   18.8124 O   0  0  0  0  0  0  0  0  0  0  0  0
   20.6009   37.2376   19.5694 C   0  0  0  0  0  0  0  0  0  0  0  0
   20.9479   35.8764   20.1506 C   0  0  0  0  0  0  0  0  0  0  0  0
   21.9800   35.2978   19.2009 C   0  0  0  0  0  0  0  0  0  0  0  0
   17.0745   32.4614   15.6968 C   0  0  0  0  0  0  0  0  0  0  0  0
   16.4510   34.9001   15.9252 C   0  0  0  0  0  0  0  0  0  0  0  0
   15.7049   35.9264   16.5043 C   0  0  0  0  0  0  0  0  0  0  0  0
   14.7903   35.6483   17.4953 C   0  0  0  0  0  0  0  0  0  0  0  0
   14.6059   34.3448   17.9186 C   0  0  0  0  0  0  0  0  0  0  0  0
   15.3419   33.3266   17.3363 C   0  0  0  0  0  0  0  0  0  0  0  0
   16.2709   33.5858   16.3343 C   0  0  0  0  0  0  0  0  0  0  0  0
  9 10  2  0  0  0
  9 11  1  0  0  0
 10 12  1  0  0  0
 11 13  1  0  0  0
 12 13  2  0  0  0
 12 17  1  0  0  0
 13 14  1  0  0  0
 14 15  2  0  0  0
 15 16  1  0  0  0
 15  6  1  0  0  0
 16 17  2  0  0  0
  6  7  2  0  0  0
  6  8  2  0  0  0
  6  5  1  0  0  0
  5 18  1  0  0  0
  5  4  1  0  0  0
 18 19  1  0  0  0
 19 20  1  0  0  0
 19 21  1  0  0  0
 21 22  1  0  0  0
  4  1  1  0  0  0
  1  2  1  0  0  0
  1 23  1  0  0  0
 23 24  1  0  0  0
 23 37  1  0  0  0
 24 25  1  0  0  0
 25 26  2  0  0  0
 25 28  1  0  0  0
 28 29  1  0  0  0
 29 30  1  0  0  0
 29 36  1  0  0  0
 30 31  1  0  0  0
 31 32  1  0  0  0
 32 33  1  0  0  0
 32 36  1  0  0  0
 33 34  1  0  0  0
 34 35  1  0  0  0
 35 36  1  0  0  0
 37 43  1  0  0  0
 38 39  2  0  0  0
 38 43  1  0  0  0
 39 40  1  0  0  0
 40 41  2  0  0  0
 41 42  1  0  0  0
 42 43  2  0  0  0
  2  3  1  0  0  0
 24 27  1  0  0  0
M  END
> <minimizedAffinity>
-8.88214

$$$$
3O9D_K19_A_200


 43 47  0  0  0  0  0  0  0  0999 V2000
   18.4258   31.5714   15.6478 C   0  0  0  0  0  0  0  0  0  0  0  0
   18.9905   30.6725   16.6132 O   0  0  0  0  0  0  0  0  0  0  0  0
   19.7042   31.1206   17.0936 H   0  0  0  0  0  0  0  0  0  0  0  0
   19.4703   31.9527   14.5989 C   0  0  0  0  0  0  0  0  0  0  0  0
   20.2337   30.7441   14.2486 N   0  0  0  0  0  0  0  0  0  0  0  0
   20.2352   30.4155   12.6616 S   0  0  0  0  0  0  0  0  0  0  0  0
   18.8443   30.3373   12.2894 O   0  0  0  0  0  0  0  0  0  0  0  0
   20.9478   31.4481   11.9854 O   0  0  0  0  0  0  0  0  0  0  0  0
   24.1502   25.5076   11.5012 C   0  0  0  0  0  0  0  0  0  0  0  0
   22.8213   25.2743   11.4953 N   0  0  0  0  0  0  0  0  0  0  0  0
   24.6117   27.1427   11.8646 S   0  0  0  0  0  0  0  0  0  0  0  0
   22.0880   26.3987   11.7853 C   0  0  0  0  0  0  0  0  0  0  0  0
   22.9324   27.4955   11.9874 C   0  0  0  0  0  0  0  0  0  0  0  0
   22.3496   28.7523   12.2969 C   0  0  0  0  0  0  0  0  0  0  0  0
   20.9574   28.9624   12.3933 C   0  0  0  0  0  0  0  0  0  0  0  0
   20.1524   27.8336   12.1887 C   0  0  0  0  0  0  0  0  0  0  0  0
   20.7137   26.5776   11.8873 C   0  0  0  0  0  0  0  0  0  0  0  0
   21.5940   30.7089   14.8500 C   0  0  0  0  0  0  0  0  0  0  0  0
   22.0282   32.0756   15.3766 C   0  0  0  0  0  0  0  0  0  0  0  0
   22.2292   32.1362   16.8921 C   0  0  0  0  0  0  0  0  0  0  0  0
   23.2932   32.5299   14.6331 C   0  0  0  0  0  0  0  0  0  0  0  0
   24.2026   33.3959   15.4638 C   0  0  0  0  0  0  0  0  0  0  0  0
   17.8182   32.7610   16.3774 C   0  0  0  0  0  0  0  0  0  0  0  0
   18.9175   33.4380   17.0242 N   0  0  0  0  0  0  0  0  0  0  0  0
   18.8429   34.0721   18.1851 C   0  0  0  0  0  0  0  0  0  0  0  0
   17.8900   34.2104   18.9370 O   0  0  0  0  0  0  0  0  0  0  0  0
   19.7896   33.4276   16.5674 H   0  0  0  0  0  0  0  0  0  0  0  0
   20.1024   34.6612   18.5307 O   0  0  0  0  0  0  0  0  0  0  0  0
   20.6455   35.6483   17.6686 C   0  0  0  0  0  0  0  0  0  0  0  0
   19.7023   36.8284   17.8200 C   0  0  0  0  0  0  0  0  0  0  0  0
   20.1389   37.4429   19.0296 O   0  0  0  0  0  0  0  0  0  0  0  0
   21.5370   37.2558   19.1831 C   0  0  0  0  0  0  0  0  0  0  0  0
   21.7915   36.8114   20.5012 O   0  0  0  0  0  0  0  0  0  0  0  0
   22.2779   35.4642   20.5050 C   0  0  0  0  0  0  0  0  0  0  0  0
   22.7611   35.2066   19.0868 C   0  0  0  0  0  0  0  0  0  0  0  0
   21.9589   36.1604   18.2215 C   0  0  0  0  0  0  0  0  0  0  0  0
   17.0651   33.7701   15.5136 C   0  0  0  0  0  0  0  0  0  0  0  0
   15.0956   34.1682   17.0468 C   0  0  0  0  0  0  0  0  0  0  0  0
   14.3152   34.9989   17.8508 C   0  0  0  0  0  0  0  0  0  0  0  0
   14.6294   36.3327   17.9852 C   0  0  0  0  0  0  0  0  0  0  0  0
   15.7260   36.8538   17.3231 C   0  0  0  0  0  0  0  0  0  0  0  0
   16.5039   36.0253   16.5321 C   0  0  0  0  0  0  0  0  0  0  0  0
   16.2040   34.6756   16.3825 C   0  0  0  0  0  0  0  0  0  0  0  0
  9 10  2  0  0  0
  9 11  1  0  0  0
 10 12  1  0  0  0
 11 13  1  0  0  0
 12 13  2  0  0  0
 12 17  1  0  0  0
 13 14  1  0  0  0
 14 15  2  0  0  0
 15 16  1  0  0  0
 15  6  1  0  0  0
 16 17  2  0  0  0
  6  7  2  0  0  0
  6  8  2  0  0  0
  6  5  1  0  0  0
  5 18  1  0  0  0
  5  4  1  0  0  0
 18 19  1  0  0  0
 19 20  1  0  0  0
 19 21  1  0  0  0
 21 22  1  0  0  0
  4  1  1  0  0  0
  1  2  1  0  0  0
  1 23  1  0  0  0
 23 24  1  0  0  0
 23 37  1  0  0  0
 24 25  1  0  0  0
 25 26  2  0  0  0
 25 28  1  0  0  0
 28 29  1  0  0  0
 29 30  1  0  0  0
 29 36  1  0  0  0
 30 31  1  0  0  0
 31 32  1  0  0  0
 32 33  1  0  0  0
 32 36  1  0  0  0
 33 34  1  0  0  0
 34 35  1  0  0  0
 35 36  1  0  0  0
 37 43  1  0  0  0
 38 39  2  0  0  0
 38 43  1  0  0  0
 39 40  1  0  0  0
 40 41  2  0  0  0
 41 42  1  0  0  0
 42 43  2  0  0  0
  2  3  1  0  0  0
 24 27  1  0  0  0
M  END
> <minimizedAffinity>
-8.83606

$$$$
3O9D_K19_A_200


 43 47  0  0  0  0  0  0  0  0999 V2000
   19.4531   30.7088   15.9387 C   0  0  0  0  0  0  0  0  0  0  0  0
   20.6654   30.8064   16.7000 O   0  0  0  0  0  0  0  0  0  0  0  0
   21.0435   31.6933   16.5935 H   0  0  0  0  0  0  0  0  0  0  0  0
   19.7455   30.8700   14.4470 C   0  0  0  0  0  0  0  0  0  0  0  0
   19.9209   29.5299   13.8645 N   0  0  0  0  0  0  0  0  0  0  0  0
   21.3465   28.8481   14.2244 S   0  0  0  0  0  0  0  0  0  0  0  0
   22.2471   29.9509   14.4525 O   0  0  0  0  0  0  0  0  0  0  0  0
   21.1735   28.0099   15.3639 O   0  0  0  0  0  0  0  0  0  0  0  0
   22.2104   24.8257    9.3423 C   0  0  0  0  0  0  0  0  0  0  0  0
   23.2792   25.5143    9.7938 N   0  0  0  0  0  0  0  0  0  0  0  0
   20.7137   25.1680   10.1555 S   0  0  0  0  0  0  0  0  0  0  0  0
   22.9608   26.3648   10.8240 C   0  0  0  0  0  0  0  0  0  0  0  0
   21.6019   26.2641   11.1400 C   0  0  0  0  0  0  0  0  0  0  0  0
   21.0875   27.0715   12.1881 C   0  0  0  0  0  0  0  0  0  0  0  0
   21.8791   27.9605   12.9462 C   0  0  0  0  0  0  0  0  0  0  0  0
   23.2325   28.0313   12.5895 C   0  0  0  0  0  0  0  0  0  0  0  0
   23.7585   27.2427   11.5480 C   0  0  0  0  0  0  0  0  0  0  0  0
   18.7663   28.6237   14.1076 C   0  0  0  0  0  0  0  0  0  0  0  0
   18.1471   28.1155   12.8069 C   0  0  0  0  0  0  0  0  0  0  0  0
   17.3503   26.8172   12.9491 C   0  0  0  0  0  0  0  0  0  0  0  0
   17.2877   29.2255   12.1836 C   0  0  0  0  0  0  0  0  0  0  0  0
   16.5021   28.7761   10.9804 C   0  0  0  0  0  0  0  0  0  0  0  0
   18.4457   31.7110   16.4840 C   0  0  0  0  0  0  0  0  0  0  0  0
   19.2075   32.6646   17.2558 N   0  0  0  0  0  0  0  0  0  0  0  0
   20.0100   33.5875   16.7463 C   0  0  0  0  0  0  0  0  0  0  0  0
   20.2648   33.8390   15.5782 O   0  0  0  0  0  0  0  0  0  0  0  0
   19.1242   32.6259   18.2360 H   0  0  0  0  0  0  0  0  0  0  0  0
   20.6388   34.3509   17.7831 O   0  0  0  0  0  0  0  0  0  0  0  0
   20.9412   35.7135   17.5298 C   0  0  0  0  0  0  0  0  0  0  0  0
   19.5925   36.4079   17.5947 C   0  0  0  0  0  0  0  0  0  0  0  0
   19.3752   36.5702   18.9939 O   0  0  0  0  0  0  0  0  0  0  0  0
   20.6194   36.7413   19.6540 C   0  0  0  0  0  0  0  0  0  0  0  0
   20.6537   35.8890   20.7819 O   0  0  0  0  0  0  0  0  0  0  0  0
   21.6328   34.8566   20.6170 C   0  0  0  0  0  0  0  0  0  0  0  0
   22.5564   35.3501   19.5149 C   0  0  0  0  0  0  0  0  0  0  0  0
   21.7095   36.3039   18.6934 C   0  0  0  0  0  0  0  0  0  0  0  0
   17.6207   32.4709   15.4480 C   0  0  0  0  0  0  0  0  0  0  0  0
   16.7487   34.8096   15.8459 C   0  0  0  0  0  0  0  0  0  0  0  0
   15.8788   35.7052   16.4679 C   0  0  0  0  0  0  0  0  0  0  0  0
   14.9520   35.2548   17.3811 C   0  0  0  0  0  0  0  0  0  0  0  0
   14.8787   33.9073   17.6831 C   0  0  0  0  0  0  0  0  0  0  0  0
   15.7377   33.0192   17.0582 C   0  0  0  0  0  0  0  0  0  0  0  0
   16.6813   33.4531   16.1332 C   0  0  0  0  0  0  0  0  0  0  0  0
  9 10  2  0  0  0
  9 11  1  0  0  0
 10 12  1  0  0  0
 11 13  1  0  0  0
 12 13  2  0  0  0
 12 17  1  0  0  0
 13 14  1  0  0  0
 14 15  2  0  0  0
 15 16  1  0  0  0
 15  6  1  0  0  0
 16 17  2  0  0  0
  6  7  2  0  0  0
  6  8  2  0  0  0
  6  5  1  0  0  0
  5 18  1  0  0  0
  5  4  1  0  0  0
 18 19  1  0  0  0
 19 20  1  0  0  0
 19 21  1  0  0  0
 21 22  1  0  0  0
  4  1  1  0  0  0
  1  2  1  0  0  0
  1 23  1  0  0  0
 23 24  1  0  0  0
 23 37  1  0  0  0
 24 25  1  0  0  0
 25 26  2  0  0  0
 25 28  1  0  0  0
 28 29  1  0  0  0
 29 30  1  0  0  0
 29 36  1  0  0  0
 30 31  1  0  0  0
 31 32  1  0  0  0
 32 33  1  0  0  0
 32 36  1  0  0  0
 33 34  1  0  0  0
 34 35  1  0  0  0
 35 36  1  0  0  0
 37 43  1  0  0  0
 38 39  2  0  0  0
 38 43  1  0  0  0
 39 40  1  0  0  0
 40 41  2  0  0  0
 41 42  1  0  0  0
 42 43  2  0  0  0
  2  3  1  0  0  0
 24 27  1  0  0  0
M  END
> <minimizedAffinity>
-8.62444

$$$$
3O9D_K19_A_200


 43 47  0  0  0  0  0  0  0  0999 V2000
   20.5105   30.8522   15.9216 C   0  0  0  0  0  0  0  0  0  0  0  0
   20.3462   30.1788   17.1780 O   0  0  0  0  0  0  0  0  0  0  0  0
   21.1872   30.1862   17.6612 H   0  0  0  0  0  0  0  0  0  0  0  0
   21.5126   30.1042   15.0425 C   0  0  0  0  0  0  0  0  0  0  0  0
   20.7693   29.4394   13.9601 N   0  0  0  0  0  0  0  0  0  0  0  0
   21.6927   29.0410   12.6892 S   0  0  0  0  0  0  0  0  0  0  0  0
   21.7799   30.2403   11.8934 O   0  0  0  0  0  0  0  0  0  0  0  0
   22.9541   28.5846   13.1705 O   0  0  0  0  0  0  0  0  0  0  0  0
   18.0144   25.4196    8.9319 C   0  0  0  0  0  0  0  0  0  0  0  0
   18.9189   24.8020    9.7198 N   0  0  0  0  0  0  0  0  0  0  0  0
   18.0064   27.1539    9.0353 S   0  0  0  0  0  0  0  0  0  0  0  0
   19.6664   25.6872   10.4572 C   0  0  0  0  0  0  0  0  0  0  0  0
   19.2625   27.0016   10.2010 C   0  0  0  0  0  0  0  0  0  0  0  0
   19.9242   28.0590   10.8786 C   0  0  0  0  0  0  0  0  0  0  0  0
   20.9591   27.8556   11.8162 C   0  0  0  0  0  0  0  0  0  0  0  0
   21.3332   26.5229   12.0356 C   0  0  0  0  0  0  0  0  0  0  0  0
   20.6922   25.4619   11.3672 C   0  0  0  0  0  0  0  0  0  0  0  0
   19.9157   28.3161   14.4323 C   0  0  0  0  0  0  0  0  0  0  0  0
   18.5403   28.3170   13.7677 C   0  0  0  0  0  0  0  0  0  0  0  0
   17.5353   27.3453   14.3894 C   0  0  0  0  0  0  0  0  0  0  0  0
   17.9845   29.7488   13.7480 C   0  0  0  0  0  0  0  0  0  0  0  0
   17.3226   30.1564   15.0374 C   0  0  0  0  0  0  0  0  0  0  0  0
   20.8813   32.3047   16.1850 C   0  0  0  0  0  0  0  0  0  0  0  0
   19.6758   32.9469   16.6537 N   0  0  0  0  0  0  0  0  0  0  0  0
   18.7255   33.4418   15.8743 C   0  0  0  0  0  0  0  0  0  0  0  0
   18.6471   33.4562   14.6552 O   0  0  0  0  0  0  0  0  0  0  0  0
   19.5504   33.0229   17.6272 H   0  0  0  0  0  0  0  0  0  0  0  0
   17.6806   34.0373   16.6531 O   0  0  0  0  0  0  0  0  0  0  0  0
   16.4268   34.2733   16.0328 C   0  0  0  0  0  0  0  0  0  0  0  0
   15.5914   33.0662   16.4206 C   0  0  0  0  0  0  0  0  0  0  0  0
   15.1561   33.3803   17.7409 O   0  0  0  0  0  0  0  0  0  0  0  0
   15.0028   34.7847   17.8722 C   0  0  0  0  0  0  0  0  0  0  0  0
   15.6355   35.1987   19.0672 O   0  0  0  0  0  0  0  0  0  0  0  0
   16.7797   36.0138   18.7877 C   0  0  0  0  0  0  0  0  0  0  0  0
   16.5960   36.4880   17.3551 C   0  0  0  0  0  0  0  0  0  0  0  0
   15.7214   35.4333   16.7037 C   0  0  0  0  0  0  0  0  0  0  0  0
   21.9898   32.5439   17.2074 C   0  0  0  0  0  0  0  0  0  0  0  0
   21.8989   34.3425   18.9808 C   0  0  0  0  0  0  0  0  0  0  0  0
   21.9276   35.6807   19.3735 C   0  0  0  0  0  0  0  0  0  0  0  0
   22.0540   36.6792   18.4339 C   0  0  0  0  0  0  0  0  0  0  0  0
   22.1564   36.3566   17.0930 C   0  0  0  0  0  0  0  0  0  0  0  0
   22.1360   35.0272   16.7065 C   0  0  0  0  0  0  0  0  0  0  0  0
   22.0088   34.0033   17.6392 C   0  0  0  0  0  0  0  0  0  0  0  0
  9 10  2  0  0  0
  9 11  1  0  0  0
 10 12  1  0  0  0
 11 13  1  0  0  0
 12 13  2  0  0  0
 12 17  1  0  0  0
 13 14  1  0  0  0
 14 15  2  0  0  0
 15 16  1  0  0  0
 15  6  1  0  0  0
 16 17  2  0  0  0
  6  7  2  0  0  0
  6  8  2  0  0  0
  6  5  1  0  0  0
  5 18  1  0  0  0
  5  4  1  0  0  0
 18 19  1  0  0  0
 19 20  1  0  0  0
 19 21  1  0  0  0
 21 22  1  0  0  0
  4  1  1  0  0  0
  1  2  1  0  0  0
  1 23  1  0  0  0
 23 24  1  0  0  0
 23 37  1  0  0  0
 24 25  1  0  0  0
 25 26  2  0  0  0
 25 28  1  0  0  0
 28 29  1  0  0  0
 29 30  1  0  0  0
 29 36  1  0  0  0
 30 31  1  0  0  0
 31 32  1  0  0  0
 32 33  1  0  0  0
 32 36  1  0  0  0
 33 34  1  0  0  0
 34 35  1  0  0  0
 35 36  1  0  0  0
 37 43  1  0  0  0
 38 39  2  0  0  0
 38 43  1  0  0  0
 39 40  1  0  0  0
 40 41  2  0  0  0
 41 42  1  0  0  0
 42 43  2  0  0  0
  2  3  1  0  0  0
 24 27  1  0  0  0
M  END
> <minimizedAffinity>
-8.58810

$$$$
