4QTL_WWO_A_304


 31 32  0  0  0  0  0  0  0  0999 V2000
   -4.0019    0.5770   14.6300 F   0  0  0  0  0  0  0  0  0  0  0  0
   -4.5419    1.8270   14.6822 C   0  0  0  0  0  0  0  0  0  0  0  0
   -5.4514    2.1677   15.7298 C   0  0  0  0  0  0  0  0  0  0  0  0
   -5.9785    3.4444   15.7717 C   0  0  0  0  0  0  0  0  0  0  0  0
   -6.8452    3.7900   16.7521 F   0  0  0  0  0  0  0  0  0  0  0  0
   -5.5912    4.3912   14.8463 C   0  0  0  0  0  0  0  0  0  0  0  0
   -6.1542    5.6210   15.0007 F   0  0  0  0  0  0  0  0  0  0  0  0
   -4.1764    2.7720   13.6801 C   0  0  0  0  0  0  0  0  0  0  0  0
   -4.7236    4.0919   13.8056 C   0  0  0  0  0  0  0  0  0  0  0  0
   -6.0859    1.0276   16.9888 S   0  0  0  0  0  0  0  0  0  0  0  0
   -5.3582   -0.3218   16.6632 O   0  0  0  0  0  0  0  0  0  0  0  0
   -5.5300    1.6366   18.5249 N   0  0  0  0  0  0  0  0  0  0  0  0
   -7.5666    0.7618   17.0459 O   0  0  0  0  0  0  0  0  0  0  0  0
   -4.5267    1.8139   18.4773 H   0  0  0  0  0  0  0  0  0  0  0  0
   -5.7194    0.9474   19.2525 H   0  0  0  0  0  0  0  0  0  0  0  0
   -4.3834    5.5266   12.7245 S   0  0  0  0  0  0  0  0  0  0  0  0
   -5.7107    6.3268   12.4733 O   0  0  0  0  0  0  0  0  0  0  0  0
   -4.3832    4.9399   11.2833 O   0  0  0  0  0  0  0  0  0  0  0  0
   -3.0342    6.7958   12.8529 C   0  0  0  0  0  0  0  0  0  0  0  0
   -1.6363    6.1536   12.9967 C   0  0  0  0  0  0  0  0  0  0  0  0
   -1.5069    4.9231   12.3233 O   0  0  0  0  0  0  0  0  0  0  0  0
   -2.1300    4.2818   12.6993 H   0  0  0  0  0  0  0  0  0  0  0  0
   -3.2158    2.4786   12.6408 N   0  0  0  0  0  0  0  0  0  0  0  0
   -2.2779    2.6812   12.8610 H   0  0  0  0  0  0  0  0  0  0  0  0
   -3.4438    1.9222   11.3072 C   0  0  0  0  0  0  0  0  0  0  0  0
   -3.1612    0.4601   11.2743 C   0  0  0  0  0  0  0  0  0  0  0  0
   -4.1768   -0.4460   11.6001 C   0  0  0  0  0  0  0  0  0  0  0  0
   -3.9253   -1.8209   11.5740 C   0  0  0  0  0  0  0  0  0  0  0  0
   -2.6578   -2.2941   11.2219 C   0  0  0  0  0  0  0  0  0  0  0  0
   -1.6404   -1.3895   10.8959 C   0  0  0  0  0  0  0  0  0  0  0  0
   -1.8923   -0.0134   10.9224 C   0  0  0  0  0  0  0  0  0  0  0  0
 11 10  2  0  0  0
 10 12  1  0  0  0
 10  3  1  0  0  0
 10 13  2  0  0  0
 31 30  2  0  0  0
 31 26  1  0  0  0
  1  2  1  0  0  0
 30 29  1  0  0  0
 25 26  1  0  0  0
 25 23  1  0  0  0
  3  2  2  0  0  0
  3  4  1  0  0  0
  2  8  1  0  0  0
 26 27  2  0  0  0
  4  5  1  0  0  0
  4  6  2  0  0  0
  8 23  1  0  0  0
  8  9  2  0  0  0
 18 16  2  0  0  0
 29 28  2  0  0  0
  6  9  1  0  0  0
  6  7  1  0  0  0
  9 16  1  0  0  0
 17 16  2  0  0  0
 27 28  1  0  0  0
 16 19  1  0  0  0
 19 20  1  0  0  0
 21 20  1  0  0  0
 12 14  1  0  0  0
 12 15  1  0  0  0
 21 22  1  0  0  0
 23 24  1  0  0  0
M  END
> <minimizedAffinity>
-8.32983

$$$$
4QTL_WWO_A_304


 31 32  0  0  0  0  0  0  0  0999 V2000
   -4.0126    0.6342   14.6255 F   0  0  0  0  0  0  0  0  0  0  0  0
   -4.5275    1.8936   14.6999 C   0  0  0  0  0  0  0  0  0  0  0  0
   -5.4510    2.2263   15.7378 C   0  0  0  0  0  0  0  0  0  0  0  0
   -5.9522    3.5124   15.8029 C   0  0  0  0  0  0  0  0  0  0  0  0
   -6.8315    3.8508   16.7745 F   0  0  0  0  0  0  0  0  0  0  0  0
   -5.5265    4.4744   14.9106 C   0  0  0  0  0  0  0  0  0  0  0  0
   -6.0669    5.7116   15.0861 F   0  0  0  0  0  0  0  0  0  0  0  0
   -4.1220    2.8562   13.7305 C   0  0  0  0  0  0  0  0  0  0  0  0
   -4.6442    4.1838   13.8799 C   0  0  0  0  0  0  0  0  0  0  0  0
   -6.1347    1.0677   16.9534 S   0  0  0  0  0  0  0  0  0  0  0  0
   -5.4328   -0.2893   16.6034 O   0  0  0  0  0  0  0  0  0  0  0  0
   -5.5928    1.6212   18.5153 N   0  0  0  0  0  0  0  0  0  0  0  0
   -7.6220    0.8356   16.9771 O   0  0  0  0  0  0  0  0  0  0  0  0
   -4.5849    1.7758   18.4903 H   0  0  0  0  0  0  0  0  0  0  0  0
   -5.8114    0.9171   19.2201 H   0  0  0  0  0  0  0  0  0  0  0  0
   -4.2522    5.6385   12.8439 S   0  0  0  0  0  0  0  0  0  0  0  0
   -3.0668    5.2937   11.8739 O   0  0  0  0  0  0  0  0  0  0  0  0
   -3.3475    6.5285   13.7444 O   0  0  0  0  0  0  0  0  0  0  0  0
   -5.4013    6.7352   11.8822 C   0  0  0  0  0  0  0  0  0  0  0  0
   -5.1910    6.6111   10.3565 C   0  0  0  0  0  0  0  0  0  0  0  0
   -5.1433    5.2798    9.8984 O   0  0  0  0  0  0  0  0  0  0  0  0
   -4.3891    4.8249   10.3049 H   0  0  0  0  0  0  0  0  0  0  0  0
   -3.1467    2.5695   12.7033 N   0  0  0  0  0  0  0  0  0  0  0  0
   -2.2100    2.7519   12.9453 H   0  0  0  0  0  0  0  0  0  0  0  0
   -3.3581    2.0458   11.3537 C   0  0  0  0  0  0  0  0  0  0  0  0
   -3.1399    0.5732   11.3035 C   0  0  0  0  0  0  0  0  0  0  0  0
   -1.8861    0.0742   10.9323 C   0  0  0  0  0  0  0  0  0  0  0  0
   -1.6675   -1.3055   10.8803 C   0  0  0  0  0  0  0  0  0  0  0  0
   -2.7014   -2.1905   11.1995 C   0  0  0  0  0  0  0  0  0  0  0  0
   -3.9564   -1.6937   11.5708 C   0  0  0  0  0  0  0  0  0  0  0  0
   -4.1750   -0.3126   11.6225 C   0  0  0  0  0  0  0  0  0  0  0  0
 11 10  2  0  0  0
 10 12  1  0  0  0
 10  3  1  0  0  0
 10 13  2  0  0  0
 31 30  2  0  0  0
 31 26  1  0  0  0
  1  2  1  0  0  0
 30 29  1  0  0  0
 25 26  1  0  0  0
 25 23  1  0  0  0
  3  2  2  0  0  0
  3  4  1  0  0  0
  2  8  1  0  0  0
 26 27  2  0  0  0
  4  5  1  0  0  0
  4  6  2  0  0  0
  8 23  1  0  0  0
  8  9  2  0  0  0
 18 16  2  0  0  0
 29 28  2  0  0  0
  6  9  1  0  0  0
  6  7  1  0  0  0
  9 16  1  0  0  0
 17 16  2  0  0  0
 27 28  1  0  0  0
 16 19  1  0  0  0
 19 20  1  0  0  0
 21 20  1  0  0  0
 12 14  1  0  0  0
 12 15  1  0  0  0
 21 22  1  0  0  0
 23 24  1  0  0  0
M  END
> <minimizedAffinity>
-8.31185

$$$$
4QTL_WWO_A_304


 31 32  0  0  0  0  0  0  0  0999 V2000
   -1.9354    5.2195   13.3471 F   0  0  0  0  0  0  0  0  0  0  0  0
   -1.7581    4.1834   12.4801 C   0  0  0  0  0  0  0  0  0  0  0  0
   -0.6360    4.1775   11.5959 C   0  0  0  0  0  0  0  0  0  0  0  0
   -0.4677    3.1116   10.7328 C   0  0  0  0  0  0  0  0  0  0  0  0
    0.5853    3.0851    9.8829 F   0  0  0  0  0  0  0  0  0  0  0  0
   -1.3410    2.0442   10.7616 C   0  0  0  0  0  0  0  0  0  0  0  0
   -1.0621    1.0396    9.8862 F   0  0  0  0  0  0  0  0  0  0  0  0
   -2.7066    3.1198   12.4826 C   0  0  0  0  0  0  0  0  0  0  0  0
   -2.4506    2.0230   11.5944 C   0  0  0  0  0  0  0  0  0  0  0  0
    0.5695    5.5193   11.4118 S   0  0  0  0  0  0  0  0  0  0  0  0
    0.0787    6.5980   12.4375 O   0  0  0  0  0  0  0  0  0  0  0  0
    2.1034    4.8733   11.9308 N   0  0  0  0  0  0  0  0  0  0  0  0
    0.7180    6.1811   10.0678 O   0  0  0  0  0  0  0  0  0  0  0  0
    1.9938    4.4270   12.8414 H   0  0  0  0  0  0  0  0  0  0  0  0
    2.7840    5.6296   12.0025 H   0  0  0  0  0  0  0  0  0  0  0  0
   -3.4397    0.4943   11.4275 S   0  0  0  0  0  0  0  0  0  0  0  0
   -4.8986    0.8547   10.9727 O   0  0  0  0  0  0  0  0  0  0  0  0
   -3.8991    0.1646   12.8771 O   0  0  0  0  0  0  0  0  0  0  0  0
   -3.0081   -1.0910   10.5624 C   0  0  0  0  0  0  0  0  0  0  0  0
   -3.1004   -2.3153   11.5006 C   0  0  0  0  0  0  0  0  0  0  0  0
   -2.2787   -3.3907   11.1099 O   0  0  0  0  0  0  0  0  0  0  0  0
   -2.5557   -3.7084   10.2363 H   0  0  0  0  0  0  0  0  0  0  0  0
   -3.8198    3.0662   13.4027 N   0  0  0  0  0  0  0  0  0  0  0  0
   -4.6504    2.6806   13.0413 H   0  0  0  0  0  0  0  0  0  0  0  0
   -3.8837    3.5054   14.7967 C   0  0  0  0  0  0  0  0  0  0  0  0
   -4.7991    2.6433   15.5952 C   0  0  0  0  0  0  0  0  0  0  0  0
   -4.3626    1.3841   16.0224 C   0  0  0  0  0  0  0  0  0  0  0  0
   -5.2114    0.5643   16.7719 C   0  0  0  0  0  0  0  0  0  0  0  0
   -6.4990    1.0010   17.0967 C   0  0  0  0  0  0  0  0  0  0  0  0
   -6.9379    2.2600   16.6702 C   0  0  0  0  0  0  0  0  0  0  0  0
   -6.0882    3.0802   15.9198 C   0  0  0  0  0  0  0  0  0  0  0  0
 11 10  2  0  0  0
 10 12  1  0  0  0
 10  3  1  0  0  0
 10 13  2  0  0  0
 31 30  2  0  0  0
 31 26  1  0  0  0
  1  2  1  0  0  0
 30 29  1  0  0  0
 25 26  1  0  0  0
 25 23  1  0  0  0
  3  2  2  0  0  0
  3  4  1  0  0  0
  2  8  1  0  0  0
 26 27  2  0  0  0
  4  5  1  0  0  0
  4  6  2  0  0  0
  8 23  1  0  0  0
  8  9  2  0  0  0
 18 16  2  0  0  0
 29 28  2  0  0  0
  6  9  1  0  0  0
  6  7  1  0  0  0
  9 16  1  0  0  0
 17 16  2  0  0  0
 27 28  1  0  0  0
 16 19  1  0  0  0
 19 20  1  0  0  0
 21 20  1  0  0  0
 12 14  1  0  0  0
 12 15  1  0  0  0
 21 22  1  0  0  0
 23 24  1  0  0  0
M  END
> <minimizedAffinity>
-7.96623

$$$$
4QTL_WWO_A_304


 31 32  0  0  0  0  0  0  0  0999 V2000
   -3.0908    6.6090   15.1814 F   0  0  0  0  0  0  0  0  0  0  0  0
   -2.8779    6.1806   13.9055 C   0  0  0  0  0  0  0  0  0  0  0  0
   -2.0919    6.9690   13.0103 C   0  0  0  0  0  0  0  0  0  0  0  0
   -1.8778    6.5109   11.7243 C   0  0  0  0  0  0  0  0  0  0  0  0
   -1.1399    7.2418   10.8565 F   0  0  0  0  0  0  0  0  0  0  0  0
   -2.3716    5.2856   11.3275 C   0  0  0  0  0  0  0  0  0  0  0  0
   -2.0767    4.9252   10.0483 F   0  0  0  0  0  0  0  0  0  0  0  0
   -3.4492    4.9409   13.4964 C   0  0  0  0  0  0  0  0  0  0  0  0
   -3.1530    4.5008   12.1637 C   0  0  0  0  0  0  0  0  0  0  0  0
   -1.4133    8.6117   13.3688 S   0  0  0  0  0  0  0  0  0  0  0  0
    0.1299    8.4239   13.1689 O   0  0  0  0  0  0  0  0  0  0  0  0
   -2.0374    9.6779   12.1387 N   0  0  0  0  0  0  0  0  0  0  0  0
   -1.6419    9.2089   14.7318 O   0  0  0  0  0  0  0  0  0  0  0  0
   -1.8786    9.2660   11.2192 H   0  0  0  0  0  0  0  0  0  0  0  0
   -1.5608   10.5779   12.1950 H   0  0  0  0  0  0  0  0  0  0  0  0
   -3.6779    2.9318   11.3856 S   0  0  0  0  0  0  0  0  0  0  0  0
   -4.3258    3.2257    9.9860 O   0  0  0  0  0  0  0  0  0  0  0  0
   -5.0563    2.6147   12.0342 O   0  0  0  0  0  0  0  0  0  0  0  0
   -2.7305    1.3467   11.1911 C   0  0  0  0  0  0  0  0  0  0  0  0
   -3.6602    0.1250   11.0169 C   0  0  0  0  0  0  0  0  0  0  0  0
   -4.6726    0.3169   10.0564 O   0  0  0  0  0  0  0  0  0  0  0  0
   -5.2480    1.0467   10.3345 H   0  0  0  0  0  0  0  0  0  0  0  0
   -4.2004    4.0916   14.3927 N   0  0  0  0  0  0  0  0  0  0  0  0
   -5.1725    4.2467   14.4085 H   0  0  0  0  0  0  0  0  0  0  0  0
   -3.7167    3.0337   15.2798 C   0  0  0  0  0  0  0  0  0  0  0  0
   -4.8452    2.3368   15.9578 C   0  0  0  0  0  0  0  0  0  0  0  0
   -6.0756    2.9893   16.0953 C   0  0  0  0  0  0  0  0  0  0  0  0
   -7.1431    2.3475   16.7299 C   0  0  0  0  0  0  0  0  0  0  0  0
   -6.9837    1.0513   17.2288 C   0  0  0  0  0  0  0  0  0  0  0  0
   -5.7538    0.3969   17.0926 C   0  0  0  0  0  0  0  0  0  0  0  0
   -4.6854    1.0397   16.4576 C   0  0  0  0  0  0  0  0  0  0  0  0
 11 10  2  0  0  0
 10 12  1  0  0  0
 10  3  1  0  0  0
 10 13  2  0  0  0
 31 30  2  0  0  0
 31 26  1  0  0  0
  1  2  1  0  0  0
 30 29  1  0  0  0
 25 26  1  0  0  0
 25 23  1  0  0  0
  3  2  2  0  0  0
  3  4  1  0  0  0
  2  8  1  0  0  0
 26 27  2  0  0  0
  4  5  1  0  0  0
  4  6  2  0  0  0
  8 23  1  0  0  0
  8  9  2  0  0  0
 18 16  2  0  0  0
 29 28  2  0  0  0
  6  9  1  0  0  0
  6  7  1  0  0  0
  9 16  1  0  0  0
 17 16  2  0  0  0
 27 28  1  0  0  0
 16 19  1  0  0  0
 19 20  1  0  0  0
 21 20  1  0  0  0
 12 14  1  0  0  0
 12 15  1  0  0  0
 21 22  1  0  0  0
 23 24  1  0  0  0
M  END
> <minimizedAffinity>
-7.74740

$$$$
4QTL_WWO_A_304


 31 32  0  0  0  0  0  0  0  0999 V2000
   -4.8641    1.2620   12.5953 F   0  0  0  0  0  0  0  0  0  0  0  0
   -3.6673    1.8153   12.2515 C   0  0  0  0  0  0  0  0  0  0  0  0
   -2.7347    1.0679   11.4689 C   0  0  0  0  0  0  0  0  0  0  0  0
   -1.5316    1.6516   11.1206 C   0  0  0  0  0  0  0  0  0  0  0  0
   -0.6301    0.9623   10.3830 F   0  0  0  0  0  0  0  0  0  0  0  0
   -1.2576    2.9552   11.4788 C   0  0  0  0  0  0  0  0  0  0  0  0
   -0.0544    3.4340   11.0589 F   0  0  0  0  0  0  0  0  0  0  0  0
   -3.3777    3.1417   12.6846 C   0  0  0  0  0  0  0  0  0  0  0  0
   -2.1315    3.7054   12.2526 C   0  0  0  0  0  0  0  0  0  0  0  0
   -2.9314   -0.6610   10.9592 S   0  0  0  0  0  0  0  0  0  0  0  0
   -4.1357   -1.1654   11.8264 O   0  0  0  0  0  0  0  0  0  0  0  0
   -3.3945   -0.6259    9.2788 N   0  0  0  0  0  0  0  0  0  0  0  0
   -1.7798   -1.6104   11.1560 O   0  0  0  0  0  0  0  0  0  0  0  0
   -4.1747    0.0193    9.1545 H   0  0  0  0  0  0  0  0  0  0  0  0
   -3.6762   -1.5609    8.9841 H   0  0  0  0  0  0  0  0  0  0  0  0
   -1.5203    5.3964   12.5841 S   0  0  0  0  0  0  0  0  0  0  0  0
   -1.5487    5.6764   14.1287 O   0  0  0  0  0  0  0  0  0  0  0  0
   -2.7491    6.3151   12.3251 O   0  0  0  0  0  0  0  0  0  0  0  0
    0.0025    6.2390   11.9367 C   0  0  0  0  0  0  0  0  0  0  0  0
   -0.1745    6.7363   10.4845 C   0  0  0  0  0  0  0  0  0  0  0  0
   -1.2929    6.1841    9.8298 O   0  0  0  0  0  0  0  0  0  0  0  0
   -1.1880    5.2219    9.7665 H   0  0  0  0  0  0  0  0  0  0  0  0
   -4.3212    3.9459   13.4276 N   0  0  0  0  0  0  0  0  0  0  0  0
   -5.0271    4.3747   12.8918 H   0  0  0  0  0  0  0  0  0  0  0  0
   -4.3728    4.2110   14.8654 C   0  0  0  0  0  0  0  0  0  0  0  0
   -4.9931    3.0759   15.6039 C   0  0  0  0  0  0  0  0  0  0  0  0
   -4.2404    1.9229   15.8547 C   0  0  0  0  0  0  0  0  0  0  0  0
   -4.8101    0.8498   16.5461 C   0  0  0  0  0  0  0  0  0  0  0  0
   -6.1338    0.9261   16.9891 C   0  0  0  0  0  0  0  0  0  0  0  0
   -6.8886    2.0783   16.7391 C   0  0  0  0  0  0  0  0  0  0  0  0
   -6.3182    3.1522   16.0468 C   0  0  0  0  0  0  0  0  0  0  0  0
 11 10  2  0  0  0
 10 12  1  0  0  0
 10  3  1  0  0  0
 10 13  2  0  0  0
 31 30  2  0  0  0
 31 26  1  0  0  0
  1  2  1  0  0  0
 30 29  1  0  0  0
 25 26  1  0  0  0
 25 23  1  0  0  0
  3  2  2  0  0  0
  3  4  1  0  0  0
  2  8  1  0  0  0
 26 27  2  0  0  0
  4  5  1  0  0  0
  4  6  2  0  0  0
  8 23  1  0  0  0
  8  9  2  0  0  0
 18 16  2  0  0  0
 29 28  2  0  0  0
  6  9  1  0  0  0
  6  7  1  0  0  0
  9 16  1  0  0  0
 17 16  2  0  0  0
 27 28  1  0  0  0
 16 19  1  0  0  0
 19 20  1  0  0  0
 21 20  1  0  0  0
 12 14  1  0  0  0
 12 15  1  0  0  0
 21 22  1  0  0  0
 23 24  1  0  0  0
M  END
> <minimizedAffinity>
-7.60511

$$$$
4QTL_WWO_A_304


 31 32  0  0  0  0  0  0  0  0999 V2000
   -4.4593    2.8379   12.1691 F   0  0  0  0  0  0  0  0  0  0  0  0
   -3.1890    2.8348   11.6760 C   0  0  0  0  0  0  0  0  0  0  0  0
   -2.6517    1.6446   11.0969 C   0  0  0  0  0  0  0  0  0  0  0  0
   -1.3657    1.6659   10.5917 C   0  0  0  0  0  0  0  0  0  0  0  0
   -0.8331    0.5498   10.0416 F   0  0  0  0  0  0  0  0  0  0  0  0
   -0.6311    2.8334   10.5988 C   0  0  0  0  0  0  0  0  0  0  0  0
    0.6120    2.7428   10.0513 F   0  0  0  0  0  0  0  0  0  0  0  0
   -2.4243    4.0351   11.7495 C   0  0  0  0  0  0  0  0  0  0  0  0
   -1.1136    4.0034   11.1678 C   0  0  0  0  0  0  0  0  0  0  0  0
   -3.4737    0.0291   11.0513 S   0  0  0  0  0  0  0  0  0  0  0  0
   -4.0187   -0.1476   12.5102 O   0  0  0  0  0  0  0  0  0  0  0  0
   -4.8097    0.1913    9.9430 N   0  0  0  0  0  0  0  0  0  0  0  0
   -2.6603   -1.1886   10.7021 O   0  0  0  0  0  0  0  0  0  0  0  0
   -5.3550    1.0182   10.1866 H   0  0  0  0  0  0  0  0  0  0  0  0
   -5.4026   -0.6365   10.0018 H   0  0  0  0  0  0  0  0  0  0  0  0
    0.0646    5.3961   11.0445 S   0  0  0  0  0  0  0  0  0  0  0  0
    0.3007    6.0174   12.4669 O   0  0  0  0  0  0  0  0  0  0  0  0
   -0.8027    6.6036   10.5852 O   0  0  0  0  0  0  0  0  0  0  0  0
    1.7022    5.4709   10.1723 C   0  0  0  0  0  0  0  0  0  0  0  0
    2.8860    5.1761   11.1206 C   0  0  0  0  0  0  0  0  0  0  0  0
    2.6624    4.0844   11.9822 O   0  0  0  0  0  0  0  0  0  0  0  0
    1.9064    4.2769   12.5586 H   0  0  0  0  0  0  0  0  0  0  0  0
   -2.9568    5.2713   12.2759 N   0  0  0  0  0  0  0  0  0  0  0  0
   -3.2688    5.9190   11.6034 H   0  0  0  0  0  0  0  0  0  0  0  0
   -3.0964    5.6937   13.6696 C   0  0  0  0  0  0  0  0  0  0  0  0
   -3.9676    4.7587   14.4346 C   0  0  0  0  0  0  0  0  0  0  0  0
   -5.3392    5.0190   14.5333 C   0  0  0  0  0  0  0  0  0  0  0  0
   -6.1685    4.1502   15.2487 C   0  0  0  0  0  0  0  0  0  0  0  0
   -5.6292    3.0186   15.8674 C   0  0  0  0  0  0  0  0  0  0  0  0
   -4.2575    2.7564   15.7701 C   0  0  0  0  0  0  0  0  0  0  0  0
   -3.4276    3.6262   15.0543 C   0  0  0  0  0  0  0  0  0  0  0  0
 11 10  2  0  0  0
 10 12  1  0  0  0
 10  3  1  0  0  0
 10 13  2  0  0  0
 31 30  2  0  0  0
 31 26  1  0  0  0
  1  2  1  0  0  0
 30 29  1  0  0  0
 25 26  1  0  0  0
 25 23  1  0  0  0
  3  2  2  0  0  0
  3  4  1  0  0  0
  2  8  1  0  0  0
 26 27  2  0  0  0
  4  5  1  0  0  0
  4  6  2  0  0  0
  8 23  1  0  0  0
  8  9  2  0  0  0
 18 16  2  0  0  0
 29 28  2  0  0  0
  6  9  1  0  0  0
  6  7  1  0  0  0
  9 16  1  0  0  0
 17 16  2  0  0  0
 27 28  1  0  0  0
 16 19  1  0  0  0
 19 20  1  0  0  0
 21 20  1  0  0  0
 12 14  1  0  0  0
 12 15  1  0  0  0
 21 22  1  0  0  0
 23 24  1  0  0  0
M  END
> <minimizedAffinity>
-7.60272

$$$$
4QTL_WWO_A_304


 31 32  0  0  0  0  0  0  0  0999 V2000
   -6.0072    4.6709   15.1497 F   0  0  0  0  0  0  0  0  0  0  0  0
   -5.3712    3.5550   14.6947 C   0  0  0  0  0  0  0  0  0  0  0  0
   -5.4282    2.3438   15.4501 C   0  0  0  0  0  0  0  0  0  0  0  0
   -4.7866    1.2201   14.9653 C   0  0  0  0  0  0  0  0  0  0  0  0
   -4.8228    0.0619   15.6647 F   0  0  0  0  0  0  0  0  0  0  0  0
   -4.1453    1.2534   13.7445 C   0  0  0  0  0  0  0  0  0  0  0  0
   -3.5716    0.0817   13.3556 F   0  0  0  0  0  0  0  0  0  0  0  0
   -4.6617    3.6276   13.4610 C   0  0  0  0  0  0  0  0  0  0  0  0
   -4.0550    2.4155   12.9917 C   0  0  0  0  0  0  0  0  0  0  0  0
   -6.1922    2.1536   17.0834 S   0  0  0  0  0  0  0  0  0  0  0  0
   -6.8048    3.5676   17.3698 O   0  0  0  0  0  0  0  0  0  0  0  0
   -7.4745    0.9883   16.8908 N   0  0  0  0  0  0  0  0  0  0  0  0
   -5.3217    1.7728   18.2511 O   0  0  0  0  0  0  0  0  0  0  0  0
   -8.0590    1.2537   16.0982 H   0  0  0  0  0  0  0  0  0  0  0  0
   -8.0416    0.9637   17.7383 H   0  0  0  0  0  0  0  0  0  0  0  0
   -3.1484    2.1806   11.4214 S   0  0  0  0  0  0  0  0  0  0  0  0
   -2.1316    3.3591   11.2156 O   0  0  0  0  0  0  0  0  0  0  0  0
   -4.1105    2.7281   10.3278 O   0  0  0  0  0  0  0  0  0  0  0  0
   -2.3091    0.6575   10.7703 C   0  0  0  0  0  0  0  0  0  0  0  0
   -3.3188   -0.4219   10.3201 C   0  0  0  0  0  0  0  0  0  0  0  0
   -4.5170    0.1059    9.8004 O   0  0  0  0  0  0  0  0  0  0  0  0
   -4.9700    0.6180   10.4885 H   0  0  0  0  0  0  0  0  0  0  0  0
   -4.6322    4.8195   12.6442 N   0  0  0  0  0  0  0  0  0  0  0  0
   -5.3293    4.8760   11.9513 H   0  0  0  0  0  0  0  0  0  0  0  0
   -3.7102    5.9538   12.7040 C   0  0  0  0  0  0  0  0  0  0  0  0
   -4.1769    7.0775   11.8450 C   0  0  0  0  0  0  0  0  0  0  0  0
   -3.2596    8.0418   11.4122 C   0  0  0  0  0  0  0  0  0  0  0  0
   -3.6840    9.1021   10.6061 C   0  0  0  0  0  0  0  0  0  0  0  0
   -5.0267    9.2015   10.2300 C   0  0  0  0  0  0  0  0  0  0  0  0
   -5.9461    8.2383   10.6619 C   0  0  0  0  0  0  0  0  0  0  0  0
   -5.5211    7.1772   11.4689 C   0  0  0  0  0  0  0  0  0  0  0  0
 11 10  2  0  0  0
 10 12  1  0  0  0
 10  3  1  0  0  0
 10 13  2  0  0  0
 31 30  2  0  0  0
 31 26  1  0  0  0
  1  2  1  0  0  0
 30 29  1  0  0  0
 25 26  1  0  0  0
 25 23  1  0  0  0
  3  2  2  0  0  0
  3  4  1  0  0  0
  2  8  1  0  0  0
 26 27  2  0  0  0
  4  5  1  0  0  0
  4  6  2  0  0  0
  8 23  1  0  0  0
  8  9  2  0  0  0
 18 16  2  0  0  0
 29 28  2  0  0  0
  6  9  1  0  0  0
  6  7  1  0  0  0
  9 16  1  0  0  0
 17 16  2  0  0  0
 27 28  1  0  0  0
 16 19  1  0  0  0
 19 20  1  0  0  0
 21 20  1  0  0  0
 12 14  1  0  0  0
 12 15  1  0  0  0
 21 22  1  0  0  0
 23 24  1  0  0  0
M  END
> <minimizedAffinity>
-7.35525

$$$$
4QTL_WWO_A_304


 31 32  0  0  0  0  0  0  0  0999 V2000
   -0.9916    6.6008   12.6954 F   0  0  0  0  0  0  0  0  0  0  0  0
   -1.0877    5.3827   12.0923 C   0  0  0  0  0  0  0  0  0  0  0  0
    0.0503    4.8193   11.4379 C   0  0  0  0  0  0  0  0  0  0  0  0
   -0.0647    3.5775   10.8428 C   0  0  0  0  0  0  0  0  0  0  0  0
    0.9982    3.0245   10.2133 F   0  0  0  0  0  0  0  0  0  0  0  0
   -1.2457    2.8696   10.9251 C   0  0  0  0  0  0  0  0  0  0  0  0
   -1.2353    1.6474   10.3256 F   0  0  0  0  0  0  0  0  0  0  0  0
   -2.3351    4.6951   12.1352 C   0  0  0  0  0  0  0  0  0  0  0  0
   -2.3761    3.3919   11.5374 C   0  0  0  0  0  0  0  0  0  0  0  0
    1.6508    5.6403   11.2106 S   0  0  0  0  0  0  0  0  0  0  0  0
    1.9762    5.3993    9.6965 O   0  0  0  0  0  0  0  0  0  0  0  0
    1.3726    7.3392   11.4862 N   0  0  0  0  0  0  0  0  0  0  0  0
    2.8276    5.1728   12.0249 O   0  0  0  0  0  0  0  0  0  0  0  0
    0.5743    7.6474   10.9311 H   0  0  0  0  0  0  0  0  0  0  0  0
    2.2009    7.8681   11.2133 H   0  0  0  0  0  0  0  0  0  0  0  0
   -3.8015    2.2475   11.5006 S   0  0  0  0  0  0  0  0  0  0  0  0
   -4.4042    2.1991   10.0516 O   0  0  0  0  0  0  0  0  0  0  0  0
   -4.9933    3.0884   12.0426 O   0  0  0  0  0  0  0  0  0  0  0  0
   -3.9348    0.5210   12.1710 C   0  0  0  0  0  0  0  0  0  0  0  0
   -3.2209   -0.5139   11.2728 C   0  0  0  0  0  0  0  0  0  0  0  0
   -3.4198   -0.2999    9.8948 O   0  0  0  0  0  0  0  0  0  0  0  0
   -4.3641   -0.3806    9.6881 H   0  0  0  0  0  0  0  0  0  0  0  0
   -3.4887    5.2098   12.8375 N   0  0  0  0  0  0  0  0  0  0  0  0
   -4.2689    5.4193   12.2748 H   0  0  0  0  0  0  0  0  0  0  0  0
   -3.6579    5.4627   14.2685 C   0  0  0  0  0  0  0  0  0  0  0  0
   -4.3587    4.3326   14.9394 C   0  0  0  0  0  0  0  0  0  0  0  0
   -5.7348    4.4194   15.1791 C   0  0  0  0  0  0  0  0  0  0  0  0
   -6.4052    3.3664   15.8085 C   0  0  0  0  0  0  0  0  0  0  0  0
   -5.7019    2.2234   16.1999 C   0  0  0  0  0  0  0  0  0  0  0  0
   -4.3254    2.1344   15.9613 C   0  0  0  0  0  0  0  0  0  0  0  0
   -3.6546    3.1887   15.3316 C   0  0  0  0  0  0  0  0  0  0  0  0
 11 10  2  0  0  0
 10 12  1  0  0  0
 10  3  1  0  0  0
 10 13  2  0  0  0
 31 30  2  0  0  0
 31 26  1  0  0  0
  1  2  1  0  0  0
 30 29  1  0  0  0
 25 26  1  0  0  0
 25 23  1  0  0  0
  3  2  2  0  0  0
  3  4  1  0  0  0
  2  8  1  0  0  0
 26 27  2  0  0  0
  4  5  1  0  0  0
  4  6  2  0  0  0
  8 23  1  0  0  0
  8  9  2  0  0  0
 18 16  2  0  0  0
 29 28  2  0  0  0
  6  9  1  0  0  0
  6  7  1  0  0  0
  9 16  1  0  0  0
 17 16  2  0  0  0
 27 28  1  0  0  0
 16 19  1  0  0  0
 19 20  1  0  0  0
 21 20  1  0  0  0
 12 14  1  0  0  0
 12 15  1  0  0  0
 21 22  1  0  0  0
 23 24  1  0  0  0
M  END
> <minimizedAffinity>
-6.96807

$$$$
4QTL_WWO_A_304


 31 32  0  0  0  0  0  0  0  0999 V2000
   -5.6667    6.6164   11.7289 F   0  0  0  0  0  0  0  0  0  0  0  0
   -4.7387    6.0267   10.9240 C   0  0  0  0  0  0  0  0  0  0  0  0
   -4.7166    6.3213    9.5264 C   0  0  0  0  0  0  0  0  0  0  0  0
   -3.7599    5.7221    8.7295 C   0  0  0  0  0  0  0  0  0  0  0  0
   -3.7211    5.9822    7.4019 F   0  0  0  0  0  0  0  0  0  0  0  0
   -2.8074    4.8929    9.2846 C   0  0  0  0  0  0  0  0  0  0  0  0
   -1.8997    4.3804    8.4090 F   0  0  0  0  0  0  0  0  0  0  0  0
   -3.8023    5.1246   11.5073 C   0  0  0  0  0  0  0  0  0  0  0  0
   -2.8081    4.5707   10.6343 C   0  0  0  0  0  0  0  0  0  0  0  0
   -5.9205    7.3525    8.6461 S   0  0  0  0  0  0  0  0  0  0  0  0
   -5.0418    8.4865    8.0151 O   0  0  0  0  0  0  0  0  0  0  0  0
   -6.5861    6.3551    7.3805 N   0  0  0  0  0  0  0  0  0  0  0  0
   -7.0315    7.9991    9.4297 O   0  0  0  0  0  0  0  0  0  0  0  0
   -5.8272    5.9211    6.8550 H   0  0  0  0  0  0  0  0  0  0  0  0
   -7.1478    6.9311    6.7536 H   0  0  0  0  0  0  0  0  0  0  0  0
   -1.4405    3.4508   11.1018 S   0  0  0  0  0  0  0  0  0  0  0  0
   -1.2533    3.4657   12.6606 O   0  0  0  0  0  0  0  0  0  0  0  0
   -0.1505    4.2894   10.8696 O   0  0  0  0  0  0  0  0  0  0  0  0
   -1.1219    1.7029   10.5623 C   0  0  0  0  0  0  0  0  0  0  0  0
   -2.2125    0.7275   11.0588 C   0  0  0  0  0  0  0  0  0  0  0  0
   -2.8931    1.1769   12.2073 O   0  0  0  0  0  0  0  0  0  0  0  0
   -2.2655    1.2642   12.9417 H   0  0  0  0  0  0  0  0  0  0  0  0
   -3.7601    4.8489   12.9254 N   0  0  0  0  0  0  0  0  0  0  0  0
   -2.9558    4.3776   13.2419 H   0  0  0  0  0  0  0  0  0  0  0  0
   -4.7466    5.1732   13.9558 C   0  0  0  0  0  0  0  0  0  0  0  0
   -4.9580    4.0272   14.8836 C   0  0  0  0  0  0  0  0  0  0  0  0
   -3.9171    3.1181   15.1048 C   0  0  0  0  0  0  0  0  0  0  0  0
   -4.1018    2.0377   15.9725 C   0  0  0  0  0  0  0  0  0  0  0  0
   -5.3275    1.8630   16.6217 C   0  0  0  0  0  0  0  0  0  0  0  0
   -6.3700    2.7709   16.4017 C   0  0  0  0  0  0  0  0  0  0  0  0
   -6.1850    3.8521   15.5330 C   0  0  0  0  0  0  0  0  0  0  0  0
 11 10  2  0  0  0
 10 12  1  0  0  0
 10  3  1  0  0  0
 10 13  2  0  0  0
 31 30  2  0  0  0
 31 26  1  0  0  0
  1  2  1  0  0  0
 30 29  1  0  0  0
 25 26  1  0  0  0
 25 23  1  0  0  0
  3  2  2  0  0  0
  3  4  1  0  0  0
  2  8  1  0  0  0
 26 27  2  0  0  0
  4  5  1  0  0  0
  4  6  2  0  0  0
  8 23  1  0  0  0
  8  9  2  0  0  0
 18 16  2  0  0  0
 29 28  2  0  0  0
  6  9  1  0  0  0
  6  7  1  0  0  0
  9 16  1  0  0  0
 17 16  2  0  0  0
 27 28  1  0  0  0
 16 19  1  0  0  0
 19 20  1  0  0  0
 21 20  1  0  0  0
 12 14  1  0  0  0
 12 15  1  0  0  0
 21 22  1  0  0  0
 23 24  1  0  0  0
M  END
> <minimizedAffinity>
-6.93392

$$$$
4QTL_WWO_A_304


 31 32  0  0  0  0  0  0  0  0999 V2000
   -2.9728    4.5732   13.1927 F   0  0  0  0  0  0  0  0  0  0  0  0
   -2.2215    3.8423   12.3220 C   0  0  0  0  0  0  0  0  0  0  0  0
   -2.7120    2.5936   11.8310 C   0  0  0  0  0  0  0  0  0  0  0  0
   -1.9399    1.8736   10.9395 C   0  0  0  0  0  0  0  0  0  0  0  0
   -2.3812    0.6860   10.4632 F   0  0  0  0  0  0  0  0  0  0  0  0
   -0.7374    2.3782   10.4899 C   0  0  0  0  0  0  0  0  0  0  0  0
   -0.0758    1.5955    9.5938 F   0  0  0  0  0  0  0  0  0  0  0  0
   -0.9537    4.3524   11.9180 C   0  0  0  0  0  0  0  0  0  0  0  0
   -0.2217    3.5786   10.9574 C   0  0  0  0  0  0  0  0  0  0  0  0
   -4.2458    1.7821   12.3566 S   0  0  0  0  0  0  0  0  0  0  0  0
   -4.7186    2.6443   13.5772 O   0  0  0  0  0  0  0  0  0  0  0  0
   -5.3725    1.9655   11.0390 N   0  0  0  0  0  0  0  0  0  0  0  0
   -4.1918    0.3416   12.7909 O   0  0  0  0  0  0  0  0  0  0  0  0
   -5.4028    2.9436   10.7512 H   0  0  0  0  0  0  0  0  0  0  0  0
   -6.3010    1.6714   11.3421 H   0  0  0  0  0  0  0  0  0  0  0  0
    1.3862    4.0081   10.2004 S   0  0  0  0  0  0  0  0  0  0  0  0
    2.4804    4.1371   11.3190 O   0  0  0  0  0  0  0  0  0  0  0  0
    1.3212    5.5484    9.9898 O   0  0  0  0  0  0  0  0  0  0  0  0
    2.2342    3.2405    8.7376 C   0  0  0  0  0  0  0  0  0  0  0  0
    1.6484    3.7323    7.3951 C   0  0  0  0  0  0  0  0  0  0  0  0
    1.8731    2.8479    6.3219 O   0  0  0  0  0  0  0  0  0  0  0  0
    2.8272    2.7555    6.1735 H   0  0  0  0  0  0  0  0  0  0  0  0
   -0.4534    5.6376   12.3501 N   0  0  0  0  0  0  0  0  0  0  0  0
    0.3472    5.6103   12.9224 H   0  0  0  0  0  0  0  0  0  0  0  0
   -0.9715    6.9735   12.0550 C   0  0  0  0  0  0  0  0  0  0  0  0
   -0.8493    7.8749   13.2345 C   0  0  0  0  0  0  0  0  0  0  0  0
   -1.7157    7.7098   14.3212 C   0  0  0  0  0  0  0  0  0  0  0  0
   -1.6127    8.5491   15.4344 C   0  0  0  0  0  0  0  0  0  0  0  0
   -0.6431    9.5557   15.4647 C   0  0  0  0  0  0  0  0  0  0  0  0
    0.2244    9.7228   14.3789 C   0  0  0  0  0  0  0  0  0  0  0  0
    0.1209    8.8828   13.2646 C   0  0  0  0  0  0  0  0  0  0  0  0
 11 10  2  0  0  0
 10 12  1  0  0  0
 10  3  1  0  0  0
 10 13  2  0  0  0
 31 30  2  0  0  0
 31 26  1  0  0  0
  1  2  1  0  0  0
 30 29  1  0  0  0
 25 26  1  0  0  0
 25 23  1  0  0  0
  3  2  2  0  0  0
  3  4  1  0  0  0
  2  8  1  0  0  0
 26 27  2  0  0  0
  4  5  1  0  0  0
  4  6  2  0  0  0
  8 23  1  0  0  0
  8  9  2  0  0  0
 18 16  2  0  0  0
 29 28  2  0  0  0
  6  9  1  0  0  0
  6  7  1  0  0  0
  9 16  1  0  0  0
 17 16  2  0  0  0
 27 28  1  0  0  0
 16 19  1  0  0  0
 19 20  1  0  0  0
 21 20  1  0  0  0
 12 14  1  0  0  0
 12 15  1  0  0  0
 21 22  1  0  0  0
 23 24  1  0  0  0
M  END
> <minimizedAffinity>
-6.92325

$$$$
