4NKT_2KH_A_401


 37 38  0  0  0  0  0  0  0  0999 V2000
   62.2530   17.3687   92.3586 C   0  0  0  0  0  0  0  0  0  0  0  0
   62.4427   17.2958   90.9050 C   0  0  0  0  0  0  0  0  0  0  0  0
   62.0209   18.5059   90.2564 O   0  0  0  0  0  0  0  0  0  0  0  0
   62.9402   18.7820   89.2224 C   0  0  0  0  0  0  0  0  0  0  0  0
   63.8652   17.6395   89.2122 C   0  0  0  0  0  0  0  0  0  0  0  0
   63.4198   16.6029   88.3759 O   0  0  0  0  0  0  0  0  0  0  0  0
   63.8464   17.1889   90.5917 C   0  0  0  0  0  0  0  0  0  0  0  0
   64.3222   15.8660   90.7690 O   0  0  0  0  0  0  0  0  0  0  0  0
   62.5397   16.3122   88.6619 H   0  0  0  0  0  0  0  0  0  0  0  0
   63.7931   15.2571   90.2302 H   0  0  0  0  0  0  0  0  0  0  0  0
   63.6333   20.0156   89.4487 N   0  0  0  0  0  0  0  0  0  0  0  0
   63.9681   20.4115   90.7163 C   0  0  0  0  0  0  0  0  0  0  0  0
   63.9833   20.8008   88.3790 C   0  0  0  0  0  0  0  0  0  0  0  0
   63.6703   20.4248   87.1850 O   0  0  0  0  0  0  0  0  0  0  0  0
   64.6445   21.9565   88.5539 N   0  0  0  0  0  0  0  0  0  0  0  0
   64.9961   22.3861   89.7779 C   0  0  0  0  0  0  0  0  0  0  0  0
   65.6884   23.5698   89.9489 O   0  0  0  0  0  0  0  0  0  0  0  0
   64.6563   21.6051   90.9255 C   0  0  0  0  0  0  0  0  0  0  0  0
   64.8769   22.5014   87.7677 H   0  0  0  0  0  0  0  0  0  0  0  0
   60.9118   17.3050   92.8255 O   0  0  0  0  0  0  0  0  0  0  0  0
   60.0862   18.6297   93.1501 P   0  0  0  0  0  0  0  0  0  0  0  0
   61.0372   19.5691   94.0167 O   0  0  0  0  0  0  0  0  0  0  0  0
   59.7516   19.3221   91.8626 O   0  0  0  0  0  0  0  0  0  0  0  0
   59.1724   18.7540   91.3310 H   0  0  0  0  0  0  0  0  0  0  0  0
   58.7124   18.2833   94.0168 N   0  0  0  0  0  0  0  0  0  0  0  0
   58.5982   19.0064   94.7271 H   0  0  0  0  0  0  0  0  0  0  0  0
   58.7027   16.8205   94.7752 P   0  0  0  0  0  0  0  0  0  0  0  0
   59.9715   16.6455   95.7064 O   0  0  0  0  0  0  0  0  0  0  0  0
   57.4877   16.8632   95.6348 O   0  0  0  0  0  0  0  0  0  0  0  0
   60.0750   17.4330   96.2631 H   0  0  0  0  0  0  0  0  0  0  0  0
   58.4847   15.5338   93.8258 O   0  0  0  0  0  0  0  0  0  0  0  0
   59.2913   14.1832   93.8987 P   0  0  0  0  0  0  0  0  0  0  0  0
   59.0168   13.4530   92.6951 O   0  0  0  0  0  0  0  0  0  0  0  0
   58.9189   13.3429   95.0767 O   0  0  0  0  0  0  0  0  0  0  0  0
   60.7675   14.4479   93.9759 O   0  0  0  0  0  0  0  0  0  0  0  0
   58.0650   13.2760   92.6343 H   0  0  0  0  0  0  0  0  0  0  0  0
   60.9654   14.9419   94.7869 H   0  0  0  0  0  0  0  0  0  0  0  0
  6  5  1  0  0  0
  8  7  1  0  0  0
  5  7  1  0  0  0
  5  4  1  0  0  0
 14 13  2  0  0  0
  7  2  1  0  0  0
  4 11  1  0  0  0
  4  3  1  0  0  0
 13 11  1  0  0  0
 13 15  1  0  0  0
  2  3  1  0  0  0
  2  1  1  0  0  0
 11 12  1  0  0  0
 15 16  1  0  0  0
  1 20  1  0  0  0
 12 18  2  0  0  0
 16 18  1  0  0  0
 16 17  2  0  0  0
 29 27  2  0  0  0
 20 21  1  0  0  0
 25 27  1  0  0  0
 25 21  1  0  0  0
 27 28  1  0  0  0
 27 31  1  0  0  0
 21 22  2  0  0  0
 21 23  1  0  0  0
 31 32  1  0  0  0
 32 34  2  0  0  0
 32 33  1  0  0  0
 32 35  1  0  0  0
 23 24  1  0  0  0
 25 26  1  0  0  0
 28 30  1  0  0  0
 33 36  1  0  0  0
 35 37  1  0  0  0
  6  9  1  0  0  0
  8 10  1  0  0  0
 15 19  1  0  0  0
M  END
> <minimizedAffinity>
-9.30029

$$$$
4NKT_2KH_A_401


 37 38  0  0  0  0  0  0  0  0999 V2000
   61.4285   16.5120   92.8670 C   0  0  0  0  0  0  0  0  0  0  0  0
   61.9770   17.8253   93.2260 C   0  0  0  0  0  0  0  0  0  0  0  0
   63.2540   18.0506   92.6082 O   0  0  0  0  0  0  0  0  0  0  0  0
   63.3039   19.4018   92.2056 C   0  0  0  0  0  0  0  0  0  0  0  0
   62.0533   19.9981   92.6971 C   0  0  0  0  0  0  0  0  0  0  0  0
   62.1834   20.5067   93.9997 O   0  0  0  0  0  0  0  0  0  0  0  0
   61.1348   18.8745   92.7068 C   0  0  0  0  0  0  0  0  0  0  0  0
   59.9909   19.0763   93.5184 O   0  0  0  0  0  0  0  0  0  0  0  0
   62.4676   19.7971   94.5969 H   0  0  0  0  0  0  0  0  0  0  0  0
   60.2693   19.2651   94.4282 H   0  0  0  0  0  0  0  0  0  0  0  0
   63.4189   19.5239   90.7825 N   0  0  0  0  0  0  0  0  0  0  0  0
   63.0843   18.4827   89.9583 C   0  0  0  0  0  0  0  0  0  0  0  0
   63.8516   20.7070   90.2380 C   0  0  0  0  0  0  0  0  0  0  0  0
   64.1632   21.6884   91.0156 O   0  0  0  0  0  0  0  0  0  0  0  0
   63.9590   20.8602   88.9082 N   0  0  0  0  0  0  0  0  0  0  0  0
   63.6410   19.8683   88.0590 C   0  0  0  0  0  0  0  0  0  0  0  0
   63.7411   20.0379   86.6913 O   0  0  0  0  0  0  0  0  0  0  0  0
   63.1842   18.6160   88.5747 C   0  0  0  0  0  0  0  0  0  0  0  0
   64.2779   21.7188   88.5471 H   0  0  0  0  0  0  0  0  0  0  0  0
   60.0551   16.2973   93.1648 O   0  0  0  0  0  0  0  0  0  0  0  0
   59.5422   14.9000   93.7359 P   0  0  0  0  0  0  0  0  0  0  0  0
   58.7103   14.1996   92.5717 O   0  0  0  0  0  0  0  0  0  0  0  0
   60.7287   14.0475   94.0740 O   0  0  0  0  0  0  0  0  0  0  0  0
   61.2388   14.4698   94.7827 H   0  0  0  0  0  0  0  0  0  0  0  0
   58.5645   15.1159   95.0611 N   0  0  0  0  0  0  0  0  0  0  0  0
   57.6474   14.7269   94.8418 H   0  0  0  0  0  0  0  0  0  0  0  0
   58.3523   16.6786   95.5385 P   0  0  0  0  0  0  0  0  0  0  0  0
   57.6551   17.5378   94.4058 O   0  0  0  0  0  0  0  0  0  0  0  0
   57.4238   16.5829   96.6985 O   0  0  0  0  0  0  0  0  0  0  0  0
   56.8751   17.0652   94.0755 H   0  0  0  0  0  0  0  0  0  0  0  0
   59.6596   17.4223   96.1237 O   0  0  0  0  0  0  0  0  0  0  0  0
   60.7216   16.7933   97.1016 P   0  0  0  0  0  0  0  0  0  0  0  0
   60.0013   16.1351   98.1528 O   0  0  0  0  0  0  0  0  0  0  0  0
   61.6399   17.8093   97.6991 O   0  0  0  0  0  0  0  0  0  0  0  0
   61.5673   15.7782   96.3878 O   0  0  0  0  0  0  0  0  0  0  0  0
   59.4508   16.7817   98.6216 H   0  0  0  0  0  0  0  0  0  0  0  0
   62.0598   16.2122   95.6737 H   0  0  0  0  0  0  0  0  0  0  0  0
  6  5  1  0  0  0
  8  7  1  0  0  0
  5  7  1  0  0  0
  5  4  1  0  0  0
 14 13  2  0  0  0
  7  2  1  0  0  0
  4 11  1  0  0  0
  4  3  1  0  0  0
 13 11  1  0  0  0
 13 15  1  0  0  0
  2  3  1  0  0  0
  2  1  1  0  0  0
 11 12  1  0  0  0
 15 16  1  0  0  0
  1 20  1  0  0  0
 12 18  2  0  0  0
 16 18  1  0  0  0
 16 17  2  0  0  0
 29 27  2  0  0  0
 20 21  1  0  0  0
 25 27  1  0  0  0
 25 21  1  0  0  0
 27 28  1  0  0  0
 27 31  1  0  0  0
 21 22  2  0  0  0
 21 23  1  0  0  0
 31 32  1  0  0  0
 32 34  2  0  0  0
 32 33  1  0  0  0
 32 35  1  0  0  0
 23 24  1  0  0  0
 25 26  1  0  0  0
 28 30  1  0  0  0
 33 36  1  0  0  0
 35 37  1  0  0  0
  6  9  1  0  0  0
  8 10  1  0  0  0
 15 19  1  0  0  0
M  END
> <minimizedAffinity>
-9.17777

$$$$
4NKT_2KH_A_401


 37 38  0  0  0  0  0  0  0  0999 V2000
   63.0660   21.4698   92.4582 C   0  0  0  0  0  0  0  0  0  0  0  0
   63.5481   22.1947   91.2766 C   0  0  0  0  0  0  0  0  0  0  0  0
   64.3002   23.3620   91.6439 O   0  0  0  0  0  0  0  0  0  0  0  0
   65.3878   23.4707   90.7518 C   0  0  0  0  0  0  0  0  0  0  0  0
   65.1986   22.3860   89.7778 C   0  0  0  0  0  0  0  0  0  0  0  0
   64.4158   22.7861   88.6826 O   0  0  0  0  0  0  0  0  0  0  0  0
   64.4832   21.3798   90.5408 C   0  0  0  0  0  0  0  0  0  0  0  0
   63.8202   20.4171   89.7398 O   0  0  0  0  0  0  0  0  0  0  0  0
   63.5540   23.0997   88.9985 H   0  0  0  0  0  0  0  0  0  0  0  0
   63.1981   20.8645   89.1451 H   0  0  0  0  0  0  0  0  0  0  0  0
   66.6425   23.3503   91.4332 N   0  0  0  0  0  0  0  0  0  0  0  0
   66.7491   22.6188   92.5860 C   0  0  0  0  0  0  0  0  0  0  0  0
   67.7561   23.9603   90.9125 C   0  0  0  0  0  0  0  0  0  0  0  0
   67.6549   24.6464   89.8243 O   0  0  0  0  0  0  0  0  0  0  0  0
   68.9503   23.8576   91.5181 N   0  0  0  0  0  0  0  0  0  0  0  0
   69.1052   23.1498   92.6500 C   0  0  0  0  0  0  0  0  0  0  0  0
   70.3399   23.0373   93.2601 O   0  0  0  0  0  0  0  0  0  0  0  0
   67.9770   22.4941   93.2332 C   0  0  0  0  0  0  0  0  0  0  0  0
   69.7301   24.3113   91.1239 H   0  0  0  0  0  0  0  0  0  0  0  0
   64.0058   20.6249   93.1091 O   0  0  0  0  0  0  0  0  0  0  0  0
   63.6641   19.1008   93.4286 P   0  0  0  0  0  0  0  0  0  0  0  0
   64.7121   18.6095   94.5232 O   0  0  0  0  0  0  0  0  0  0  0  0
   62.2807   19.0223   94.0021 O   0  0  0  0  0  0  0  0  0  0  0  0
   61.6385   19.3205   93.3391 H   0  0  0  0  0  0  0  0  0  0  0  0
   63.8017   18.1571   92.0688 N   0  0  0  0  0  0  0  0  0  0  0  0
   64.2058   18.7301   91.3281 H   0  0  0  0  0  0  0  0  0  0  0  0
   62.3919   17.5176   91.5041 P   0  0  0  0  0  0  0  0  0  0  0  0
   61.5993   16.7668   92.6510 O   0  0  0  0  0  0  0  0  0  0  0  0
   61.5980   18.7032   91.0789 O   0  0  0  0  0  0  0  0  0  0  0  0
   61.5455   17.3373   93.4337 H   0  0  0  0  0  0  0  0  0  0  0  0
   62.5103   16.6091   90.1756 O   0  0  0  0  0  0  0  0  0  0  0  0
   63.2435   17.0123   88.8416 P   0  0  0  0  0  0  0  0  0  0  0  0
   62.5388   18.1304   88.2846 O   0  0  0  0  0  0  0  0  0  0  0  0
   63.2794   15.9067   87.8371 O   0  0  0  0  0  0  0  0  0  0  0  0
   64.6612   17.4244   89.1166 O   0  0  0  0  0  0  0  0  0  0  0  0
   61.6207   17.8758   88.1026 H   0  0  0  0  0  0  0  0  0  0  0  0
   65.1483   16.6753   89.4940 H   0  0  0  0  0  0  0  0  0  0  0  0
  6  5  1  0  0  0
  8  7  1  0  0  0
  5  7  1  0  0  0
  5  4  1  0  0  0
 14 13  2  0  0  0
  7  2  1  0  0  0
  4 11  1  0  0  0
  4  3  1  0  0  0
 13 11  1  0  0  0
 13 15  1  0  0  0
  2  3  1  0  0  0
  2  1  1  0  0  0
 11 12  1  0  0  0
 15 16  1  0  0  0
  1 20  1  0  0  0
 12 18  2  0  0  0
 16 18  1  0  0  0
 16 17  2  0  0  0
 29 27  2  0  0  0
 20 21  1  0  0  0
 25 27  1  0  0  0
 25 21  1  0  0  0
 27 28  1  0  0  0
 27 31  1  0  0  0
 21 22  2  0  0  0
 21 23  1  0  0  0
 31 32  1  0  0  0
 32 34  2  0  0  0
 32 33  1  0  0  0
 32 35  1  0  0  0
 23 24  1  0  0  0
 25 26  1  0  0  0
 28 30  1  0  0  0
 33 36  1  0  0  0
 35 37  1  0  0  0
  6  9  1  0  0  0
  8 10  1  0  0  0
 15 19  1  0  0  0
M  END
> <minimizedAffinity>
-9.10657

$$$$
4NKT_2KH_A_401


 37 38  0  0  0  0  0  0  0  0999 V2000
   62.5144   17.8842   92.7984 C   0  0  0  0  0  0  0  0  0  0  0  0
   62.4243   17.7738   91.3376 C   0  0  0  0  0  0  0  0  0  0  0  0
   62.0380   19.0201   90.7370 O   0  0  0  0  0  0  0  0  0  0  0  0
   62.7783   19.1704   89.5454 C   0  0  0  0  0  0  0  0  0  0  0  0
   63.5429   17.9227   89.4054 C   0  0  0  0  0  0  0  0  0  0  0  0
   62.8315   16.9404   88.6973 O   0  0  0  0  0  0  0  0  0  0  0  0
   63.7238   17.4918   90.7794 C   0  0  0  0  0  0  0  0  0  0  0  0
   64.0630   16.1222   90.9106 O   0  0  0  0  0  0  0  0  0  0  0  0
   61.9905   16.7632   89.1470 H   0  0  0  0  0  0  0  0  0  0  0  0
   63.3754   15.5777   90.4963 H   0  0  0  0  0  0  0  0  0  0  0  0
   63.6432   20.3115   89.6027 N   0  0  0  0  0  0  0  0  0  0  0  0
   64.1114   20.7792   90.8016 C   0  0  0  0  0  0  0  0  0  0  0  0
   64.0226   20.9315   88.4387 C   0  0  0  0  0  0  0  0  0  0  0  0
   63.5834   20.4877   87.3095 O   0  0  0  0  0  0  0  0  0  0  0  0
   64.8421   21.9953   88.4548 N   0  0  0  0  0  0  0  0  0  0  0  0
   65.3286   22.4897   89.6060 C   0  0  0  0  0  0  0  0  0  0  0  0
   66.1822   23.5763   89.6137 O   0  0  0  0  0  0  0  0  0  0  0  0
   64.9649   21.8800   90.8464 C   0  0  0  0  0  0  0  0  0  0  0  0
   65.0921   22.4228   87.6039 H   0  0  0  0  0  0  0  0  0  0  0  0
   61.6139   18.7910   93.4210 O   0  0  0  0  0  0  0  0  0  0  0  0
   60.0462   18.5036   93.4587 P   0  0  0  0  0  0  0  0  0  0  0  0
   59.4510   19.3343   94.6809 O   0  0  0  0  0  0  0  0  0  0  0  0
   59.4304   18.9960   92.1831 O   0  0  0  0  0  0  0  0  0  0  0  0
   59.7896   18.4931   91.4355 H   0  0  0  0  0  0  0  0  0  0  0  0
   59.7376   16.8875   93.6863 N   0  0  0  0  0  0  0  0  0  0  0  0
   59.3613   16.5137   92.8151 H   0  0  0  0  0  0  0  0  0  0  0  0
   58.6734   16.5321   94.8931 P   0  0  0  0  0  0  0  0  0  0  0  0
   57.4005   17.4722   94.8345 O   0  0  0  0  0  0  0  0  0  0  0  0
   58.2443   15.1365   94.6017 O   0  0  0  0  0  0  0  0  0  0  0  0
   57.0539   17.4910   93.9288 H   0  0  0  0  0  0  0  0  0  0  0  0
   59.2907   16.4657   96.3827 O   0  0  0  0  0  0  0  0  0  0  0  0
   60.8208   16.5087   96.7527 P   0  0  0  0  0  0  0  0  0  0  0  0
   61.4693   15.4580   96.0228 O   0  0  0  0  0  0  0  0  0  0  0  0
   61.0746   16.3192   98.2129 O   0  0  0  0  0  0  0  0  0  0  0  0
   61.4292   17.8215   96.3508 O   0  0  0  0  0  0  0  0  0  0  0  0
   61.0841   14.6041   96.2744 H   0  0  0  0  0  0  0  0  0  0  0  0
   60.9980   18.5405   96.8386 H   0  0  0  0  0  0  0  0  0  0  0  0
  6  5  1  0  0  0
  8  7  1  0  0  0
  5  7  1  0  0  0
  5  4  1  0  0  0
 14 13  2  0  0  0
  7  2  1  0  0  0
  4 11  1  0  0  0
  4  3  1  0  0  0
 13 11  1  0  0  0
 13 15  1  0  0  0
  2  3  1  0  0  0
  2  1  1  0  0  0
 11 12  1  0  0  0
 15 16  1  0  0  0
  1 20  1  0  0  0
 12 18  2  0  0  0
 16 18  1  0  0  0
 16 17  2  0  0  0
 29 27  2  0  0  0
 20 21  1  0  0  0
 25 27  1  0  0  0
 25 21  1  0  0  0
 27 28  1  0  0  0
 27 31  1  0  0  0
 21 22  2  0  0  0
 21 23  1  0  0  0
 31 32  1  0  0  0
 32 34  2  0  0  0
 32 33  1  0  0  0
 32 35  1  0  0  0
 23 24  1  0  0  0
 25 26  1  0  0  0
 28 30  1  0  0  0
 33 36  1  0  0  0
 35 37  1  0  0  0
  6  9  1  0  0  0
  8 10  1  0  0  0
 15 19  1  0  0  0
M  END
> <minimizedAffinity>
-8.93327

$$$$
4NKT_2KH_A_401


 37 38  0  0  0  0  0  0  0  0999 V2000
   62.8568   20.7638   91.3848 C   0  0  0  0  0  0  0  0  0  0  0  0
   63.1859   21.8112   90.4106 C   0  0  0  0  0  0  0  0  0  0  0  0
   63.6869   22.9930   91.0553 O   0  0  0  0  0  0  0  0  0  0  0  0
   64.7323   23.5063   90.2590 C   0  0  0  0  0  0  0  0  0  0  0  0
   64.7675   22.6473   89.0666 C   0  0  0  0  0  0  0  0  0  0  0  0
   63.9227   23.1176   88.0480 O   0  0  0  0  0  0  0  0  0  0  0  0
   64.2675   21.3776   89.5610 C   0  0  0  0  0  0  0  0  0  0  0  0
   63.8136   20.5043   88.5416 O   0  0  0  0  0  0  0  0  0  0  0  0
   63.0147   23.1789   88.3837 H   0  0  0  0  0  0  0  0  0  0  0  0
   63.1155   20.9411   88.0288 H   0  0  0  0  0  0  0  0  0  0  0  0
   65.9841   23.4869   90.9561 N   0  0  0  0  0  0  0  0  0  0  0  0
   66.1607   22.6988   92.0620 C   0  0  0  0  0  0  0  0  0  0  0  0
   67.0256   24.2537   90.4973 C   0  0  0  0  0  0  0  0  0  0  0  0
   66.8588   24.9932   89.4531 O   0  0  0  0  0  0  0  0  0  0  0  0
   68.2161   24.2498   91.1187 N   0  0  0  0  0  0  0  0  0  0  0  0
   68.4382   23.4920   92.2062 C   0  0  0  0  0  0  0  0  0  0  0  0
   69.6700   23.4828   92.8322 O   0  0  0  0  0  0  0  0  0  0  0  0
   67.3867   22.6742   92.7242 C   0  0  0  0  0  0  0  0  0  0  0  0
   68.9428   24.8149   90.7696 H   0  0  0  0  0  0  0  0  0  0  0  0
   63.5216   19.5178   91.2227 O   0  0  0  0  0  0  0  0  0  0  0  0
   62.7031   18.1659   91.0122 P   0  0  0  0  0  0  0  0  0  0  0  0
   62.4625   18.0078   89.4454 O   0  0  0  0  0  0  0  0  0  0  0  0
   63.5307   17.0149   91.5014 O   0  0  0  0  0  0  0  0  0  0  0  0
   63.6801   17.1066   92.4554 H   0  0  0  0  0  0  0  0  0  0  0  0
   61.2385   18.2233   91.7934 N   0  0  0  0  0  0  0  0  0  0  0  0
   60.9981   19.2038   91.9390 H   0  0  0  0  0  0  0  0  0  0  0  0
   61.1845   17.4648   93.2553 P   0  0  0  0  0  0  0  0  0  0  0  0
   61.3508   15.8980   93.0982 O   0  0  0  0  0  0  0  0  0  0  0  0
   62.3689   17.9952   93.9853 O   0  0  0  0  0  0  0  0  0  0  0  0
   62.1128   15.7092   92.5284 H   0  0  0  0  0  0  0  0  0  0  0  0
   59.9269   17.8340   94.1969 O   0  0  0  0  0  0  0  0  0  0  0  0
   58.6827   16.9118   94.4819 P   0  0  0  0  0  0  0  0  0  0  0  0
   58.8325   16.3852   95.8076 O   0  0  0  0  0  0  0  0  0  0  0  0
   58.5616   15.7785   93.5158 O   0  0  0  0  0  0  0  0  0  0  0  0
   57.4078   17.7029   94.4188 O   0  0  0  0  0  0  0  0  0  0  0  0
   59.6537   15.8716   95.8606 H   0  0  0  0  0  0  0  0  0  0  0  0
   57.2955   18.0645   93.5257 H   0  0  0  0  0  0  0  0  0  0  0  0
  6  5  1  0  0  0
  8  7  1  0  0  0
  5  7  1  0  0  0
  5  4  1  0  0  0
 14 13  2  0  0  0
  7  2  1  0  0  0
  4 11  1  0  0  0
  4  3  1  0  0  0
 13 11  1  0  0  0
 13 15  1  0  0  0
  2  3  1  0  0  0
  2  1  1  0  0  0
 11 12  1  0  0  0
 15 16  1  0  0  0
  1 20  1  0  0  0
 12 18  2  0  0  0
 16 18  1  0  0  0
 16 17  2  0  0  0
 29 27  2  0  0  0
 20 21  1  0  0  0
 25 27  1  0  0  0
 25 21  1  0  0  0
 27 28  1  0  0  0
 27 31  1  0  0  0
 21 22  2  0  0  0
 21 23  1  0  0  0
 31 32  1  0  0  0
 32 34  2  0  0  0
 32 33  1  0  0  0
 32 35  1  0  0  0
 23 24  1  0  0  0
 25 26  1  0  0  0
 28 30  1  0  0  0
 33 36  1  0  0  0
 35 37  1  0  0  0
  6  9  1  0  0  0
  8 10  1  0  0  0
 15 19  1  0  0  0
M  END
> <minimizedAffinity>
-8.88329

$$$$
4NKT_2KH_A_401


 37 38  0  0  0  0  0  0  0  0999 V2000
   62.2754   17.5589   92.5672 C   0  0  0  0  0  0  0  0  0  0  0  0
   62.3898   17.4661   91.1068 C   0  0  0  0  0  0  0  0  0  0  0  0
   61.9879   18.6878   90.4673 O   0  0  0  0  0  0  0  0  0  0  0  0
   62.8657   18.9159   89.3866 C   0  0  0  0  0  0  0  0  0  0  0  0
   63.7401   17.7349   89.3429 C   0  0  0  0  0  0  0  0  0  0  0  0
   63.2105   16.7115   88.5401 O   0  0  0  0  0  0  0  0  0  0  0  0
   63.7705   17.2969   90.7262 C   0  0  0  0  0  0  0  0  0  0  0  0
   64.1983   15.9564   90.8935 O   0  0  0  0  0  0  0  0  0  0  0  0
   62.3341   16.4610   88.8719 H   0  0  0  0  0  0  0  0  0  0  0  0
   63.6180   15.3662   90.3876 H   0  0  0  0  0  0  0  0  0  0  0  0
   63.6206   20.1206   89.5660 N   0  0  0  0  0  0  0  0  0  0  0  0
   63.9800   20.5452   90.8174 C   0  0  0  0  0  0  0  0  0  0  0  0
   64.0051   20.8477   88.4675 C   0  0  0  0  0  0  0  0  0  0  0  0
   63.6687   20.4446   87.2888 O   0  0  0  0  0  0  0  0  0  0  0  0
   64.7239   21.9744   88.5984 N   0  0  0  0  0  0  0  0  0  0  0  0
   65.1017   22.4303   89.8049 C   0  0  0  0  0  0  0  0  0  0  0  0
   65.8530   23.5832   89.9309 O   0  0  0  0  0  0  0  0  0  0  0  0
   64.7279   21.7096   90.9812 C   0  0  0  0  0  0  0  0  0  0  0  0
   64.9801   22.4779   87.7921 H   0  0  0  0  0  0  0  0  0  0  0  0
   61.6491   16.4645   93.2235 O   0  0  0  0  0  0  0  0  0  0  0  0
   60.1373   16.5550   93.7214 P   0  0  0  0  0  0  0  0  0  0  0  0
   59.5187   17.8800   93.0892 O   0  0  0  0  0  0  0  0  0  0  0  0
   59.3832   15.3657   93.2061 O   0  0  0  0  0  0  0  0  0  0  0  0
   59.7562   14.5559   93.5883 H   0  0  0  0  0  0  0  0  0  0  0  0
   60.0554   16.6426   95.3780 N   0  0  0  0  0  0  0  0  0  0  0  0
   60.0513   15.6903   95.7433 H   0  0  0  0  0  0  0  0  0  0  0  0
   58.7363   17.4239   95.9822 P   0  0  0  0  0  0  0  0  0  0  0  0
   57.5077   17.3347   94.9873 O   0  0  0  0  0  0  0  0  0  0  0  0
   58.3990   16.6671   97.2193 O   0  0  0  0  0  0  0  0  0  0  0  0
   57.3871   16.4148   94.7040 H   0  0  0  0  0  0  0  0  0  0  0  0
   58.9806   18.9378   96.4849 O   0  0  0  0  0  0  0  0  0  0  0  0
   59.1085   20.2090   95.5642 P   0  0  0  0  0  0  0  0  0  0  0  0
   60.4157   20.1829   94.9745 O   0  0  0  0  0  0  0  0  0  0  0  0
   58.9338   21.4914   96.3107 O   0  0  0  0  0  0  0  0  0  0  0  0
   58.0839   20.1770   94.4668 O   0  0  0  0  0  0  0  0  0  0  0  0
   61.0867   20.2032   95.6746 H   0  0  0  0  0  0  0  0  0  0  0  0
   57.1947   20.1943   94.8541 H   0  0  0  0  0  0  0  0  0  0  0  0
  6  5  1  0  0  0
  8  7  1  0  0  0
  5  7  1  0  0  0
  5  4  1  0  0  0
 14 13  2  0  0  0
  7  2  1  0  0  0
  4 11  1  0  0  0
  4  3  1  0  0  0
 13 11  1  0  0  0
 13 15  1  0  0  0
  2  3  1  0  0  0
  2  1  1  0  0  0
 11 12  1  0  0  0
 15 16  1  0  0  0
  1 20  1  0  0  0
 12 18  2  0  0  0
 16 18  1  0  0  0
 16 17  2  0  0  0
 29 27  2  0  0  0
 20 21  1  0  0  0
 25 27  1  0  0  0
 25 21  1  0  0  0
 27 28  1  0  0  0
 27 31  1  0  0  0
 21 22  2  0  0  0
 21 23  1  0  0  0
 31 32  1  0  0  0
 32 34  2  0  0  0
 32 33  1  0  0  0
 32 35  1  0  0  0
 23 24  1  0  0  0
 25 26  1  0  0  0
 28 30  1  0  0  0
 33 36  1  0  0  0
 35 37  1  0  0  0
  6  9  1  0  0  0
  8 10  1  0  0  0
 15 19  1  0  0  0
M  END
> <minimizedAffinity>
-8.80152

$$$$
4NKT_2KH_A_401


 37 38  0  0  0  0  0  0  0  0999 V2000
   62.2760   17.5314   92.4029 C   0  0  0  0  0  0  0  0  0  0  0  0
   62.4435   17.4848   90.9455 C   0  0  0  0  0  0  0  0  0  0  0  0
   62.0554   18.7230   90.3297 O   0  0  0  0  0  0  0  0  0  0  0  0
   62.9698   18.9904   89.2891 C   0  0  0  0  0  0  0  0  0  0  0  0
   63.8543   17.8172   89.2407 C   0  0  0  0  0  0  0  0  0  0  0  0
   63.3620   16.8156   88.3881 O   0  0  0  0  0  0  0  0  0  0  0  0
   63.8383   17.3366   90.6101 C   0  0  0  0  0  0  0  0  0  0  0  0
   64.2702   15.9944   90.7514 O   0  0  0  0  0  0  0  0  0  0  0  0
   62.4762   16.5491   88.6801 H   0  0  0  0  0  0  0  0  0  0  0  0
   63.7131   15.4164   90.2069 H   0  0  0  0  0  0  0  0  0  0  0  0
   63.7084   20.1939   89.5327 N   0  0  0  0  0  0  0  0  0  0  0  0
   64.0461   20.5657   90.8067 C   0  0  0  0  0  0  0  0  0  0  0  0
   64.0991   20.9738   88.4732 C   0  0  0  0  0  0  0  0  0  0  0  0
   63.7832   20.6204   87.2731 O   0  0  0  0  0  0  0  0  0  0  0  0
   64.8032   22.1012   88.6644 N   0  0  0  0  0  0  0  0  0  0  0  0
   65.1595   22.5065   89.8953 C   0  0  0  0  0  0  0  0  0  0  0  0
   65.8958   23.6606   90.0832 O   0  0  0  0  0  0  0  0  0  0  0  0
   64.7783   21.7297   91.0328 C   0  0  0  0  0  0  0  0  0  0  0  0
   65.0643   22.6432   87.8851 H   0  0  0  0  0  0  0  0  0  0  0  0
   61.3992   16.5668   92.9700 O   0  0  0  0  0  0  0  0  0  0  0  0
   60.0723   17.0060   93.7370 P   0  0  0  0  0  0  0  0  0  0  0  0
   59.5952   18.3811   93.0893 O   0  0  0  0  0  0  0  0  0  0  0  0
   59.0155   15.9654   93.5159 O   0  0  0  0  0  0  0  0  0  0  0  0
   59.3014   15.1257   93.9086 H   0  0  0  0  0  0  0  0  0  0  0  0
   60.3617   17.2291   95.3572 N   0  0  0  0  0  0  0  0  0  0  0  0
   61.1720   17.8415   95.4504 H   0  0  0  0  0  0  0  0  0  0  0  0
   60.6602   15.8571   96.2195 P   0  0  0  0  0  0  0  0  0  0  0  0
   61.1339   14.6758   95.2774 O   0  0  0  0  0  0  0  0  0  0  0  0
   61.7891   16.2283   97.1165 O   0  0  0  0  0  0  0  0  0  0  0  0
   61.8382   14.9929   94.6906 H   0  0  0  0  0  0  0  0  0  0  0  0
   59.4857   15.3810   97.2188 O   0  0  0  0  0  0  0  0  0  0  0  0
   57.9860   15.1110   96.8214 P   0  0  0  0  0  0  0  0  0  0  0  0
   57.4429   16.3440   96.3296 O   0  0  0  0  0  0  0  0  0  0  0  0
   57.1549   14.6326   97.9672 O   0  0  0  0  0  0  0  0  0  0  0  0
   57.9007   14.0789   95.7339 O   0  0  0  0  0  0  0  0  0  0  0  0
   57.4928   17.0192   97.0243 H   0  0  0  0  0  0  0  0  0  0  0  0
   58.2656   13.2396   96.0554 H   0  0  0  0  0  0  0  0  0  0  0  0
  6  5  1  0  0  0
  8  7  1  0  0  0
  5  7  1  0  0  0
  5  4  1  0  0  0
 14 13  2  0  0  0
  7  2  1  0  0  0
  4 11  1  0  0  0
  4  3  1  0  0  0
 13 11  1  0  0  0
 13 15  1  0  0  0
  2  3  1  0  0  0
  2  1  1  0  0  0
 11 12  1  0  0  0
 15 16  1  0  0  0
  1 20  1  0  0  0
 12 18  2  0  0  0
 16 18  1  0  0  0
 16 17  2  0  0  0
 29 27  2  0  0  0
 20 21  1  0  0  0
 25 27  1  0  0  0
 25 21  1  0  0  0
 27 28  1  0  0  0
 27 31  1  0  0  0
 21 22  2  0  0  0
 21 23  1  0  0  0
 31 32  1  0  0  0
 32 34  2  0  0  0
 32 33  1  0  0  0
 32 35  1  0  0  0
 23 24  1  0  0  0
 25 26  1  0  0  0
 28 30  1  0  0  0
 33 36  1  0  0  0
 35 37  1  0  0  0
  6  9  1  0  0  0
  8 10  1  0  0  0
 15 19  1  0  0  0
M  END
> <minimizedAffinity>
-8.77067

$$$$
4NKT_2KH_A_401


 37 38  0  0  0  0  0  0  0  0999 V2000
   62.8284   20.6781   91.8886 C   0  0  0  0  0  0  0  0  0  0  0  0
   63.1209   21.5621   90.7541 C   0  0  0  0  0  0  0  0  0  0  0  0
   63.6245   22.8339   91.1922 O   0  0  0  0  0  0  0  0  0  0  0  0
   64.6437   23.2236   90.2978 C   0  0  0  0  0  0  0  0  0  0  0  0
   64.6586   22.1885   89.2540 C   0  0  0  0  0  0  0  0  0  0  0  0
   63.7830   22.4872   88.1973 O   0  0  0  0  0  0  0  0  0  0  0  0
   64.1856   21.0085   89.9542 C   0  0  0  0  0  0  0  0  0  0  0  0
   63.7160   19.9829   89.0966 O   0  0  0  0  0  0  0  0  0  0  0  0
   62.8832   22.5938   88.5433 H   0  0  0  0  0  0  0  0  0  0  0  0
   63.0004   20.3288   88.5406 H   0  0  0  0  0  0  0  0  0  0  0  0
   65.9128   23.3228   90.9557 N   0  0  0  0  0  0  0  0  0  0  0  0
   66.1545   22.6476   92.1223 C   0  0  0  0  0  0  0  0  0  0  0  0
   66.9054   24.0893   90.3983 C   0  0  0  0  0  0  0  0  0  0  0  0
   66.6774   24.7221   89.2972 O   0  0  0  0  0  0  0  0  0  0  0  0
   68.1106   24.1943   90.9813 N   0  0  0  0  0  0  0  0  0  0  0  0
   68.3958   23.5496   92.1256 C   0  0  0  0  0  0  0  0  0  0  0  0
   69.6426   23.6516   92.7124 O   0  0  0  0  0  0  0  0  0  0  0  0
   67.3972   22.7374   92.7467 C   0  0  0  0  0  0  0  0  0  0  0  0
   68.8009   24.7564   90.5610 H   0  0  0  0  0  0  0  0  0  0  0  0
   63.0713   19.2917   91.6893 O   0  0  0  0  0  0  0  0  0  0  0  0
   62.0081   18.1931   92.1417 P   0  0  0  0  0  0  0  0  0  0  0  0
   60.5707   18.7381   91.7236 O   0  0  0  0  0  0  0  0  0  0  0  0
   62.2838   16.9167   91.4045 O   0  0  0  0  0  0  0  0  0  0  0  0
   63.1583   16.5806   91.6557 H   0  0  0  0  0  0  0  0  0  0  0  0
   62.0528   17.9557   93.7850 N   0  0  0  0  0  0  0  0  0  0  0  0
   62.9742   17.5898   94.0247 H   0  0  0  0  0  0  0  0  0  0  0  0
   60.9224   16.9160   94.3820 P   0  0  0  0  0  0  0  0  0  0  0  0
   61.4582   16.1559   95.6636 O   0  0  0  0  0  0  0  0  0  0  0  0
   59.7956   17.7984   94.7922 O   0  0  0  0  0  0  0  0  0  0  0  0
   61.8423   16.7965   96.2824 H   0  0  0  0  0  0  0  0  0  0  0  0
   60.2714   15.8926   93.3173 O   0  0  0  0  0  0  0  0  0  0  0  0
   59.4099   14.6209   93.6644 P   0  0  0  0  0  0  0  0  0  0  0  0
   60.3182   13.5729   94.0298 O   0  0  0  0  0  0  0  0  0  0  0  0
   58.5634   14.1591   92.5230 O   0  0  0  0  0  0  0  0  0  0  0  0
   58.4985   14.8958   94.8259 O   0  0  0  0  0  0  0  0  0  0  0  0
   60.9127   13.3864   93.2864 H   0  0  0  0  0  0  0  0  0  0  0  0
   57.8789   15.6038   94.5902 H   0  0  0  0  0  0  0  0  0  0  0  0
  6  5  1  0  0  0
  8  7  1  0  0  0
  5  7  1  0  0  0
  5  4  1  0  0  0
 14 13  2  0  0  0
  7  2  1  0  0  0
  4 11  1  0  0  0
  4  3  1  0  0  0
 13 11  1  0  0  0
 13 15  1  0  0  0
  2  3  1  0  0  0
  2  1  1  0  0  0
 11 12  1  0  0  0
 15 16  1  0  0  0
  1 20  1  0  0  0
 12 18  2  0  0  0
 16 18  1  0  0  0
 16 17  2  0  0  0
 29 27  2  0  0  0
 20 21  1  0  0  0
 25 27  1  0  0  0
 25 21  1  0  0  0
 27 28  1  0  0  0
 27 31  1  0  0  0
 21 22  2  0  0  0
 21 23  1  0  0  0
 31 32  1  0  0  0
 32 34  2  0  0  0
 32 33  1  0  0  0
 32 35  1  0  0  0
 23 24  1  0  0  0
 25 26  1  0  0  0
 28 30  1  0  0  0
 33 36  1  0  0  0
 35 37  1  0  0  0
  6  9  1  0  0  0
  8 10  1  0  0  0
 15 19  1  0  0  0
M  END
> <minimizedAffinity>
-8.71082

$$$$
4NKT_2KH_A_401


 37 38  0  0  0  0  0  0  0  0999 V2000
   62.5967   18.2179   94.9649 C   0  0  0  0  0  0  0  0  0  0  0  0
   63.2464   19.3498   94.2935 C   0  0  0  0  0  0  0  0  0  0  0  0
   64.2178   18.9067   93.3327 O   0  0  0  0  0  0  0  0  0  0  0  0
   64.1290   19.7554   92.2092 C   0  0  0  0  0  0  0  0  0  0  0  0
   63.1423   20.7814   92.5768 C   0  0  0  0  0  0  0  0  0  0  0  0
   63.7349   21.8845   93.2127 O   0  0  0  0  0  0  0  0  0  0  0  0
   62.2810   20.0875   93.5166 C   0  0  0  0  0  0  0  0  0  0  0  0
   61.5063   20.9517   94.3296 O   0  0  0  0  0  0  0  0  0  0  0  0
   64.2098   21.5851   94.0037 H   0  0  0  0  0  0  0  0  0  0  0  0
   62.0940   21.5476   94.8198 H   0  0  0  0  0  0  0  0  0  0  0  0
   63.7261   19.0372   91.0366 N   0  0  0  0  0  0  0  0  0  0  0  0
   63.3117   17.7345   91.1179 C   0  0  0  0  0  0  0  0  0  0  0  0
   63.7373   19.6698   89.8188 C   0  0  0  0  0  0  0  0  0  0  0  0
   64.1247   20.8984   89.7442 O   0  0  0  0  0  0  0  0  0  0  0  0
   63.3540   19.0307   88.7016 N   0  0  0  0  0  0  0  0  0  0  0  0
   62.9380   17.7531   88.7310 C   0  0  0  0  0  0  0  0  0  0  0  0
   62.5322   17.1063   87.5793 O   0  0  0  0  0  0  0  0  0  0  0  0
   62.9065   17.0488   89.9743 C   0  0  0  0  0  0  0  0  0  0  0  0
   63.3784   19.5090   87.8415 H   0  0  0  0  0  0  0  0  0  0  0  0
   61.8947   18.5127   96.1654 O   0  0  0  0  0  0  0  0  0  0  0  0
   60.3456   18.1701   96.3220 P   0  0  0  0  0  0  0  0  0  0  0  0
   60.0599   18.0138   97.8815 O   0  0  0  0  0  0  0  0  0  0  0  0
   59.5377   19.3143   95.7863 O   0  0  0  0  0  0  0  0  0  0  0  0
   59.7082   19.4138   94.8366 H   0  0  0  0  0  0  0  0  0  0  0  0
   59.9628   16.7529   95.5451 N   0  0  0  0  0  0  0  0  0  0  0  0
   60.8235   16.3619   95.1622 H   0  0  0  0  0  0  0  0  0  0  0  0
   58.8760   16.8905   94.3142 P   0  0  0  0  0  0  0  0  0  0  0  0
   57.5389   17.5854   94.8007 O   0  0  0  0  0  0  0  0  0  0  0  0
   59.5464   17.7891   93.3343 O   0  0  0  0  0  0  0  0  0  0  0  0
   57.7548   18.3922   95.2940 H   0  0  0  0  0  0  0  0  0  0  0  0
   58.5720   15.5394   93.4857 O   0  0  0  0  0  0  0  0  0  0  0  0
   59.2630   14.1421   93.7091 P   0  0  0  0  0  0  0  0  0  0  0  0
   58.5498   13.4725   94.7580 O   0  0  0  0  0  0  0  0  0  0  0  0
   60.7027   14.2566   94.0919 O   0  0  0  0  0  0  0  0  0  0  0  0
   59.1874   13.3054   92.4644 O   0  0  0  0  0  0  0  0  0  0  0  0
   58.5918   14.0043   95.5681 H   0  0  0  0  0  0  0  0  0  0  0  0
   59.6669   13.7487   91.7471 H   0  0  0  0  0  0  0  0  0  0  0  0
  6  5  1  0  0  0
  8  7  1  0  0  0
  5  7  1  0  0  0
  5  4  1  0  0  0
 14 13  2  0  0  0
  7  2  1  0  0  0
  4 11  1  0  0  0
  4  3  1  0  0  0
 13 11  1  0  0  0
 13 15  1  0  0  0
  2  3  1  0  0  0
  2  1  1  0  0  0
 11 12  1  0  0  0
 15 16  1  0  0  0
  1 20  1  0  0  0
 12 18  2  0  0  0
 16 18  1  0  0  0
 16 17  2  0  0  0
 29 27  2  0  0  0
 20 21  1  0  0  0
 25 27  1  0  0  0
 25 21  1  0  0  0
 27 28  1  0  0  0
 27 31  1  0  0  0
 21 22  2  0  0  0
 21 23  1  0  0  0
 31 32  1  0  0  0
 32 34  2  0  0  0
 32 33  1  0  0  0
 32 35  1  0  0  0
 23 24  1  0  0  0
 25 26  1  0  0  0
 28 30  1  0  0  0
 33 36  1  0  0  0
 35 37  1  0  0  0
  6  9  1  0  0  0
  8 10  1  0  0  0
 15 19  1  0  0  0
M  END
> <minimizedAffinity>
-8.65468

$$$$
4NKT_2KH_A_401


 37 38  0  0  0  0  0  0  0  0999 V2000
   62.9464   19.6719   94.0395 C   0  0  0  0  0  0  0  0  0  0  0  0
   63.6873   20.8715   93.6315 C   0  0  0  0  0  0  0  0  0  0  0  0
   64.6952   20.5629   92.6559 O   0  0  0  0  0  0  0  0  0  0  0  0
   64.7149   21.6114   91.7121 C   0  0  0  0  0  0  0  0  0  0  0  0
   63.7550   22.6038   92.2168 C   0  0  0  0  0  0  0  0  0  0  0  0
   64.3565   23.5325   93.0818 O   0  0  0  0  0  0  0  0  0  0  0  0
   62.8064   21.7953   92.9604 C   0  0  0  0  0  0  0  0  0  0  0  0
   62.0228   22.5335   93.8819 O   0  0  0  0  0  0  0  0  0  0  0  0
   64.7673   23.0634   93.8248 H   0  0  0  0  0  0  0  0  0  0  0  0
   62.6055   22.9924   94.5070 H   0  0  0  0  0  0  0  0  0  0  0  0
   64.3533   21.1503   90.4045 N   0  0  0  0  0  0  0  0  0  0  0  0
   63.9469   19.8583   90.2021 C   0  0  0  0  0  0  0  0  0  0  0  0
   64.3963   22.0209   89.3446 C   0  0  0  0  0  0  0  0  0  0  0  0
   64.7761   23.2390   89.5373 O   0  0  0  0  0  0  0  0  0  0  0  0
   64.0520   21.6259   88.1081 N   0  0  0  0  0  0  0  0  0  0  0  0
   63.6454   20.3692   87.8601 C   0  0  0  0  0  0  0  0  0  0  0  0
   63.2797   19.9737   86.5875 O   0  0  0  0  0  0  0  0  0  0  0  0
   63.5818   19.4231   88.9295 C   0  0  0  0  0  0  0  0  0  0  0  0
   64.0986   22.2716   87.3664 H   0  0  0  0  0  0  0  0  0  0  0  0
   61.5578   19.6522   93.7359 O   0  0  0  0  0  0  0  0  0  0  0  0
   60.9292   18.5118   92.8162 P   0  0  0  0  0  0  0  0  0  0  0  0
   61.0595   19.0072   91.3077 O   0  0  0  0  0  0  0  0  0  0  0  0
   61.7245   17.2525   92.9908 O   0  0  0  0  0  0  0  0  0  0  0  0
   61.6484   16.9465   93.9081 H   0  0  0  0  0  0  0  0  0  0  0  0
   59.3278   18.2623   93.1797 N   0  0  0  0  0  0  0  0  0  0  0  0
   58.8835   19.1745   93.2845 H   0  0  0  0  0  0  0  0  0  0  0  0
   59.0389   17.3961   94.5514 P   0  0  0  0  0  0  0  0  0  0  0  0
   60.3379   17.2902   95.4506 O   0  0  0  0  0  0  0  0  0  0  0  0
   58.0215   18.2002   95.2831 O   0  0  0  0  0  0  0  0  0  0  0  0
   60.7304   18.1709   95.5567 H   0  0  0  0  0  0  0  0  0  0  0  0
   58.3452   15.9539   94.3433 O   0  0  0  0  0  0  0  0  0  0  0  0
   59.0758   14.6316   93.8986 P   0  0  0  0  0  0  0  0  0  0  0  0
   58.6733   14.3504   92.5510 O   0  0  0  0  0  0  0  0  0  0  0  0
   58.7420   13.4601   94.7638 O   0  0  0  0  0  0  0  0  0  0  0  0
   60.5665   14.8107   93.9291 O   0  0  0  0  0  0  0  0  0  0  0  0
   57.7111   14.2326   92.5189 H   0  0  0  0  0  0  0  0  0  0  0  0
   60.8508   15.0017   94.8366 H   0  0  0  0  0  0  0  0  0  0  0  0
  6  5  1  0  0  0
  8  7  1  0  0  0
  5  7  1  0  0  0
  5  4  1  0  0  0
 14 13  2  0  0  0
  7  2  1  0  0  0
  4 11  1  0  0  0
  4  3  1  0  0  0
 13 11  1  0  0  0
 13 15  1  0  0  0
  2  3  1  0  0  0
  2  1  1  0  0  0
 11 12  1  0  0  0
 15 16  1  0  0  0
  1 20  1  0  0  0
 12 18  2  0  0  0
 16 18  1  0  0  0
 16 17  2  0  0  0
 29 27  2  0  0  0
 20 21  1  0  0  0
 25 27  1  0  0  0
 25 21  1  0  0  0
 27 28  1  0  0  0
 27 31  1  0  0  0
 21 22  2  0  0  0
 21 23  1  0  0  0
 31 32  1  0  0  0
 32 34  2  0  0  0
 32 33  1  0  0  0
 32 35  1  0  0  0
 23 24  1  0  0  0
 25 26  1  0  0  0
 28 30  1  0  0  0
 33 36  1  0  0  0
 35 37  1  0  0  0
  6  9  1  0  0  0
  8 10  1  0  0  0
 15 19  1  0  0  0
M  END
> <minimizedAffinity>
-8.65104

$$$$
