1GAF_NPE_H_218
  RCSB PDB12061702353D
Coordinates from PDB:1GAF:H:218 Model:1 without hydrogens
 20 20  0  0  0  0            999 V2000
   56.6270   -8.8760   14.9510   C 0  0  0  0  0  0  0  0  0  0  0  0
   55.8220   -9.0340   16.1330   N 0  3  0  0  0  0  0  0  0  0  0  0
   54.7280   -8.1710   16.2520   O 0  5  0  0  0  0  0  0  0  0  0  0
   56.2280  -10.0260   17.0340   O 0  0  0  0  0  0  0  0  0  0  0  0
   57.7690   -9.7050   14.7610   C 0  0  0  0  0  0  0  0  0  0  0  0
   58.5610   -9.5750   13.6020   C 0  0  0  0  0  0  0  0  0  0  0  0
   58.2200   -8.6220   12.6230   C 0  0  0  0  0  0  0  0  0  0  0  0
   57.0880   -7.7900   12.7920   C 0  0  0  0  0  0  0  0  0  0  0  0
   56.2940   -7.9110   13.9500   C 0  0  0  0  0  0  0  0  0  0  0  0
   58.9990   -8.5680   11.4520   O 0  0  0  0  0  0  0  0  0  0  0  0
   60.1210   -7.6010   11.1200   P 0  0  0  0  0  0  0  0  0  0  0  0
   60.0150   -7.3190    9.7280   O 0  0  0  0  0  0  0  0  0  0  0  0
   59.9220   -6.3840   11.8450   O 0  5  0  0  0  0  0  0  0  0  0  0
   61.6850   -8.3030   11.6030   C 0  0  0  0  0  0  0  0  0  0  0  0
   61.8180   -9.7050   11.0300   C 0  0  0  0  0  0  0  0  0  0  0  0
   63.2580  -10.1960   11.2010   C 0  0  0  0  0  0  0  0  0  0  0  0
   63.2590  -11.6660   11.6240   C 0  0  0  0  0  0  0  0  0  0  0  0
   64.7000  -12.0870   11.9020   C 0  0  0  0  0  0  0  0  0  0  0  0
   65.1660  -12.2230   12.9960   O 0  0  0  0  0  0  0  0  0  0  0  0
   65.3340  -12.2730   10.7200   O 0  0  0  0  0  0  0  0  0  0  0  0
  1  2  1  0  0  0  0
  1  5  2  0  0  0  0
  1  9  1  0  0  0  0
  2  3  1  0  0  0  0
  2  4  2  0  0  0  0
  5  6  1  0  0  0  0
  6  7  2  0  0  0  0
  7  8  1  0  0  0  0
  7 10  1  0  0  0  0
  8  9  2  0  0  0  0
 10 11  1  0  0  0  0
 11 12  2  0  0  0  0
 11 13  1  0  0  0  0
 11 14  1  0  0  0  0
 14 15  1  0  0  0  0
 15 16  1  0  0  0  0
 16 17  1  0  0  0  0
 17 18  1  0  0  0  0
 18 19  2  0  0  0  0
 18 20  1  0  0  0  0
M  CHG  3   2   1   3  -1  13  -1
A    1
C1
A    2
N1
A    3
O1N
A    4
O2N
A    5
C2
A    6
C3
A    7
C4
A    8
C5
A    9
C6
A   10
O3P
A   11
P
A   12
O1P
A   13
O2P
A   14
C7
A   15
C8
A   16
C9
A   17
C10
A   18
C11
A   19
O1
A   20
O2
M  END
>  <InstanceId>
1GAF_NPE_H_218

>  <ChemCompId>
NPE

>  <PdbId>
1GAF

>  <ChainId>
H

>  <ResidueNumber>
218

>  <InsertionCode>


>  <Model>
1

>  <AltIds>


>  <MissingHeavyAtoms>
0

>  <ObservedFormula>
C11 N O7 P

>  <Name>
5-(PARA-NITROPHENYL PHOSPHONATE)-PENTANOIC ACID

>  <SystematicName>
(5-hydroxy-5-oxo-pentyl)-(4-nitrophenoxy)phosphinate

>  <Synonyms>


>  <Type>
NON-POLYMER

>  <Formula>
C11 H13 N O7 P

>  <MolecularWeight>
302.197

>  <ModifiedDate>
2011-06-04

>  <Parent>


>  <OneLetterCode>


>  <SubcomponentList>


>  <AmbiguousFlag>
N

>  <InChI>
InChI=1S/C11H14NO7P/c13-11(14)3-1-2-8-20(17,18)19-10-6-4-9(5-7-10)12(15)16/h4-7H,1-3,8H2,(H,13,14)(H,17,18)/p-1

>  <InChIKey>
XVVZSEXTAACTPS-UHFFFAOYSA-M

>  <SMILES>
c1cc(ccc1[N+](=O)[O-])O[P@@](=O)(CCCCC(=O)O)[O-]

$$$$
