1GAF_NPE_H_218


 21 21  0  0  0  0  0  0  0  0999 V2000
   60.3510   -7.7080   11.1357 P   0  0  0  0  0  0  0  0  0  0  0  0
   60.2885   -7.4521    9.7361 O   0  0  0  0  0  0  0  0  0  0  0  0
   60.0625   -6.4920   11.8317 O   0  0  0  0  0  0  0  0  0  0  0  0
   59.2653   -8.7249   11.4383 O   0  0  0  0  0  0  0  0  0  0  0  0
   56.8043   -9.1070   14.8677 C   0  0  0  0  0  0  0  0  0  0  0  0
   58.1233   -9.6429   14.8453 C   0  0  0  0  0  0  0  0  0  0  0  0
   58.9378   -9.4880   13.7052 C   0  0  0  0  0  0  0  0  0  0  0  0
   58.4442   -8.8021   12.5788 C   0  0  0  0  0  0  0  0  0  0  0  0
   57.1356   -8.2638   12.5803 C   0  0  0  0  0  0  0  0  0  0  0  0
   56.3170   -8.4107   13.7180 C   0  0  0  0  0  0  0  0  0  0  0  0
   55.9823   -9.2886   16.0346 N   0  0  0  0  0  0  0  0  0  0  0  0
   56.3052  -10.3773   16.8510 O   0  0  0  0  0  0  0  0  0  0  0  0
   54.9482   -8.3624   16.2173 O   0  0  0  0  0  0  0  0  0  0  0  0
   61.9265   -8.3238   11.6931 C   0  0  0  0  0  0  0  0  0  0  0  0
   61.9521   -9.8403   11.5878 C   0  0  0  0  0  0  0  0  0  0  0  0
   63.2349  -10.2852   10.8804 C   0  0  0  0  0  0  0  0  0  0  0  0
   63.9432   -9.0711   10.2768 C   0  0  0  0  0  0  0  0  0  0  0  0
   63.8328   -9.1548    8.7564 C   0  0  0  0  0  0  0  0  0  0  0  0
   64.4503   -9.9204    8.0743 O   0  0  0  0  0  0  0  0  0  0  0  0
   62.9353   -8.2328    8.3345 O   0  0  0  0  0  0  0  0  0  0  0  0
   62.5048   -7.6794    8.9562 H   0  0  0  0  0  0  0  0  0  0  0  0
  5 11  1  0  0  0
  5  6  2  0  0  0
  5 10  1  0  0  0
 11 12  1  0  0  0
 11 13  2  0  0  0
  6  7  1  0  0  0
  7  8  2  0  0  0
  8  9  1  0  0  0
  8  4  1  0  0  0
  9 10  2  0  0  0
  4  1  1  0  0  0
  1  2  2  0  0  0
  1  3  1  0  0  0
  1 14  1  0  0  0
 14 15  1  0  0  0
 15 16  1  0  0  0
 16 17  1  0  0  0
 17 18  1  0  0  0
 18 19  2  0  0  0
 18 20  1  0  0  0
 20 21  1  0  0  0
M  CHG 1   3  -1
M  CHG 1  11   1
M  CHG 1  12  -1
M  END
> <minimizedAffinity>
-8.03145

$$$$
1GAF_NPE_H_218


 21 21  0  0  0  0  0  0  0  0999 V2000
   60.3166   -7.7318   11.1384 P   0  0  0  0  0  0  0  0  0  0  0  0
   60.2092   -7.4395    9.7486 O   0  0  0  0  0  0  0  0  0  0  0  0
   60.0824   -6.5275   11.8738 O   0  0  0  0  0  0  0  0  0  0  0  0
   59.2191   -8.7312   11.4562 O   0  0  0  0  0  0  0  0  0  0  0  0
   56.7959   -9.0706   14.9170 C   0  0  0  0  0  0  0  0  0  0  0  0
   58.1035   -9.6328   14.8764 C   0  0  0  0  0  0  0  0  0  0  0  0
   58.9060   -9.4920   13.7259 C   0  0  0  0  0  0  0  0  0  0  0  0
   58.4115   -8.7941   12.6072 C   0  0  0  0  0  0  0  0  0  0  0  0
   57.1141   -8.2298   12.6268 C   0  0  0  0  0  0  0  0  0  0  0  0
   56.3076   -8.3625   13.7749 C   0  0  0  0  0  0  0  0  0  0  0  0
   55.9858   -9.2380   16.0942 N   0  0  0  0  0  0  0  0  0  0  0  0
   55.0194   -8.2529   16.3211 O   0  0  0  0  0  0  0  0  0  0  0  0
   56.2608  -10.3612   16.8838 O   0  0  0  0  0  0  0  0  0  0  0  0
   61.8965   -8.3970   11.6219 C   0  0  0  0  0  0  0  0  0  0  0  0
   61.8445   -9.9163   11.5950 C   0  0  0  0  0  0  0  0  0  0  0  0
   63.2255  -10.4718   11.2369 C   0  0  0  0  0  0  0  0  0  0  0  0
   63.1283  -11.9754   10.9732 C   0  0  0  0  0  0  0  0  0  0  0  0
   63.2511  -12.2105    9.4697 C   0  0  0  0  0  0  0  0  0  0  0  0
   64.2776  -12.4545    8.9047 O   0  0  0  0  0  0  0  0  0  0  0  0
   62.0232  -12.0961    8.9103 O   0  0  0  0  0  0  0  0  0  0  0  0
   61.2802  -11.9011    9.4470 H   0  0  0  0  0  0  0  0  0  0  0  0
  5 11  1  0  0  0
  5  6  2  0  0  0
  5 10  1  0  0  0
 11 12  1  0  0  0
 11 13  2  0  0  0
  6  7  1  0  0  0
  7  8  2  0  0  0
  8  9  1  0  0  0
  8  4  1  0  0  0
  9 10  2  0  0  0
  4  1  1  0  0  0
  1  2  2  0  0  0
  1  3  1  0  0  0
  1 14  1  0  0  0
 14 15  1  0  0  0
 15 16  1  0  0  0
 16 17  1  0  0  0
 17 18  1  0  0  0
 18 19  2  0  0  0
 18 20  1  0  0  0
 20 21  1  0  0  0
M  CHG 1   3  -1
M  CHG 1  11   1
M  CHG 1  12  -1
M  END
> <minimizedAffinity>
-7.77608

$$$$
1GAF_NPE_H_218


 21 21  0  0  0  0  0  0  0  0999 V2000
   60.3222   -7.7410   11.0118 P   0  0  0  0  0  0  0  0  0  0  0  0
   59.9236   -7.3091    9.7145 O   0  0  0  0  0  0  0  0  0  0  0  0
   60.1983   -6.6380   11.9143 O   0  0  0  0  0  0  0  0  0  0  0  0
   59.3499   -8.8322   11.4220 O   0  0  0  0  0  0  0  0  0  0  0  0
   56.7890   -9.0522   14.7921 C   0  0  0  0  0  0  0  0  0  0  0  0
   58.1100   -9.5820   14.8360 C   0  0  0  0  0  0  0  0  0  0  0  0
   58.9576   -9.4810   13.7141 C   0  0  0  0  0  0  0  0  0  0  0  0
   58.4954   -8.8555   12.5401 C   0  0  0  0  0  0  0  0  0  0  0  0
   57.1854   -8.3244   12.4756 C   0  0  0  0  0  0  0  0  0  0  0  0
   56.3338   -8.4176   13.5946 C   0  0  0  0  0  0  0  0  0  0  0  0
   55.9333   -9.1786   15.9419 N   0  0  0  0  0  0  0  0  0  0  0  0
   55.0288   -8.1332   16.1533 O   0  0  0  0  0  0  0  0  0  0  0  0
   56.1074  -10.3273   16.7235 O   0  0  0  0  0  0  0  0  0  0  0  0
   61.9909   -8.3586   11.0922 C   0  0  0  0  0  0  0  0  0  0  0  0
   61.9921   -9.7614   11.6785 C   0  0  0  0  0  0  0  0  0  0  0  0
   62.7204  -10.7154   10.7281 C   0  0  0  0  0  0  0  0  0  0  0  0
   63.3503  -11.8604   11.5231 C   0  0  0  0  0  0  0  0  0  0  0  0
   64.7875  -11.4761   11.8661 C   0  0  0  0  0  0  0  0  0  0  0  0
   65.4426  -10.6873   11.2487 O   0  0  0  0  0  0  0  0  0  0  0  0
   65.1727  -12.1699   12.9634 O   0  0  0  0  0  0  0  0  0  0  0  0
   64.5777  -12.7666   13.3731 H   0  0  0  0  0  0  0  0  0  0  0  0
  5 11  1  0  0  0
  5  6  2  0  0  0
  5 10  1  0  0  0
 11 12  1  0  0  0
 11 13  2  0  0  0
  6  7  1  0  0  0
  7  8  2  0  0  0
  8  9  1  0  0  0
  8  4  1  0  0  0
  9 10  2  0  0  0
  4  1  1  0  0  0
  1  2  2  0  0  0
  1  3  1  0  0  0
  1 14  1  0  0  0
 14 15  1  0  0  0
 15 16  1  0  0  0
 16 17  1  0  0  0
 17 18  1  0  0  0
 18 19  2  0  0  0
 18 20  1  0  0  0
 20 21  1  0  0  0
M  CHG 1   3  -1
M  CHG 1  11   1
M  CHG 1  12  -1
M  END
> <minimizedAffinity>
-7.62350

$$$$
1GAF_NPE_H_218


 21 21  0  0  0  0  0  0  0  0999 V2000
   57.2432   -7.9254   12.5085 P   0  0  0  0  0  0  0  0  0  0  0  0
   56.4008   -6.7915   12.6902 O   0  0  0  0  0  0  0  0  0  0  0  0
   57.1929   -8.3108   11.1318 O   0  0  0  0  0  0  0  0  0  0  0  0
   58.6525   -7.4760   12.8490 O   0  0  0  0  0  0  0  0  0  0  0  0
   62.2534   -8.9236   11.1453 C   0  0  0  0  0  0  0  0  0  0  0  0
   61.7587   -7.6267   10.8280 C   0  0  0  0  0  0  0  0  0  0  0  0
   60.5712   -7.1506   11.4204 C   0  0  0  0  0  0  0  0  0  0  0  0
   59.8665   -7.9631   12.3293 C   0  0  0  0  0  0  0  0  0  0  0  0
   60.3403   -9.2557   12.6563 C   0  0  0  0  0  0  0  0  0  0  0  0
   61.5290   -9.7367   12.0717 C   0  0  0  0  0  0  0  0  0  0  0  0
   63.4586   -9.3981   10.5189 N   0  0  0  0  0  0  0  0  0  0  0  0
   64.5619   -9.5720   11.3605 O   0  0  0  0  0  0  0  0  0  0  0  0
   63.3947   -9.6240    9.1385 O   0  0  0  0  0  0  0  0  0  0  0  0
   56.7991   -9.3295   13.5101 C   0  0  0  0  0  0  0  0  0  0  0  0
   57.6954   -9.3899   14.7368 C   0  0  0  0  0  0  0  0  0  0  0  0
   56.9940  -10.1754   15.8480 C   0  0  0  0  0  0  0  0  0  0  0  0
   55.4881  -10.2182   15.5832 C   0  0  0  0  0  0  0  0  0  0  0  0
   54.7910   -9.3387   16.6184 C   0  0  0  0  0  0  0  0  0  0  0  0
   54.8102   -8.1420   16.6123 O   0  0  0  0  0  0  0  0  0  0  0  0
   54.1661  -10.1367   17.5164 O   0  0  0  0  0  0  0  0  0  0  0  0
   54.2146  -11.0683   17.4286 H   0  0  0  0  0  0  0  0  0  0  0  0
  5 11  1  0  0  0
  5  6  2  0  0  0
  5 10  1  0  0  0
 11 12  1  0  0  0
 11 13  2  0  0  0
  6  7  1  0  0  0
  7  8  2  0  0  0
  8  9  1  0  0  0
  8  4  1  0  0  0
  9 10  2  0  0  0
  4  1  1  0  0  0
  1  2  2  0  0  0
  1  3  1  0  0  0
  1 14  1  0  0  0
 14 15  1  0  0  0
 15 16  1  0  0  0
 16 17  1  0  0  0
 17 18  1  0  0  0
 18 19  2  0  0  0
 18 20  1  0  0  0
 20 21  1  0  0  0
M  CHG 1   3  -1
M  CHG 1  11   1
M  CHG 1  12  -1
M  END
> <minimizedAffinity>
-7.22376

$$$$
1GAF_NPE_H_218


 21 21  0  0  0  0  0  0  0  0999 V2000
   60.4477   -7.6274   11.3086 P   0  0  0  0  0  0  0  0  0  0  0  0
   60.2088   -6.3814   11.9559 O   0  0  0  0  0  0  0  0  0  0  0  0
   60.4041   -7.4185    9.8941 O   0  0  0  0  0  0  0  0  0  0  0  0
   61.8476   -8.0595   11.7056 O   0  0  0  0  0  0  0  0  0  0  0  0
   64.1744  -11.0685    9.8358 C   0  0  0  0  0  0  0  0  0  0  0  0
   64.3105   -9.6993    9.4694 C   0  0  0  0  0  0  0  0  0  0  0  0
   63.5456   -8.7075   10.1164 C   0  0  0  0  0  0  0  0  0  0  0  0
   62.6379   -9.0717   11.1295 C   0  0  0  0  0  0  0  0  0  0  0  0
   62.4864  -10.4271   11.5069 C   0  0  0  0  0  0  0  0  0  0  0  0
   63.2508  -11.4237   10.8677 C   0  0  0  0  0  0  0  0  0  0  0  0
   64.9522  -12.0682    9.1534 N   0  0  0  0  0  0  0  0  0  0  0  0
   64.5295  -12.4012    7.8626 O   0  0  0  0  0  0  0  0  0  0  0  0
   66.0378  -12.6008    9.8595 O   0  0  0  0  0  0  0  0  0  0  0  0
   59.2795   -8.9032   11.7327 C   0  0  0  0  0  0  0  0  0  0  0  0
   59.3265   -9.1662   13.2294 C   0  0  0  0  0  0  0  0  0  0  0  0
   57.9193   -9.0374   13.8186 C   0  0  0  0  0  0  0  0  0  0  0  0
   56.8970   -8.8765   12.6921 C   0  0  0  0  0  0  0  0  0  0  0  0
   56.5425   -7.3965   12.5702 C   0  0  0  0  0  0  0  0  0  0  0  0
   56.9227   -6.5457   13.3212 O   0  0  0  0  0  0  0  0  0  0  0  0
   55.7441   -7.2286   11.4894 O   0  0  0  0  0  0  0  0  0  0  0  0
   55.5045   -7.9670   10.9647 H   0  0  0  0  0  0  0  0  0  0  0  0
  5 11  1  0  0  0
  5  6  2  0  0  0
  5 10  1  0  0  0
 11 12  1  0  0  0
 11 13  2  0  0  0
  6  7  1  0  0  0
  7  8  2  0  0  0
  8  9  1  0  0  0
  8  4  1  0  0  0
  9 10  2  0  0  0
  4  1  1  0  0  0
  1  2  2  0  0  0
  1  3  1  0  0  0
  1 14  1  0  0  0
 14 15  1  0  0  0
 15 16  1  0  0  0
 16 17  1  0  0  0
 17 18  1  0  0  0
 18 19  2  0  0  0
 18 20  1  0  0  0
 20 21  1  0  0  0
M  CHG 1   3  -1
M  CHG 1  11   1
M  CHG 1  12  -1
M  END
> <minimizedAffinity>
-6.93262

$$$$
1GAF_NPE_H_218


 21 21  0  0  0  0  0  0  0  0999 V2000
   60.3261   -7.5738   11.3886 P   0  0  0  0  0  0  0  0  0  0  0  0
   60.1554   -6.2735   11.9441 O   0  0  0  0  0  0  0  0  0  0  0  0
   60.0335   -7.5106    9.9898 O   0  0  0  0  0  0  0  0  0  0  0  0
   61.7884   -7.9356   11.5760 O   0  0  0  0  0  0  0  0  0  0  0  0
   64.0660  -10.9917    9.7222 C   0  0  0  0  0  0  0  0  0  0  0  0
   63.1685  -11.2865   10.7876 C   0  0  0  0  0  0  0  0  0  0  0  0
   62.4010  -10.2624   11.3789 C   0  0  0  0  0  0  0  0  0  0  0  0
   62.5242   -8.9380   10.9167 C   0  0  0  0  0  0  0  0  0  0  0  0
   63.4119   -8.6240    9.8605 C   0  0  0  0  0  0  0  0  0  0  0  0
   64.1791   -9.6430    9.2613 C   0  0  0  0  0  0  0  0  0  0  0  0
   64.8523  -12.0476    9.1417 N   0  0  0  0  0  0  0  0  0  0  0  0
   66.0420  -12.3645    9.8049 O   0  0  0  0  0  0  0  0  0  0  0  0
   64.3438  -12.6325    7.9755 O   0  0  0  0  0  0  0  0  0  0  0  0
   59.2958   -8.8228   12.1306 C   0  0  0  0  0  0  0  0  0  0  0  0
   57.8359   -8.4096   12.0329 C   0  0  0  0  0  0  0  0  0  0  0  0
   57.2149   -8.3808   13.4320 C   0  0  0  0  0  0  0  0  0  0  0  0
   57.9448   -9.3676   14.3449 C   0  0  0  0  0  0  0  0  0  0  0  0
   56.9696   -9.8428   15.4192 C   0  0  0  0  0  0  0  0  0  0  0  0
   55.8333  -10.1556   15.2108 O   0  0  0  0  0  0  0  0  0  0  0  0
   57.6070   -9.8457   16.6139 O   0  0  0  0  0  0  0  0  0  0  0  0
   58.5040   -9.5803   16.6670 H   0  0  0  0  0  0  0  0  0  0  0  0
  5 11  1  0  0  0
  5  6  2  0  0  0
  5 10  1  0  0  0
 11 12  1  0  0  0
 11 13  2  0  0  0
  6  7  1  0  0  0
  7  8  2  0  0  0
  8  9  1  0  0  0
  8  4  1  0  0  0
  9 10  2  0  0  0
  4  1  1  0  0  0
  1  2  2  0  0  0
  1  3  1  0  0  0
  1 14  1  0  0  0
 14 15  1  0  0  0
 15 16  1  0  0  0
 16 17  1  0  0  0
 17 18  1  0  0  0
 18 19  2  0  0  0
 18 20  1  0  0  0
 20 21  1  0  0  0
M  CHG 1   3  -1
M  CHG 1  11   1
M  CHG 1  12  -1
M  END
> <minimizedAffinity>
-6.64999

$$$$
1GAF_NPE_H_218


 21 21  0  0  0  0  0  0  0  0999 V2000
   60.5520   -8.0930   11.3094 P   0  0  0  0  0  0  0  0  0  0  0  0
   61.3187   -7.3386   12.2429 O   0  0  0  0  0  0  0  0  0  0  0  0
   60.2285   -7.2480   10.2014 O   0  0  0  0  0  0  0  0  0  0  0  0
   61.4445   -9.2235   10.8301 O   0  0  0  0  0  0  0  0  0  0  0  0
   65.6527   -9.1241   10.3346 C   0  0  0  0  0  0  0  0  0  0  0  0
   65.0372  -10.0605   11.2131 C   0  0  0  0  0  0  0  0  0  0  0  0
   63.6346  -10.0961   11.3501 C   0  0  0  0  0  0  0  0  0  0  0  0
   62.8354   -9.1981   10.6167 C   0  0  0  0  0  0  0  0  0  0  0  0
   63.4277   -8.2585    9.7399 C   0  0  0  0  0  0  0  0  0  0  0  0
   64.8289   -8.2199    9.5943 C   0  0  0  0  0  0  0  0  0  0  0  0
   67.0865   -9.0924   10.2198 N   0  0  0  0  0  0  0  0  0  0  0  0
   67.7949   -8.9047   11.4109 O   0  0  0  0  0  0  0  0  0  0  0  0
   67.6108   -9.2441    8.9303 O   0  0  0  0  0  0  0  0  0  0  0  0
   59.0416   -8.7591   11.9783 C   0  0  0  0  0  0  0  0  0  0  0  0
   59.2951   -9.3068   13.3738 C   0  0  0  0  0  0  0  0  0  0  0  0
   57.9805   -9.3458   14.1575 C   0  0  0  0  0  0  0  0  0  0  0  0
   56.8249   -8.9079   13.2561 C   0  0  0  0  0  0  0  0  0  0  0  0
   56.3142   -7.5561   13.7489 C   0  0  0  0  0  0  0  0  0  0  0  0
   56.5307   -6.5121   13.2052 O   0  0  0  0  0  0  0  0  0  0  0  0
   55.5932   -7.7497   14.8786 O   0  0  0  0  0  0  0  0  0  0  0  0
   55.4843   -8.6144   15.2225 H   0  0  0  0  0  0  0  0  0  0  0  0
  5 11  1  0  0  0
  5  6  2  0  0  0
  5 10  1  0  0  0
 11 12  1  0  0  0
 11 13  2  0  0  0
  6  7  1  0  0  0
  7  8  2  0  0  0
  8  9  1  0  0  0
  8  4  1  0  0  0
  9 10  2  0  0  0
  4  1  1  0  0  0
  1  2  2  0  0  0
  1  3  1  0  0  0
  1 14  1  0  0  0
 14 15  1  0  0  0
 15 16  1  0  0  0
 16 17  1  0  0  0
 17 18  1  0  0  0
 18 19  2  0  0  0
 18 20  1  0  0  0
 20 21  1  0  0  0
M  CHG 1   3  -1
M  CHG 1  11   1
M  CHG 1  12  -1
M  END
> <minimizedAffinity>
-6.62682

$$$$
1GAF_NPE_H_218


 21 21  0  0  0  0  0  0  0  0999 V2000
   62.7929  -10.5828   10.8226 P   0  0  0  0  0  0  0  0  0  0  0  0
   63.1372  -11.4371   11.9090 O   0  0  0  0  0  0  0  0  0  0  0  0
   61.7834  -11.2283   10.0413 O   0  0  0  0  0  0  0  0  0  0  0  0
   62.2178   -9.3175   11.4329 O   0  0  0  0  0  0  0  0  0  0  0  0
   58.2472   -8.4357   12.6250 C   0  0  0  0  0  0  0  0  0  0  0  0
   58.7770   -7.9337   11.4023 C   0  0  0  0  0  0  0  0  0  0  0  0
   60.0921   -8.2545   11.0088 C   0  0  0  0  0  0  0  0  0  0  0  0
   60.8899   -9.0736   11.8306 C   0  0  0  0  0  0  0  0  0  0  0  0
   60.3828   -9.5809   13.0504 C   0  0  0  0  0  0  0  0  0  0  0  0
   59.0676   -9.2682   13.4484 C   0  0  0  0  0  0  0  0  0  0  0  0
   56.9082   -8.0847   13.0174 N   0  0  0  0  0  0  0  0  0  0  0  0
   56.2398   -7.1820   12.1843 O   0  0  0  0  0  0  0  0  0  0  0  0
   56.4284   -8.6782   14.1914 O   0  0  0  0  0  0  0  0  0  0  0  0
   64.1610  -10.1716    9.7589 C   0  0  0  0  0  0  0  0  0  0  0  0
   64.7934   -8.8668   10.2161 C   0  0  0  0  0  0  0  0  0  0  0  0
   64.4485   -7.7527    9.2242 C   0  0  0  0  0  0  0  0  0  0  0  0
   65.0640   -8.0638    7.8588 C   0  0  0  0  0  0  0  0  0  0  0  0
   64.9323   -6.8246    6.9767 C   0  0  0  0  0  0  0  0  0  0  0  0
   63.9202   -6.4828    6.4370 O   0  0  0  0  0  0  0  0  0  0  0  0
   66.1337   -6.2024    6.9194 O   0  0  0  0  0  0  0  0  0  0  0  0
   66.8672   -6.5564    7.3827 H   0  0  0  0  0  0  0  0  0  0  0  0
  5 11  1  0  0  0
  5  6  2  0  0  0
  5 10  1  0  0  0
 11 12  1  0  0  0
 11 13  2  0  0  0
  6  7  1  0  0  0
  7  8  2  0  0  0
  8  9  1  0  0  0
  8  4  1  0  0  0
  9 10  2  0  0  0
  4  1  1  0  0  0
  1  2  2  0  0  0
  1  3  1  0  0  0
  1 14  1  0  0  0
 14 15  1  0  0  0
 15 16  1  0  0  0
 16 17  1  0  0  0
 17 18  1  0  0  0
 18 19  2  0  0  0
 18 20  1  0  0  0
 20 21  1  0  0  0
M  CHG 1   3  -1
M  CHG 1  11   1
M  CHG 1  12  -1
M  END
> <minimizedAffinity>
-6.37486

$$$$
1GAF_NPE_H_218


 21 21  0  0  0  0  0  0  0  0999 V2000
   56.9302   -7.9751   12.6015 P   0  0  0  0  0  0  0  0  0  0  0  0
   56.6285   -7.7117   11.2347 O   0  0  0  0  0  0  0  0  0  0  0  0
   56.9034   -9.3905   12.8066 O   0  0  0  0  0  0  0  0  0  0  0  0
   58.3394   -7.4636   12.8397 O   0  0  0  0  0  0  0  0  0  0  0  0
   62.0050   -8.8744   11.2467 C   0  0  0  0  0  0  0  0  0  0  0  0
   61.2479   -9.6622   12.1597 C   0  0  0  0  0  0  0  0  0  0  0  0
   60.0193   -9.1885   12.6634 C   0  0  0  0  0  0  0  0  0  0  0  0
   59.5378   -7.9267   12.2648 C   0  0  0  0  0  0  0  0  0  0  0  0
   60.2760   -7.1276   11.3600 C   0  0  0  0  0  0  0  0  0  0  0  0
   61.5028   -7.5962   10.8487 C   0  0  0  0  0  0  0  0  0  0  0  0
   63.2640   -9.3679   10.7555 N   0  0  0  0  0  0  0  0  0  0  0  0
   63.2813   -9.7902    9.4224 O   0  0  0  0  0  0  0  0  0  0  0  0
   64.3265   -9.3782   11.6674 O   0  0  0  0  0  0  0  0  0  0  0  0
   55.8082   -7.2107   13.7544 C   0  0  0  0  0  0  0  0  0  0  0  0
   55.8469   -7.9551   15.0796 C   0  0  0  0  0  0  0  0  0  0  0  0
   54.4195   -8.2745   15.5319 C   0  0  0  0  0  0  0  0  0  0  0  0
   54.4050   -9.5860   16.3190 C   0  0  0  0  0  0  0  0  0  0  0  0
   55.4600  -10.5165   15.7255 C   0  0  0  0  0  0  0  0  0  0  0  0
   56.5465  -10.6941   16.1950 O   0  0  0  0  0  0  0  0  0  0  0  0
   54.9558  -11.0865   14.6054 O   0  0  0  0  0  0  0  0  0  0  0  0
   54.0872  -10.8771   14.3234 H   0  0  0  0  0  0  0  0  0  0  0  0
  5 11  1  0  0  0
  5  6  2  0  0  0
  5 10  1  0  0  0
 11 12  1  0  0  0
 11 13  2  0  0  0
  6  7  1  0  0  0
  7  8  2  0  0  0
  8  9  1  0  0  0
  8  4  1  0  0  0
  9 10  2  0  0  0
  4  1  1  0  0  0
  1  2  2  0  0  0
  1  3  1  0  0  0
  1 14  1  0  0  0
 14 15  1  0  0  0
 15 16  1  0  0  0
 16 17  1  0  0  0
 17 18  1  0  0  0
 18 19  2  0  0  0
 18 20  1  0  0  0
 20 21  1  0  0  0
M  CHG 1   3  -1
M  CHG 1  11   1
M  CHG 1  12  -1
M  END
> <minimizedAffinity>
-6.26974

$$$$
1GAF_NPE_H_218


 21 21  0  0  0  0  0  0  0  0999 V2000
   61.7181   -8.6172   11.4451 P   0  0  0  0  0  0  0  0  0  0  0  0
   61.8635   -7.6615   12.4910 O   0  0  0  0  0  0  0  0  0  0  0  0
   62.1606   -9.8886   11.9288 O   0  0  0  0  0  0  0  0  0  0  0  0
   60.2349   -8.6922   11.1310 O   0  0  0  0  0  0  0  0  0  0  0  0
   56.9851   -9.0805   13.8239 C   0  0  0  0  0  0  0  0  0  0  0  0
   56.7876   -8.6057   12.4961 C   0  0  0  0  0  0  0  0  0  0  0  0
   57.8752   -8.5035   11.6051 C   0  0  0  0  0  0  0  0  0  0  0  0
   59.1668   -8.8695   12.0303 C   0  0  0  0  0  0  0  0  0  0  0  0
   59.3844   -9.3418   13.3463 C   0  0  0  0  0  0  0  0  0  0  0  0
   58.3014   -9.4509   14.2414 C   0  0  0  0  0  0  0  0  0  0  0  0
   55.8654   -9.1632   14.7237 N   0  0  0  0  0  0  0  0  0  0  0  0
   55.3668  -10.4466   14.9689 O   0  0  0  0  0  0  0  0  0  0  0  0
   55.3958   -7.9515   15.2453 O   0  0  0  0  0  0  0  0  0  0  0  0
   62.6286   -8.2215    9.9663 C   0  0  0  0  0  0  0  0  0  0  0  0
   64.0194   -8.8311   10.0405 C   0  0  0  0  0  0  0  0  0  0  0  0
   64.7143   -8.6935    8.6833 C   0  0  0  0  0  0  0  0  0  0  0  0
   65.0047   -7.2195    8.3953 C   0  0  0  0  0  0  0  0  0  0  0  0
   65.0500   -7.0235    6.8819 C   0  0  0  0  0  0  0  0  0  0  0  0
   65.9793   -7.3208    6.1887 O   0  0  0  0  0  0  0  0  0  0  0  0
   63.8816   -6.4692    6.4804 O   0  0  0  0  0  0  0  0  0  0  0  0
   63.2148   -6.2746    7.1093 H   0  0  0  0  0  0  0  0  0  0  0  0
  5 11  1  0  0  0
  5  6  2  0  0  0
  5 10  1  0  0  0
 11 12  1  0  0  0
 11 13  2  0  0  0
  6  7  1  0  0  0
  7  8  2  0  0  0
  8  9  1  0  0  0
  8  4  1  0  0  0
  9 10  2  0  0  0
  4  1  1  0  0  0
  1  2  2  0  0  0
  1  3  1  0  0  0
  1 14  1  0  0  0
 14 15  1  0  0  0
 15 16  1  0  0  0
 16 17  1  0  0  0
 17 18  1  0  0  0
 18 19  2  0  0  0
 18 20  1  0  0  0
 20 21  1  0  0  0
M  CHG 1   3  -1
M  CHG 1  11   1
M  CHG 1  12  -1
M  END
> <minimizedAffinity>
-6.25435

$$$$
