3B4F_TUO_A_300
  RCSB PDB12061707583D
Coordinates from PDB:3B4F:A:300 Model:1 without hydrogens
 23 25  0  0  0  0            999 V2000
   -2.4140    1.6580   11.2490   C 0  0  0  0  0  0  0  0  0  0  0  0
   -1.9940    0.4340   10.7000   C 0  0  0  0  0  0  0  0  0  0  0  0
   -2.8160   -0.6950   10.7670   C 0  0  0  0  0  0  0  0  0  0  0  0
   -4.0750   -0.6110   11.3640   C 0  0  0  0  0  0  0  0  0  0  0  0
   -4.4930    0.6050   11.8950   C 0  0  0  0  0  0  0  0  0  0  0  0
   -3.6840    1.7580   11.8330   C 0  0  0  0  0  0  0  0  0  0  0  0
   -4.1570    2.9510   12.4100   C 0  0  0  0  0  0  0  0  0  0  0  0
   -4.7460    2.9690   13.6630   C 0  0  0  0  0  0  0  0  0  0  0  0
   -5.0200    1.9580   14.5960   C 0  0  0  0  0  0  0  0  0  0  0  0
   -5.6280    2.3050   15.7980   C 0  0  0  0  0  0  0  0  0  0  0  0
   -6.1020    1.2520   17.1160   S 0  0  0  0  0  0  0  0  0  0  0  0
   -5.2090    0.8740   18.2180   O 0  0  0  0  0  0  0  0  0  0  0  0
   -7.5510    1.0130   17.0290   O 0  0  0  0  0  0  0  0  0  0  0  0
   -5.6520   -0.1380   16.4070   N 0  0  0  0  0  0  0  0  0  0  0  0
   -5.9790    3.6350   16.0300   C 0  0  0  0  0  0  0  0  0  0  0  0
   -5.7020    4.6350   15.1040   C 0  0  0  0  0  0  0  0  0  0  0  0
   -5.0820    4.3000   13.9150   C 0  0  0  0  0  0  0  0  0  0  0  0
   -4.7130    5.0600   12.8800   N 0  0  0  0  0  0  0  0  0  0  0  0
   -4.1610    4.2810   11.9520   C 0  0  0  0  0  0  0  0  0  0  0  0
   -3.6340    4.9130   10.6450   C 0  0  0  0  0  0  0  0  0  0  0  0
   -3.1760    6.0570   10.6680   O 0  0  0  0  0  0  0  0  0  0  0  0
   -3.7040    4.2100    9.5330   N 0  0  0  0  0  0  0  0  0  0  0  0
   -4.2070    2.9650    9.4790   N 0  0  0  0  0  0  0  0  0  0  0  0
  1  6  1  0  0  0  0
  2  1  2  0  0  0  0
  2  3  1  0  0  0  0
  3  4  2  0  0  0  0
  4  5  1  0  0  0  0
  6  5  2  0  0  0  0
  6  7  1  0  0  0  0
  7  8  1  0  0  0  0
  8 17  2  0  0  0  0
  8  9  1  0  0  0  0
  9 10  2  0  0  0  0
 10 15  1  0  0  0  0
 10 11  1  0  0  0  0
 11 12  2  0  0  0  0
 13 11  2  0  0  0  0
 14 11  1  0  0  0  0
 16 15  2  0  0  0  0
 17 16  1  0  0  0  0
 18 17  1  0  0  0  0
 19  7  2  0  0  0  0
 19 18  1  0  0  0  0
 20 19  1  0  0  0  0
 20 21  2  0  0  0  0
 22 20  1  0  0  0  0
 23 22  1  0  0  0  0
A    1
CAE
A    2
CAA
A    3
CAB
A    4
CAC
A    5
CAG
A    6
CAF
A    7
CAN
A    8
CAM
A    9
CAL
A   10
CAK
A   11
SAJ
A   12
OAS
A   13
OAD
A   14
NAI
A   15
CAT
A   16
CAU
A   17
CAV
A   18
NAW
A   19
CAO
A   20
CAP
A   21
OAH
A   22
NAQ
A   23
NAR
M  END
>  <InstanceId>
3B4F_TUO_A_300

>  <ChemCompId>
TUO

>  <PdbId>
3B4F

>  <ChainId>
A

>  <ResidueNumber>
300

>  <InsertionCode>


>  <Model>
1

>  <AltIds>


>  <MissingHeavyAtoms>
0

>  <ObservedFormula>
C15 N4 O3 S

>  <Name>
2-(hydrazinocarbonyl)-3-phenyl-1H-indole-5-sulfonamide

>  <SystematicName>
2-(aminocarbamoyl)-3-phenyl-1H-indole-5-sulfonamide

>  <Synonyms>


>  <Type>
NON-POLYMER

>  <Formula>
C15 H14 N4 O3 S

>  <MolecularWeight>
330.362

>  <ModifiedDate>
2011-06-04

>  <Parent>


>  <OneLetterCode>


>  <SubcomponentList>


>  <AmbiguousFlag>
N

>  <InChI>
InChI=1S/C15H14N4O3S/c16-19-15(20)14-13(9-4-2-1-3-5-9)11-8-10(23(17,21)22)6-7-12(11)18-14/h1-8,18H,16H2,(H,19,20)(H2,17,21,22)

>  <InChIKey>
PPDLAUCFAOODER-UHFFFAOYSA-N

>  <SMILES>
c1ccc(cc1)c2c3cc(ccc3[nH]c2C(=O)NN)S(=O)(=O)N

$$$$
