3B4F_TUO_A_300


 29 31  0  0  0  0  0  0  0  0999 V2000
   -4.0053    3.1556   12.1842 C   0  0  0  0  0  0  0  0  0  0  0  0
   -4.5894    3.1993   13.4389 C   0  0  0  0  0  0  0  0  0  0  0  0
   -4.9266    2.1989   14.3625 C   0  0  0  0  0  0  0  0  0  0  0  0
   -5.5084    2.5725   15.5695 C   0  0  0  0  0  0  0  0  0  0  0  0
   -5.7717    3.9201   15.8156 C   0  0  0  0  0  0  0  0  0  0  0  0
   -5.4322    4.9093   14.8988 C   0  0  0  0  0  0  0  0  0  0  0  0
   -4.8377    4.5467   13.7049 C   0  0  0  0  0  0  0  0  0  0  0  0
   -4.4221    5.2915   12.6765 N   0  0  0  0  0  0  0  0  0  0  0  0
   -3.9238    4.4876   11.7394 C   0  0  0  0  0  0  0  0  0  0  0  0
   -4.4756    6.2729   12.6208 H   0  0  0  0  0  0  0  0  0  0  0  0
   -3.3595    5.0972   10.4373 C   0  0  0  0  0  0  0  0  0  0  0  0
   -2.1433    5.0785   10.2381 O   0  0  0  0  0  0  0  0  0  0  0  0
   -4.2006    5.6363    9.5785 N   0  0  0  0  0  0  0  0  0  0  0  0
   -5.5292    5.6778    9.7758 N   0  0  0  0  0  0  0  0  0  0  0  0
   -3.8379    6.0280    8.7513 H   0  0  0  0  0  0  0  0  0  0  0  0
   -5.7544    5.2374   10.6678 H   0  0  0  0  0  0  0  0  0  0  0  0
   -6.0008    5.1787    9.0215 H   0  0  0  0  0  0  0  0  0  0  0  0
   -2.2686    1.6225   11.3529 C   0  0  0  0  0  0  0  0  0  0  0  0
   -1.9388    0.3858   10.7716 C   0  0  0  0  0  0  0  0  0  0  0  0
   -2.9359   -0.5464   10.4688 C   0  0  0  0  0  0  0  0  0  0  0  0
   -4.2755   -0.2475   10.7232 C   0  0  0  0  0  0  0  0  0  0  0  0
   -4.5998    0.9824   11.2867 C   0  0  0  0  0  0  0  0  0  0  0  0
   -3.6120    1.9403   11.5941 C   0  0  0  0  0  0  0  0  0  0  0  0
   -6.0471    1.5394   16.8783 S   0  0  0  0  0  0  0  0  0  0  0  0
   -7.4594    1.2739   17.1778 O   0  0  0  0  0  0  0  0  0  0  0  0
   -4.8773    0.8520   17.4467 O   0  0  0  0  0  0  0  0  0  0  0  0
   -6.1306    2.7052   18.0057 N   0  0  0  0  0  0  0  0  0  0  0  0
   -6.9119    3.3263   17.7954 H   0  0  0  0  0  0  0  0  0  0  0  0
   -5.2620    3.2400   18.0067 H   0  0  0  0  0  0  0  0  0  0  0  0
 18 23  1  0  0  0
 19 18  2  0  0  0
 19 20  1  0  0  0
 20 21  2  0  0  0
 21 22  1  0  0  0
 23 22  2  0  0  0
 23  1  1  0  0  0
  1  2  1  0  0  0
  2  7  2  0  0  0
  2  3  1  0  0  0
  3  4  2  0  0  0
  4  5  1  0  0  0
  4 24  1  0  0  0
 24 25  2  0  0  0
 26 24  2  0  0  0
 27 24  1  0  0  0
  6  5  2  0  0  0
  7  6  1  0  0  0
  8  7  1  0  0  0
  9  1  2  0  0  0
  9  8  1  0  0  0
 11  9  1  0  0  0
 11 12  2  0  0  0
 13 11  1  0  0  0
 14 13  1  0  0  0
 27 28  1  0  0  0
 27 29  1  0  0  0
  8 10  1  0  0  0
 13 15  1  0  0  0
 14 16  1  0  0  0
 14 17  1  0  0  0
M  END
> <minimizedAffinity>
-9.23019

$$$$
3B4F_TUO_A_300


 29 31  0  0  0  0  0  0  0  0999 V2000
   -4.3731    3.4283   12.6868 C   0  0  0  0  0  0  0  0  0  0  0  0
   -4.8689    3.3628   13.9780 C   0  0  0  0  0  0  0  0  0  0  0  0
   -4.9810    2.3097   14.8978 C   0  0  0  0  0  0  0  0  0  0  0  0
   -5.5295    2.5711   16.1491 C   0  0  0  0  0  0  0  0  0  0  0  0
   -5.9829    3.8569   16.4440 C   0  0  0  0  0  0  0  0  0  0  0  0
   -5.8663    4.8992   15.5306 C   0  0  0  0  0  0  0  0  0  0  0  0
   -5.3061    4.6506   14.2918 C   0  0  0  0  0  0  0  0  0  0  0  0
   -5.0841    5.4650   13.2562 N   0  0  0  0  0  0  0  0  0  0  0  0
   -4.5319    4.7622   12.2694 C   0  0  0  0  0  0  0  0  0  0  0  0
   -5.2942    6.4264   13.2276 H   0  0  0  0  0  0  0  0  0  0  0  0
   -4.1610    5.4702   10.9478 C   0  0  0  0  0  0  0  0  0  0  0  0
   -4.9598    5.4565   10.0093 O   0  0  0  0  0  0  0  0  0  0  0  0
   -2.9862    6.0596   10.8576 N   0  0  0  0  0  0  0  0  0  0  0  0
   -2.0938    6.0810   11.8621 N   0  0  0  0  0  0  0  0  0  0  0  0
   -2.7505    6.5064   10.0126 H   0  0  0  0  0  0  0  0  0  0  0  0
   -2.4747    5.5821   12.6661 H   0  0  0  0  0  0  0  0  0  0  0  0
   -1.8987    7.0476   12.1230 H   0  0  0  0  0  0  0  0  0  0  0  0
   -4.6329    1.2269   11.6172 C   0  0  0  0  0  0  0  0  0  0  0  0
   -4.0380    0.1310   10.9684 C   0  0  0  0  0  0  0  0  0  0  0  0
   -2.6643    0.1181   10.7087 C   0  0  0  0  0  0  0  0  0  0  0  0
   -1.8646    1.1890   11.1116 C   0  0  0  0  0  0  0  0  0  0  0  0
   -2.4543    2.2663   11.7649 C   0  0  0  0  0  0  0  0  0  0  0  0
   -3.8361    2.2981   12.0433 C   0  0  0  0  0  0  0  0  0  0  0  0
   -5.8085    1.4488   17.4656 S   0  0  0  0  0  0  0  0  0  0  0  0
   -5.5703    0.0036   17.3682 O   0  0  0  0  0  0  0  0  0  0  0  0
   -6.0979    2.2180   18.6858 O   0  0  0  0  0  0  0  0  0  0  0  0
   -7.3548    1.1179   17.0959 N   0  0  0  0  0  0  0  0  0  0  0  0
   -7.3887    0.5642   16.2400 H   0  0  0  0  0  0  0  0  0  0  0  0
   -7.8653    1.9900   16.9571 H   0  0  0  0  0  0  0  0  0  0  0  0
 18 23  1  0  0  0
 19 18  2  0  0  0
 19 20  1  0  0  0
 20 21  2  0  0  0
 21 22  1  0  0  0
 23 22  2  0  0  0
 23  1  1  0  0  0
  1  2  1  0  0  0
  2  7  2  0  0  0
  2  3  1  0  0  0
  3  4  2  0  0  0
  4  5  1  0  0  0
  4 24  1  0  0  0
 24 25  2  0  0  0
 26 24  2  0  0  0
 27 24  1  0  0  0
  6  5  2  0  0  0
  7  6  1  0  0  0
  8  7  1  0  0  0
  9  1  2  0  0  0
  9  8  1  0  0  0
 11  9  1  0  0  0
 11 12  2  0  0  0
 13 11  1  0  0  0
 14 13  1  0  0  0
 27 28  1  0  0  0
 27 29  1  0  0  0
  8 10  1  0  0  0
 13 15  1  0  0  0
 14 16  1  0  0  0
 14 17  1  0  0  0
M  END
> <minimizedAffinity>
-9.14170

$$$$
3B4F_TUO_A_300


 29 31  0  0  0  0  0  0  0  0999 V2000
   -2.9175    4.4984   12.9364 C   0  0  0  0  0  0  0  0  0  0  0  0
   -2.7522    3.3249   12.2203 C   0  0  0  0  0  0  0  0  0  0  0  0
   -3.5560    2.1851   12.0701 C   0  0  0  0  0  0  0  0  0  0  0  0
   -3.1048    1.1520   11.2554 C   0  0  0  0  0  0  0  0  0  0  0  0
   -1.8577    1.2591   10.6395 C   0  0  0  0  0  0  0  0  0  0  0  0
   -1.0656    2.3926   10.7877 C   0  0  0  0  0  0  0  0  0  0  0  0
   -1.5157    3.4306   11.5817 C   0  0  0  0  0  0  0  0  0  0  0  0
   -0.9550    4.6059   11.8803 N   0  0  0  0  0  0  0  0  0  0  0  0
   -1.7661    5.2712   12.7003 C   0  0  0  0  0  0  0  0  0  0  0  0
   -0.0855    4.9272   11.5487 H   0  0  0  0  0  0  0  0  0  0  0  0
   -1.3593    6.6762   13.1962 C   0  0  0  0  0  0  0  0  0  0  0  0
   -1.3191    6.9021   14.4072 O   0  0  0  0  0  0  0  0  0  0  0  0
   -1.0795    7.6027   12.3024 N   0  0  0  0  0  0  0  0  0  0  0  0
   -1.1247    7.3851   10.9770 N   0  0  0  0  0  0  0  0  0  0  0  0
   -0.8247    8.4987   12.6211 H   0  0  0  0  0  0  0  0  0  0  0  0
   -1.4015    6.4195   10.8002 H   0  0  0  0  0  0  0  0  0  0  0  0
   -0.2034    7.5541   10.5731 H   0  0  0  0  0  0  0  0  0  0  0  0
   -5.1540    5.4861   13.2195 C   0  0  0  0  0  0  0  0  0  0  0  0
   -6.2851    5.6810   14.0310 C   0  0  0  0  0  0  0  0  0  0  0  0
   -6.3569    5.1028   15.3020 C   0  0  0  0  0  0  0  0  0  0  0  0
   -5.2925    4.3407   15.7865 C   0  0  0  0  0  0  0  0  0  0  0  0
   -4.1690    4.1604   14.9861 C   0  0  0  0  0  0  0  0  0  0  0  0
   -4.0718    4.7391   13.7041 C   0  0  0  0  0  0  0  0  0  0  0  0
   -3.8858   -0.3793   10.9149 S   0  0  0  0  0  0  0  0  0  0  0  0
   -3.3826   -1.6737   11.3904 O   0  0  0  0  0  0  0  0  0  0  0  0
   -5.1888   -0.1129   10.2860 O   0  0  0  0  0  0  0  0  0  0  0  0
   -3.0851   -0.6874    9.5360 N   0  0  0  0  0  0  0  0  0  0  0  0
   -2.1123   -0.9072    9.7496 H   0  0  0  0  0  0  0  0  0  0  0  0
   -3.1234    0.1323    8.9302 H   0  0  0  0  0  0  0  0  0  0  0  0
 18 23  1  0  0  0
 19 18  2  0  0  0
 19 20  1  0  0  0
 20 21  2  0  0  0
 21 22  1  0  0  0
 23 22  2  0  0  0
 23  1  1  0  0  0
  1  2  1  0  0  0
  2  7  2  0  0  0
  2  3  1  0  0  0
  3  4  2  0  0  0
  4  5  1  0  0  0
  4 24  1  0  0  0
 24 25  2  0  0  0
 26 24  2  0  0  0
 27 24  1  0  0  0
  6  5  2  0  0  0
  7  6  1  0  0  0
  8  7  1  0  0  0
  9  1  2  0  0  0
  9  8  1  0  0  0
 11  9  1  0  0  0
 11 12  2  0  0  0
 13 11  1  0  0  0
 14 13  1  0  0  0
 27 28  1  0  0  0
 27 29  1  0  0  0
  8 10  1  0  0  0
 13 15  1  0  0  0
 14 16  1  0  0  0
 14 17  1  0  0  0
M  END
> <minimizedAffinity>
-7.91160

$$$$
3B4F_TUO_A_300


 29 31  0  0  0  0  0  0  0  0999 V2000
   -3.2156    3.3739   12.6768 C   0  0  0  0  0  0  0  0  0  0  0  0
   -2.1563    4.2449   12.4855 C   0  0  0  0  0  0  0  0  0  0  0  0
   -1.0264    4.1951   11.6557 C   0  0  0  0  0  0  0  0  0  0  0  0
   -0.1274    5.2560   11.6868 C   0  0  0  0  0  0  0  0  0  0  0  0
   -0.3519    6.3197   12.5610 C   0  0  0  0  0  0  0  0  0  0  0  0
   -1.4754    6.3671   13.3792 C   0  0  0  0  0  0  0  0  0  0  0  0
   -2.3821    5.3246   13.3406 C   0  0  0  0  0  0  0  0  0  0  0  0
   -3.5203    5.1338   14.0139 N   0  0  0  0  0  0  0  0  0  0  0  0
   -4.0445    3.9664   13.6467 C   0  0  0  0  0  0  0  0  0  0  0  0
   -3.9075    5.7543   14.6729 H   0  0  0  0  0  0  0  0  0  0  0  0
   -5.3788    3.5027   14.2713 C   0  0  0  0  0  0  0  0  0  0  0  0
   -6.4381    3.7634   13.6978 O   0  0  0  0  0  0  0  0  0  0  0  0
   -5.3451    2.8499   15.4151 N   0  0  0  0  0  0  0  0  0  0  0  0
   -4.2050    2.5612   16.0652 N   0  0  0  0  0  0  0  0  0  0  0  0
   -6.1973    2.5593   15.8133 H   0  0  0  0  0  0  0  0  0  0  0  0
   -3.4111    2.9224   15.5363 H   0  0  0  0  0  0  0  0  0  0  0  0
   -4.1162    1.5498   16.1633 H   0  0  0  0  0  0  0  0  0  0  0  0
   -4.5430    1.5215   11.7471 C   0  0  0  0  0  0  0  0  0  0  0  0
   -4.5805    0.3227   11.0138 C   0  0  0  0  0  0  0  0  0  0  0  0
   -3.4115   -0.2111   10.4632 C   0  0  0  0  0  0  0  0  0  0  0  0
   -2.1883    0.4335   10.6551 C   0  0  0  0  0  0  0  0  0  0  0  0
   -2.1526    1.6129   11.3921 C   0  0  0  0  0  0  0  0  0  0  0  0
   -3.3173    2.1660   11.9622 C   0  0  0  0  0  0  0  0  0  0  0  0
    1.3634    5.4396   10.7843 S   0  0  0  0  0  0  0  0  0  0  0  0
    1.6418    4.7449    9.5215 O   0  0  0  0  0  0  0  0  0  0  0  0
    2.1454    6.5312   11.3852 O   0  0  0  0  0  0  0  0  0  0  0  0
    2.1647    4.2287   11.5115 N   0  0  0  0  0  0  0  0  0  0  0  0
    1.7666    3.3353   11.2218 H   0  0  0  0  0  0  0  0  0  0  0  0
    2.0818    4.3256   12.5235 H   0  0  0  0  0  0  0  0  0  0  0  0
 18 23  1  0  0  0
 19 18  2  0  0  0
 19 20  1  0  0  0
 20 21  2  0  0  0
 21 22  1  0  0  0
 23 22  2  0  0  0
 23  1  1  0  0  0
  1  2  1  0  0  0
  2  7  2  0  0  0
  2  3  1  0  0  0
  3  4  2  0  0  0
  4  5  1  0  0  0
  4 24  1  0  0  0
 24 25  2  0  0  0
 26 24  2  0  0  0
 27 24  1  0  0  0
  6  5  2  0  0  0
  7  6  1  0  0  0
  8  7  1  0  0  0
  9  1  2  0  0  0
  9  8  1  0  0  0
 11  9  1  0  0  0
 11 12  2  0  0  0
 13 11  1  0  0  0
 14 13  1  0  0  0
 27 28  1  0  0  0
 27 29  1  0  0  0
  8 10  1  0  0  0
 13 15  1  0  0  0
 14 16  1  0  0  0
 14 17  1  0  0  0
M  END
> <minimizedAffinity>
-7.28489

$$$$
3B4F_TUO_A_300


 29 31  0  0  0  0  0  0  0  0999 V2000
   -4.5369    2.5252   13.6013 C   0  0  0  0  0  0  0  0  0  0  0  0
   -4.8364    3.8224   13.2206 C   0  0  0  0  0  0  0  0  0  0  0  0
   -4.6782    4.5157   12.0115 C   0  0  0  0  0  0  0  0  0  0  0  0
   -5.0949    5.8410   11.9418 C   0  0  0  0  0  0  0  0  0  0  0  0
   -5.6244    6.4539   13.0775 C   0  0  0  0  0  0  0  0  0  0  0  0
   -5.7832    5.7618   14.2733 C   0  0  0  0  0  0  0  0  0  0  0  0
   -5.3876    4.4394   14.3447 C   0  0  0  0  0  0  0  0  0  0  0  0
   -5.4333    3.5693   15.3575 N   0  0  0  0  0  0  0  0  0  0  0  0
   -4.9217    2.4098   14.9493 C   0  0  0  0  0  0  0  0  0  0  0  0
   -5.7870    3.7549   16.2573 H   0  0  0  0  0  0  0  0  0  0  0  0
   -4.8632    1.2181   15.9300 C   0  0  0  0  0  0  0  0  0  0  0  0
   -3.8501    0.5173   15.9707 O   0  0  0  0  0  0  0  0  0  0  0  0
   -5.9121    0.9756   16.6894 N   0  0  0  0  0  0  0  0  0  0  0  0
   -7.0317    1.7182   16.6579 N   0  0  0  0  0  0  0  0  0  0  0  0
   -5.8739    0.2128   17.3105 H   0  0  0  0  0  0  0  0  0  0  0  0
   -6.9246    2.4660   15.9725 H   0  0  0  0  0  0  0  0  0  0  0  0
   -7.1973    2.1229   17.5794 H   0  0  0  0  0  0  0  0  0  0  0  0
   -4.5666    0.3740   12.4058 C   0  0  0  0  0  0  0  0  0  0  0  0
   -3.9527   -0.4977   11.4896 C   0  0  0  0  0  0  0  0  0  0  0  0
   -2.7691   -0.1306   10.8422 C   0  0  0  0  0  0  0  0  0  0  0  0
   -2.1730    1.1014   11.1166 C   0  0  0  0  0  0  0  0  0  0  0  0
   -2.7762    1.9564   12.0334 C   0  0  0  0  0  0  0  0  0  0  0  0
   -3.9660    1.6048   12.7031 C   0  0  0  0  0  0  0  0  0  0  0  0
   -4.9929    6.9385   10.5796 S   0  0  0  0  0  0  0  0  0  0  0  0
   -6.0231    7.9328   10.2559 O   0  0  0  0  0  0  0  0  0  0  0  0
   -3.6504    6.8299    9.9878 O   0  0  0  0  0  0  0  0  0  0  0  0
   -5.7353    5.9679    9.5100 N   0  0  0  0  0  0  0  0  0  0  0  0
   -6.7256    5.8986    9.7440 H   0  0  0  0  0  0  0  0  0  0  0  0
   -5.3125    5.0402    9.5423 H   0  0  0  0  0  0  0  0  0  0  0  0
 18 23  1  0  0  0
 19 18  2  0  0  0
 19 20  1  0  0  0
 20 21  2  0  0  0
 21 22  1  0  0  0
 23 22  2  0  0  0
 23  1  1  0  0  0
  1  2  1  0  0  0
  2  7  2  0  0  0
  2  3  1  0  0  0
  3  4  2  0  0  0
  4  5  1  0  0  0
  4 24  1  0  0  0
 24 25  2  0  0  0
 26 24  2  0  0  0
 27 24  1  0  0  0
  6  5  2  0  0  0
  7  6  1  0  0  0
  8  7  1  0  0  0
  9  1  2  0  0  0
  9  8  1  0  0  0
 11  9  1  0  0  0
 11 12  2  0  0  0
 13 11  1  0  0  0
 14 13  1  0  0  0
 27 28  1  0  0  0
 27 29  1  0  0  0
  8 10  1  0  0  0
 13 15  1  0  0  0
 14 16  1  0  0  0
 14 17  1  0  0  0
M  END
> <minimizedAffinity>
-7.11068

$$$$
3B4F_TUO_A_300


 29 31  0  0  0  0  0  0  0  0999 V2000
   -3.6183    4.3365   13.2467 C   0  0  0  0  0  0  0  0  0  0  0  0
   -2.7065    5.3776   13.2043 C   0  0  0  0  0  0  0  0  0  0  0  0
   -2.4262    6.4287   14.0900 C   0  0  0  0  0  0  0  0  0  0  0  0
   -1.4203    7.3308   13.7594 C   0  0  0  0  0  0  0  0  0  0  0  0
   -0.7433    7.1892   12.5480 C   0  0  0  0  0  0  0  0  0  0  0  0
   -1.0215    6.1434   11.6745 C   0  0  0  0  0  0  0  0  0  0  0  0
   -2.0077    5.2331   12.0048 C   0  0  0  0  0  0  0  0  0  0  0  0
   -2.4573    4.1590   11.3498 N   0  0  0  0  0  0  0  0  0  0  0  0
   -3.4327    3.5997   12.0629 C   0  0  0  0  0  0  0  0  0  0  0  0
   -2.1226    3.8345   10.4826 H   0  0  0  0  0  0  0  0  0  0  0  0
   -4.1257    2.3249   11.5337 C   0  0  0  0  0  0  0  0  0  0  0  0
   -5.3539    2.3010   11.4343 O   0  0  0  0  0  0  0  0  0  0  0  0
   -3.3780    1.2878   11.2158 N   0  0  0  0  0  0  0  0  0  0  0  0
   -2.0385    1.2847   11.3236 N   0  0  0  0  0  0  0  0  0  0  0  0
   -3.8225    0.4750   10.8829 H   0  0  0  0  0  0  0  0  0  0  0  0
   -1.7239    2.1876   11.6789 H   0  0  0  0  0  0  0  0  0  0  0  0
   -1.6240    1.1169   10.4069 H   0  0  0  0  0  0  0  0  0  0  0  0
   -4.4645    3.0317   15.1544 C   0  0  0  0  0  0  0  0  0  0  0  0
   -5.3599    2.9267   16.2329 C   0  0  0  0  0  0  0  0  0  0  0  0
   -6.2547    3.9626   16.5179 C   0  0  0  0  0  0  0  0  0  0  0  0
   -6.2809    5.1062   15.7179 C   0  0  0  0  0  0  0  0  0  0  0  0
   -5.4023    5.2015   14.6436 C   0  0  0  0  0  0  0  0  0  0  0  0
   -4.4961    4.1669   14.3333 C   0  0  0  0  0  0  0  0  0  0  0  0
   -0.8860    8.7356   14.6603 S   0  0  0  0  0  0  0  0  0  0  0  0
   -1.6055    9.2839   15.8163 O   0  0  0  0  0  0  0  0  0  0  0  0
    0.4618    9.1045   14.2000 O   0  0  0  0  0  0  0  0  0  0  0  0
   -1.6827    9.8349   13.7692 N   0  0  0  0  0  0  0  0  0  0  0  0
   -2.6844    9.7517   13.9427 H   0  0  0  0  0  0  0  0  0  0  0  0
   -1.4943    9.6721   12.7801 H   0  0  0  0  0  0  0  0  0  0  0  0
 18 23  1  0  0  0
 19 18  2  0  0  0
 19 20  1  0  0  0
 20 21  2  0  0  0
 21 22  1  0  0  0
 23 22  2  0  0  0
 23  1  1  0  0  0
  1  2  1  0  0  0
  2  7  2  0  0  0
  2  3  1  0  0  0
  3  4  2  0  0  0
  4  5  1  0  0  0
  4 24  1  0  0  0
 24 25  2  0  0  0
 26 24  2  0  0  0
 27 24  1  0  0  0
  6  5  2  0  0  0
  7  6  1  0  0  0
  8  7  1  0  0  0
  9  1  2  0  0  0
  9  8  1  0  0  0
 11  9  1  0  0  0
 11 12  2  0  0  0
 13 11  1  0  0  0
 14 13  1  0  0  0
 27 28  1  0  0  0
 27 29  1  0  0  0
  8 10  1  0  0  0
 13 15  1  0  0  0
 14 16  1  0  0  0
 14 17  1  0  0  0
M  END
> <minimizedAffinity>
-6.95307

$$$$
3B4F_TUO_A_300


 29 31  0  0  0  0  0  0  0  0999 V2000
   -2.0046    3.6990   11.5039 C   0  0  0  0  0  0  0  0  0  0  0  0
   -2.1806    4.7482   12.3902 C   0  0  0  0  0  0  0  0  0  0  0  0
   -1.6032    6.0237   12.4756 C   0  0  0  0  0  0  0  0  0  0  0  0
   -2.0053    6.8718   13.5023 C   0  0  0  0  0  0  0  0  0  0  0  0
   -2.9406    6.4237   14.4351 C   0  0  0  0  0  0  0  0  0  0  0  0
   -3.5137    5.1597   14.3446 C   0  0  0  0  0  0  0  0  0  0  0  0
   -3.1319    4.3183   13.3167 C   0  0  0  0  0  0  0  0  0  0  0  0
   -3.5259    3.0783   13.0132 N   0  0  0  0  0  0  0  0  0  0  0  0
   -2.8623    2.6702   11.9335 C   0  0  0  0  0  0  0  0  0  0  0  0
   -4.1965    2.5529   13.5067 H   0  0  0  0  0  0  0  0  0  0  0  0
   -3.1376    1.2631   11.3593 C   0  0  0  0  0  0  0  0  0  0  0  0
   -2.1950    0.4918   11.1705 O   0  0  0  0  0  0  0  0  0  0  0  0
   -4.3801    0.9323   11.0726 N   0  0  0  0  0  0  0  0  0  0  0  0
   -5.4242    1.7574   11.2601 N   0  0  0  0  0  0  0  0  0  0  0  0
   -4.5524    0.0364   10.7026 H   0  0  0  0  0  0  0  0  0  0  0  0
   -5.0935    2.6419   11.6458 H   0  0  0  0  0  0  0  0  0  0  0  0
   -6.0839    1.3289   11.9094 H   0  0  0  0  0  0  0  0  0  0  0  0
    0.2701    3.5953   10.5696 C   0  0  0  0  0  0  0  0  0  0  0  0
    1.1107    3.6855    9.4466 C   0  0  0  0  0  0  0  0  0  0  0  0
    0.5778    3.9265    8.1767 C   0  0  0  0  0  0  0  0  0  0  0  0
   -0.7977    4.1009    8.0153 C   0  0  0  0  0  0  0  0  0  0  0  0
   -1.6257    4.0239    9.1306 C   0  0  0  0  0  0  0  0  0  0  0  0
   -1.1100    3.7885   10.4215 C   0  0  0  0  0  0  0  0  0  0  0  0
   -1.4354    8.4906   13.8561 S   0  0  0  0  0  0  0  0  0  0  0  0
   -1.5754    9.6233   12.9330 O   0  0  0  0  0  0  0  0  0  0  0  0
   -1.0144    8.5434   15.2648 O   0  0  0  0  0  0  0  0  0  0  0  0
    0.0528    8.2975   13.2353 N   0  0  0  0  0  0  0  0  0  0  0  0
   -0.0082    8.2348   12.2191 H   0  0  0  0  0  0  0  0  0  0  0  0
    0.4668    7.4416   13.6046 H   0  0  0  0  0  0  0  0  0  0  0  0
 18 23  1  0  0  0
 19 18  2  0  0  0
 19 20  1  0  0  0
 20 21  2  0  0  0
 21 22  1  0  0  0
 23 22  2  0  0  0
 23  1  1  0  0  0
  1  2  1  0  0  0
  2  7  2  0  0  0
  2  3  1  0  0  0
  3  4  2  0  0  0
  4  5  1  0  0  0
  4 24  1  0  0  0
 24 25  2  0  0  0
 26 24  2  0  0  0
 27 24  1  0  0  0
  6  5  2  0  0  0
  7  6  1  0  0  0
  8  7  1  0  0  0
  9  1  2  0  0  0
  9  8  1  0  0  0
 11  9  1  0  0  0
 11 12  2  0  0  0
 13 11  1  0  0  0
 14 13  1  0  0  0
 27 28  1  0  0  0
 27 29  1  0  0  0
  8 10  1  0  0  0
 13 15  1  0  0  0
 14 16  1  0  0  0
 14 17  1  0  0  0
M  END
> <minimizedAffinity>
-6.91633

$$$$
3B4F_TUO_A_300


 29 31  0  0  0  0  0  0  0  0999 V2000
   -3.9317    4.4902   12.2369 C   0  0  0  0  0  0  0  0  0  0  0  0
   -4.4568    5.4644   11.4049 C   0  0  0  0  0  0  0  0  0  0  0  0
   -4.4756    5.6096   10.0098 C   0  0  0  0  0  0  0  0  0  0  0  0
   -5.1048    6.7229    9.4624 C   0  0  0  0  0  0  0  0  0  0  0  0
   -5.6674    7.6781   10.3091 C   0  0  0  0  0  0  0  0  0  0  0  0
   -5.6500    7.5284   11.6917 C   0  0  0  0  0  0  0  0  0  0  0  0
   -5.0420    6.4157   12.2418 C   0  0  0  0  0  0  0  0  0  0  0  0
   -4.8938    6.0442   13.5166 N   0  0  0  0  0  0  0  0  0  0  0  0
   -4.2226    4.8948   13.5524 C   0  0  0  0  0  0  0  0  0  0  0  0
   -5.2260    6.5388   14.3003 H   0  0  0  0  0  0  0  0  0  0  0  0
   -3.9212    4.2332   14.9150 C   0  0  0  0  0  0  0  0  0  0  0  0
   -2.7518    4.1238   15.2889 O   0  0  0  0  0  0  0  0  0  0  0  0
   -4.9303    3.7888   15.6360 N   0  0  0  0  0  0  0  0  0  0  0  0
   -6.2130    3.8873   15.2474 N   0  0  0  0  0  0  0  0  0  0  0  0
   -4.7351    3.3636   16.5022 H   0  0  0  0  0  0  0  0  0  0  0  0
   -6.2583    4.3462   14.3376 H   0  0  0  0  0  0  0  0  0  0  0  0
   -6.7343    4.4359   15.9313 H   0  0  0  0  0  0  0  0  0  0  0  0
   -1.8711    3.3017   11.6049 C   0  0  0  0  0  0  0  0  0  0  0  0
   -1.2644    2.1399   11.0969 C   0  0  0  0  0  0  0  0  0  0  0  0
   -2.0372    1.0284   10.7476 C   0  0  0  0  0  0  0  0  0  0  0  0
   -3.4260    1.0703   10.8814 C   0  0  0  0  0  0  0  0  0  0  0  0
   -4.0246    2.2262   11.3724 C   0  0  0  0  0  0  0  0  0  0  0  0
   -3.2661    3.3612   11.7246 C   0  0  0  0  0  0  0  0  0  0  0  0
   -5.2525    7.1622    7.7724 S   0  0  0  0  0  0  0  0  0  0  0  0
   -5.9833    8.3439    7.2990 O   0  0  0  0  0  0  0  0  0  0  0  0
   -4.3671    6.2933    6.9817 O   0  0  0  0  0  0  0  0  0  0  0  0
   -6.6166    6.3282    7.4879 N   0  0  0  0  0  0  0  0  0  0  0  0
   -7.3966    6.7786    7.9666 H   0  0  0  0  0  0  0  0  0  0  0  0
   -6.5104    5.3745    7.8338 H   0  0  0  0  0  0  0  0  0  0  0  0
 18 23  1  0  0  0
 19 18  2  0  0  0
 19 20  1  0  0  0
 20 21  2  0  0  0
 21 22  1  0  0  0
 23 22  2  0  0  0
 23  1  1  0  0  0
  1  2  1  0  0  0
  2  7  2  0  0  0
  2  3  1  0  0  0
  3  4  2  0  0  0
  4  5  1  0  0  0
  4 24  1  0  0  0
 24 25  2  0  0  0
 26 24  2  0  0  0
 27 24  1  0  0  0
  6  5  2  0  0  0
  7  6  1  0  0  0
  8  7  1  0  0  0
  9  1  2  0  0  0
  9  8  1  0  0  0
 11  9  1  0  0  0
 11 12  2  0  0  0
 13 11  1  0  0  0
 14 13  1  0  0  0
 27 28  1  0  0  0
 27 29  1  0  0  0
  8 10  1  0  0  0
 13 15  1  0  0  0
 14 16  1  0  0  0
 14 17  1  0  0  0
M  END
> <minimizedAffinity>
-6.83422

$$$$
3B4F_TUO_A_300


 29 31  0  0  0  0  0  0  0  0999 V2000
   -3.7826    3.5443   11.8142 C   0  0  0  0  0  0  0  0  0  0  0  0
   -3.5100    4.5101   10.8602 C   0  0  0  0  0  0  0  0  0  0  0  0
   -3.0460    4.4325    9.5387 C   0  0  0  0  0  0  0  0  0  0  0  0
   -2.8775    5.6111    8.8194 C   0  0  0  0  0  0  0  0  0  0  0  0
   -3.1394    6.8345    9.4365 C   0  0  0  0  0  0  0  0  0  0  0  0
   -3.6032    6.9068   10.7457 C   0  0  0  0  0  0  0  0  0  0  0  0
   -3.7897    5.7387   11.4605 C   0  0  0  0  0  0  0  0  0  0  0  0
   -4.2186    5.5405   12.7102 N   0  0  0  0  0  0  0  0  0  0  0  0
   -4.2188    4.2329   12.9606 C   0  0  0  0  0  0  0  0  0  0  0  0
   -4.4898    6.2453   13.3419 H   0  0  0  0  0  0  0  0  0  0  0  0
   -4.6844    3.7241   14.3426 C   0  0  0  0  0  0  0  0  0  0  0  0
   -3.8977    3.0935   15.0515 O   0  0  0  0  0  0  0  0  0  0  0  0
   -5.9230    3.9686   14.7188 N   0  0  0  0  0  0  0  0  0  0  0  0
   -6.8030    4.6453   13.9614 N   0  0  0  0  0  0  0  0  0  0  0  0
   -6.2186    3.6394   15.5983 H   0  0  0  0  0  0  0  0  0  0  0  0
   -6.3573    4.9204   13.0861 H   0  0  0  0  0  0  0  0  0  0  0  0
   -7.1124    5.4784   14.4619 H   0  0  0  0  0  0  0  0  0  0  0  0
   -4.6947    1.2788   11.5086 C   0  0  0  0  0  0  0  0  0  0  0  0
   -4.4649   -0.0781   11.2223 C   0  0  0  0  0  0  0  0  0  0  0  0
   -3.1755   -0.5361   10.9351 C   0  0  0  0  0  0  0  0  0  0  0  0
   -2.0972    0.3502   10.9504 C   0  0  0  0  0  0  0  0  0  0  0  0
   -2.3260    1.6901   11.2467 C   0  0  0  0  0  0  0  0  0  0  0  0
   -3.6163    2.1731   11.5459 C   0  0  0  0  0  0  0  0  0  0  0  0
   -2.2937    5.8050    7.1786 S   0  0  0  0  0  0  0  0  0  0  0  0
   -2.8057    6.8165    6.2461 O   0  0  0  0  0  0  0  0  0  0  0  0
   -1.1061    4.9555    6.9987 O   0  0  0  0  0  0  0  0  0  0  0  0
   -3.3485    4.7802    6.4897 N   0  0  0  0  0  0  0  0  0  0  0  0
   -4.2823    5.1902    6.5081 H   0  0  0  0  0  0  0  0  0  0  0  0
   -3.3534    3.9000    7.0051 H   0  0  0  0  0  0  0  0  0  0  0  0
 18 23  1  0  0  0
 19 18  2  0  0  0
 19 20  1  0  0  0
 20 21  2  0  0  0
 21 22  1  0  0  0
 23 22  2  0  0  0
 23  1  1  0  0  0
  1  2  1  0  0  0
  2  7  2  0  0  0
  2  3  1  0  0  0
  3  4  2  0  0  0
  4  5  1  0  0  0
  4 24  1  0  0  0
 24 25  2  0  0  0
 26 24  2  0  0  0
 27 24  1  0  0  0
  6  5  2  0  0  0
  7  6  1  0  0  0
  8  7  1  0  0  0
  9  1  2  0  0  0
  9  8  1  0  0  0
 11  9  1  0  0  0
 11 12  2  0  0  0
 13 11  1  0  0  0
 14 13  1  0  0  0
 27 28  1  0  0  0
 27 29  1  0  0  0
  8 10  1  0  0  0
 13 15  1  0  0  0
 14 16  1  0  0  0
 14 17  1  0  0  0
M  END
> <minimizedAffinity>
-6.83315

$$$$
3B4F_TUO_A_300


 29 31  0  0  0  0  0  0  0  0999 V2000
   -1.9945    4.6993   11.9580 C   0  0  0  0  0  0  0  0  0  0  0  0
   -2.7920    3.5674   11.9644 C   0  0  0  0  0  0  0  0  0  0  0  0
   -2.7448    2.3707   11.2340 C   0  0  0  0  0  0  0  0  0  0  0  0
   -3.7078    1.3981   11.4821 C   0  0  0  0  0  0  0  0  0  0  0  0
   -4.7098    1.6488   12.4197 C   0  0  0  0  0  0  0  0  0  0  0  0
   -4.7508    2.8350   13.1445 C   0  0  0  0  0  0  0  0  0  0  0  0
   -3.7866    3.7986   12.9158 C   0  0  0  0  0  0  0  0  0  0  0  0
   -3.6070    5.0008   13.4703 N   0  0  0  0  0  0  0  0  0  0  0  0
   -2.5432    5.5751   12.9123 C   0  0  0  0  0  0  0  0  0  0  0  0
   -4.1685    5.3967   14.1754 H   0  0  0  0  0  0  0  0  0  0  0  0
   -2.1042    6.9794   13.3819 C   0  0  0  0  0  0  0  0  0  0  0  0
   -1.2563    7.0825   14.2704 O   0  0  0  0  0  0  0  0  0  0  0  0
   -2.6646    8.0333   12.8244 N   0  0  0  0  0  0  0  0  0  0  0  0
   -3.5976    7.9484   11.8610 N   0  0  0  0  0  0  0  0  0  0  0  0
   -2.3862    8.9273   13.1286 H   0  0  0  0  0  0  0  0  0  0  0  0
   -3.7821    6.9672   11.6519 H   0  0  0  0  0  0  0  0  0  0  0  0
   -3.2617    8.4179   11.0200 H   0  0  0  0  0  0  0  0  0  0  0  0
   -0.9108    5.5362    9.9128 C   0  0  0  0  0  0  0  0  0  0  0  0
    0.2441    5.6205    9.1158 C   0  0  0  0  0  0  0  0  0  0  0  0
    1.4379    5.0204    9.5276 C   0  0  0  0  0  0  0  0  0  0  0  0
    1.4881    4.3117   10.7292 C   0  0  0  0  0  0  0  0  0  0  0  0
    0.3401    4.2193   11.5095 C   0  0  0  0  0  0  0  0  0  0  0  0
   -0.8763    4.8106   11.1112 C   0  0  0  0  0  0  0  0  0  0  0  0
   -3.8982   -0.1610   10.7052 S   0  0  0  0  0  0  0  0  0  0  0  0
   -3.3164   -1.4053   11.2228 O   0  0  0  0  0  0  0  0  0  0  0  0
   -4.8820   -0.0282    9.6195 O   0  0  0  0  0  0  0  0  0  0  0  0
   -2.5805   -0.0545    9.7620 N   0  0  0  0  0  0  0  0  0  0  0  0
   -1.7426   -0.1264   10.3391 H   0  0  0  0  0  0  0  0  0  0  0  0
   -2.5823    0.8419    9.2753 H   0  0  0  0  0  0  0  0  0  0  0  0
 18 23  1  0  0  0
 19 18  2  0  0  0
 19 20  1  0  0  0
 20 21  2  0  0  0
 21 22  1  0  0  0
 23 22  2  0  0  0
 23  1  1  0  0  0
  1  2  1  0  0  0
  2  7  2  0  0  0
  2  3  1  0  0  0
  3  4  2  0  0  0
  4  5  1  0  0  0
  4 24  1  0  0  0
 24 25  2  0  0  0
 26 24  2  0  0  0
 27 24  1  0  0  0
  6  5  2  0  0  0
  7  6  1  0  0  0
  8  7  1  0  0  0
  9  1  2  0  0  0
  9  8  1  0  0  0
 11  9  1  0  0  0
 11 12  2  0  0  0
 13 11  1  0  0  0
 14 13  1  0  0  0
 27 28  1  0  0  0
 27 29  1  0  0  0
  8 10  1  0  0  0
 13 15  1  0  0  0
 14 16  1  0  0  0
 14 17  1  0  0  0
M  END
> <minimizedAffinity>
-6.60074

$$$$
