1KYV_RBF_A_501
  RCSB PDB12061703083D
Coordinates from PDB:1KYV:A:501 Model:1 without hydrogens
 27 29  0  0  0  0            999 V2000
   76.1010   45.0550   42.2090   N 0  0  0  0  0  0  0  0  0  0  0  0
   75.9850   43.8380   42.8680   C 0  0  0  0  0  0  0  0  0  0  0  0
   76.9980   43.2190   43.0710   O 0  0  0  0  0  0  0  0  0  0  0  0
   74.7080   43.4690   43.2140   N 0  0  0  0  0  0  0  0  0  0  0  0
   73.4910   44.1430   42.9990   C 0  0  0  0  0  0  0  0  0  0  0  0
   72.4240   43.6700   43.3750   O 0  0  0  0  0  0  0  0  0  0  0  0
   73.6730   45.4670   42.2550   C 0  0  0  0  0  0  0  0  0  0  0  0
   72.6080   46.1960   41.9750   N 0  0  0  0  0  0  0  0  0  0  0  0
   72.7580   47.4210   41.2810   C 0  0  0  0  0  0  0  0  0  0  0  0
   71.5110   48.1400   40.9950   C 0  0  0  0  0  0  0  0  0  0  0  0
   71.6610   49.3430   40.2930   C 0  0  0  0  0  0  0  0  0  0  0  0
   70.4500   50.2280   39.8900   C 0  0  0  0  0  0  0  0  0  0  0  0
   73.0190   49.8100   39.8990   C 0  0  0  0  0  0  0  0  0  0  0  0
   73.1470   51.1550   39.1060   C 0  0  0  0  0  0  0  0  0  0  0  0
   74.2250   49.1530   40.1660   C 0  0  0  0  0  0  0  0  0  0  0  0
   74.0520   47.9070   40.8810   C 0  0  0  0  0  0  0  0  0  0  0  0
   75.2070   47.0580   41.2320   N 0  0  0  0  0  0  0  0  0  0  0  0
   75.0030   45.8690   41.9000   C 0  0  0  0  0  0  0  0  0  0  0  0
   76.5370   47.5410   40.8350   C 0  0  0  0  0  0  0  0  0  0  0  0
   77.0520   47.0920   39.4760   C 0  0  0  0  0  0  0  0  0  0  0  0
   77.3060   45.6470   39.5560   O 0  0  0  0  0  0  0  0  0  0  0  0
   78.2720   47.8940   39.1720   C 0  0  0  0  0  0  0  0  0  0  0  0
   79.2880   47.8500   40.1700   O 0  0  0  0  0  0  0  0  0  0  0  0
   78.1050   49.3530   38.9460   C 0  0  0  0  0  0  0  0  0  0  0  0
   77.0180   49.5100   38.0100   O 0  0  0  0  0  0  0  0  0  0  0  0
   79.3040   50.1350   38.2660   C 0  0  0  0  0  0  0  0  0  0  0  0
   79.5890   49.5240   36.9870   O 0  0  0  0  0  0  0  0  0  0  0  0
  1  2  1  0  0  0  0
  1 18  2  0  0  0  0
  2  3  2  0  0  0  0
  2  4  1  0  0  0  0
  4  5  1  0  0  0  0
  5  6  2  0  0  0  0
  5  7  1  0  0  0  0
  7  8  2  0  0  0  0
  7 18  1  0  0  0  0
  8  9  1  0  0  0  0
  9 10  2  0  0  0  0
  9 16  1  0  0  0  0
 10 11  1  0  0  0  0
 11 12  1  0  0  0  0
 11 13  2  0  0  0  0
 13 14  1  0  0  0  0
 13 15  1  0  0  0  0
 15 16  2  0  0  0  0
 16 17  1  0  0  0  0
 17 18  1  0  0  0  0
 17 19  1  0  0  0  0
 19 20  1  0  0  0  0
 20 21  1  0  0  0  0
 20 22  1  0  0  0  0
 22 23  1  0  0  0  0
 22 24  1  0  0  0  0
 24 25  1  0  0  0  0
 24 26  1  0  0  0  0
 26 27  1  0  0  0  0
A    1
N1
A    2
C2
A    3
O2
A    4
N3
A    5
C4
A    6
O4
A    7
C4A
A    8
N5
A    9
C5A
A   10
C6
A   11
C7
A   12
C7M
A   13
C8
A   14
C8M
A   15
C9
A   16
C9A
A   17
N10
A   18
C10
A   19
C1'
A   20
C2'
A   21
O2'
A   22
C3'
A   23
O3'
A   24
C4'
A   25
O4'
A   26
C5'
A   27
O5'
M  END
>  <InstanceId>
1KYV_RBF_A_501

>  <ChemCompId>
RBF

>  <PdbId>
1KYV

>  <ChainId>
A

>  <ResidueNumber>
501

>  <InsertionCode>


>  <Model>
1

>  <AltIds>


>  <MissingHeavyAtoms>
0

>  <ObservedFormula>
C17 N4 O6

>  <Name>
RIBOFLAVIN

>  <SystematicName>
7,8-dimethyl-10-[(2S,3S,4R)-2,3,4,5-tetrakis(oxidanyl)pentyl]benzo[g]pteridine-2,4-dione

>  <Synonyms>
RIBOFLAVINE; VITAMIN B2

>  <Type>
NON-POLYMER

>  <Formula>
C17 H20 N4 O6

>  <MolecularWeight>
376.364

>  <ModifiedDate>
2016-02-17

>  <Parent>


>  <OneLetterCode>


>  <SubcomponentList>


>  <AmbiguousFlag>
N

>  <InChI>
InChI=1S/C17H20N4O6/c1-7-3-9-10(4-8(7)2)21(5-11(23)14(25)12(24)6-22)15-13(18-9)16(26)20-17(27)19-15/h3-4,11-12,14,22-25H,5-6H2,1-2H3,(H,20,26,27)/t11-,12+,14-/m0/s1

>  <InChIKey>
AUNGANRZJHBGPY-SCRDCRAPSA-N

>  <SMILES>
Cc1cc2c(cc1C)N(C3=NC(=O)NC(=O)C3=N2)C[C@@H]([C@@H]([C@@H](CO)O)O)O

$$$$
