3IW5_DF3_A_362
  RCSB PDB12061709083D
Coordinates from PDB:3IW5:A:362 Model:1 without hydrogens
 39 43  0  0  0  0            999 V2000
   20.8150    1.4000  -26.2370   O 0  0  0  0  0  0  0  0  0  0  0  0
   22.1330    1.0210  -21.4740   O 0  0  0  0  0  0  0  0  0  0  0  0
   23.4750   -5.4220  -19.2310   F 0  0  0  0  0  0  0  0  0  0  0  0
   21.5500   -4.9010  -19.5740   F 0  0  0  0  0  0  0  0  0  0  0  0
   22.5890   -5.7520  -21.1930   F 0  0  0  0  0  0  0  0  0  0  0  0
   24.8490   -2.2670  -21.7950   C 0  0  0  0  0  0  0  0  0  0  0  0
   17.6210    3.6120  -23.5460   C 0  0  0  0  0  0  0  0  0  0  0  0
   17.5310    3.9380  -22.2000   C 0  0  0  0  0  0  0  0  0  0  0  0
   24.1230   -1.1000  -21.5750   C 0  0  0  0  0  0  0  0  0  0  0  0
   24.3720   -3.4870  -21.3180   C 0  0  0  0  0  0  0  0  0  0  0  0
   21.5510    3.5770  -25.6190   C 0  0  0  0  0  0  0  0  0  0  0  0
   21.5060    4.9330  -25.9020   C 0  0  0  0  0  0  0  0  0  0  0  0
   18.0820    2.3610  -23.9220   C 0  0  0  0  0  0  0  0  0  0  0  0
   17.9150    2.9920  -21.2390   C 0  0  0  0  0  0  0  0  0  0  0  0
   21.2130    3.9740  -23.2920   C 0  0  0  0  0  0  0  0  0  0  0  0
   22.4190   -2.4090  -20.4160   C 0  0  0  0  0  0  0  0  0  0  0  0
   19.1620   -0.3030  -21.7960   C 0  0  0  0  0  0  0  0  0  0  0  0
   20.3610    1.1070  -19.1520   C 0  0  0  0  0  0  0  0  0  0  0  0
   21.2560    7.9500  -24.0630   C 0  0  0  0  0  0  0  0  0  0  0  0
   20.3210    7.3190  -23.0580   C 0  0  0  0  0  0  0  0  0  0  0  0
   18.9620    0.5460  -19.5180   C 0  0  0  0  0  0  0  0  0  0  0  0
   21.0290   -0.4230  -24.7800   C 0  0  0  0  0  0  0  0  0  0  0  0
   21.2900    0.0500  -19.5530   N 0  0  0  0  0  0  0  0  0  0  0  0
   21.4440    1.8210  -24.1220   N 0  0  0  0  0  0  0  0  0  0  0  0
   21.2750    7.1180  -25.2140   O 0  0  0  0  0  0  0  0  0  0  0  0
   20.9860    6.1600  -22.5520   O 0  0  0  0  0  0  0  0  0  0  0  0
   19.3000   -0.8610  -24.4400   S 0  0  0  0  0  0  0  0  0  0  0  0
   21.0910    1.0320  -25.1120   C 0  0  0  0  0  0  0  0  0  0  0  0
   22.0860    0.0990  -20.6560   C 0  0  0  0  0  0  0  0  0  0  0  0
   21.4440    3.0980  -24.3310   C 0  0  0  0  0  0  0  0  0  0  0  0
   22.9180   -1.1670  -20.8750   C 0  0  0  0  0  0  0  0  0  0  0  0
   23.1600   -3.5620  -20.6320   C 0  0  0  0  0  0  0  0  0  0  0  0
   21.3170    5.8090  -24.8760   C 0  0  0  0  0  0  0  0  0  0  0  0
   21.1650    5.3240  -23.5800   C 0  0  0  0  0  0  0  0  0  0  0  0
   18.9550    0.1300  -23.0230   C 0  0  0  0  0  0  0  0  0  0  0  0
   18.4680    1.4270  -22.9730   C 0  0  0  0  0  0  0  0  0  0  0  0
   18.3940    1.7400  -21.6330   C 0  0  0  0  0  0  0  0  0  0  0  0
   18.8290    0.6700  -20.9730   N 0  0  0  0  0  0  0  0  0  0  0  0
   22.6930   -4.9350  -20.1490   C 0  0  0  0  0  0  0  0  0  0  0  0
  1 28  2  0  0  0  0
  2 29  2  0  0  0  0
 39  3  1  0  0  0  0
 39  4  1  0  0  0  0
  5 39  1  0  0  0  0
  6  9  2  0  0  0  0
  6 10  1  0  0  0  0
 13  7  2  0  0  0  0
  7  8  1  0  0  0  0
  8 14  2  0  0  0  0
  9 31  1  0  0  0  0
 10 32  2  0  0  0  0
 12 11  2  0  0  0  0
 11 30  1  0  0  0  0
 12 33  1  0  0  0  0
 13 36  1  0  0  0  0
 37 14  1  0  0  0  0
 30 15  2  0  0  0  0
 34 15  1  0  0  0  0
 31 16  2  0  0  0  0
 32 16  1  0  0  0  0
 35 17  2  0  0  0  0
 17 38  1  0  0  0  0
 23 18  1  0  0  0  0
 21 18  1  0  0  0  0
 25 19  1  0  0  0  0
 19 20  1  0  0  0  0
 20 26  1  0  0  0  0
 38 21  1  0  0  0  0
 28 22  1  0  0  0  0
 22 27  1  0  0  0  0
 29 23  1  0  0  0  0
 28 24  1  0  0  0  0
 30 24  1  0  0  0  0
 25 33  1  0  0  0  0
 34 26  1  0  0  0  0
 27 35  1  0  0  0  0
 31 29  1  0  0  0  0
 32 39  1  0  0  0  0
 33 34  2  0  0  0  0
 35 36  1  0  0  0  0
 36 37  2  0  0  0  0
 37 38  1  0  0  0  0
A    1
OAA
A    2
OAB
A    3
FAC
A    4
FAD
A    5
FAE
A    6
CAF
A    7
CAG
A    8
CAH
A    9
CAI
A   10
CAJ
A   11
CAK
A   12
CAL
A   13
CAM
A   14
CAN
A   15
CAO
A   16
CAP
A   17
CAQ
A   18
CAR
A   19
CAS
A   20
CAT
A   21
CAU
A   22
CAV
A   23
NAW
A   24
NAX
A   25
OAY
A   26
OAZ
A   27
SBA
A   28
CBB
A   29
CBC
A   30
CBD
A   31
CBE
A   32
CBF
A   33
CBG
A   34
CBH
A   35
CBI
A   36
CBJ
A   37
CBK
A   38
NBL
A   39
CBM
M  END
>  <InstanceId>
3IW5_DF3_A_362

>  <ChemCompId>
DF3

>  <PdbId>
3IW5

>  <ChainId>
A

>  <ResidueNumber>
362

>  <InsertionCode>


>  <Model>
1

>  <AltIds>


>  <MissingHeavyAtoms>
0

>  <ObservedFormula>
C28 N3 O4 S F3

>  <Name>
N-[2-(3-{[2-(2,3-dihydro-1,4-benzodioxin-6-ylamino)-2-oxoethyl]sulfanyl}-1H-indol-1-yl)ethyl]-3-(trifluoromethyl)benzamide

>  <SystematicName>
N-[2-[3-[2-(2,3-dihydro-1,4-benzodioxin-6-ylamino)-2-oxo-ethyl]sulfanylindol-1-yl]ethyl]-3-(trifluoromethyl)benzamide

>  <Synonyms>


>  <Type>
NON-POLYMER

>  <Formula>
C28 H24 F3 N3 O4 S

>  <MolecularWeight>
555.568

>  <ModifiedDate>
2011-06-04

>  <Parent>


>  <OneLetterCode>


>  <SubcomponentList>


>  <AmbiguousFlag>
N

>  <InChI>
InChI=1S/C28H24F3N3O4S/c29-28(30,31)19-5-3-4-18(14-19)27(36)32-10-11-34-16-25(21-6-1-2-7-22(21)34)39-17-26(35)33-20-8-9-23-24(15-20)38-13-12-37-23/h1-9,14-16H,10-13,17H2,(H,32,36)(H,33,35)

>  <InChIKey>
BNPQVUSGXCJYEF-UHFFFAOYSA-N

>  <SMILES>
c1ccc2c(c1)c(cn2CCNC(=O)c3cccc(c3)C(F)(F)F)SCC(=O)Nc4ccc5c(c4)OCCO5

$$$$
