4Q7W_6MH_A_302


 10 10  0  0  0  0  0  0  0  0999 V2000
   15.0661    0.2854   17.6587 C   0  0  0  0  0  0  0  0  0  0  0  0
   15.0531    1.6065   16.9592 C   0  0  0  0  0  0  0  0  0  0  0  0
   14.3431    2.6117   17.4544 C   0  0  0  0  0  0  0  0  0  0  0  0
   14.3095    3.8304   16.7923 C   0  0  0  0  0  0  0  0  0  0  0  0
   14.9846    3.9880   15.6434 C   0  0  0  0  0  0  0  0  0  0  0  0
   15.6979    2.9259   15.1071 C   0  0  0  0  0  0  0  0  0  0  0  0
   16.5323    3.1158   13.5900 S   0  0  0  0  0  0  0  0  0  0  0  0
   15.7396    1.7640   15.7476 N   0  0  0  0  0  0  0  0  0  0  0  0
   16.4116    0.7380   15.2239 O   0  0  0  0  0  0  0  0  0  0  0  0
   16.4411   -0.0823   15.6759 H   0  0  0  0  0  0  0  0  0  0  0  0
  1  2  1  0  0  0
  9  8  1  0  0  0
  2  8  1  0  0  0
  2  3  2  0  0  0
  8  6  1  0  0  0
  3  4  1  0  0  0
  6  7  2  0  0  0
  6  5  1  0  0  0
  4  5  2  0  0  0
  9 10  1  0  0  0
M  END
> <minimizedAffinity>
-5.37472

$$$$
4Q7W_6MH_A_302


 10 10  0  0  0  0  0  0  0  0999 V2000
   16.9339    3.5352   13.8510 C   0  0  0  0  0  0  0  0  0  0  0  0
   15.9762    3.4189   14.9930 C   0  0  0  0  0  0  0  0  0  0  0  0
   15.2981    4.4838   15.4004 C   0  0  0  0  0  0  0  0  0  0  0  0
   14.4285    4.3832   16.4766 C   0  0  0  0  0  0  0  0  0  0  0  0
   14.2834    3.2114   17.1141 C   0  0  0  0  0  0  0  0  0  0  0  0
   15.0193    2.1069   16.7105 C   0  0  0  0  0  0  0  0  0  0  0  0
   14.8686    0.5995   17.5702 S   0  0  0  0  0  0  0  0  0  0  0  0
   15.8419    2.2008   15.6730 N   0  0  0  0  0  0  0  0  0  0  0  0
   16.5619    1.1437   15.2952 O   0  0  0  0  0  0  0  0  0  0  0  0
   17.1426    1.2099   14.5629 H   0  0  0  0  0  0  0  0  0  0  0  0
  1  2  1  0  0  0
  9  8  1  0  0  0
  2  8  1  0  0  0
  2  3  2  0  0  0
  8  6  1  0  0  0
  3  4  1  0  0  0
  6  7  2  0  0  0
  6  5  1  0  0  0
  4  5  2  0  0  0
  9 10  1  0  0  0
M  END
> <minimizedAffinity>
-5.00904

$$$$
4Q7W_6MH_A_302


 10 10  0  0  0  0  0  0  0  0999 V2000
   14.5230    1.4090   17.0074 C   0  0  0  0  0  0  0  0  0  0  0  0
   14.9411    2.6742   16.3298 C   0  0  0  0  0  0  0  0  0  0  0  0
   14.3725    3.8248   16.6654 C   0  0  0  0  0  0  0  0  0  0  0  0
   14.7411    4.9958   16.0191 C   0  0  0  0  0  0  0  0  0  0  0  0
   15.6634    4.9623   15.0451 C   0  0  0  0  0  0  0  0  0  0  0  0
   16.2318    3.7538   14.6699 C   0  0  0  0  0  0  0  0  0  0  0  0
   17.3913    3.7036   13.3710 S   0  0  0  0  0  0  0  0  0  0  0  0
   15.8876    2.6357   15.2970 N   0  0  0  0  0  0  0  0  0  0  0  0
   16.4215    1.4714   14.9253 O   0  0  0  0  0  0  0  0  0  0  0  0
   16.1786    0.6821   15.3679 H   0  0  0  0  0  0  0  0  0  0  0  0
  1  2  1  0  0  0
  9  8  1  0  0  0
  2  8  1  0  0  0
  2  3  2  0  0  0
  8  6  1  0  0  0
  3  4  1  0  0  0
  6  7  2  0  0  0
  6  5  1  0  0  0
  4  5  2  0  0  0
  9 10  1  0  0  0
M  END
> <minimizedAffinity>
-4.93811

$$$$
4Q7W_6MH_A_302


 10 10  0  0  0  0  0  0  0  0999 V2000
   14.5361    1.9344   18.6409 C   0  0  0  0  0  0  0  0  0  0  0  0
   15.0162    2.0896   17.2337 C   0  0  0  0  0  0  0  0  0  0  0  0
   15.7764    1.1509   16.6855 C   0  0  0  0  0  0  0  0  0  0  0  0
   16.2440    1.3059   15.3886 C   0  0  0  0  0  0  0  0  0  0  0  0
   15.9382    2.4121   14.6934 C   0  0  0  0  0  0  0  0  0  0  0  0
   15.1730    3.4098   15.2794 C   0  0  0  0  0  0  0  0  0  0  0  0
   14.8190    4.8679   14.3947 S   0  0  0  0  0  0  0  0  0  0  0  0
   14.7158    3.2552   16.5159 N   0  0  0  0  0  0  0  0  0  0  0  0
   13.9942    4.2214   17.0855 O   0  0  0  0  0  0  0  0  0  0  0  0
   13.6713    4.1124   17.9583 H   0  0  0  0  0  0  0  0  0  0  0  0
  1  2  1  0  0  0
  9  8  1  0  0  0
  2  8  1  0  0  0
  2  3  2  0  0  0
  8  6  1  0  0  0
  3  4  1  0  0  0
  6  7  2  0  0  0
  6  5  1  0  0  0
  4  5  2  0  0  0
  9 10  1  0  0  0
M  END
> <minimizedAffinity>
-4.62919

$$$$
4Q7W_6MH_A_302


 10 10  0  0  0  0  0  0  0  0999 V2000
   16.6701   -0.9090   11.1039 C   0  0  0  0  0  0  0  0  0  0  0  0
   17.4932    0.3382   11.0588 C   0  0  0  0  0  0  0  0  0  0  0  0
   18.8171    0.2579   11.0340 C   0  0  0  0  0  0  0  0  0  0  0  0
   19.5826    1.4149   11.0183 C   0  0  0  0  0  0  0  0  0  0  0  0
   18.9836    2.6154   11.0417 C   0  0  0  0  0  0  0  0  0  0  0  0
   17.6003    2.6990   11.1037 C   0  0  0  0  0  0  0  0  0  0  0  0
   16.8254    4.2568   11.1856 S   0  0  0  0  0  0  0  0  0  0  0  0
   16.8683    1.5916   11.1063 N   0  0  0  0  0  0  0  0  0  0  0  0
   15.5392    1.6714   11.1828 O   0  0  0  0  0  0  0  0  0  0  0  0
   15.0223    0.8898   11.1846 H   0  0  0  0  0  0  0  0  0  0  0  0
  1  2  1  0  0  0
  9  8  1  0  0  0
  2  8  1  0  0  0
  2  3  2  0  0  0
  8  6  1  0  0  0
  3  4  1  0  0  0
  6  7  2  0  0  0
  6  5  1  0  0  0
  4  5  2  0  0  0
  9 10  1  0  0  0
M  END
> <minimizedAffinity>
-4.58598

$$$$
4Q7W_6MH_A_302


 10 10  0  0  0  0  0  0  0  0999 V2000
   17.9688   -1.2997   10.8586 C   0  0  0  0  0  0  0  0  0  0  0  0
   17.7548    0.0804   11.3918 C   0  0  0  0  0  0  0  0  0  0  0  0
   16.6982    0.3414   12.1502 C   0  0  0  0  0  0  0  0  0  0  0  0
   16.4846    1.6276   12.6244 C   0  0  0  0  0  0  0  0  0  0  0  0
   17.3400    2.6107   12.3044 C   0  0  0  0  0  0  0  0  0  0  0  0
   18.4251    2.3451   11.4820 C   0  0  0  0  0  0  0  0  0  0  0  0
   19.5066    3.6321   11.0256 S   0  0  0  0  0  0  0  0  0  0  0  0
   18.6356    1.1117   11.0389 N   0  0  0  0  0  0  0  0  0  0  0  0
   19.6693    0.8596   10.2348 O   0  0  0  0  0  0  0  0  0  0  0  0
   19.8179   -0.0110    9.9219 H   0  0  0  0  0  0  0  0  0  0  0  0
  1  2  1  0  0  0
  9  8  1  0  0  0
  2  8  1  0  0  0
  2  3  2  0  0  0
  8  6  1  0  0  0
  3  4  1  0  0  0
  6  7  2  0  0  0
  6  5  1  0  0  0
  4  5  2  0  0  0
  9 10  1  0  0  0
M  END
> <minimizedAffinity>
-4.46290

$$$$
4Q7W_6MH_A_302


 10 10  0  0  0  0  0  0  0  0999 V2000
   16.6777    4.1592   10.8480 C   0  0  0  0  0  0  0  0  0  0  0  0
   17.5117    2.9265   10.9880 C   0  0  0  0  0  0  0  0  0  0  0  0
   18.8337    3.0088   10.9146 C   0  0  0  0  0  0  0  0  0  0  0  0
   19.6075    1.8621   11.0185 C   0  0  0  0  0  0  0  0  0  0  0  0
   19.0177    0.6676   11.1797 C   0  0  0  0  0  0  0  0  0  0  0  0
   17.6340    0.5775   11.2205 C   0  0  0  0  0  0  0  0  0  0  0  0
   16.8677   -0.9787   11.3787 S   0  0  0  0  0  0  0  0  0  0  0  0
   16.8948    1.6766   11.1334 N   0  0  0  0  0  0  0  0  0  0  0  0
   15.5643    1.5885   11.1559 O   0  0  0  0  0  0  0  0  0  0  0  0
   15.0423    2.3642   11.0945 H   0  0  0  0  0  0  0  0  0  0  0  0
  1  2  1  0  0  0
  9  8  1  0  0  0
  2  8  1  0  0  0
  2  3  2  0  0  0
  8  6  1  0  0  0
  3  4  1  0  0  0
  6  7  2  0  0  0
  6  5  1  0  0  0
  4  5  2  0  0  0
  9 10  1  0  0  0
M  END
> <minimizedAffinity>
-4.43009

$$$$
4Q7W_6MH_A_302


 10 10  0  0  0  0  0  0  0  0999 V2000
   14.8126    5.3134   15.6557 C   0  0  0  0  0  0  0  0  0  0  0  0
   15.2656    3.8999   15.4781 C   0  0  0  0  0  0  0  0  0  0  0  0
   15.3912    3.1066   16.5338 C   0  0  0  0  0  0  0  0  0  0  0  0
   15.8364    1.8024   16.3732 C   0  0  0  0  0  0  0  0  0  0  0  0
   16.1527    1.3478   15.1509 C   0  0  0  0  0  0  0  0  0  0  0  0
   16.0553    2.1885   14.0518 C   0  0  0  0  0  0  0  0  0  0  0  0
   16.5144    1.6134   12.4731 S   0  0  0  0  0  0  0  0  0  0  0  0
   15.6176    3.4323   14.2047 N   0  0  0  0  0  0  0  0  0  0  0  0
   15.5397    4.2458   13.1508 O   0  0  0  0  0  0  0  0  0  0  0  0
   15.2308    5.1238   13.2585 H   0  0  0  0  0  0  0  0  0  0  0  0
  1  2  1  0  0  0
  9  8  1  0  0  0
  2  8  1  0  0  0
  2  3  2  0  0  0
  8  6  1  0  0  0
  3  4  1  0  0  0
  6  7  2  0  0  0
  6  5  1  0  0  0
  4  5  2  0  0  0
  9 10  1  0  0  0
M  END
> <minimizedAffinity>
-4.31114

$$$$
4Q7W_6MH_A_302


 10 10  0  0  0  0  0  0  0  0999 V2000
   14.8344    5.4715   15.6748 C   0  0  0  0  0  0  0  0  0  0  0  0
   15.2765    4.0503   15.5347 C   0  0  0  0  0  0  0  0  0  0  0  0
   15.9632    3.6723   14.4646 C   0  0  0  0  0  0  0  0  0  0  0  0
   16.3516    2.3482   14.3210 C   0  0  0  0  0  0  0  0  0  0  0  0
   16.0208    1.4470   15.2586 C   0  0  0  0  0  0  0  0  0  0  0  0
   15.2719    1.8353   16.3598 C   0  0  0  0  0  0  0  0  0  0  0  0
   14.7993    0.6553   17.5507 S   0  0  0  0  0  0  0  0  0  0  0  0
   14.9113    3.1048   16.5026 N   0  0  0  0  0  0  0  0  0  0  0  0
   14.1772    3.4752   17.5526 O   0  0  0  0  0  0  0  0  0  0  0  0
   13.9226    4.3712   17.6536 H   0  0  0  0  0  0  0  0  0  0  0  0
  1  2  1  0  0  0
  9  8  1  0  0  0
  2  8  1  0  0  0
  2  3  2  0  0  0
  8  6  1  0  0  0
  3  4  1  0  0  0
  6  7  2  0  0  0
  6  5  1  0  0  0
  4  5  2  0  0  0
  9 10  1  0  0  0
M  END
> <minimizedAffinity>
-4.25468

$$$$
4Q7W_6MH_A_302


 10 10  0  0  0  0  0  0  0  0999 V2000
   20.1317    2.4139   10.7137 C   0  0  0  0  0  0  0  0  0  0  0  0
   18.9058    1.7797   11.2880 C   0  0  0  0  0  0  0  0  0  0  0  0
   18.5982    0.5281   10.9743 C   0  0  0  0  0  0  0  0  0  0  0  0
   17.4470   -0.0530   11.4860 C   0  0  0  0  0  0  0  0  0  0  0  0
   16.6376    0.6559   12.2878 C   0  0  0  0  0  0  0  0  0  0  0  0
   16.9409    1.9761   12.5869 C   0  0  0  0  0  0  0  0  0  0  0  0
   15.8637    2.9114   13.5863 S   0  0  0  0  0  0  0  0  0  0  0  0
   18.0488    2.5274   12.1068 N   0  0  0  0  0  0  0  0  0  0  0  0
   18.3321    3.8016   12.3807 O   0  0  0  0  0  0  0  0  0  0  0  0
   19.1141    4.1909   12.0419 H   0  0  0  0  0  0  0  0  0  0  0  0
  1  2  1  0  0  0
  9  8  1  0  0  0
  2  8  1  0  0  0
  2  3  2  0  0  0
  8  6  1  0  0  0
  3  4  1  0  0  0
  6  7  2  0  0  0
  6  5  1  0  0  0
  4  5  2  0  0  0
  9 10  1  0  0  0
M  END
> <minimizedAffinity>
-4.01867

$$$$
