1DGM_ADN_A_375


 24 26  0  0  0  0  0  0  0  0999 V2000
   -0.9022   10.1392   14.1265 C   0  0  0  0  0  0  0  0  0  0  0  0
   -0.5615    9.4683   12.8844 O   0  0  0  0  0  0  0  0  0  0  0  0
    0.4294   10.3919   14.8149 C   0  0  0  0  0  0  0  0  0  0  0  0
    0.2751   10.4526   16.2294 O   0  0  0  0  0  0  0  0  0  0  0  0
    1.2600    9.1893   14.3888 C   0  0  0  0  0  0  0  0  0  0  0  0
    1.0604    8.0499   15.2037 O   0  0  0  0  0  0  0  0  0  0  0  0
    0.7604    8.9570   12.9583 C   0  0  0  0  0  0  0  0  0  0  0  0
   -0.1303    9.6302   16.5460 H   0  0  0  0  0  0  0  0  0  0  0  0
    0.1211    7.8082   15.1971 H   0  0  0  0  0  0  0  0  0  0  0  0
    1.5603    9.6210   11.9242 N   0  0  0  0  0  0  0  0  0  0  0  0
    1.4036   10.8857   11.4126 C   0  0  0  0  0  0  0  0  0  0  0  0
    2.2834   11.1972   10.4903 N   0  0  0  0  0  0  0  0  0  0  0  0
    3.0740   10.0615   10.3863 C   0  0  0  0  0  0  0  0  0  0  0  0
    4.1886    9.7524    9.5828 C   0  0  0  0  0  0  0  0  0  0  0  0
    4.7279   10.5971    8.7013 N   0  0  0  0  0  0  0  0  0  0  0  0
    4.7403    8.5300    9.7210 N   0  0  0  0  0  0  0  0  0  0  0  0
    4.2090    7.6867   10.6131 C   0  0  0  0  0  0  0  0  0  0  0  0
    3.1715    7.8603   11.4268 N   0  0  0  0  0  0  0  0  0  0  0  0
    2.6408    9.0836   11.2631 C   0  0  0  0  0  0  0  0  0  0  0  0
    4.3435   11.4956    8.5817 H   0  0  0  0  0  0  0  0  0  0  0  0
    5.5101   10.3218    8.1707 H   0  0  0  0  0  0  0  0  0  0  0  0
   -0.9758   12.5461   14.2521 O   0  0  0  0  0  0  0  0  0  0  0  0
   -1.6884   11.3927   13.8122 C   0  0  0  0  0  0  0  0  0  0  0  0
   -1.4898   13.3423   14.0450 H   0  0  0  0  0  0  0  0  0  0  0  0
 22 23  1  0  0  0
 23  1  1  0  0  0
  1  2  1  0  0  0
  1  3  1  0  0  0
  2  7  1  0  0  0
  3  4  1  0  0  0
  3  5  1  0  0  0
  5  6  1  0  0  0
  5  7  1  0  0  0
  7 10  1  0  0  0
 10 11  1  0  0  0
 10 19  1  0  0  0
 11 12  2  0  0  0
 12 13  1  0  0  0
 13 14  1  0  0  0
 13 19  2  0  0  0
 14 15  1  0  0  0
 14 16  2  0  0  0
 16 17  1  0  0  0
 17 18  2  0  0  0
 18 19  1  0  0  0
 22 24  1  0  0  0
  4  8  1  0  0  0
  6  9  1  0  0  0
 15 20  1  0  0  0
 15 21  1  0  0  0
M  END
> <minimizedAffinity>
-7.94723

$$$$
1DGM_ADN_A_375


 24 26  0  0  0  0  0  0  0  0999 V2000
    2.8667    8.7328   11.3237 C   0  0  0  0  0  0  0  0  0  0  0  0
    1.6182    8.2428   11.8806 O   0  0  0  0  0  0  0  0  0  0  0  0
    3.0078   10.1482   11.8600 C   0  0  0  0  0  0  0  0  0  0  0  0
    3.7783   10.9591   10.9785 O   0  0  0  0  0  0  0  0  0  0  0  0
    1.5628   10.6203   11.9432 C   0  0  0  0  0  0  0  0  0  0  0  0
    1.0682   11.1373   10.7225 O   0  0  0  0  0  0  0  0  0  0  0  0
    0.8372    9.3320   12.3479 C   0  0  0  0  0  0  0  0  0  0  0  0
    3.3696   10.9589   10.0988 H   0  0  0  0  0  0  0  0  0  0  0  0
    1.1446   10.4618   10.0306 H   0  0  0  0  0  0  0  0  0  0  0  0
    0.6555    9.1702   13.7939 N   0  0  0  0  0  0  0  0  0  0  0  0
    1.3760    8.3809   14.6561 C   0  0  0  0  0  0  0  0  0  0  0  0
    0.9709    8.4499   15.9022 N   0  0  0  0  0  0  0  0  0  0  0  0
   -0.0885    9.3454   15.8595 C   0  0  0  0  0  0  0  0  0  0  0  0
   -0.9446    9.8497   16.8575 C   0  0  0  0  0  0  0  0  0  0  0  0
   -0.8609    9.5176   18.1474 N   0  0  0  0  0  0  0  0  0  0  0  0
   -1.9005   10.7224   16.4799 N   0  0  0  0  0  0  0  0  0  0  0  0
   -1.9777   11.0662   15.1896 C   0  0  0  0  0  0  0  0  0  0  0  0
   -1.2324   10.6680   14.1626 N   0  0  0  0  0  0  0  0  0  0  0  0
   -0.2936    9.7970   14.5684 C   0  0  0  0  0  0  0  0  0  0  0  0
   -0.1716    8.8824   18.4485 H   0  0  0  0  0  0  0  0  0  0  0  0
   -1.4884    9.9078   18.7979 H   0  0  0  0  0  0  0  0  0  0  0  0
    4.7978    7.4853   10.5960 O   0  0  0  0  0  0  0  0  0  0  0  0
    3.9875    7.8000   11.7258 C   0  0  0  0  0  0  0  0  0  0  0  0
    5.5119    6.8873   10.8668 H   0  0  0  0  0  0  0  0  0  0  0  0
 22 23  1  0  0  0
 23  1  1  0  0  0
  1  2  1  0  0  0
  1  3  1  0  0  0
  2  7  1  0  0  0
  3  4  1  0  0  0
  3  5  1  0  0  0
  5  6  1  0  0  0
  5  7  1  0  0  0
  7 10  1  0  0  0
 10 11  1  0  0  0
 10 19  1  0  0  0
 11 12  2  0  0  0
 12 13  1  0  0  0
 13 14  1  0  0  0
 13 19  2  0  0  0
 14 15  1  0  0  0
 14 16  2  0  0  0
 16 17  1  0  0  0
 17 18  2  0  0  0
 18 19  1  0  0  0
 22 24  1  0  0  0
  4  8  1  0  0  0
  6  9  1  0  0  0
 15 20  1  0  0  0
 15 21  1  0  0  0
M  END
> <minimizedAffinity>
-7.22107

$$$$
1DGM_ADN_A_375


 24 26  0  0  0  0  0  0  0  0999 V2000
    2.0555    9.6652   12.6208 C   0  0  0  0  0  0  0  0  0  0  0  0
    2.3019   10.4404   13.8238 O   0  0  0  0  0  0  0  0  0  0  0  0
    0.7327    8.9594   12.8719 C   0  0  0  0  0  0  0  0  0  0  0  0
    0.6487    7.7441   12.1343 O   0  0  0  0  0  0  0  0  0  0  0  0
    0.7673    8.7076   14.3729 C   0  0  0  0  0  0  0  0  0  0  0  0
    1.4598    7.5263   14.7298 O   0  0  0  0  0  0  0  0  0  0  0  0
    1.4868    9.9616   14.8825 C   0  0  0  0  0  0  0  0  0  0  0  0
    1.3978    7.1729   12.3658 H   0  0  0  0  0  0  0  0  0  0  0  0
    2.3679    7.5692   14.3917 H   0  0  0  0  0  0  0  0  0  0  0  0
    0.5905   11.0483   15.2898 N   0  0  0  0  0  0  0  0  0  0  0  0
    0.2598   12.1822   14.5895 C   0  0  0  0  0  0  0  0  0  0  0  0
   -0.5741   12.9725   15.2234 N   0  0  0  0  0  0  0  0  0  0  0  0
   -0.8097   12.3156   16.4229 C   0  0  0  0  0  0  0  0  0  0  0  0
   -1.6112   12.6334   17.5365 C   0  0  0  0  0  0  0  0  0  0  0  0
   -2.3615   13.7337   17.6239 N   0  0  0  0  0  0  0  0  0  0  0  0
   -1.6186   11.7675   18.5700 N   0  0  0  0  0  0  0  0  0  0  0  0
   -0.8772   10.6579   18.4788 C   0  0  0  0  0  0  0  0  0  0  0  0
   -0.0904   10.2459   17.4889 N   0  0  0  0  0  0  0  0  0  0  0  0
   -0.0998   11.1298   16.4773 C   0  0  0  0  0  0  0  0  0  0  0  0
   -2.3733   14.3815   16.8826 H   0  0  0  0  0  0  0  0  0  0  0  0
   -2.9030   13.8975   18.4295 H   0  0  0  0  0  0  0  0  0  0  0  0
    0.7311   11.0817   11.1875 O   0  0  0  0  0  0  0  0  0  0  0  0
    2.0489   10.5937   11.4267 C   0  0  0  0  0  0  0  0  0  0  0  0
    0.7404   11.6752   10.4203 H   0  0  0  0  0  0  0  0  0  0  0  0
 22 23  1  0  0  0
 23  1  1  0  0  0
  1  2  1  0  0  0
  1  3  1  0  0  0
  2  7  1  0  0  0
  3  4  1  0  0  0
  3  5  1  0  0  0
  5  6  1  0  0  0
  5  7  1  0  0  0
  7 10  1  0  0  0
 10 11  1  0  0  0
 10 19  1  0  0  0
 11 12  2  0  0  0
 12 13  1  0  0  0
 13 14  1  0  0  0
 13 19  2  0  0  0
 14 15  1  0  0  0
 14 16  2  0  0  0
 16 17  1  0  0  0
 17 18  2  0  0  0
 18 19  1  0  0  0
 22 24  1  0  0  0
  4  8  1  0  0  0
  6  9  1  0  0  0
 15 20  1  0  0  0
 15 21  1  0  0  0
M  END
> <minimizedAffinity>
-7.12888

$$$$
1DGM_ADN_A_375


 24 26  0  0  0  0  0  0  0  0999 V2000
    2.1628    9.5062   12.3997 C   0  0  0  0  0  0  0  0  0  0  0  0
    2.4973   10.3551   13.5294 O   0  0  0  0  0  0  0  0  0  0  0  0
    0.7819    8.9554   12.7170 C   0  0  0  0  0  0  0  0  0  0  0  0
    0.5728    7.6946   12.0887 O   0  0  0  0  0  0  0  0  0  0  0  0
    0.8112    8.8321   14.2341 C   0  0  0  0  0  0  0  0  0  0  0  0
    1.3921    7.6249   14.6898 O   0  0  0  0  0  0  0  0  0  0  0  0
    1.6536   10.0504   14.6293 C   0  0  0  0  0  0  0  0  0  0  0  0
    1.2668    7.0762   12.3659 H   0  0  0  0  0  0  0  0  0  0  0  0
    2.2959    7.5508   14.3453 H   0  0  0  0  0  0  0  0  0  0  0  0
    0.8704   11.2494   14.9440 N   0  0  0  0  0  0  0  0  0  0  0  0
   -0.4663   11.4717   14.7215 C   0  0  0  0  0  0  0  0  0  0  0  0
   -0.8802   12.6527   15.1163 N   0  0  0  0  0  0  0  0  0  0  0  0
    0.2604   13.2499   15.6342 C   0  0  0  0  0  0  0  0  0  0  0  0
    0.4887   14.5113   16.2175 C   0  0  0  0  0  0  0  0  0  0  0  0
   -0.4604   15.4332   16.3925 N   0  0  0  0  0  0  0  0  0  0  0  0
    1.7424   14.7953   16.6243 N   0  0  0  0  0  0  0  0  0  0  0  0
    2.6922   13.8676   16.4613 C   0  0  0  0  0  0  0  0  0  0  0  0
    2.6027   12.6497   15.9348 N   0  0  0  0  0  0  0  0  0  0  0  0
    1.3452   12.3977   15.5351 C   0  0  0  0  0  0  0  0  0  0  0  0
   -1.3837   15.2500   16.1040 H   0  0  0  0  0  0  0  0  0  0  0  0
   -0.2372   16.2963   16.8101 H   0  0  0  0  0  0  0  0  0  0  0  0
    1.0160   11.0480   10.9428 O   0  0  0  0  0  0  0  0  0  0  0  0
    2.2299   10.3243   11.1292 C   0  0  0  0  0  0  0  0  0  0  0  0
    1.0717   11.5679   10.1258 H   0  0  0  0  0  0  0  0  0  0  0  0
 22 23  1  0  0  0
 23  1  1  0  0  0
  1  2  1  0  0  0
  1  3  1  0  0  0
  2  7  1  0  0  0
  3  4  1  0  0  0
  3  5  1  0  0  0
  5  6  1  0  0  0
  5  7  1  0  0  0
  7 10  1  0  0  0
 10 11  1  0  0  0
 10 19  1  0  0  0
 11 12  2  0  0  0
 12 13  1  0  0  0
 13 14  1  0  0  0
 13 19  2  0  0  0
 14 15  1  0  0  0
 14 16  2  0  0  0
 16 17  1  0  0  0
 17 18  2  0  0  0
 18 19  1  0  0  0
 22 24  1  0  0  0
  4  8  1  0  0  0
  6  9  1  0  0  0
 15 20  1  0  0  0
 15 21  1  0  0  0
M  END
> <minimizedAffinity>
-6.98763

$$$$
1DGM_ADN_A_375


 24 26  0  0  0  0  0  0  0  0999 V2000
    3.1492    8.8449   10.4493 C   0  0  0  0  0  0  0  0  0  0  0  0
    2.3791    8.1686   11.4782 O   0  0  0  0  0  0  0  0  0  0  0  0
    3.3489   10.2581   10.9727 C   0  0  0  0  0  0  0  0  0  0  0  0
    3.5091   11.1857    9.9040 O   0  0  0  0  0  0  0  0  0  0  0  0
    2.0659   10.5108   11.7521 C   0  0  0  0  0  0  0  0  0  0  0  0
    0.9969   10.9662   10.9445 O   0  0  0  0  0  0  0  0  0  0  0  0
    1.7805    9.1242   12.3402 C   0  0  0  0  0  0  0  0  0  0  0  0
    2.7392   11.1376    9.3159 H   0  0  0  0  0  0  0  0  0  0  0  0
    0.8229   10.3189   10.2433 H   0  0  0  0  0  0  0  0  0  0  0  0
    2.3196    8.9175   13.6880 N   0  0  0  0  0  0  0  0  0  0  0  0
    3.6158    8.6451   14.0503 C   0  0  0  0  0  0  0  0  0  0  0  0
    3.7879    8.5122   15.3443 N   0  0  0  0  0  0  0  0  0  0  0  0
    2.5196    8.7103   15.8715 C   0  0  0  0  0  0  0  0  0  0  0  0
    2.0299    8.7033   17.1920 C   0  0  0  0  0  0  0  0  0  0  0  0
    2.7913    8.4897   18.2670 N   0  0  0  0  0  0  0  0  0  0  0  0
    0.7132    8.9308   17.3726 N   0  0  0  0  0  0  0  0  0  0  0  0
   -0.0491    9.1578   16.2972 C   0  0  0  0  0  0  0  0  0  0  0  0
    0.2917    9.1955   15.0122 N   0  0  0  0  0  0  0  0  0  0  0  0
    1.6061    8.9611   14.8637 C   0  0  0  0  0  0  0  0  0  0  0  0
    3.7556    8.3213   18.1617 H   0  0  0  0  0  0  0  0  0  0  0  0
    2.3887    8.5005   19.1654 H   0  0  0  0  0  0  0  0  0  0  0  0
    5.3350    8.8637    9.4313 O   0  0  0  0  0  0  0  0  0  0  0  0
    4.4333    8.0819   10.2108 C   0  0  0  0  0  0  0  0  0  0  0  0
    6.1535    8.3640    9.2855 H   0  0  0  0  0  0  0  0  0  0  0  0
 22 23  1  0  0  0
 23  1  1  0  0  0
  1  2  1  0  0  0
  1  3  1  0  0  0
  2  7  1  0  0  0
  3  4  1  0  0  0
  3  5  1  0  0  0
  5  6  1  0  0  0
  5  7  1  0  0  0
  7 10  1  0  0  0
 10 11  1  0  0  0
 10 19  1  0  0  0
 11 12  2  0  0  0
 12 13  1  0  0  0
 13 14  1  0  0  0
 13 19  2  0  0  0
 14 15  1  0  0  0
 14 16  2  0  0  0
 16 17  1  0  0  0
 17 18  2  0  0  0
 18 19  1  0  0  0
 22 24  1  0  0  0
  4  8  1  0  0  0
  6  9  1  0  0  0
 15 20  1  0  0  0
 15 21  1  0  0  0
M  END
> <minimizedAffinity>
-6.93916

$$$$
1DGM_ADN_A_375


 24 26  0  0  0  0  0  0  0  0999 V2000
    0.4849    9.3295   17.3019 C   0  0  0  0  0  0  0  0  0  0  0  0
    0.2216    8.6214   16.0616 O   0  0  0  0  0  0  0  0  0  0  0  0
    1.9010    9.8630   17.1570 C   0  0  0  0  0  0  0  0  0  0  0  0
    2.5257   10.0186   18.4274 O   0  0  0  0  0  0  0  0  0  0  0  0
    2.5805    8.7867   16.3219 C   0  0  0  0  0  0  0  0  0  0  0  0
    3.0719    7.7046   17.0899 O   0  0  0  0  0  0  0  0  0  0  0  0
    1.4430    8.3502   15.3914 C   0  0  0  0  0  0  0  0  0  0  0  0
    2.5195    9.1698   18.8969 H   0  0  0  0  0  0  0  0  0  0  0  0
    2.3433    7.3073   17.5921 H   0  0  0  0  0  0  0  0  0  0  0  0
    1.4160    9.0486   14.1024 N   0  0  0  0  0  0  0  0  0  0  0  0
    0.5570   10.0382   13.6919 C   0  0  0  0  0  0  0  0  0  0  0  0
    0.7871   10.4682   12.4737 N   0  0  0  0  0  0  0  0  0  0  0  0
    1.8711    9.7113   12.0519 C   0  0  0  0  0  0  0  0  0  0  0  0
    2.6004    9.6886   10.8473 C   0  0  0  0  0  0  0  0  0  0  0  0
    2.3436   10.4837    9.8066 N   0  0  0  0  0  0  0  0  0  0  0  0
    3.6196    8.8113   10.7490 N   0  0  0  0  0  0  0  0  0  0  0  0
    3.8865    8.0226   11.7958 C   0  0  0  0  0  0  0  0  0  0  0  0
    3.2811    7.9530   12.9779 N   0  0  0  0  0  0  0  0  0  0  0  0
    2.2689    8.8337   13.0442 C   0  0  0  0  0  0  0  0  0  0  0  0
    1.6048   11.1327    9.8535 H   0  0  0  0  0  0  0  0  0  0  0  0
    2.8929   10.4212    8.9921 H   0  0  0  0  0  0  0  0  0  0  0  0
   -0.3009   11.1475   18.6773 O   0  0  0  0  0  0  0  0  0  0  0  0
   -0.5670   10.3994   17.4935 C   0  0  0  0  0  0  0  0  0  0  0  0
   -0.9816   11.8295   18.7887 H   0  0  0  0  0  0  0  0  0  0  0  0
 22 23  1  0  0  0
 23  1  1  0  0  0
  1  2  1  0  0  0
  1  3  1  0  0  0
  2  7  1  0  0  0
  3  4  1  0  0  0
  3  5  1  0  0  0
  5  6  1  0  0  0
  5  7  1  0  0  0
  7 10  1  0  0  0
 10 11  1  0  0  0
 10 19  1  0  0  0
 11 12  2  0  0  0
 12 13  1  0  0  0
 13 14  1  0  0  0
 13 19  2  0  0  0
 14 15  1  0  0  0
 14 16  2  0  0  0
 16 17  1  0  0  0
 17 18  2  0  0  0
 18 19  1  0  0  0
 22 24  1  0  0  0
  4  8  1  0  0  0
  6  9  1  0  0  0
 15 20  1  0  0  0
 15 21  1  0  0  0
M  END
> <minimizedAffinity>
-6.80113

$$$$
1DGM_ADN_A_375


 24 26  0  0  0  0  0  0  0  0999 V2000
    4.0025   10.3068   10.7075 C   0  0  0  0  0  0  0  0  0  0  0  0
    3.5345   10.6851   12.0292 O   0  0  0  0  0  0  0  0  0  0  0  0
    3.3098    8.9873   10.4078 C   0  0  0  0  0  0  0  0  0  0  0  0
    4.0767    8.1955    9.5061 O   0  0  0  0  0  0  0  0  0  0  0  0
    3.2110    8.3412   11.7827 C   0  0  0  0  0  0  0  0  0  0  0  0
    4.3791    7.6369   12.1591 O   0  0  0  0  0  0  0  0  0  0  0  0
    2.9693    9.5587   12.6823 C   0  0  0  0  0  0  0  0  0  0  0  0
    4.9610    8.0485    9.8767 H   0  0  0  0  0  0  0  0  0  0  0  0
    5.1392    8.2392   12.1426 H   0  0  0  0  0  0  0  0  0  0  0  0
    1.5551    9.8480   12.9395 N   0  0  0  0  0  0  0  0  0  0  0  0
    0.4546    9.1468   12.5119 C   0  0  0  0  0  0  0  0  0  0  0  0
   -0.6869    9.6581   12.9084 N   0  0  0  0  0  0  0  0  0  0  0  0
   -0.3146   10.7720   13.6477 C   0  0  0  0  0  0  0  0  0  0  0  0
   -1.0625   11.7423   14.3424 C   0  0  0  0  0  0  0  0  0  0  0  0
   -2.3951   11.7425   14.4163 N   0  0  0  0  0  0  0  0  0  0  0  0
   -0.3844   12.7238   14.9706 N   0  0  0  0  0  0  0  0  0  0  0  0
    0.9517   12.7179   14.9082 C   0  0  0  0  0  0  0  0  0  0  0  0
    1.7656   11.8631   14.2955 N   0  0  0  0  0  0  0  0  0  0  0  0
    1.0622   10.9009   13.6757 C   0  0  0  0  0  0  0  0  0  0  0  0
   -2.9132   11.0367   13.9662 H   0  0  0  0  0  0  0  0  0  0  0  0
   -2.8599   12.4485   14.9210 H   0  0  0  0  0  0  0  0  0  0  0  0
    4.8295   12.2246    9.5022 O   0  0  0  0  0  0  0  0  0  0  0  0
    3.6782   11.4161    9.7317 C   0  0  0  0  0  0  0  0  0  0  0  0
    4.6086   12.9314    8.8755 H   0  0  0  0  0  0  0  0  0  0  0  0
 22 23  1  0  0  0
 23  1  1  0  0  0
  1  2  1  0  0  0
  1  3  1  0  0  0
  2  7  1  0  0  0
  3  4  1  0  0  0
  3  5  1  0  0  0
  5  6  1  0  0  0
  5  7  1  0  0  0
  7 10  1  0  0  0
 10 11  1  0  0  0
 10 19  1  0  0  0
 11 12  2  0  0  0
 12 13  1  0  0  0
 13 14  1  0  0  0
 13 19  2  0  0  0
 14 15  1  0  0  0
 14 16  2  0  0  0
 16 17  1  0  0  0
 17 18  2  0  0  0
 18 19  1  0  0  0
 22 24  1  0  0  0
  4  8  1  0  0  0
  6  9  1  0  0  0
 15 20  1  0  0  0
 15 21  1  0  0  0
M  END
> <minimizedAffinity>
-6.68938

$$$$
1DGM_ADN_A_375


 24 26  0  0  0  0  0  0  0  0999 V2000
    0.6098   10.9729   13.2774 C   0  0  0  0  0  0  0  0  0  0  0  0
    1.8993   10.7260   13.8980 O   0  0  0  0  0  0  0  0  0  0  0  0
   -0.1757    9.6869   13.4778 C   0  0  0  0  0  0  0  0  0  0  0  0
   -1.1512    9.5138   12.4548 O   0  0  0  0  0  0  0  0  0  0  0  0
    0.9076    8.6192   13.4114 C   0  0  0  0  0  0  0  0  0  0  0  0
    1.2209    8.2164   12.0916 O   0  0  0  0  0  0  0  0  0  0  0  0
    2.0882    9.3313   14.0814 C   0  0  0  0  0  0  0  0  0  0  0  0
   -0.7161    9.5248   11.5879 H   0  0  0  0  0  0  0  0  0  0  0  0
    1.5009    8.9886   11.5757 H   0  0  0  0  0  0  0  0  0  0  0  0
    2.2087    9.0769   15.5204 N   0  0  0  0  0  0  0  0  0  0  0  0
    1.2481    9.2227   16.4908 C   0  0  0  0  0  0  0  0  0  0  0  0
    1.6619    8.9137   17.6970 N   0  0  0  0  0  0  0  0  0  0  0  0
    2.9848    8.5386   17.5101 C   0  0  0  0  0  0  0  0  0  0  0  0
    3.9802    8.0963   18.4028 C   0  0  0  0  0  0  0  0  0  0  0  0
    3.7884    7.9422   19.7145 N   0  0  0  0  0  0  0  0  0  0  0  0
    5.1954    7.8099   17.8935 N   0  0  0  0  0  0  0  0  0  0  0  0
    5.3857    7.9515   16.5771 C   0  0  0  0  0  0  0  0  0  0  0  0
    4.5333    8.3516   15.6380 N   0  0  0  0  0  0  0  0  0  0  0  0
    3.3348    8.6338   16.1754 C   0  0  0  0  0  0  0  0  0  0  0  0
    2.9102    8.1447   20.1107 H   0  0  0  0  0  0  0  0  0  0  0  0
    4.5251    7.6260   20.2859 H   0  0  0  0  0  0  0  0  0  0  0  0
   -1.4361   12.0428   13.9733 O   0  0  0  0  0  0  0  0  0  0  0  0
   -0.0198   12.1925   13.9131 C   0  0  0  0  0  0  0  0  0  0  0  0
   -1.8274   12.8305   14.3824 H   0  0  0  0  0  0  0  0  0  0  0  0
 22 23  1  0  0  0
 23  1  1  0  0  0
  1  2  1  0  0  0
  1  3  1  0  0  0
  2  7  1  0  0  0
  3  4  1  0  0  0
  3  5  1  0  0  0
  5  6  1  0  0  0
  5  7  1  0  0  0
  7 10  1  0  0  0
 10 11  1  0  0  0
 10 19  1  0  0  0
 11 12  2  0  0  0
 12 13  1  0  0  0
 13 14  1  0  0  0
 13 19  2  0  0  0
 14 15  1  0  0  0
 14 16  2  0  0  0
 16 17  1  0  0  0
 17 18  2  0  0  0
 18 19  1  0  0  0
 22 24  1  0  0  0
  4  8  1  0  0  0
  6  9  1  0  0  0
 15 20  1  0  0  0
 15 21  1  0  0  0
M  END
> <minimizedAffinity>
-6.67823

$$$$
1DGM_ADN_A_375


 24 26  0  0  0  0  0  0  0  0999 V2000
    2.7272    8.2914   14.1191 C   0  0  0  0  0  0  0  0  0  0  0  0
    1.6127    8.6179   14.9909 O   0  0  0  0  0  0  0  0  0  0  0  0
    2.4828    9.0938   12.8512 C   0  0  0  0  0  0  0  0  0  0  0  0
    3.0723    8.4617   11.7194 O   0  0  0  0  0  0  0  0  0  0  0  0
    0.9635    9.1170   12.7574 C   0  0  0  0  0  0  0  0  0  0  0  0
    0.4206    7.9704   12.1306 O   0  0  0  0  0  0  0  0  0  0  0  0
    0.5615    9.1987   14.2345 C   0  0  0  0  0  0  0  0  0  0  0  0
    2.7234    7.5606   11.6341 H   0  0  0  0  0  0  0  0  0  0  0  0
    0.6992    7.1760   12.6125 H   0  0  0  0  0  0  0  0  0  0  0  0
    0.3501   10.5632   14.7279 N   0  0  0  0  0  0  0  0  0  0  0  0
    1.1186   11.6773   14.4964 C   0  0  0  0  0  0  0  0  0  0  0  0
    0.6675   12.7630   15.0791 N   0  0  0  0  0  0  0  0  0  0  0  0
   -0.4759   12.3365   15.7397 C   0  0  0  0  0  0  0  0  0  0  0  0
   -1.4154   13.0126   16.5421 C   0  0  0  0  0  0  0  0  0  0  0  0
   -1.3551   14.3166   16.8203 N   0  0  0  0  0  0  0  0  0  0  0  0
   -2.4354   12.2937   17.0525 N   0  0  0  0  0  0  0  0  0  0  0  0
   -2.5045   10.9894   16.7642 C   0  0  0  0  0  0  0  0  0  0  0  0
   -1.6911   10.2434   16.0221 N   0  0  0  0  0  0  0  0  0  0  0  0
   -0.6838   10.9850   15.5321 C   0  0  0  0  0  0  0  0  0  0  0  0
   -0.6202   14.8634   16.4596 H   0  0  0  0  0  0  0  0  0  0  0  0
   -2.0455   14.7316   17.3862 H   0  0  0  0  0  0  0  0  0  0  0  0
    4.8540    9.4201   13.9859 O   0  0  0  0  0  0  0  0  0  0  0  0
    4.0224    8.6238   14.8263 C   0  0  0  0  0  0  0  0  0  0  0  0
    5.6803    9.6261   14.4504 H   0  0  0  0  0  0  0  0  0  0  0  0
 22 23  1  0  0  0
 23  1  1  0  0  0
  1  2  1  0  0  0
  1  3  1  0  0  0
  2  7  1  0  0  0
  3  4  1  0  0  0
  3  5  1  0  0  0
  5  6  1  0  0  0
  5  7  1  0  0  0
  7 10  1  0  0  0
 10 11  1  0  0  0
 10 19  1  0  0  0
 11 12  2  0  0  0
 12 13  1  0  0  0
 13 14  1  0  0  0
 13 19  2  0  0  0
 14 15  1  0  0  0
 14 16  2  0  0  0
 16 17  1  0  0  0
 17 18  2  0  0  0
 18 19  1  0  0  0
 22 24  1  0  0  0
  4  8  1  0  0  0
  6  9  1  0  0  0
 15 20  1  0  0  0
 15 21  1  0  0  0
M  END
> <minimizedAffinity>
-6.56281

$$$$
1DGM_ADN_A_375


 24 26  0  0  0  0  0  0  0  0999 V2000
    3.3519   10.1776   10.3871 C   0  0  0  0  0  0  0  0  0  0  0  0
    4.0199   10.2398   11.6750 O   0  0  0  0  0  0  0  0  0  0  0  0
    2.7209    8.7954   10.3378 C   0  0  0  0  0  0  0  0  0  0  0  0
    2.5813    8.3399    8.9957 O   0  0  0  0  0  0  0  0  0  0  0  0
    3.7124    7.9467   11.1217 C   0  0  0  0  0  0  0  0  0  0  0  0
    4.7930    7.4760   10.3387 O   0  0  0  0  0  0  0  0  0  0  0  0
    4.1806    8.9309   12.1997 C   0  0  0  0  0  0  0  0  0  0  0  0
    3.4487    8.3427    8.5614 H   0  0  0  0  0  0  0  0  0  0  0  0
    5.2590    8.2298    9.9444 H   0  0  0  0  0  0  0  0  0  0  0  0
    3.4291    8.8523   13.4563 N   0  0  0  0  0  0  0  0  0  0  0  0
    2.0742    8.7073   13.6265 C   0  0  0  0  0  0  0  0  0  0  0  0
    1.6989    8.6685   14.8832 N   0  0  0  0  0  0  0  0  0  0  0  0
    2.8862    8.7965   15.5901 C   0  0  0  0  0  0  0  0  0  0  0  0
    3.1703    8.8252   16.9691 C   0  0  0  0  0  0  0  0  0  0  0  0
    2.2431    8.7139   17.9226 N   0  0  0  0  0  0  0  0  0  0  0  0
    4.4585    8.9702   17.3400 N   0  0  0  0  0  0  0  0  0  0  0  0
    5.3906    9.0691   16.3858 C   0  0  0  0  0  0  0  0  0  0  0  0
    5.2516    9.0506   15.0633 N   0  0  0  0  0  0  0  0  0  0  0  0
    3.9592    8.9101   14.7248 C   0  0  0  0  0  0  0  0  0  0  0  0
    1.2956    8.6071   17.6776 H   0  0  0  0  0  0  0  0  0  0  0  0
    2.5067    8.7385   18.8708 H   0  0  0  0  0  0  0  0  0  0  0  0
    1.0703   10.8885   10.7093 O   0  0  0  0  0  0  0  0  0  0  0  0
    2.3626   11.3175   10.2874 C   0  0  0  0  0  0  0  0  0  0  0  0
    0.4459   11.6277   10.6407 H   0  0  0  0  0  0  0  0  0  0  0  0
 22 23  1  0  0  0
 23  1  1  0  0  0
  1  2  1  0  0  0
  1  3  1  0  0  0
  2  7  1  0  0  0
  3  4  1  0  0  0
  3  5  1  0  0  0
  5  6  1  0  0  0
  5  7  1  0  0  0
  7 10  1  0  0  0
 10 11  1  0  0  0
 10 19  1  0  0  0
 11 12  2  0  0  0
 12 13  1  0  0  0
 13 14  1  0  0  0
 13 19  2  0  0  0
 14 15  1  0  0  0
 14 16  2  0  0  0
 16 17  1  0  0  0
 17 18  2  0  0  0
 18 19  1  0  0  0
 22 24  1  0  0  0
  4  8  1  0  0  0
  6  9  1  0  0  0
 15 20  1  0  0  0
 15 21  1  0  0  0
M  END
> <minimizedAffinity>
-6.54425

$$$$
