5MN1_2AP_A_306
  RCSB PDB12061719043D
Coordinates from PDB:5MN1:A:306 Model:1 without hydrogens
  7  7  0  0  0  0            999 V2000
   -2.3850  -14.1490  -17.6780   N 0  3  0  0  0  0  0  0  0  0  0  0
   -1.6970  -15.2460  -17.3250   C 0  0  0  0  0  0  0  0  0  0  0  0
   -1.1550  -15.3990  -16.0400   C 0  0  0  0  0  0  0  0  0  0  0  0
   -1.3360  -14.3750  -15.1300   C 0  0  0  0  0  0  0  0  0  0  0  0
   -2.0380  -13.2520  -15.4940   C 0  0  0  0  0  0  0  0  0  0  0  0
   -2.5330  -13.1840  -16.7610   C 0  0  0  0  0  0  0  0  0  0  0  0
   -1.5130  -16.1650  -18.2690   N 0  0  0  0  0  0  0  0  0  0  0  0
  1  2  1  0  0  0  0
  1  6  2  0  0  0  0
  2  3  2  0  0  0  0
  2  7  1  0  0  0  0
  3  4  1  0  0  0  0
  4  5  2  0  0  0  0
  5  6  1  0  0  0  0
M  CHG  1   1   1
A    1
N1
A    2
C2
A    3
C3
A    4
C4
A    5
C5
A    6
C6
A    7
N
M  END
>  <InstanceId>
5MN1_2AP_A_306

>  <ChemCompId>
2AP

>  <PdbId>
5MN1

>  <ChainId>
A

>  <ResidueNumber>
306

>  <InsertionCode>


>  <Model>
1

>  <AltIds>


>  <MissingHeavyAtoms>
0

>  <ObservedFormula>
C5 N2

>  <Name>
2-AMINOPYRIDINE

>  <SystematicName>
pyridin-1-ium-2-amine

>  <Synonyms>


>  <Type>
NON-POLYMER

>  <Formula>
C5 H7 N2

>  <MolecularWeight>
95.122

>  <ModifiedDate>
2011-06-04

>  <Parent>


>  <OneLetterCode>


>  <SubcomponentList>


>  <AmbiguousFlag>
N

>  <InChI>
InChI=1S/C5H6N2/c6-5-3-1-2-4-7-5/h1-4H,(H2,6,7)/p+1

>  <InChIKey>
ICSNLGPSRYBMBD-UHFFFAOYSA-O

>  <SMILES>
c1cc[nH+]c(c1)N

$$$$
