4LJ5_ADP_A_901
  RCSB PDB12061713343D
Coordinates from PDB:4LJ5:A:901 Model:1 without hydrogens
 27 29  0  0  0  0            999 V2000
   54.1090   18.7210   46.1100   P 0  0  0  0  0  0  0  0  0  0  0  0
   55.1640   18.6820   45.0340   O 0  0  0  0  0  0  0  0  0  0  0  0
   54.4480   17.9270   47.3470   O 0  0  0  0  0  0  0  0  0  0  0  0
   52.7000   18.5320   45.6140   O 0  0  0  0  0  0  0  0  0  0  0  0
   53.0980   20.7840   47.7260   P 0  0  0  0  0  0  0  0  0  0  0  0
   51.7280   20.8790   47.0900   O 0  0  0  0  0  0  0  0  0  0  0  0
   53.2910   20.0100   49.0040   O 0  0  0  0  0  0  0  0  0  0  0  0
   54.1270   20.2460   46.6130   O 0  0  0  0  0  0  0  0  0  0  0  0
   53.6800   22.2500   48.0460   O 0  0  0  0  0  0  0  0  0  0  0  0
   53.4640   23.3550   47.1760   C 0  0  0  0  0  0  0  0  0  0  0  0
   52.9070   24.5350   47.9620   C 0  0  0  0  0  0  0  0  0  0  0  0
   52.3910   25.4990   47.0410   O 0  0  0  0  0  0  0  0  0  0  0  0
   51.7710   24.1570   48.9060   C 0  0  0  0  0  0  0  0  0  0  0  0
   52.1550   24.3130   50.2750   O 0  0  0  0  0  0  0  0  0  0  0  0
   50.6250   25.0830   48.5560   C 0  0  0  0  0  0  0  0  0  0  0  0
   50.4790   26.1220   49.5290   O 0  0  0  0  0  0  0  0  0  0  0  0
   50.9840   25.6780   47.2050   C 0  0  0  0  0  0  0  0  0  0  0  0
   50.2430   25.0090   46.1010   N 0  0  0  0  0  0  0  0  0  0  0  0
   50.7810   24.3670   45.0450   C 0  0  0  0  0  0  0  0  0  0  0  0
   49.8170   23.8810   44.2250   N 0  0  0  0  0  0  0  0  0  0  0  0
   48.6320   24.2150   44.7530   C 0  0  0  0  0  0  0  0  0  0  0  0
   47.2080   24.0210   44.3970   C 0  0  0  0  0  0  0  0  0  0  0  0
   46.8590   23.3490   43.2820   N 0  0  0  0  0  0  0  0  0  0  0  0
   46.2710   24.5350   45.2270   N 0  0  0  0  0  0  0  0  0  0  0  0
   46.6060   25.2070   46.3480   C 0  0  0  0  0  0  0  0  0  0  0  0
   47.8800   25.4180   46.7250   N 0  0  0  0  0  0  0  0  0  0  0  0
   48.9170   24.9570   45.9870   C 0  0  0  0  0  0  0  0  0  0  0  0
  1  2  2  0  0  0  0
  1  3  1  0  0  0  0
  1  4  1  0  0  0  0
  1  8  1  0  0  0  0
  5  6  2  0  0  0  0
  5  7  1  0  0  0  0
  5  8  1  0  0  0  0
  5  9  1  0  0  0  0
  9 10  1  0  0  0  0
 10 11  1  0  0  0  0
 11 12  1  0  0  0  0
 11 13  1  0  0  0  0
 12 17  1  0  0  0  0
 13 14  1  0  0  0  0
 13 15  1  0  0  0  0
 15 16  1  0  0  0  0
 15 17  1  0  0  0  0
 17 18  1  0  0  0  0
 18 19  1  0  0  0  0
 18 27  1  0  0  0  0
 19 20  2  0  0  0  0
 20 21  1  0  0  0  0
 21 22  1  0  0  0  0
 21 27  2  0  0  0  0
 22 23  1  0  0  0  0
 22 24  2  0  0  0  0
 24 25  1  0  0  0  0
 25 26  2  0  0  0  0
 26 27  1  0  0  0  0
A    1
PB
A    2
O1B
A    3
O2B
A    4
O3B
A    5
PA
A    6
O1A
A    7
O2A
A    8
O3A
A    9
O5'
A   10
C5'
A   11
C4'
A   12
O4'
A   13
C3'
A   14
O3'
A   15
C2'
A   16
O2'
A   17
C1'
A   18
N9
A   19
C8
A   20
N7
A   21
C5
A   22
C6
A   23
N6
A   24
N1
A   25
C2
A   26
N3
A   27
C4
M  END
>  <InstanceId>
4LJ5_ADP_A_901

>  <ChemCompId>
ADP

>  <PdbId>
4LJ5

>  <ChainId>
A

>  <ResidueNumber>
901

>  <InsertionCode>


>  <Model>
1

>  <AltIds>


>  <MissingHeavyAtoms>
0

>  <ObservedFormula>
C10 N5 O10 P2

>  <Name>
ADENOSINE-5'-DIPHOSPHATE

>  <SystematicName>
[(2R,3S,4R,5R)-5-(6-aminopurin-9-yl)-3,4-dihydroxy-oxolan-2-yl]methyl phosphono hydrogen phosphate

>  <Synonyms>


>  <Type>
NON-POLYMER

>  <Formula>
C10 H15 N5 O10 P2

>  <MolecularWeight>
427.201

>  <ModifiedDate>
2011-06-04

>  <Parent>
A

>  <OneLetterCode>


>  <SubcomponentList>


>  <AmbiguousFlag>
N

>  <InChI>
InChI=1S/C10H15N5O10P2/c11-8-5-9(13-2-12-8)15(3-14-5)10-7(17)6(16)4(24-10)1-23-27(21,22)25-26(18,19)20/h2-4,6-7,10,16-17H,1H2,(H,21,22)(H2,11,12,13)(H2,18,19,20)/t4-,6-,7-,10-/m1/s1

>  <InChIKey>
XTWYTFMLZFPYCI-KQYNXXCUSA-N

>  <SMILES>
c1nc(c2c(n1)n(cn2)[C@H]3[C@@H]([C@@H]([C@H](O3)CO[P@](=O)(O)OP(=O)(O)O)O)O)N

$$$$
