2QM9_TDZ_A_201


 33 36  0  0  0  0  0  0  0  0999 V2000
   -4.0852  -11.9774   19.2375 C   0  0  0  0  0  0  0  0  0  0  0  0
   -4.9348  -11.3241   21.5175 C   0  0  0  0  0  0  0  0  0  0  0  0
   -5.9195  -11.6303   22.6549 C   0  0  0  0  0  0  0  0  0  0  0  0
   -7.1810  -12.3908   22.2075 C   0  0  0  0  0  0  0  0  0  0  0  0
   -8.1682  -12.7576   23.1218 C   0  0  0  0  0  0  0  0  0  0  0  0
   -7.9792  -12.3969   24.5856 C   0  0  0  0  0  0  0  0  0  0  0  0
   -9.3175  -13.4446   22.7381 C   0  0  0  0  0  0  0  0  0  0  0  0
  -10.2603  -13.7894   23.6475 O   0  0  0  0  0  0  0  0  0  0  0  0
   -9.5136  -13.7889   21.4183 C   0  0  0  0  0  0  0  0  0  0  0  0
  -10.7793  -14.5560   21.0099 C   0  0  0  0  0  0  0  0  0  0  0  0
   -8.5450  -13.4369   20.4931 C   0  0  0  0  0  0  0  0  0  0  0  0
   -8.7778  -13.8362   19.0605 C   0  0  0  0  0  0  0  0  0  0  0  0
   -7.3830  -12.7457   20.8745 C   0  0  0  0  0  0  0  0  0  0  0  0
   -6.4245  -12.4138   19.9466 O   0  0  0  0  0  0  0  0  0  0  0  0
   -5.0152  -12.3828   20.4195 C   0  0  0  0  0  0  0  0  0  0  0  0
   -4.4928  -13.7126   20.9781 C   0  0  0  0  0  0  0  0  0  0  0  0
  -10.1453  -13.5643   24.5498 H   0  0  0  0  0  0  0  0  0  0  0  0
   -3.6963  -10.5635   19.1000 O   0  0  0  0  0  0  0  0  0  0  0  0
   -4.6931   -9.8286   18.5142 C   0  0  0  0  0  0  0  0  0  0  0  0
   -5.1985  -10.1391   17.2476 C   0  0  0  0  0  0  0  0  0  0  0  0
   -6.2083   -9.3546   16.6871 C   0  0  0  0  0  0  0  0  0  0  0  0
   -5.2010   -8.7265   19.1841 C   0  0  0  0  0  0  0  0  0  0  0  0
   -6.1976   -7.9361   18.6227 C   0  0  0  0  0  0  0  0  0  0  0  0
   -6.7150   -8.2373   17.3650 C   0  0  0  0  0  0  0  0  0  0  0  0
   -7.8469   -7.3217   16.8158 C   0  0  0  0  0  0  0  0  0  0  0  0
   -9.2387   -7.3941   17.4884 C   0  0  0  0  0  0  0  0  0  0  0  0
   -9.4792   -8.9174   18.4296 S   0  0  0  0  0  0  0  0  0  0  0  0
   -9.7113   -8.1369   19.9401 C   0  0  0  0  0  0  0  0  0  0  0  0
   -9.9126   -8.7483   20.9881 O   0  0  0  0  0  0  0  0  0  0  0  0
   -9.6376   -6.7996   19.8421 N   0  0  0  0  0  0  0  0  0  0  0  0
   -9.3947   -6.3342   18.6025 C   0  0  0  0  0  0  0  0  0  0  0  0
   -9.3116   -5.1264   18.3947 O   0  0  0  0  0  0  0  0  0  0  0  0
   -9.7525   -6.2047   20.6180 H   0  0  0  0  0  0  0  0  0  0  0  0
  2  3  1  0  0  0
  2 15  1  0  0  0
  3  4  1  0  0  0
  4  5  2  0  0  0
  4 13  1  0  0  0
  5  6  1  0  0  0
  5  7  1  0  0  0
  7  8  1  0  0  0
  7  9  2  0  0  0
  9 11  1  0  0  0
  9 10  1  0  0  0
 11 13  2  0  0  0
 11 12  1  0  0  0
 13 14  1  0  0  0
 14 15  1  0  0  0
 15  1  1  0  0  0
 15 16  1  0  0  0
  1 18  1  0  0  0
 18 19  1  0  0  0
 19 20  2  0  0  0
 19 22  1  0  0  0
 20 21  1  0  0  0
 21 24  2  0  0  0
 22 23  2  0  0  0
 23 24  1  0  0  0
 24 25  1  0  0  0
 25 26  1  0  0  0
 26 27  1  0  0  0
 26 31  1  0  0  0
 27 28  1  0  0  0
 28 29  2  0  0  0
 28 30  1  0  0  0
 30 31  1  0  0  0
 31 32  2  0  0  0
  8 17  1  0  0  0
 30 33  1  0  0  0
M  END
> <minimizedAffinity>
-9.59364

$$$$
2QM9_TDZ_A_201


 33 36  0  0  0  0  0  0  0  0999 V2000
   -9.4027   -7.6470   17.6114 C   0  0  0  0  0  0  0  0  0  0  0  0
  -10.3249   -8.4230   19.8236 C   0  0  0  0  0  0  0  0  0  0  0  0
  -10.0084   -8.9379   21.2350 C   0  0  0  0  0  0  0  0  0  0  0  0
   -8.6422   -9.6366   21.3582 C   0  0  0  0  0  0  0  0  0  0  0  0
   -8.1978  -10.1487   22.5769 C   0  0  0  0  0  0  0  0  0  0  0  0
   -9.0882  -10.0029   23.7994 C   0  0  0  0  0  0  0  0  0  0  0  0
   -6.9661  -10.7854   22.7102 C   0  0  0  0  0  0  0  0  0  0  0  0
   -6.5588  -11.2730   23.9064 O   0  0  0  0  0  0  0  0  0  0  0  0
   -6.1357  -10.9281   21.6197 C   0  0  0  0  0  0  0  0  0  0  0  0
   -4.7758  -11.6219   21.7819 C   0  0  0  0  0  0  0  0  0  0  0  0
   -6.5557  -10.4249   20.3996 C   0  0  0  0  0  0  0  0  0  0  0  0
   -5.6241  -10.5826   19.2276 C   0  0  0  0  0  0  0  0  0  0  0  0
   -7.7959   -9.7801   20.2597 C   0  0  0  0  0  0  0  0  0  0  0  0
   -8.1938   -9.2748   19.0447 O   0  0  0  0  0  0  0  0  0  0  0  0
   -9.0469   -8.0574   19.0713 C   0  0  0  0  0  0  0  0  0  0  0  0
   -8.4090   -6.8372   19.7476 C   0  0  0  0  0  0  0  0  0  0  0  0
   -7.1091  -11.1859   24.6597 H   0  0  0  0  0  0  0  0  0  0  0  0
   -8.3220   -7.5906   16.6122 O   0  0  0  0  0  0  0  0  0  0  0  0
   -7.9672   -8.8455   16.1925 C   0  0  0  0  0  0  0  0  0  0  0  0
   -6.6332   -9.2625   16.1421 C   0  0  0  0  0  0  0  0  0  0  0  0
   -6.3196  -10.5484   15.6978 C   0  0  0  0  0  0  0  0  0  0  0  0
   -8.9573   -9.7234   15.7795 C   0  0  0  0  0  0  0  0  0  0  0  0
   -8.6469  -11.0000   15.3245 C   0  0  0  0  0  0  0  0  0  0  0  0
   -7.3232  -11.4310   15.2751 C   0  0  0  0  0  0  0  0  0  0  0  0
   -7.0582  -12.8820   14.7796 C   0  0  0  0  0  0  0  0  0  0  0  0
   -7.3088  -14.0494   15.7640 C   0  0  0  0  0  0  0  0  0  0  0  0
   -6.5670  -13.7640   17.3864 S   0  0  0  0  0  0  0  0  0  0  0  0
   -8.0485  -13.8156   18.2508 C   0  0  0  0  0  0  0  0  0  0  0  0
   -8.1219  -13.6552   19.4680 O   0  0  0  0  0  0  0  0  0  0  0  0
   -9.1020  -14.0387   17.4484 N   0  0  0  0  0  0  0  0  0  0  0  0
   -8.8025  -14.1714   16.1427 C   0  0  0  0  0  0  0  0  0  0  0  0
   -9.6877  -14.3832   15.3179 O   0  0  0  0  0  0  0  0  0  0  0  0
  -10.0235  -14.1005   17.7893 H   0  0  0  0  0  0  0  0  0  0  0  0
  2  3  1  0  0  0
  2 15  1  0  0  0
  3  4  1  0  0  0
  4  5  2  0  0  0
  4 13  1  0  0  0
  5  6  1  0  0  0
  5  7  1  0  0  0
  7  8  1  0  0  0
  7  9  2  0  0  0
  9 11  1  0  0  0
  9 10  1  0  0  0
 11 13  2  0  0  0
 11 12  1  0  0  0
 13 14  1  0  0  0
 14 15  1  0  0  0
 15  1  1  0  0  0
 15 16  1  0  0  0
  1 18  1  0  0  0
 18 19  1  0  0  0
 19 20  2  0  0  0
 19 22  1  0  0  0
 20 21  1  0  0  0
 21 24  2  0  0  0
 22 23  2  0  0  0
 23 24  1  0  0  0
 24 25  1  0  0  0
 25 26  1  0  0  0
 26 27  1  0  0  0
 26 31  1  0  0  0
 27 28  1  0  0  0
 28 29  2  0  0  0
 28 30  1  0  0  0
 30 31  1  0  0  0
 31 32  2  0  0  0
  8 17  1  0  0  0
 30 33  1  0  0  0
M  END
> <minimizedAffinity>
-9.46796

$$$$
2QM9_TDZ_A_201


 33 36  0  0  0  0  0  0  0  0999 V2000
   -4.3478  -11.1277   20.4159 C   0  0  0  0  0  0  0  0  0  0  0  0
   -5.0411  -10.2488   18.1590 C   0  0  0  0  0  0  0  0  0  0  0  0
   -5.9059   -9.2438   17.3849 C   0  0  0  0  0  0  0  0  0  0  0  0
   -7.1515   -8.7637   18.1518 C   0  0  0  0  0  0  0  0  0  0  0  0
   -8.0338   -7.8389   17.5939 C   0  0  0  0  0  0  0  0  0  0  0  0
   -7.7449   -7.2999   16.2030 C   0  0  0  0  0  0  0  0  0  0  0  0
   -9.1669   -7.3922   18.2697 C   0  0  0  0  0  0  0  0  0  0  0  0
  -10.0069   -6.4926   17.7044 O   0  0  0  0  0  0  0  0  0  0  0  0
   -9.4518   -7.8602   19.5341 C   0  0  0  0  0  0  0  0  0  0  0  0
  -10.6978   -7.3517   20.2731 C   0  0  0  0  0  0  0  0  0  0  0  0
   -8.5880   -8.7776   20.1089 C   0  0  0  0  0  0  0  0  0  0  0  0
   -8.9154   -9.2629   21.4958 C   0  0  0  0  0  0  0  0  0  0  0  0
   -7.4426   -9.2301   19.4329 C   0  0  0  0  0  0  0  0  0  0  0  0
   -6.5879  -10.1317   20.0212 O   0  0  0  0  0  0  0  0  0  0  0  0
   -5.1484  -10.0220   19.6656 C   0  0  0  0  0  0  0  0  0  0  0  0
   -4.5001   -8.6746   20.0084 C   0  0  0  0  0  0  0  0  0  0  0  0
   -9.8305   -6.1624   16.8454 H   0  0  0  0  0  0  0  0  0  0  0  0
   -5.0749  -12.3058   20.9183 O   0  0  0  0  0  0  0  0  0  0  0  0
   -5.6339  -13.0200   19.8915 C   0  0  0  0  0  0  0  0  0  0  0  0
   -4.8559  -13.7203   18.9640 C   0  0  0  0  0  0  0  0  0  0  0  0
   -5.4707  -14.4263   17.9282 C   0  0  0  0  0  0  0  0  0  0  0  0
   -7.0127  -13.0298   19.7493 C   0  0  0  0  0  0  0  0  0  0  0  0
   -7.6269  -13.7214   18.7112 C   0  0  0  0  0  0  0  0  0  0  0  0
   -6.8650  -14.4286   17.7841 C   0  0  0  0  0  0  0  0  0  0  0  0
   -7.6263  -15.1994   16.6672 C   0  0  0  0  0  0  0  0  0  0  0  0
   -8.3185  -14.3791   15.5525 C   0  0  0  0  0  0  0  0  0  0  0  0
   -9.6079  -13.2861   16.1903 S   0  0  0  0  0  0  0  0  0  0  0  0
   -8.8693  -11.8349   15.6492 C   0  0  0  0  0  0  0  0  0  0  0  0
   -9.3530  -10.7213   15.8456 O   0  0  0  0  0  0  0  0  0  0  0  0
   -7.7126  -12.0585   15.0046 N   0  0  0  0  0  0  0  0  0  0  0  0
   -7.3560  -13.3532   14.9118 C   0  0  0  0  0  0  0  0  0  0  0  0
   -6.3186  -13.6751   14.3383 O   0  0  0  0  0  0  0  0  0  0  0  0
   -7.1668  -11.3306   14.6283 H   0  0  0  0  0  0  0  0  0  0  0  0
  2  3  1  0  0  0
  2 15  1  0  0  0
  3  4  1  0  0  0
  4  5  2  0  0  0
  4 13  1  0  0  0
  5  6  1  0  0  0
  5  7  1  0  0  0
  7  8  1  0  0  0
  7  9  2  0  0  0
  9 11  1  0  0  0
  9 10  1  0  0  0
 11 13  2  0  0  0
 11 12  1  0  0  0
 13 14  1  0  0  0
 14 15  1  0  0  0
 15  1  1  0  0  0
 15 16  1  0  0  0
  1 18  1  0  0  0
 18 19  1  0  0  0
 19 20  2  0  0  0
 19 22  1  0  0  0
 20 21  1  0  0  0
 21 24  2  0  0  0
 22 23  2  0  0  0
 23 24  1  0  0  0
 24 25  1  0  0  0
 25 26  1  0  0  0
 26 27  1  0  0  0
 26 31  1  0  0  0
 27 28  1  0  0  0
 28 29  2  0  0  0
 28 30  1  0  0  0
 30 31  1  0  0  0
 31 32  2  0  0  0
  8 17  1  0  0  0
 30 33  1  0  0  0
M  END
> <minimizedAffinity>
-9.36799

$$$$
2QM9_TDZ_A_201


 33 36  0  0  0  0  0  0  0  0999 V2000
   -5.0642   -9.9885   19.6594 C   0  0  0  0  0  0  0  0  0  0  0  0
   -5.9274   -9.9686   22.0261 C   0  0  0  0  0  0  0  0  0  0  0  0
   -6.6945  -10.7287   23.1175 C   0  0  0  0  0  0  0  0  0  0  0  0
   -7.6846  -11.7764   22.5771 C   0  0  0  0  0  0  0  0  0  0  0  0
   -8.4495  -12.5624   23.4386 C   0  0  0  0  0  0  0  0  0  0  0  0
   -8.2887  -12.3729   24.9375 C   0  0  0  0  0  0  0  0  0  0  0  0
   -9.3517  -13.5149   22.9708 C   0  0  0  0  0  0  0  0  0  0  0  0
  -10.0817  -14.2654   23.8302 O   0  0  0  0  0  0  0  0  0  0  0  0
   -9.5152  -13.7117   21.6168 C   0  0  0  0  0  0  0  0  0  0  0  0
  -10.5046  -14.7725   21.1140 C   0  0  0  0  0  0  0  0  0  0  0  0
   -8.7640  -12.9439   20.7424 C   0  0  0  0  0  0  0  0  0  0  0  0
   -8.9524  -13.1879   19.2690 C   0  0  0  0  0  0  0  0  0  0  0  0
   -7.8511  -11.9832   21.2084 C   0  0  0  0  0  0  0  0  0  0  0  0
   -7.1035  -11.2371   20.3286 O   0  0  0  0  0  0  0  0  0  0  0  0
   -5.7459  -10.8307   20.7785 C   0  0  0  0  0  0  0  0  0  0  0  0
   -4.8032  -11.9930   21.1156 C   0  0  0  0  0  0  0  0  0  0  0  0
   -9.9849  -14.1466   24.7546 H   0  0  0  0  0  0  0  0  0  0  0  0
   -5.9173   -9.3193   18.6627 O   0  0  0  0  0  0  0  0  0  0  0  0
   -6.1679  -10.1380   17.5932 C   0  0  0  0  0  0  0  0  0  0  0  0
   -5.1804  -10.9582   17.0381 C   0  0  0  0  0  0  0  0  0  0  0  0
   -5.4807  -11.7687   15.9417 C   0  0  0  0  0  0  0  0  0  0  0  0
   -7.4321  -10.1366   17.0246 C   0  0  0  0  0  0  0  0  0  0  0  0
   -7.7303  -10.9331   15.9247 C   0  0  0  0  0  0  0  0  0  0  0  0
   -6.7585  -11.7598   15.3656 C   0  0  0  0  0  0  0  0  0  0  0  0
   -7.1762  -12.6412   14.1533 C   0  0  0  0  0  0  0  0  0  0  0  0
   -7.5830  -14.1100   14.4212 C   0  0  0  0  0  0  0  0  0  0  0  0
   -6.2085  -15.1143   15.0262 S   0  0  0  0  0  0  0  0  0  0  0  0
   -6.9466  -15.5098   16.5239 C   0  0  0  0  0  0  0  0  0  0  0  0
   -6.4010  -16.2058   17.3786 O   0  0  0  0  0  0  0  0  0  0  0  0
   -8.1685  -14.9674   16.6516 N   0  0  0  0  0  0  0  0  0  0  0  0
   -8.5724  -14.2261   15.6031 C   0  0  0  0  0  0  0  0  0  0  0  0
   -9.6757  -13.6861   15.6088 O   0  0  0  0  0  0  0  0  0  0  0  0
   -8.7266  -15.1018   17.4514 H   0  0  0  0  0  0  0  0  0  0  0  0
  2  3  1  0  0  0
  2 15  1  0  0  0
  3  4  1  0  0  0
  4  5  2  0  0  0
  4 13  1  0  0  0
  5  6  1  0  0  0
  5  7  1  0  0  0
  7  8  1  0  0  0
  7  9  2  0  0  0
  9 11  1  0  0  0
  9 10  1  0  0  0
 11 13  2  0  0  0
 11 12  1  0  0  0
 13 14  1  0  0  0
 14 15  1  0  0  0
 15  1  1  0  0  0
 15 16  1  0  0  0
  1 18  1  0  0  0
 18 19  1  0  0  0
 19 20  2  0  0  0
 19 22  1  0  0  0
 20 21  1  0  0  0
 21 24  2  0  0  0
 22 23  2  0  0  0
 23 24  1  0  0  0
 24 25  1  0  0  0
 25 26  1  0  0  0
 26 27  1  0  0  0
 26 31  1  0  0  0
 27 28  1  0  0  0
 28 29  2  0  0  0
 28 30  1  0  0  0
 30 31  1  0  0  0
 31 32  2  0  0  0
  8 17  1  0  0  0
 30 33  1  0  0  0
M  END
> <minimizedAffinity>
-8.88178

$$$$
2QM9_TDZ_A_201


 33 36  0  0  0  0  0  0  0  0999 V2000
   -7.2867  -11.7691   22.4774 C   0  0  0  0  0  0  0  0  0  0  0  0
   -8.8363   -9.8032   22.7616 C   0  0  0  0  0  0  0  0  0  0  0  0
   -9.6816   -8.7261   22.0669 C   0  0  0  0  0  0  0  0  0  0  0  0
   -9.2060   -8.3723   20.6460 C   0  0  0  0  0  0  0  0  0  0  0  0
   -9.8743   -7.4225   19.8740 C   0  0  0  0  0  0  0  0  0  0  0  0
  -11.0968   -6.7347   20.4579 C   0  0  0  0  0  0  0  0  0  0  0  0
   -9.4603   -7.0867   18.5872 C   0  0  0  0  0  0  0  0  0  0  0  0
  -10.1286   -6.1607   17.8588 O   0  0  0  0  0  0  0  0  0  0  0  0
   -8.3577   -7.6974   18.0300 C   0  0  0  0  0  0  0  0  0  0  0  0
   -7.9181   -7.3267   16.6065 C   0  0  0  0  0  0  0  0  0  0  0  0
   -7.6799   -8.6458   18.7779 C   0  0  0  0  0  0  0  0  0  0  0  0
   -6.4869   -9.3070   18.1409 C   0  0  0  0  0  0  0  0  0  0  0  0
   -8.0940   -8.9899   20.0754 C   0  0  0  0  0  0  0  0  0  0  0  0
   -7.4183   -9.9422   20.8009 O   0  0  0  0  0  0  0  0  0  0  0  0
   -8.2228  -10.7630   21.7441 C   0  0  0  0  0  0  0  0  0  0  0  0
   -9.3487  -11.5763   21.0928 C   0  0  0  0  0  0  0  0  0  0  0  0
  -10.8807   -5.7342   18.2199 H   0  0  0  0  0  0  0  0  0  0  0  0
   -5.9631  -12.0519   21.8964 O   0  0  0  0  0  0  0  0  0  0  0  0
   -6.0752  -12.5649   20.6310 C   0  0  0  0  0  0  0  0  0  0  0  0
   -5.0948  -12.3566   19.6556 C   0  0  0  0  0  0  0  0  0  0  0  0
   -5.2578  -12.8914   18.3762 C   0  0  0  0  0  0  0  0  0  0  0  0
   -7.2068  -13.2920   20.2960 C   0  0  0  0  0  0  0  0  0  0  0  0
   -7.3776  -13.8148   19.0190 C   0  0  0  0  0  0  0  0  0  0  0  0
   -6.4064  -13.6208   18.0395 C   0  0  0  0  0  0  0  0  0  0  0  0
   -6.6572  -14.2595   16.6429 C   0  0  0  0  0  0  0  0  0  0  0  0
   -7.6061  -13.5287   15.6630 C   0  0  0  0  0  0  0  0  0  0  0  0
   -9.2267  -13.1888   16.3856 S   0  0  0  0  0  0  0  0  0  0  0  0
   -9.1125  -11.4829   16.2386 C   0  0  0  0  0  0  0  0  0  0  0  0
   -9.9964  -10.7156   16.6163 O   0  0  0  0  0  0  0  0  0  0  0  0
   -7.9554  -11.0935   15.6794 N   0  0  0  0  0  0  0  0  0  0  0  0
   -7.1182  -12.0954   15.3517 C   0  0  0  0  0  0  0  0  0  0  0  0
   -6.0327  -11.8558   14.8291 O   0  0  0  0  0  0  0  0  0  0  0  0
   -7.7359  -10.1469   15.5211 H   0  0  0  0  0  0  0  0  0  0  0  0
  2  3  1  0  0  0
  2 15  1  0  0  0
  3  4  1  0  0  0
  4  5  2  0  0  0
  4 13  1  0  0  0
  5  6  1  0  0  0
  5  7  1  0  0  0
  7  8  1  0  0  0
  7  9  2  0  0  0
  9 11  1  0  0  0
  9 10  1  0  0  0
 11 13  2  0  0  0
 11 12  1  0  0  0
 13 14  1  0  0  0
 14 15  1  0  0  0
 15  1  1  0  0  0
 15 16  1  0  0  0
  1 18  1  0  0  0
 18 19  1  0  0  0
 19 20  2  0  0  0
 19 22  1  0  0  0
 20 21  1  0  0  0
 21 24  2  0  0  0
 22 23  2  0  0  0
 23 24  1  0  0  0
 24 25  1  0  0  0
 25 26  1  0  0  0
 26 27  1  0  0  0
 26 31  1  0  0  0
 27 28  1  0  0  0
 28 29  2  0  0  0
 28 30  1  0  0  0
 30 31  1  0  0  0
 31 32  2  0  0  0
  8 17  1  0  0  0
 30 33  1  0  0  0
M  END
> <minimizedAffinity>
-8.52447

$$$$
2QM9_TDZ_A_201


 33 36  0  0  0  0  0  0  0  0999 V2000
   -4.3511  -13.2209   20.7910 C   0  0  0  0  0  0  0  0  0  0  0  0
   -4.4917  -15.0221   19.0353 C   0  0  0  0  0  0  0  0  0  0  0  0
   -5.0806  -15.4524   17.6843 C   0  0  0  0  0  0  0  0  0  0  0  0
   -6.3988  -14.7460   17.3187 C   0  0  0  0  0  0  0  0  0  0  0  0
   -7.0556  -15.0142   16.1180 C   0  0  0  0  0  0  0  0  0  0  0  0
   -6.4442  -16.0224   15.1598 C   0  0  0  0  0  0  0  0  0  0  0  0
   -8.2493  -14.3875   15.7684 C   0  0  0  0  0  0  0  0  0  0  0  0
   -8.8659  -14.6664   14.5951 O   0  0  0  0  0  0  0  0  0  0  0  0
   -8.8246  -13.4655   16.6158 C   0  0  0  0  0  0  0  0  0  0  0  0
  -10.1347  -12.7733   16.2139 C   0  0  0  0  0  0  0  0  0  0  0  0
   -8.1884  -13.1817   17.8128 C   0  0  0  0  0  0  0  0  0  0  0  0
   -8.8312  -12.1616   18.7140 C   0  0  0  0  0  0  0  0  0  0  0  0
   -6.9833  -13.8092   18.1698 C   0  0  0  0  0  0  0  0  0  0  0  0
   -6.3570  -13.5081   19.3559 O   0  0  0  0  0  0  0  0  0  0  0  0
   -4.8720  -13.5806   19.3678 C   0  0  0  0  0  0  0  0  0  0  0  0
   -4.1724  -12.6448   18.3739 C   0  0  0  0  0  0  0  0  0  0  0  0
   -8.4906  -15.2903   14.0053 H   0  0  0  0  0  0  0  0  0  0  0  0
   -5.2470  -13.4264   21.9419 O   0  0  0  0  0  0  0  0  0  0  0  0
   -6.1851  -12.4315   22.0254 C   0  0  0  0  0  0  0  0  0  0  0  0
   -5.8400  -11.0778   21.9606 C   0  0  0  0  0  0  0  0  0  0  0  0
   -6.8306  -10.0989   22.0602 C   0  0  0  0  0  0  0  0  0  0  0  0
   -7.5163  -12.7734   22.2057 C   0  0  0  0  0  0  0  0  0  0  0  0
   -8.5032  -11.8005   22.3180 C   0  0  0  0  0  0  0  0  0  0  0  0
   -8.1748  -10.4486   22.2487 C   0  0  0  0  0  0  0  0  0  0  0  0
   -9.3379   -9.4205   22.3558 C   0  0  0  0  0  0  0  0  0  0  0  0
   -9.3573   -8.2307   21.3665 C   0  0  0  0  0  0  0  0  0  0  0  0
   -8.4991   -8.5970   19.8195 S   0  0  0  0  0  0  0  0  0  0  0  0
   -9.8743   -8.3746   18.8174 C   0  0  0  0  0  0  0  0  0  0  0  0
   -9.8472   -8.5238   17.5969 O   0  0  0  0  0  0  0  0  0  0  0  0
  -10.9682   -8.0333   19.5176 N   0  0  0  0  0  0  0  0  0  0  0  0
  -10.7835   -7.9376   20.8476 C   0  0  0  0  0  0  0  0  0  0  0  0
  -11.7145   -7.6269   21.5861 O   0  0  0  0  0  0  0  0  0  0  0  0
  -11.8393   -7.8657   19.0906 H   0  0  0  0  0  0  0  0  0  0  0  0
  2  3  1  0  0  0
  2 15  1  0  0  0
  3  4  1  0  0  0
  4  5  2  0  0  0
  4 13  1  0  0  0
  5  6  1  0  0  0
  5  7  1  0  0  0
  7  8  1  0  0  0
  7  9  2  0  0  0
  9 11  1  0  0  0
  9 10  1  0  0  0
 11 13  2  0  0  0
 11 12  1  0  0  0
 13 14  1  0  0  0
 14 15  1  0  0  0
 15  1  1  0  0  0
 15 16  1  0  0  0
  1 18  1  0  0  0
 18 19  1  0  0  0
 19 20  2  0  0  0
 19 22  1  0  0  0
 20 21  1  0  0  0
 21 24  2  0  0  0
 22 23  2  0  0  0
 23 24  1  0  0  0
 24 25  1  0  0  0
 25 26  1  0  0  0
 26 27  1  0  0  0
 26 31  1  0  0  0
 27 28  1  0  0  0
 28 29  2  0  0  0
 28 30  1  0  0  0
 30 31  1  0  0  0
 31 32  2  0  0  0
  8 17  1  0  0  0
 30 33  1  0  0  0
M  END
> <minimizedAffinity>
-8.42245

$$$$
2QM9_TDZ_A_201


 33 36  0  0  0  0  0  0  0  0999 V2000
   -3.4194  -11.5740   18.3536 C   0  0  0  0  0  0  0  0  0  0  0  0
   -5.5673  -12.7589   17.7796 C   0  0  0  0  0  0  0  0  0  0  0  0
   -7.0089  -12.6241   17.2689 C   0  0  0  0  0  0  0  0  0  0  0  0
   -7.6293  -11.2335   17.4953 C   0  0  0  0  0  0  0  0  0  0  0  0
   -8.9274  -10.9424   17.0765 C   0  0  0  0  0  0  0  0  0  0  0  0
   -9.7315  -12.0276   16.3806 C   0  0  0  0  0  0  0  0  0  0  0  0
   -9.5081   -9.6917   17.2724 C   0  0  0  0  0  0  0  0  0  0  0  0
  -10.7709   -9.4359   16.8548 O   0  0  0  0  0  0  0  0  0  0  0  0
   -8.8010   -8.6870   17.8966 C   0  0  0  0  0  0  0  0  0  0  0  0
   -9.4483   -7.3093   18.0966 C   0  0  0  0  0  0  0  0  0  0  0  0
   -7.5090   -8.9528   18.3188 C   0  0  0  0  0  0  0  0  0  0  0  0
   -6.7543   -7.8343   18.9861 C   0  0  0  0  0  0  0  0  0  0  0  0
   -6.9174  -10.2118   18.1221 C   0  0  0  0  0  0  0  0  0  0  0  0
   -5.6296  -10.4570   18.5357 O   0  0  0  0  0  0  0  0  0  0  0  0
   -4.8364  -11.4188   17.7255 C   0  0  0  0  0  0  0  0  0  0  0  0
   -4.6452  -11.0208   16.2564 C   0  0  0  0  0  0  0  0  0  0  0  0
  -11.2681  -10.1059   16.4283 H   0  0  0  0  0  0  0  0  0  0  0  0
   -3.1571  -10.9521   19.6627 O   0  0  0  0  0  0  0  0  0  0  0  0
   -4.1697  -11.2119   20.5482 C   0  0  0  0  0  0  0  0  0  0  0  0
   -4.5615  -12.5161   20.8668 C   0  0  0  0  0  0  0  0  0  0  0  0
   -5.6060  -12.7312   21.7680 C   0  0  0  0  0  0  0  0  0  0  0  0
   -4.8466  -10.1507   21.1287 C   0  0  0  0  0  0  0  0  0  0  0  0
   -5.8955  -10.3618   22.0166 C   0  0  0  0  0  0  0  0  0  0  0  0
   -6.2921  -11.6553   22.3481 C   0  0  0  0  0  0  0  0  0  0  0  0
   -7.4559  -11.8102   23.3692 C   0  0  0  0  0  0  0  0  0  0  0  0
   -8.8306  -12.2907   22.8457 C   0  0  0  0  0  0  0  0  0  0  0  0
   -9.0444  -11.9948   21.0763 S   0  0  0  0  0  0  0  0  0  0  0  0
   -9.2411  -13.6479   20.6604 C   0  0  0  0  0  0  0  0  0  0  0  0
   -9.4153  -14.0340   19.5058 O   0  0  0  0  0  0  0  0  0  0  0  0
   -9.1729  -14.4567   21.7304 N   0  0  0  0  0  0  0  0  0  0  0  0
   -8.9616  -13.8298   22.9028 C   0  0  0  0  0  0  0  0  0  0  0  0
   -8.8865  -14.4703   23.9481 O   0  0  0  0  0  0  0  0  0  0  0  0
   -9.2701  -15.4340   21.6625 H   0  0  0  0  0  0  0  0  0  0  0  0
  2  3  1  0  0  0
  2 15  1  0  0  0
  3  4  1  0  0  0
  4  5  2  0  0  0
  4 13  1  0  0  0
  5  6  1  0  0  0
  5  7  1  0  0  0
  7  8  1  0  0  0
  7  9  2  0  0  0
  9 11  1  0  0  0
  9 10  1  0  0  0
 11 13  2  0  0  0
 11 12  1  0  0  0
 13 14  1  0  0  0
 14 15  1  0  0  0
 15  1  1  0  0  0
 15 16  1  0  0  0
  1 18  1  0  0  0
 18 19  1  0  0  0
 19 20  2  0  0  0
 19 22  1  0  0  0
 20 21  1  0  0  0
 21 24  2  0  0  0
 22 23  2  0  0  0
 23 24  1  0  0  0
 24 25  1  0  0  0
 25 26  1  0  0  0
 26 27  1  0  0  0
 26 31  1  0  0  0
 27 28  1  0  0  0
 28 29  2  0  0  0
 28 30  1  0  0  0
 30 31  1  0  0  0
 31 32  2  0  0  0
  8 17  1  0  0  0
 30 33  1  0  0  0
M  END
> <minimizedAffinity>
-8.34923

$$$$
2QM9_TDZ_A_201


 33 36  0  0  0  0  0  0  0  0999 V2000
   -9.4960   -9.0824   21.9393 C   0  0  0  0  0  0  0  0  0  0  0  0
   -8.4121   -8.0997   19.8883 C   0  0  0  0  0  0  0  0  0  0  0  0
   -8.2201   -8.1973   18.3682 C   0  0  0  0  0  0  0  0  0  0  0  0
   -8.4298   -9.6114   17.7969 C   0  0  0  0  0  0  0  0  0  0  0  0
   -8.3062   -9.8667   16.4314 C   0  0  0  0  0  0  0  0  0  0  0  0
   -7.9618   -8.7161   15.5009 C   0  0  0  0  0  0  0  0  0  0  0  0
   -8.4905  -11.1384   15.8940 C   0  0  0  0  0  0  0  0  0  0  0  0
   -8.3651  -11.3582   14.5634 O   0  0  0  0  0  0  0  0  0  0  0  0
   -8.8079  -12.2001   16.7132 C   0  0  0  0  0  0  0  0  0  0  0  0
   -9.0195  -13.5947   16.1073 C   0  0  0  0  0  0  0  0  0  0  0  0
   -8.9382  -11.9693   18.0727 C   0  0  0  0  0  0  0  0  0  0  0  0
   -9.2980  -13.1434   18.9433 C   0  0  0  0  0  0  0  0  0  0  0  0
   -8.7554  -10.6884   18.6200 C   0  0  0  0  0  0  0  0  0  0  0  0
   -8.9001  -10.4724   19.9699 O   0  0  0  0  0  0  0  0  0  0  0  0
   -9.4139   -9.1403   20.3848 C   0  0  0  0  0  0  0  0  0  0  0  0
  -10.8032   -8.7862   19.8393 C   0  0  0  0  0  0  0  0  0  0  0  0
   -8.1497  -10.6494   13.9897 H   0  0  0  0  0  0  0  0  0  0  0  0
   -9.2398  -10.3143   22.7047 O   0  0  0  0  0  0  0  0  0  0  0  0
   -8.0521  -10.8898   22.3373 C   0  0  0  0  0  0  0  0  0  0  0  0
   -6.8580  -10.1632   22.2895 C   0  0  0  0  0  0  0  0  0  0  0  0
   -5.6735  -10.7910   21.8994 C   0  0  0  0  0  0  0  0  0  0  0  0
   -8.0344  -12.2279   21.9760 C   0  0  0  0  0  0  0  0  0  0  0  0
   -6.8587  -12.8524   21.5748 C   0  0  0  0  0  0  0  0  0  0  0  0
   -5.6609  -12.1427   21.5288 C   0  0  0  0  0  0  0  0  0  0  0  0
   -4.3831  -12.9177   21.0956 C   0  0  0  0  0  0  0  0  0  0  0  0
   -3.6868  -12.5033   19.7772 C   0  0  0  0  0  0  0  0  0  0  0  0
   -4.8612  -12.1446   18.4520 S   0  0  0  0  0  0  0  0  0  0  0  0
   -4.3780  -10.5108   18.2481 C   0  0  0  0  0  0  0  0  0  0  0  0
   -4.8983   -9.7535   17.4305 O   0  0  0  0  0  0  0  0  0  0  0  0
   -3.3856  -10.1623   19.0830 N   0  0  0  0  0  0  0  0  0  0  0  0
   -2.9699  -11.1403   19.9095 C   0  0  0  0  0  0  0  0  0  0  0  0
   -2.0636  -10.9351   20.7127 O   0  0  0  0  0  0  0  0  0  0  0  0
   -2.9918   -9.2600   19.0902 H   0  0  0  0  0  0  0  0  0  0  0  0
  2  3  1  0  0  0
  2 15  1  0  0  0
  3  4  1  0  0  0
  4  5  2  0  0  0
  4 13  1  0  0  0
  5  6  1  0  0  0
  5  7  1  0  0  0
  7  8  1  0  0  0
  7  9  2  0  0  0
  9 11  1  0  0  0
  9 10  1  0  0  0
 11 13  2  0  0  0
 11 12  1  0  0  0
 13 14  1  0  0  0
 14 15  1  0  0  0
 15  1  1  0  0  0
 15 16  1  0  0  0
  1 18  1  0  0  0
 18 19  1  0  0  0
 19 20  2  0  0  0
 19 22  1  0  0  0
 20 21  1  0  0  0
 21 24  2  0  0  0
 22 23  2  0  0  0
 23 24  1  0  0  0
 24 25  1  0  0  0
 25 26  1  0  0  0
 26 27  1  0  0  0
 26 31  1  0  0  0
 27 28  1  0  0  0
 28 29  2  0  0  0
 28 30  1  0  0  0
 30 31  1  0  0  0
 31 32  2  0  0  0
  8 17  1  0  0  0
 30 33  1  0  0  0
M  END
> <minimizedAffinity>
-8.21337

$$$$
2QM9_TDZ_A_201


 33 36  0  0  0  0  0  0  0  0999 V2000
   -4.9128   -9.2165   19.6823 C   0  0  0  0  0  0  0  0  0  0  0  0
   -5.5476   -9.1782   17.2447 C   0  0  0  0  0  0  0  0  0  0  0  0
   -6.2694   -9.8977   16.0963 C   0  0  0  0  0  0  0  0  0  0  0  0
   -6.3952  -11.4200   16.2879 C   0  0  0  0  0  0  0  0  0  0  0  0
   -7.0370  -12.2186   15.3416 C   0  0  0  0  0  0  0  0  0  0  0  0
   -7.6225  -11.5588   14.1045 C   0  0  0  0  0  0  0  0  0  0  0  0
   -7.1607  -13.5975   15.4946 C   0  0  0  0  0  0  0  0  0  0  0  0
   -7.7899  -14.3493   14.5600 O   0  0  0  0  0  0  0  0  0  0  0  0
   -6.6434  -14.2226   16.6084 C   0  0  0  0  0  0  0  0  0  0  0  0
   -6.7962  -15.7416   16.7709 C   0  0  0  0  0  0  0  0  0  0  0  0
   -6.0039  -13.4488   17.5626 C   0  0  0  0  0  0  0  0  0  0  0  0
   -5.4593  -14.1547   18.7755 C   0  0  0  0  0  0  0  0  0  0  0  0
   -5.8778  -12.0575   17.4146 C   0  0  0  0  0  0  0  0  0  0  0  0
   -5.2511  -11.3010   18.3762 O   0  0  0  0  0  0  0  0  0  0  0  0
   -5.7492   -9.9133   18.5683 C   0  0  0  0  0  0  0  0  0  0  0  0
   -7.2258   -9.8079   18.9704 C   0  0  0  0  0  0  0  0  0  0  0  0
   -8.1484  -13.9430   13.7955 H   0  0  0  0  0  0  0  0  0  0  0  0
   -4.2414  -10.0565   20.6888 O   0  0  0  0  0  0  0  0  0  0  0  0
   -5.1511  -10.7235   21.4662 C   0  0  0  0  0  0  0  0  0  0  0  0
   -5.2410  -12.1191   21.4726 C   0  0  0  0  0  0  0  0  0  0  0  0
   -6.1912  -12.7541   22.2746 C   0  0  0  0  0  0  0  0  0  0  0  0
   -6.0289   -9.9942   22.2530 C   0  0  0  0  0  0  0  0  0  0  0  0
   -6.9845  -10.6235   23.0428 C   0  0  0  0  0  0  0  0  0  0  0  0
   -7.0812  -12.0129   23.0641 C   0  0  0  0  0  0  0  0  0  0  0  0
   -8.1579  -12.6439   23.9933 C   0  0  0  0  0  0  0  0  0  0  0  0
   -9.3846  -13.3223   23.3378 C   0  0  0  0  0  0  0  0  0  0  0  0
   -9.7973  -12.6109   21.7292 S   0  0  0  0  0  0  0  0  0  0  0  0
   -9.5673  -14.0650   20.8476 C   0  0  0  0  0  0  0  0  0  0  0  0
   -9.7127  -14.1418   19.6288 O   0  0  0  0  0  0  0  0  0  0  0  0
   -9.2055  -15.0901   21.6362 N   0  0  0  0  0  0  0  0  0  0  0  0
   -9.0885  -14.7870   22.9426 C   0  0  0  0  0  0  0  0  0  0  0  0
   -8.7674  -15.6489   23.7567 O   0  0  0  0  0  0  0  0  0  0  0  0
   -9.0384  -15.9947   21.2854 H   0  0  0  0  0  0  0  0  0  0  0  0
  2  3  1  0  0  0
  2 15  1  0  0  0
  3  4  1  0  0  0
  4  5  2  0  0  0
  4 13  1  0  0  0
  5  6  1  0  0  0
  5  7  1  0  0  0
  7  8  1  0  0  0
  7  9  2  0  0  0
  9 11  1  0  0  0
  9 10  1  0  0  0
 11 13  2  0  0  0
 11 12  1  0  0  0
 13 14  1  0  0  0
 14 15  1  0  0  0
 15  1  1  0  0  0
 15 16  1  0  0  0
  1 18  1  0  0  0
 18 19  1  0  0  0
 19 20  2  0  0  0
 19 22  1  0  0  0
 20 21  1  0  0  0
 21 24  2  0  0  0
 22 23  2  0  0  0
 23 24  1  0  0  0
 24 25  1  0  0  0
 25 26  1  0  0  0
 26 27  1  0  0  0
 26 31  1  0  0  0
 27 28  1  0  0  0
 28 29  2  0  0  0
 28 30  1  0  0  0
 30 31  1  0  0  0
 31 32  2  0  0  0
  8 17  1  0  0  0
 30 33  1  0  0  0
M  END
> <minimizedAffinity>
-8.10534

$$$$
2QM9_TDZ_A_201


 33 36  0  0  0  0  0  0  0  0999 V2000
   -9.0357   -7.6295   19.1703 C   0  0  0  0  0  0  0  0  0  0  0  0
   -8.8940  -10.0607   18.5255 C   0  0  0  0  0  0  0  0  0  0  0  0
   -9.0556  -11.5188   18.9785 C   0  0  0  0  0  0  0  0  0  0  0  0
   -8.8926  -11.7284   20.4949 C   0  0  0  0  0  0  0  0  0  0  0  0
   -9.0236  -12.9922   21.0697 C   0  0  0  0  0  0  0  0  0  0  0  0
   -9.3379  -14.1755   20.1699 C   0  0  0  0  0  0  0  0  0  0  0  0
   -8.8789  -13.2041   22.4387 C   0  0  0  0  0  0  0  0  0  0  0  0
   -9.0121  -14.4426   22.9708 O   0  0  0  0  0  0  0  0  0  0  0  0
   -8.5982  -12.1491   23.2797 C   0  0  0  0  0  0  0  0  0  0  0  0
   -8.4521  -12.3938   24.7882 C   0  0  0  0  0  0  0  0  0  0  0  0
   -8.4662  -10.8843   22.7309 C   0  0  0  0  0  0  0  0  0  0  0  0
   -8.1723   -9.7477   23.6731 C   0  0  0  0  0  0  0  0  0  0  0  0
   -8.6130  -10.6643   21.3512 C   0  0  0  0  0  0  0  0  0  0  0  0
   -8.4912   -9.4012   20.8227 O   0  0  0  0  0  0  0  0  0  0  0  0
   -9.3188   -9.0916   19.6270 C   0  0  0  0  0  0  0  0  0  0  0  0
  -10.8327   -9.2201   19.8393 C   0  0  0  0  0  0  0  0  0  0  0  0
   -9.2029  -15.1729   22.4157 H   0  0  0  0  0  0  0  0  0  0  0  0
   -7.6671   -7.1020   19.3046 O   0  0  0  0  0  0  0  0  0  0  0  0
   -6.7426   -7.9899   18.8210 C   0  0  0  0  0  0  0  0  0  0  0  0
   -6.6417   -8.2889   17.4585 C   0  0  0  0  0  0  0  0  0  0  0  0
   -5.6897   -9.2083   17.0139 C   0  0  0  0  0  0  0  0  0  0  0  0
   -5.8963   -8.6335   19.7104 C   0  0  0  0  0  0  0  0  0  0  0  0
   -4.9560   -9.5590   19.2717 C   0  0  0  0  0  0  0  0  0  0  0  0
   -4.8399   -9.8616   17.9170 C   0  0  0  0  0  0  0  0  0  0  0  0
   -3.7461  -10.8873   17.5014 C   0  0  0  0  0  0  0  0  0  0  0  0
   -3.8426  -12.3275   18.0595 C   0  0  0  0  0  0  0  0  0  0  0  0
   -3.5627  -12.4038   19.8427 S   0  0  0  0  0  0  0  0  0  0  0  0
   -5.1092  -13.0445   20.2199 C   0  0  0  0  0  0  0  0  0  0  0  0
   -5.4727  -13.2896   21.3689 O   0  0  0  0  0  0  0  0  0  0  0  0
   -5.8658  -13.2333   19.1265 N   0  0  0  0  0  0  0  0  0  0  0  0
   -5.2810  -12.8855   17.9650 C   0  0  0  0  0  0  0  0  0  0  0  0
   -5.8789  -13.0199   16.9005 O   0  0  0  0  0  0  0  0  0  0  0  0
   -6.7791  -13.5983   19.1711 H   0  0  0  0  0  0  0  0  0  0  0  0
  2  3  1  0  0  0
  2 15  1  0  0  0
  3  4  1  0  0  0
  4  5  2  0  0  0
  4 13  1  0  0  0
  5  6  1  0  0  0
  5  7  1  0  0  0
  7  8  1  0  0  0
  7  9  2  0  0  0
  9 11  1  0  0  0
  9 10  1  0  0  0
 11 13  2  0  0  0
 11 12  1  0  0  0
 13 14  1  0  0  0
 14 15  1  0  0  0
 15  1  1  0  0  0
 15 16  1  0  0  0
  1 18  1  0  0  0
 18 19  1  0  0  0
 19 20  2  0  0  0
 19 22  1  0  0  0
 20 21  1  0  0  0
 21 24  2  0  0  0
 22 23  2  0  0  0
 23 24  1  0  0  0
 24 25  1  0  0  0
 25 26  1  0  0  0
 26 27  1  0  0  0
 26 31  1  0  0  0
 27 28  1  0  0  0
 28 29  2  0  0  0
 28 30  1  0  0  0
 30 31  1  0  0  0
 31 32  2  0  0  0
  8 17  1  0  0  0
 30 33  1  0  0  0
M  END
> <minimizedAffinity>
-8.10417

$$$$
