1PVN_MZP_A_971


 27 28  0  0  0  0  0  0  0  0999 V2000
  -25.9733   36.6318   45.6927 C   0  0  0  0  0  0  0  0  0  0  0  0
  -25.5326   36.0745   46.9434 O   0  0  0  0  0  0  0  0  0  0  0  0
  -24.6886   37.1869   45.0634 C   0  0  0  0  0  0  0  0  0  0  0  0
  -24.9661   38.1919   44.1216 O   0  0  0  0  0  0  0  0  0  0  0  0
  -23.9062   37.7152   46.2802 C   0  0  0  0  0  0  0  0  0  0  0  0
  -24.3236   39.0364   46.6557 O   0  0  0  0  0  0  0  0  0  0  0  0
  -24.2782   36.6994   47.3357 C   0  0  0  0  0  0  0  0  0  0  0  0
  -25.4709   38.9028   44.5466 H   0  0  0  0  0  0  0  0  0  0  0  0
  -25.2777   39.0367   46.8305 H   0  0  0  0  0  0  0  0  0  0  0  0
  -23.2459   35.6634   47.6222 N   0  0  0  0  0  0  0  0  0  0  0  0
  -22.8269   34.5193   47.0691 C   0  0  0  0  0  0  0  0  0  0  0  0
  -21.8813   33.9670   47.7285 N   0  0  0  0  0  0  0  0  0  0  0  0
  -21.6563   34.7841   48.7785 C   0  0  0  0  0  0  0  0  0  0  0  0
  -22.4869   35.8479   48.7236 C   0  0  0  0  0  0  0  0  0  0  0  0
  -22.5318   36.8700   49.6213 O   0  0  0  0  0  0  0  0  0  0  0  0
  -21.4167   33.1255   47.5159 H   0  0  0  0  0  0  0  0  0  0  0  0
  -20.6522   34.5740   49.8537 C   0  0  0  0  0  0  0  0  0  0  0  0
  -20.9968   34.2593   50.9839 O   0  0  0  0  0  0  0  0  0  0  0  0
  -19.2899   34.7342   49.6236 N   0  0  0  0  0  0  0  0  0  0  0  0
  -18.9684   34.9871   48.7281 H   0  0  0  0  0  0  0  0  0  0  0  0
  -18.6471   34.5947   50.3561 H   0  0  0  0  0  0  0  0  0  0  0  0
  -26.6709   35.5723   44.8069 C   0  0  0  0  0  0  0  0  0  0  0  0
  -25.8098   35.4899   43.6312 O   0  0  0  0  0  0  0  0  0  0  0  0
  -26.4494   35.4836   42.2432 P   0  0  0  0  0  0  0  0  0  0  0  0
  -25.6881   34.5399   41.3894 O   0  0  0  0  0  0  0  0  0  0  0  0
  -27.8744   35.0822   42.3867 O   0  0  0  0  0  0  0  0  0  0  0  0
  -26.2955   36.8527   41.7141 O   0  0  0  0  0  0  0  0  0  0  0  0
 24 25  2  0  0  0
 24 26  1  0  0  0
 24 27  1  0  0  0
 24 23  1  0  0  0
 23 22  1  0  0  0
 22  1  1  0  0  0
  1  2  1  0  0  0
  1  3  1  0  0  0
  2  7  1  0  0  0
  3  4  1  0  0  0
  3  5  1  0  0  0
  5  6  1  0  0  0
  5  7  1  0  0  0
  7 10  1  0  0  0
 10 11  1  0  0  0
 10 14  1  0  0  0
 11 12  2  0  0  0
 12 13  1  0  0  0
 13 17  1  0  0  0
 13 14  2  0  0  0
 17 18  2  0  0  0
 17 19  1  0  0  0
 14 15  1  0  0  0
  4  8  1  0  0  0
  6  9  1  0  0  0
 12 16  1  0  0  0
 19 20  1  0  0  0
 19 21  1  0  0  0
M  CHG 1  12   1
M  CHG 1  15  -1
M  CHG 1  26  -1
M  CHG 1  27  -1
M  END
> <minimizedAffinity>
-9.53947

$$$$
1PVN_MZP_A_971


 27 28  0  0  0  0  0  0  0  0999 V2000
  -24.0526   36.8934   46.9299 C   0  0  0  0  0  0  0  0  0  0  0  0
  -24.5707   37.0720   45.6000 O   0  0  0  0  0  0  0  0  0  0  0  0
  -25.2190   36.2569   47.6975 C   0  0  0  0  0  0  0  0  0  0  0  0
  -25.1065   36.4721   49.0813 O   0  0  0  0  0  0  0  0  0  0  0  0
  -26.4533   36.9484   47.0890 C   0  0  0  0  0  0  0  0  0  0  0  0
  -26.7125   38.2214   47.6998 O   0  0  0  0  0  0  0  0  0  0  0  0
  -26.0247   37.1059   45.6483 C   0  0  0  0  0  0  0  0  0  0  0  0
  -25.0631   37.4249   49.2580 H   0  0  0  0  0  0  0  0  0  0  0  0
  -25.9261   38.7839   47.6210 H   0  0  0  0  0  0  0  0  0  0  0  0
  -26.6021   36.1168   44.6946 N   0  0  0  0  0  0  0  0  0  0  0  0
  -27.5330   35.1561   44.7244 C   0  0  0  0  0  0  0  0  0  0  0  0
  -27.6560   34.5502   43.6056 N   0  0  0  0  0  0  0  0  0  0  0  0
  -26.7597   35.1356   42.7843 C   0  0  0  0  0  0  0  0  0  0  0  0
  -26.1032   36.1174   43.4399 C   0  0  0  0  0  0  0  0  0  0  0  0
  -25.1325   36.9141   42.9150 O   0  0  0  0  0  0  0  0  0  0  0  0
  -28.2727   33.8138   43.3894 H   0  0  0  0  0  0  0  0  0  0  0  0
  -26.5064   34.7771   41.3645 C   0  0  0  0  0  0  0  0  0  0  0  0
  -26.8895   33.7099   40.9069 O   0  0  0  0  0  0  0  0  0  0  0  0
  -25.8203   35.6298   40.5061 N   0  0  0  0  0  0  0  0  0  0  0  0
  -25.4939   36.4992   40.8330 H   0  0  0  0  0  0  0  0  0  0  0  0
  -25.6610   35.3639   39.5717 H   0  0  0  0  0  0  0  0  0  0  0  0
  -22.7767   36.0182   46.9355 C   0  0  0  0  0  0  0  0  0  0  0  0
  -22.5280   35.7866   48.3550 O   0  0  0  0  0  0  0  0  0  0  0  0
  -21.3798   34.8653   48.7655 P   0  0  0  0  0  0  0  0  0  0  0  0
  -21.7102   33.4903   48.3190 O   0  0  0  0  0  0  0  0  0  0  0  0
  -20.1284   35.3703   48.1399 O   0  0  0  0  0  0  0  0  0  0  0  0
  -21.3321   34.9009   50.2401 O   0  0  0  0  0  0  0  0  0  0  0  0
 24 25  2  0  0  0
 24 26  1  0  0  0
 24 27  1  0  0  0
 24 23  1  0  0  0
 23 22  1  0  0  0
 22  1  1  0  0  0
  1  2  1  0  0  0
  1  3  1  0  0  0
  2  7  1  0  0  0
  3  4  1  0  0  0
  3  5  1  0  0  0
  5  6  1  0  0  0
  5  7  1  0  0  0
  7 10  1  0  0  0
 10 11  1  0  0  0
 10 14  1  0  0  0
 11 12  2  0  0  0
 12 13  1  0  0  0
 13 17  1  0  0  0
 13 14  2  0  0  0
 17 18  2  0  0  0
 17 19  1  0  0  0
 14 15  1  0  0  0
  4  8  1  0  0  0
  6  9  1  0  0  0
 12 16  1  0  0  0
 19 20  1  0  0  0
 19 21  1  0  0  0
M  CHG 1  12   1
M  CHG 1  15  -1
M  CHG 1  26  -1
M  CHG 1  27  -1
M  END
> <minimizedAffinity>
-9.00805

$$$$
1PVN_MZP_A_971


 27 28  0  0  0  0  0  0  0  0999 V2000
  -25.0143   36.7171   45.2244 C   0  0  0  0  0  0  0  0  0  0  0  0
  -24.3085   35.7209   45.9849 O   0  0  0  0  0  0  0  0  0  0  0  0
  -25.4372   37.7520   46.2756 C   0  0  0  0  0  0  0  0  0  0  0  0
  -26.5396   38.5082   45.8431 O   0  0  0  0  0  0  0  0  0  0  0  0
  -25.7603   36.8845   47.5064 C   0  0  0  0  0  0  0  0  0  0  0  0
  -27.0932   36.3537   47.4556 O   0  0  0  0  0  0  0  0  0  0  0  0
  -24.7263   35.7898   47.3771 C   0  0  0  0  0  0  0  0  0  0  0  0
  -27.2776   37.9141   45.6351 H   0  0  0  0  0  0  0  0  0  0  0  0
  -27.2090   35.8487   46.6356 H   0  0  0  0  0  0  0  0  0  0  0  0
  -23.5415   35.9165   48.2722 N   0  0  0  0  0  0  0  0  0  0  0  0
  -23.1985   36.6364   49.3467 C   0  0  0  0  0  0  0  0  0  0  0  0
  -22.0152   36.3812   49.7573 N   0  0  0  0  0  0  0  0  0  0  0  0
  -21.5411   35.4417   48.9127 C   0  0  0  0  0  0  0  0  0  0  0  0
  -22.4784   35.1331   47.9903 C   0  0  0  0  0  0  0  0  0  0  0  0
  -22.3389   34.2241   46.9870 O   0  0  0  0  0  0  0  0  0  0  0  0
  -21.5494   36.7840   50.5255 H   0  0  0  0  0  0  0  0  0  0  0  0
  -20.1927   34.8189   48.9615 C   0  0  0  0  0  0  0  0  0  0  0  0
  -19.4122   34.9337   48.0273 O   0  0  0  0  0  0  0  0  0  0  0  0
  -19.7691   34.0773   50.0593 N   0  0  0  0  0  0  0  0  0  0  0  0
  -20.3657   33.9593   50.8335 H   0  0  0  0  0  0  0  0  0  0  0  0
  -18.8727   33.6703   50.0621 H   0  0  0  0  0  0  0  0  0  0  0  0
  -24.1297   37.3185   44.1065 C   0  0  0  0  0  0  0  0  0  0  0  0
  -23.6397   38.5629   44.6913 O   0  0  0  0  0  0  0  0  0  0  0  0
  -23.7857   39.8617   43.8994 P   0  0  0  0  0  0  0  0  0  0  0  0
  -24.9216   40.6247   44.4711 O   0  0  0  0  0  0  0  0  0  0  0  0
  -22.5052   40.6127   43.9922 O   0  0  0  0  0  0  0  0  0  0  0  0
  -24.1123   39.4645   42.5160 O   0  0  0  0  0  0  0  0  0  0  0  0
 24 25  2  0  0  0
 24 26  1  0  0  0
 24 27  1  0  0  0
 24 23  1  0  0  0
 23 22  1  0  0  0
 22  1  1  0  0  0
  1  2  1  0  0  0
  1  3  1  0  0  0
  2  7  1  0  0  0
  3  4  1  0  0  0
  3  5  1  0  0  0
  5  6  1  0  0  0
  5  7  1  0  0  0
  7 10  1  0  0  0
 10 11  1  0  0  0
 10 14  1  0  0  0
 11 12  2  0  0  0
 12 13  1  0  0  0
 13 17  1  0  0  0
 13 14  2  0  0  0
 17 18  2  0  0  0
 17 19  1  0  0  0
 14 15  1  0  0  0
  4  8  1  0  0  0
  6  9  1  0  0  0
 12 16  1  0  0  0
 19 20  1  0  0  0
 19 21  1  0  0  0
M  CHG 1  12   1
M  CHG 1  15  -1
M  CHG 1  26  -1
M  CHG 1  27  -1
M  END
> <minimizedAffinity>
-8.73547

$$$$
1PVN_MZP_A_971


 27 28  0  0  0  0  0  0  0  0999 V2000
  -24.9544   36.7173   45.3437 C   0  0  0  0  0  0  0  0  0  0  0  0
  -24.5348   35.4893   45.9641 O   0  0  0  0  0  0  0  0  0  0  0  0
  -24.5562   37.7976   46.3582 C   0  0  0  0  0  0  0  0  0  0  0  0
  -25.3135   38.9691   46.1908 O   0  0  0  0  0  0  0  0  0  0  0  0
  -24.8152   37.1134   47.7134 C   0  0  0  0  0  0  0  0  0  0  0  0
  -26.1911   37.2111   48.1111 O   0  0  0  0  0  0  0  0  0  0  0  0
  -24.4319   35.6849   47.4024 C   0  0  0  0  0  0  0  0  0  0  0  0
  -26.2569   38.7585   46.2715 H   0  0  0  0  0  0  0  0  0  0  0  0
  -26.7554   36.8331   47.4186 H   0  0  0  0  0  0  0  0  0  0  0  0
  -23.0908   35.2584   47.8928 N   0  0  0  0  0  0  0  0  0  0  0  0
  -22.1387   34.3970   47.5159 C   0  0  0  0  0  0  0  0  0  0  0  0
  -21.1375   34.3857   48.3105 N   0  0  0  0  0  0  0  0  0  0  0  0
  -21.4357   35.2863   49.2701 C   0  0  0  0  0  0  0  0  0  0  0  0
  -22.6398   35.8458   49.0219 C   0  0  0  0  0  0  0  0  0  0  0  0
  -23.2494   36.7940   49.7847 O   0  0  0  0  0  0  0  0  0  0  0  0
  -20.3232   33.8373   48.2379 H   0  0  0  0  0  0  0  0  0  0  0  0
  -20.5880   35.6340   50.4402 C   0  0  0  0  0  0  0  0  0  0  0  0
  -20.3194   36.7985   50.6989 O   0  0  0  0  0  0  0  0  0  0  0  0
  -20.0612   34.6566   51.2778 N   0  0  0  0  0  0  0  0  0  0  0  0
  -20.2522   33.7061   51.1061 H   0  0  0  0  0  0  0  0  0  0  0  0
  -19.4973   34.9151   52.0422 H   0  0  0  0  0  0  0  0  0  0  0  0
  -24.2929   36.9156   43.9592 C   0  0  0  0  0  0  0  0  0  0  0  0
  -25.0045   38.0618   43.4020 O   0  0  0  0  0  0  0  0  0  0  0  0
  -24.2108   39.3076   43.0100 P   0  0  0  0  0  0  0  0  0  0  0  0
  -22.7828   39.0624   43.3260 O   0  0  0  0  0  0  0  0  0  0  0  0
  -24.4264   39.5627   41.5607 O   0  0  0  0  0  0  0  0  0  0  0  0
  -24.7175   40.4018   43.8609 O   0  0  0  0  0  0  0  0  0  0  0  0
 24 25  2  0  0  0
 24 26  1  0  0  0
 24 27  1  0  0  0
 24 23  1  0  0  0
 23 22  1  0  0  0
 22  1  1  0  0  0
  1  2  1  0  0  0
  1  3  1  0  0  0
  2  7  1  0  0  0
  3  4  1  0  0  0
  3  5  1  0  0  0
  5  6  1  0  0  0
  5  7  1  0  0  0
  7 10  1  0  0  0
 10 11  1  0  0  0
 10 14  1  0  0  0
 11 12  2  0  0  0
 12 13  1  0  0  0
 13 17  1  0  0  0
 13 14  2  0  0  0
 17 18  2  0  0  0
 17 19  1  0  0  0
 14 15  1  0  0  0
  4  8  1  0  0  0
  6  9  1  0  0  0
 12 16  1  0  0  0
 19 20  1  0  0  0
 19 21  1  0  0  0
M  CHG 1  12   1
M  CHG 1  15  -1
M  CHG 1  26  -1
M  CHG 1  27  -1
M  END
> <minimizedAffinity>
-8.63186

$$$$
1PVN_MZP_A_971


 27 28  0  0  0  0  0  0  0  0999 V2000
  -26.2673   36.2893   45.9805 C   0  0  0  0  0  0  0  0  0  0  0  0
  -25.5950   36.4485   44.7188 O   0  0  0  0  0  0  0  0  0  0  0  0
  -25.6757   37.4018   46.8563 C   0  0  0  0  0  0  0  0  0  0  0  0
  -25.8064   37.1084   48.2240 O   0  0  0  0  0  0  0  0  0  0  0  0
  -24.2057   37.4578   46.4004 C   0  0  0  0  0  0  0  0  0  0  0  0
  -23.3991   36.4722   47.0630 O   0  0  0  0  0  0  0  0  0  0  0  0
  -24.3411   37.1575   44.9254 C   0  0  0  0  0  0  0  0  0  0  0  0
  -25.3762   36.2604   48.4154 H   0  0  0  0  0  0  0  0  0  0  0  0
  -23.7756   35.5912   46.9114 H   0  0  0  0  0  0  0  0  0  0  0  0
  -24.2528   38.3372   44.0190 N   0  0  0  0  0  0  0  0  0  0  0  0
  -23.7675   39.5828   44.0775 C   0  0  0  0  0  0  0  0  0  0  0  0
  -23.9586   40.2405   42.9982 N   0  0  0  0  0  0  0  0  0  0  0  0
  -24.6066   39.3905   42.1745 C   0  0  0  0  0  0  0  0  0  0  0  0
  -24.7889   38.2006   42.7873 C   0  0  0  0  0  0  0  0  0  0  0  0
  -25.4051   37.1136   42.2478 O   0  0  0  0  0  0  0  0  0  0  0  0
  -23.6904   41.1686   42.8084 H   0  0  0  0  0  0  0  0  0  0  0  0
  -25.0664   39.6879   40.7929 C   0  0  0  0  0  0  0  0  0  0  0  0
  -24.6944   40.6958   40.2090 O   0  0  0  0  0  0  0  0  0  0  0  0
  -25.9395   38.8436   40.1152 N   0  0  0  0  0  0  0  0  0  0  0  0
  -26.2642   38.0210   40.5480 H   0  0  0  0  0  0  0  0  0  0  0  0
  -26.2329   39.0684   39.2027 H   0  0  0  0  0  0  0  0  0  0  0  0
  -27.8036   36.3925   45.8287 C   0  0  0  0  0  0  0  0  0  0  0  0
  -28.0945   37.7658   46.2288 O   0  0  0  0  0  0  0  0  0  0  0  0
  -29.2598   38.0289   47.1819 P   0  0  0  0  0  0  0  0  0  0  0  0
  -28.8555   37.5842   48.5376 O   0  0  0  0  0  0  0  0  0  0  0  0
  -29.5780   39.4813   47.1421 O   0  0  0  0  0  0  0  0  0  0  0  0
  -30.3766   37.1895   46.7063 O   0  0  0  0  0  0  0  0  0  0  0  0
 24 25  2  0  0  0
 24 26  1  0  0  0
 24 27  1  0  0  0
 24 23  1  0  0  0
 23 22  1  0  0  0
 22  1  1  0  0  0
  1  2  1  0  0  0
  1  3  1  0  0  0
  2  7  1  0  0  0
  3  4  1  0  0  0
  3  5  1  0  0  0
  5  6  1  0  0  0
  5  7  1  0  0  0
  7 10  1  0  0  0
 10 11  1  0  0  0
 10 14  1  0  0  0
 11 12  2  0  0  0
 12 13  1  0  0  0
 13 17  1  0  0  0
 13 14  2  0  0  0
 17 18  2  0  0  0
 17 19  1  0  0  0
 14 15  1  0  0  0
  4  8  1  0  0  0
  6  9  1  0  0  0
 12 16  1  0  0  0
 19 20  1  0  0  0
 19 21  1  0  0  0
M  CHG 1  12   1
M  CHG 1  15  -1
M  CHG 1  26  -1
M  CHG 1  27  -1
M  END
> <minimizedAffinity>
-8.20280

$$$$
1PVN_MZP_A_971


 27 28  0  0  0  0  0  0  0  0999 V2000
  -25.9559   36.9362   46.5293 C   0  0  0  0  0  0  0  0  0  0  0  0
  -25.2720   36.5144   47.7224 O   0  0  0  0  0  0  0  0  0  0  0  0
  -24.8265   37.1482   45.5124 C   0  0  0  0  0  0  0  0  0  0  0  0
  -25.2132   38.0247   44.4848 O   0  0  0  0  0  0  0  0  0  0  0  0
  -23.6840   37.7150   46.3757 C   0  0  0  0  0  0  0  0  0  0  0  0
  -23.8090   39.1318   46.5706 O   0  0  0  0  0  0  0  0  0  0  0  0
  -23.8880   36.9610   47.6696 C   0  0  0  0  0  0  0  0  0  0  0  0
  -25.4880   38.8720   44.8688 H   0  0  0  0  0  0  0  0  0  0  0  0
  -24.6725   39.3288   46.9659 H   0  0  0  0  0  0  0  0  0  0  0  0
  -22.9610   35.8169   47.8993 N   0  0  0  0  0  0  0  0  0  0  0  0
  -22.6680   34.6580   47.2981 C   0  0  0  0  0  0  0  0  0  0  0  0
  -21.7728   33.9896   47.9192 N   0  0  0  0  0  0  0  0  0  0  0  0
  -21.4504   34.7404   48.9931 C   0  0  0  0  0  0  0  0  0  0  0  0
  -22.1704   35.8833   48.9920 C   0  0  0  0  0  0  0  0  0  0  0  0
  -22.0982   36.8705   49.9261 O   0  0  0  0  0  0  0  0  0  0  0  0
  -21.3986   33.1144   47.6679 H   0  0  0  0  0  0  0  0  0  0  0  0
  -20.4561   34.3908   50.0408 C   0  0  0  0  0  0  0  0  0  0  0  0
  -20.8019   34.1999   51.1980 O   0  0  0  0  0  0  0  0  0  0  0  0
  -19.1001   34.2763   49.7530 N   0  0  0  0  0  0  0  0  0  0  0  0
  -18.7779   34.4218   48.8342 H   0  0  0  0  0  0  0  0  0  0  0  0
  -18.4626   34.0497   50.4681 H   0  0  0  0  0  0  0  0  0  0  0  0
  -26.9979   35.8907   46.0656 C   0  0  0  0  0  0  0  0  0  0  0  0
  -28.0953   36.7062   45.5543 O   0  0  0  0  0  0  0  0  0  0  0  0
  -29.1753   37.1866   46.5229 P   0  0  0  0  0  0  0  0  0  0  0  0
  -30.4964   36.8152   45.9609 O   0  0  0  0  0  0  0  0  0  0  0  0
  -28.9327   36.5521   47.8461 O   0  0  0  0  0  0  0  0  0  0  0  0
  -29.0609   38.6573   46.5687 O   0  0  0  0  0  0  0  0  0  0  0  0
 24 25  2  0  0  0
 24 26  1  0  0  0
 24 27  1  0  0  0
 24 23  1  0  0  0
 23 22  1  0  0  0
 22  1  1  0  0  0
  1  2  1  0  0  0
  1  3  1  0  0  0
  2  7  1  0  0  0
  3  4  1  0  0  0
  3  5  1  0  0  0
  5  6  1  0  0  0
  5  7  1  0  0  0
  7 10  1  0  0  0
 10 11  1  0  0  0
 10 14  1  0  0  0
 11 12  2  0  0  0
 12 13  1  0  0  0
 13 17  1  0  0  0
 13 14  2  0  0  0
 17 18  2  0  0  0
 17 19  1  0  0  0
 14 15  1  0  0  0
  4  8  1  0  0  0
  6  9  1  0  0  0
 12 16  1  0  0  0
 19 20  1  0  0  0
 19 21  1  0  0  0
M  CHG 1  12   1
M  CHG 1  15  -1
M  CHG 1  26  -1
M  CHG 1  27  -1
M  END
> <minimizedAffinity>
-7.98584

$$$$
1PVN_MZP_A_971


 27 28  0  0  0  0  0  0  0  0999 V2000
  -23.5924   36.7322   47.8159 C   0  0  0  0  0  0  0  0  0  0  0  0
  -23.4684   37.9519   47.0637 O   0  0  0  0  0  0  0  0  0  0  0  0
  -24.7492   35.9926   47.1306 C   0  0  0  0  0  0  0  0  0  0  0  0
  -25.3505   35.0603   47.9927 O   0  0  0  0  0  0  0  0  0  0  0  0
  -25.7040   37.1339   46.7335 C   0  0  0  0  0  0  0  0  0  0  0  0
  -26.5606   37.5207   47.8187 O   0  0  0  0  0  0  0  0  0  0  0  0
  -24.7254   38.2319   46.3861 C   0  0  0  0  0  0  0  0  0  0  0  0
  -25.6627   35.5133   48.7916 H   0  0  0  0  0  0  0  0  0  0  0  0
  -26.0197   37.7717   48.5838 H   0  0  0  0  0  0  0  0  0  0  0  0
  -24.4961   38.4508   44.9298 N   0  0  0  0  0  0  0  0  0  0  0  0
  -23.8685   37.8185   43.9315 C   0  0  0  0  0  0  0  0  0  0  0  0
  -23.9495   38.4442   42.8198 N   0  0  0  0  0  0  0  0  0  0  0  0
  -24.6684   39.5540   43.0886 C   0  0  0  0  0  0  0  0  0  0  0  0
  -25.0253   39.5702   44.3913 C   0  0  0  0  0  0  0  0  0  0  0  0
  -25.7565   40.5407   45.0043 O   0  0  0  0  0  0  0  0  0  0  0  0
  -23.5688   38.1742   41.9529 H   0  0  0  0  0  0  0  0  0  0  0  0
  -25.0305   40.6204   42.1189 C   0  0  0  0  0  0  0  0  0  0  0  0
  -24.7856   40.4971   40.9273 O   0  0  0  0  0  0  0  0  0  0  0  0
  -25.6498   41.7979   42.5245 N   0  0  0  0  0  0  0  0  0  0  0  0
  -25.8652   41.9388   43.4747 H   0  0  0  0  0  0  0  0  0  0  0  0
  -25.8728   42.4905   41.8613 H   0  0  0  0  0  0  0  0  0  0  0  0
  -22.2740   35.9224   47.8168 C   0  0  0  0  0  0  0  0  0  0  0  0
  -22.0618   35.6176   49.2285 O   0  0  0  0  0  0  0  0  0  0  0  0
  -20.7180   35.0370   49.6673 P   0  0  0  0  0  0  0  0  0  0  0  0
  -20.9493   34.1949   50.8659 O   0  0  0  0  0  0  0  0  0  0  0  0
  -20.1544   34.2544   48.5350 O   0  0  0  0  0  0  0  0  0  0  0  0
  -19.8738   36.1897   50.0368 O   0  0  0  0  0  0  0  0  0  0  0  0
 24 25  2  0  0  0
 24 26  1  0  0  0
 24 27  1  0  0  0
 24 23  1  0  0  0
 23 22  1  0  0  0
 22  1  1  0  0  0
  1  2  1  0  0  0
  1  3  1  0  0  0
  2  7  1  0  0  0
  3  4  1  0  0  0
  3  5  1  0  0  0
  5  6  1  0  0  0
  5  7  1  0  0  0
  7 10  1  0  0  0
 10 11  1  0  0  0
 10 14  1  0  0  0
 11 12  2  0  0  0
 12 13  1  0  0  0
 13 17  1  0  0  0
 13 14  2  0  0  0
 17 18  2  0  0  0
 17 19  1  0  0  0
 14 15  1  0  0  0
  4  8  1  0  0  0
  6  9  1  0  0  0
 12 16  1  0  0  0
 19 20  1  0  0  0
 19 21  1  0  0  0
M  CHG 1  12   1
M  CHG 1  15  -1
M  CHG 1  26  -1
M  CHG 1  27  -1
M  END
> <minimizedAffinity>
-7.98379

$$$$
1PVN_MZP_A_971


 27 28  0  0  0  0  0  0  0  0999 V2000
  -24.9819   36.0151   45.3381 C   0  0  0  0  0  0  0  0  0  0  0  0
  -24.3388   35.1575   46.2973 O   0  0  0  0  0  0  0  0  0  0  0  0
  -25.2166   37.3205   46.1099 C   0  0  0  0  0  0  0  0  0  0  0  0
  -26.2568   38.0765   45.5439 O   0  0  0  0  0  0  0  0  0  0  0  0
  -25.5475   36.8287   47.5313 C   0  0  0  0  0  0  0  0  0  0  0  0
  -26.9307   36.4694   47.6679 O   0  0  0  0  0  0  0  0  0  0  0  0
  -24.6504   35.6174   47.6423 C   0  0  0  0  0  0  0  0  0  0  0  0
  -27.0677   37.5447   45.5213 H   0  0  0  0  0  0  0  0  0  0  0  0
  -27.1567   35.7964   47.0069 H   0  0  0  0  0  0  0  0  0  0  0  0
  -23.4004   35.8139   48.4297 N   0  0  0  0  0  0  0  0  0  0  0  0
  -22.9879   36.5979   49.4326 C   0  0  0  0  0  0  0  0  0  0  0  0
  -21.7701   36.3864   49.7584 N   0  0  0  0  0  0  0  0  0  0  0  0
  -21.3451   35.4102   48.9295 C   0  0  0  0  0  0  0  0  0  0  0  0
  -22.3466   35.0349   48.1044 C   0  0  0  0  0  0  0  0  0  0  0  0
  -22.2685   34.0745   47.1432 O   0  0  0  0  0  0  0  0  0  0  0  0
  -21.2529   36.8390   50.4634 H   0  0  0  0  0  0  0  0  0  0  0  0
  -19.9839   34.8146   48.9014 C   0  0  0  0  0  0  0  0  0  0  0  0
  -19.2326   35.0058   47.9558 O   0  0  0  0  0  0  0  0  0  0  0  0
  -19.5147   34.0136   49.9372 N   0  0  0  0  0  0  0  0  0  0  0  0
  -20.0866   33.8335   50.7180 H   0  0  0  0  0  0  0  0  0  0  0  0
  -18.6107   33.6266   49.8894 H   0  0  0  0  0  0  0  0  0  0  0  0
  -24.1155   36.2098   44.0712 C   0  0  0  0  0  0  0  0  0  0  0  0
  -24.9701   37.0014   43.1917 O   0  0  0  0  0  0  0  0  0  0  0  0
  -25.9814   36.2837   42.2985 P   0  0  0  0  0  0  0  0  0  0  0  0
  -26.3550   37.2018   41.1955 O   0  0  0  0  0  0  0  0  0  0  0  0
  -25.3554   35.0317   41.7955 O   0  0  0  0  0  0  0  0  0  0  0  0
  -27.1650   36.0277   43.1420 O   0  0  0  0  0  0  0  0  0  0  0  0
 24 25  2  0  0  0
 24 26  1  0  0  0
 24 27  1  0  0  0
 24 23  1  0  0  0
 23 22  1  0  0  0
 22  1  1  0  0  0
  1  2  1  0  0  0
  1  3  1  0  0  0
  2  7  1  0  0  0
  3  4  1  0  0  0
  3  5  1  0  0  0
  5  6  1  0  0  0
  5  7  1  0  0  0
  7 10  1  0  0  0
 10 11  1  0  0  0
 10 14  1  0  0  0
 11 12  2  0  0  0
 12 13  1  0  0  0
 13 17  1  0  0  0
 13 14  2  0  0  0
 17 18  2  0  0  0
 17 19  1  0  0  0
 14 15  1  0  0  0
  4  8  1  0  0  0
  6  9  1  0  0  0
 12 16  1  0  0  0
 19 20  1  0  0  0
 19 21  1  0  0  0
M  CHG 1  12   1
M  CHG 1  15  -1
M  CHG 1  26  -1
M  CHG 1  27  -1
M  END
> <minimizedAffinity>
-7.90154

$$$$
1PVN_MZP_A_971


 27 28  0  0  0  0  0  0  0  0999 V2000
  -23.3931   36.5278   47.9444 C   0  0  0  0  0  0  0  0  0  0  0  0
  -23.4734   37.3238   46.7490 O   0  0  0  0  0  0  0  0  0  0  0  0
  -24.6766   35.6872   47.9145 C   0  0  0  0  0  0  0  0  0  0  0  0
  -25.0338   35.2422   49.1983 O   0  0  0  0  0  0  0  0  0  0  0  0
  -25.7121   36.6563   47.3140 C   0  0  0  0  0  0  0  0  0  0  0  0
  -26.2745   37.5261   48.3080 O   0  0  0  0  0  0  0  0  0  0  0  0
  -24.8627   37.4240   46.3275 C   0  0  0  0  0  0  0  0  0  0  0  0
  -25.1413   36.0057   49.7869 H   0  0  0  0  0  0  0  0  0  0  0  0
  -25.5624   38.0119   48.7528 H   0  0  0  0  0  0  0  0  0  0  0  0
  -25.0066   37.0152   44.9016 N   0  0  0  0  0  0  0  0  0  0  0  0
  -24.3715   37.2486   43.7472 C   0  0  0  0  0  0  0  0  0  0  0  0
  -24.9133   36.6534   42.7541 N   0  0  0  0  0  0  0  0  0  0  0  0
  -25.9668   35.9874   43.2711 C   0  0  0  0  0  0  0  0  0  0  0  0
  -26.0346   36.1917   44.6046 C   0  0  0  0  0  0  0  0  0  0  0  0
  -26.9711   35.6701   45.4433 O   0  0  0  0  0  0  0  0  0  0  0  0
  -24.6238   36.6760   41.8134 H   0  0  0  0  0  0  0  0  0  0  0  0
  -26.9296   35.1459   42.5137 C   0  0  0  0  0  0  0  0  0  0  0  0
  -28.1247   35.1704   42.7710 O   0  0  0  0  0  0  0  0  0  0  0  0
  -26.5135   34.2953   41.4950 N   0  0  0  0  0  0  0  0  0  0  0  0
  -25.5601   34.2443   41.2549 H   0  0  0  0  0  0  0  0  0  0  0  0
  -27.1724   33.7443   41.0139 H   0  0  0  0  0  0  0  0  0  0  0  0
  -22.1078   35.6669   47.9748 C   0  0  0  0  0  0  0  0  0  0  0  0
  -22.0013   35.2620   49.3731 O   0  0  0  0  0  0  0  0  0  0  0  0
  -20.6142   35.0770   49.9873 P   0  0  0  0  0  0  0  0  0  0  0  0
  -20.7461   34.1806   51.1614 O   0  0  0  0  0  0  0  0  0  0  0  0
  -19.7147   34.5082   48.9484 O   0  0  0  0  0  0  0  0  0  0  0  0
  -20.1843   36.4141   50.4406 O   0  0  0  0  0  0  0  0  0  0  0  0
 24 25  2  0  0  0
 24 26  1  0  0  0
 24 27  1  0  0  0
 24 23  1  0  0  0
 23 22  1  0  0  0
 22  1  1  0  0  0
  1  2  1  0  0  0
  1  3  1  0  0  0
  2  7  1  0  0  0
  3  4  1  0  0  0
  3  5  1  0  0  0
  5  6  1  0  0  0
  5  7  1  0  0  0
  7 10  1  0  0  0
 10 11  1  0  0  0
 10 14  1  0  0  0
 11 12  2  0  0  0
 12 13  1  0  0  0
 13 17  1  0  0  0
 13 14  2  0  0  0
 17 18  2  0  0  0
 17 19  1  0  0  0
 14 15  1  0  0  0
  4  8  1  0  0  0
  6  9  1  0  0  0
 12 16  1  0  0  0
 19 20  1  0  0  0
 19 21  1  0  0  0
M  CHG 1  12   1
M  CHG 1  15  -1
M  CHG 1  26  -1
M  CHG 1  27  -1
M  END
> <minimizedAffinity>
-7.85849

$$$$
1PVN_MZP_A_971


 27 28  0  0  0  0  0  0  0  0999 V2000
  -25.9298   36.4221   47.7428 C   0  0  0  0  0  0  0  0  0  0  0  0
  -26.2141   36.1119   46.3674 O   0  0  0  0  0  0  0  0  0  0  0  0
  -24.4490   36.8244   47.7315 C   0  0  0  0  0  0  0  0  0  0  0  0
  -23.8604   36.6678   48.9975 O   0  0  0  0  0  0  0  0  0  0  0  0
  -23.8415   35.8823   46.6753 C   0  0  0  0  0  0  0  0  0  0  0  0
  -23.5146   34.5972   47.2252 O   0  0  0  0  0  0  0  0  0  0  0  0
  -24.9744   35.7833   45.6798 C   0  0  0  0  0  0  0  0  0  0  0  0
  -23.9604   35.7480   49.2891 H   0  0  0  0  0  0  0  0  0  0  0  0
  -24.3070   34.2052   47.6244 H   0  0  0  0  0  0  0  0  0  0  0  0
  -24.8235   36.6122   44.4505 N   0  0  0  0  0  0  0  0  0  0  0  0
  -24.1525   37.7113   44.0869 C   0  0  0  0  0  0  0  0  0  0  0  0
  -24.3760   38.0504   42.8748 N   0  0  0  0  0  0  0  0  0  0  0  0
  -25.2428   37.1302   42.4029 C   0  0  0  0  0  0  0  0  0  0  0  0
  -25.5241   36.2234   43.3637 C   0  0  0  0  0  0  0  0  0  0  0  0
  -26.3598   35.1573   43.2319 O   0  0  0  0  0  0  0  0  0  0  0  0
  -23.9969   38.8185   42.3895 H   0  0  0  0  0  0  0  0  0  0  0  0
  -25.8219   37.0916   41.0347 C   0  0  0  0  0  0  0  0  0  0  0  0
  -26.3340   38.0856   40.5398 O   0  0  0  0  0  0  0  0  0  0  0  0
  -25.8140   35.9300   40.2699 N   0  0  0  0  0  0  0  0  0  0  0  0
  -25.4119   35.1065   40.6296 H   0  0  0  0  0  0  0  0  0  0  0  0
  -26.2106   35.9313   39.3687 H   0  0  0  0  0  0  0  0  0  0  0  0
  -26.8550   37.5390   48.2818 C   0  0  0  0  0  0  0  0  0  0  0  0
  -27.5563   38.0060   47.0899 O   0  0  0  0  0  0  0  0  0  0  0  0
  -29.0638   38.2464   47.1637 P   0  0  0  0  0  0  0  0  0  0  0  0
  -29.3197   39.6702   46.8372 O   0  0  0  0  0  0  0  0  0  0  0  0
  -29.7319   37.3248   46.2064 O   0  0  0  0  0  0  0  0  0  0  0  0
  -29.4522   37.9900   48.5642 O   0  0  0  0  0  0  0  0  0  0  0  0
 24 25  2  0  0  0
 24 26  1  0  0  0
 24 27  1  0  0  0
 24 23  1  0  0  0
 23 22  1  0  0  0
 22  1  1  0  0  0
  1  2  1  0  0  0
  1  3  1  0  0  0
  2  7  1  0  0  0
  3  4  1  0  0  0
  3  5  1  0  0  0
  5  6  1  0  0  0
  5  7  1  0  0  0
  7 10  1  0  0  0
 10 11  1  0  0  0
 10 14  1  0  0  0
 11 12  2  0  0  0
 12 13  1  0  0  0
 13 17  1  0  0  0
 13 14  2  0  0  0
 17 18  2  0  0  0
 17 19  1  0  0  0
 14 15  1  0  0  0
  4  8  1  0  0  0
  6  9  1  0  0  0
 12 16  1  0  0  0
 19 20  1  0  0  0
 19 21  1  0  0  0
M  CHG 1  12   1
M  CHG 1  15  -1
M  CHG 1  26  -1
M  CHG 1  27  -1
M  END
> <minimizedAffinity>
-7.60133

$$$$
