2VO4_4NM_A_1221
  RCSB PDB12061707073D
Coordinates from PDB:2VO4:A:1221 Model:1 without hydrogens
 11 11  0  0  0  0            999 V2000
   33.4910  -45.4870  -10.7280   C 0  0  0  0  0  0  0  0  0  0  0  0
   34.9880  -46.4940  -10.6520   S 0  0  0  0  0  0  0  0  0  0  0  0
   31.4650  -46.4090   -9.6270   C 0  0  0  0  0  0  0  0  0  0  0  0
   30.7030  -46.7270   -8.5070   C 0  0  0  0  0  0  0  0  0  0  0  0
   31.1480  -46.4180   -7.2150   C 0  0  0  0  0  0  0  0  0  0  0  0
   30.2920  -46.7280   -6.1400   N 0  3  0  0  0  0  0  0  0  0  0  0
   30.4410  -46.2410   -5.0380   O 0  0  0  0  0  0  0  0  0  0  0  0
   29.3180  -47.4340   -6.3260   O 0  0  0  0  0  0  0  0  0  0  0  0
   32.3920  -45.7910   -7.0430   C 0  0  0  0  0  0  0  0  0  0  0  0
   32.6970  -45.7950   -9.4700   C 0  0  0  0  0  0  0  0  0  0  0  0
   33.1610  -45.4960   -8.1730   C 0  0  0  0  0  0  0  0  0  0  0  0
  1  2  1  0  0  0  0
  1 10  1  0  0  0  0
  3  4  2  0  0  0  0
  3 10  1  0  0  0  0
  4  5  1  0  0  0  0
  5  6  1  0  0  0  0
  5  9  2  0  0  0  0
  6  7  1  0  0  0  0
  6  8  2  0  0  0  0
  9 11  1  0  0  0  0
 11 10  2  0  0  0  0
M  CHG  1   6   1
A    1
CAA
A    2
SAH
A    3
CAD
A    4
CAF
A    5
CAJ
A    6
NAK
A    7
OAC
A    8
OAB
A    9
CAG
A   10
C1
A   11
CAE
M  END
>  <InstanceId>
2VO4_4NM_A_1221

>  <ChemCompId>
4NM

>  <PdbId>
2VO4

>  <ChainId>
A

>  <ResidueNumber>
1221

>  <InsertionCode>


>  <Model>
1

>  <AltIds>


>  <MissingHeavyAtoms>
0

>  <ObservedFormula>
C7 N O2 S

>  <Name>
4-NITROPHENYL METHANETHIOL

>  <SystematicName>
hydroxy-oxo-[4-(sulfanylmethyl)phenyl]azanium

>  <Synonyms>


>  <Type>
non-polymer

>  <Formula>
C7 H8 N O2 S

>  <MolecularWeight>
170.209

>  <ModifiedDate>
2011-06-04

>  <Parent>


>  <OneLetterCode>


>  <SubcomponentList>


>  <AmbiguousFlag>


>  <InChI>
InChI=1S/C7H7NO2S/c9-8(10)7-3-1-6(5-11)2-4-7/h1-4H,5H2,(H-,9,10,11)/p+1

>  <InChIKey>
OTHKGVFNUSHUQO-UHFFFAOYSA-O

>  <SMILES>
c1cc(ccc1CS)[N+](=O)O

$$$$
