2VO4_4NM_A_1221


 13 13  0  0  0  0  0  0  0  0999 V2000
   35.0457  -46.7387   -9.6425 C   0  0  0  0  0  0  0  0  0  0  0  0
   34.1837  -46.4270   -8.5955 C   0  0  0  0  0  0  0  0  0  0  0  0
   33.0481  -45.6331   -8.8025 C   0  0  0  0  0  0  0  0  0  0  0  0
   32.7811  -45.1279  -10.0846 C   0  0  0  0  0  0  0  0  0  0  0  0
   34.7959  -46.2416  -10.9113 C   0  0  0  0  0  0  0  0  0  0  0  0
   33.6654  -45.4275  -11.1256 C   0  0  0  0  0  0  0  0  0  0  0  0
   32.2010  -45.4084   -7.6996 N   0  0  0  0  0  0  0  0  0  0  0  0
   32.5994  -44.8872   -6.6781 O   0  0  0  0  0  0  0  0  0  0  0  0
   31.0128  -45.6574   -7.7884 O   0  0  0  0  0  0  0  0  0  0  0  0
   33.5087  -44.6833   -6.5800 H   0  0  0  0  0  0  0  0  0  0  0  0
   35.7806  -46.6020  -12.0106 C   0  0  0  0  0  0  0  0  0  0  0  0
   35.3225  -45.6198  -13.4550 S   0  0  0  0  0  0  0  0  0  0  0  0
   35.3745  -44.2980  -13.1394 H   0  0  0  0  0  0  0  0  0  0  0  0
 11 12  1  0  0  0
 11  5  1  0  0  0
  1  2  2  0  0  0
  1  5  1  0  0  0
  2  3  1  0  0  0
  3  7  1  0  0  0
  3  4  2  0  0  0
  7  8  1  0  0  0
  7  9  2  0  0  0
  4  6  1  0  0  0
  6  5  2  0  0  0
 12 13  1  0  0  0
  8 10  1  0  0  0
M  CHG 1   7   1
M  END
> <minimizedAffinity>
-4.83100

$$$$
2VO4_4NM_A_1221


 13 13  0  0  0  0  0  0  0  0999 V2000
   33.0487  -45.1929  -10.5522 C   0  0  0  0  0  0  0  0  0  0  0  0
   32.7240  -45.2390   -9.2000 C   0  0  0  0  0  0  0  0  0  0  0  0
   33.5360  -45.9169   -8.2814 C   0  0  0  0  0  0  0  0  0  0  0  0
   34.6901  -46.5762   -8.7328 C   0  0  0  0  0  0  0  0  0  0  0  0
   34.1823  -45.8442  -11.0108 C   0  0  0  0  0  0  0  0  0  0  0  0
   34.9961  -46.5436  -10.0968 C   0  0  0  0  0  0  0  0  0  0  0  0
   33.1622  -45.8709   -6.9240 N   0  0  0  0  0  0  0  0  0  0  0  0
   33.5663  -46.6835   -6.1177 O   0  0  0  0  0  0  0  0  0  0  0  0
   32.4861  -44.9457   -6.5134 O   0  0  0  0  0  0  0  0  0  0  0  0
   34.0891  -47.4068   -6.4032 H   0  0  0  0  0  0  0  0  0  0  0  0
   34.4767  -45.7726  -12.4995 C   0  0  0  0  0  0  0  0  0  0  0  0
   33.0088  -46.3967  -13.3458 S   0  0  0  0  0  0  0  0  0  0  0  0
   31.9320  -45.6397  -13.0037 H   0  0  0  0  0  0  0  0  0  0  0  0
 11 12  1  0  0  0
 11  5  1  0  0  0
  1  2  2  0  0  0
  1  5  1  0  0  0
  2  3  1  0  0  0
  3  7  1  0  0  0
  3  4  2  0  0  0
  7  8  1  0  0  0
  7  9  2  0  0  0
  4  6  1  0  0  0
  6  5  2  0  0  0
 12 13  1  0  0  0
  8 10  1  0  0  0
M  CHG 1   7   1
M  END
> <minimizedAffinity>
-4.73910

$$$$
2VO4_4NM_A_1221


 13 13  0  0  0  0  0  0  0  0999 V2000
   34.7985  -46.8162   -8.0173 C   0  0  0  0  0  0  0  0  0  0  0  0
   34.4130  -46.3726   -9.2785 C   0  0  0  0  0  0  0  0  0  0  0  0
   33.2732  -45.5764   -9.4507 C   0  0  0  0  0  0  0  0  0  0  0  0
   32.4949  -45.2316   -8.3346 C   0  0  0  0  0  0  0  0  0  0  0  0
   34.0355  -46.4871   -6.9086 C   0  0  0  0  0  0  0  0  0  0  0  0
   32.8773  -45.7010   -7.0742 C   0  0  0  0  0  0  0  0  0  0  0  0
   32.9832  -45.1277  -10.7542 N   0  0  0  0  0  0  0  0  0  0  0  0
   31.8567  -44.8328  -11.0972 O   0  0  0  0  0  0  0  0  0  0  0  0
   33.8891  -44.9407  -11.5455 O   0  0  0  0  0  0  0  0  0  0  0  0
   31.1384  -44.9650  -10.5101 H   0  0  0  0  0  0  0  0  0  0  0  0
   34.4967  -47.0135   -5.5602 C   0  0  0  0  0  0  0  0  0  0  0  0
   33.2733  -48.2347   -5.0380 S   0  0  0  0  0  0  0  0  0  0  0  0
   33.1931  -49.2229   -5.9689 H   0  0  0  0  0  0  0  0  0  0  0  0
 11 12  1  0  0  0
 11  5  1  0  0  0
  1  2  2  0  0  0
  1  5  1  0  0  0
  2  3  1  0  0  0
  3  7  1  0  0  0
  3  4  2  0  0  0
  7  8  1  0  0  0
  7  9  2  0  0  0
  4  6  1  0  0  0
  6  5  2  0  0  0
 12 13  1  0  0  0
  8 10  1  0  0  0
M  CHG 1   7   1
M  END
> <minimizedAffinity>
-4.63191

$$$$
2VO4_4NM_A_1221


 13 13  0  0  0  0  0  0  0  0999 V2000
   33.1836  -48.0712   -4.9370 C   0  0  0  0  0  0  0  0  0  0  0  0
   32.9293  -47.2670   -6.0437 C   0  0  0  0  0  0  0  0  0  0  0  0
   31.6610  -46.7134   -6.2623 C   0  0  0  0  0  0  0  0  0  0  0  0
   30.6218  -46.9864   -5.3592 C   0  0  0  0  0  0  0  0  0  0  0  0
   32.1647  -48.3524   -4.0414 C   0  0  0  0  0  0  0  0  0  0  0  0
   30.8808  -47.8142   -4.2624 C   0  0  0  0  0  0  0  0  0  0  0  0
   31.5028  -45.8692   -7.3789 N   0  0  0  0  0  0  0  0  0  0  0  0
   30.5199  -45.9202   -8.0897 O   0  0  0  0  0  0  0  0  0  0  0  0
   32.3239  -44.9984   -7.6005 O   0  0  0  0  0  0  0  0  0  0  0  0
   29.8701  -46.5793   -7.9439 H   0  0  0  0  0  0  0  0  0  0  0  0
   32.4977  -49.2493   -2.8613 C   0  0  0  0  0  0  0  0  0  0  0  0
   30.9221  -49.7927   -2.1663 S   0  0  0  0  0  0  0  0  0  0  0  0
   30.2090  -50.4505   -3.1193 H   0  0  0  0  0  0  0  0  0  0  0  0
 11 12  1  0  0  0
 11  5  1  0  0  0
  1  2  2  0  0  0
  1  5  1  0  0  0
  2  3  1  0  0  0
  3  7  1  0  0  0
  3  4  2  0  0  0
  7  8  1  0  0  0
  7  9  2  0  0  0
  4  6  1  0  0  0
  6  5  2  0  0  0
 12 13  1  0  0  0
  8 10  1  0  0  0
M  CHG 1   7   1
M  END
> <minimizedAffinity>
-4.59208

$$$$
2VO4_4NM_A_1221


 13 13  0  0  0  0  0  0  0  0999 V2000
   34.3324  -46.3738   -9.0449 C   0  0  0  0  0  0  0  0  0  0  0  0
   34.7898  -46.7587   -7.7884 C   0  0  0  0  0  0  0  0  0  0  0  0
   34.0788  -46.4324   -6.6261 C   0  0  0  0  0  0  0  0  0  0  0  0
   32.8918  -45.6899   -6.7265 C   0  0  0  0  0  0  0  0  0  0  0  0
   33.1651  -45.6360   -9.1567 C   0  0  0  0  0  0  0  0  0  0  0  0
   32.4522  -45.2879   -7.9916 C   0  0  0  0  0  0  0  0  0  0  0  0
   34.5846  -46.9049   -5.3992 N   0  0  0  0  0  0  0  0  0  0  0  0
   35.5007  -46.3524   -4.8255 O   0  0  0  0  0  0  0  0  0  0  0  0
   34.0419  -47.8406   -4.8409 O   0  0  0  0  0  0  0  0  0  0  0  0
   35.9384  -45.6291   -5.2296 H   0  0  0  0  0  0  0  0  0  0  0  0
   32.7242  -45.2306  -10.5527 C   0  0  0  0  0  0  0  0  0  0  0  0
   34.0464  -45.7307  -11.6763 S   0  0  0  0  0  0  0  0  0  0  0  0
   34.2439  -47.0724  -11.5753 H   0  0  0  0  0  0  0  0  0  0  0  0
 11 12  1  0  0  0
 11  5  1  0  0  0
  1  2  2  0  0  0
  1  5  1  0  0  0
  2  3  1  0  0  0
  3  7  1  0  0  0
  3  4  2  0  0  0
  7  8  1  0  0  0
  7  9  2  0  0  0
  4  6  1  0  0  0
  6  5  2  0  0  0
 12 13  1  0  0  0
  8 10  1  0  0  0
M  CHG 1   7   1
M  END
> <minimizedAffinity>
-4.48010

$$$$
2VO4_4NM_A_1221


 13 13  0  0  0  0  0  0  0  0999 V2000
   32.7176  -45.3325   -8.8140 C   0  0  0  0  0  0  0  0  0  0  0  0
   32.8787  -45.2034  -10.1901 C   0  0  0  0  0  0  0  0  0  0  0  0
   33.9526  -45.8095  -10.8549 C   0  0  0  0  0  0  0  0  0  0  0  0
   34.8938  -46.5475  -10.1202 C   0  0  0  0  0  0  0  0  0  0  0  0
   33.6428  -46.0538   -8.0770 C   0  0  0  0  0  0  0  0  0  0  0  0
   34.7363  -46.6527   -8.7348 C   0  0  0  0  0  0  0  0  0  0  0  0
   34.0125  -45.6718  -12.2556 N   0  0  0  0  0  0  0  0  0  0  0  0
   33.0138  -45.5323  -12.9316 O   0  0  0  0  0  0  0  0  0  0  0  0
   35.0933  -45.6003  -12.8111 O   0  0  0  0  0  0  0  0  0  0  0  0
   32.1674  -45.5821  -12.5327 H   0  0  0  0  0  0  0  0  0  0  0  0
   33.4236  -46.1465   -6.5766 C   0  0  0  0  0  0  0  0  0  0  0  0
   34.9587  -46.7829   -5.8699 S   0  0  0  0  0  0  0  0  0  0  0  0
   35.9834  -45.9453   -6.1831 H   0  0  0  0  0  0  0  0  0  0  0  0
 11 12  1  0  0  0
 11  5  1  0  0  0
  1  2  2  0  0  0
  1  5  1  0  0  0
  2  3  1  0  0  0
  3  7  1  0  0  0
  3  4  2  0  0  0
  7  8  1  0  0  0
  7  9  2  0  0  0
  4  6  1  0  0  0
  6  5  2  0  0  0
 12 13  1  0  0  0
  8 10  1  0  0  0
M  CHG 1   7   1
M  END
> <minimizedAffinity>
-4.40706

$$$$
2VO4_4NM_A_1221


 13 13  0  0  0  0  0  0  0  0999 V2000
   33.7860  -46.0057  -10.6748 C   0  0  0  0  0  0  0  0  0  0  0  0
   33.9423  -45.8896   -9.2971 C   0  0  0  0  0  0  0  0  0  0  0  0
   32.8393  -45.6951   -8.4555 C   0  0  0  0  0  0  0  0  0  0  0  0
   31.5537  -45.5989   -9.0107 C   0  0  0  0  0  0  0  0  0  0  0  0
   32.5229  -45.9071  -11.2353 C   0  0  0  0  0  0  0  0  0  0  0  0
   31.4090  -45.6939  -10.3982 C   0  0  0  0  0  0  0  0  0  0  0  0
   33.0802  -45.6396   -7.0686 N   0  0  0  0  0  0  0  0  0  0  0  0
   33.9856  -46.2583   -6.5478 O   0  0  0  0  0  0  0  0  0  0  0  0
   32.4268  -44.8864   -6.3705 O   0  0  0  0  0  0  0  0  0  0  0  0
   34.5065  -46.8458   -7.0591 H   0  0  0  0  0  0  0  0  0  0  0  0
   32.4163  -46.0253  -12.7461 C   0  0  0  0  0  0  0  0  0  0  0  0
   30.6550  -45.9895  -13.1428 S   0  0  0  0  0  0  0  0  0  0  0  0
   30.1104  -44.8308  -12.6840 H   0  0  0  0  0  0  0  0  0  0  0  0
 11 12  1  0  0  0
 11  5  1  0  0  0
  1  2  2  0  0  0
  1  5  1  0  0  0
  2  3  1  0  0  0
  3  7  1  0  0  0
  3  4  2  0  0  0
  7  8  1  0  0  0
  7  9  2  0  0  0
  4  6  1  0  0  0
  6  5  2  0  0  0
 12 13  1  0  0  0
  8 10  1  0  0  0
M  CHG 1   7   1
M  END
> <minimizedAffinity>
-4.35123

$$$$
2VO4_4NM_A_1221


 13 13  0  0  0  0  0  0  0  0999 V2000
   35.0324  -46.5233   -9.9439 C   0  0  0  0  0  0  0  0  0  0  0  0
   33.8800  -45.9973   -9.3682 C   0  0  0  0  0  0  0  0  0  0  0  0
   33.6530  -46.0851   -7.9885 C   0  0  0  0  0  0  0  0  0  0  0  0
   34.5955  -46.7291   -7.1717 C   0  0  0  0  0  0  0  0  0  0  0  0
   35.9675  -47.1662   -9.1491 C   0  0  0  0  0  0  0  0  0  0  0  0
   35.7395  -47.2748   -7.7623 C   0  0  0  0  0  0  0  0  0  0  0  0
   32.4859  -45.4811   -7.4810 N   0  0  0  0  0  0  0  0  0  0  0  0
   32.4850  -44.8581   -6.4390 O   0  0  0  0  0  0  0  0  0  0  0  0
   31.4604  -45.4999   -8.1366 O   0  0  0  0  0  0  0  0  0  0  0  0
   33.2593  -44.8249   -5.9123 H   0  0  0  0  0  0  0  0  0  0  0  0
   37.1976  -47.7346   -9.8359 C   0  0  0  0  0  0  0  0  0  0  0  0
   37.2046  -47.0686  -11.5143 S   0  0  0  0  0  0  0  0  0  0  0  0
   37.2336  -45.7099  -11.4628 H   0  0  0  0  0  0  0  0  0  0  0  0
 11 12  1  0  0  0
 11  5  1  0  0  0
  1  2  2  0  0  0
  1  5  1  0  0  0
  2  3  1  0  0  0
  3  7  1  0  0  0
  3  4  2  0  0  0
  7  8  1  0  0  0
  7  9  2  0  0  0
  4  6  1  0  0  0
  6  5  2  0  0  0
 12 13  1  0  0  0
  8 10  1  0  0  0
M  CHG 1   7   1
M  END
> <minimizedAffinity>
-4.32219

$$$$
2VO4_4NM_A_1221


 13 13  0  0  0  0  0  0  0  0999 V2000
   32.4575  -47.3507  -11.9960 C   0  0  0  0  0  0  0  0  0  0  0  0
   31.5478  -46.7916  -12.8883 C   0  0  0  0  0  0  0  0  0  0  0  0
   30.8099  -45.6492  -12.5518 C   0  0  0  0  0  0  0  0  0  0  0  0
   30.9771  -45.0653  -11.2864 C   0  0  0  0  0  0  0  0  0  0  0  0
   32.6274  -46.7867  -10.7420 C   0  0  0  0  0  0  0  0  0  0  0  0
   31.8766  -45.6475  -10.3880 C   0  0  0  0  0  0  0  0  0  0  0  0
   29.9490  -45.1180  -13.5322 N   0  0  0  0  0  0  0  0  0  0  0  0
   30.0260  -43.9631  -13.8983 O   0  0  0  0  0  0  0  0  0  0  0  0
   29.1578  -45.8468  -14.1020 O   0  0  0  0  0  0  0  0  0  0  0  0
   30.6257  -43.3778  -13.4792 H   0  0  0  0  0  0  0  0  0  0  0  0
   33.6222  -47.4503   -9.8050 C   0  0  0  0  0  0  0  0  0  0  0  0
   33.9215  -46.2827   -8.4604 S   0  0  0  0  0  0  0  0  0  0  0  0
   32.7469  -45.9990   -7.8365 H   0  0  0  0  0  0  0  0  0  0  0  0
 11 12  1  0  0  0
 11  5  1  0  0  0
  1  2  2  0  0  0
  1  5  1  0  0  0
  2  3  1  0  0  0
  3  7  1  0  0  0
  3  4  2  0  0  0
  7  8  1  0  0  0
  7  9  2  0  0  0
  4  6  1  0  0  0
  6  5  2  0  0  0
 12 13  1  0  0  0
  8 10  1  0  0  0
M  CHG 1   7   1
M  END
> <minimizedAffinity>
-4.31976

$$$$
2VO4_4NM_A_1221


 13 13  0  0  0  0  0  0  0  0999 V2000
   31.0960  -48.3750   -3.7410 C   0  0  0  0  0  0  0  0  0  0  0  0
   30.6715  -48.0590   -5.0279 C   0  0  0  0  0  0  0  0  0  0  0  0
   29.7954  -48.8975   -5.7293 C   0  0  0  0  0  0  0  0  0  0  0  0
   29.3488  -50.0868   -5.1322 C   0  0  0  0  0  0  0  0  0  0  0  0
   30.6666  -49.5486   -3.1429 C   0  0  0  0  0  0  0  0  0  0  0  0
   29.7989  -50.4073   -3.8477 C   0  0  0  0  0  0  0  0  0  0  0  0
   29.3748  -48.4775   -7.0065 N   0  0  0  0  0  0  0  0  0  0  0  0
   28.9604  -49.2601   -7.8369 O   0  0  0  0  0  0  0  0  0  0  0  0
   29.3364  -47.2899   -7.2710 O   0  0  0  0  0  0  0  0  0  0  0  0
   28.9769  -50.1806   -7.6625 H   0  0  0  0  0  0  0  0  0  0  0  0
   31.1763  -49.8484   -1.7436 C   0  0  0  0  0  0  0  0  0  0  0  0
   32.9442  -49.4808   -1.7493 S   0  0  0  0  0  0  0  0  0  0  0  0
   33.1354  -48.1785   -2.0918 H   0  0  0  0  0  0  0  0  0  0  0  0
 11 12  1  0  0  0
 11  5  1  0  0  0
  1  2  2  0  0  0
  1  5  1  0  0  0
  2  3  1  0  0  0
  3  7  1  0  0  0
  3  4  2  0  0  0
  7  8  1  0  0  0
  7  9  2  0  0  0
  4  6  1  0  0  0
  6  5  2  0  0  0
 12 13  1  0  0  0
  8 10  1  0  0  0
M  CHG 1   7   1
M  END
> <minimizedAffinity>
-4.19379

$$$$
