5C3P_AKG_A_402


 12 11  0  0  0  0  0  0  0  0999 V2000
   19.6592   22.1208   95.3659 C   0  0  0  0  0  0  0  0  0  0  0  0
   20.6131   21.4651   94.9482 O   0  0  0  0  0  0  0  0  0  0  0  0
   19.8422   23.0627   96.4839 C   0  0  0  0  0  0  0  0  0  0  0  0
   20.6067   22.7348   97.4181 O   0  0  0  0  0  0  0  0  0  0  0  0
   19.2520   24.1702   96.4852 O   0  0  0  0  0  0  0  0  0  0  0  0
   18.6830   24.3986   95.7766 H   0  0  0  0  0  0  0  0  0  0  0  0
   18.2883   21.9708   94.7378 C   0  0  0  0  0  0  0  0  0  0  0  0
   17.5392   20.7651   95.2960 C   0  0  0  0  0  0  0  0  0  0  0  0
   16.2905   20.4384   94.5095 C   0  0  0  0  0  0  0  0  0  0  0  0
   15.3817   21.2941   94.4943 O   0  0  0  0  0  0  0  0  0  0  0  0
   16.1741   19.3338   93.9341 O   0  0  0  0  0  0  0  0  0  0  0  0
   16.8755   18.7133   93.9647 H   0  0  0  0  0  0  0  0  0  0  0  0
  3  4  2  0  0  0
  3  5  1  0  0  0
  3  1  1  0  0  0
  1  2  2  0  0  0
  1  7  1  0  0  0
  7  8  1  0  0  0
  8  9  1  0  0  0
  9 10  2  0  0  0
  9 11  1  0  0  0
  5  6  1  0  0  0
 11 12  1  0  0  0
M  END
> <minimizedAffinity>
-5.73543

$$$$
5C3P_AKG_A_402


 12 11  0  0  0  0  0  0  0  0999 V2000
   20.2081   19.8658   94.3391 C   0  0  0  0  0  0  0  0  0  0  0  0
   19.0989   19.4253   94.0394 O   0  0  0  0  0  0  0  0  0  0  0  0
   21.3655   18.9581   94.4260 C   0  0  0  0  0  0  0  0  0  0  0  0
   22.2758   19.2322   95.2389 O   0  0  0  0  0  0  0  0  0  0  0  0
   21.4227   17.9306   93.7080 O   0  0  0  0  0  0  0  0  0  0  0  0
   20.7312   17.7416   93.1046 H   0  0  0  0  0  0  0  0  0  0  0  0
   20.3994   21.3425   94.6204 C   0  0  0  0  0  0  0  0  0  0  0  0
   19.2912   21.8970   95.5098 C   0  0  0  0  0  0  0  0  0  0  0  0
   19.7881   22.9508   96.4727 C   0  0  0  0  0  0  0  0  0  0  0  0
   20.6543   22.6065   97.3031 O   0  0  0  0  0  0  0  0  0  0  0  0
   19.3113   24.1070   96.4491 O   0  0  0  0  0  0  0  0  0  0  0  0
   18.6621   24.3332   95.8125 H   0  0  0  0  0  0  0  0  0  0  0  0
  3  4  2  0  0  0
  3  5  1  0  0  0
  3  1  1  0  0  0
  1  2  2  0  0  0
  1  7  1  0  0  0
  7  8  1  0  0  0
  8  9  1  0  0  0
  9 10  2  0  0  0
  9 11  1  0  0  0
  5  6  1  0  0  0
 11 12  1  0  0  0
M  END
> <minimizedAffinity>
-5.62800

$$$$
5C3P_AKG_A_402


 12 11  0  0  0  0  0  0  0  0999 V2000
   17.7643   20.7344   95.0949 C   0  0  0  0  0  0  0  0  0  0  0  0
   18.4214   19.9490   95.7773 O   0  0  0  0  0  0  0  0  0  0  0  0
   16.4315   20.3478   94.5998 C   0  0  0  0  0  0  0  0  0  0  0  0
   15.4857   21.1526   94.7492 O   0  0  0  0  0  0  0  0  0  0  0  0
   16.2607   19.2419   94.0318 O   0  0  0  0  0  0  0  0  0  0  0  0
   16.9812   18.6518   93.9289 H   0  0  0  0  0  0  0  0  0  0  0  0
   18.3135   22.1056   94.7565 C   0  0  0  0  0  0  0  0  0  0  0  0
   19.7543   22.2703   95.2293 C   0  0  0  0  0  0  0  0  0  0  0  0
   19.8643   23.1003   96.4877 C   0  0  0  0  0  0  0  0  0  0  0  0
   20.5874   22.6590   97.4047 O   0  0  0  0  0  0  0  0  0  0  0  0
   19.2191   24.1657   96.6033 O   0  0  0  0  0  0  0  0  0  0  0  0
   18.6853   24.4693   95.8956 H   0  0  0  0  0  0  0  0  0  0  0  0
  3  4  2  0  0  0
  3  5  1  0  0  0
  3  1  1  0  0  0
  1  2  2  0  0  0
  1  7  1  0  0  0
  7  8  1  0  0  0
  8  9  1  0  0  0
  9 10  2  0  0  0
  9 11  1  0  0  0
  5  6  1  0  0  0
 11 12  1  0  0  0
M  END
> <minimizedAffinity>
-5.59757

$$$$
5C3P_AKG_A_402


 12 11  0  0  0  0  0  0  0  0999 V2000
   19.2655   22.0410   95.4935 C   0  0  0  0  0  0  0  0  0  0  0  0
   18.4177   22.3798   94.6684 O   0  0  0  0  0  0  0  0  0  0  0  0
   19.7637   23.0120   96.4833 C   0  0  0  0  0  0  0  0  0  0  0  0
   19.2889   24.1692   96.4715 O   0  0  0  0  0  0  0  0  0  0  0  0
   20.6338   22.6748   97.3223 O   0  0  0  0  0  0  0  0  0  0  0  0
   20.9780   21.8033   97.3158 H   0  0  0  0  0  0  0  0  0  0  0  0
   19.8060   20.6253   95.5046 C   0  0  0  0  0  0  0  0  0  0  0  0
   20.7065   20.3543   94.3037 C   0  0  0  0  0  0  0  0  0  0  0  0
   21.5895   19.1430   94.4980 C   0  0  0  0  0  0  0  0  0  0  0  0
   22.5658   19.2620   95.2669 O   0  0  0  0  0  0  0  0  0  0  0  0
   21.3582   18.0830   93.8755 O   0  0  0  0  0  0  0  0  0  0  0  0
   20.6164   18.0266   93.3058 H   0  0  0  0  0  0  0  0  0  0  0  0
  3  4  2  0  0  0
  3  5  1  0  0  0
  3  1  1  0  0  0
  1  2  2  0  0  0
  1  7  1  0  0  0
  7  8  1  0  0  0
  8  9  1  0  0  0
  9 10  2  0  0  0
  9 11  1  0  0  0
  5  6  1  0  0  0
 11 12  1  0  0  0
M  END
> <minimizedAffinity>
-5.54796

$$$$
5C3P_AKG_A_402


 12 11  0  0  0  0  0  0  0  0999 V2000
   19.8687   20.3425   94.9168 C   0  0  0  0  0  0  0  0  0  0  0  0
   20.8258   21.0677   94.6477 O   0  0  0  0  0  0  0  0  0  0  0  0
   19.9245   18.9017   94.6138 C   0  0  0  0  0  0  0  0  0  0  0  0
   20.8325   18.2191   95.1375 O   0  0  0  0  0  0  0  0  0  0  0  0
   19.0707   18.3776   93.8581 O   0  0  0  0  0  0  0  0  0  0  0  0
   18.3977   18.9049   93.4748 H   0  0  0  0  0  0  0  0  0  0  0  0
   18.6245   20.9181   95.5625 C   0  0  0  0  0  0  0  0  0  0  0  0
   17.6498   21.4648   94.5244 C   0  0  0  0  0  0  0  0  0  0  0  0
   16.3689   20.6658   94.4489 C   0  0  0  0  0  0  0  0  0  0  0  0
   15.2998   21.2742   94.6621 O   0  0  0  0  0  0  0  0  0  0  0  0
   16.4005   19.4368   94.2183 O   0  0  0  0  0  0  0  0  0  0  0  0
   17.2201   19.0103   94.0623 H   0  0  0  0  0  0  0  0  0  0  0  0
  3  4  2  0  0  0
  3  5  1  0  0  0
  3  1  1  0  0  0
  1  2  2  0  0  0
  1  7  1  0  0  0
  7  8  1  0  0  0
  8  9  1  0  0  0
  9 10  2  0  0  0
  9 11  1  0  0  0
  5  6  1  0  0  0
 11 12  1  0  0  0
M  END
> <minimizedAffinity>
-5.26198

$$$$
5C3P_AKG_A_402


 12 11  0  0  0  0  0  0  0  0999 V2000
   19.3534   22.2180   95.4157 C   0  0  0  0  0  0  0  0  0  0  0  0
   18.2914   22.3598   94.8104 O   0  0  0  0  0  0  0  0  0  0  0  0
   19.7228   23.1555   96.4906 C   0  0  0  0  0  0  0  0  0  0  0  0
   20.5615   22.7838   97.3410 O   0  0  0  0  0  0  0  0  0  0  0  0
   19.2138   24.3016   96.5371 O   0  0  0  0  0  0  0  0  0  0  0  0
   18.5871   24.5624   95.8913 H   0  0  0  0  0  0  0  0  0  0  0  0
   20.2921   21.0807   95.0668 C   0  0  0  0  0  0  0  0  0  0  0  0
   19.6535   20.1002   94.0884 C   0  0  0  0  0  0  0  0  0  0  0  0
   18.7585   19.0924   94.7725 C   0  0  0  0  0  0  0  0  0  0  0  0
   19.3121   18.1773   95.4164 O   0  0  0  0  0  0  0  0  0  0  0  0
   17.5152   19.1659   94.6558 O   0  0  0  0  0  0  0  0  0  0  0  0
   17.1313   19.8660   94.1654 H   0  0  0  0  0  0  0  0  0  0  0  0
  3  4  2  0  0  0
  3  5  1  0  0  0
  3  1  1  0  0  0
  1  2  2  0  0  0
  1  7  1  0  0  0
  7  8  1  0  0  0
  8  9  1  0  0  0
  9 10  2  0  0  0
  9 11  1  0  0  0
  5  6  1  0  0  0
 11 12  1  0  0  0
M  END
> <minimizedAffinity>
-5.18132

$$$$
5C3P_AKG_A_402


 12 11  0  0  0  0  0  0  0  0999 V2000
   17.6420   21.1524   94.8327 C   0  0  0  0  0  0  0  0  0  0  0  0
   17.9579   22.2980   94.5133 O   0  0  0  0  0  0  0  0  0  0  0  0
   16.3302   20.6098   94.4381 C   0  0  0  0  0  0  0  0  0  0  0  0
   15.3318   21.3601   94.5068 O   0  0  0  0  0  0  0  0  0  0  0  0
   16.2278   19.4269   94.0318 O   0  0  0  0  0  0  0  0  0  0  0  0
   16.9870   18.8795   93.9871 H   0  0  0  0  0  0  0  0  0  0  0  0
   18.5942   20.2860   95.6320 C   0  0  0  0  0  0  0  0  0  0  0  0
   19.8923   20.0248   94.8748 C   0  0  0  0  0  0  0  0  0  0  0  0
   19.8867   18.7002   94.1467 C   0  0  0  0  0  0  0  0  0  0  0  0
   20.9928   18.1771   93.8988 O   0  0  0  0  0  0  0  0  0  0  0  0
   18.8086   18.1820   93.7808 O   0  0  0  0  0  0  0  0  0  0  0  0
   17.9951   18.6006   93.9831 H   0  0  0  0  0  0  0  0  0  0  0  0
  3  4  2  0  0  0
  3  5  1  0  0  0
  3  1  1  0  0  0
  1  2  2  0  0  0
  1  7  1  0  0  0
  7  8  1  0  0  0
  8  9  1  0  0  0
  9 10  2  0  0  0
  9 11  1  0  0  0
  5  6  1  0  0  0
 11 12  1  0  0  0
M  END
> <minimizedAffinity>
-5.14115

$$$$
5C3P_AKG_A_402


 12 11  0  0  0  0  0  0  0  0999 V2000
   20.4646   20.3554   94.6133 C   0  0  0  0  0  0  0  0  0  0  0  0
   20.6579   21.2486   93.7891 O   0  0  0  0  0  0  0  0  0  0  0  0
   21.3125   19.1505   94.6105 C   0  0  0  0  0  0  0  0  0  0  0  0
   20.9170   18.1470   93.9770 O   0  0  0  0  0  0  0  0  0  0  0  0
   22.4092   19.1437   95.2204 O   0  0  0  0  0  0  0  0  0  0  0  0
   22.6891   19.9049   95.6896 H   0  0  0  0  0  0  0  0  0  0  0  0
   19.3572   20.4820   95.6398 C   0  0  0  0  0  0  0  0  0  0  0  0
   18.1163   19.6936   95.2334 C   0  0  0  0  0  0  0  0  0  0  0  0
   17.0786   20.5518   94.5468 C   0  0  0  0  0  0  0  0  0  0  0  0
   17.2783   21.7838   94.5217 O   0  0  0  0  0  0  0  0  0  0  0  0
   16.0478   20.0348   94.0620 O   0  0  0  0  0  0  0  0  0  0  0  0
   15.9285   19.1061   94.0972 H   0  0  0  0  0  0  0  0  0  0  0  0
  3  4  2  0  0  0
  3  5  1  0  0  0
  3  1  1  0  0  0
  1  2  2  0  0  0
  1  7  1  0  0  0
  7  8  1  0  0  0
  8  9  1  0  0  0
  9 10  2  0  0  0
  9 11  1  0  0  0
  5  6  1  0  0  0
 11 12  1  0  0  0
M  END
> <minimizedAffinity>
-5.02975

$$$$
5C3P_AKG_A_402


 12 11  0  0  0  0  0  0  0  0999 V2000
   19.2680   19.4149   94.7297 C   0  0  0  0  0  0  0  0  0  0  0  0
   19.0667   18.5428   93.8852 O   0  0  0  0  0  0  0  0  0  0  0  0
   20.6225   19.9629   94.9184 C   0  0  0  0  0  0  0  0  0  0  0  0
   20.7727   21.2040   94.8754 O   0  0  0  0  0  0  0  0  0  0  0  0
   21.5942   19.1974   95.1294 O   0  0  0  0  0  0  0  0  0  0  0  0
   21.4625   18.2702   95.1581 H   0  0  0  0  0  0  0  0  0  0  0  0
   18.1299   19.9367   95.5835 C   0  0  0  0  0  0  0  0  0  0  0  0
   16.7822   19.7803   94.8865 C   0  0  0  0  0  0  0  0  0  0  0  0
   16.1980   21.1017   94.4425 C   0  0  0  0  0  0  0  0  0  0  0  0
   16.9909   22.0500   94.2681 O   0  0  0  0  0  0  0  0  0  0  0  0
   14.9624   21.2323   94.2975 O   0  0  0  0  0  0  0  0  0  0  0  0
   14.3944   20.5001   94.4362 H   0  0  0  0  0  0  0  0  0  0  0  0
  3  4  2  0  0  0
  3  5  1  0  0  0
  3  1  1  0  0  0
  1  2  2  0  0  0
  1  7  1  0  0  0
  7  8  1  0  0  0
  8  9  1  0  0  0
  9 10  2  0  0  0
  9 11  1  0  0  0
  5  6  1  0  0  0
 11 12  1  0  0  0
M  END
> <minimizedAffinity>
-4.90757

$$$$
5C3P_AKG_A_402


 12 11  0  0  0  0  0  0  0  0999 V2000
   19.5493   18.8374   94.6769 C   0  0  0  0  0  0  0  0  0  0  0  0
   19.0886   18.0753   93.8277 O   0  0  0  0  0  0  0  0  0  0  0  0
   21.0072   18.9436   94.8622 C   0  0  0  0  0  0  0  0  0  0  0  0
   21.6342   17.9277   95.2359 O   0  0  0  0  0  0  0  0  0  0  0  0
   21.5994   20.0266   94.6361 O   0  0  0  0  0  0  0  0  0  0  0  0
   21.1130   20.7772   94.3569 H   0  0  0  0  0  0  0  0  0  0  0  0
   18.6279   19.6756   95.5397 C   0  0  0  0  0  0  0  0  0  0  0  0
   17.9845   20.8080   94.7459 C   0  0  0  0  0  0  0  0  0  0  0  0
   18.9018   21.9975   94.5778 C   0  0  0  0  0  0  0  0  0  0  0  0
   18.9086   22.8502   95.4896 O   0  0  0  0  0  0  0  0  0  0  0  0
   19.5914   22.1255   93.5421 O   0  0  0  0  0  0  0  0  0  0  0  0
   19.5635   21.4667   92.8763 H   0  0  0  0  0  0  0  0  0  0  0  0
  3  4  2  0  0  0
  3  5  1  0  0  0
  3  1  1  0  0  0
  1  2  2  0  0  0
  1  7  1  0  0  0
  7  8  1  0  0  0
  8  9  1  0  0  0
  9 10  2  0  0  0
  9 11  1  0  0  0
  5  6  1  0  0  0
 11 12  1  0  0  0
M  END
> <minimizedAffinity>
-4.84759

$$$$
