5ZA9_50I_U_301
  RCSB PDB12151803133D
Coordinates from PDB:5ZA9:U:301 Model:1 without hydrogens
 29 32  0  0  0  0            999 V2000
   24.2760   14.4870  -12.0310   C 0  0  0  0  0  0  0  0  0  0  0  0
   25.3520   15.5040  -12.4020   C 0  0  0  0  0  0  0  0  0  0  0  0
   26.7390   13.4440  -13.0270   C 0  0  0  0  0  0  0  0  0  0  0  0
   28.9200   14.9530  -14.0960   C 0  0  0  0  0  0  0  0  0  0  0  0
   27.7680   15.3980  -11.9340   C 0  0  0  0  0  0  0  0  0  0  0  0
   28.8630   16.4870  -10.1780   C 0  0  0  0  0  0  0  0  0  0  0  0
   31.2340   17.2460  -10.3980   C 0  0  0  0  0  0  0  0  0  0  0  0
   27.7590   15.8930  -10.6780   N 0  0  0  0  0  0  0  0  0  0  0  0
   25.8650   13.4140  -14.2760   C 0  0  0  0  0  0  0  0  0  0  0  0
   24.4790   12.8690  -13.9510   C 0  0  0  0  0  0  0  0  0  0  0  0
   28.8680   14.7140  -16.3250   C 0  0  0  0  0  0  0  0  0  0  0  0
   28.7980   15.7020  -15.2820   C 0  0  0  0  0  0  0  0  0  0  0  0
   29.1220   12.3180  -16.4960   C 0  0  0  0  0  0  0  0  0  0  0  0
   29.0610   12.4350  -17.8820   C 0  0  0  0  0  0  0  0  0  0  0  0
   28.9040   13.6860  -18.4790   C 0  0  0  0  0  0  0  0  0  0  0  0
   28.8050   14.8410  -17.7060   C 0  0  0  0  0  0  0  0  0  0  0  0
   31.4380   17.2090   -9.1950   O 0  0  0  0  0  0  0  0  0  0  0  0
   32.2130   17.6370  -11.3980   N 0  0  0  0  0  0  0  0  0  0  0  0
   33.3920   17.8320  -11.0500   C 0  0  0  0  0  0  0  0  0  0  0  0
   34.0880   18.3250  -11.9230   N 0  0  0  0  0  0  0  0  0  0  0  0
   33.9630   17.5030   -9.8400   N 0  0  0  0  0  0  0  0  0  0  0  0
   30.0050   16.5870  -10.9530   C 0  0  0  0  0  0  0  0  0  0  0  0
   30.0140   16.0920  -12.2090   N 0  0  0  0  0  0  0  0  0  0  0  0
   28.8540   16.9830   -8.9180   N 0  0  0  0  0  0  0  0  0  0  0  0
   26.6210   14.7840  -12.4530   N 0  0  0  0  0  0  0  0  0  0  0  0
   23.6080   13.9280  -13.2830   C 0  0  0  0  0  0  0  0  0  0  0  0
   28.9100   15.4990  -12.7090   C 0  0  0  0  0  0  0  0  0  0  0  0
   29.0210   13.4850  -15.7550   C 0  0  0  0  0  0  0  0  0  0  0  0
   29.0530   13.6210  -14.4440   O 0  0  0  0  0  0  0  0  0  0  0  0
 15 14  2  0  0  0  0
 15 16  1  0  0  0  0
 14 13  1  0  0  0  0
 16 11  2  0  0  0  0
 13 28  2  0  0  0  0
 11 28  1  0  0  0  0
 11 12  1  0  0  0  0
 28 29  1  0  0  0  0
 12  4  2  0  0  0  0
 29  4  1  0  0  0  0
  9 10  1  0  0  0  0
  9  3  1  0  0  0  0
  4 27  1  0  0  0  0
 10 26  1  0  0  0  0
 26  1  1  0  0  0  0
  3 25  1  0  0  0  0
 27 23  2  0  0  0  0
 27  5  1  0  0  0  0
 25  2  1  0  0  0  0
 25  5  1  0  0  0  0
  2  1  1  0  0  0  0
 23 22  1  0  0  0  0
  5  8  2  0  0  0  0
 20 19  2  0  0  0  0
 18 19  1  0  0  0  0
 18  7  1  0  0  0  0
 19 21  1  0  0  0  0
 22  7  1  0  0  0  0
 22  6  2  0  0  0  0
  8  6  1  0  0  0  0
  7 17  2  0  0  0  0
  6 24  1  0  0  0  0
A    1
C4
A    2
C5
A    3
C6
A    4
C11
A    5
C7
A    6
C10
A    7
C12
A    8
N3
A    9
C1
A   10
C2
A   11
C15
A   12
C16
A   13
C17
A   14
C18
A   15
C19
A   16
C20
A   17
O1
A   18
N5
A   19
C13
A   20
N7
A   21
N6
A   22
C9
A   23
N2
A   24
N4
A   25
N1
A   26
C3
A   27
C8
A   28
C14
A   29
O2
M  END
>  <InstanceId>
5ZA9_50I_U_301

>  <ChemCompId>
50I

>  <PdbId>
5ZA9

>  <ChainId>
U

>  <ResidueNumber>
301

>  <InsertionCode>


>  <Model>
1

>  <AltIds>


>  <MissingHeavyAtoms>
0

>  <ObservedFormula>
C20 N7 O2

>  <Name>
3-azanyl-5-(azepan-1-yl)-6-(1-benzofuran-2-yl)-Ncarbamimidoyl-pyrazine-2-carboxamide

>  <SystematicName>
3-azanyl-5-(azepan-1-yl)-6-(1-benzofuran-2-yl)-~{N}-carbamimidoyl-pyrazine-2-carboxamide

>  <Synonyms>


>  <Type>
NON-POLYMER

>  <Formula>
C20 H23 N7 O2

>  <MolecularWeight>
393.442

>  <ModifiedDate>
2018-12-14

>  <Parent>


>  <OneLetterCode>


>  <SubcomponentList>


>  <AmbiguousFlag>
N

>  <InChI>
InChI=1S/C20H23N7O2/c21-17-16(19(28)26-20(22)23)24-15(14-11-12-7-3-4-8-13(12)29-14)18(25-17)27-9-5-1-2-6-10-27/h3-4,7-8,11H,1-2,5-6,9-10H2,(H2,21,25)(H4,22,23,26,28)

>  <InChIKey>
FSPGYSVEHLETQR-UHFFFAOYSA-N

>  <SMILES>
[H]/N=C(/N)\NC(=O)c1c(nc(c(n1)c2cc3ccccc3o2)N4CCCCCC4)N

$$$$
