2ZX6_ZX6_A_901
  RCSB PDB12061707473D
Coordinates from PDB:2ZX6:A:901 Model:1 without hydrogens
 24 26  0  0  0  0            999 V2000
   -1.1610   25.1410   31.1330   C 0  0  0  0  0  0  0  0  0  0  0  0
   -1.7660   24.1020   30.4360   C 0  0  0  0  0  0  0  0  0  0  0  0
   -1.3070   22.7970   30.5960   C 0  0  0  0  0  0  0  0  0  0  0  0
   -0.2480   22.5260   31.4560   C 0  0  0  0  0  0  0  0  0  0  0  0
    0.3560   23.5660   32.1570   C 0  0  0  0  0  0  0  0  0  0  0  0
   -0.1000   24.8690   31.9900   C 0  0  0  0  0  0  0  0  0  0  0  0
    0.3160   26.0310   32.4850   N 0  0  0  0  0  0  0  0  0  0  0  0
   -0.4270   27.0170   31.9850   C 0  0  0  0  0  0  0  0  0  0  0  0
   -1.3400   26.5200   31.1540   C 0  0  0  0  0  0  0  0  0  0  0  0
   -2.3730   27.3610   30.4010   C 0  0  0  0  0  0  0  0  0  0  0  0
   -2.5730   26.9930   28.9260   C 0  0  0  0  0  0  0  0  0  0  0  0
   -3.6080   27.3560   28.3690   O 0  0  0  0  0  0  0  0  0  0  0  0
   -1.5730   26.4080   28.2680   N 0  0  0  0  0  0  0  0  0  0  0  0
   -1.6930   25.9670   26.8670   C 0  0  0  0  0  0  0  0  0  0  0  0
   -1.4420   27.0340   25.7960   C 0  0  0  0  0  0  0  0  0  0  0  0
   -0.0090   27.3760   25.7340   N 0  0  0  0  0  0  0  0  0  0  0  0
    0.2610   28.4520   24.7620   C 0  0  0  0  0  0  0  0  0  0  0  0
    1.7620   28.7420   24.7310   C 0  0  0  0  0  0  0  0  0  0  0  0
   -0.2350   28.1170   23.3480   C 0  0  0  0  0  0  0  0  0  0  0  0
    0.5660   27.0820   22.7690   O 0  0  0  0  0  0  0  0  0  0  0  0
   -1.6950   27.6580   23.4010   C 0  0  0  0  0  0  0  0  0  0  0  0
   -2.1520   27.2080   22.1240   O 0  0  0  0  0  0  0  0  0  0  0  0
   -1.7980   26.5060   24.4000   C 0  0  0  0  0  0  0  0  0  0  0  0
   -3.1190   25.9680   24.3230   O 0  0  0  0  0  0  0  0  0  0  0  0
  1  2  2  0  0  0  0
  1  6  1  0  0  0  0
  1  9  1  0  0  0  0
  2  3  1  0  0  0  0
  3  4  2  0  0  0  0
  4  5  1  0  0  0  0
  5  6  2  0  0  0  0
  6  7  1  0  0  0  0
  7  8  1  0  0  0  0
  8  9  2  0  0  0  0
  9 10  1  0  0  0  0
 10 11  1  0  0  0  0
 11 12  2  0  0  0  0
 11 13  1  0  0  0  0
 13 14  1  0  0  0  0
 14 15  1  0  0  0  0
 15 16  1  0  0  0  0
 15 23  1  0  0  0  0
 16 17  1  0  0  0  0
 17 18  1  0  0  0  0
 17 19  1  0  0  0  0
 19 20  1  0  0  0  0
 19 21  1  0  0  0  0
 21 22  1  0  0  0  0
 21 23  1  0  0  0  0
 23 24  1  0  0  0  0
A    1
CAS
A    2
CAI
A    3
CAG
A    4
CAF
A    5
CAH
A    6
CAR
A    7
NAO
A    8
CAJ
A    9
CAQ
A   10
CAL
A   11
CAP
A   12
OAB
A   13
NAM
A   14
CAK
A   15
CAU
A   16
NAN
A   17
CAT
A   18
CAA
A   19
CAV
A   20
OAC
A   21
CAX
A   22
OAE
A   23
CAW
A   24
OAD
M  END
>  <InstanceId>
2ZX6_ZX6_A_901

>  <ChemCompId>
ZX6

>  <PdbId>
2ZX6

>  <ChainId>
A

>  <ResidueNumber>
901

>  <InsertionCode>


>  <Model>
1

>  <AltIds>


>  <MissingHeavyAtoms>
0

>  <ObservedFormula>
C17 N3 O4

>  <Name>
2-(1H-indol-3-yl)-N-{[(2R,3R,4R,5R,6S)-3,4,5-trihydroxy-6-methylpiperidin-2-yl]methyl}acetamide

>  <SystematicName>
2-(1H-indol-3-yl)-N-[[(2R,3R,4R,5R,6S)-3,4,5-trihydroxy-6-methyl-piperidin-2-yl]methyl]ethanamide

>  <Synonyms>


>  <Type>
NON-POLYMER

>  <Formula>
C17 H23 N3 O4

>  <MolecularWeight>
333.382

>  <ModifiedDate>
2011-06-04

>  <Parent>


>  <OneLetterCode>


>  <SubcomponentList>


>  <AmbiguousFlag>
N

>  <InChI>
InChI=1S/C17H23N3O4/c1-9-15(22)17(24)16(23)13(20-9)8-19-14(21)6-10-7-18-12-5-3-2-4-11(10)12/h2-5,7,9,13,15-18,20,22-24H,6,8H2,1H3,(H,19,21)/t9-,13+,15+,16+,17+/m0/s1

>  <InChIKey>
SIWZFSDAFLUSGA-CXQPTDBTSA-N

>  <SMILES>
C[C@H]1[C@H]([C@H]([C@@H]([C@H](N1)CNC(=O)Cc2c[nH]c3c2cccc3)O)O)O

$$$$
