4Z83_4L7_E_401
  RCSB PDB12061716353D
Coordinates from PDB:4Z83:E:401 Model:1 without hydrogens
 24 27  0  0  0  0            999 V2000
  -14.1230  -11.4860    6.4350   C 0  0  0  0  0  0  0  0  0  0  0  0
  -13.4780  -10.1140    6.3050   C 0  0  0  0  0  0  0  0  0  0  0  0
  -14.5410   -8.9990    6.3040   C 0  0  0  0  0  0  0  0  0  0  0  0
  -12.5910   -8.1410    7.2840   C 0  0  0  0  0  0  0  0  0  0  0  0
  -17.6600  -14.4300    3.0810  Br 0  0  0  0  0  0  0  0  0  0  0  0
  -16.0080  -12.0710    3.2500   C 0  0  0  0  0  0  0  0  0  0  0  0
  -15.1130  -11.3740    4.0820   C 0  0  0  0  0  0  0  0  0  0  0  0
  -14.9260  -11.9540    5.3040   C 0  0  0  0  0  0  0  0  0  0  0  0
  -16.4860  -13.1810    3.8380   C 0  0  0  0  0  0  0  0  0  0  0  0
  -13.9750  -12.1680    7.4320   O 0  0  0  0  0  0  0  0  0  0  0  0
  -13.9330   -7.7840    6.8710   N 0  0  0  0  0  0  0  0  0  0  0  0
   -6.2640  -11.0620    8.5610   O 0  0  0  0  0  0  0  0  0  0  0  0
   -6.9160  -10.8610    7.5380   C 0  0  0  0  0  0  0  0  0  0  0  0
   -6.2990  -10.7780    6.2880   N 0  0  0  0  0  0  0  0  0  0  0  0
   -6.9990  -10.5670    5.1480   C 0  0  0  0  0  0  0  0  0  0  0  0
   -8.3200  -10.3810    5.0860   N 0  0  0  0  0  0  0  0  0  0  0  0
   -9.0170  -10.4310    6.3010   C 0  0  0  0  0  0  0  0  0  0  0  0
  -10.3980  -10.2140    6.2720   C 0  0  0  0  0  0  0  0  0  0  0  0
   -8.3810  -10.6910    7.5230   C 0  0  0  0  0  0  0  0  0  0  0  0
   -9.1420  -10.8000    8.6840   C 0  0  0  0  0  0  0  0  0  0  0  0
  -10.5100  -10.5970    8.6370   C 0  0  0  0  0  0  0  0  0  0  0  0
  -11.1430  -10.2420    7.4510   C 0  0  0  0  0  0  0  0  0  0  0  0
  -12.5510   -9.6830    7.4800   C 0  0  0  0  0  0  0  0  0  0  0  0
  -15.8770  -13.4150    5.4410   S 0  0  0  0  0  0  0  0  0  0  0  0
  5  9  1  0  0  0  0
  6  9  2  0  0  0  0
  6  7  1  0  0  0  0
  9 24  1  0  0  0  0
  7  8  2  0  0  0  0
 16 15  2  0  0  0  0
 16 17  1  0  0  0  0
 15 14  1  0  0  0  0
  8 24  1  0  0  0  0
  8  1  1  0  0  0  0
 18 17  2  0  0  0  0
 18 22  1  0  0  0  0
 14 13  1  0  0  0  0
 17 19  1  0  0  0  0
  3  2  1  0  0  0  0
  3 11  1  0  0  0  0
  2  1  1  0  0  0  0
  2 23  1  0  0  0  0
  1 10  2  0  0  0  0
 11  4  1  0  0  0  0
  4 23  1  0  0  0  0
 22 23  1  0  0  0  0
 22 21  2  0  0  0  0
 19 13  1  0  0  0  0
 19 20  2  0  0  0  0
 13 12  2  0  0  0  0
 21 20  1  0  0  0  0
A    1
C4
A    2
C5
A    3
C6
A    4
C7
A    5
BR
A    6
C1
A    7
C2
A    8
C3
A    9
C
A   10
O
A   11
N
A   12
O1
A   13
C15
A   14
N1
A   15
C16
A   16
N2
A   17
C11
A   18
C10
A   19
C12
A   20
C13
A   21
C14
A   22
C9
A   23
C8
A   24
S
M  END
>  <InstanceId>
4Z83_4L7_E_401

>  <ChemCompId>
4L7

>  <PdbId>
4Z83

>  <ChainId>
E

>  <ResidueNumber>
401

>  <InsertionCode>


>  <Model>
1

>  <AltIds>


>  <MissingHeavyAtoms>
0

>  <ObservedFormula>
C17 N3 O2 Br S

>  <Name>
7-{(3S,4R)-4-[(5-bromothiophen-2-yl)carbonyl]pyrrolidin-3-yl}quinazolin-4(3H)-one

>  <SystematicName>
7-[(3S,4R)-4-(5-bromanylthiophen-2-yl)carbonylpyrrolidin-3-yl]-3H-quinazolin-4-one

>  <Synonyms>


>  <Type>
NON-POLYMER

>  <Formula>
C17 H14 Br N3 O2 S

>  <MolecularWeight>
404.281

>  <ModifiedDate>
2015-11-27

>  <Parent>


>  <OneLetterCode>


>  <SubcomponentList>


>  <AmbiguousFlag>
N

>  <InChI>
InChI=1S/C17H14BrN3O2S/c18-15-4-3-14(24-15)16(22)12-7-19-6-11(12)9-1-2-10-13(5-9)20-8-21-17(10)23/h1-5,8,11-12,19H,6-7H2,(H,20,21,23)/t11-,12+/m1/s1

>  <InChIKey>
ZYTJGVHIDBAIRI-NEPJUHHUSA-N

>  <SMILES>
c1cc2c(cc1[C@H]3CNC[C@@H]3C(=O)c4ccc(s4)Br)N=CNC2=O

$$$$
