3KGT_GEN_A_3071


 23 25  0  0  0  0  0  0  0  0999 V2000
   22.2473   41.8657   42.0709 C   0  0  0  0  0  0  0  0  0  0  0  0
   21.7578   42.8403   42.9027 C   0  0  0  0  0  0  0  0  0  0  0  0
   21.8867   42.7109   44.2568 O   0  0  0  0  0  0  0  0  0  0  0  0
   21.1155   43.9678   42.4049 C   0  0  0  0  0  0  0  0  0  0  0  0
   20.9714   44.1138   41.0324 C   0  0  0  0  0  0  0  0  0  0  0  0
   20.3488   45.2204   40.5390 O   0  0  0  0  0  0  0  0  0  0  0  0
   21.4671   43.1315   40.1778 C   0  0  0  0  0  0  0  0  0  0  0  0
   21.3367   43.2603   38.8007 C   0  0  0  0  0  0  0  0  0  0  0  0
   20.7759   44.2337   38.3036 O   0  0  0  0  0  0  0  0  0  0  0  0
   21.8606   42.2739   37.9866 C   0  0  0  0  0  0  0  0  0  0  0  0
   22.4827   41.1835   38.5664 C   0  0  0  0  0  0  0  0  0  0  0  0
   22.6077   41.0265   39.9128 O   0  0  0  0  0  0  0  0  0  0  0  0
   22.1056   42.0119   40.7023 C   0  0  0  0  0  0  0  0  0  0  0  0
   22.3158   41.9598   44.6169 H   0  0  0  0  0  0  0  0  0  0  0  0
   20.0201   45.8735   41.1251 H   0  0  0  0  0  0  0  0  0  0  0  0
   21.7688   42.3369   36.6014 C   0  0  0  0  0  0  0  0  0  0  0  0
   22.6762   43.0817   35.8593 C   0  0  0  0  0  0  0  0  0  0  0  0
   22.5631   43.1205   34.4757 C   0  0  0  0  0  0  0  0  0  0  0  0
   21.5605   42.4164   33.8230 C   0  0  0  0  0  0  0  0  0  0  0  0
   21.4570   42.4580   32.4658 O   0  0  0  0  0  0  0  0  0  0  0  0
   20.6626   41.6704   34.5716 C   0  0  0  0  0  0  0  0  0  0  0  0
   20.7640   41.6284   35.9541 C   0  0  0  0  0  0  0  0  0  0  0  0
   22.0663   42.9636   31.9647 H   0  0  0  0  0  0  0  0  0  0  0  0
  1  2  2  0  0  0
  1 13  1  0  0  0
  2  3  1  0  0  0
  2  4  1  0  0  0
  4  5  2  0  0  0
  5  6  1  0  0  0
  5  7  1  0  0  0
  7  8  1  0  0  0
  7 13  2  0  0  0
  8  9  2  0  0  0
  8 10  1  0  0  0
 10 11  2  0  0  0
 10 16  1  0  0  0
 11 12  1  0  0  0
 12 13  1  0  0  0
 16 17  2  0  0  0
 16 22  1  0  0  0
 17 18  1  0  0  0
 18 19  2  0  0  0
 19 20  1  0  0  0
 19 21  1  0  0  0
 21 22  2  0  0  0
  3 14  1  0  0  0
  6 15  1  0  0  0
 20 23  1  0  0  0
M  END
> <minimizedAffinity>
-8.26565

$$$$
3KGT_GEN_A_3071


 23 25  0  0  0  0  0  0  0  0999 V2000
   21.0302   43.0941   42.0766 C   0  0  0  0  0  0  0  0  0  0  0  0
   21.5333   42.1121   42.8915 C   0  0  0  0  0  0  0  0  0  0  0  0
   21.3995   42.2144   44.2474 O   0  0  0  0  0  0  0  0  0  0  0  0
   22.1944   41.0043   42.3746 C   0  0  0  0  0  0  0  0  0  0  0  0
   22.3437   40.8858   41.0000 C   0  0  0  0  0  0  0  0  0  0  0  0
   22.9847   39.7984   40.4878 O   0  0  0  0  0  0  0  0  0  0  0  0
   21.8344   41.8758   40.1624 C   0  0  0  0  0  0  0  0  0  0  0  0
   21.9696   41.7745   38.7835 C   0  0  0  0  0  0  0  0  0  0  0  0
   22.5468   40.8194   38.2699 O   0  0  0  0  0  0  0  0  0  0  0  0
   21.4319   42.7674   37.9864 C   0  0  0  0  0  0  0  0  0  0  0  0
   20.7915   43.8369   38.5847 C   0  0  0  0  0  0  0  0  0  0  0  0
   20.6611   43.9670   39.9334 O   0  0  0  0  0  0  0  0  0  0  0  0
   21.1771   42.9753   40.7059 C   0  0  0  0  0  0  0  0  0  0  0  0
   20.9578   42.9519   44.6203 H   0  0  0  0  0  0  0  0  0  0  0  0
   23.3225   39.1400   41.0625 H   0  0  0  0  0  0  0  0  0  0  0  0
   21.5276   42.7313   36.6005 C   0  0  0  0  0  0  0  0  0  0  0  0
   20.6254   41.9970   35.8418 C   0  0  0  0  0  0  0  0  0  0  0  0
   20.7424   41.9853   34.4580 C   0  0  0  0  0  0  0  0  0  0  0  0
   21.7435   42.7061   33.8217 C   0  0  0  0  0  0  0  0  0  0  0  0
   21.8507   42.6910   32.4642 O   0  0  0  0  0  0  0  0  0  0  0  0
   22.6361   43.4414   34.5869 C   0  0  0  0  0  0  0  0  0  0  0  0
   22.5309   43.4565   35.9696 C   0  0  0  0  0  0  0  0  0  0  0  0
   21.2450   42.1925   31.9518 H   0  0  0  0  0  0  0  0  0  0  0  0
  1  2  2  0  0  0
  1 13  1  0  0  0
  2  3  1  0  0  0
  2  4  1  0  0  0
  4  5  2  0  0  0
  5  6  1  0  0  0
  5  7  1  0  0  0
  7  8  1  0  0  0
  7 13  2  0  0  0
  8  9  2  0  0  0
  8 10  1  0  0  0
 10 11  2  0  0  0
 10 16  1  0  0  0
 11 12  1  0  0  0
 12 13  1  0  0  0
 16 17  2  0  0  0
 16 22  1  0  0  0
 17 18  1  0  0  0
 18 19  2  0  0  0
 19 20  1  0  0  0
 19 21  1  0  0  0
 21 22  2  0  0  0
  3 14  1  0  0  0
  6 15  1  0  0  0
 20 23  1  0  0  0
M  END
> <minimizedAffinity>
-8.26277

$$$$
3KGT_GEN_A_3071


 23 25  0  0  0  0  0  0  0  0999 V2000
   20.9004   43.3924   36.0562 C   0  0  0  0  0  0  0  0  0  0  0  0
   21.5085   42.5190   35.1909 C   0  0  0  0  0  0  0  0  0  0  0  0
   21.3636   42.6817   33.8420 O   0  0  0  0  0  0  0  0  0  0  0  0
   22.2704   41.4510   35.6495 C   0  0  0  0  0  0  0  0  0  0  0  0
   22.4248   41.2675   37.0164 C   0  0  0  0  0  0  0  0  0  0  0  0
   23.1763   40.2264   37.4710 O   0  0  0  0  0  0  0  0  0  0  0  0
   21.8139   42.1500   37.9047 C   0  0  0  0  0  0  0  0  0  0  0  0
   21.9591   41.9865   39.2767 C   0  0  0  0  0  0  0  0  0  0  0  0
   22.6184   41.0592   39.7400 O   0  0  0  0  0  0  0  0  0  0  0  0
   21.3544   42.8958   40.1238 C   0  0  0  0  0  0  0  0  0  0  0  0
   20.6118   43.9287   39.5821 C   0  0  0  0  0  0  0  0  0  0  0  0
   20.4409   44.1001   38.2425 O   0  0  0  0  0  0  0  0  0  0  0  0
   21.0557   43.2110   37.4191 C   0  0  0  0  0  0  0  0  0  0  0  0
   20.8548   43.3940   33.5080 H   0  0  0  0  0  0  0  0  0  0  0  0
   23.5816   39.6403   36.8626 H   0  0  0  0  0  0  0  0  0  0  0  0
   21.4579   42.7958   41.5060 C   0  0  0  0  0  0  0  0  0  0  0  0
   21.0746   41.6369   42.1684 C   0  0  0  0  0  0  0  0  0  0  0  0
   21.1958   41.5641   43.5499 C   0  0  0  0  0  0  0  0  0  0  0  0
   21.7045   42.6310   44.2775 C   0  0  0  0  0  0  0  0  0  0  0  0
   21.8219   42.5515   45.6319 O   0  0  0  0  0  0  0  0  0  0  0  0
   22.0906   43.7820   43.6072 C   0  0  0  0  0  0  0  0  0  0  0  0
   21.9697   43.8668   42.2282 C   0  0  0  0  0  0  0  0  0  0  0  0
   21.5596   41.7715   46.0799 H   0  0  0  0  0  0  0  0  0  0  0  0
  1  2  2  0  0  0
  1 13  1  0  0  0
  2  3  1  0  0  0
  2  4  1  0  0  0
  4  5  2  0  0  0
  5  6  1  0  0  0
  5  7  1  0  0  0
  7  8  1  0  0  0
  7 13  2  0  0  0
  8  9  2  0  0  0
  8 10  1  0  0  0
 10 11  2  0  0  0
 10 16  1  0  0  0
 11 12  1  0  0  0
 12 13  1  0  0  0
 16 17  2  0  0  0
 16 22  1  0  0  0
 17 18  1  0  0  0
 18 19  2  0  0  0
 19 20  1  0  0  0
 19 21  1  0  0  0
 21 22  2  0  0  0
  3 14  1  0  0  0
  6 15  1  0  0  0
 20 23  1  0  0  0
M  END
> <minimizedAffinity>
-7.44159

$$$$
3KGT_GEN_A_3071


 23 25  0  0  0  0  0  0  0  0999 V2000
   22.4037   41.6940   36.0388 C   0  0  0  0  0  0  0  0  0  0  0  0
   21.7929   42.5643   35.1723 C   0  0  0  0  0  0  0  0  0  0  0  0
   21.9459   42.4058   33.8237 O   0  0  0  0  0  0  0  0  0  0  0  0
   21.0199   43.6251   35.6293 C   0  0  0  0  0  0  0  0  0  0  0  0
   20.8572   43.8043   36.9958 C   0  0  0  0  0  0  0  0  0  0  0  0
   20.0949   44.8383   37.4488 O   0  0  0  0  0  0  0  0  0  0  0  0
   21.4708   42.9249   37.8853 C   0  0  0  0  0  0  0  0  0  0  0  0
   21.3174   43.0843   39.2568 C   0  0  0  0  0  0  0  0  0  0  0  0
   20.6482   44.0051   39.7188 O   0  0  0  0  0  0  0  0  0  0  0  0
   21.9252   42.1781   40.1050 C   0  0  0  0  0  0  0  0  0  0  0  0
   22.6790   41.1525   39.5649 C   0  0  0  0  0  0  0  0  0  0  0  0
   22.8580   40.9854   38.2258 O   0  0  0  0  0  0  0  0  0  0  0  0
   22.2401   41.8713   37.4012 C   0  0  0  0  0  0  0  0  0  0  0  0
   22.4622   41.6983   33.4908 H   0  0  0  0  0  0  0  0  0  0  0  0
   19.6879   45.4224   36.8396 H   0  0  0  0  0  0  0  0  0  0  0  0
   21.8139   42.2742   41.4869 C   0  0  0  0  0  0  0  0  0  0  0  0
   22.2112   43.4243   42.1566 C   0  0  0  0  0  0  0  0  0  0  0  0
   22.0818   43.4935   43.5375 C   0  0  0  0  0  0  0  0  0  0  0  0
   21.5512   42.4319   44.2574 C   0  0  0  0  0  0  0  0  0  0  0  0
   21.4259   42.5080   45.6113 O   0  0  0  0  0  0  0  0  0  0  0  0
   21.1514   41.2899   43.5798 C   0  0  0  0  0  0  0  0  0  0  0  0
   21.2803   41.2087   42.2013 C   0  0  0  0  0  0  0  0  0  0  0  0
   21.6976   43.2819   46.0642 H   0  0  0  0  0  0  0  0  0  0  0  0
  1  2  2  0  0  0
  1 13  1  0  0  0
  2  3  1  0  0  0
  2  4  1  0  0  0
  4  5  2  0  0  0
  5  6  1  0  0  0
  5  7  1  0  0  0
  7  8  1  0  0  0
  7 13  2  0  0  0
  8  9  2  0  0  0
  8 10  1  0  0  0
 10 11  2  0  0  0
 10 16  1  0  0  0
 11 12  1  0  0  0
 12 13  1  0  0  0
 16 17  2  0  0  0
 16 22  1  0  0  0
 17 18  1  0  0  0
 18 19  2  0  0  0
 19 20  1  0  0  0
 19 21  1  0  0  0
 21 22  2  0  0  0
  3 14  1  0  0  0
  6 15  1  0  0  0
 20 23  1  0  0  0
M  END
> <minimizedAffinity>
-7.43219

$$$$
3KGT_GEN_A_3071


 23 25  0  0  0  0  0  0  0  0999 V2000
   21.5049   42.2635   33.7148 C   0  0  0  0  0  0  0  0  0  0  0  0
   20.5697   41.3969   33.2090 C   0  0  0  0  0  0  0  0  0  0  0  0
   20.4867   41.1921   31.8606 O   0  0  0  0  0  0  0  0  0  0  0  0
   19.6830   40.7179   34.0362 C   0  0  0  0  0  0  0  0  0  0  0  0
   19.7497   40.9170   35.4080 C   0  0  0  0  0  0  0  0  0  0  0  0
   18.8874   40.2486   36.2237 O   0  0  0  0  0  0  0  0  0  0  0  0
   20.6973   41.7929   35.9332 C   0  0  0  0  0  0  0  0  0  0  0  0
   20.7833   42.0034   37.3037 C   0  0  0  0  0  0  0  0  0  0  0  0
   20.0242   41.4332   38.0833 O   0  0  0  0  0  0  0  0  0  0  0  0
   21.7510   42.8642   37.7862 C   0  0  0  0  0  0  0  0  0  0  0  0
   22.5915   43.5006   36.8915 C   0  0  0  0  0  0  0  0  0  0  0  0
   22.5158   43.3238   35.5438 O   0  0  0  0  0  0  0  0  0  0  0  0
   21.5730   42.4608   35.0826 C   0  0  0  0  0  0  0  0  0  0  0  0
   21.0734   41.6382   31.2820 H   0  0  0  0  0  0  0  0  0  0  0  0
   18.2550   39.6625   35.8572 H   0  0  0  0  0  0  0  0  0  0  0  0
   21.8965   43.1214   39.1441 C   0  0  0  0  0  0  0  0  0  0  0  0
   22.9077   42.5179   39.8804 C   0  0  0  0  0  0  0  0  0  0  0  0
   23.0322   42.7995   41.2345 C   0  0  0  0  0  0  0  0  0  0  0  0
   22.1651   43.6843   41.8608 C   0  0  0  0  0  0  0  0  0  0  0  0
   22.2946   43.9567   43.1888 O   0  0  0  0  0  0  0  0  0  0  0  0
   21.1622   44.2870   41.1164 C   0  0  0  0  0  0  0  0  0  0  0  0
   21.0264   44.0094   39.7644 C   0  0  0  0  0  0  0  0  0  0  0  0
   22.9740   43.5467   43.6870 H   0  0  0  0  0  0  0  0  0  0  0  0
  1  2  2  0  0  0
  1 13  1  0  0  0
  2  3  1  0  0  0
  2  4  1  0  0  0
  4  5  2  0  0  0
  5  6  1  0  0  0
  5  7  1  0  0  0
  7  8  1  0  0  0
  7 13  2  0  0  0
  8  9  2  0  0  0
  8 10  1  0  0  0
 10 11  2  0  0  0
 10 16  1  0  0  0
 11 12  1  0  0  0
 12 13  1  0  0  0
 16 17  2  0  0  0
 16 22  1  0  0  0
 17 18  1  0  0  0
 18 19  2  0  0  0
 19 20  1  0  0  0
 19 21  1  0  0  0
 21 22  2  0  0  0
  3 14  1  0  0  0
  6 15  1  0  0  0
 20 23  1  0  0  0
M  END
> <minimizedAffinity>
-7.23654

$$$$
3KGT_GEN_A_3071


 23 25  0  0  0  0  0  0  0  0999 V2000
   21.6875   42.7391   33.7050 C   0  0  0  0  0  0  0  0  0  0  0  0
   22.6035   43.5964   33.1507 C   0  0  0  0  0  0  0  0  0  0  0  0
   22.6488   43.7649   31.7955 O   0  0  0  0  0  0  0  0  0  0  0  0
   23.5082   44.3023   33.9348 C   0  0  0  0  0  0  0  0  0  0  0  0
   23.4798   44.1402   35.3128 C   0  0  0  0  0  0  0  0  0  0  0  0
   24.3597   44.8351   36.0864 O   0  0  0  0  0  0  0  0  0  0  0  0
   22.5519   43.2741   35.8871 C   0  0  0  0  0  0  0  0  0  0  0  0
   22.5042   43.1005   37.2646 C   0  0  0  0  0  0  0  0  0  0  0  0
   23.2807   43.6957   38.0075 O   0  0  0  0  0  0  0  0  0  0  0  0
   21.5550   42.2481   37.7963 C   0  0  0  0  0  0  0  0  0  0  0  0
   20.6945   41.5833   36.9423 C   0  0  0  0  0  0  0  0  0  0  0  0
   20.7327   41.7237   35.5889 O   0  0  0  0  0  0  0  0  0  0  0  0
   21.6576   42.5788   35.0790 C   0  0  0  0  0  0  0  0  0  0  0  0
   22.0494   43.3002   31.2453 H   0  0  0  0  0  0  0  0  0  0  0  0
   24.9786   45.4143   35.6872 H   0  0  0  0  0  0  0  0  0  0  0  0
   21.4478   42.0272   39.1641 C   0  0  0  0  0  0  0  0  0  0  0  0
   20.5030   42.7042   39.9244 C   0  0  0  0  0  0  0  0  0  0  0  0
   20.4152   42.4576   41.2883 C   0  0  0  0  0  0  0  0  0  0  0  0
   21.2528   41.5358   41.9009 C   0  0  0  0  0  0  0  0  0  0  0  0
   21.1595   41.2981   43.2386 O   0  0  0  0  0  0  0  0  0  0  0  0
   22.1890   40.8599   41.1328 C   0  0  0  0  0  0  0  0  0  0  0  0
   22.2880   41.1018   39.7709 C   0  0  0  0  0  0  0  0  0  0  0  0
   20.5252   41.7575   43.7529 H   0  0  0  0  0  0  0  0  0  0  0  0
  1  2  2  0  0  0
  1 13  1  0  0  0
  2  3  1  0  0  0
  2  4  1  0  0  0
  4  5  2  0  0  0
  5  6  1  0  0  0
  5  7  1  0  0  0
  7  8  1  0  0  0
  7 13  2  0  0  0
  8  9  2  0  0  0
  8 10  1  0  0  0
 10 11  2  0  0  0
 10 16  1  0  0  0
 11 12  1  0  0  0
 12 13  1  0  0  0
 16 17  2  0  0  0
 16 22  1  0  0  0
 17 18  1  0  0  0
 18 19  2  0  0  0
 19 20  1  0  0  0
 19 21  1  0  0  0
 21 22  2  0  0  0
  3 14  1  0  0  0
  6 15  1  0  0  0
 20 23  1  0  0  0
M  END
> <minimizedAffinity>
-7.17029

$$$$
3KGT_GEN_A_3071


 23 25  0  0  0  0  0  0  0  0999 V2000
   20.2725   41.1945   34.2190 C   0  0  0  0  0  0  0  0  0  0  0  0
   20.8949   41.7004   33.1063 C   0  0  0  0  0  0  0  0  0  0  0  0
   20.5450   41.2514   31.8642 O   0  0  0  0  0  0  0  0  0  0  0  0
   21.8930   42.6626   33.2041 C   0  0  0  0  0  0  0  0  0  0  0  0
   22.2646   43.1272   34.4579 C   0  0  0  0  0  0  0  0  0  0  0  0
   23.2375   44.0753   34.5588 O   0  0  0  0  0  0  0  0  0  0  0  0
   21.6374   42.6224   35.5949 C   0  0  0  0  0  0  0  0  0  0  0  0
   21.9917   43.0768   36.8590 C   0  0  0  0  0  0  0  0  0  0  0  0
   22.8689   43.9240   37.0072 O   0  0  0  0  0  0  0  0  0  0  0  0
   21.3309   42.5659   37.9602 C   0  0  0  0  0  0  0  0  0  0  0  0
   20.3509   41.6088   37.7721 C   0  0  0  0  0  0  0  0  0  0  0  0
   19.9980   41.1355   36.5455 O   0  0  0  0  0  0  0  0  0  0  0  0
   20.6413   41.6588   35.4691 C   0  0  0  0  0  0  0  0  0  0  0  0
   19.8749   40.6030   31.7719 H   0  0  0  0  0  0  0  0  0  0  0  0
   23.6511   44.4062   33.7859 H   0  0  0  0  0  0  0  0  0  0  0  0
   21.6312   42.9748   39.2540 C   0  0  0  0  0  0  0  0  0  0  0  0
   22.7124   42.4364   39.9396 C   0  0  0  0  0  0  0  0  0  0  0  0
   22.9916   42.8695   41.2292 C   0  0  0  0  0  0  0  0  0  0  0  0
   22.2102   43.8411   41.8392 C   0  0  0  0  0  0  0  0  0  0  0  0
   22.4913   44.2620   43.1035 O   0  0  0  0  0  0  0  0  0  0  0  0
   21.1363   44.3775   41.1448 C   0  0  0  0  0  0  0  0  0  0  0  0
   20.8460   43.9490   39.8582 C   0  0  0  0  0  0  0  0  0  0  0  0
   23.2181   43.8962   43.5682 H   0  0  0  0  0  0  0  0  0  0  0  0
  1  2  2  0  0  0
  1 13  1  0  0  0
  2  3  1  0  0  0
  2  4  1  0  0  0
  4  5  2  0  0  0
  5  6  1  0  0  0
  5  7  1  0  0  0
  7  8  1  0  0  0
  7 13  2  0  0  0
  8  9  2  0  0  0
  8 10  1  0  0  0
 10 11  2  0  0  0
 10 16  1  0  0  0
 11 12  1  0  0  0
 12 13  1  0  0  0
 16 17  2  0  0  0
 16 22  1  0  0  0
 17 18  1  0  0  0
 18 19  2  0  0  0
 19 20  1  0  0  0
 19 21  1  0  0  0
 21 22  2  0  0  0
  3 14  1  0  0  0
  6 15  1  0  0  0
 20 23  1  0  0  0
M  END
> <minimizedAffinity>
-6.85424

$$$$
3KGT_GEN_A_3071


 23 25  0  0  0  0  0  0  0  0999 V2000
   23.1288   44.0161   34.1001 C   0  0  0  0  0  0  0  0  0  0  0  0
   22.5257   43.5322   32.9673 C   0  0  0  0  0  0  0  0  0  0  0  0
   22.8821   44.0203   31.7418 O   0  0  0  0  0  0  0  0  0  0  0  0
   21.5406   42.5536   33.0276 C   0  0  0  0  0  0  0  0  0  0  0  0
   21.1626   42.0495   34.2641 C   0  0  0  0  0  0  0  0  0  0  0  0
   20.2026   41.0852   34.3283 O   0  0  0  0  0  0  0  0  0  0  0  0
   21.7703   42.5316   35.4213 C   0  0  0  0  0  0  0  0  0  0  0  0
   21.4092   42.0375   36.6685 C   0  0  0  0  0  0  0  0  0  0  0  0
   20.5429   41.1742   36.7838 O   0  0  0  0  0  0  0  0  0  0  0  0
   22.0509   42.5272   37.7905 C   0  0  0  0  0  0  0  0  0  0  0  0
   23.0188   43.5030   37.6395 C   0  0  0  0  0  0  0  0  0  0  0  0
   23.3778   44.0149   36.4302 O   0  0  0  0  0  0  0  0  0  0  0  0
   22.7535   43.5123   35.3329 C   0  0  0  0  0  0  0  0  0  0  0  0
   23.5436   44.6804   31.6747 H   0  0  0  0  0  0  0  0  0  0  0  0
   19.8020   40.7698   33.5421 H   0  0  0  0  0  0  0  0  0  0  0  0
   21.7428   42.0787   39.0692 C   0  0  0  0  0  0  0  0  0  0  0  0
   22.5319   41.1260   39.7007 C   0  0  0  0  0  0  0  0  0  0  0  0
   22.2027   40.7019   40.9814 C   0  0  0  0  0  0  0  0  0  0  0  0
   21.1005   41.2248   41.6436 C   0  0  0  0  0  0  0  0  0  0  0  0
   20.7850   40.8052   42.9002 O   0  0  0  0  0  0  0  0  0  0  0  0
   20.3219   42.1801   41.0078 C   0  0  0  0  0  0  0  0  0  0  0  0
   20.6392   42.6074   39.7272 C   0  0  0  0  0  0  0  0  0  0  0  0
   21.3145   40.1594   43.3252 H   0  0  0  0  0  0  0  0  0  0  0  0
  1  2  2  0  0  0
  1 13  1  0  0  0
  2  3  1  0  0  0
  2  4  1  0  0  0
  4  5  2  0  0  0
  5  6  1  0  0  0
  5  7  1  0  0  0
  7  8  1  0  0  0
  7 13  2  0  0  0
  8  9  2  0  0  0
  8 10  1  0  0  0
 10 11  2  0  0  0
 10 16  1  0  0  0
 11 12  1  0  0  0
 12 13  1  0  0  0
 16 17  2  0  0  0
 16 22  1  0  0  0
 17 18  1  0  0  0
 18 19  2  0  0  0
 19 20  1  0  0  0
 19 21  1  0  0  0
 21 22  2  0  0  0
  3 14  1  0  0  0
  6 15  1  0  0  0
 20 23  1  0  0  0
M  END
> <minimizedAffinity>
-6.76807

$$$$
3KGT_GEN_A_3071


 23 25  0  0  0  0  0  0  0  0999 V2000
   22.2059   43.0562   37.6435 C   0  0  0  0  0  0  0  0  0  0  0  0
   21.0440   42.3275   37.6296 C   0  0  0  0  0  0  0  0  0  0  0  0
   20.4430   41.9774   38.8057 O   0  0  0  0  0  0  0  0  0  0  0  0
   20.4548   41.9184   36.4392 C   0  0  0  0  0  0  0  0  0  0  0  0
   21.0536   42.2610   35.2351 C   0  0  0  0  0  0  0  0  0  0  0  0
   20.4764   41.8684   34.0653 O   0  0  0  0  0  0  0  0  0  0  0  0
   22.2327   43.0032   35.2369 C   0  0  0  0  0  0  0  0  0  0  0  0
   22.8460   43.3599   34.0425 C   0  0  0  0  0  0  0  0  0  0  0  0
   22.3727   43.0241   32.9598 O   0  0  0  0  0  0  0  0  0  0  0  0
   24.0031   44.1145   34.0871 C   0  0  0  0  0  0  0  0  0  0  0  0
   24.5227   44.4769   35.3161 C   0  0  0  0  0  0  0  0  0  0  0  0
   23.9496   44.1253   36.4998 O   0  0  0  0  0  0  0  0  0  0  0  0
   22.8022   43.3996   36.4431 C   0  0  0  0  0  0  0  0  0  0  0  0
   20.8208   42.2412   39.6216 H   0  0  0  0  0  0  0  0  0  0  0  0
   19.6834   41.3696   34.0784 H   0  0  0  0  0  0  0  0  0  0  0  0
   24.6696   44.5089   32.9332 C   0  0  0  0  0  0  0  0  0  0  0  0
   23.9685   44.9695   31.8263 C   0  0  0  0  0  0  0  0  0  0  0  0
   24.6624   45.3629   30.6895 C   0  0  0  0  0  0  0  0  0  0  0  0
   26.0489   45.3113   30.6478 C   0  0  0  0  0  0  0  0  0  0  0  0
   26.7225   45.7003   29.5300 O   0  0  0  0  0  0  0  0  0  0  0  0
   26.7410   44.8559   31.7599 C   0  0  0  0  0  0  0  0  0  0  0  0
   26.0576   44.4565   32.8987 C   0  0  0  0  0  0  0  0  0  0  0  0
   26.2500   46.0073   28.7814 H   0  0  0  0  0  0  0  0  0  0  0  0
  1  2  2  0  0  0
  1 13  1  0  0  0
  2  3  1  0  0  0
  2  4  1  0  0  0
  4  5  2  0  0  0
  5  6  1  0  0  0
  5  7  1  0  0  0
  7  8  1  0  0  0
  7 13  2  0  0  0
  8  9  2  0  0  0
  8 10  1  0  0  0
 10 11  2  0  0  0
 10 16  1  0  0  0
 11 12  1  0  0  0
 12 13  1  0  0  0
 16 17  2  0  0  0
 16 22  1  0  0  0
 17 18  1  0  0  0
 18 19  2  0  0  0
 19 20  1  0  0  0
 19 21  1  0  0  0
 21 22  2  0  0  0
  3 14  1  0  0  0
  6 15  1  0  0  0
 20 23  1  0  0  0
M  END
> <minimizedAffinity>
-6.55936

$$$$
3KGT_GEN_A_3071


 23 25  0  0  0  0  0  0  0  0999 V2000
   21.0397   41.9952   37.6286 C   0  0  0  0  0  0  0  0  0  0  0  0
   22.1930   42.7376   37.6215 C   0  0  0  0  0  0  0  0  0  0  0  0
   22.7888   43.0857   38.8009 O   0  0  0  0  0  0  0  0  0  0  0  0
   22.7785   43.1627   36.4349 C   0  0  0  0  0  0  0  0  0  0  0  0
   22.1849   42.8223   35.2276 C   0  0  0  0  0  0  0  0  0  0  0  0
   22.7585   43.2305   34.0614 O   0  0  0  0  0  0  0  0  0  0  0  0
   21.0146   42.0663   35.2225 C   0  0  0  0  0  0  0  0  0  0  0  0
   20.4066   41.7116   34.0248 C   0  0  0  0  0  0  0  0  0  0  0  0
   20.8771   42.0612   32.9452 O   0  0  0  0  0  0  0  0  0  0  0  0
   19.2585   40.9431   34.0624 C   0  0  0  0  0  0  0  0  0  0  0  0
   18.7420   40.5652   35.2881 C   0  0  0  0  0  0  0  0  0  0  0  0
   19.3098   40.9144   36.4750 O   0  0  0  0  0  0  0  0  0  0  0  0
   20.4486   41.6540   36.4250 C   0  0  0  0  0  0  0  0  0  0  0  0
   22.4133   42.8113   39.6143 H   0  0  0  0  0  0  0  0  0  0  0  0
   23.5456   43.7386   34.0792 H   0  0  0  0  0  0  0  0  0  0  0  0
   18.5978   40.5497   32.9048 C   0  0  0  0  0  0  0  0  0  0  0  0
   19.3047   40.0955   31.7990 C   0  0  0  0  0  0  0  0  0  0  0  0
   18.6165   39.7030   30.6585 C   0  0  0  0  0  0  0  0  0  0  0  0
   17.2300   39.7491   30.6119 C   0  0  0  0  0  0  0  0  0  0  0  0
   16.5621   39.3610   29.4904 O   0  0  0  0  0  0  0  0  0  0  0  0
   16.5321   40.1982   31.7229 C   0  0  0  0  0  0  0  0  0  0  0  0
   17.2097   40.5967   32.8654 C   0  0  0  0  0  0  0  0  0  0  0  0
   17.0385   39.0583   28.7425 H   0  0  0  0  0  0  0  0  0  0  0  0
  1  2  2  0  0  0
  1 13  1  0  0  0
  2  3  1  0  0  0
  2  4  1  0  0  0
  4  5  2  0  0  0
  5  6  1  0  0  0
  5  7  1  0  0  0
  7  8  1  0  0  0
  7 13  2  0  0  0
  8  9  2  0  0  0
  8 10  1  0  0  0
 10 11  2  0  0  0
 10 16  1  0  0  0
 11 12  1  0  0  0
 12 13  1  0  0  0
 16 17  2  0  0  0
 16 22  1  0  0  0
 17 18  1  0  0  0
 18 19  2  0  0  0
 19 20  1  0  0  0
 19 21  1  0  0  0
 21 22  2  0  0  0
  3 14  1  0  0  0
  6 15  1  0  0  0
 20 23  1  0  0  0
M  END
> <minimizedAffinity>
-6.50809

$$$$
