3KGT_GEN_A_3071
  RCSB PDB12061709263D
Coordinates from PDB:3KGT:A:3071 Model:1 without hydrogens
 20 22  0  0  0  0            999 V2000
   22.4240   43.0910   34.7660   C 0  0  0  0  0  0  0  0  0  0  0  0
   21.5470   42.4820   33.9050   C 0  0  0  0  0  0  0  0  0  0  0  0
   21.7170   42.6070   32.5550   O 0  0  0  0  0  0  0  0  0  0  0  0
   20.4680   41.7390   34.3690   C 0  0  0  0  0  0  0  0  0  0  0  0
   20.2770   41.6050   35.7370   C 0  0  0  0  0  0  0  0  0  0  0  0
   19.2250   40.8720   36.1970   O 0  0  0  0  0  0  0  0  0  0  0  0
   21.1630   42.2170   36.6210   C 0  0  0  0  0  0  0  0  0  0  0  0
   20.9920   42.0920   37.9940   C 0  0  0  0  0  0  0  0  0  0  0  0
   20.0550   41.4500   38.4620   O 0  0  0  0  0  0  0  0  0  0  0  0
   21.9050   42.6970   38.8370   C 0  0  0  0  0  0  0  0  0  0  0  0
   22.9490   43.4200   38.2900   C 0  0  0  0  0  0  0  0  0  0  0  0
   23.1280   43.5710   36.9490   O 0  0  0  0  0  0  0  0  0  0  0  0
   22.2350   42.9560   36.1300   C 0  0  0  0  0  0  0  0  0  0  0  0
   21.7980   42.6130   40.2200   C 0  0  0  0  0  0  0  0  0  0  0  0
   21.8070   41.3820   40.8630   C 0  0  0  0  0  0  0  0  0  0  0  0
   21.7050   41.3300   42.2470   C 0  0  0  0  0  0  0  0  0  0  0  0
   21.6040   42.4930   42.9980   C 0  0  0  0  0  0  0  0  0  0  0  0
   21.5060   42.4340   44.3550   O 0  0  0  0  0  0  0  0  0  0  0  0
   21.6020   43.7180   42.3480   C 0  0  0  0  0  0  0  0  0  0  0  0
   21.6990   43.7810   40.9660   C 0  0  0  0  0  0  0  0  0  0  0  0
  1  2  2  0  0  0  0
  1 13  1  0  0  0  0
  2  3  1  0  0  0  0
  2  4  1  0  0  0  0
  4  5  2  0  0  0  0
  5  6  1  0  0  0  0
  5  7  1  0  0  0  0
  7  8  1  0  0  0  0
  7 13  2  0  0  0  0
  8  9  2  0  0  0  0
  8 10  1  0  0  0  0
 10 11  2  0  0  0  0
 10 14  1  0  0  0  0
 11 12  1  0  0  0  0
 12 13  1  0  0  0  0
 14 15  2  0  0  0  0
 14 20  1  0  0  0  0
 15 16  1  0  0  0  0
 16 17  2  0  0  0  0
 17 18  1  0  0  0  0
 17 19  1  0  0  0  0
 19 20  2  0  0  0  0
A    1
C1
A    2
C2
A    3
O2
A    4
C3
A    5
C4
A    6
O4
A    7
C5
A    8
C6
A    9
O6
A   10
C7
A   11
C8
A   12
O9
A   13
C10
A   14
C11
A   15
C12
A   16
C13
A   17
C14
A   18
O14
A   19
C15
A   20
C16
M  END
>  <InstanceId>
3KGT_GEN_A_3071

>  <ChemCompId>
GEN

>  <PdbId>
3KGT

>  <ChainId>
A

>  <ResidueNumber>
3071

>  <InsertionCode>


>  <Model>
1

>  <AltIds>


>  <MissingHeavyAtoms>
0

>  <ObservedFormula>
C15 O5

>  <Name>
GENISTEIN

>  <SystematicName>
5,7-dihydroxy-3-(4-hydroxyphenyl)chromen-4-one

>  <Synonyms>
5,7-DIHYDROXY-3-(4-HYDROXYPHENYL)-4H-1-BENZOPYRAN-4-ONE; 4',5,7-TRIHYDROXYISOFLAVONE; PRUNETOL; GENISTEOL

>  <Type>
NON-POLYMER

>  <Formula>
C15 H10 O5

>  <MolecularWeight>
270.237

>  <ModifiedDate>
2011-06-04

>  <Parent>


>  <OneLetterCode>


>  <SubcomponentList>


>  <AmbiguousFlag>
N

>  <InChI>
InChI=1S/C15H10O5/c16-9-3-1-8(2-4-9)11-7-20-13-6-10(17)5-12(18)14(13)15(11)19/h1-7,16-18H

>  <InChIKey>
TZBJGXHYKVUXJN-UHFFFAOYSA-N

>  <SMILES>
c1cc(ccc1C2=COc3cc(cc(c3C2=O)O)O)O

$$$$
