4GAH_0ET_A_301


 71 73  0  0  0  0  0  0  0  0999 V2000
   22.7773   64.7976   41.6440 P   0  0  0  0  0  0  0  0  0  0  0  0
   21.8003   65.6889   42.3698 O   0  0  0  0  0  0  0  0  0  0  0  0
   23.7561   63.9334   42.4147 O   0  0  0  0  0  0  0  0  0  0  0  0
   21.2558   66.1655   41.7237 H   0  0  0  0  0  0  0  0  0  0  0  0
   21.8309   63.8359   40.7400 O   0  0  0  0  0  0  0  0  0  0  0  0
   21.7634   62.4085   40.7860 C   0  0  0  0  0  0  0  0  0  0  0  0
   21.7589   61.8789   39.3513 C   0  0  0  0  0  0  0  0  0  0  0  0
   21.8740   60.3537   39.3609 C   0  0  0  0  0  0  0  0  0  0  0  0
   20.4983   62.3432   38.6413 C   0  0  0  0  0  0  0  0  0  0  0  0
   22.9567   62.4253   38.5950 C   0  0  0  0  0  0  0  0  0  0  0  0
   24.0718   62.3278   39.4845 O   0  0  0  0  0  0  0  0  0  0  0  0
   24.1973   61.4020   39.7454 H   0  0  0  0  0  0  0  0  0  0  0  0
   24.3932   61.3782   36.9670 N   0  0  0  0  0  0  0  0  0  0  0  0
   23.1943   61.6336   37.3309 C   0  0  0  0  0  0  0  0  0  0  0  0
   22.1590   61.2151   36.5968 O   0  0  0  0  0  0  0  0  0  0  0  0
   25.1026   61.7224   37.5565 H   0  0  0  0  0  0  0  0  0  0  0  0
   24.8457   60.6426   35.7912 C   0  0  0  0  0  0  0  0  0  0  0  0
   26.1756   61.2893   35.3881 C   0  0  0  0  0  0  0  0  0  0  0  0
   25.4977   61.4651   33.0675 N   0  0  0  0  0  0  0  0  0  0  0  0
   26.0613   62.0751   34.0989 C   0  0  0  0  0  0  0  0  0  0  0  0
   26.4489   63.2341   33.9934 O   0  0  0  0  0  0  0  0  0  0  0  0
   25.1939   60.5373   33.1941 H   0  0  0  0  0  0  0  0  0  0  0  0
   25.2955   62.0743   31.7533 C   0  0  0  0  0  0  0  0  0  0  0  0
   26.3950   61.5106   30.8603 C   0  0  0  0  0  0  0  0  0  0  0  0
   25.9954   61.7658   29.1621 S   0  0  0  0  0  0  0  0  0  0  0  0
   25.2164   63.2726   29.6531 C   0  0  0  0  0  0  0  0  0  0  0  0
   24.0883   63.7746   28.7338 C   0  0  0  0  0  0  0  0  0  0  0  0
   24.3756   65.0392   28.1216 O   0  0  0  0  0  0  0  0  0  0  0  0
   24.4576   65.7196   28.8081 H   0  0  0  0  0  0  0  0  0  0  0  0
   22.7732   63.8553   29.4962 C   0  0  0  0  0  0  0  0  0  0  0  0
   22.0765   62.4990   29.5163 C   0  0  0  0  0  0  0  0  0  0  0  0
   21.6833   62.2663   30.9501 C   0  0  0  0  0  0  0  0  0  0  0  0
   20.4348   62.0006   31.3121 C   0  0  0  0  0  0  0  0  0  0  0  0
   19.3718   62.2274   30.2621 C   0  0  0  0  0  0  0  0  0  0  0  0
   18.4572   63.3496   30.7462 C   0  0  0  0  0  0  0  0  0  0  0  0
   18.7089   63.6924   32.2105 C   0  0  0  0  0  0  0  0  0  0  0  0
   18.2879   65.1322   32.4960 C   0  0  0  0  0  0  0  0  0  0  0  0
   18.8135   65.6064   33.8351 C   0  0  0  0  0  0  0  0  0  0  0  0
   23.6310   65.6904   40.6014 O   0  0  0  0  0  0  0  0  0  0  0  0
   24.7936   66.9938   42.4516 O   0  0  0  0  0  0  0  0  0  0  0  0
   24.3713   67.0611   41.0034 P   0  0  0  0  0  0  0  0  0  0  0  0
   25.3881   67.4165   39.9391 O   0  0  0  0  0  0  0  0  0  0  0  0
   25.2404   67.8192   42.6968 H   0  0  0  0  0  0  0  0  0  0  0  0
   23.1715   68.1219   40.8740 O   0  0  0  0  0  0  0  0  0  0  0  0
   23.3004   69.3415   40.1525 C   0  0  0  0  0  0  0  0  0  0  0  0
   20.9340   71.7405   40.5467 C   0  0  0  0  0  0  0  0  0  0  0  0
   20.4096   70.4668   41.1822 C   0  0  0  0  0  0  0  0  0  0  0  0
   19.3522   70.7870   42.0895 O   0  0  0  0  0  0  0  0  0  0  0  0
   21.6323   69.9835   41.9269 C   0  0  0  0  0  0  0  0  0  0  0  0
   22.8224   70.4395   41.0896 C   0  0  0  0  0  0  0  0  0  0  0  0
   22.3390   71.5221   40.2987 O   0  0  0  0  0  0  0  0  0  0  0  0
   19.6665   71.4392   42.7350 H   0  0  0  0  0  0  0  0  0  0  0  0
   19.8457   70.2261   35.7173 N   0  0  0  0  0  0  0  0  0  0  0  0
   20.5962   69.6130   36.6508 C   0  0  0  0  0  0  0  0  0  0  0  0
   20.7862   70.1477   37.8673 N   0  0  0  0  0  0  0  0  0  0  0  0
   20.2251   71.3413   38.1860 C   0  0  0  0  0  0  0  0  0  0  0  0
   19.4551   72.0065   37.2417 C   0  0  0  0  0  0  0  0  0  0  0  0
   19.2669   71.4271   35.9760 C   0  0  0  0  0  0  0  0  0  0  0  0
   18.5166   72.0468   35.0156 N   0  0  0  0  0  0  0  0  0  0  0  0
   19.0197   73.1480   37.8226 N   0  0  0  0  0  0  0  0  0  0  0  0
   19.5129   73.1893   39.0813 C   0  0  0  0  0  0  0  0  0  0  0  0
   20.2461   72.0904   39.2890 N   0  0  0  0  0  0  0  0  0  0  0  0
   18.3972   71.6234   34.1348 H   0  0  0  0  0  0  0  0  0  0  0  0
   18.0956   72.9164   35.2048 H   0  0  0  0  0  0  0  0  0  0  0  0
   21.6393   70.7292   43.1334 O   0  0  0  0  0  0  0  0  0  0  0  0
   22.4538   70.2858   44.4499 P   0  0  0  0  0  0  0  0  0  0  0  0
   22.9066   68.8689   44.1604 O   0  0  0  0  0  0  0  0  0  0  0  0
   21.4233   70.3787   45.5564 O   0  0  0  0  0  0  0  0  0  0  0  0
   23.5483   71.3333   44.5377 O   0  0  0  0  0  0  0  0  0  0  0  0
   22.1341   68.2833   44.1255 H   0  0  0  0  0  0  0  0  0  0  0  0
   24.1057   71.1545   45.3111 H   0  0  0  0  0  0  0  0  0  0  0  0
 53 54  2  0  0  0
 53 58  1  0  0  0
 54 55  1  0  0  0
 59 58  1  0  0  0
 58 57  2  0  0  0
 55 56  2  0  0  0
 56 57  1  0  0  0
 56 62  1  0  0  0
 57 60  1  0  0  0
 62 46  1  0  0  0
 62 61  1  0  0  0
 60 61  2  0  0  0
 48 47  1  0  0  0
 68 66  2  0  0  0
 46 47  1  0  0  0
 46 51  1  0  0  0
 67 66  1  0  0  0
 24 23  1  0  0  0
 24 25  1  0  0  0
 47 49  1  0  0  0
 65 66  1  0  0  0
 65 49  1  0  0  0
 26 27  1  0  0  0
 26 25  1  0  0  0
 66 69  1  0  0  0
 51 50  1  0  0  0
 28 27  1  0  0  0
 23 19  1  0  0  0
 27 30  1  0  0  0
 19 20  1  0  0  0
 49 50  1  0  0  0
 50 45  1  0  0  0
 20 18  1  0  0  0
 20 21  2  0  0  0
 18 17  1  0  0  0
 30 31  1  0  0  0
 31 32  1  0  0  0
  8  7  1  0  0  0
 17 13  1  0  0  0
 32 33  1  0  0  0
 13 14  1  0  0  0
 45 44  1  0  0  0
 11 10  1  0  0  0
 44 41  1  0  0  0
 33 34  1  0  0  0
  6  7  1  0  0  0
  6  5  1  0  0  0
  7 10  1  0  0  0
  7  9  1  0  0  0
 14 10  1  0  0  0
 14 15  2  0  0  0
 34 35  1  0  0  0
 35 36  1  0  0  0
 42 41  2  0  0  0
 41 39  1  0  0  0
 41 40  1  0  0  0
 39  1  1  0  0  0
  5  1  1  0  0  0
 37 36  1  0  0  0
 37 38  1  0  0  0
  1  3  2  0  0  0
  1  2  1  0  0  0
 19 22  1  0  0  0
 13 16  1  0  0  0
 11 12  1  0  0  0
 40 43  1  0  0  0
 28 29  1  0  0  0
 48 52  1  0  0  0
  2  4  1  0  0  0
 59 63  1  0  0  0
 59 64  1  0  0  0
 67 70  1  0  0  0
 69 71  1  0  0  0
M  END
> <minimizedAffinity>
-8.36471

$$$$
4GAH_0ET_A_301


 71 73  0  0  0  0  0  0  0  0999 V2000
   22.7564   64.8418   41.6264 P   0  0  0  0  0  0  0  0  0  0  0  0
   21.7786   65.7199   42.3669 O   0  0  0  0  0  0  0  0  0  0  0  0
   23.7561   63.9883   42.3822 O   0  0  0  0  0  0  0  0  0  0  0  0
   21.2197   66.1909   41.7291 H   0  0  0  0  0  0  0  0  0  0  0  0
   21.8097   63.8701   40.7335 O   0  0  0  0  0  0  0  0  0  0  0  0
   21.7409   62.4434   40.7967 C   0  0  0  0  0  0  0  0  0  0  0  0
   21.7154   61.8977   39.3683 C   0  0  0  0  0  0  0  0  0  0  0  0
   21.8084   60.3711   39.3944 C   0  0  0  0  0  0  0  0  0  0  0  0
   20.4551   62.3723   38.6645 C   0  0  0  0  0  0  0  0  0  0  0  0
   22.9140   62.4178   38.5948 C   0  0  0  0  0  0  0  0  0  0  0  0
   24.0309   62.3379   39.4837 O   0  0  0  0  0  0  0  0  0  0  0  0
   24.1524   61.4187   39.7686 H   0  0  0  0  0  0  0  0  0  0  0  0
   24.3305   61.2139   37.0604 N   0  0  0  0  0  0  0  0  0  0  0  0
   23.1441   61.5919   37.3514 C   0  0  0  0  0  0  0  0  0  0  0  0
   22.1166   61.2704   36.5598 O   0  0  0  0  0  0  0  0  0  0  0  0
   25.0353   61.4924   37.6888 H   0  0  0  0  0  0  0  0  0  0  0  0
   24.7747   60.4235   35.9174 C   0  0  0  0  0  0  0  0  0  0  0  0
   25.8823   61.2482   35.2525 C   0  0  0  0  0  0  0  0  0  0  0  0
   26.4851   59.1169   34.2679 N   0  0  0  0  0  0  0  0  0  0  0  0
   26.7161   60.4204   34.2975 C   0  0  0  0  0  0  0  0  0  0  0  0
   27.5622   60.9136   33.5589 O   0  0  0  0  0  0  0  0  0  0  0  0
   25.7935   58.7603   34.8711 H   0  0  0  0  0  0  0  0  0  0  0  0
   27.1861   58.1701   33.4011 C   0  0  0  0  0  0  0  0  0  0  0  0
   26.4931   58.2557   32.0458 C   0  0  0  0  0  0  0  0  0  0  0  0
   27.4193   57.3791   30.8283 S   0  0  0  0  0  0  0  0  0  0  0  0
   27.7535   58.9395   30.0723 C   0  0  0  0  0  0  0  0  0  0  0  0
   29.2410   59.2855   29.8782 C   0  0  0  0  0  0  0  0  0  0  0  0
   30.0780   58.1300   29.7335 O   0  0  0  0  0  0  0  0  0  0  0  0
   30.0495   57.6058   30.5492 H   0  0  0  0  0  0  0  0  0  0  0  0
   29.7436   60.1484   31.0271 C   0  0  0  0  0  0  0  0  0  0  0  0
   31.0749   59.6237   31.5541 C   0  0  0  0  0  0  0  0  0  0  0  0
   30.8392   59.3051   33.0058 C   0  0  0  0  0  0  0  0  0  0  0  0
   31.3226   58.2127   33.5829 C   0  0  0  0  0  0  0  0  0  0  0  0
   30.6949   56.9028   33.1658 C   0  0  0  0  0  0  0  0  0  0  0  0
   30.2689   56.1566   34.4275 C   0  0  0  0  0  0  0  0  0  0  0  0
   31.4164   56.0287   35.4235 C   0  0  0  0  0  0  0  0  0  0  0  0
   31.0455   56.6969   36.7455 C   0  0  0  0  0  0  0  0  0  0  0  0
   32.1419   57.6277   37.2208 C   0  0  0  0  0  0  0  0  0  0  0  0
   23.5850   65.7466   40.5739 O   0  0  0  0  0  0  0  0  0  0  0  0
   24.7788   66.9977   42.4404 O   0  0  0  0  0  0  0  0  0  0  0  0
   24.3841   67.0811   40.9853 P   0  0  0  0  0  0  0  0  0  0  0  0
   25.4344   67.3837   39.9372 O   0  0  0  0  0  0  0  0  0  0  0  0
   25.2609   67.8011   42.6912 H   0  0  0  0  0  0  0  0  0  0  0  0
   23.2394   68.1983   40.8337 O   0  0  0  0  0  0  0  0  0  0  0  0
   23.4757   69.4605   40.2209 C   0  0  0  0  0  0  0  0  0  0  0  0
   20.9773   71.7161   40.6458 C   0  0  0  0  0  0  0  0  0  0  0  0
   20.5156   70.3992   41.2403 C   0  0  0  0  0  0  0  0  0  0  0  0
   19.4313   70.6370   42.1412 O   0  0  0  0  0  0  0  0  0  0  0  0
   21.7536   69.9629   41.9887 C   0  0  0  0  0  0  0  0  0  0  0  0
   22.9272   70.5053   41.1800 C   0  0  0  0  0  0  0  0  0  0  0  0
   22.3951   71.5811   40.4114 O   0  0  0  0  0  0  0  0  0  0  0  0
   19.7017   71.2877   42.8080 H   0  0  0  0  0  0  0  0  0  0  0  0
   19.8735   70.1837   35.8257 N   0  0  0  0  0  0  0  0  0  0  0  0
   20.6253   69.5731   36.7597 C   0  0  0  0  0  0  0  0  0  0  0  0
   20.8195   70.1126   37.9735 N   0  0  0  0  0  0  0  0  0  0  0  0
   20.2615   71.3085   38.2887 C   0  0  0  0  0  0  0  0  0  0  0  0
   19.4902   71.9712   37.3437 C   0  0  0  0  0  0  0  0  0  0  0  0
   19.2976   71.3869   36.0809 C   0  0  0  0  0  0  0  0  0  0  0  0
   18.5458   72.0040   35.1199 N   0  0  0  0  0  0  0  0  0  0  0  0
   19.0585   73.1159   37.9209 N   0  0  0  0  0  0  0  0  0  0  0  0
   19.5551   73.1615   39.1782 C   0  0  0  0  0  0  0  0  0  0  0  0
   20.2868   72.0621   39.3885 N   0  0  0  0  0  0  0  0  0  0  0  0
   18.4233   71.5772   34.2412 H   0  0  0  0  0  0  0  0  0  0  0  0
   18.1270   72.8752   35.3066 H   0  0  0  0  0  0  0  0  0  0  0  0
   21.7052   70.6751   43.2144 O   0  0  0  0  0  0  0  0  0  0  0  0
   22.5394   70.2505   44.5248 P   0  0  0  0  0  0  0  0  0  0  0  0
   21.5611   70.4136   45.6705 O   0  0  0  0  0  0  0  0  0  0  0  0
   23.6830   71.2435   44.5581 O   0  0  0  0  0  0  0  0  0  0  0  0
   22.9664   68.8295   44.2066 O   0  0  0  0  0  0  0  0  0  0  0  0
   21.3558   71.3542   45.7889 H   0  0  0  0  0  0  0  0  0  0  0  0
   23.4846   68.4745   44.9456 H   0  0  0  0  0  0  0  0  0  0  0  0
 53 54  2  0  0  0
 53 58  1  0  0  0
 54 55  1  0  0  0
 59 58  1  0  0  0
 58 57  2  0  0  0
 55 56  2  0  0  0
 56 57  1  0  0  0
 56 62  1  0  0  0
 57 60  1  0  0  0
 62 46  1  0  0  0
 62 61  1  0  0  0
 60 61  2  0  0  0
 48 47  1  0  0  0
 68 66  2  0  0  0
 46 47  1  0  0  0
 46 51  1  0  0  0
 67 66  1  0  0  0
 24 23  1  0  0  0
 24 25  1  0  0  0
 47 49  1  0  0  0
 65 66  1  0  0  0
 65 49  1  0  0  0
 26 27  1  0  0  0
 26 25  1  0  0  0
 66 69  1  0  0  0
 51 50  1  0  0  0
 28 27  1  0  0  0
 23 19  1  0  0  0
 27 30  1  0  0  0
 19 20  1  0  0  0
 49 50  1  0  0  0
 50 45  1  0  0  0
 20 18  1  0  0  0
 20 21  2  0  0  0
 18 17  1  0  0  0
 30 31  1  0  0  0
 31 32  1  0  0  0
  8  7  1  0  0  0
 17 13  1  0  0  0
 32 33  1  0  0  0
 13 14  1  0  0  0
 45 44  1  0  0  0
 11 10  1  0  0  0
 44 41  1  0  0  0
 33 34  1  0  0  0
  6  7  1  0  0  0
  6  5  1  0  0  0
  7 10  1  0  0  0
  7  9  1  0  0  0
 14 10  1  0  0  0
 14 15  2  0  0  0
 34 35  1  0  0  0
 35 36  1  0  0  0
 42 41  2  0  0  0
 41 39  1  0  0  0
 41 40  1  0  0  0
 39  1  1  0  0  0
  5  1  1  0  0  0
 37 36  1  0  0  0
 37 38  1  0  0  0
  1  3  2  0  0  0
  1  2  1  0  0  0
 19 22  1  0  0  0
 13 16  1  0  0  0
 11 12  1  0  0  0
 40 43  1  0  0  0
 28 29  1  0  0  0
 48 52  1  0  0  0
  2  4  1  0  0  0
 59 63  1  0  0  0
 59 64  1  0  0  0
 67 70  1  0  0  0
 69 71  1  0  0  0
M  END
> <minimizedAffinity>
-8.06482

$$$$
4GAH_0ET_A_301


 71 73  0  0  0  0  0  0  0  0999 V2000
   22.5056   63.7853   40.5265 P   0  0  0  0  0  0  0  0  0  0  0  0
   21.0794   63.5302   40.9468 O   0  0  0  0  0  0  0  0  0  0  0  0
   23.6611   63.3540   41.4085 O   0  0  0  0  0  0  0  0  0  0  0  0
   20.4764   63.8698   40.2671 H   0  0  0  0  0  0  0  0  0  0  0  0
   22.6314   63.0298   39.0943 O   0  0  0  0  0  0  0  0  0  0  0  0
   23.5734   62.0149   38.7384 C   0  0  0  0  0  0  0  0  0  0  0  0
   22.8279   60.9014   38.0014 C   0  0  0  0  0  0  0  0  0  0  0  0
   21.9870   60.0955   38.9929 C   0  0  0  0  0  0  0  0  0  0  0  0
   21.9734   61.5040   36.8990 C   0  0  0  0  0  0  0  0  0  0  0  0
   23.8226   59.9488   37.3621 C   0  0  0  0  0  0  0  0  0  0  0  0
   23.1726   58.6774   37.2917 O   0  0  0  0  0  0  0  0  0  0  0  0
   22.3591   58.7586   36.7696 H   0  0  0  0  0  0  0  0  0  0  0  0
   25.1351   61.3235   35.8796 N   0  0  0  0  0  0  0  0  0  0  0  0
   24.2201   60.4369   35.9893 C   0  0  0  0  0  0  0  0  0  0  0  0
   23.6116   59.9525   34.9026 O   0  0  0  0  0  0  0  0  0  0  0  0
   25.5339   61.6346   36.7243 H   0  0  0  0  0  0  0  0  0  0  0  0
   25.6644   61.9335   34.6647 C   0  0  0  0  0  0  0  0  0  0  0  0
   27.1674   61.6333   34.6749 C   0  0  0  0  0  0  0  0  0  0  0  0
   28.1278   60.4276   32.8042 N   0  0  0  0  0  0  0  0  0  0  0  0
   27.4960   60.3372   33.9644 C   0  0  0  0  0  0  0  0  0  0  0  0
   27.2170   59.2374   34.4307 O   0  0  0  0  0  0  0  0  0  0  0  0
   28.3398   61.3279   32.4669 H   0  0  0  0  0  0  0  0  0  0  0  0
   28.5324   59.2826   31.9891 C   0  0  0  0  0  0  0  0  0  0  0  0
   30.0295   59.1145   32.2227 C   0  0  0  0  0  0  0  0  0  0  0  0
   30.4015   57.4395   32.6282 S   0  0  0  0  0  0  0  0  0  0  0  0
   30.6116   57.9728   34.2984 C   0  0  0  0  0  0  0  0  0  0  0  0
   30.1298   56.9905   35.3814 C   0  0  0  0  0  0  0  0  0  0  0  0
   28.8624   57.3488   35.9491 O   0  0  0  0  0  0  0  0  0  0  0  0
   28.9417   58.2014   36.4048 H   0  0  0  0  0  0  0  0  0  0  0  0
   31.1714   56.8565   36.4834 C   0  0  0  0  0  0  0  0  0  0  0  0
   32.4940   57.4832   36.0555 C   0  0  0  0  0  0  0  0  0  0  0  0
   33.5378   56.8842   36.9589 C   0  0  0  0  0  0  0  0  0  0  0  0
   34.0154   57.5246   38.0181 C   0  0  0  0  0  0  0  0  0  0  0  0
   35.0151   56.7680   38.8619 C   0  0  0  0  0  0  0  0  0  0  0  0
   36.4102   57.2907   38.5295 C   0  0  0  0  0  0  0  0  0  0  0  0
   36.4795   58.8115   38.6147 C   0  0  0  0  0  0  0  0  0  0  0  0
   36.6629   59.2516   40.0654 C   0  0  0  0  0  0  0  0  0  0  0  0
   37.6100   58.3307   40.8065 C   0  0  0  0  0  0  0  0  0  0  0  0
   22.6901   65.3611   40.2170 O   0  0  0  0  0  0  0  0  0  0  0  0
   23.6076   65.8824   42.5323 O   0  0  0  0  0  0  0  0  0  0  0  0
   23.6253   66.3351   41.0918 P   0  0  0  0  0  0  0  0  0  0  0  0
   24.9480   66.5356   40.3826 O   0  0  0  0  0  0  0  0  0  0  0  0
   24.1707   66.4680   43.0621 H   0  0  0  0  0  0  0  0  0  0  0  0
   22.8253   67.7246   40.9872 O   0  0  0  0  0  0  0  0  0  0  0  0
   23.3356   68.8525   40.2860 C   0  0  0  0  0  0  0  0  0  0  0  0
   21.0964   71.4007   40.3450 C   0  0  0  0  0  0  0  0  0  0  0  0
   20.4924   70.2382   41.1097 C   0  0  0  0  0  0  0  0  0  0  0  0
   19.4379   70.7160   41.9485 O   0  0  0  0  0  0  0  0  0  0  0  0
   21.6734   69.7817   41.9343 C   0  0  0  0  0  0  0  0  0  0  0  0
   22.9014   70.0752   41.0790 C   0  0  0  0  0  0  0  0  0  0  0  0
   22.4918   71.0824   40.1576 O   0  0  0  0  0  0  0  0  0  0  0  0
   19.7755   71.4215   42.5223 H   0  0  0  0  0  0  0  0  0  0  0  0
   20.2785   69.5250   35.5897 N   0  0  0  0  0  0  0  0  0  0  0  0
   21.0104   69.0067   36.5927 C   0  0  0  0  0  0  0  0  0  0  0  0
   21.1266   69.6285   37.7767 N   0  0  0  0  0  0  0  0  0  0  0  0
   20.5070   70.8166   37.9900 C   0  0  0  0  0  0  0  0  0  0  0  0
   19.7541   71.3854   36.9718 C   0  0  0  0  0  0  0  0  0  0  0  0
   19.6436   70.7158   35.7419 C   0  0  0  0  0  0  0  0  0  0  0  0
   18.9127   71.2390   34.7115 N   0  0  0  0  0  0  0  0  0  0  0  0
   19.2506   72.5442   37.4551 N   0  0  0  0  0  0  0  0  0  0  0  0
   19.6864   72.6893   38.7273 C   0  0  0  0  0  0  0  0  0  0  0  0
   20.4513   71.6376   39.0393 N   0  0  0  0  0  0  0  0  0  0  0  0
   18.8481   70.7534   33.8576 H   0  0  0  0  0  0  0  0  0  0  0  0
   18.4510   72.1013   34.8236 H   0  0  0  0  0  0  0  0  0  0  0  0
   21.6993   70.6610   43.0469 O   0  0  0  0  0  0  0  0  0  0  0  0
   22.4301   70.3141   44.4394 P   0  0  0  0  0  0  0  0  0  0  0  0
   22.8577   68.8673   44.2970 O   0  0  0  0  0  0  0  0  0  0  0  0
   21.3452   70.5264   45.4753 O   0  0  0  0  0  0  0  0  0  0  0  0
   23.5472   71.3394   44.4982 O   0  0  0  0  0  0  0  0  0  0  0  0
   22.0720   68.2991   44.2694 H   0  0  0  0  0  0  0  0  0  0  0  0
   24.0576   71.2151   45.3137 H   0  0  0  0  0  0  0  0  0  0  0  0
 53 54  2  0  0  0
 53 58  1  0  0  0
 54 55  1  0  0  0
 59 58  1  0  0  0
 58 57  2  0  0  0
 55 56  2  0  0  0
 56 57  1  0  0  0
 56 62  1  0  0  0
 57 60  1  0  0  0
 62 46  1  0  0  0
 62 61  1  0  0  0
 60 61  2  0  0  0
 48 47  1  0  0  0
 68 66  2  0  0  0
 46 47  1  0  0  0
 46 51  1  0  0  0
 67 66  1  0  0  0
 24 23  1  0  0  0
 24 25  1  0  0  0
 47 49  1  0  0  0
 65 66  1  0  0  0
 65 49  1  0  0  0
 26 27  1  0  0  0
 26 25  1  0  0  0
 66 69  1  0  0  0
 51 50  1  0  0  0
 28 27  1  0  0  0
 23 19  1  0  0  0
 27 30  1  0  0  0
 19 20  1  0  0  0
 49 50  1  0  0  0
 50 45  1  0  0  0
 20 18  1  0  0  0
 20 21  2  0  0  0
 18 17  1  0  0  0
 30 31  1  0  0  0
 31 32  1  0  0  0
  8  7  1  0  0  0
 17 13  1  0  0  0
 32 33  1  0  0  0
 13 14  1  0  0  0
 45 44  1  0  0  0
 11 10  1  0  0  0
 44 41  1  0  0  0
 33 34  1  0  0  0
  6  7  1  0  0  0
  6  5  1  0  0  0
  7 10  1  0  0  0
  7  9  1  0  0  0
 14 10  1  0  0  0
 14 15  2  0  0  0
 34 35  1  0  0  0
 35 36  1  0  0  0
 42 41  2  0  0  0
 41 39  1  0  0  0
 41 40  1  0  0  0
 39  1  1  0  0  0
  5  1  1  0  0  0
 37 36  1  0  0  0
 37 38  1  0  0  0
  1  3  2  0  0  0
  1  2  1  0  0  0
 19 22  1  0  0  0
 13 16  1  0  0  0
 11 12  1  0  0  0
 40 43  1  0  0  0
 28 29  1  0  0  0
 48 52  1  0  0  0
  2  4  1  0  0  0
 59 63  1  0  0  0
 59 64  1  0  0  0
 67 70  1  0  0  0
 69 71  1  0  0  0
M  END
> <minimizedAffinity>
-7.99827

$$$$
4GAH_0ET_A_301


 71 73  0  0  0  0  0  0  0  0999 V2000
   22.8909   65.1748   41.4939 P   0  0  0  0  0  0  0  0  0  0  0  0
   21.7979   66.0295   42.0860 O   0  0  0  0  0  0  0  0  0  0  0  0
   23.7288   64.2697   42.3758 O   0  0  0  0  0  0  0  0  0  0  0  0
   21.3692   66.5400   41.3814 H   0  0  0  0  0  0  0  0  0  0  0  0
   22.1201   64.2632   40.3927 O   0  0  0  0  0  0  0  0  0  0  0  0
   21.3580   63.0790   40.6396 C   0  0  0  0  0  0  0  0  0  0  0  0
   21.4757   62.1658   39.4186 C   0  0  0  0  0  0  0  0  0  0  0  0
   21.0691   60.7403   39.7957 C   0  0  0  0  0  0  0  0  0  0  0  0
   20.6206   62.7141   38.2886 C   0  0  0  0  0  0  0  0  0  0  0  0
   22.9170   62.1218   38.9432 C   0  0  0  0  0  0  0  0  0  0  0  0
   23.7169   61.8967   40.1066 O   0  0  0  0  0  0  0  0  0  0  0  0
   23.4472   61.0660   40.5287 H   0  0  0  0  0  0  0  0  0  0  0  0
   23.7867   61.2572   36.8680 N   0  0  0  0  0  0  0  0  0  0  0  0
   23.1086   61.0217   37.9262 C   0  0  0  0  0  0  0  0  0  0  0  0
   22.5640   59.8183   38.1289 O   0  0  0  0  0  0  0  0  0  0  0  0
   24.1530   62.1675   36.7873 H   0  0  0  0  0  0  0  0  0  0  0  0
   24.0876   60.3514   35.7647 C   0  0  0  0  0  0  0  0  0  0  0  0
   24.9104   61.1758   34.7683 C   0  0  0  0  0  0  0  0  0  0  0  0
   26.6494   59.5372   34.3606 N   0  0  0  0  0  0  0  0  0  0  0  0
   26.3688   60.7691   34.7570 C   0  0  0  0  0  0  0  0  0  0  0  0
   27.2721   61.5344   35.0782 O   0  0  0  0  0  0  0  0  0  0  0  0
   25.8973   58.9558   34.1048 H   0  0  0  0  0  0  0  0  0  0  0  0
   27.9992   58.9805   34.2766 C   0  0  0  0  0  0  0  0  0  0  0  0
   27.9038   57.8027   33.3133 C   0  0  0  0  0  0  0  0  0  0  0  0
   26.7350   58.1473   32.0390 S   0  0  0  0  0  0  0  0  0  0  0  0
   28.1074   58.4659   30.9745 C   0  0  0  0  0  0  0  0  0  0  0  0
   28.3050   59.9344   30.5567 C   0  0  0  0  0  0  0  0  0  0  0  0
   29.1787   60.6606   31.4318 O   0  0  0  0  0  0  0  0  0  0  0  0
   28.7854   60.7053   32.3173 H   0  0  0  0  0  0  0  0  0  0  0  0
   26.9635   60.6469   30.4562 C   0  0  0  0  0  0  0  0  0  0  0  0
   26.9522   61.9014   31.3229 C   0  0  0  0  0  0  0  0  0  0  0  0
   25.5139   62.3398   31.3831 C   0  0  0  0  0  0  0  0  0  0  0  0
   24.6331   62.0241   30.4424 C   0  0  0  0  0  0  0  0  0  0  0  0
   24.2802   63.1193   29.4626 C   0  0  0  0  0  0  0  0  0  0  0  0
   22.7630   63.1367   29.2952 C   0  0  0  0  0  0  0  0  0  0  0  0
   22.0610   63.6382   30.5524 C   0  0  0  0  0  0  0  0  0  0  0  0
   20.9429   62.6780   30.9520 C   0  0  0  0  0  0  0  0  0  0  0  0
   20.1356   62.2385   29.7480 C   0  0  0  0  0  0  0  0  0  0  0  0
   23.9048   66.1185   40.6605 O   0  0  0  0  0  0  0  0  0  0  0  0
   25.3150   66.9716   42.5989 O   0  0  0  0  0  0  0  0  0  0  0  0
   24.6686   67.3830   41.2978 P   0  0  0  0  0  0  0  0  0  0  0  0
   25.4970   68.0636   40.2285 O   0  0  0  0  0  0  0  0  0  0  0  0
   25.7764   67.7322   42.9855 H   0  0  0  0  0  0  0  0  0  0  0  0
   23.4401   68.3639   41.6300 O   0  0  0  0  0  0  0  0  0  0  0  0
   23.0661   69.4404   40.7781 C   0  0  0  0  0  0  0  0  0  0  0  0
   20.7030   71.8597   41.0491 C   0  0  0  0  0  0  0  0  0  0  0  0
   20.1338   70.5895   41.6522 C   0  0  0  0  0  0  0  0  0  0  0  0
   19.0316   70.9175   42.5016 O   0  0  0  0  0  0  0  0  0  0  0  0
   21.3099   70.0939   42.4611 C   0  0  0  0  0  0  0  0  0  0  0  0
   22.5477   70.5410   41.6905 C   0  0  0  0  0  0  0  0  0  0  0  0
   22.1174   71.6293   40.8771 O   0  0  0  0  0  0  0  0  0  0  0  0
   19.3161   71.5657   43.1648 H   0  0  0  0  0  0  0  0  0  0  0  0
   19.8882   70.3764   36.1566 N   0  0  0  0  0  0  0  0  0  0  0  0
   20.5844   69.7567   37.1271 C   0  0  0  0  0  0  0  0  0  0  0  0
   20.7058   70.2838   38.3557 N   0  0  0  0  0  0  0  0  0  0  0  0
   20.1283   71.4759   38.6497 C   0  0  0  0  0  0  0  0  0  0  0  0
   19.4132   72.1476   37.6677 C   0  0  0  0  0  0  0  0  0  0  0  0
   19.2964   71.5763   36.3897 C   0  0  0  0  0  0  0  0  0  0  0  0
   18.6019   72.2027   35.3924 N   0  0  0  0  0  0  0  0  0  0  0  0
   18.9464   73.2859   38.2301 N   0  0  0  0  0  0  0  0  0  0  0  0
   19.3678   73.3189   39.5150 C   0  0  0  0  0  0  0  0  0  0  0  0
   20.0874   72.2180   39.7568 N   0  0  0  0  0  0  0  0  0  0  0  0
   18.5322   71.7849   34.5036 H   0  0  0  0  0  0  0  0  0  0  0  0
   18.1714   73.0715   35.5630 H   0  0  0  0  0  0  0  0  0  0  0  0
   21.2581   70.8374   43.6678 O   0  0  0  0  0  0  0  0  0  0  0  0
   22.1767   70.5174   44.9512 P   0  0  0  0  0  0  0  0  0  0  0  0
   22.7778   69.1568   44.6618 O   0  0  0  0  0  0  0  0  0  0  0  0
   21.1929   70.5129   46.1032 O   0  0  0  0  0  0  0  0  0  0  0  0
   23.1448   71.6858   44.9723 O   0  0  0  0  0  0  0  0  0  0  0  0
   22.0778   68.4854   44.6717 H   0  0  0  0  0  0  0  0  0  0  0  0
   23.7533   71.5881   45.7213 H   0  0  0  0  0  0  0  0  0  0  0  0
 53 54  2  0  0  0
 53 58  1  0  0  0
 54 55  1  0  0  0
 59 58  1  0  0  0
 58 57  2  0  0  0
 55 56  2  0  0  0
 56 57  1  0  0  0
 56 62  1  0  0  0
 57 60  1  0  0  0
 62 46  1  0  0  0
 62 61  1  0  0  0
 60 61  2  0  0  0
 48 47  1  0  0  0
 68 66  2  0  0  0
 46 47  1  0  0  0
 46 51  1  0  0  0
 67 66  1  0  0  0
 24 23  1  0  0  0
 24 25  1  0  0  0
 47 49  1  0  0  0
 65 66  1  0  0  0
 65 49  1  0  0  0
 26 27  1  0  0  0
 26 25  1  0  0  0
 66 69  1  0  0  0
 51 50  1  0  0  0
 28 27  1  0  0  0
 23 19  1  0  0  0
 27 30  1  0  0  0
 19 20  1  0  0  0
 49 50  1  0  0  0
 50 45  1  0  0  0
 20 18  1  0  0  0
 20 21  2  0  0  0
 18 17  1  0  0  0
 30 31  1  0  0  0
 31 32  1  0  0  0
  8  7  1  0  0  0
 17 13  1  0  0  0
 32 33  1  0  0  0
 13 14  1  0  0  0
 45 44  1  0  0  0
 11 10  1  0  0  0
 44 41  1  0  0  0
 33 34  1  0  0  0
  6  7  1  0  0  0
  6  5  1  0  0  0
  7 10  1  0  0  0
  7  9  1  0  0  0
 14 10  1  0  0  0
 14 15  2  0  0  0
 34 35  1  0  0  0
 35 36  1  0  0  0
 42 41  2  0  0  0
 41 39  1  0  0  0
 41 40  1  0  0  0
 39  1  1  0  0  0
  5  1  1  0  0  0
 37 36  1  0  0  0
 37 38  1  0  0  0
  1  3  2  0  0  0
  1  2  1  0  0  0
 19 22  1  0  0  0
 13 16  1  0  0  0
 11 12  1  0  0  0
 40 43  1  0  0  0
 28 29  1  0  0  0
 48 52  1  0  0  0
  2  4  1  0  0  0
 59 63  1  0  0  0
 59 64  1  0  0  0
 67 70  1  0  0  0
 69 71  1  0  0  0
M  END
> <minimizedAffinity>
-7.95145

$$$$
4GAH_0ET_A_301


 71 73  0  0  0  0  0  0  0  0999 V2000
   24.9519   58.2274   30.5047 P   0  0  0  0  0  0  0  0  0  0  0  0
   24.5783   58.5370   31.9330 O   0  0  0  0  0  0  0  0  0  0  0  0
   23.9794   57.5107   29.5884 O   0  0  0  0  0  0  0  0  0  0  0  0
   25.3147   58.9947   32.3680 H   0  0  0  0  0  0  0  0  0  0  0  0
   25.2953   59.6812   29.8673 O   0  0  0  0  0  0  0  0  0  0  0  0
   24.3617   60.6442   29.3720 C   0  0  0  0  0  0  0  0  0  0  0  0
   24.8545   62.0387   29.7608 C   0  0  0  0  0  0  0  0  0  0  0  0
   26.3818   62.0871   29.6928 C   0  0  0  0  0  0  0  0  0  0  0  0
   24.2179   63.0756   28.8507 C   0  0  0  0  0  0  0  0  0  0  0  0
   24.4483   62.3504   31.1903 C   0  0  0  0  0  0  0  0  0  0  0  0
   23.4294   61.4077   31.5328 O   0  0  0  0  0  0  0  0  0  0  0  0
   23.7782   60.5072   31.4415 H   0  0  0  0  0  0  0  0  0  0  0  0
   25.7928   61.1676   32.8038 N   0  0  0  0  0  0  0  0  0  0  0  0
   25.6346   62.2351   32.1178 C   0  0  0  0  0  0  0  0  0  0  0  0
   26.5025   63.2455   32.2258 O   0  0  0  0  0  0  0  0  0  0  0  0
   25.1110   60.4695   32.6736 H   0  0  0  0  0  0  0  0  0  0  0  0
   26.8529   60.8506   33.7546 C   0  0  0  0  0  0  0  0  0  0  0  0
   26.2982   61.2320   35.1315 C   0  0  0  0  0  0  0  0  0  0  0  0
   24.4770   60.7153   36.6453 N   0  0  0  0  0  0  0  0  0  0  0  0
   25.0347   60.4694   35.4698 C   0  0  0  0  0  0  0  0  0  0  0  0
   24.5190   59.6671   34.6984 O   0  0  0  0  0  0  0  0  0  0  0  0
   24.9176   61.3706   37.2333 H   0  0  0  0  0  0  0  0  0  0  0  0
   23.2519   60.0809   37.1308 C   0  0  0  0  0  0  0  0  0  0  0  0
   22.3583   61.2179   37.6135 C   0  0  0  0  0  0  0  0  0  0  0  0
   21.7021   60.8463   39.2073 S   0  0  0  0  0  0  0  0  0  0  0  0
   22.9931   61.8427   39.8846 C   0  0  0  0  0  0  0  0  0  0  0  0
   22.5389   63.0982   40.6510 C   0  0  0  0  0  0  0  0  0  0  0  0
   21.1176   63.1719   40.8275 O   0  0  0  0  0  0  0  0  0  0  0  0
   20.6873   63.2410   39.9608 H   0  0  0  0  0  0  0  0  0  0  0  0
   23.0408   64.3578   39.9592 C   0  0  0  0  0  0  0  0  0  0  0  0
   23.0597   65.5350   40.9282 C   0  0  0  0  0  0  0  0  0  0  0  0
   23.7026   66.6690   40.1763 C   0  0  0  0  0  0  0  0  0  0  0  0
   24.8695   67.1896   40.5335 C   0  0  0  0  0  0  0  0  0  0  0  0
   25.0221   68.6810   40.3437 C   0  0  0  0  0  0  0  0  0  0  0  0
   24.2166   69.3839   41.4334 C   0  0  0  0  0  0  0  0  0  0  0  0
   24.9158   69.3153   42.7867 C   0  0  0  0  0  0  0  0  0  0  0  0
   23.8929   69.0982   43.8995 C   0  0  0  0  0  0  0  0  0  0  0  0
   22.7672   68.1917   43.4461 C   0  0  0  0  0  0  0  0  0  0  0  0
   26.3381   57.3960   30.4909 O   0  0  0  0  0  0  0  0  0  0  0  0
   25.1875   55.3311   31.4324 O   0  0  0  0  0  0  0  0  0  0  0  0
   26.5349   55.9840   31.2366 P   0  0  0  0  0  0  0  0  0  0  0  0
   27.6546   55.2129   30.5698 O   0  0  0  0  0  0  0  0  0  0  0  0
   25.3032   54.4793   31.8819 H   0  0  0  0  0  0  0  0  0  0  0  0
   27.0836   56.4544   32.6716 O   0  0  0  0  0  0  0  0  0  0  0  0
   27.8690   57.6280   32.8454 C   0  0  0  0  0  0  0  0  0  0  0  0
   31.1596   58.3547   32.4522 C   0  0  0  0  0  0  0  0  0  0  0  0
   30.6864   59.0329   33.7238 C   0  0  0  0  0  0  0  0  0  0  0  0
   31.8149   59.3572   34.5394 O   0  0  0  0  0  0  0  0  0  0  0  0
   29.8618   57.9352   34.3547 C   0  0  0  0  0  0  0  0  0  0  0  0
   29.2718   57.1509   33.1874 C   0  0  0  0  0  0  0  0  0  0  0  0
   30.1203   57.4264   32.0760 O   0  0  0  0  0  0  0  0  0  0  0  0
   32.3378   58.5563   34.7010 H   0  0  0  0  0  0  0  0  0  0  0  0
   34.5590   59.8938   28.8640 N   0  0  0  0  0  0  0  0  0  0  0  0
   34.6896   58.9396   29.8036 C   0  0  0  0  0  0  0  0  0  0  0  0
   33.7038   58.6639   30.6720 N   0  0  0  0  0  0  0  0  0  0  0  0
   32.5384   59.3574   30.6280 C   0  0  0  0  0  0  0  0  0  0  0  0
   32.3755   60.3573   29.6788 C   0  0  0  0  0  0  0  0  0  0  0  0
   33.4191   60.6270   28.7780 C   0  0  0  0  0  0  0  0  0  0  0  0
   33.3023   61.6025   27.8271 N   0  0  0  0  0  0  0  0  0  0  0  0
   31.1355   60.8684   29.8548 N   0  0  0  0  0  0  0  0  0  0  0  0
   30.5561   60.2108   30.8849 C   0  0  0  0  0  0  0  0  0  0  0  0
   31.4181   59.2998   31.3489 N   0  0  0  0  0  0  0  0  0  0  0  0
   34.0457   61.7755   27.2054 H   0  0  0  0  0  0  0  0  0  0  0  0
   32.4747   62.1320   27.7642 H   0  0  0  0  0  0  0  0  0  0  0  0
   30.8069   57.1007   35.0045 O   0  0  0  0  0  0  0  0  0  0  0  0
   30.5934   56.4949   36.4812 P   0  0  0  0  0  0  0  0  0  0  0  0
   31.5688   57.2596   37.3531 O   0  0  0  0  0  0  0  0  0  0  0  0
   30.9435   55.0297   36.3209 O   0  0  0  0  0  0  0  0  0  0  0  0
   29.1205   56.7516   36.7410 O   0  0  0  0  0  0  0  0  0  0  0  0
   32.4767   57.0236   37.1062 H   0  0  0  0  0  0  0  0  0  0  0  0
   28.8844   56.4182   37.6207 H   0  0  0  0  0  0  0  0  0  0  0  0
 53 54  2  0  0  0
 53 58  1  0  0  0
 54 55  1  0  0  0
 59 58  1  0  0  0
 58 57  2  0  0  0
 55 56  2  0  0  0
 56 57  1  0  0  0
 56 62  1  0  0  0
 57 60  1  0  0  0
 62 46  1  0  0  0
 62 61  1  0  0  0
 60 61  2  0  0  0
 48 47  1  0  0  0
 68 66  2  0  0  0
 46 47  1  0  0  0
 46 51  1  0  0  0
 67 66  1  0  0  0
 24 23  1  0  0  0
 24 25  1  0  0  0
 47 49  1  0  0  0
 65 66  1  0  0  0
 65 49  1  0  0  0
 26 27  1  0  0  0
 26 25  1  0  0  0
 66 69  1  0  0  0
 51 50  1  0  0  0
 28 27  1  0  0  0
 23 19  1  0  0  0
 27 30  1  0  0  0
 19 20  1  0  0  0
 49 50  1  0  0  0
 50 45  1  0  0  0
 20 18  1  0  0  0
 20 21  2  0  0  0
 18 17  1  0  0  0
 30 31  1  0  0  0
 31 32  1  0  0  0
  8  7  1  0  0  0
 17 13  1  0  0  0
 32 33  1  0  0  0
 13 14  1  0  0  0
 45 44  1  0  0  0
 11 10  1  0  0  0
 44 41  1  0  0  0
 33 34  1  0  0  0
  6  7  1  0  0  0
  6  5  1  0  0  0
  7 10  1  0  0  0
  7  9  1  0  0  0
 14 10  1  0  0  0
 14 15  2  0  0  0
 34 35  1  0  0  0
 35 36  1  0  0  0
 42 41  2  0  0  0
 41 39  1  0  0  0
 41 40  1  0  0  0
 39  1  1  0  0  0
  5  1  1  0  0  0
 37 36  1  0  0  0
 37 38  1  0  0  0
  1  3  2  0  0  0
  1  2  1  0  0  0
 19 22  1  0  0  0
 13 16  1  0  0  0
 11 12  1  0  0  0
 40 43  1  0  0  0
 28 29  1  0  0  0
 48 52  1  0  0  0
  2  4  1  0  0  0
 59 63  1  0  0  0
 59 64  1  0  0  0
 67 70  1  0  0  0
 69 71  1  0  0  0
M  END
> <minimizedAffinity>
-7.93154

$$$$
4GAH_0ET_A_301


 71 73  0  0  0  0  0  0  0  0999 V2000
   22.7935   65.1458   41.5969 P   0  0  0  0  0  0  0  0  0  0  0  0
   21.6526   65.8006   42.3353 O   0  0  0  0  0  0  0  0  0  0  0  0
   23.8113   64.3009   42.3380 O   0  0  0  0  0  0  0  0  0  0  0  0
   21.1047   66.2979   41.7082 H   0  0  0  0  0  0  0  0  0  0  0  0
   22.0576   64.2200   40.4838 O   0  0  0  0  0  0  0  0  0  0  0  0
   21.4629   62.9365   40.6912 C   0  0  0  0  0  0  0  0  0  0  0  0
   21.6257   62.1163   39.4107 C   0  0  0  0  0  0  0  0  0  0  0  0
   21.3720   60.6371   39.7061 C   0  0  0  0  0  0  0  0  0  0  0  0
   20.6829   62.6463   38.3434 C   0  0  0  0  0  0  0  0  0  0  0  0
   23.0471   62.2440   38.8924 C   0  0  0  0  0  0  0  0  0  0  0  0
   23.9054   61.9711   40.0029 O   0  0  0  0  0  0  0  0  0  0  0  0
   23.7205   61.0819   40.3435 H   0  0  0  0  0  0  0  0  0  0  0  0
   24.0293   61.6270   36.7794 N   0  0  0  0  0  0  0  0  0  0  0  0
   23.2904   61.2733   37.7613 C   0  0  0  0  0  0  0  0  0  0  0  0
   22.7283   60.0611   37.7848 O   0  0  0  0  0  0  0  0  0  0  0  0
   24.4047   62.5356   36.8311 H   0  0  0  0  0  0  0  0  0  0  0  0
   24.3878   60.8581   35.5925 C   0  0  0  0  0  0  0  0  0  0  0  0
   25.7220   61.4402   35.1129 C   0  0  0  0  0  0  0  0  0  0  0  0
   24.6164   61.5920   32.9611 N   0  0  0  0  0  0  0  0  0  0  0  0
   25.7724   61.5884   33.6069 C   0  0  0  0  0  0  0  0  0  0  0  0
   26.8241   61.7200   32.9893 O   0  0  0  0  0  0  0  0  0  0  0  0
   23.7942   61.4905   33.4930 H   0  0  0  0  0  0  0  0  0  0  0  0
   24.4763   61.7364   31.5125 C   0  0  0  0  0  0  0  0  0  0  0  0
   22.9790   61.8505   31.2490 C   0  0  0  0  0  0  0  0  0  0  0  0
   22.6685   63.0438   29.9887 S   0  0  0  0  0  0  0  0  0  0  0  0
   21.3075   63.6044   30.9642 C   0  0  0  0  0  0  0  0  0  0  0  0
   20.0435   62.7267   30.9185 C   0  0  0  0  0  0  0  0  0  0  0  0
   19.6720   62.3358   29.5896 O   0  0  0  0  0  0  0  0  0  0  0  0
   19.4456   63.1242   29.0720 H   0  0  0  0  0  0  0  0  0  0  0  0
   18.8773   63.4331   31.5955 C   0  0  0  0  0  0  0  0  0  0  0  0
   19.1607   63.6428   33.0790 C   0  0  0  0  0  0  0  0  0  0  0  0
   18.6914   65.0388   33.3882 C   0  0  0  0  0  0  0  0  0  0  0  0
   18.4302   65.9289   32.4396 C   0  0  0  0  0  0  0  0  0  0  0  0
   17.7561   67.2050   32.8879 C   0  0  0  0  0  0  0  0  0  0  0  0
   18.8417   68.2289   33.2088 C   0  0  0  0  0  0  0  0  0  0  0  0
   19.4232   68.8517   31.9443 C   0  0  0  0  0  0  0  0  0  0  0  0
   20.0377   70.2135   32.2605 C   0  0  0  0  0  0  0  0  0  0  0  0
   20.7160   70.8094   31.0442 C   0  0  0  0  0  0  0  0  0  0  0  0
   23.6046   66.2748   40.7721 O   0  0  0  0  0  0  0  0  0  0  0  0
   25.2175   66.9595   42.6170 O   0  0  0  0  0  0  0  0  0  0  0  0
   24.3917   67.4919   41.4704 P   0  0  0  0  0  0  0  0  0  0  0  0
   25.0460   68.3469   40.4056 O   0  0  0  0  0  0  0  0  0  0  0  0
   25.6933   67.6914   43.0400 H   0  0  0  0  0  0  0  0  0  0  0  0
   23.1772   68.3516   42.0768 O   0  0  0  0  0  0  0  0  0  0  0  0
   23.1261   68.7504   43.4416 C   0  0  0  0  0  0  0  0  0  0  0  0
   21.5544   71.2322   41.7443 C   0  0  0  0  0  0  0  0  0  0  0  0
   20.5882   70.7032   42.7872 C   0  0  0  0  0  0  0  0  0  0  0  0
   19.5567   71.6668   43.0137 O   0  0  0  0  0  0  0  0  0  0  0  0
   21.4909   70.5849   43.9930 C   0  0  0  0  0  0  0  0  0  0  0  0
   22.8697   70.2493   43.4346 C   0  0  0  0  0  0  0  0  0  0  0  0
   22.8502   70.6924   42.0803 O   0  0  0  0  0  0  0  0  0  0  0  0
   19.9561   72.5175   43.2541 H   0  0  0  0  0  0  0  0  0  0  0  0
   19.9950   72.9547   37.1181 N   0  0  0  0  0  0  0  0  0  0  0  0
   20.2113   73.6451   38.2526 C   0  0  0  0  0  0  0  0  0  0  0  0
   20.6132   73.0404   39.3816 N   0  0  0  0  0  0  0  0  0  0  0  0
   20.8049   71.6974   39.4084 C   0  0  0  0  0  0  0  0  0  0  0  0
   20.5787   70.9534   38.2585 C   0  0  0  0  0  0  0  0  0  0  0  0
   20.1614   71.6072   37.0874 C   0  0  0  0  0  0  0  0  0  0  0  0
   19.9268   70.9143   35.9322 N   0  0  0  0  0  0  0  0  0  0  0  0
   20.8521   69.6643   38.5640 N   0  0  0  0  0  0  0  0  0  0  0  0
   21.2263   69.6142   39.8628 C   0  0  0  0  0  0  0  0  0  0  0  0
   21.1896   70.8527   40.3658 N   0  0  0  0  0  0  0  0  0  0  0  0
   19.6348   71.3919   35.1223 H   0  0  0  0  0  0  0  0  0  0  0  0
   20.0497   69.9378   35.9104 H   0  0  0  0  0  0  0  0  0  0  0  0
   21.5483   71.8956   44.5320 O   0  0  0  0  0  0  0  0  0  0  0  0
   21.8676   72.2095   46.0789 P   0  0  0  0  0  0  0  0  0  0  0  0
   21.1681   71.1052   46.8454 O   0  0  0  0  0  0  0  0  0  0  0  0
   21.2593   73.5793   46.2989 O   0  0  0  0  0  0  0  0  0  0  0  0
   23.3844   72.1950   46.1194 O   0  0  0  0  0  0  0  0  0  0  0  0
   20.2077   71.2067   46.7545 H   0  0  0  0  0  0  0  0  0  0  0  0
   23.6855   72.3767   47.0235 H   0  0  0  0  0  0  0  0  0  0  0  0
 53 54  2  0  0  0
 53 58  1  0  0  0
 54 55  1  0  0  0
 59 58  1  0  0  0
 58 57  2  0  0  0
 55 56  2  0  0  0
 56 57  1  0  0  0
 56 62  1  0  0  0
 57 60  1  0  0  0
 62 46  1  0  0  0
 62 61  1  0  0  0
 60 61  2  0  0  0
 48 47  1  0  0  0
 68 66  2  0  0  0
 46 47  1  0  0  0
 46 51  1  0  0  0
 67 66  1  0  0  0
 24 23  1  0  0  0
 24 25  1  0  0  0
 47 49  1  0  0  0
 65 66  1  0  0  0
 65 49  1  0  0  0
 26 27  1  0  0  0
 26 25  1  0  0  0
 66 69  1  0  0  0
 51 50  1  0  0  0
 28 27  1  0  0  0
 23 19  1  0  0  0
 27 30  1  0  0  0
 19 20  1  0  0  0
 49 50  1  0  0  0
 50 45  1  0  0  0
 20 18  1  0  0  0
 20 21  2  0  0  0
 18 17  1  0  0  0
 30 31  1  0  0  0
 31 32  1  0  0  0
  8  7  1  0  0  0
 17 13  1  0  0  0
 32 33  1  0  0  0
 13 14  1  0  0  0
 45 44  1  0  0  0
 11 10  1  0  0  0
 44 41  1  0  0  0
 33 34  1  0  0  0
  6  7  1  0  0  0
  6  5  1  0  0  0
  7 10  1  0  0  0
  7  9  1  0  0  0
 14 10  1  0  0  0
 14 15  2  0  0  0
 34 35  1  0  0  0
 35 36  1  0  0  0
 42 41  2  0  0  0
 41 39  1  0  0  0
 41 40  1  0  0  0
 39  1  1  0  0  0
  5  1  1  0  0  0
 37 36  1  0  0  0
 37 38  1  0  0  0
  1  3  2  0  0  0
  1  2  1  0  0  0
 19 22  1  0  0  0
 13 16  1  0  0  0
 11 12  1  0  0  0
 40 43  1  0  0  0
 28 29  1  0  0  0
 48 52  1  0  0  0
  2  4  1  0  0  0
 59 63  1  0  0  0
 59 64  1  0  0  0
 67 70  1  0  0  0
 69 71  1  0  0  0
M  END
> <minimizedAffinity>
-7.92506

$$$$
4GAH_0ET_A_301


 71 73  0  0  0  0  0  0  0  0999 V2000
   22.5964   63.9521   40.7473 P   0  0  0  0  0  0  0  0  0  0  0  0
   21.1552   63.5709   40.9782 O   0  0  0  0  0  0  0  0  0  0  0  0
   23.6377   63.7313   41.8272 O   0  0  0  0  0  0  0  0  0  0  0  0
   20.6345   63.7812   40.1872 H   0  0  0  0  0  0  0  0  0  0  0  0
   23.0197   63.0993   39.4315 O   0  0  0  0  0  0  0  0  0  0  0  0
   23.5676   61.7790   39.4033 C   0  0  0  0  0  0  0  0  0  0  0  0
   22.7091   60.9198   38.4740 C   0  0  0  0  0  0  0  0  0  0  0  0
   21.6936   60.1232   39.2947 C   0  0  0  0  0  0  0  0  0  0  0  0
   22.0286   61.8068   37.4449 C   0  0  0  0  0  0  0  0  0  0  0  0
   23.5852   59.9238   37.7351 C   0  0  0  0  0  0  0  0  0  0  0  0
   22.8101   58.7300   37.6004 O   0  0  0  0  0  0  0  0  0  0  0  0
   21.9940   58.9274   37.1147 H   0  0  0  0  0  0  0  0  0  0  0  0
   25.0393   61.1929   36.2911 N   0  0  0  0  0  0  0  0  0  0  0  0
   23.9895   60.4689   36.3859 C   0  0  0  0  0  0  0  0  0  0  0  0
   23.2486   60.2040   35.3058 O   0  0  0  0  0  0  0  0  0  0  0  0
   25.5306   61.3473   37.1301 H   0  0  0  0  0  0  0  0  0  0  0  0
   25.6029   61.8197   35.1004 C   0  0  0  0  0  0  0  0  0  0  0  0
   26.9763   61.1683   34.9036 C   0  0  0  0  0  0  0  0  0  0  0  0
   27.8523   58.9479   34.4822 N   0  0  0  0  0  0  0  0  0  0  0  0
   26.8749   59.8090   34.2445 C   0  0  0  0  0  0  0  0  0  0  0  0
   25.9295   59.4875   33.5320 O   0  0  0  0  0  0  0  0  0  0  0  0
   28.5900   59.2414   35.0644 H   0  0  0  0  0  0  0  0  0  0  0  0
   27.9120   57.5909   33.9397 C   0  0  0  0  0  0  0  0  0  0  0  0
   29.3391   57.1104   34.1782 C   0  0  0  0  0  0  0  0  0  0  0  0
   30.4873   58.3981   33.8146 S   0  0  0  0  0  0  0  0  0  0  0  0
   30.2123   58.0535   32.1047 C   0  0  0  0  0  0  0  0  0  0  0  0
   30.9870   58.9366   31.1098 C   0  0  0  0  0  0  0  0  0  0  0  0
   31.9220   59.8200   31.7441 O   0  0  0  0  0  0  0  0  0  0  0  0
   31.4430   60.4453   32.3102 H   0  0  0  0  0  0  0  0  0  0  0  0
   30.0247   59.7368   30.2432 C   0  0  0  0  0  0  0  0  0  0  0  0
   28.5827   59.5036   30.6806 C   0  0  0  0  0  0  0  0  0  0  0  0
   28.0289   60.8669   30.9954 C   0  0  0  0  0  0  0  0  0  0  0  0
   26.8760   61.2990   30.5010 C   0  0  0  0  0  0  0  0  0  0  0  0
   26.4314   62.6734   30.9452 C   0  0  0  0  0  0  0  0  0  0  0  0
   25.6153   63.2972   29.8161 C   0  0  0  0  0  0  0  0  0  0  0  0
   24.6855   62.2808   29.1621 C   0  0  0  0  0  0  0  0  0  0  0  0
   24.4545   62.6424   27.6966 C   0  0  0  0  0  0  0  0  0  0  0  0
   25.0995   63.9673   27.3461 C   0  0  0  0  0  0  0  0  0  0  0  0
   22.6671   65.5073   40.3123 O   0  0  0  0  0  0  0  0  0  0  0  0
   23.4058   66.4065   42.5750 O   0  0  0  0  0  0  0  0  0  0  0  0
   23.5510   66.6071   41.0854 P   0  0  0  0  0  0  0  0  0  0  0  0
   24.9313   66.6715   40.4661 O   0  0  0  0  0  0  0  0  0  0  0  0
   23.9378   67.0684   43.0438 H   0  0  0  0  0  0  0  0  0  0  0  0
   22.7951   67.9661   40.6809 O   0  0  0  0  0  0  0  0  0  0  0  0
   23.4901   69.1343   40.2606 C   0  0  0  0  0  0  0  0  0  0  0  0
   21.0778   71.5114   40.4634 C   0  0  0  0  0  0  0  0  0  0  0  0
   20.5540   70.2633   41.1481 C   0  0  0  0  0  0  0  0  0  0  0  0
   19.4657   70.6120   42.0072 O   0  0  0  0  0  0  0  0  0  0  0  0
   21.7612   69.8384   41.9514 C   0  0  0  0  0  0  0  0  0  0  0  0
   22.9686   70.2707   41.1261 C   0  0  0  0  0  0  0  0  0  0  0  0
   22.4926   71.3036   40.2673 O   0  0  0  0  0  0  0  0  0  0  0  0
   19.7512   71.3012   42.6272 H   0  0  0  0  0  0  0  0  0  0  0  0
   20.1690   69.7439   35.6832 N   0  0  0  0  0  0  0  0  0  0  0  0
   20.9026   69.1925   36.6673 C   0  0  0  0  0  0  0  0  0  0  0  0
   21.0444   69.7890   37.8615 N   0  0  0  0  0  0  0  0  0  0  0  0
   20.4500   70.9842   38.1049 C   0  0  0  0  0  0  0  0  0  0  0  0
   19.6962   71.5867   37.1069 C   0  0  0  0  0  0  0  0  0  0  0  0
   19.5587   70.9432   35.8658 C   0  0  0  0  0  0  0  0  0  0  0  0
   18.8260   71.4999   34.8545 N   0  0  0  0  0  0  0  0  0  0  0  0
   19.2205   72.7451   37.6183 N   0  0  0  0  0  0  0  0  0  0  0  0
   19.6738   72.8574   38.8877 C   0  0  0  0  0  0  0  0  0  0  0  0
   20.4221   71.7857   39.1703 N   0  0  0  0  0  0  0  0  0  0  0  0
   18.7423   71.0323   33.9922 H   0  0  0  0  0  0  0  0  0  0  0  0
   18.3821   72.3684   34.9886 H   0  0  0  0  0  0  0  0  0  0  0  0
   21.7217   70.6445   43.1177 O   0  0  0  0  0  0  0  0  0  0  0  0
   22.5222   70.2938   44.4703 P   0  0  0  0  0  0  0  0  0  0  0  0
   21.5318   70.5705   45.5834 O   0  0  0  0  0  0  0  0  0  0  0  0
   23.6952   71.2523   44.4506 O   0  0  0  0  0  0  0  0  0  0  0  0
   22.9099   68.8411   44.2653 O   0  0  0  0  0  0  0  0  0  0  0  0
   21.3538   71.5229   45.6285 H   0  0  0  0  0  0  0  0  0  0  0  0
   23.4055   68.5267   45.0376 H   0  0  0  0  0  0  0  0  0  0  0  0
 53 54  2  0  0  0
 53 58  1  0  0  0
 54 55  1  0  0  0
 59 58  1  0  0  0
 58 57  2  0  0  0
 55 56  2  0  0  0
 56 57  1  0  0  0
 56 62  1  0  0  0
 57 60  1  0  0  0
 62 46  1  0  0  0
 62 61  1  0  0  0
 60 61  2  0  0  0
 48 47  1  0  0  0
 68 66  2  0  0  0
 46 47  1  0  0  0
 46 51  1  0  0  0
 67 66  1  0  0  0
 24 23  1  0  0  0
 24 25  1  0  0  0
 47 49  1  0  0  0
 65 66  1  0  0  0
 65 49  1  0  0  0
 26 27  1  0  0  0
 26 25  1  0  0  0
 66 69  1  0  0  0
 51 50  1  0  0  0
 28 27  1  0  0  0
 23 19  1  0  0  0
 27 30  1  0  0  0
 19 20  1  0  0  0
 49 50  1  0  0  0
 50 45  1  0  0  0
 20 18  1  0  0  0
 20 21  2  0  0  0
 18 17  1  0  0  0
 30 31  1  0  0  0
 31 32  1  0  0  0
  8  7  1  0  0  0
 17 13  1  0  0  0
 32 33  1  0  0  0
 13 14  1  0  0  0
 45 44  1  0  0  0
 11 10  1  0  0  0
 44 41  1  0  0  0
 33 34  1  0  0  0
  6  7  1  0  0  0
  6  5  1  0  0  0
  7 10  1  0  0  0
  7  9  1  0  0  0
 14 10  1  0  0  0
 14 15  2  0  0  0
 34 35  1  0  0  0
 35 36  1  0  0  0
 42 41  2  0  0  0
 41 39  1  0  0  0
 41 40  1  0  0  0
 39  1  1  0  0  0
  5  1  1  0  0  0
 37 36  1  0  0  0
 37 38  1  0  0  0
  1  3  2  0  0  0
  1  2  1  0  0  0
 19 22  1  0  0  0
 13 16  1  0  0  0
 11 12  1  0  0  0
 40 43  1  0  0  0
 28 29  1  0  0  0
 48 52  1  0  0  0
  2  4  1  0  0  0
 59 63  1  0  0  0
 59 64  1  0  0  0
 67 70  1  0  0  0
 69 71  1  0  0  0
M  END
> <minimizedAffinity>
-7.90817

$$$$
4GAH_0ET_A_301


 71 73  0  0  0  0  0  0  0  0999 V2000
   22.5488   63.8278   40.7575 P   0  0  0  0  0  0  0  0  0  0  0  0
   21.1060   63.4693   41.0134 O   0  0  0  0  0  0  0  0  0  0  0  0
   23.6273   63.4560   41.7562 O   0  0  0  0  0  0  0  0  0  0  0  0
   20.5594   63.7823   40.2757 H   0  0  0  0  0  0  0  0  0  0  0  0
   22.8826   63.1130   39.3379 O   0  0  0  0  0  0  0  0  0  0  0  0
   23.6145   61.9013   39.1374 C   0  0  0  0  0  0  0  0  0  0  0  0
   22.7291   60.9252   38.3616 C   0  0  0  0  0  0  0  0  0  0  0  0
   21.7235   60.2705   39.3102 C   0  0  0  0  0  0  0  0  0  0  0  0
   22.0356   61.6592   37.2262 C   0  0  0  0  0  0  0  0  0  0  0  0
   23.5804   59.8206   37.7610 C   0  0  0  0  0  0  0  0  0  0  0  0
   22.7582   58.6513   37.7313 O   0  0  0  0  0  0  0  0  0  0  0  0
   21.9644   58.8275   37.2024 H   0  0  0  0  0  0  0  0  0  0  0  0
   25.0515   60.9744   36.2395 N   0  0  0  0  0  0  0  0  0  0  0  0
   24.0431   60.1997   36.3742 C   0  0  0  0  0  0  0  0  0  0  0  0
   23.3955   59.7366   35.3009 O   0  0  0  0  0  0  0  0  0  0  0  0
   25.4738   61.2775   37.0756 H   0  0  0  0  0  0  0  0  0  0  0  0
   25.6571   61.4671   35.0071 C   0  0  0  0  0  0  0  0  0  0  0  0
   26.8746   60.5695   34.7596 C   0  0  0  0  0  0  0  0  0  0  0  0
   25.4645   59.5134   33.0948 N   0  0  0  0  0  0  0  0  0  0  0  0
   26.6995   59.6933   33.5373 C   0  0  0  0  0  0  0  0  0  0  0  0
   27.6456   59.1760   32.9525 O   0  0  0  0  0  0  0  0  0  0  0  0
   24.7329   59.9506   33.5877 H   0  0  0  0  0  0  0  0  0  0  0  0
   25.1118   58.7102   31.9245 C   0  0  0  0  0  0  0  0  0  0  0  0
   24.1853   59.5829   31.0853 C   0  0  0  0  0  0  0  0  0  0  0  0
   24.5126   59.3490   29.3687 S   0  0  0  0  0  0  0  0  0  0  0  0
   26.0129   58.5482   29.8442 C   0  0  0  0  0  0  0  0  0  0  0  0
   27.3083   59.1676   29.2890 C   0  0  0  0  0  0  0  0  0  0  0  0
   28.4598   58.8959   30.0996 O   0  0  0  0  0  0  0  0  0  0  0  0
   28.3442   59.3030   30.9724 H   0  0  0  0  0  0  0  0  0  0  0  0
   27.1470   60.6701   29.1058 C   0  0  0  0  0  0  0  0  0  0  0  0
   27.6541   61.4212   30.3321 C   0  0  0  0  0  0  0  0  0  0  0  0
   26.4846   62.2299   30.8248 C   0  0  0  0  0  0  0  0  0  0  0  0
   26.0139   63.2783   30.1620 C   0  0  0  0  0  0  0  0  0  0  0  0
   24.6191   63.1405   29.5968 C   0  0  0  0  0  0  0  0  0  0  0  0
   24.3908   64.2828   28.6102 C   0  0  0  0  0  0  0  0  0  0  0  0
   25.1679   64.0750   27.3148 C   0  0  0  0  0  0  0  0  0  0  0  0
   24.9407   62.6616   26.7834 C   0  0  0  0  0  0  0  0  0  0  0  0
   25.9437   62.3092   25.7043 C   0  0  0  0  0  0  0  0  0  0  0  0
   22.6574   65.4186   40.4921 O   0  0  0  0  0  0  0  0  0  0  0  0
   22.5233   66.0621   42.9501 O   0  0  0  0  0  0  0  0  0  0  0  0
   23.0993   66.4794   41.6181 P   0  0  0  0  0  0  0  0  0  0  0  0
   24.5825   66.7585   41.4943 O   0  0  0  0  0  0  0  0  0  0  0  0
   22.7882   66.7000   43.6311 H   0  0  0  0  0  0  0  0  0  0  0  0
   22.3336   67.8039   41.1273 O   0  0  0  0  0  0  0  0  0  0  0  0
   23.0180   68.9359   40.6032 C   0  0  0  0  0  0  0  0  0  0  0  0
   20.9471   71.6125   40.8429 C   0  0  0  0  0  0  0  0  0  0  0  0
   20.2468   70.4288   41.4830 C   0  0  0  0  0  0  0  0  0  0  0  0
   19.2007   70.8986   42.3369 O   0  0  0  0  0  0  0  0  0  0  0  0
   21.3708   69.8218   42.2900 C   0  0  0  0  0  0  0  0  0  0  0  0
   22.6401   70.1084   41.4947 C   0  0  0  0  0  0  0  0  0  0  0  0
   22.3239   71.2197   40.6604 O   0  0  0  0  0  0  0  0  0  0  0  0
   19.5660   71.5252   42.9809 H   0  0  0  0  0  0  0  0  0  0  0  0
   20.0349   70.1767   35.9535 N   0  0  0  0  0  0  0  0  0  0  0  0
   20.6872   69.5134   36.9257 C   0  0  0  0  0  0  0  0  0  0  0  0
   20.8437   70.0338   38.1532 N   0  0  0  0  0  0  0  0  0  0  0  0
   20.3483   71.2631   38.4442 C   0  0  0  0  0  0  0  0  0  0  0  0
   19.6808   71.9796   37.4603 C   0  0  0  0  0  0  0  0  0  0  0  0
   19.5260   71.4145   36.1836 C   0  0  0  0  0  0  0  0  0  0  0  0
   18.8758   72.0843   35.1845 N   0  0  0  0  0  0  0  0  0  0  0  0
   19.2923   73.1482   38.0200 N   0  0  0  0  0  0  0  0  0  0  0  0
   19.7145   73.1555   39.3049 C   0  0  0  0  0  0  0  0  0  0  0  0
   20.3577   72.0088   39.5496 N   0  0  0  0  0  0  0  0  0  0  0  0
   18.7782   71.6702   34.2967 H   0  0  0  0  0  0  0  0  0  0  0  0
   18.5053   72.9808   35.3530 H   0  0  0  0  0  0  0  0  0  0  0  0
   21.4203   70.5934   43.4790 O   0  0  0  0  0  0  0  0  0  0  0  0
   22.4335   70.2932   44.6942 P   0  0  0  0  0  0  0  0  0  0  0  0
   22.8616   68.8542   44.4885 O   0  0  0  0  0  0  0  0  0  0  0  0
   21.5820   70.5016   45.9297 O   0  0  0  0  0  0  0  0  0  0  0  0
   23.5100   71.3455   44.5030 O   0  0  0  0  0  0  0  0  0  0  0  0
   22.1032   68.2673   44.6340 H   0  0  0  0  0  0  0  0  0  0  0  0
   24.1817   71.2504   45.1963 H   0  0  0  0  0  0  0  0  0  0  0  0
 53 54  2  0  0  0
 53 58  1  0  0  0
 54 55  1  0  0  0
 59 58  1  0  0  0
 58 57  2  0  0  0
 55 56  2  0  0  0
 56 57  1  0  0  0
 56 62  1  0  0  0
 57 60  1  0  0  0
 62 46  1  0  0  0
 62 61  1  0  0  0
 60 61  2  0  0  0
 48 47  1  0  0  0
 68 66  2  0  0  0
 46 47  1  0  0  0
 46 51  1  0  0  0
 67 66  1  0  0  0
 24 23  1  0  0  0
 24 25  1  0  0  0
 47 49  1  0  0  0
 65 66  1  0  0  0
 65 49  1  0  0  0
 26 27  1  0  0  0
 26 25  1  0  0  0
 66 69  1  0  0  0
 51 50  1  0  0  0
 28 27  1  0  0  0
 23 19  1  0  0  0
 27 30  1  0  0  0
 19 20  1  0  0  0
 49 50  1  0  0  0
 50 45  1  0  0  0
 20 18  1  0  0  0
 20 21  2  0  0  0
 18 17  1  0  0  0
 30 31  1  0  0  0
 31 32  1  0  0  0
  8  7  1  0  0  0
 17 13  1  0  0  0
 32 33  1  0  0  0
 13 14  1  0  0  0
 45 44  1  0  0  0
 11 10  1  0  0  0
 44 41  1  0  0  0
 33 34  1  0  0  0
  6  7  1  0  0  0
  6  5  1  0  0  0
  7 10  1  0  0  0
  7  9  1  0  0  0
 14 10  1  0  0  0
 14 15  2  0  0  0
 34 35  1  0  0  0
 35 36  1  0  0  0
 42 41  2  0  0  0
 41 39  1  0  0  0
 41 40  1  0  0  0
 39  1  1  0  0  0
  5  1  1  0  0  0
 37 36  1  0  0  0
 37 38  1  0  0  0
  1  3  2  0  0  0
  1  2  1  0  0  0
 19 22  1  0  0  0
 13 16  1  0  0  0
 11 12  1  0  0  0
 40 43  1  0  0  0
 28 29  1  0  0  0
 48 52  1  0  0  0
  2  4  1  0  0  0
 59 63  1  0  0  0
 59 64  1  0  0  0
 67 70  1  0  0  0
 69 71  1  0  0  0
M  END
> <minimizedAffinity>
-7.82806

$$$$
4GAH_0ET_A_301


 71 73  0  0  0  0  0  0  0  0999 V2000
   22.5229   63.9279   40.6824 P   0  0  0  0  0  0  0  0  0  0  0  0
   21.0836   63.5930   40.9854 O   0  0  0  0  0  0  0  0  0  0  0  0
   23.6108   63.6625   41.7047 O   0  0  0  0  0  0  0  0  0  0  0  0
   20.5299   63.8278   40.2244 H   0  0  0  0  0  0  0  0  0  0  0  0
   22.8481   63.0737   39.3399 O   0  0  0  0  0  0  0  0  0  0  0  0
   23.5185   61.8131   39.2653 C   0  0  0  0  0  0  0  0  0  0  0  0
   22.6765   60.8686   38.4063 C   0  0  0  0  0  0  0  0  0  0  0  0
   21.6479   60.1500   39.2809 C   0  0  0  0  0  0  0  0  0  0  0  0
   22.0128   61.6537   37.2874 C   0  0  0  0  0  0  0  0  0  0  0  0
   23.5657   59.8098   37.7787 C   0  0  0  0  0  0  0  0  0  0  0  0
   22.7679   58.6284   37.6703 O   0  0  0  0  0  0  0  0  0  0  0  0
   21.9857   58.8151   37.1279 H   0  0  0  0  0  0  0  0  0  0  0  0
   25.0167   61.1078   36.3574 N   0  0  0  0  0  0  0  0  0  0  0  0
   24.0590   60.2632   36.4252 C   0  0  0  0  0  0  0  0  0  0  0  0
   23.4903   59.7920   35.3114 O   0  0  0  0  0  0  0  0  0  0  0  0
   25.3818   61.4118   37.2197 H   0  0  0  0  0  0  0  0  0  0  0  0
   25.6382   61.6792   35.1676 C   0  0  0  0  0  0  0  0  0  0  0  0
   26.8931   60.8365   34.9141 C   0  0  0  0  0  0  0  0  0  0  0  0
   27.1439   59.4134   32.9680 N   0  0  0  0  0  0  0  0  0  0  0  0
   27.1683   60.6516   33.4367 C   0  0  0  0  0  0  0  0  0  0  0  0
   27.3884   61.5927   32.6813 O   0  0  0  0  0  0  0  0  0  0  0  0
   26.9573   58.6861   33.6048 H   0  0  0  0  0  0  0  0  0  0  0  0
   27.3751   59.0514   31.5699 C   0  0  0  0  0  0  0  0  0  0  0  0
   26.0778   58.4134   31.0859 C   0  0  0  0  0  0  0  0  0  0  0  0
   25.8095   58.7875   29.3839 S   0  0  0  0  0  0  0  0  0  0  0  0
   26.9215   60.1441   29.5878 C   0  0  0  0  0  0  0  0  0  0  0  0
   26.3632   61.5300   29.2173 C   0  0  0  0  0  0  0  0  0  0  0  0
   27.0519   62.6101   29.8623 O   0  0  0  0  0  0  0  0  0  0  0  0
   26.9317   62.5427   30.8224 H   0  0  0  0  0  0  0  0  0  0  0  0
   24.8746   61.6071   29.5265 C   0  0  0  0  0  0  0  0  0  0  0  0
   24.6375   62.2720   30.8781 C   0  0  0  0  0  0  0  0  0  0  0  0
   23.8522   61.2761   31.6879 C   0  0  0  0  0  0  0  0  0  0  0  0
   22.6305   60.8864   31.3474 C   0  0  0  0  0  0  0  0  0  0  0  0
   22.4237   59.3979   31.1884 C   0  0  0  0  0  0  0  0  0  0  0  0
   21.0199   59.1694   30.6339 C   0  0  0  0  0  0  0  0  0  0  0  0
   20.9331   59.5201   29.1525 C   0  0  0  0  0  0  0  0  0  0  0  0
   21.9910   58.7508   28.3646 C   0  0  0  0  0  0  0  0  0  0  0  0
   22.6445   59.6269   27.3159 C   0  0  0  0  0  0  0  0  0  0  0  0
   22.6235   65.4838   40.2560 O   0  0  0  0  0  0  0  0  0  0  0  0
   23.3549   66.3154   42.5468 O   0  0  0  0  0  0  0  0  0  0  0  0
   23.4885   66.5729   41.0649 P   0  0  0  0  0  0  0  0  0  0  0  0
   24.8641   66.6881   40.4425 O   0  0  0  0  0  0  0  0  0  0  0  0
   23.8756   66.9707   43.0370 H   0  0  0  0  0  0  0  0  0  0  0  0
   22.7031   67.9297   40.7132 O   0  0  0  0  0  0  0  0  0  0  0  0
   23.3654   69.1026   40.2547 C   0  0  0  0  0  0  0  0  0  0  0  0
   21.0427   71.5600   40.5318 C   0  0  0  0  0  0  0  0  0  0  0  0
   20.4769   70.3146   41.1875 C   0  0  0  0  0  0  0  0  0  0  0  0
   19.4063   70.6806   42.0615 O   0  0  0  0  0  0  0  0  0  0  0  0
   21.6716   69.8256   41.9727 C   0  0  0  0  0  0  0  0  0  0  0  0
   22.8900   70.2346   41.1518 C   0  0  0  0  0  0  0  0  0  0  0  0
   22.4480   71.3059   40.3223 O   0  0  0  0  0  0  0  0  0  0  0  0
   19.7198   71.3428   42.6971 H   0  0  0  0  0  0  0  0  0  0  0  0
   20.0750   69.9645   35.7030 N   0  0  0  0  0  0  0  0  0  0  0  0
   20.7960   69.3639   36.6673 C   0  0  0  0  0  0  0  0  0  0  0  0
   20.9567   69.9196   37.8786 N   0  0  0  0  0  0  0  0  0  0  0  0
   20.3950   71.1222   38.1605 C   0  0  0  0  0  0  0  0  0  0  0  0
   19.6551   71.7746   37.1839 C   0  0  0  0  0  0  0  0  0  0  0  0
   19.4973   71.1734   35.9242 C   0  0  0  0  0  0  0  0  0  0  0  0
   18.7771   71.7801   34.9328 N   0  0  0  0  0  0  0  0  0  0  0  0
   19.2117   72.9292   37.7320 N   0  0  0  0  0  0  0  0  0  0  0  0
   19.6711   72.9904   39.0027 C   0  0  0  0  0  0  0  0  0  0  0  0
   20.3913   71.8910   39.2499 N   0  0  0  0  0  0  0  0  0  0  0  0
   18.6787   71.3414   34.0569 H   0  0  0  0  0  0  0  0  0  0  0  0
   18.3569   72.6555   35.0949 H   0  0  0  0  0  0  0  0  0  0  0  0
   21.6673   70.6024   43.1594 O   0  0  0  0  0  0  0  0  0  0  0  0
   22.5344   70.2371   44.4663 P   0  0  0  0  0  0  0  0  0  0  0  0
   21.5979   70.4919   45.6302 O   0  0  0  0  0  0  0  0  0  0  0  0
   23.7001   71.2026   44.4036 O   0  0  0  0  0  0  0  0  0  0  0  0
   22.9192   68.7898   44.2216 O   0  0  0  0  0  0  0  0  0  0  0  0
   21.4174   71.4426   45.6977 H   0  0  0  0  0  0  0  0  0  0  0  0
   23.4534   68.4672   44.9642 H   0  0  0  0  0  0  0  0  0  0  0  0
 53 54  2  0  0  0
 53 58  1  0  0  0
 54 55  1  0  0  0
 59 58  1  0  0  0
 58 57  2  0  0  0
 55 56  2  0  0  0
 56 57  1  0  0  0
 56 62  1  0  0  0
 57 60  1  0  0  0
 62 46  1  0  0  0
 62 61  1  0  0  0
 60 61  2  0  0  0
 48 47  1  0  0  0
 68 66  2  0  0  0
 46 47  1  0  0  0
 46 51  1  0  0  0
 67 66  1  0  0  0
 24 23  1  0  0  0
 24 25  1  0  0  0
 47 49  1  0  0  0
 65 66  1  0  0  0
 65 49  1  0  0  0
 26 27  1  0  0  0
 26 25  1  0  0  0
 66 69  1  0  0  0
 51 50  1  0  0  0
 28 27  1  0  0  0
 23 19  1  0  0  0
 27 30  1  0  0  0
 19 20  1  0  0  0
 49 50  1  0  0  0
 50 45  1  0  0  0
 20 18  1  0  0  0
 20 21  2  0  0  0
 18 17  1  0  0  0
 30 31  1  0  0  0
 31 32  1  0  0  0
  8  7  1  0  0  0
 17 13  1  0  0  0
 32 33  1  0  0  0
 13 14  1  0  0  0
 45 44  1  0  0  0
 11 10  1  0  0  0
 44 41  1  0  0  0
 33 34  1  0  0  0
  6  7  1  0  0  0
  6  5  1  0  0  0
  7 10  1  0  0  0
  7  9  1  0  0  0
 14 10  1  0  0  0
 14 15  2  0  0  0
 34 35  1  0  0  0
 35 36  1  0  0  0
 42 41  2  0  0  0
 41 39  1  0  0  0
 41 40  1  0  0  0
 39  1  1  0  0  0
  5  1  1  0  0  0
 37 36  1  0  0  0
 37 38  1  0  0  0
  1  3  2  0  0  0
  1  2  1  0  0  0
 19 22  1  0  0  0
 13 16  1  0  0  0
 11 12  1  0  0  0
 40 43  1  0  0  0
 28 29  1  0  0  0
 48 52  1  0  0  0
  2  4  1  0  0  0
 59 63  1  0  0  0
 59 64  1  0  0  0
 67 70  1  0  0  0
 69 71  1  0  0  0
M  END
> <minimizedAffinity>
-7.75021

$$$$
4GAH_0ET_A_301


 71 73  0  0  0  0  0  0  0  0999 V2000
   24.2423   58.6449   30.4731 P   0  0  0  0  0  0  0  0  0  0  0  0
   25.0703   59.1792   31.6153 O   0  0  0  0  0  0  0  0  0  0  0  0
   23.1894   57.5804   30.7124 O   0  0  0  0  0  0  0  0  0  0  0  0
   25.6883   59.8481   31.2814 H   0  0  0  0  0  0  0  0  0  0  0  0
   23.5204   59.9657   29.8631 O   0  0  0  0  0  0  0  0  0  0  0  0
   23.6854   61.3157   30.3041 C   0  0  0  0  0  0  0  0  0  0  0  0
   24.5631   62.0509   29.2903 C   0  0  0  0  0  0  0  0  0  0  0  0
   24.3873   61.4286   27.9041 C   0  0  0  0  0  0  0  0  0  0  0  0
   24.2129   63.5294   29.2914 C   0  0  0  0  0  0  0  0  0  0  0  0
   26.0253   61.9104   29.6747 C   0  0  0  0  0  0  0  0  0  0  0  0
   26.7807   62.4234   28.5746 O   0  0  0  0  0  0  0  0  0  0  0  0
   26.5333   63.3477   28.4155 H   0  0  0  0  0  0  0  0  0  0  0  0
   25.9938   62.1670   32.0713 N   0  0  0  0  0  0  0  0  0  0  0  0
   26.3178   62.6755   30.9436 C   0  0  0  0  0  0  0  0  0  0  0  0
   26.9000   63.8769   30.8836 O   0  0  0  0  0  0  0  0  0  0  0  0
   25.5658   61.2812   32.0348 H   0  0  0  0  0  0  0  0  0  0  0  0
   26.1765   62.7298   33.4047 C   0  0  0  0  0  0  0  0  0  0  0  0
   26.3818   61.5282   34.3338 C   0  0  0  0  0  0  0  0  0  0  0  0
   24.8669   60.4881   35.9145 N   0  0  0  0  0  0  0  0  0  0  0  0
   25.0804   60.8224   34.6511 C   0  0  0  0  0  0  0  0  0  0  0  0
   24.2354   60.5759   33.7968 O   0  0  0  0  0  0  0  0  0  0  0  0
   25.5662   60.7089   36.5713 H   0  0  0  0  0  0  0  0  0  0  0  0
   23.6641   59.8135   36.4017 C   0  0  0  0  0  0  0  0  0  0  0  0
   22.7749   60.9116   36.9745 C   0  0  0  0  0  0  0  0  0  0  0  0
   22.3875   60.5686   38.6600 S   0  0  0  0  0  0  0  0  0  0  0  0
   21.7154   62.1987   38.7554 C   0  0  0  0  0  0  0  0  0  0  0  0
   22.6695   63.2877   39.2784 C   0  0  0  0  0  0  0  0  0  0  0  0
   24.0033   62.8121   39.5052 O   0  0  0  0  0  0  0  0  0  0  0  0
   23.9918   62.1369   40.2015 H   0  0  0  0  0  0  0  0  0  0  0  0
   22.1194   63.9138   40.5523 C   0  0  0  0  0  0  0  0  0  0  0  0
   23.1057   64.9251   41.1264 C   0  0  0  0  0  0  0  0  0  0  0  0
   22.2633   65.9886   41.7775 C   0  0  0  0  0  0  0  0  0  0  0  0
   22.7866   66.9601   42.5141 C   0  0  0  0  0  0  0  0  0  0  0  0
   24.2225   67.3253   42.2161 C   0  0  0  0  0  0  0  0  0  0  0  0
   24.6142   68.4909   43.1207 C   0  0  0  0  0  0  0  0  0  0  0  0
   24.9878   69.7307   42.3156 C   0  0  0  0  0  0  0  0  0  0  0  0
   25.2539   69.3549   40.8596 C   0  0  0  0  0  0  0  0  0  0  0  0
   25.0134   70.5289   39.9332 C   0  0  0  0  0  0  0  0  0  0  0  0
   25.2304   58.1018   29.3148 O   0  0  0  0  0  0  0  0  0  0  0  0
   26.5569   56.5627   30.8463 O   0  0  0  0  0  0  0  0  0  0  0  0
   26.6597   57.4251   29.6110 P   0  0  0  0  0  0  0  0  0  0  0  0
   27.2167   56.8408   28.3299 O   0  0  0  0  0  0  0  0  0  0  0  0
   27.4174   56.1533   31.0273 H   0  0  0  0  0  0  0  0  0  0  0  0
   27.5551   58.7116   29.9642 O   0  0  0  0  0  0  0  0  0  0  0  0
   28.5197   59.2452   29.0645 C   0  0  0  0  0  0  0  0  0  0  0  0
   29.9772   59.8109   32.0755 C   0  0  0  0  0  0  0  0  0  0  0  0
   31.0112   59.1578   31.1781 C   0  0  0  0  0  0  0  0  0  0  0  0
   32.3185   59.3956   31.7056 O   0  0  0  0  0  0  0  0  0  0  0  0
   30.8035   59.9160   29.8878 C   0  0  0  0  0  0  0  0  0  0  0  0
   29.3195   60.2659   29.8588 C   0  0  0  0  0  0  0  0  0  0  0  0
   28.8889   60.2117   31.2163 O   0  0  0  0  0  0  0  0  0  0  0  0
   32.4530   60.3496   31.8184 H   0  0  0  0  0  0  0  0  0  0  0  0
   31.2326   57.1149   36.3129 N   0  0  0  0  0  0  0  0  0  0  0  0
   32.0223   57.8511   35.5099 C   0  0  0  0  0  0  0  0  0  0  0  0
   31.5358   58.4910   34.4348 N   0  0  0  0  0  0  0  0  0  0  0  0
   30.2184   58.4018   34.1226 C   0  0  0  0  0  0  0  0  0  0  0  0
   29.3781   57.6402   34.9232 C   0  0  0  0  0  0  0  0  0  0  0  0
   29.9079   56.9815   36.0451 C   0  0  0  0  0  0  0  0  0  0  0  0
   29.1174   56.2207   36.8611 N   0  0  0  0  0  0  0  0  0  0  0  0
   28.1374   57.7343   34.3926 N   0  0  0  0  0  0  0  0  0  0  0  0
   28.2122   58.5215   33.2952 C   0  0  0  0  0  0  0  0  0  0  0  0
   29.4801   58.9168   33.1388 N   0  0  0  0  0  0  0  0  0  0  0  0
   29.5088   55.7674   37.6424 H   0  0  0  0  0  0  0  0  0  0  0  0
   28.1567   56.1264   36.6673 H   0  0  0  0  0  0  0  0  0  0  0  0
   31.5305   61.1222   30.0558 O   0  0  0  0  0  0  0  0  0  0  0  0
   32.7786   61.5462   29.1307 P   0  0  0  0  0  0  0  0  0  0  0  0
   33.0201   63.0056   29.4597 O   0  0  0  0  0  0  0  0  0  0  0  0
   32.2727   61.3183   27.7210 O   0  0  0  0  0  0  0  0  0  0  0  0
   33.8622   60.5750   29.5611 O   0  0  0  0  0  0  0  0  0  0  0  0
   32.2724   63.5364   29.1434 H   0  0  0  0  0  0  0  0  0  0  0  0
   34.6713   60.7483   29.0549 H   0  0  0  0  0  0  0  0  0  0  0  0
 53 54  2  0  0  0
 53 58  1  0  0  0
 54 55  1  0  0  0
 59 58  1  0  0  0
 58 57  2  0  0  0
 55 56  2  0  0  0
 56 57  1  0  0  0
 56 62  1  0  0  0
 57 60  1  0  0  0
 62 46  1  0  0  0
 62 61  1  0  0  0
 60 61  2  0  0  0
 48 47  1  0  0  0
 68 66  2  0  0  0
 46 47  1  0  0  0
 46 51  1  0  0  0
 67 66  1  0  0  0
 24 23  1  0  0  0
 24 25  1  0  0  0
 47 49  1  0  0  0
 65 66  1  0  0  0
 65 49  1  0  0  0
 26 27  1  0  0  0
 26 25  1  0  0  0
 66 69  1  0  0  0
 51 50  1  0  0  0
 28 27  1  0  0  0
 23 19  1  0  0  0
 27 30  1  0  0  0
 19 20  1  0  0  0
 49 50  1  0  0  0
 50 45  1  0  0  0
 20 18  1  0  0  0
 20 21  2  0  0  0
 18 17  1  0  0  0
 30 31  1  0  0  0
 31 32  1  0  0  0
  8  7  1  0  0  0
 17 13  1  0  0  0
 32 33  1  0  0  0
 13 14  1  0  0  0
 45 44  1  0  0  0
 11 10  1  0  0  0
 44 41  1  0  0  0
 33 34  1  0  0  0
  6  7  1  0  0  0
  6  5  1  0  0  0
  7 10  1  0  0  0
  7  9  1  0  0  0
 14 10  1  0  0  0
 14 15  2  0  0  0
 34 35  1  0  0  0
 35 36  1  0  0  0
 42 41  2  0  0  0
 41 39  1  0  0  0
 41 40  1  0  0  0
 39  1  1  0  0  0
  5  1  1  0  0  0
 37 36  1  0  0  0
 37 38  1  0  0  0
  1  3  2  0  0  0
  1  2  1  0  0  0
 19 22  1  0  0  0
 13 16  1  0  0  0
 11 12  1  0  0  0
 40 43  1  0  0  0
 28 29  1  0  0  0
 48 52  1  0  0  0
  2  4  1  0  0  0
 59 63  1  0  0  0
 59 64  1  0  0  0
 67 70  1  0  0  0
 69 71  1  0  0  0
M  END
> <minimizedAffinity>
-7.72610

$$$$
