5UOV_8FP_A_201


 51 55  0  0  0  0  0  0  0  0999 V2000
   14.9397   22.6363   16.8652 C   0  0  0  0  0  0  0  0  0  0  0  0
   14.1924   21.6053   17.6183 N   0  0  0  0  0  0  0  0  0  0  0  0
   14.7785   20.4757   18.0505 C   0  0  0  0  0  0  0  0  0  0  0  0
   15.9096   20.1348   18.0047 O   0  0  0  0  0  0  0  0  0  0  0  0
   13.2375   21.7509   17.8084 H   0  0  0  0  0  0  0  0  0  0  0  0
   13.8274   19.4801   18.7441 C   0  0  0  0  0  0  0  0  0  0  0  0
   14.1121   18.9564   19.9996 C   0  0  0  0  0  0  0  0  0  0  0  0
   13.2190   18.0751   20.6176 C   0  0  0  0  0  0  0  0  0  0  0  0
   12.0459   17.6872   19.9878 C   0  0  0  0  0  0  0  0  0  0  0  0
   11.8058   18.1882   18.7052 C   0  0  0  0  0  0  0  0  0  0  0  0
   12.6508   19.1302   18.0989 C   0  0  0  0  0  0  0  0  0  0  0  0
   10.4888   17.9211   17.9790 C   0  0  0  0  0  0  0  0  0  0  0  0
    9.6303   18.7969   18.0115 O   0  0  0  0  0  0  0  0  0  0  0  0
   10.3741   16.9322   17.1263 N   0  0  0  0  0  0  0  0  0  0  0  0
   11.1171   15.6913   17.1891 C   0  0  0  0  0  0  0  0  0  0  0  0
   10.3769   14.7181   16.2881 C   0  0  0  0  0  0  0  0  0  0  0  0
    8.9752   15.2727   16.1604 C   0  0  0  0  0  0  0  0  0  0  0  0
    9.1125   16.7738   16.3869 C   0  0  0  0  0  0  0  0  0  0  0  0
    9.1869   17.5469   15.1035 C   0  0  0  0  0  0  0  0  0  0  0  0
    8.6929   18.7055   14.7694 N   0  0  0  0  0  0  0  0  0  0  0  0
    8.8598   19.1191   13.5188 C   0  0  0  0  0  0  0  0  0  0  0  0
    9.6069   18.3667   12.7195 C   0  0  0  0  0  0  0  0  0  0  0  0
    9.9616   16.9407   13.6694 S   0  0  0  0  0  0  0  0  0  0  0  0
    8.4745   20.5558   13.1211 C   0  0  0  0  0  0  0  0  0  0  0  0
   15.4328   23.7477   17.8160 C   0  0  0  0  0  0  0  0  0  0  0  0
   14.3076   24.4833   18.3734 O   0  0  0  0  0  0  0  0  0  0  0  0
   13.8176   24.9164   17.6570 H   0  0  0  0  0  0  0  0  0  0  0  0
   16.3266   24.7849   17.0776 C   0  0  0  0  0  0  0  0  0  0  0  0
   17.7247   24.3677   17.1529 N   0  0  0  0  0  0  0  0  0  0  0  0
   18.4124   23.8936   15.7133 S   0  0  0  0  0  0  0  0  0  0  0  0
   17.3356   23.7120   14.7051 O   0  0  0  0  0  0  0  0  0  0  0  0
   19.2877   22.7511   15.9735 O   0  0  0  0  0  0  0  0  0  0  0  0
   20.9855   27.4416   14.4559 C   0  0  0  0  0  0  0  0  0  0  0  0
   21.6185   26.2449   14.7692 C   0  0  0  0  0  0  0  0  0  0  0  0
   20.7954   25.1454   15.1015 C   0  0  0  0  0  0  0  0  0  0  0  0
   19.4164   25.2618   15.2095 C   0  0  0  0  0  0  0  0  0  0  0  0
   18.8041   26.4489   14.8384 C   0  0  0  0  0  0  0  0  0  0  0  0
   19.6106   27.5060   14.4557 C   0  0  0  0  0  0  0  0  0  0  0  0
   21.6521   28.5901   14.1465 O   0  0  0  0  0  0  0  0  0  0  0  0
   22.4896   29.0251   15.1975 C   0  0  0  0  0  0  0  0  0  0  0  0
   18.6265   24.8966   18.1285 C   0  0  0  0  0  0  0  0  0  0  0  0
   19.1413   23.9005   19.2172 C   0  0  0  0  0  0  0  0  0  0  0  0
   20.6524   24.0098   19.3458 C   0  0  0  0  0  0  0  0  0  0  0  0
   18.4864   24.3169   20.5507 C   0  0  0  0  0  0  0  0  0  0  0  0
   13.9996   23.1511   15.7538 C   0  0  0  0  0  0  0  0  0  0  0  0
   12.4229   21.6175   14.5404 C   0  0  0  0  0  0  0  0  0  0  0  0
   12.1754   20.5313   13.6719 C   0  0  0  0  0  0  0  0  0  0  0  0
   13.2394   19.8865   13.0202 C   0  0  0  0  0  0  0  0  0  0  0  0
   14.5525   20.3821   13.1586 C   0  0  0  0  0  0  0  0  0  0  0  0
   14.7985   21.4454   14.0469 C   0  0  0  0  0  0  0  0  0  0  0  0
   13.7369   22.0314   14.7307 C   0  0  0  0  0  0  0  0  0  0  0  0
 24 21  1  0  0  0
 48 49  2  0  0  0
 48 47  1  0  0  0
 49 50  1  0  0  0
 21 20  1  0  0  0
 21 22  2  0  0  0
 20 19  2  0  0  0
 47 46  2  0  0  0
 50 51  2  0  0  0
 16 17  1  0  0  0
 16 15  1  0  0  0
 17 18  1  0  0  0
 38 37  2  0  0  0
 38 33  1  0  0  0
 39 33  1  0  0  0
 39 40  1  0  0  0
 46 51  1  0  0  0
 22 23  1  0  0  0
 51 45  1  0  0  0
 37 36  1  0  0  0
 31 30  2  0  0  0
 33 34  2  0  0  0
 19 18  1  0  0  0
 19 23  1  0  0  0
 34 35  1  0  0  0
 36 35  2  0  0  0
 36 30  1  0  0  0
 18 14  1  0  0  0
 15 14  1  0  0  0
 45  1  1  0  0  0
 30 32  2  0  0  0
 30 29  1  0  0  0
 14 12  1  0  0  0
  1  2  1  0  0  0
  1 25  1  0  0  0
 28 29  1  0  0  0
 28 25  1  0  0  0
 29 41  1  0  0  0
 12 13  2  0  0  0
 12 10  1  0  0  0
  2  3  1  0  0  0
 11 10  2  0  0  0
 11  6  1  0  0  0
 25 26  1  0  0  0
  3  4  2  0  0  0
  3  6  1  0  0  0
 10  9  1  0  0  0
 41 42  1  0  0  0
  6  7  2  0  0  0
  9  8  2  0  0  0
 43 42  1  0  0  0
 42 44  1  0  0  0
  7  8  1  0  0  0
 26 27  1  0  0  0
  2  5  1  0  0  0
M  END
> <minimizedAffinity>
-10.71302

$$$$
5UOV_8FP_A_201


 51 55  0  0  0  0  0  0  0  0999 V2000
   15.9884   22.3255   17.6174 C   0  0  0  0  0  0  0  0  0  0  0  0
   14.9646   21.4717   18.2588 N   0  0  0  0  0  0  0  0  0  0  0  0
   15.0451   20.1303   18.2420 C   0  0  0  0  0  0  0  0  0  0  0  0
   15.8971   19.4200   17.8329 O   0  0  0  0  0  0  0  0  0  0  0  0
   14.2017   21.8988   18.7114 H   0  0  0  0  0  0  0  0  0  0  0  0
   13.8479   19.4040   18.8872 C   0  0  0  0  0  0  0  0  0  0  0  0
   13.8402   19.0716   20.2367 C   0  0  0  0  0  0  0  0  0  0  0  0
   12.7300   18.4363   20.8025 C   0  0  0  0  0  0  0  0  0  0  0  0
   11.6260   18.1045   20.0315 C   0  0  0  0  0  0  0  0  0  0  0  0
   11.6777   18.4043   18.6673 C   0  0  0  0  0  0  0  0  0  0  0  0
   12.7490   19.1072   18.0952 C   0  0  0  0  0  0  0  0  0  0  0  0
   10.4684   18.1929   17.7585 C   0  0  0  0  0  0  0  0  0  0  0  0
    9.8131   19.1800   17.4402 O   0  0  0  0  0  0  0  0  0  0  0  0
   10.2929   17.0636   17.1164 N   0  0  0  0  0  0  0  0  0  0  0  0
   10.7468   15.7680   17.5760 C   0  0  0  0  0  0  0  0  0  0  0  0
    9.9782   14.7446   16.7581 C   0  0  0  0  0  0  0  0  0  0  0  0
    8.7586   15.4751   16.2408 C   0  0  0  0  0  0  0  0  0  0  0  0
    9.1613   16.9443   16.1844 C   0  0  0  0  0  0  0  0  0  0  0  0
    9.5976   17.3709   14.8141 C   0  0  0  0  0  0  0  0  0  0  0  0
   10.7070   17.9117   14.3960 N   0  0  0  0  0  0  0  0  0  0  0  0
   10.7916   18.2550   13.1162 C   0  0  0  0  0  0  0  0  0  0  0  0
    9.7742   17.9312   12.3266 C   0  0  0  0  0  0  0  0  0  0  0  0
    8.5702   17.2759   13.4141 S   0  0  0  0  0  0  0  0  0  0  0  0
   12.1379   18.7117   12.5250 C   0  0  0  0  0  0  0  0  0  0  0  0
   16.9712   22.8751   18.6731 C   0  0  0  0  0  0  0  0  0  0  0  0
   16.5443   22.5048   20.0142 O   0  0  0  0  0  0  0  0  0  0  0  0
   15.6773   22.8992   20.1979 H   0  0  0  0  0  0  0  0  0  0  0  0
   17.0471   24.4284   18.6380 C   0  0  0  0  0  0  0  0  0  0  0  0
   18.4434   24.8519   18.7116 N   0  0  0  0  0  0  0  0  0  0  0  0
   19.3445   24.1516   19.9232 S   0  0  0  0  0  0  0  0  0  0  0  0
   19.7552   22.7909   19.4890 O   0  0  0  0  0  0  0  0  0  0  0  0
   18.5973   24.2595   21.1759 O   0  0  0  0  0  0  0  0  0  0  0  0
   23.0918   26.7333   20.2102 C   0  0  0  0  0  0  0  0  0  0  0  0
   21.8967   27.2475   20.6982 C   0  0  0  0  0  0  0  0  0  0  0  0
   20.7624   26.4063   20.6484 C   0  0  0  0  0  0  0  0  0  0  0  0
   20.7986   25.1528   20.0534 C   0  0  0  0  0  0  0  0  0  0  0  0
   22.0130   24.6397   19.6245 C   0  0  0  0  0  0  0  0  0  0  0  0
   23.1338   25.4441   19.7298 C   0  0  0  0  0  0  0  0  0  0  0  0
   24.2568   27.4407   20.1675 O   0  0  0  0  0  0  0  0  0  0  0  0
   25.3716   26.6638   20.5533 C   0  0  0  0  0  0  0  0  0  0  0  0
   19.1743   25.2724   17.5567 C   0  0  0  0  0  0  0  0  0  0  0  0
   18.5541   24.9131   16.1679 C   0  0  0  0  0  0  0  0  0  0  0  0
   18.9064   25.9867   15.1504 C   0  0  0  0  0  0  0  0  0  0  0  0
   19.1813   23.5731   15.7305 C   0  0  0  0  0  0  0  0  0  0  0  0
   15.2339   23.4303   16.8466 C   0  0  0  0  0  0  0  0  0  0  0  0
   13.5506   23.1432   15.0042 C   0  0  0  0  0  0  0  0  0  0  0  0
   13.1584   22.6049   13.7584 C   0  0  0  0  0  0  0  0  0  0  0  0
   14.0676   21.8610   12.9885 C   0  0  0  0  0  0  0  0  0  0  0  0
   15.4054   21.7278   13.4144 C   0  0  0  0  0  0  0  0  0  0  0  0
   15.7842   22.2402   14.6689 C   0  0  0  0  0  0  0  0  0  0  0  0
   14.8509   22.9219   15.4450 C   0  0  0  0  0  0  0  0  0  0  0  0
 24 21  1  0  0  0
 48 49  2  0  0  0
 48 47  1  0  0  0
 49 50  1  0  0  0
 21 20  1  0  0  0
 21 22  2  0  0  0
 20 19  2  0  0  0
 47 46  2  0  0  0
 50 51  2  0  0  0
 16 17  1  0  0  0
 16 15  1  0  0  0
 17 18  1  0  0  0
 38 37  2  0  0  0
 38 33  1  0  0  0
 39 33  1  0  0  0
 39 40  1  0  0  0
 46 51  1  0  0  0
 22 23  1  0  0  0
 51 45  1  0  0  0
 37 36  1  0  0  0
 31 30  2  0  0  0
 33 34  2  0  0  0
 19 18  1  0  0  0
 19 23  1  0  0  0
 34 35  1  0  0  0
 36 35  2  0  0  0
 36 30  1  0  0  0
 18 14  1  0  0  0
 15 14  1  0  0  0
 45  1  1  0  0  0
 30 32  2  0  0  0
 30 29  1  0  0  0
 14 12  1  0  0  0
  1  2  1  0  0  0
  1 25  1  0  0  0
 28 29  1  0  0  0
 28 25  1  0  0  0
 29 41  1  0  0  0
 12 13  2  0  0  0
 12 10  1  0  0  0
  2  3  1  0  0  0
 11 10  2  0  0  0
 11  6  1  0  0  0
 25 26  1  0  0  0
  3  4  2  0  0  0
  3  6  1  0  0  0
 10  9  1  0  0  0
 41 42  1  0  0  0
  6  7  2  0  0  0
  9  8  2  0  0  0
 43 42  1  0  0  0
 42 44  1  0  0  0
  7  8  1  0  0  0
 26 27  1  0  0  0
  2  5  1  0  0  0
M  END
> <minimizedAffinity>
-10.12406

$$$$
5UOV_8FP_A_201


 51 55  0  0  0  0  0  0  0  0999 V2000
   18.3019   24.3425   15.5373 C   0  0  0  0  0  0  0  0  0  0  0  0
   17.3380   23.3258   15.0618 N   0  0  0  0  0  0  0  0  0  0  0  0
   16.0419   23.3541   15.4160 C   0  0  0  0  0  0  0  0  0  0  0  0
   15.4375   24.1533   16.0435 O   0  0  0  0  0  0  0  0  0  0  0  0
   17.6554   22.6074   14.4683 H   0  0  0  0  0  0  0  0  0  0  0  0
   15.2045   22.1696   14.8937 C   0  0  0  0  0  0  0  0  0  0  0  0
   15.3751   21.6690   13.6085 C   0  0  0  0  0  0  0  0  0  0  0  0
   14.6205   20.5765   13.1689 C   0  0  0  0  0  0  0  0  0  0  0  0
   13.6739   19.9838   13.9912 C   0  0  0  0  0  0  0  0  0  0  0  0
   13.4856   20.5363   15.2612 C   0  0  0  0  0  0  0  0  0  0  0  0
   14.2829   21.5833   15.7480 C   0  0  0  0  0  0  0  0  0  0  0  0
   12.5589   19.8833   16.2849 C   0  0  0  0  0  0  0  0  0  0  0  0
   11.3856   20.2413   16.3038 O   0  0  0  0  0  0  0  0  0  0  0  0
   12.9155   18.7964   16.9251 N   0  0  0  0  0  0  0  0  0  0  0  0
   14.2787   18.4350   17.2520 C   0  0  0  0  0  0  0  0  0  0  0  0
   14.1784   17.3618   18.3222 C   0  0  0  0  0  0  0  0  0  0  0  0
   12.8013   17.5229   18.9273 C   0  0  0  0  0  0  0  0  0  0  0  0
   11.9507   18.1573   17.8328 C   0  0  0  0  0  0  0  0  0  0  0  0
   11.1435   17.1480   17.0713 C   0  0  0  0  0  0  0  0  0  0  0  0
   11.5076   16.1366   16.3348 N   0  0  0  0  0  0  0  0  0  0  0  0
   10.5614   15.4439   15.7122 C   0  0  0  0  0  0  0  0  0  0  0  0
    9.2987   15.7689   15.9635 C   0  0  0  0  0  0  0  0  0  0  0  0
    9.4082   17.1974   16.9680 S   0  0  0  0  0  0  0  0  0  0  0  0
   10.9119   14.1280   14.9935 C   0  0  0  0  0  0  0  0  0  0  0  0
   18.0693   24.6491   17.0320 C   0  0  0  0  0  0  0  0  0  0  0  0
   18.2537   26.0676   17.3000 O   0  0  0  0  0  0  0  0  0  0  0  0
   19.1679   26.3192   17.0954 H   0  0  0  0  0  0  0  0  0  0  0  0
   19.0741   23.8853   17.9413 C   0  0  0  0  0  0  0  0  0  0  0  0
   18.3588   23.2857   19.0652 N   0  0  0  0  0  0  0  0  0  0  0  0
   18.8106   23.8230   20.5743 S   0  0  0  0  0  0  0  0  0  0  0  0
   19.1578   22.6486   21.4166 O   0  0  0  0  0  0  0  0  0  0  0  0
   17.7724   24.7238   21.0740 O   0  0  0  0  0  0  0  0  0  0  0  0
   22.6114   26.2317   19.8381 C   0  0  0  0  0  0  0  0  0  0  0  0
   21.4110   26.9179   19.9758 C   0  0  0  0  0  0  0  0  0  0  0  0
   20.2572   26.1527   20.2589 C   0  0  0  0  0  0  0  0  0  0  0  0
   20.2847   24.7657   20.3057 C   0  0  0  0  0  0  0  0  0  0  0  0
   21.5019   24.1075   20.2209 C   0  0  0  0  0  0  0  0  0  0  0  0
   22.6387   24.8655   20.0032 C   0  0  0  0  0  0  0  0  0  0  0  0
   23.7960   26.8355   19.5356 O   0  0  0  0  0  0  0  0  0  0  0  0
   24.4053   26.2792   18.3892 C   0  0  0  0  0  0  0  0  0  0  0  0
   17.0130   22.8166   18.9493 C   0  0  0  0  0  0  0  0  0  0  0  0
   16.8070   21.2678   18.9850 C   0  0  0  0  0  0  0  0  0  0  0  0
   15.3321   20.9458   19.1666 C   0  0  0  0  0  0  0  0  0  0  0  0
   17.2825   20.7213   17.6227 C   0  0  0  0  0  0  0  0  0  0  0  0
   18.1400   25.5772   14.6245 C   0  0  0  0  0  0  0  0  0  0  0  0
   20.6515   25.5989   14.6703 C   0  0  0  0  0  0  0  0  0  0  0  0
   21.8839   26.2894   14.6677 C   0  0  0  0  0  0  0  0  0  0  0  0
   21.9150   27.6858   14.5201 C   0  0  0  0  0  0  0  0  0  0  0  0
   20.7195   28.3942   14.2802 C   0  0  0  0  0  0  0  0  0  0  0  0
   19.4920   27.7071   14.3126 C   0  0  0  0  0  0  0  0  0  0  0  0
   19.4783   26.3307   14.5216 C   0  0  0  0  0  0  0  0  0  0  0  0
 24 21  1  0  0  0
 48 49  2  0  0  0
 48 47  1  0  0  0
 49 50  1  0  0  0
 21 20  1  0  0  0
 21 22  2  0  0  0
 20 19  2  0  0  0
 47 46  2  0  0  0
 50 51  2  0  0  0
 16 17  1  0  0  0
 16 15  1  0  0  0
 17 18  1  0  0  0
 38 37  2  0  0  0
 38 33  1  0  0  0
 39 33  1  0  0  0
 39 40  1  0  0  0
 46 51  1  0  0  0
 22 23  1  0  0  0
 51 45  1  0  0  0
 37 36  1  0  0  0
 31 30  2  0  0  0
 33 34  2  0  0  0
 19 18  1  0  0  0
 19 23  1  0  0  0
 34 35  1  0  0  0
 36 35  2  0  0  0
 36 30  1  0  0  0
 18 14  1  0  0  0
 15 14  1  0  0  0
 45  1  1  0  0  0
 30 32  2  0  0  0
 30 29  1  0  0  0
 14 12  1  0  0  0
  1  2  1  0  0  0
  1 25  1  0  0  0
 28 29  1  0  0  0
 28 25  1  0  0  0
 29 41  1  0  0  0
 12 13  2  0  0  0
 12 10  1  0  0  0
  2  3  1  0  0  0
 11 10  2  0  0  0
 11  6  1  0  0  0
 25 26  1  0  0  0
  3  4  2  0  0  0
  3  6  1  0  0  0
 10  9  1  0  0  0
 41 42  1  0  0  0
  6  7  2  0  0  0
  9  8  2  0  0  0
 43 42  1  0  0  0
 42 44  1  0  0  0
  7  8  1  0  0  0
 26 27  1  0  0  0
  2  5  1  0  0  0
M  END
> <minimizedAffinity>
-10.04124

$$$$
5UOV_8FP_A_201


 51 55  0  0  0  0  0  0  0  0999 V2000
   16.3053   22.9885   16.9582 C   0  0  0  0  0  0  0  0  0  0  0  0
   17.0440   24.1696   16.4604 N   0  0  0  0  0  0  0  0  0  0  0  0
   18.2922   24.0737   15.9716 C   0  0  0  0  0  0  0  0  0  0  0  0
   18.9658   23.1223   15.7747 O   0  0  0  0  0  0  0  0  0  0  0  0
   16.6082   25.0520   16.4879 H   0  0  0  0  0  0  0  0  0  0  0  0
   18.9354   25.4181   15.5767 C   0  0  0  0  0  0  0  0  0  0  0  0
   18.4821   26.1482   14.4843 C   0  0  0  0  0  0  0  0  0  0  0  0
   19.0662   27.3779   14.1637 C   0  0  0  0  0  0  0  0  0  0  0  0
   20.1199   27.8852   14.9093 C   0  0  0  0  0  0  0  0  0  0  0  0
   20.5906   27.1096   15.9725 C   0  0  0  0  0  0  0  0  0  0  0  0
   19.9713   25.9103   16.3561 C   0  0  0  0  0  0  0  0  0  0  0  0
   21.6613   27.6329   16.9279 C   0  0  0  0  0  0  0  0  0  0  0  0
   21.2899   28.1219   17.9900 O   0  0  0  0  0  0  0  0  0  0  0  0
   22.9252   27.3277   16.7615 N   0  0  0  0  0  0  0  0  0  0  0  0
   23.5515   27.0512   15.4859 C   0  0  0  0  0  0  0  0  0  0  0  0
   25.0472   27.1658   15.7243 C   0  0  0  0  0  0  0  0  0  0  0  0
   25.1933   28.0007   16.9774 C   0  0  0  0  0  0  0  0  0  0  0  0
   23.9039   27.7827   17.7607 C   0  0  0  0  0  0  0  0  0  0  0  0
   24.0469   26.7393   18.8289 C   0  0  0  0  0  0  0  0  0  0  0  0
   23.2744   26.4242   19.8300 N   0  0  0  0  0  0  0  0  0  0  0  0
   23.6940   25.4880   20.6728 C   0  0  0  0  0  0  0  0  0  0  0  0
   24.8296   24.8650   20.3803 C   0  0  0  0  0  0  0  0  0  0  0  0
   25.4421   25.7117   18.9769 S   0  0  0  0  0  0  0  0  0  0  0  0
   22.7445   24.9371   21.7524 C   0  0  0  0  0  0  0  0  0  0  0  0
   15.0989   22.6822   16.0453 C   0  0  0  0  0  0  0  0  0  0  0  0
   14.4842   23.9150   15.5758 O   0  0  0  0  0  0  0  0  0  0  0  0
   14.1484   24.4180   16.3342 H   0  0  0  0  0  0  0  0  0  0  0  0
   13.9936   21.8862   16.7965 C   0  0  0  0  0  0  0  0  0  0  0  0
   14.1944   20.4543   16.5879 N   0  0  0  0  0  0  0  0  0  0  0  0
   14.1924   19.5195   17.9651 S   0  0  0  0  0  0  0  0  0  0  0  0
   14.0993   20.4123   19.1496 O   0  0  0  0  0  0  0  0  0  0  0  0
   15.3307   18.6032   17.9031 O   0  0  0  0  0  0  0  0  0  0  0  0
   10.3455   17.0876   17.6870 C   0  0  0  0  0  0  0  0  0  0  0  0
   11.5577   16.4258   17.5341 C   0  0  0  0  0  0  0  0  0  0  0  0
   12.7360   17.1919   17.6803 C   0  0  0  0  0  0  0  0  0  0  0  0
   12.7037   18.5662   17.8729 C   0  0  0  0  0  0  0  0  0  0  0  0
   11.4850   19.1945   18.0778 C   0  0  0  0  0  0  0  0  0  0  0  0
   10.3352   18.4295   17.9932 C   0  0  0  0  0  0  0  0  0  0  0  0
    9.1317   16.4831   17.5440 O   0  0  0  0  0  0  0  0  0  0  0  0
    8.7936   16.2705   16.1892 C   0  0  0  0  0  0  0  0  0  0  0  0
   13.7845   19.7940   15.3876 C   0  0  0  0  0  0  0  0  0  0  0  0
   12.5858   20.4314   14.6135 C   0  0  0  0  0  0  0  0  0  0  0  0
   13.0705   21.0077   13.2925 C   0  0  0  0  0  0  0  0  0  0  0  0
   11.5790   19.2964   14.3338 C   0  0  0  0  0  0  0  0  0  0  0  0
   15.9087   23.2893   18.4198 C   0  0  0  0  0  0  0  0  0  0  0  0
   17.4020   21.7470   19.7244 C   0  0  0  0  0  0  0  0  0  0  0  0
   18.4492   21.5239   20.6459 C   0  0  0  0  0  0  0  0  0  0  0  0
   19.1779   22.6051   21.1680 C   0  0  0  0  0  0  0  0  0  0  0  0
   18.9273   23.9123   20.7019 C   0  0  0  0  0  0  0  0  0  0  0  0
   17.8647   24.1336   19.8065 C   0  0  0  0  0  0  0  0  0  0  0  0
   17.1143   23.0545   19.3477 C   0  0  0  0  0  0  0  0  0  0  0  0
 24 21  1  0  0  0
 48 49  2  0  0  0
 48 47  1  0  0  0
 49 50  1  0  0  0
 21 20  1  0  0  0
 21 22  2  0  0  0
 20 19  2  0  0  0
 47 46  2  0  0  0
 50 51  2  0  0  0
 16 17  1  0  0  0
 16 15  1  0  0  0
 17 18  1  0  0  0
 38 37  2  0  0  0
 38 33  1  0  0  0
 39 33  1  0  0  0
 39 40  1  0  0  0
 46 51  1  0  0  0
 22 23  1  0  0  0
 51 45  1  0  0  0
 37 36  1  0  0  0
 31 30  2  0  0  0
 33 34  2  0  0  0
 19 18  1  0  0  0
 19 23  1  0  0  0
 34 35  1  0  0  0
 36 35  2  0  0  0
 36 30  1  0  0  0
 18 14  1  0  0  0
 15 14  1  0  0  0
 45  1  1  0  0  0
 30 32  2  0  0  0
 30 29  1  0  0  0
 14 12  1  0  0  0
  1  2  1  0  0  0
  1 25  1  0  0  0
 28 29  1  0  0  0
 28 25  1  0  0  0
 29 41  1  0  0  0
 12 13  2  0  0  0
 12 10  1  0  0  0
  2  3  1  0  0  0
 11 10  2  0  0  0
 11  6  1  0  0  0
 25 26  1  0  0  0
  3  4  2  0  0  0
  3  6  1  0  0  0
 10  9  1  0  0  0
 41 42  1  0  0  0
  6  7  2  0  0  0
  9  8  2  0  0  0
 43 42  1  0  0  0
 42 44  1  0  0  0
  7  8  1  0  0  0
 26 27  1  0  0  0
  2  5  1  0  0  0
M  END
> <minimizedAffinity>
-9.87716

$$$$
5UOV_8FP_A_201


 51 55  0  0  0  0  0  0  0  0999 V2000
    9.4017   20.6736   14.9440 C   0  0  0  0  0  0  0  0  0  0  0  0
   10.8706   20.8374   15.0083 N   0  0  0  0  0  0  0  0  0  0  0  0
   11.5107   21.7936   14.3140 C   0  0  0  0  0  0  0  0  0  0  0  0
   11.0830   22.6683   13.6434 O   0  0  0  0  0  0  0  0  0  0  0  0
   11.3948   20.2277   15.5765 H   0  0  0  0  0  0  0  0  0  0  0  0
   13.0471   21.7618   14.4380 C   0  0  0  0  0  0  0  0  0  0  0  0
   13.8239   20.9280   13.6424 C   0  0  0  0  0  0  0  0  0  0  0  0
   15.2178   20.9381   13.7571 C   0  0  0  0  0  0  0  0  0  0  0  0
   15.8539   21.7585   14.6768 C   0  0  0  0  0  0  0  0  0  0  0  0
   15.0489   22.5512   15.4997 C   0  0  0  0  0  0  0  0  0  0  0  0
   13.6550   22.6112   15.3502 C   0  0  0  0  0  0  0  0  0  0  0  0
   15.6535   23.5771   16.4564 C   0  0  0  0  0  0  0  0  0  0  0  0
   15.1247   23.7153   17.5548 O   0  0  0  0  0  0  0  0  0  0  0  0
   16.8412   24.0876   16.2398 N   0  0  0  0  0  0  0  0  0  0  0  0
   17.4373   24.2785   14.9344 C   0  0  0  0  0  0  0  0  0  0  0  0
   18.5856   25.2511   15.1405 C   0  0  0  0  0  0  0  0  0  0  0  0
   18.2788   25.9687   16.4366 C   0  0  0  0  0  0  0  0  0  0  0  0
   17.4146   25.0024   17.2386 C   0  0  0  0  0  0  0  0  0  0  0  0
   18.2067   24.2141   18.2393 C   0  0  0  0  0  0  0  0  0  0  0  0
   17.8369   23.3298   19.1221 N   0  0  0  0  0  0  0  0  0  0  0  0
   18.7610   22.8369   19.9382 C   0  0  0  0  0  0  0  0  0  0  0  0
   20.0198   23.2057   19.7320 C   0  0  0  0  0  0  0  0  0  0  0  0
   19.9188   24.4137   18.4701 S   0  0  0  0  0  0  0  0  0  0  0  0
   18.4248   21.6520   20.8621 C   0  0  0  0  0  0  0  0  0  0  0  0
    8.8880   19.9172   16.1875 C   0  0  0  0  0  0  0  0  0  0  0  0
    9.5778   20.3710   17.3859 O   0  0  0  0  0  0  0  0  0  0  0  0
   10.5253   20.1793   17.3058 H   0  0  0  0  0  0  0  0  0  0  0  0
    9.1392   18.3861   16.0766 C   0  0  0  0  0  0  0  0  0  0  0  0
   10.5708   18.1159   16.1848 N   0  0  0  0  0  0  0  0  0  0  0  0
   11.0981   17.6217   17.6842 S   0  0  0  0  0  0  0  0  0  0  0  0
   11.4310   16.1746   17.6217 O   0  0  0  0  0  0  0  0  0  0  0  0
   10.1142   18.0416   18.6815 O   0  0  0  0  0  0  0  0  0  0  0  0
   14.9684   19.9350   18.3624 C   0  0  0  0  0  0  0  0  0  0  0  0
   13.7621   20.6103   18.5030 C   0  0  0  0  0  0  0  0  0  0  0  0
   12.5769   19.8577   18.3425 C   0  0  0  0  0  0  0  0  0  0  0  0
   12.5962   18.5220   17.9657 C   0  0  0  0  0  0  0  0  0  0  0  0
   13.8097   17.8564   17.8860 C   0  0  0  0  0  0  0  0  0  0  0  0
   14.9669   18.5833   18.1027 C   0  0  0  0  0  0  0  0  0  0  0  0
   16.1874   20.5382   18.4602 O   0  0  0  0  0  0  0  0  0  0  0  0
   17.0485   20.1849   17.3978 C   0  0  0  0  0  0  0  0  0  0  0  0
   11.3476   17.6642   15.0724 C   0  0  0  0  0  0  0  0  0  0  0  0
   10.6080   16.7817   14.0158 C   0  0  0  0  0  0  0  0  0  0  0  0
   11.1318   17.0938   12.6229 C   0  0  0  0  0  0  0  0  0  0  0  0
   10.9243   15.3114   14.3600 C   0  0  0  0  0  0  0  0  0  0  0  0
    9.0872   19.9546   13.6143 C   0  0  0  0  0  0  0  0  0  0  0  0
    7.6172   20.2706   11.6019 C   0  0  0  0  0  0  0  0  0  0  0  0
    6.8410   21.0896   10.7521 C   0  0  0  0  0  0  0  0  0  0  0  0
    6.6325   22.4426   11.0663 C   0  0  0  0  0  0  0  0  0  0  0  0
    7.1209   22.9655   12.2815 C   0  0  0  0  0  0  0  0  0  0  0  0
    7.9180   22.1548   13.1106 C   0  0  0  0  0  0  0  0  0  0  0  0
    8.1640   20.8327   12.7504 C   0  0  0  0  0  0  0  0  0  0  0  0
 24 21  1  0  0  0
 48 49  2  0  0  0
 48 47  1  0  0  0
 49 50  1  0  0  0
 21 20  1  0  0  0
 21 22  2  0  0  0
 20 19  2  0  0  0
 47 46  2  0  0  0
 50 51  2  0  0  0
 16 17  1  0  0  0
 16 15  1  0  0  0
 17 18  1  0  0  0
 38 37  2  0  0  0
 38 33  1  0  0  0
 39 33  1  0  0  0
 39 40  1  0  0  0
 46 51  1  0  0  0
 22 23  1  0  0  0
 51 45  1  0  0  0
 37 36  1  0  0  0
 31 30  2  0  0  0
 33 34  2  0  0  0
 19 18  1  0  0  0
 19 23  1  0  0  0
 34 35  1  0  0  0
 36 35  2  0  0  0
 36 30  1  0  0  0
 18 14  1  0  0  0
 15 14  1  0  0  0
 45  1  1  0  0  0
 30 32  2  0  0  0
 30 29  1  0  0  0
 14 12  1  0  0  0
  1  2  1  0  0  0
  1 25  1  0  0  0
 28 29  1  0  0  0
 28 25  1  0  0  0
 29 41  1  0  0  0
 12 13  2  0  0  0
 12 10  1  0  0  0
  2  3  1  0  0  0
 11 10  2  0  0  0
 11  6  1  0  0  0
 25 26  1  0  0  0
  3  4  2  0  0  0
  3  6  1  0  0  0
 10  9  1  0  0  0
 41 42  1  0  0  0
  6  7  2  0  0  0
  9  8  2  0  0  0
 43 42  1  0  0  0
 42 44  1  0  0  0
  7  8  1  0  0  0
 26 27  1  0  0  0
  2  5  1  0  0  0
M  END
> <minimizedAffinity>
-9.75565

$$$$
5UOV_8FP_A_201


 51 55  0  0  0  0  0  0  0  0999 V2000
   18.0096   24.3440   15.6348 C   0  0  0  0  0  0  0  0  0  0  0  0
   17.0501   23.4943   14.8957 N   0  0  0  0  0  0  0  0  0  0  0  0
   15.7798   23.3349   15.3045 C   0  0  0  0  0  0  0  0  0  0  0  0
   15.1922   23.8467   16.1936 O   0  0  0  0  0  0  0  0  0  0  0  0
   17.3511   23.0320   14.0803 H   0  0  0  0  0  0  0  0  0  0  0  0
   14.9489   22.3494   14.4587 C   0  0  0  0  0  0  0  0  0  0  0  0
   15.5478   21.4922   13.5431 C   0  0  0  0  0  0  0  0  0  0  0  0
   14.7730   20.5895   12.8076 C   0  0  0  0  0  0  0  0  0  0  0  0
   13.3950   20.5430   12.9562 C   0  0  0  0  0  0  0  0  0  0  0  0
   12.8109   21.4487   13.8463 C   0  0  0  0  0  0  0  0  0  0  0  0
   13.5756   22.3101   14.6475 C   0  0  0  0  0  0  0  0  0  0  0  0
   11.3197   21.3957   14.1731 C   0  0  0  0  0  0  0  0  0  0  0  0
   10.6701   22.4289   14.0479 O   0  0  0  0  0  0  0  0  0  0  0  0
   10.6966   20.2506   14.3096 N   0  0  0  0  0  0  0  0  0  0  0  0
   11.3070   19.0237   14.7763 C   0  0  0  0  0  0  0  0  0  0  0  0
   10.1578   18.1097   15.1649 C   0  0  0  0  0  0  0  0  0  0  0  0
    8.9745   19.0243   15.3935 C   0  0  0  0  0  0  0  0  0  0  0  0
    9.2430   20.2547   14.5345 C   0  0  0  0  0  0  0  0  0  0  0  0
    8.5345   20.2021   13.2133 C   0  0  0  0  0  0  0  0  0  0  0  0
    7.8413   21.1019   12.5746 N   0  0  0  0  0  0  0  0  0  0  0  0
    7.2584   20.7492   11.4350 C   0  0  0  0  0  0  0  0  0  0  0  0
    7.5052   19.5291   10.9728 C   0  0  0  0  0  0  0  0  0  0  0  0
    8.4434   18.7657   12.2372 S   0  0  0  0  0  0  0  0  0  0  0  0
    6.5969   21.8149   10.5421 C   0  0  0  0  0  0  0  0  0  0  0  0
   17.7519   24.2532   17.1539 C   0  0  0  0  0  0  0  0  0  0  0  0
   17.3950   25.5569   17.6932 O   0  0  0  0  0  0  0  0  0  0  0  0
   18.1331   26.1730   17.5646 H   0  0  0  0  0  0  0  0  0  0  0  0
   19.0155   23.7775   17.9265 C   0  0  0  0  0  0  0  0  0  0  0  0
   18.7014   23.6509   19.3476 N   0  0  0  0  0  0  0  0  0  0  0  0
   18.4215   22.1014   19.8871 S   0  0  0  0  0  0  0  0  0  0  0  0
   18.1832   22.1407   21.3535 O   0  0  0  0  0  0  0  0  0  0  0  0
   19.5028   21.2423   19.4057 O   0  0  0  0  0  0  0  0  0  0  0  0
   14.5546   20.7721   17.8697 C   0  0  0  0  0  0  0  0  0  0  0  0
   14.4882   21.7766   18.8276 C   0  0  0  0  0  0  0  0  0  0  0  0
   15.7071   22.2090   19.3970 C   0  0  0  0  0  0  0  0  0  0  0  0
   16.9187   21.6023   19.0958 C   0  0  0  0  0  0  0  0  0  0  0  0
   16.9673   20.6416   18.0975 C   0  0  0  0  0  0  0  0  0  0  0  0
   15.7785   20.2629   17.4994 C   0  0  0  0  0  0  0  0  0  0  0  0
   13.4589   20.2370   17.2594 O   0  0  0  0  0  0  0  0  0  0  0  0
   12.5856   19.6106   18.1760 C   0  0  0  0  0  0  0  0  0  0  0  0
   19.2020   24.5683   20.3236 C   0  0  0  0  0  0  0  0  0  0  0  0
   20.5138   25.3339   19.9553 C   0  0  0  0  0  0  0  0  0  0  0  0
   20.7301   26.4858   20.9240 C   0  0  0  0  0  0  0  0  0  0  0  0
   21.6743   24.3271   20.0958 C   0  0  0  0  0  0  0  0  0  0  0  0
   17.8688   25.7750   15.0724 C   0  0  0  0  0  0  0  0  0  0  0  0
   19.3279   27.7389   14.5026 C   0  0  0  0  0  0  0  0  0  0  0  0
   20.5960   28.3059   14.2461 C   0  0  0  0  0  0  0  0  0  0  0  0
   21.7602   27.5318   14.3807 C   0  0  0  0  0  0  0  0  0  0  0  0
   21.6734   26.2096   14.8637 C   0  0  0  0  0  0  0  0  0  0  0  0
   20.4071   25.6396   15.0900 C   0  0  0  0  0  0  0  0  0  0  0  0
   19.2614   26.4053   14.8916 C   0  0  0  0  0  0  0  0  0  0  0  0
 24 21  1  0  0  0
 48 49  2  0  0  0
 48 47  1  0  0  0
 49 50  1  0  0  0
 21 20  1  0  0  0
 21 22  2  0  0  0
 20 19  2  0  0  0
 47 46  2  0  0  0
 50 51  2  0  0  0
 16 17  1  0  0  0
 16 15  1  0  0  0
 17 18  1  0  0  0
 38 37  2  0  0  0
 38 33  1  0  0  0
 39 33  1  0  0  0
 39 40  1  0  0  0
 46 51  1  0  0  0
 22 23  1  0  0  0
 51 45  1  0  0  0
 37 36  1  0  0  0
 31 30  2  0  0  0
 33 34  2  0  0  0
 19 18  1  0  0  0
 19 23  1  0  0  0
 34 35  1  0  0  0
 36 35  2  0  0  0
 36 30  1  0  0  0
 18 14  1  0  0  0
 15 14  1  0  0  0
 45  1  1  0  0  0
 30 32  2  0  0  0
 30 29  1  0  0  0
 14 12  1  0  0  0
  1  2  1  0  0  0
  1 25  1  0  0  0
 28 29  1  0  0  0
 28 25  1  0  0  0
 29 41  1  0  0  0
 12 13  2  0  0  0
 12 10  1  0  0  0
  2  3  1  0  0  0
 11 10  2  0  0  0
 11  6  1  0  0  0
 25 26  1  0  0  0
  3  4  2  0  0  0
  3  6  1  0  0  0
 10  9  1  0  0  0
 41 42  1  0  0  0
  6  7  2  0  0  0
  9  8  2  0  0  0
 43 42  1  0  0  0
 42 44  1  0  0  0
  7  8  1  0  0  0
 26 27  1  0  0  0
  2  5  1  0  0  0
M  END
> <minimizedAffinity>
-9.69675

$$$$
5UOV_8FP_A_201


 51 55  0  0  0  0  0  0  0  0999 V2000
   16.3808   23.0042   17.0330 C   0  0  0  0  0  0  0  0  0  0  0  0
   17.1571   24.1801   16.5820 N   0  0  0  0  0  0  0  0  0  0  0  0
   18.4237   24.0715   16.1460 C   0  0  0  0  0  0  0  0  0  0  0  0
   19.0914   23.1126   15.9663 O   0  0  0  0  0  0  0  0  0  0  0  0
   16.7333   25.0685   16.6019 H   0  0  0  0  0  0  0  0  0  0  0  0
   19.1024   25.4108   15.7957 C   0  0  0  0  0  0  0  0  0  0  0  0
   18.6561   26.1985   14.7412 C   0  0  0  0  0  0  0  0  0  0  0  0
   19.2734   27.4219   14.4614 C   0  0  0  0  0  0  0  0  0  0  0  0
   20.3530   27.8660   15.2102 C   0  0  0  0  0  0  0  0  0  0  0  0
   20.8149   27.0335   16.2335 C   0  0  0  0  0  0  0  0  0  0  0  0
   20.1644   25.8389   16.5780 C   0  0  0  0  0  0  0  0  0  0  0  0
   21.9152   27.4845   17.1922 C   0  0  0  0  0  0  0  0  0  0  0  0
   21.5972   27.7331   18.3508 O   0  0  0  0  0  0  0  0  0  0  0  0
   23.1814   27.3468   16.8828 N   0  0  0  0  0  0  0  0  0  0  0  0
   23.7147   27.3708   15.5371 C   0  0  0  0  0  0  0  0  0  0  0  0
   25.2095   27.5949   15.6867 C   0  0  0  0  0  0  0  0  0  0  0  0
   25.3910   28.2013   17.0608 C   0  0  0  0  0  0  0  0  0  0  0  0
   24.2004   27.7134   17.8782 C   0  0  0  0  0  0  0  0  0  0  0  0
   24.5293   26.5154   18.7188 C   0  0  0  0  0  0  0  0  0  0  0  0
   24.9937   25.3415   18.3958 N   0  0  0  0  0  0  0  0  0  0  0  0
   25.1240   24.4347   19.3569 C   0  0  0  0  0  0  0  0  0  0  0  0
   24.8658   24.8196   20.6012 C   0  0  0  0  0  0  0  0  0  0  0  0
   24.2539   26.4504   20.4347 S   0  0  0  0  0  0  0  0  0  0  0  0
   25.8483   23.1058   19.0738 C   0  0  0  0  0  0  0  0  0  0  0  0
   15.2135   22.7239   16.0629 C   0  0  0  0  0  0  0  0  0  0  0  0
   14.8278   23.9378   15.3590 O   0  0  0  0  0  0  0  0  0  0  0  0
   14.5162   24.5972   15.9985 H   0  0  0  0  0  0  0  0  0  0  0  0
   13.9482   22.2178   16.8130 C   0  0  0  0  0  0  0  0  0  0  0  0
   13.6611   20.8417   16.4152 N   0  0  0  0  0  0  0  0  0  0  0  0
   12.9376   20.6593   14.9273 S   0  0  0  0  0  0  0  0  0  0  0  0
   13.8765   19.9461   14.0225 O   0  0  0  0  0  0  0  0  0  0  0  0
   12.4455   21.9652   14.4897 O   0  0  0  0  0  0  0  0  0  0  0  0
    9.3780   17.9123   15.6844 C   0  0  0  0  0  0  0  0  0  0  0  0
    9.6246   18.9381   16.5887 C   0  0  0  0  0  0  0  0  0  0  0  0
   10.6996   19.8091   16.3015 C   0  0  0  0  0  0  0  0  0  0  0  0
   11.5439   19.6073   15.2184 C   0  0  0  0  0  0  0  0  0  0  0  0
   11.2448   18.6123   14.3006 C   0  0  0  0  0  0  0  0  0  0  0  0
   10.1551   17.7983   14.5540 C   0  0  0  0  0  0  0  0  0  0  0  0
    8.3954   16.9812   15.8481 O   0  0  0  0  0  0  0  0  0  0  0  0
    8.8271   15.8726   16.6096 C   0  0  0  0  0  0  0  0  0  0  0  0
   14.4538   19.7381   16.8606 C   0  0  0  0  0  0  0  0  0  0  0  0
   13.8870   18.9084   18.0575 C   0  0  0  0  0  0  0  0  0  0  0  0
   14.4709   17.5045   18.0367 C   0  0  0  0  0  0  0  0  0  0  0  0
   14.3320   19.6246   19.3496 C   0  0  0  0  0  0  0  0  0  0  0  0
   15.9221   23.2957   18.4782 C   0  0  0  0  0  0  0  0  0  0  0  0
   17.7769   24.1738   19.9270 C   0  0  0  0  0  0  0  0  0  0  0  0
   18.9051   23.9706   20.7524 C   0  0  0  0  0  0  0  0  0  0  0  0
   19.3183   22.6694   21.0823 C   0  0  0  0  0  0  0  0  0  0  0  0
   18.5514   21.5614   20.6661 C   0  0  0  0  0  0  0  0  0  0  0  0
   17.4457   21.7664   19.8203 C   0  0  0  0  0  0  0  0  0  0  0  0
   17.0888   23.0614   19.4546 C   0  0  0  0  0  0  0  0  0  0  0  0
 24 21  1  0  0  0
 48 49  2  0  0  0
 48 47  1  0  0  0
 49 50  1  0  0  0
 21 20  1  0  0  0
 21 22  2  0  0  0
 20 19  2  0  0  0
 47 46  2  0  0  0
 50 51  2  0  0  0
 16 17  1  0  0  0
 16 15  1  0  0  0
 17 18  1  0  0  0
 38 37  2  0  0  0
 38 33  1  0  0  0
 39 33  1  0  0  0
 39 40  1  0  0  0
 46 51  1  0  0  0
 22 23  1  0  0  0
 51 45  1  0  0  0
 37 36  1  0  0  0
 31 30  2  0  0  0
 33 34  2  0  0  0
 19 18  1  0  0  0
 19 23  1  0  0  0
 34 35  1  0  0  0
 36 35  2  0  0  0
 36 30  1  0  0  0
 18 14  1  0  0  0
 15 14  1  0  0  0
 45  1  1  0  0  0
 30 32  2  0  0  0
 30 29  1  0  0  0
 14 12  1  0  0  0
  1  2  1  0  0  0
  1 25  1  0  0  0
 28 29  1  0  0  0
 28 25  1  0  0  0
 29 41  1  0  0  0
 12 13  2  0  0  0
 12 10  1  0  0  0
  2  3  1  0  0  0
 11 10  2  0  0  0
 11  6  1  0  0  0
 25 26  1  0  0  0
  3  4  2  0  0  0
  3  6  1  0  0  0
 10  9  1  0  0  0
 41 42  1  0  0  0
  6  7  2  0  0  0
  9  8  2  0  0  0
 43 42  1  0  0  0
 42 44  1  0  0  0
  7  8  1  0  0  0
 26 27  1  0  0  0
  2  5  1  0  0  0
M  END
> <minimizedAffinity>
-9.59438

$$$$
5UOV_8FP_A_201


 51 55  0  0  0  0  0  0  0  0999 V2000
   10.5915   21.1102   15.0543 C   0  0  0  0  0  0  0  0  0  0  0  0
   11.7405   20.4153   15.6752 N   0  0  0  0  0  0  0  0  0  0  0  0
   11.7129   19.9964   16.9519 C   0  0  0  0  0  0  0  0  0  0  0  0
   10.8349   20.0120   17.7435 O   0  0  0  0  0  0  0  0  0  0  0  0
   12.5493   20.2550   15.1372 H   0  0  0  0  0  0  0  0  0  0  0  0
   13.0282   19.3671   17.4528 C   0  0  0  0  0  0  0  0  0  0  0  0
   13.0620   18.0883   17.9964 C   0  0  0  0  0  0  0  0  0  0  0  0
   14.2732   17.5311   18.4190 C   0  0  0  0  0  0  0  0  0  0  0  0
   15.4591   18.2443   18.3275 C   0  0  0  0  0  0  0  0  0  0  0  0
   15.3920   19.5463   17.8236 C   0  0  0  0  0  0  0  0  0  0  0  0
   14.2010   20.0961   17.3257 C   0  0  0  0  0  0  0  0  0  0  0  0
   16.6542   20.3677   17.5676 C   0  0  0  0  0  0  0  0  0  0  0  0
   17.0901   20.4033   16.4214 O   0  0  0  0  0  0  0  0  0  0  0  0
   17.0982   21.2221   18.4570 N   0  0  0  0  0  0  0  0  0  0  0  0
   16.9203   21.0983   19.8884 C   0  0  0  0  0  0  0  0  0  0  0  0
   17.9265   22.0478   20.5155 C   0  0  0  0  0  0  0  0  0  0  0  0
   18.9769   22.2824   19.4523 C   0  0  0  0  0  0  0  0  0  0  0  0
   18.2653   22.0529   18.1238 C   0  0  0  0  0  0  0  0  0  0  0  0
   17.8022   23.3307   17.4889 C   0  0  0  0  0  0  0  0  0  0  0  0
   18.1637   23.9209   16.3848 N   0  0  0  0  0  0  0  0  0  0  0  0
   17.6250   25.1009   16.1014 C   0  0  0  0  0  0  0  0  0  0  0  0
   16.6779   25.5530   16.9148 C   0  0  0  0  0  0  0  0  0  0  0  0
   16.6365   24.3920   18.2232 S   0  0  0  0  0  0  0  0  0  0  0  0
   17.8617   25.7489   14.7249 C   0  0  0  0  0  0  0  0  0  0  0  0
    9.4818   20.1005   14.6919 C   0  0  0  0  0  0  0  0  0  0  0  0
    8.4901   20.0240   15.7543 O   0  0  0  0  0  0  0  0  0  0  0  0
    8.9117   19.7058   16.5678 H   0  0  0  0  0  0  0  0  0  0  0  0
   10.0479   18.6643   14.5009 C   0  0  0  0  0  0  0  0  0  0  0  0
    8.9534   17.6974   14.5414 N   0  0  0  0  0  0  0  0  0  0  0  0
    8.3790   17.1989   13.0609 S   0  0  0  0  0  0  0  0  0  0  0  0
    7.8220   18.3748   12.3427 O   0  0  0  0  0  0  0  0  0  0  0  0
    7.4888   16.0576   13.2713 O   0  0  0  0  0  0  0  0  0  0  0  0
   12.0770   15.7954   10.7928 C   0  0  0  0  0  0  0  0  0  0  0  0
   11.7889   15.2037   12.0167 C   0  0  0  0  0  0  0  0  0  0  0  0
   10.6074   15.6167   12.6726 C   0  0  0  0  0  0  0  0  0  0  0  0
    9.8068   16.6370   12.1780 C   0  0  0  0  0  0  0  0  0  0  0  0
   10.0835   17.1727   10.9296 C   0  0  0  0  0  0  0  0  0  0  0  0
   11.2091   16.7228   10.2626 C   0  0  0  0  0  0  0  0  0  0  0  0
   13.1954   15.5170   10.0641 O   0  0  0  0  0  0  0  0  0  0  0  0
   14.3335   15.3255   10.8784 C   0  0  0  0  0  0  0  0  0  0  0  0
    8.7994   16.7648   15.6144 C   0  0  0  0  0  0  0  0  0  0  0  0
   10.0089   16.6198   16.5934 C   0  0  0  0  0  0  0  0  0  0  0  0
    9.5437   16.8311   18.0256 C   0  0  0  0  0  0  0  0  0  0  0  0
   10.5399   15.1795   16.4389 C   0  0  0  0  0  0  0  0  0  0  0  0
   11.1392   21.8845   13.8359 C   0  0  0  0  0  0  0  0  0  0  0  0
   13.4865   21.3120   13.1481 C   0  0  0  0  0  0  0  0  0  0  0  0
   14.8851   21.4028   13.3242 C   0  0  0  0  0  0  0  0  0  0  0  0
   15.4231   22.2391   14.3160 C   0  0  0  0  0  0  0  0  0  0  0  0
   14.5704   23.0634   15.0791 C   0  0  0  0  0  0  0  0  0  0  0  0
   13.1769   22.9485   14.9209 C   0  0  0  0  0  0  0  0  0  0  0  0
   12.6613   22.0679   13.9739 C   0  0  0  0  0  0  0  0  0  0  0  0
 24 21  1  0  0  0
 48 49  2  0  0  0
 48 47  1  0  0  0
 49 50  1  0  0  0
 21 20  1  0  0  0
 21 22  2  0  0  0
 20 19  2  0  0  0
 47 46  2  0  0  0
 50 51  2  0  0  0
 16 17  1  0  0  0
 16 15  1  0  0  0
 17 18  1  0  0  0
 38 37  2  0  0  0
 38 33  1  0  0  0
 39 33  1  0  0  0
 39 40  1  0  0  0
 46 51  1  0  0  0
 22 23  1  0  0  0
 51 45  1  0  0  0
 37 36  1  0  0  0
 31 30  2  0  0  0
 33 34  2  0  0  0
 19 18  1  0  0  0
 19 23  1  0  0  0
 34 35  1  0  0  0
 36 35  2  0  0  0
 36 30  1  0  0  0
 18 14  1  0  0  0
 15 14  1  0  0  0
 45  1  1  0  0  0
 30 32  2  0  0  0
 30 29  1  0  0  0
 14 12  1  0  0  0
  1  2  1  0  0  0
  1 25  1  0  0  0
 28 29  1  0  0  0
 28 25  1  0  0  0
 29 41  1  0  0  0
 12 13  2  0  0  0
 12 10  1  0  0  0
  2  3  1  0  0  0
 11 10  2  0  0  0
 11  6  1  0  0  0
 25 26  1  0  0  0
  3  4  2  0  0  0
  3  6  1  0  0  0
 10  9  1  0  0  0
 41 42  1  0  0  0
  6  7  2  0  0  0
  9  8  2  0  0  0
 43 42  1  0  0  0
 42 44  1  0  0  0
  7  8  1  0  0  0
 26 27  1  0  0  0
  2  5  1  0  0  0
M  END
> <minimizedAffinity>
-9.59392

$$$$
5UOV_8FP_A_201


 51 55  0  0  0  0  0  0  0  0999 V2000
   17.4355   24.4995   15.8282 C   0  0  0  0  0  0  0  0  0  0  0  0
   16.5934   23.5652   15.0492 N   0  0  0  0  0  0  0  0  0  0  0  0
   15.3379   23.2615   15.4201 C   0  0  0  0  0  0  0  0  0  0  0  0
   14.6755   23.6897   16.3007 O   0  0  0  0  0  0  0  0  0  0  0  0
   16.9638   23.1539   14.2350 H   0  0  0  0  0  0  0  0  0  0  0  0
   14.6410   22.2082   14.5357 C   0  0  0  0  0  0  0  0  0  0  0  0
   15.3527   21.4396   13.6222 C   0  0  0  0  0  0  0  0  0  0  0  0
   14.6999   20.4726   12.8510 C   0  0  0  0  0  0  0  0  0  0  0  0
   13.3319   20.2733   12.9618 C   0  0  0  0  0  0  0  0  0  0  0  0
   12.6303   21.0923   13.8510 C   0  0  0  0  0  0  0  0  0  0  0  0
   13.2761   22.0159   14.6869 C   0  0  0  0  0  0  0  0  0  0  0  0
   11.1462   20.8707   14.1368 C   0  0  0  0  0  0  0  0  0  0  0  0
   10.3507   21.6967   13.7009 O   0  0  0  0  0  0  0  0  0  0  0  0
   10.7065   19.7179   14.5795 N   0  0  0  0  0  0  0  0  0  0  0  0
   11.4681   18.7973   15.3969 C   0  0  0  0  0  0  0  0  0  0  0  0
   10.4540   17.8404   15.9995 C   0  0  0  0  0  0  0  0  0  0  0  0
    9.1251   18.5591   15.9213 C   0  0  0  0  0  0  0  0  0  0  0  0
    9.2582   19.5284   14.7523 C   0  0  0  0  0  0  0  0  0  0  0  0
    8.6719   18.9856   13.4828 C   0  0  0  0  0  0  0  0  0  0  0  0
    8.0650   19.5800   12.4946 N   0  0  0  0  0  0  0  0  0  0  0  0
    7.5789   18.8264   11.5155 C   0  0  0  0  0  0  0  0  0  0  0  0
    7.8331   17.5239   11.5612 C   0  0  0  0  0  0  0  0  0  0  0  0
    8.6306   17.2895   13.1009 S   0  0  0  0  0  0  0  0  0  0  0  0
    7.0313   19.4814   10.2341 C   0  0  0  0  0  0  0  0  0  0  0  0
   16.8972   24.6386   17.2680 C   0  0  0  0  0  0  0  0  0  0  0  0
   16.4316   25.9954   17.5134 O   0  0  0  0  0  0  0  0  0  0  0  0
   17.1742   26.6131   17.4248 H   0  0  0  0  0  0  0  0  0  0  0  0
   17.9974   24.3424   18.3270 C   0  0  0  0  0  0  0  0  0  0  0  0
   17.7918   23.0085   18.8863 N   0  0  0  0  0  0  0  0  0  0  0  0
   18.8574   22.5583   20.0831 S   0  0  0  0  0  0  0  0  0  0  0  0
   19.5923   21.3454   19.6384 O   0  0  0  0  0  0  0  0  0  0  0  0
   18.1247   22.4737   21.3461 O   0  0  0  0  0  0  0  0  0  0  0  0
   21.8450   25.9859   20.4233 C   0  0  0  0  0  0  0  0  0  0  0  0
   22.1144   24.9619   19.5234 C   0  0  0  0  0  0  0  0  0  0  0  0
   21.1460   23.9407   19.3966 C   0  0  0  0  0  0  0  0  0  0  0  0
   20.0132   23.8942   20.1975 C   0  0  0  0  0  0  0  0  0  0  0  0
   19.7386   24.9546   21.0473 C   0  0  0  0  0  0  0  0  0  0  0  0
   20.6608   25.9831   21.1248 C   0  0  0  0  0  0  0  0  0  0  0  0
   22.7005   27.0185   20.6705 O   0  0  0  0  0  0  0  0  0  0  0  0
   23.7657   26.6426   21.5185 C   0  0  0  0  0  0  0  0  0  0  0  0
   16.5013   22.3948   18.9396 C   0  0  0  0  0  0  0  0  0  0  0  0
   16.4265   20.8879   18.5321 C   0  0  0  0  0  0  0  0  0  0  0  0
   14.9754   20.4733   18.3465 C   0  0  0  0  0  0  0  0  0  0  0  0
   17.1704   20.7502   17.1874 C   0  0  0  0  0  0  0  0  0  0  0  0
   17.4639   25.8336   15.0514 C   0  0  0  0  0  0  0  0  0  0  0  0
   19.9235   25.3244   15.0123 C   0  0  0  0  0  0  0  0  0  0  0  0
   21.2700   25.7309   14.8805 C   0  0  0  0  0  0  0  0  0  0  0  0
   21.5814   27.0607   14.5530 C   0  0  0  0  0  0  0  0  0  0  0  0
   20.5468   27.9740   14.2627 C   0  0  0  0  0  0  0  0  0  0  0  0
   19.2076   27.5733   14.4234 C   0  0  0  0  0  0  0  0  0  0  0  0
   18.9210   26.2666   14.8086 C   0  0  0  0  0  0  0  0  0  0  0  0
 24 21  1  0  0  0
 48 49  2  0  0  0
 48 47  1  0  0  0
 49 50  1  0  0  0
 21 20  1  0  0  0
 21 22  2  0  0  0
 20 19  2  0  0  0
 47 46  2  0  0  0
 50 51  2  0  0  0
 16 17  1  0  0  0
 16 15  1  0  0  0
 17 18  1  0  0  0
 38 37  2  0  0  0
 38 33  1  0  0  0
 39 33  1  0  0  0
 39 40  1  0  0  0
 46 51  1  0  0  0
 22 23  1  0  0  0
 51 45  1  0  0  0
 37 36  1  0  0  0
 31 30  2  0  0  0
 33 34  2  0  0  0
 19 18  1  0  0  0
 19 23  1  0  0  0
 34 35  1  0  0  0
 36 35  2  0  0  0
 36 30  1  0  0  0
 18 14  1  0  0  0
 15 14  1  0  0  0
 45  1  1  0  0  0
 30 32  2  0  0  0
 30 29  1  0  0  0
 14 12  1  0  0  0
  1  2  1  0  0  0
  1 25  1  0  0  0
 28 29  1  0  0  0
 28 25  1  0  0  0
 29 41  1  0  0  0
 12 13  2  0  0  0
 12 10  1  0  0  0
  2  3  1  0  0  0
 11 10  2  0  0  0
 11  6  1  0  0  0
 25 26  1  0  0  0
  3  4  2  0  0  0
  3  6  1  0  0  0
 10  9  1  0  0  0
 41 42  1  0  0  0
  6  7  2  0  0  0
  9  8  2  0  0  0
 43 42  1  0  0  0
 42 44  1  0  0  0
  7  8  1  0  0  0
 26 27  1  0  0  0
  2  5  1  0  0  0
M  END
> <minimizedAffinity>
-9.39829

$$$$
5UOV_8FP_A_201


 51 55  0  0  0  0  0  0  0  0999 V2000
   15.9189   23.5253   15.9421 C   0  0  0  0  0  0  0  0  0  0  0  0
   16.7952   23.2181   17.0938 N   0  0  0  0  0  0  0  0  0  0  0  0
   16.6808   23.8640   18.2668 C   0  0  0  0  0  0  0  0  0  0  0  0
   15.8902   24.6672   18.6239 O   0  0  0  0  0  0  0  0  0  0  0  0
   17.4826   22.5198   16.9981 H   0  0  0  0  0  0  0  0  0  0  0  0
   17.7309   23.4706   19.3249 C   0  0  0  0  0  0  0  0  0  0  0  0
   17.4564   22.5246   20.3054 C   0  0  0  0  0  0  0  0  0  0  0  0
   18.4362   22.1669   21.2372 C   0  0  0  0  0  0  0  0  0  0  0  0
   19.6899   22.7596   21.2200 C   0  0  0  0  0  0  0  0  0  0  0  0
   19.9254   23.7437   20.2559 C   0  0  0  0  0  0  0  0  0  0  0  0
   18.9831   24.0635   19.2666 C   0  0  0  0  0  0  0  0  0  0  0  0
   21.3082   24.3667   20.0743 C   0  0  0  0  0  0  0  0  0  0  0  0
   22.1038   23.7885   19.3410 O   0  0  0  0  0  0  0  0  0  0  0  0
   21.5506   25.5988   20.4505 N   0  0  0  0  0  0  0  0  0  0  0  0
   20.8861   26.2797   21.5416 C   0  0  0  0  0  0  0  0  0  0  0  0
   21.7536   27.4825   21.8702 C   0  0  0  0  0  0  0  0  0  0  0  0
   23.1225   27.1565   21.3147 C   0  0  0  0  0  0  0  0  0  0  0  0
   22.8723   26.1804   20.1709 C   0  0  0  0  0  0  0  0  0  0  0  0
   22.8463   26.8553   18.8314 C   0  0  0  0  0  0  0  0  0  0  0  0
   23.7967   27.0967   17.9732 N   0  0  0  0  0  0  0  0  0  0  0  0
   23.4918   27.7865   16.8805 C   0  0  0  0  0  0  0  0  0  0  0  0
   22.2152   28.0973   16.6887 C   0  0  0  0  0  0  0  0  0  0  0  0
   21.4137   27.5696   18.1518 S   0  0  0  0  0  0  0  0  0  0  0  0
   24.5206   27.9301   15.7440 C   0  0  0  0  0  0  0  0  0  0  0  0
   14.7201   22.5539   15.9019 C   0  0  0  0  0  0  0  0  0  0  0  0
   13.7990   22.8293   16.9944 O   0  0  0  0  0  0  0  0  0  0  0  0
   14.2511   22.6906   17.8413 H   0  0  0  0  0  0  0  0  0  0  0  0
   15.1713   21.0732   16.0565 C   0  0  0  0  0  0  0  0  0  0  0  0
   14.0048   20.2296   16.3051 N   0  0  0  0  0  0  0  0  0  0  0  0
   13.9085   19.5662   17.8286 S   0  0  0  0  0  0  0  0  0  0  0  0
   13.6054   20.6467   18.8031 O   0  0  0  0  0  0  0  0  0  0  0  0
   15.1127   18.7698   18.0627 O   0  0  0  0  0  0  0  0  0  0  0  0
   10.3110   16.7715   17.6345 C   0  0  0  0  0  0  0  0  0  0  0  0
   11.5612   16.2625   17.3048 C   0  0  0  0  0  0  0  0  0  0  0  0
   12.6671   17.1336   17.4269 C   0  0  0  0  0  0  0  0  0  0  0  0
   12.5190   18.4711   17.7674 C   0  0  0  0  0  0  0  0  0  0  0  0
   11.2708   18.9412   18.1456 C   0  0  0  0  0  0  0  0  0  0  0  0
   10.1992   18.0683   18.0821 C   0  0  0  0  0  0  0  0  0  0  0  0
    9.1544   16.0562   17.5359 O   0  0  0  0  0  0  0  0  0  0  0  0
    8.5807   16.1371   16.2477 C   0  0  0  0  0  0  0  0  0  0  0  0
   12.7575   20.4373   15.6373 C   0  0  0  0  0  0  0  0  0  0  0  0
   12.5237   19.6231   14.3240 C   0  0  0  0  0  0  0  0  0  0  0  0
   11.0409   19.3340   14.1514 C   0  0  0  0  0  0  0  0  0  0  0  0
   13.0083   20.5076   13.1565 C   0  0  0  0  0  0  0  0  0  0  0  0
   16.8015   23.4645   14.6767 C   0  0  0  0  0  0  0  0  0  0  0  0
   17.7331   25.7815   14.4039 C   0  0  0  0  0  0  0  0  0  0  0  0
   18.8124   26.6924   14.4266 C   0  0  0  0  0  0  0  0  0  0  0  0
   20.0875   26.2723   14.8392 C   0  0  0  0  0  0  0  0  0  0  0  0
   20.2735   24.9603   15.3218 C   0  0  0  0  0  0  0  0  0  0  0  0
   19.2034   24.0481   15.2701 C   0  0  0  0  0  0  0  0  0  0  0  0
   17.9622   24.4681   14.7998 C   0  0  0  0  0  0  0  0  0  0  0  0
 24 21  1  0  0  0
 48 49  2  0  0  0
 48 47  1  0  0  0
 49 50  1  0  0  0
 21 20  1  0  0  0
 21 22  2  0  0  0
 20 19  2  0  0  0
 47 46  2  0  0  0
 50 51  2  0  0  0
 16 17  1  0  0  0
 16 15  1  0  0  0
 17 18  1  0  0  0
 38 37  2  0  0  0
 38 33  1  0  0  0
 39 33  1  0  0  0
 39 40  1  0  0  0
 46 51  1  0  0  0
 22 23  1  0  0  0
 51 45  1  0  0  0
 37 36  1  0  0  0
 31 30  2  0  0  0
 33 34  2  0  0  0
 19 18  1  0  0  0
 19 23  1  0  0  0
 34 35  1  0  0  0
 36 35  2  0  0  0
 36 30  1  0  0  0
 18 14  1  0  0  0
 15 14  1  0  0  0
 45  1  1  0  0  0
 30 32  2  0  0  0
 30 29  1  0  0  0
 14 12  1  0  0  0
  1  2  1  0  0  0
  1 25  1  0  0  0
 28 29  1  0  0  0
 28 25  1  0  0  0
 29 41  1  0  0  0
 12 13  2  0  0  0
 12 10  1  0  0  0
  2  3  1  0  0  0
 11 10  2  0  0  0
 11  6  1  0  0  0
 25 26  1  0  0  0
  3  4  2  0  0  0
  3  6  1  0  0  0
 10  9  1  0  0  0
 41 42  1  0  0  0
  6  7  2  0  0  0
  9  8  2  0  0  0
 43 42  1  0  0  0
 42 44  1  0  0  0
  7  8  1  0  0  0
 26 27  1  0  0  0
  2  5  1  0  0  0
M  END
> <minimizedAffinity>
-9.31079

$$$$
