5UOV_8FP_A_201
  RCSB PDB12061719543D
Coordinates from PDB:5UOV:A:201 Model:1 without hydrogens
 49 53  0  0  0  0            999 V2000
   20.8710   27.7620   14.8590   C 0  0  0  0  0  0  0  0  0  0  0  0
   21.4890   28.9480   14.5930   O 0  0  0  0  0  0  0  0  0  0  0  0
   22.8480   28.9440   14.9780   C 0  0  0  0  0  0  0  0  0  0  0  0
   21.5110   26.6740   15.4400   C 0  0  0  0  0  0  0  0  0  0  0  0
   20.7320   25.5210   15.6860   C 0  0  0  0  0  0  0  0  0  0  0  0
   19.3640   25.4910   15.4530   C 0  0  0  0  0  0  0  0  0  0  0  0
   18.7590   26.5670   14.8220   C 0  0  0  0  0  0  0  0  0  0  0  0
   19.5380   27.6720   14.5280   C 0  0  0  0  0  0  0  0  0  0  0  0
   18.3920   24.0660   15.8510   S 0  0  0  0  0  0  0  0  0  0  0  0
   17.2910   23.9630   14.8580   O 0  0  0  0  0  0  0  0  0  0  0  0
   19.2890   22.9180   15.9800   O 0  0  0  0  0  0  0  0  0  0  0  0
   17.7370   24.3920   17.3460   N 0  0  0  0  0  0  0  0  0  0  0  0
   18.6760   24.6110   18.4020   C 0  0  0  0  0  0  0  0  0  0  0  0
   18.3570   23.9320   19.7730   C 0  0  0  0  0  0  0  0  0  0  0  0
   18.4960   22.4230   19.6480   C 0  0  0  0  0  0  0  0  0  0  0  0
   19.3970   24.4560   20.7850   C 0  0  0  0  0  0  0  0  0  0  0  0
   16.4180   25.0200   17.3340   C 0  0  0  0  0  0  0  0  0  0  0  0
   15.3670   24.0360   17.9230   C 0  0  0  0  0  0  0  0  0  0  0  0
   14.1980   24.8290   18.2730   O 0  0  0  0  0  0  0  0  0  0  0  0
   14.9920   22.9280   16.9160   C 0  0  0  0  0  0  0  0  0  0  0  0
   14.1590   21.8950   17.5700   N 0  0  0  0  0  0  0  0  0  0  0  0
   14.6800   20.7400   18.0180   C 0  0  0  0  0  0  0  0  0  0  0  0
   15.8030   20.3730   18.0610   O 0  0  0  0  0  0  0  0  0  0  0  0
   14.1930   23.4470   15.7010   C 0  0  0  0  0  0  0  0  0  0  0  0
   12.5480   21.8780   14.6320   C 0  0  0  0  0  0  0  0  0  0  0  0
   12.2510   20.7530   13.8310   C 0  0  0  0  0  0  0  0  0  0  0  0
   13.2790   20.0600   13.1710   C 0  0  0  0  0  0  0  0  0  0  0  0
   14.6030   20.5420   13.2310   C 0  0  0  0  0  0  0  0  0  0  0  0
   14.8990   21.6450   14.0530   C 0  0  0  0  0  0  0  0  0  0  0  0
   13.8740   22.2810   14.7480   C 0  0  0  0  0  0  0  0  0  0  0  0
   13.6500   19.7490   18.5960   C 0  0  0  0  0  0  0  0  0  0  0  0
   13.8420   19.1370   19.8290   C 0  0  0  0  0  0  0  0  0  0  0  0
   12.8790   18.2620   20.3420   C 0  0  0  0  0  0  0  0  0  0  0  0
   11.7270   17.9680   19.6280   C 0  0  0  0  0  0  0  0  0  0  0  0
   11.5800   18.5570   18.3690   C 0  0  0  0  0  0  0  0  0  0  0  0
   12.4970   19.4940   17.8690   C 0  0  0  0  0  0  0  0  0  0  0  0
   10.2950   18.3960   17.5590   C 0  0  0  0  0  0  0  0  0  0  0  0
    9.2440   18.7610   18.0760   O 0  0  0  0  0  0  0  0  0  0  0  0
   10.3320   18.1450   16.2730   N 0  0  0  0  0  0  0  0  0  0  0  0
   11.3870   17.4180   15.5990   C 0  0  0  0  0  0  0  0  0  0  0  0
   10.8180   17.0170   14.2490   C 0  0  0  0  0  0  0  0  0  0  0  0
    9.3150   17.0760   14.4110   C 0  0  0  0  0  0  0  0  0  0  0  0
    9.0680   18.0890   15.5230   C 0  0  0  0  0  0  0  0  0  0  0  0
    8.7400   19.4550   14.9970   C 0  0  0  0  0  0  0  0  0  0  0  0
    8.3720   19.8530   13.8120   N 0  0  0  0  0  0  0  0  0  0  0  0
    8.2150   21.1560   13.6110   C 0  0  0  0  0  0  0  0  0  0  0  0
    8.3470   21.9580   14.6610   C 0  0  0  0  0  0  0  0  0  0  0  0
    8.8760   20.9020   15.9520   S 0  0  0  0  0  0  0  0  0  0  0  0
    7.5940   21.6670   12.2980   C 0  0  0  0  0  0  0  0  0  0  0  0
 49 46  1  0  0  0  0
 27 28  2  0  0  0  0
 27 26  1  0  0  0  0
 28 29  1  0  0  0  0
 46 45  1  0  0  0  0
 46 47  2  0  0  0  0
 45 44  2  0  0  0  0
 26 25  2  0  0  0  0
 29 30  2  0  0  0  0
 41 42  1  0  0  0  0
 41 40  1  0  0  0  0
 42 43  1  0  0  0  0
  8  7  2  0  0  0  0
  8  1  1  0  0  0  0
  2  1  1  0  0  0  0
  2  3  1  0  0  0  0
 25 30  1  0  0  0  0
 47 48  1  0  0  0  0
 30 24  1  0  0  0  0
  7  6  1  0  0  0  0
 10  9  2  0  0  0  0
  1  4  2  0  0  0  0
 44 43  1  0  0  0  0
 44 48  1  0  0  0  0
  4  5  1  0  0  0  0
  6  5  2  0  0  0  0
  6  9  1  0  0  0  0
 43 39  1  0  0  0  0
 40 39  1  0  0  0  0
 24 20  1  0  0  0  0
  9 11  2  0  0  0  0
  9 12  1  0  0  0  0
 39 37  1  0  0  0  0
 20 21  1  0  0  0  0
 20 18  1  0  0  0  0
 17 12  1  0  0  0  0
 17 18  1  0  0  0  0
 12 13  1  0  0  0  0
 37 38  2  0  0  0  0
 37 35  1  0  0  0  0
 21 22  1  0  0  0  0
 36 35  2  0  0  0  0
 36 31  1  0  0  0  0
 18 19  1  0  0  0  0
 22 23  2  0  0  0  0
 22 31  1  0  0  0  0
 35 34  1  0  0  0  0
 13 14  1  0  0  0  0
 31 32  2  0  0  0  0
 34 33  2  0  0  0  0
 15 14  1  0  0  0  0
 14 16  1  0  0  0  0
 32 33  1  0  0  0  0
A    1
C2
A    2
O39
A    3
C40
A    4
C3
A    5
C4
A    6
C5
A    7
C6
A    8
C7
A    9
S8
A   10
O9
A   11
O10
A   12
N11
A   13
C12
A   14
C13
A   15
C14
A   16
C15
A   17
C16
A   18
C17
A   19
O18
A   20
C19
A   21
N20
A   22
C21
A   23
O22
A   24
C32
A   25
C33
A   26
C34
A   27
C35
A   28
C36
A   29
C37
A   30
C38
A   31
C51
A   32
C52
A   33
C53
A   34
C54
A   35
C55
A   36
C56
A   37
C58
A   38
O59
A   39
N60
A   40
C61
A   41
C69
A   42
C70
A   43
C62
A   44
C63
A   45
N64
A   46
C65
A   47
C66
A   48
S67
A   49
C68
M  END
>  <InstanceId>
5UOV_8FP_A_201

>  <ChemCompId>
8FP

>  <PdbId>
5UOV

>  <ChainId>
A

>  <ResidueNumber>
201

>  <InsertionCode>


>  <Model>
1

>  <AltIds>


>  <MissingHeavyAtoms>
0

>  <ObservedFormula>
C37 N4 O6 S2

>  <Name>
N-[(2S,3R)-3-hydroxy-4-{[(4-methoxyphenyl)sulfonyl](2-methylpropyl)amino}-1-phenylbutan-2-yl]-3-[(2R)-2-(4-methyl-1,3-thiazol-2-yl)pyrrolidine-1-carbonyl]benzamide

>  <SystematicName>
~{N}-[(2~{S},3~{R})-4-[(4-methoxyphenyl)sulfonyl-(2-methylpropyl)amino]-3-oxidanyl-1-phenyl-butan-2-yl]-3-[(2~{R})-2-(4-methyl-1,3-thiazol-2-yl)pyrrolidin-1-yl]carbonyl-benzamide

>  <Synonyms>


>  <Type>
NON-POLYMER

>  <Formula>
C37 H44 N4 O6 S2

>  <MolecularWeight>
704.898

>  <ModifiedDate>
2017-05-05

>  <Parent>


>  <OneLetterCode>


>  <SubcomponentList>


>  <AmbiguousFlag>
N

>  <InChI>
InChI=1S/C37H44N4O6S2/c1-25(2)22-40(49(45,46)31-17-15-30(47-4)16-18-31)23-34(42)32(20-27-10-6-5-7-11-27)39-35(43)28-12-8-13-29(21-28)37(44)41-19-9-14-33(41)36-38-26(3)24-48-36/h5-8,10-13,15-18,21,24-25,32-34,42H,9,14,19-20,22-23H2,1-4H3,(H,39,43)/t32-,33+,34+/m0/s1

>  <InChIKey>
ZHCCHBWXFODCGA-LBFZIJHGSA-N

>  <SMILES>
Cc1csc(n1)[C@H]2CCCN2C(=O)c3cccc(c3)C(=O)N[C@@H](Cc4ccccc4)[C@@H](CN(CC(C)C)S(=O)(=O)c5ccc(cc5)OC)O

$$$$
