1U71_MXA_A_187
  RCSB PDB12061704113D
Coordinates from PDB:1U71:A:187 Model:1 without hydrogens
 24 26  0  0  0  0            999 V2000
   28.7960   13.1390   -4.3190   N 0  0  0  0  0  0  0  0  0  0  0  0
   27.5960   12.6440   -4.4550   C 0  0  0  0  0  0  0  0  0  0  0  0
   27.1960   12.3270   -5.7000   N 0  0  0  0  0  0  0  0  0  0  0  0
   26.7520   12.3650   -3.4240   N 0  0  0  0  0  0  0  0  0  0  0  0
   27.1020   12.6130   -2.2120   C 0  0  0  0  0  0  0  0  0  0  0  0
   26.1370   12.3020   -1.3320   N 0  0  0  0  0  0  0  0  0  0  0  0
   28.3750   13.2270   -1.9150   C 0  0  0  0  0  0  0  0  0  0  0  0
   28.9030   13.6070   -0.6740   C 0  0  0  0  0  0  0  0  0  0  0  0
   28.1790   13.4400    0.6520   C 0  0  0  0  0  0  0  0  0  0  0  0
   30.1710   14.1720   -0.6450   C 0  0  0  0  0  0  0  0  0  0  0  0
   30.8480   14.3570   -1.8610   C 0  0  0  0  0  0  0  0  0  0  0  0
   30.4070   14.0210   -3.0420   N 0  0  0  0  0  0  0  0  0  0  0  0
   29.1880   13.4550   -3.0760   C 0  0  0  0  0  0  0  0  0  0  0  0
   30.8230   14.6760    0.6050   C 0  0  0  0  0  0  0  0  0  0  0  0
   32.2470   14.3200    0.9540   C 0  0  0  0  0  0  0  0  0  0  0  0
   33.2770   15.2500    0.8970   C 0  0  0  0  0  0  0  0  0  0  0  0
   32.8830   16.5130    0.4990   O 0  0  0  0  0  0  0  0  0  0  0  0
   33.9050   17.4780    0.2510   C 0  0  0  0  0  0  0  0  0  0  0  0
   34.5470   14.8740    1.2670   C 0  0  0  0  0  0  0  0  0  0  0  0
   34.8080   13.5700    1.7060   C 0  0  0  0  0  0  0  0  0  0  0  0
   33.8190   12.6740    1.7400   C 0  0  0  0  0  0  0  0  0  0  0  0
   33.8000   11.3260    2.0990   O 0  0  0  0  0  0  0  0  0  0  0  0
   32.4620   10.8250    2.0700   C 0  0  0  0  0  0  0  0  0  0  0  0
   32.5330   13.0600    1.3960   C 0  0  0  0  0  0  0  0  0  0  0  0
  1  2  2  0  0  0  0
  1 13  1  0  0  0  0
  2  3  1  0  0  0  0
  2  4  1  0  0  0  0
  4  5  2  0  0  0  0
  5  6  1  0  0  0  0
  5  7  1  0  0  0  0
  7  8  1  0  0  0  0
  7 13  2  0  0  0  0
  8  9  1  0  0  0  0
  8 10  2  0  0  0  0
 10 11  1  0  0  0  0
 10 14  1  0  0  0  0
 11 12  2  0  0  0  0
 12 13  1  0  0  0  0
 14 15  1  0  0  0  0
 15 16  2  0  0  0  0
 15 24  1  0  0  0  0
 16 17  1  0  0  0  0
 16 19  1  0  0  0  0
 17 18  1  0  0  0  0
 19 20  2  0  0  0  0
 20 21  1  0  0  0  0
 21 22  1  0  0  0  0
 21 24  2  0  0  0  0
 22 23  1  0  0  0  0
A    1
N1
A    2
C2
A    3
N2
A    4
N3
A    5
C4
A    6
N4
A    7
C4A
A    8
C5
A    9
C5M
A   10
C6
A   11
C7
A   12
N8
A   13
C8A
A   14
C9
A   15
C1'
A   16
C2'
A   17
O2'
A   18
C21
A   19
C3'
A   20
C4'
A   21
C5'
A   22
O5'
A   23
C51
A   24
C6'
M  END
>  <InstanceId>
1U71_MXA_A_187

>  <ChemCompId>
MXA

>  <PdbId>
1U71

>  <ChainId>
A

>  <ResidueNumber>
187

>  <InsertionCode>


>  <Model>
1

>  <AltIds>


>  <MissingHeavyAtoms>
0

>  <ObservedFormula>
C17 N5 O2

>  <Name>
6-(2,5-DIMETHOXY-BENZYL)-5-METHYL-PYRIDO[2,3-D]PYRIMIDINE-2,4-DIAMINE

>  <SystematicName>
6-[(2,5-dimethoxyphenyl)methyl]-5-methyl-pyrido[3,2-e]pyrimidine-2,4-diamine

>  <Synonyms>


>  <Type>
NON-POLYMER

>  <Formula>
C17 H19 N5 O2

>  <MolecularWeight>
325.365

>  <ModifiedDate>
2011-06-04

>  <Parent>


>  <OneLetterCode>


>  <SubcomponentList>


>  <AmbiguousFlag>
N

>  <InChI>
InChI=1S/C17H19N5O2/c1-9-11(6-10-7-12(23-2)4-5-13(10)24-3)8-20-16-14(9)15(18)21-17(19)22-16/h4-5,7-8H,6H2,1-3H3,(H4,18,19,20,21,22)

>  <InChIKey>
VJXSSYDSOJBUAV-UHFFFAOYSA-N

>  <SMILES>
Cc1c(cnc2c1c(nc(n2)N)N)Cc3cc(ccc3OC)OC

$$$$
