3LPI_Z74_A_456
  RCSB PDB12061709383D
Coordinates from PDB:3LPI:A:456 Model:1 without hydrogens
 46 49  0  0  0  0            999 V2000
   26.8470   15.4820   24.3230   C 0  0  0  0  0  0  0  0  0  0  0  0
   26.8590   10.8750   18.9070   F 0  0  0  0  0  0  0  0  0  0  0  0
   23.5520   11.7160   23.4240   N 0  0  0  0  0  0  0  0  0  0  0  0
   18.1610   13.6830   24.2780   O 0  0  0  0  0  0  0  0  0  0  0  0
   17.7460   12.8380   25.3590   S 0  0  0  0  0  0  0  0  0  0  0  0
   27.0070   14.2550   23.6180   C 0  0  0  0  0  0  0  0  0  0  0  0
   22.8730   13.3690   18.3710   F 0  0  0  0  0  0  0  0  0  0  0  0
   28.7070   13.5230   21.8620   N 0  0  0  0  0  0  0  0  0  0  0  0
   17.1720   13.4280   26.5360   O 0  0  0  0  0  0  0  0  0  0  0  0
   25.8600   13.4590   23.3370   C 0  0  0  0  0  0  0  0  0  0  0  0
   19.2090   12.0450   25.9100   N 0  0  0  0  0  0  0  0  0  0  0  0
   29.2290   13.7560   24.0900   O 0  0  0  0  0  0  0  0  0  0  0  0
   24.5680   13.8820   23.7490   C 0  0  0  0  0  0  0  0  0  0  0  0
   21.0580    9.8280   26.4480   N 0  0  0  0  0  0  0  0  0  0  0  0
   22.2540   13.5770   23.2840   O 0  0  0  0  0  0  0  0  0  0  0  0
   24.4290   15.1150   24.4540   C 0  0  0  0  0  0  0  0  0  0  0  0
   21.0960    8.9550   23.7550   O 0  0  0  0  0  0  0  0  0  0  0  0
   25.5650   15.9210   24.7450   C 0  0  0  0  0  0  0  0  0  0  0  0
   23.3600   13.0780   23.4680   C 0  0  0  0  0  0  0  0  0  0  0  0
   28.3760   13.8350   23.2060   C 0  0  0  0  0  0  0  0  0  0  0  0
   29.9730   12.7570   21.6410   C 0  0  0  0  0  0  0  0  0  0  0  0
   27.9130   13.9060   20.6480   C 0  0  0  0  0  0  0  0  0  0  0  0
   28.5960   14.9910   19.7980   C 0  0  0  0  0  0  0  0  0  0  0  0
   28.7010   16.3390   20.5220   C 0  0  0  0  0  0  0  0  0  0  0  0
   29.7500   11.3400   21.0550   C 0  0  0  0  0  0  0  0  0  0  0  0
   28.9080   10.4240   21.9550   C 0  0  0  0  0  0  0  0  0  0  0  0
   25.4210   17.2280   25.4910   C 0  0  0  0  0  0  0  0  0  0  0  0
   22.5060   10.7690   22.9900   C 0  0  0  0  0  0  0  0  0  0  0  0
   22.0230    9.9310   24.2000   C 0  0  0  0  0  0  0  0  0  0  0  0
   21.3380   10.7460   25.3190   C 0  0  0  0  0  0  0  0  0  0  0  0
   23.0820    9.8770   21.8500   C 0  0  0  0  0  0  0  0  0  0  0  0
   23.7050   10.6680   20.7180   C 0  0  0  0  0  0  0  0  0  0  0  0
   22.9700   11.6920   20.0400   C 0  0  0  0  0  0  0  0  0  0  0  0
   23.5760   12.4160   18.9910   C 0  0  0  0  0  0  0  0  0  0  0  0
   24.9040   12.1590   18.5790   C 0  0  0  0  0  0  0  0  0  0  0  0
   25.6110   11.1450   19.2620   C 0  0  0  0  0  0  0  0  0  0  0  0
   25.0390   10.4000   20.3190   C 0  0  0  0  0  0  0  0  0  0  0  0
   20.0180   11.4220   24.8450   C 0  0  0  0  0  0  0  0  0  0  0  0
   19.0730   11.1750   27.1190   C 0  0  0  0  0  0  0  0  0  0  0  0
   20.3810   10.5050   27.5750   C 0  0  0  0  0  0  0  0  0  0  0  0
   16.6830   11.5370   24.7550   C 0  0  0  0  0  0  0  0  0  0  0  0
   16.6540   11.2460   23.3700   C 0  0  0  0  0  0  0  0  0  0  0  0
   15.8150   10.2110   22.8890   C 0  0  0  0  0  0  0  0  0  0  0  0
   15.0090    9.4700   23.7900   C 0  0  0  0  0  0  0  0  0  0  0  0
   15.0390    9.7610   25.1710   C 0  0  0  0  0  0  0  0  0  0  0  0
   15.8770   10.7970   25.6580   C 0  0  0  0  0  0  0  0  0  0  0  0
  6  1  2  0  0  0  0
  1 18  1  0  0  0  0
  2 36  1  0  0  0  0
 28  3  1  0  0  0  0
  3 19  1  0  0  0  0
  4  5  2  0  0  0  0
 41  5  1  0  0  0  0
  5 11  1  0  0  0  0
  5  9  2  0  0  0  0
 20  6  1  0  0  0  0
 10  6  1  0  0  0  0
  7 34  1  0  0  0  0
 22  8  1  0  0  0  0
 21  8  1  0  0  0  0
  8 20  1  0  0  0  0
 10 13  2  0  0  0  0
 38 11  1  0  0  0  0
 11 39  1  0  0  0  0
 20 12  2  0  0  0  0
 19 13  1  0  0  0  0
 13 16  1  0  0  0  0
 30 14  1  0  0  0  0
 14 40  1  0  0  0  0
 15 19  2  0  0  0  0
 16 18  2  0  0  0  0
 17 29  1  0  0  0  0
 18 27  1  0  0  0  0
 25 21  1  0  0  0  0
 23 22  1  0  0  0  0
 23 24  1  0  0  0  0
 25 26  1  0  0  0  0
 31 28  1  0  0  0  0
 28 29  1  0  0  0  0
 29 30  1  0  0  0  0
 38 30  1  0  0  0  0
 32 31  1  0  0  0  0
 33 32  2  0  0  0  0
 37 32  1  0  0  0  0
 34 33  1  0  0  0  0
 35 34  2  0  0  0  0
 35 36  1  0  0  0  0
 36 37  2  0  0  0  0
 39 40  1  0  0  0  0
 42 41  2  0  0  0  0
 41 46  1  0  0  0  0
 43 42  1  0  0  0  0
 43 44  2  0  0  0  0
 44 45  1  0  0  0  0
 45 46  2  0  0  0  0
A    1
C1
A    2
F1
A    3
N1
A    4
O1
A    5
S1
A    6
C2
A    7
F2
A    8
N2
A    9
O2
A   10
C3
A   11
N3
A   12
O3
A   13
C4
A   14
N4
A   15
O4
A   16
C5
A   17
O5
A   18
C6
A   19
C7
A   20
C8
A   21
C9
A   22
C10
A   23
C11
A   24
C12
A   25
C13
A   26
C14
A   27
C15
A   28
C16
A   29
C17
A   30
C18
A   31
C19
A   32
C20
A   33
C21
A   34
C22
A   35
C23
A   36
C24
A   37
C25
A   38
C26
A   39
C27
A   40
C28
A   41
C29
A   42
C30
A   43
C31
A   44
C32
A   45
C33
A   46
C34
M  END
>  <InstanceId>
3LPI_Z74_A_456

>  <ChemCompId>
Z74

>  <PdbId>
3LPI

>  <ChainId>
A

>  <ResidueNumber>
456

>  <InsertionCode>


>  <Model>
1

>  <AltIds>


>  <MissingHeavyAtoms>
0

>  <ObservedFormula>
C34 N4 O5 S F2

>  <Name>
N'-{(1S,2S)-1-(3,5-difluorobenzyl)-2-hydroxy-2-[(2R)-4-(phenylsulfonyl)piperazin-2-yl]ethyl}-5-methyl-N,N-dipropylbenzene-1,3-dicarboxamide

>  <SystematicName>
N1-[(1S,2S)-3-(3,5-difluorophenyl)-1-hydroxy-1-[(2R,4S)-4-(phenylsulfonyl)piperazin-2-yl]propan-2-yl]-5-methyl-N3,N3-dipropyl-benzene-1,3-dicarboxamide

>  <Synonyms>


>  <Type>
NON-POLYMER

>  <Formula>
C34 H42 F2 N4 O5 S

>  <MolecularWeight>
656.783

>  <ModifiedDate>
2011-06-04

>  <Parent>


>  <OneLetterCode>


>  <SubcomponentList>


>  <AmbiguousFlag>
N

>  <InChI>
InChI=1S/C34H42F2N4O5S/c1-4-12-39(13-5-2)34(43)26-16-23(3)15-25(20-26)33(42)38-30(19-24-17-27(35)21-28(36)18-24)32(41)31-22-40(14-11-37-31)46(44,45)29-9-7-6-8-10-29/h6-10,15-18,20-21,30-32,37,41H,4-5,11-14,19,22H2,1-3H3,(H,38,42)/t30-,31+,32-/m0/s1

>  <InChIKey>
KDRUCCZCGHVXGH-QAXCHELISA-N

>  <SMILES>
CCCN(CCC)C(=O)c1cc(cc(c1)C(=O)N[C@@H](Cc2cc(cc(c2)F)F)[C@@H]([C@H]3C[N@](CCN3)S(=O)(=O)c4ccccc4)O)C

$$$$
