3LPI_Z74_A_456


 49 52  0  0  0  0  0  0  0  0999 V2000
   22.1791   10.9314   22.9271 C   0  0  0  0  0  0  0  0  0  0  0  0
   23.3190   11.8084   23.2601 N   0  0  0  0  0  0  0  0  0  0  0  0
   22.1376   13.7502   23.2234 O   0  0  0  0  0  0  0  0  0  0  0  0
   23.2207   13.1801   23.3118 C   0  0  0  0  0  0  0  0  0  0  0  0
   24.1900   11.3926   23.4543 H   0  0  0  0  0  0  0  0  0  0  0  0
   26.9180   15.3554   23.8295 C   0  0  0  0  0  0  0  0  0  0  0  0
   26.9542   14.0551   23.2497 C   0  0  0  0  0  0  0  0  0  0  0  0
   25.7376   13.3344   23.0801 C   0  0  0  0  0  0  0  0  0  0  0  0
   24.4987   13.9036   23.4790 C   0  0  0  0  0  0  0  0  0  0  0  0
   24.4839   15.2080   24.0577 C   0  0  0  0  0  0  0  0  0  0  0  0
   25.6906   15.9405   24.2364 C   0  0  0  0  0  0  0  0  0  0  0  0
   25.6782   17.3228   24.8485 C   0  0  0  0  0  0  0  0  0  0  0  0
   28.5999   13.1992   21.4980 N   0  0  0  0  0  0  0  0  0  0  0  0
   29.0780   13.2483   23.7473 O   0  0  0  0  0  0  0  0  0  0  0  0
   28.2701   13.4825   22.8486 C   0  0  0  0  0  0  0  0  0  0  0  0
   29.7633   12.2876   21.2661 C   0  0  0  0  0  0  0  0  0  0  0  0
   29.3637   10.8023   21.0784 C   0  0  0  0  0  0  0  0  0  0  0  0
   29.3802    9.9881   22.3802 C   0  0  0  0  0  0  0  0  0  0  0  0
   27.8998   13.7436   20.2878 C   0  0  0  0  0  0  0  0  0  0  0  0
   28.6985   14.8478   19.5744 C   0  0  0  0  0  0  0  0  0  0  0  0
   28.8765   16.1061   20.4331 C   0  0  0  0  0  0  0  0  0  0  0  0
   20.8419    9.1127   23.8035 O   0  0  0  0  0  0  0  0  0  0  0  0
   21.7427   10.1390   24.1846 C   0  0  0  0  0  0  0  0  0  0  0  0
   21.2507    8.5618   23.1178 H   0  0  0  0  0  0  0  0  0  0  0  0
   18.8255   12.0869   25.9187 N   0  0  0  0  0  0  0  0  0  0  0  0
   20.9695   10.1687   26.5077 N   0  0  0  0  0  0  0  0  0  0  0  0
   21.0483   10.9856   25.2739 C   0  0  0  0  0  0  0  0  0  0  0  0
   19.6230   11.4500   24.8532 C   0  0  0  0  0  0  0  0  0  0  0  0
   18.8893   11.3427   27.2144 C   0  0  0  0  0  0  0  0  0  0  0  0
   20.3007   10.8809   27.6177 C   0  0  0  0  0  0  0  0  0  0  0  0
   21.9160    9.9246   26.7991 H   0  0  0  0  0  0  0  0  0  0  0  0
   17.4858   13.6919   24.4786 O   0  0  0  0  0  0  0  0  0  0  0  0
   17.2385   12.6421   25.4227 S   0  0  0  0  0  0  0  0  0  0  0  0
   16.5456   12.9405   26.6449 O   0  0  0  0  0  0  0  0  0  0  0  0
   16.4652   11.2511   24.6136 C   0  0  0  0  0  0  0  0  0  0  0  0
   16.0021   10.1615   25.3894 C   0  0  0  0  0  0  0  0  0  0  0  0
   15.3839    9.0589   24.7501 C   0  0  0  0  0  0  0  0  0  0  0  0
   15.2293    9.0469   23.3407 C   0  0  0  0  0  0  0  0  0  0  0  0
   15.6914   10.1343   22.5681 C   0  0  0  0  0  0  0  0  0  0  0  0
   16.3118   11.2408   23.2032 C   0  0  0  0  0  0  0  0  0  0  0  0
   22.5971    9.9922   21.7566 C   0  0  0  0  0  0  0  0  0  0  0  0
   26.7080   10.4853   19.1526 F   0  0  0  0  0  0  0  0  0  0  0  0
   23.1199   13.4414   18.2679 F   0  0  0  0  0  0  0  0  0  0  0  0
   23.4079   10.6874   20.6821 C   0  0  0  0  0  0  0  0  0  0  0  0
   22.8657   11.7854   19.9412 C   0  0  0  0  0  0  0  0  0  0  0  0
   23.6443   12.4171   18.9481 C   0  0  0  0  0  0  0  0  0  0  0  0
   24.9612   11.9947   18.6537 C   0  0  0  0  0  0  0  0  0  0  0  0
   25.4766   10.9101   19.3971 C   0  0  0  0  0  0  0  0  0  0  0  0
   24.7283   10.2535   20.4012 C   0  0  0  0  0  0  0  0  0  0  0  0
  7  6  2  0  0  0
  6 11  1  0  0  0
 42 48  1  0  0  0
  1  2  1  0  0  0
  2  4  1  0  0  0
 32 33  2  0  0  0
 35 33  1  0  0  0
 33 25  1  0  0  0
 33 34  2  0  0  0
 15  7  1  0  0  0
  8  7  1  0  0  0
 43 46  1  0  0  0
 19 13  1  0  0  0
 16 13  1  0  0  0
 13 15  1  0  0  0
  8  9  2  0  0  0
 28 25  1  0  0  0
 25 29  1  0  0  0
 15 14  2  0  0  0
  4  9  1  0  0  0
  9 10  1  0  0  0
 27 26  1  0  0  0
 26 30  1  0  0  0
  3  4  2  0  0  0
 10 11  2  0  0  0
 22 23  1  0  0  0
 11 12  1  0  0  0
 17 16  1  0  0  0
 20 19  1  0  0  0
 20 21  1  0  0  0
 17 18  1  0  0  0
 41  1  1  0  0  0
  1 23  1  0  0  0
 23 27  1  0  0  0
 28 27  1  0  0  0
 44 41  1  0  0  0
 45 44  2  0  0  0
 49 44  1  0  0  0
 46 45  1  0  0  0
 47 46  2  0  0  0
 47 48  1  0  0  0
 48 49  2  0  0  0
 29 30  1  0  0  0
 36 35  2  0  0  0
 35 40  1  0  0  0
 37 36  1  0  0  0
 37 38  2  0  0  0
 38 39  1  0  0  0
 39 40  2  0  0  0
  2  5  1  0  0  0
 26 31  1  0  0  0
 22 24  1  0  0  0
M  END
> <minimizedAffinity>
-12.07312

$$$$
3LPI_Z74_A_456


 49 52  0  0  0  0  0  0  0  0999 V2000
   22.1710   10.9812   22.8735 C   0  0  0  0  0  0  0  0  0  0  0  0
   23.3415   11.8196   23.1994 N   0  0  0  0  0  0  0  0  0  0  0  0
   22.2315   13.8025   23.1400 O   0  0  0  0  0  0  0  0  0  0  0  0
   23.2931   13.1944   23.2364 C   0  0  0  0  0  0  0  0  0  0  0  0
   24.1965   11.3745   23.3995 H   0  0  0  0  0  0  0  0  0  0  0  0
   27.1348   15.1256   23.6619 C   0  0  0  0  0  0  0  0  0  0  0  0
   26.0205   15.6312   24.3904 C   0  0  0  0  0  0  0  0  0  0  0  0
   24.7523   14.9986   24.2503 C   0  0  0  0  0  0  0  0  0  0  0  0
   24.5963   13.8727   23.3983 C   0  0  0  0  0  0  0  0  0  0  0  0
   25.7256   13.3812   22.6772 C   0  0  0  0  0  0  0  0  0  0  0  0
   26.9991   14.0032   22.8039 C   0  0  0  0  0  0  0  0  0  0  0  0
   28.1974   13.4846   22.0420 C   0  0  0  0  0  0  0  0  0  0  0  0
   26.2279   18.1458   24.7692 N   0  0  0  0  0  0  0  0  0  0  0  0
   26.3759   16.6063   26.4718 O   0  0  0  0  0  0  0  0  0  0  0  0
   26.2144   16.8183   25.2700 C   0  0  0  0  0  0  0  0  0  0  0  0
   26.8066   19.1966   25.6632 C   0  0  0  0  0  0  0  0  0  0  0  0
   28.3559   19.2221   25.6735 C   0  0  0  0  0  0  0  0  0  0  0  0
   28.9683   19.0303   27.0685 C   0  0  0  0  0  0  0  0  0  0  0  0
   25.7003   18.5895   23.4366 C   0  0  0  0  0  0  0  0  0  0  0  0
   26.7546   19.3117   22.5805 C   0  0  0  0  0  0  0  0  0  0  0  0
   27.7257   18.3468   21.8890 C   0  0  0  0  0  0  0  0  0  0  0  0
   20.8416    9.1482   23.7319 O   0  0  0  0  0  0  0  0  0  0  0  0
   21.7434   10.1701   24.1221 C   0  0  0  0  0  0  0  0  0  0  0  0
   21.2469    8.6077   23.0359 H   0  0  0  0  0  0  0  0  0  0  0  0
   18.8313   12.0792   25.9073 N   0  0  0  0  0  0  0  0  0  0  0  0
   20.9938   10.1691   26.4531 N   0  0  0  0  0  0  0  0  0  0  0  0
   21.0545   11.0000   25.2277 C   0  0  0  0  0  0  0  0  0  0  0  0
   19.6220   11.4594   24.8268 C   0  0  0  0  0  0  0  0  0  0  0  0
   18.9133   11.3212   27.1940 C   0  0  0  0  0  0  0  0  0  0  0  0
   20.3317   10.8645   27.5778 C   0  0  0  0  0  0  0  0  0  0  0  0
   21.9448    9.9281   26.7322 H   0  0  0  0  0  0  0  0  0  0  0  0
   17.4663   13.6934   24.5014 O   0  0  0  0  0  0  0  0  0  0  0  0
   17.2356   12.6291   25.4336 S   0  0  0  0  0  0  0  0  0  0  0  0
   16.5521   12.9060   26.6662 O   0  0  0  0  0  0  0  0  0  0  0  0
   16.4650   11.2434   24.6131 C   0  0  0  0  0  0  0  0  0  0  0  0
   16.2853   11.2754   23.2094 C   0  0  0  0  0  0  0  0  0  0  0  0
   15.6785   10.1751   22.5555 C   0  0  0  0  0  0  0  0  0  0  0  0
   15.2539    9.0474   23.3028 C   0  0  0  0  0  0  0  0  0  0  0  0
   15.4339    9.0166   24.7026 C   0  0  0  0  0  0  0  0  0  0  0  0
   16.0405   10.1162   25.3626 C   0  0  0  0  0  0  0  0  0  0  0  0
   22.5357   10.0601   21.6712 C   0  0  0  0  0  0  0  0  0  0  0  0
   23.2953   13.4285   18.2072 F   0  0  0  0  0  0  0  0  0  0  0  0
   26.8404   10.4900   19.2993 F   0  0  0  0  0  0  0  0  0  0  0  0
   23.4311   10.7269   20.6471 C   0  0  0  0  0  0  0  0  0  0  0  0
   24.7761   10.2830   20.4408 C   0  0  0  0  0  0  0  0  0  0  0  0
   25.5874   10.9200   19.4775 C   0  0  0  0  0  0  0  0  0  0  0  0
   25.1105   11.9997   18.6988 C   0  0  0  0  0  0  0  0  0  0  0  0
   23.7804   12.4209   18.9183 C   0  0  0  0  0  0  0  0  0  0  0  0
   22.9366   11.8065   19.8721 C   0  0  0  0  0  0  0  0  0  0  0  0
  7  6  2  0  0  0
  6 11  1  0  0  0
 42 48  1  0  0  0
  1  2  1  0  0  0
  2  4  1  0  0  0
 32 33  2  0  0  0
 35 33  1  0  0  0
 33 25  1  0  0  0
 33 34  2  0  0  0
 15  7  1  0  0  0
  8  7  1  0  0  0
 43 46  1  0  0  0
 19 13  1  0  0  0
 16 13  1  0  0  0
 13 15  1  0  0  0
  8  9  2  0  0  0
 28 25  1  0  0  0
 25 29  1  0  0  0
 15 14  2  0  0  0
  4  9  1  0  0  0
  9 10  1  0  0  0
 27 26  1  0  0  0
 26 30  1  0  0  0
  3  4  2  0  0  0
 10 11  2  0  0  0
 22 23  1  0  0  0
 11 12  1  0  0  0
 17 16  1  0  0  0
 20 19  1  0  0  0
 20 21  1  0  0  0
 17 18  1  0  0  0
 41  1  1  0  0  0
  1 23  1  0  0  0
 23 27  1  0  0  0
 28 27  1  0  0  0
 44 41  1  0  0  0
 45 44  2  0  0  0
 49 44  1  0  0  0
 46 45  1  0  0  0
 47 46  2  0  0  0
 47 48  1  0  0  0
 48 49  2  0  0  0
 29 30  1  0  0  0
 36 35  2  0  0  0
 35 40  1  0  0  0
 37 36  1  0  0  0
 37 38  2  0  0  0
 38 39  1  0  0  0
 39 40  2  0  0  0
  2  5  1  0  0  0
 26 31  1  0  0  0
 22 24  1  0  0  0
M  END
> <minimizedAffinity>
-10.88309

$$$$
3LPI_Z74_A_456


 49 52  0  0  0  0  0  0  0  0999 V2000
   22.4047   11.1028   23.4559 C   0  0  0  0  0  0  0  0  0  0  0  0
   23.5460   12.0243   23.6217 N   0  0  0  0  0  0  0  0  0  0  0  0
   22.3054   13.9290   23.6497 O   0  0  0  0  0  0  0  0  0  0  0  0
   23.4096   13.3937   23.6332 C   0  0  0  0  0  0  0  0  0  0  0  0
   24.4467   11.6414   23.7290 H   0  0  0  0  0  0  0  0  0  0  0  0
   27.0676   15.6934   23.6317 C   0  0  0  0  0  0  0  0  0  0  0  0
   27.1016   14.3368   23.1997 C   0  0  0  0  0  0  0  0  0  0  0  0
   25.8982   13.5753   23.2016 C   0  0  0  0  0  0  0  0  0  0  0  0
   24.6740   14.1590   23.6242 C   0  0  0  0  0  0  0  0  0  0  0  0
   24.6611   15.5201   24.0530 C   0  0  0  0  0  0  0  0  0  0  0  0
   25.8550   16.2943   24.0596 C   0  0  0  0  0  0  0  0  0  0  0  0
   25.8445   17.7366   24.5126 C   0  0  0  0  0  0  0  0  0  0  0  0
   28.6327   13.2905   21.4474 N   0  0  0  0  0  0  0  0  0  0  0  0
   29.2893   13.6682   23.6193 O   0  0  0  0  0  0  0  0  0  0  0  0
   28.4025   13.7510   22.7696 C   0  0  0  0  0  0  0  0  0  0  0  0
   29.8089   12.3886   21.2440 C   0  0  0  0  0  0  0  0  0  0  0  0
   29.4334   10.9879   20.6982 C   0  0  0  0  0  0  0  0  0  0  0  0
   28.9985    9.9961   21.7869 C   0  0  0  0  0  0  0  0  0  0  0  0
   27.8155   13.6397   20.2386 C   0  0  0  0  0  0  0  0  0  0  0  0
   28.4075   14.8040   19.4260 C   0  0  0  0  0  0  0  0  0  0  0  0
   29.1725   15.8104   20.2945 C   0  0  0  0  0  0  0  0  0  0  0  0
   22.1024    9.0346   24.6786 O   0  0  0  0  0  0  0  0  0  0  0  0
   22.0604   10.4451   24.8154 C   0  0  0  0  0  0  0  0  0  0  0  0
   22.9658    8.7696   24.3248 H   0  0  0  0  0  0  0  0  0  0  0  0
   19.4616   12.3926   26.9983 N   0  0  0  0  0  0  0  0  0  0  0  0
   19.8620   11.3766   24.2724 N   0  0  0  0  0  0  0  0  0  0  0  0
   20.6713   10.8157   25.3798 C   0  0  0  0  0  0  0  0  0  0  0  0
   20.7540   11.8411   26.5485 C   0  0  0  0  0  0  0  0  0  0  0  0
   18.5785   12.8012   25.8624 C   0  0  0  0  0  0  0  0  0  0  0  0
   18.5095   11.7852   24.7088 C   0  0  0  0  0  0  0  0  0  0  0  0
   19.7705   10.6690   23.5435 H   0  0  0  0  0  0  0  0  0  0  0  0
   20.5428   14.4846   27.9466 O   0  0  0  0  0  0  0  0  0  0  0  0
   19.5638   13.5148   28.3411 S   0  0  0  0  0  0  0  0  0  0  0  0
   19.8059   12.6971   29.4969 O   0  0  0  0  0  0  0  0  0  0  0  0
   17.9535   14.2757   28.4655 C   0  0  0  0  0  0  0  0  0  0  0  0
   17.6302   15.3666   27.6233 C   0  0  0  0  0  0  0  0  0  0  0  0
   16.3515   15.9689   27.7168 C   0  0  0  0  0  0  0  0  0  0  0  0
   15.4003   15.4813   28.6484 C   0  0  0  0  0  0  0  0  0  0  0  0
   15.7238   14.3931   29.4875 C   0  0  0  0  0  0  0  0  0  0  0  0
   17.0032   13.7867   29.3985 C   0  0  0  0  0  0  0  0  0  0  0  0
   22.7685   10.0482   22.3684 C   0  0  0  0  0  0  0  0  0  0  0  0
   22.7253   13.2049   18.6325 F   0  0  0  0  0  0  0  0  0  0  0  0
   26.4385   10.3055   19.0812 F   0  0  0  0  0  0  0  0  0  0  0  0
   23.4114   10.6475   21.1344 C   0  0  0  0  0  0  0  0  0  0  0  0
   24.6794   10.1816   20.6615 C   0  0  0  0  0  0  0  0  0  0  0  0
   25.2540   10.7553   19.5072 C   0  0  0  0  0  0  0  0  0  0  0  0
   24.6113   11.7921   18.7921 C   0  0  0  0  0  0  0  0  0  0  0  0
   23.3609   12.2360   19.2758 C   0  0  0  0  0  0  0  0  0  0  0  0
   22.7523   11.6846   20.4269 C   0  0  0  0  0  0  0  0  0  0  0  0
  7  6  2  0  0  0
  6 11  1  0  0  0
 42 48  1  0  0  0
  1  2  1  0  0  0
  2  4  1  0  0  0
 32 33  2  0  0  0
 35 33  1  0  0  0
 33 25  1  0  0  0
 33 34  2  0  0  0
 15  7  1  0  0  0
  8  7  1  0  0  0
 43 46  1  0  0  0
 19 13  1  0  0  0
 16 13  1  0  0  0
 13 15  1  0  0  0
  8  9  2  0  0  0
 28 25  1  0  0  0
 25 29  1  0  0  0
 15 14  2  0  0  0
  4  9  1  0  0  0
  9 10  1  0  0  0
 27 26  1  0  0  0
 26 30  1  0  0  0
  3  4  2  0  0  0
 10 11  2  0  0  0
 22 23  1  0  0  0
 11 12  1  0  0  0
 17 16  1  0  0  0
 20 19  1  0  0  0
 20 21  1  0  0  0
 17 18  1  0  0  0
 41  1  1  0  0  0
  1 23  1  0  0  0
 23 27  1  0  0  0
 28 27  1  0  0  0
 44 41  1  0  0  0
 45 44  2  0  0  0
 49 44  1  0  0  0
 46 45  1  0  0  0
 47 46  2  0  0  0
 47 48  1  0  0  0
 48 49  2  0  0  0
 29 30  1  0  0  0
 36 35  2  0  0  0
 35 40  1  0  0  0
 37 36  1  0  0  0
 37 38  2  0  0  0
 38 39  1  0  0  0
 39 40  2  0  0  0
  2  5  1  0  0  0
 26 31  1  0  0  0
 22 24  1  0  0  0
M  END
> <minimizedAffinity>
-10.65647

$$$$
3LPI_Z74_A_456


 49 52  0  0  0  0  0  0  0  0999 V2000
   27.8791   12.2802   20.8442 C   0  0  0  0  0  0  0  0  0  0  0  0
   26.9835   13.0470   21.7326 N   0  0  0  0  0  0  0  0  0  0  0  0
   28.0949   12.5648   23.6562 O   0  0  0  0  0  0  0  0  0  0  0  0
   27.1235   13.0696   23.1014 C   0  0  0  0  0  0  0  0  0  0  0  0
   26.2521   13.5663   21.3269 H   0  0  0  0  0  0  0  0  0  0  0  0
   23.9831   15.0760   25.2882 C   0  0  0  0  0  0  0  0  0  0  0  0
   23.6838   13.8664   24.5987 C   0  0  0  0  0  0  0  0  0  0  0  0
   24.7160   13.2041   23.8747 C   0  0  0  0  0  0  0  0  0  0  0  0
   26.0322   13.7374   23.8416 C   0  0  0  0  0  0  0  0  0  0  0  0
   26.3117   14.9504   24.5395 C   0  0  0  0  0  0  0  0  0  0  0  0
   25.2913   15.6261   25.2655 C   0  0  0  0  0  0  0  0  0  0  0  0
   25.5843   16.9108   26.0064 C   0  0  0  0  0  0  0  0  0  0  0  0
   21.7589   12.6918   25.7922 N   0  0  0  0  0  0  0  0  0  0  0  0
   21.6053   13.4702   23.6332 O   0  0  0  0  0  0  0  0  0  0  0  0
   22.2919   13.3366   24.6461 C   0  0  0  0  0  0  0  0  0  0  0  0
   20.5206   11.8766   25.5910 C   0  0  0  0  0  0  0  0  0  0  0  0
   20.7924   10.3599   25.4281 C   0  0  0  0  0  0  0  0  0  0  0  0
   21.2031    9.9545   24.0051 C   0  0  0  0  0  0  0  0  0  0  0  0
   22.3144   12.7686   27.1838 C   0  0  0  0  0  0  0  0  0  0  0  0
   21.3463   13.4223   28.1846 C   0  0  0  0  0  0  0  0  0  0  0  0
   20.7273   12.4153   29.1619 C   0  0  0  0  0  0  0  0  0  0  0  0
   30.2292   12.5298   21.3722 O   0  0  0  0  0  0  0  0  0  0  0  0
   29.1808   13.0818   20.5937 C   0  0  0  0  0  0  0  0  0  0  0  0
   30.3112   11.5828   21.1792 H   0  0  0  0  0  0  0  0  0  0  0  0
   30.1838   16.4525   22.3094 N   0  0  0  0  0  0  0  0  0  0  0  0
   29.3901   15.3535   19.7045 N   0  0  0  0  0  0  0  0  0  0  0  0
   29.0904   14.5853   20.9357 C   0  0  0  0  0  0  0  0  0  0  0  0
   30.0703   15.0008   22.0720 C   0  0  0  0  0  0  0  0  0  0  0  0
   30.3163   17.2385   21.0438 C   0  0  0  0  0  0  0  0  0  0  0  0
   29.3494   16.8153   19.9241 C   0  0  0  0  0  0  0  0  0  0  0  0
   28.7018   15.1107   18.9920 H   0  0  0  0  0  0  0  0  0  0  0  0
   31.6246   18.2657   23.3494 O   0  0  0  0  0  0  0  0  0  0  0  0
   31.2588   16.9059   23.6178 S   0  0  0  0  0  0  0  0  0  0  0  0
   32.2758   15.8919   23.6373 O   0  0  0  0  0  0  0  0  0  0  0  0
   30.2811   16.8104   25.1086 C   0  0  0  0  0  0  0  0  0  0  0  0
   29.9097   18.0015   25.7771 C   0  0  0  0  0  0  0  0  0  0  0  0
   29.1299   17.9285   26.9574 C   0  0  0  0  0  0  0  0  0  0  0  0
   28.7231   16.6691   27.4663 C   0  0  0  0  0  0  0  0  0  0  0  0
   29.0940   15.4819   26.7985 C   0  0  0  0  0  0  0  0  0  0  0  0
   29.8754   15.5493   25.6164 C   0  0  0  0  0  0  0  0  0  0  0  0
   27.1195   11.9648   19.5211 C   0  0  0  0  0  0  0  0  0  0  0  0
   22.3528   12.9164   18.9775 F   0  0  0  0  0  0  0  0  0  0  0  0
   23.6091    8.9616   21.2528 F   0  0  0  0  0  0  0  0  0  0  0  0
   25.6644   11.5987   19.7305 C   0  0  0  0  0  0  0  0  0  0  0  0
   25.2958   10.4002   20.4206 C   0  0  0  0  0  0  0  0  0  0  0  0
   23.9325   10.0851   20.6048 C   0  0  0  0  0  0  0  0  0  0  0  0
   22.9024   10.9246   20.1215 C   0  0  0  0  0  0  0  0  0  0  0  0
   23.2885   12.1021   19.4442 C   0  0  0  0  0  0  0  0  0  0  0  0
   24.6434   12.4529   19.2423 C   0  0  0  0  0  0  0  0  0  0  0  0
  7  6  2  0  0  0
  6 11  1  0  0  0
 42 48  1  0  0  0
  1  2  1  0  0  0
  2  4  1  0  0  0
 32 33  2  0  0  0
 35 33  1  0  0  0
 33 25  1  0  0  0
 33 34  2  0  0  0
 15  7  1  0  0  0
  8  7  1  0  0  0
 43 46  1  0  0  0
 19 13  1  0  0  0
 16 13  1  0  0  0
 13 15  1  0  0  0
  8  9  2  0  0  0
 28 25  1  0  0  0
 25 29  1  0  0  0
 15 14  2  0  0  0
  4  9  1  0  0  0
  9 10  1  0  0  0
 27 26  1  0  0  0
 26 30  1  0  0  0
  3  4  2  0  0  0
 10 11  2  0  0  0
 22 23  1  0  0  0
 11 12  1  0  0  0
 17 16  1  0  0  0
 20 19  1  0  0  0
 20 21  1  0  0  0
 17 18  1  0  0  0
 41  1  1  0  0  0
  1 23  1  0  0  0
 23 27  1  0  0  0
 28 27  1  0  0  0
 44 41  1  0  0  0
 45 44  2  0  0  0
 49 44  1  0  0  0
 46 45  1  0  0  0
 47 46  2  0  0  0
 47 48  1  0  0  0
 48 49  2  0  0  0
 29 30  1  0  0  0
 36 35  2  0  0  0
 35 40  1  0  0  0
 37 36  1  0  0  0
 37 38  2  0  0  0
 38 39  1  0  0  0
 39 40  2  0  0  0
  2  5  1  0  0  0
 26 31  1  0  0  0
 22 24  1  0  0  0
M  END
> <minimizedAffinity>
-10.08641

$$$$
3LPI_Z74_A_456


 49 52  0  0  0  0  0  0  0  0999 V2000
   27.9526   12.3471   20.7572 C   0  0  0  0  0  0  0  0  0  0  0  0
   27.1969   13.2468   21.6509 N   0  0  0  0  0  0  0  0  0  0  0  0
   28.1962   12.5587   23.5733 O   0  0  0  0  0  0  0  0  0  0  0  0
   27.3300   13.2296   23.0205 C   0  0  0  0  0  0  0  0  0  0  0  0
   26.5685   13.8889   21.2484 H   0  0  0  0  0  0  0  0  0  0  0  0
   24.5485   15.7411   25.1713 C   0  0  0  0  0  0  0  0  0  0  0  0
   24.3885   14.3269   25.2232 C   0  0  0  0  0  0  0  0  0  0  0  0
   25.3019   13.4964   24.5133 C   0  0  0  0  0  0  0  0  0  0  0  0
   26.3653   14.0671   23.7640 C   0  0  0  0  0  0  0  0  0  0  0  0
   26.5086   15.4865   23.7250 C   0  0  0  0  0  0  0  0  0  0  0  0
   25.6031   16.3306   24.4266 C   0  0  0  0  0  0  0  0  0  0  0  0
   25.7527   17.8345   24.3879 C   0  0  0  0  0  0  0  0  0  0  0  0
   22.1372   13.1396   25.4016 N   0  0  0  0  0  0  0  0  0  0  0  0
   23.3251   13.8545   27.2370 O   0  0  0  0  0  0  0  0  0  0  0  0
   23.2587   13.7591   26.0115 C   0  0  0  0  0  0  0  0  0  0  0  0
   20.9190   12.9656   26.2525 C   0  0  0  0  0  0  0  0  0  0  0  0
   20.8058   11.5622   26.8995 C   0  0  0  0  0  0  0  0  0  0  0  0
   20.6873   11.5946   28.4302 C   0  0  0  0  0  0  0  0  0  0  0  0
   22.0710   12.6309   23.9918 C   0  0  0  0  0  0  0  0  0  0  0  0
   22.7074   11.2409   23.8214 C   0  0  0  0  0  0  0  0  0  0  0  0
   21.6729   10.1370   23.5698 C   0  0  0  0  0  0  0  0  0  0  0  0
   30.2969   12.2752   21.3598 O   0  0  0  0  0  0  0  0  0  0  0  0
   29.3683   12.9243   20.5076 C   0  0  0  0  0  0  0  0  0  0  0  0
   30.2386   11.3157   21.2304 H   0  0  0  0  0  0  0  0  0  0  0  0
   30.6567   16.2026   22.2118 N   0  0  0  0  0  0  0  0  0  0  0  0
   30.1515   15.0426   19.5618 N   0  0  0  0  0  0  0  0  0  0  0  0
   29.4991   14.4441   20.7500 C   0  0  0  0  0  0  0  0  0  0  0  0
   30.3199   14.7777   22.0303 C   0  0  0  0  0  0  0  0  0  0  0  0
   31.1571   16.8446   20.9570 C   0  0  0  0  0  0  0  0  0  0  0  0
   30.3445   16.5026   19.6959 C   0  0  0  0  0  0  0  0  0  0  0  0
   29.5689   14.8636   18.7439 H   0  0  0  0  0  0  0  0  0  0  0  0
   32.1087   17.8712   23.4577 O   0  0  0  0  0  0  0  0  0  0  0  0
   31.5455   16.5714   23.6770 S   0  0  0  0  0  0  0  0  0  0  0  0
   32.4183   15.4489   23.8799 O   0  0  0  0  0  0  0  0  0  0  0  0
   30.3297   16.6356   24.9828 C   0  0  0  0  0  0  0  0  0  0  0  0
   29.8638   15.4311   25.5624 C   0  0  0  0  0  0  0  0  0  0  0  0
   28.9028   15.4797   26.6019 C   0  0  0  0  0  0  0  0  0  0  0  0
   28.4105   16.7281   27.0598 C   0  0  0  0  0  0  0  0  0  0  0  0
   28.8761   17.9286   26.4811 C   0  0  0  0  0  0  0  0  0  0  0  0
   29.8381   17.8856   25.4393 C   0  0  0  0  0  0  0  0  0  0  0  0
   27.1496   12.1677   19.4343 C   0  0  0  0  0  0  0  0  0  0  0  0
   22.3331   12.8551   18.9327 F   0  0  0  0  0  0  0  0  0  0  0  0
   23.8261    8.9564   21.1615 F   0  0  0  0  0  0  0  0  0  0  0  0
   25.7190   11.7185   19.6502 C   0  0  0  0  0  0  0  0  0  0  0  0
   25.4233   10.4950   20.3314 C   0  0  0  0  0  0  0  0  0  0  0  0
   24.0812   10.1022   20.5220 C   0  0  0  0  0  0  0  0  0  0  0  0
   23.0021   10.8869   20.0538 C   0  0  0  0  0  0  0  0  0  0  0  0
   23.3165   12.0904   19.3851 C   0  0  0  0  0  0  0  0  0  0  0  0
   24.6480   12.5185   19.1772 C   0  0  0  0  0  0  0  0  0  0  0  0
  7  6  2  0  0  0
  6 11  1  0  0  0
 42 48  1  0  0  0
  1  2  1  0  0  0
  2  4  1  0  0  0
 32 33  2  0  0  0
 35 33  1  0  0  0
 33 25  1  0  0  0
 33 34  2  0  0  0
 15  7  1  0  0  0
  8  7  1  0  0  0
 43 46  1  0  0  0
 19 13  1  0  0  0
 16 13  1  0  0  0
 13 15  1  0  0  0
  8  9  2  0  0  0
 28 25  1  0  0  0
 25 29  1  0  0  0
 15 14  2  0  0  0
  4  9  1  0  0  0
  9 10  1  0  0  0
 27 26  1  0  0  0
 26 30  1  0  0  0
  3  4  2  0  0  0
 10 11  2  0  0  0
 22 23  1  0  0  0
 11 12  1  0  0  0
 17 16  1  0  0  0
 20 19  1  0  0  0
 20 21  1  0  0  0
 17 18  1  0  0  0
 41  1  1  0  0  0
  1 23  1  0  0  0
 23 27  1  0  0  0
 28 27  1  0  0  0
 44 41  1  0  0  0
 45 44  2  0  0  0
 49 44  1  0  0  0
 46 45  1  0  0  0
 47 46  2  0  0  0
 47 48  1  0  0  0
 48 49  2  0  0  0
 29 30  1  0  0  0
 36 35  2  0  0  0
 35 40  1  0  0  0
 37 36  1  0  0  0
 37 38  2  0  0  0
 38 39  1  0  0  0
 39 40  2  0  0  0
  2  5  1  0  0  0
 26 31  1  0  0  0
 22 24  1  0  0  0
M  END
> <minimizedAffinity>
-10.00852

$$$$
3LPI_Z74_A_456


 49 52  0  0  0  0  0  0  0  0999 V2000
   24.1190   13.2636   24.3898 C   0  0  0  0  0  0  0  0  0  0  0  0
   22.7719   13.1245   24.9774 N   0  0  0  0  0  0  0  0  0  0  0  0
   22.8858   10.8759   25.2913 O   0  0  0  0  0  0  0  0  0  0  0  0
   22.2247   11.9094   25.3211 C   0  0  0  0  0  0  0  0  0  0  0  0
   22.2402   13.9388   25.1304 H   0  0  0  0  0  0  0  0  0  0  0  0
   18.0891   12.0125   26.5682 C   0  0  0  0  0  0  0  0  0  0  0  0
   18.3922   11.8727   25.1837 C   0  0  0  0  0  0  0  0  0  0  0  0
   19.7543   11.8411   24.7691 C   0  0  0  0  0  0  0  0  0  0  0  0
   20.8026   11.9428   25.7224 C   0  0  0  0  0  0  0  0  0  0  0  0
   20.4777   12.0819   27.1050 C   0  0  0  0  0  0  0  0  0  0  0  0
   19.1220   12.1178   27.5358 C   0  0  0  0  0  0  0  0  0  0  0  0
   18.7746   12.2643   28.9998 C   0  0  0  0  0  0  0  0  0  0  0  0
   16.6441   10.5450   23.8835 N   0  0  0  0  0  0  0  0  0  0  0  0
   16.9014   12.8208   23.6712 O   0  0  0  0  0  0  0  0  0  0  0  0
   17.2705   11.7762   24.2076 C   0  0  0  0  0  0  0  0  0  0  0  0
   15.8193   10.5174   22.6356 C   0  0  0  0  0  0  0  0  0  0  0  0
   15.9758    9.2132   21.8137 C   0  0  0  0  0  0  0  0  0  0  0  0
   14.7034    8.3548   21.7674 C   0  0  0  0  0  0  0  0  0  0  0  0
   16.7212    9.2798   24.6862 C   0  0  0  0  0  0  0  0  0  0  0  0
   15.3887    8.9111   25.3606 C   0  0  0  0  0  0  0  0  0  0  0  0
   14.6969   10.1139   26.0140 C   0  0  0  0  0  0  0  0  0  0  0  0
   24.2574   15.4423   25.4377 O   0  0  0  0  0  0  0  0  0  0  0  0
   24.9692   14.2305   25.2512 C   0  0  0  0  0  0  0  0  0  0  0  0
   23.3844   15.2499   25.8141 H   0  0  0  0  0  0  0  0  0  0  0  0
   28.1704   13.7673   23.0491 N   0  0  0  0  0  0  0  0  0  0  0  0
   26.1779   15.7893   23.8005 N   0  0  0  0  0  0  0  0  0  0  0  0
   26.3471   14.5886   24.6523 C   0  0  0  0  0  0  0  0  0  0  0  0
   26.9566   13.4259   23.8152 C   0  0  0  0  0  0  0  0  0  0  0  0
   28.0518   15.0707   22.3251 C   0  0  0  0  0  0  0  0  0  0  0  0
   27.4410   16.2114   23.1579 C   0  0  0  0  0  0  0  0  0  0  0  0
   25.8339   16.5552   24.3797 H   0  0  0  0  0  0  0  0  0  0  0  0
   28.8630   11.3249   23.0439 O   0  0  0  0  0  0  0  0  0  0  0  0
   28.8705   12.4400   22.1431 S   0  0  0  0  0  0  0  0  0  0  0  0
   30.1230   12.9407   21.6499 O   0  0  0  0  0  0  0  0  0  0  0  0
   27.7594   12.1406   20.7781 C   0  0  0  0  0  0  0  0  0  0  0  0
   27.2932   13.2313   20.0056 C   0  0  0  0  0  0  0  0  0  0  0  0
   26.4154   12.9958   18.9190 C   0  0  0  0  0  0  0  0  0  0  0  0
   26.0064   11.6746   18.6065 C   0  0  0  0  0  0  0  0  0  0  0  0
   26.4722   10.5877   19.3775 C   0  0  0  0  0  0  0  0  0  0  0  0
   27.3510   10.8180   20.4672 C   0  0  0  0  0  0  0  0  0  0  0  0
   23.9737   13.7595   22.9200 C   0  0  0  0  0  0  0  0  0  0  0  0
   22.2111   12.2961   18.5986 F   0  0  0  0  0  0  0  0  0  0  0  0
   23.6348    8.9968   21.6781 F   0  0  0  0  0  0  0  0  0  0  0  0
   23.6075   12.6608   21.9434 C   0  0  0  0  0  0  0  0  0  0  0  0
   23.8006   11.2821   22.2757 C   0  0  0  0  0  0  0  0  0  0  0  0
   23.4475   10.2786   21.3483 C   0  0  0  0  0  0  0  0  0  0  0  0
   22.9031   10.5933   20.0818 C   0  0  0  0  0  0  0  0  0  0  0  0
   22.7205   11.9597   19.7750 C   0  0  0  0  0  0  0  0  0  0  0  0
   23.0598   12.9932   20.6785 C   0  0  0  0  0  0  0  0  0  0  0  0
  7  6  2  0  0  0
  6 11  1  0  0  0
 42 48  1  0  0  0
  1  2  1  0  0  0
  2  4  1  0  0  0
 32 33  2  0  0  0
 35 33  1  0  0  0
 33 25  1  0  0  0
 33 34  2  0  0  0
 15  7  1  0  0  0
  8  7  1  0  0  0
 43 46  1  0  0  0
 19 13  1  0  0  0
 16 13  1  0  0  0
 13 15  1  0  0  0
  8  9  2  0  0  0
 28 25  1  0  0  0
 25 29  1  0  0  0
 15 14  2  0  0  0
  4  9  1  0  0  0
  9 10  1  0  0  0
 27 26  1  0  0  0
 26 30  1  0  0  0
  3  4  2  0  0  0
 10 11  2  0  0  0
 22 23  1  0  0  0
 11 12  1  0  0  0
 17 16  1  0  0  0
 20 19  1  0  0  0
 20 21  1  0  0  0
 17 18  1  0  0  0
 41  1  1  0  0  0
  1 23  1  0  0  0
 23 27  1  0  0  0
 28 27  1  0  0  0
 44 41  1  0  0  0
 45 44  2  0  0  0
 49 44  1  0  0  0
 46 45  1  0  0  0
 47 46  2  0  0  0
 47 48  1  0  0  0
 48 49  2  0  0  0
 29 30  1  0  0  0
 36 35  2  0  0  0
 35 40  1  0  0  0
 37 36  1  0  0  0
 37 38  2  0  0  0
 38 39  1  0  0  0
 39 40  2  0  0  0
  2  5  1  0  0  0
 26 31  1  0  0  0
 22 24  1  0  0  0
M  END
> <minimizedAffinity>
-9.76029

$$$$
3LPI_Z74_A_456


 49 52  0  0  0  0  0  0  0  0999 V2000
   29.9129   14.2393   21.2465 C   0  0  0  0  0  0  0  0  0  0  0  0
   28.6823   14.7371   21.8922 N   0  0  0  0  0  0  0  0  0  0  0  0
   28.8838   13.4816   23.7766 O   0  0  0  0  0  0  0  0  0  0  0  0
   28.2191   14.2567   23.0958 C   0  0  0  0  0  0  0  0  0  0  0  0
   28.1690   15.4457   21.4409 H   0  0  0  0  0  0  0  0  0  0  0  0
   24.3325   15.7345   24.2706 C   0  0  0  0  0  0  0  0  0  0  0  0
   24.5572   14.3287   24.2333 C   0  0  0  0  0  0  0  0  0  0  0  0
   25.8363   13.8384   23.8439 C   0  0  0  0  0  0  0  0  0  0  0  0
   26.8811   14.7373   23.5001 C   0  0  0  0  0  0  0  0  0  0  0  0
   26.6357   16.1425   23.5443 C   0  0  0  0  0  0  0  0  0  0  0  0
   25.3628   16.6490   23.9288 C   0  0  0  0  0  0  0  0  0  0  0  0
   25.0998   18.1369   23.9774 C   0  0  0  0  0  0  0  0  0  0  0  0
   22.5167   12.9200   23.6325 N   0  0  0  0  0  0  0  0  0  0  0  0
   23.3319   13.0931   25.7763 O   0  0  0  0  0  0  0  0  0  0  0  0
   23.4391   13.4115   24.5921 C   0  0  0  0  0  0  0  0  0  0  0  0
   21.2420   12.3404   24.1593 C   0  0  0  0  0  0  0  0  0  0  0  0
   21.1018   10.8168   23.9144 C   0  0  0  0  0  0  0  0  0  0  0  0
   22.2711    9.9909   24.4700 C   0  0  0  0  0  0  0  0  0  0  0  0
   22.7127   12.9143   22.1450 C   0  0  0  0  0  0  0  0  0  0  0  0
   23.6852   11.8217   21.6688 C   0  0  0  0  0  0  0  0  0  0  0  0
   23.0164   10.7800   20.7634 C   0  0  0  0  0  0  0  0  0  0  0  0
   31.4442   15.0522   19.5558 O   0  0  0  0  0  0  0  0  0  0  0  0
   30.7566   15.4337   20.7354 C   0  0  0  0  0  0  0  0  0  0  0  0
   30.8079   14.7173   18.9047 H   0  0  0  0  0  0  0  0  0  0  0  0
   32.0986   17.2832   23.9120 N   0  0  0  0  0  0  0  0  0  0  0  0
   32.4329   14.7885   22.3994 N   0  0  0  0  0  0  0  0  0  0  0  0
   31.8087   15.9580   21.7373 C   0  0  0  0  0  0  0  0  0  0  0  0
   31.1954   16.9084   22.8071 C   0  0  0  0  0  0  0  0  0  0  0  0
   32.8545   16.1166   24.4641 C   0  0  0  0  0  0  0  0  0  0  0  0
   33.4500   15.1788   23.3994 C   0  0  0  0  0  0  0  0  0  0  0  0
   32.8793   14.2097   21.6879 H   0  0  0  0  0  0  0  0  0  0  0  0
   30.9761   19.5216   24.3292 O   0  0  0  0  0  0  0  0  0  0  0  0
   31.4101   18.3856   25.0881 S   0  0  0  0  0  0  0  0  0  0  0  0
   32.4273   18.5516   26.0884 O   0  0  0  0  0  0  0  0  0  0  0  0
   30.0051   17.5364   25.7898 C   0  0  0  0  0  0  0  0  0  0  0  0
   28.8526   18.2745   26.1513 C   0  0  0  0  0  0  0  0  0  0  0  0
   27.7349   17.6023   26.7037 C   0  0  0  0  0  0  0  0  0  0  0  0
   27.7699   16.1975   26.8930 C   0  0  0  0  0  0  0  0  0  0  0  0
   28.9197   15.4624   26.5318 C   0  0  0  0  0  0  0  0  0  0  0  0
   30.0422   16.1308   25.9788 C   0  0  0  0  0  0  0  0  0  0  0  0
   29.5149   13.2665   20.0966 C   0  0  0  0  0  0  0  0  0  0  0  0
   26.1649    9.7048   20.2170 F   0  0  0  0  0  0  0  0  0  0  0  0
   30.1249    9.1509   22.7481 F   0  0  0  0  0  0  0  0  0  0  0  0
   29.0378   11.9141   20.5851 C   0  0  0  0  0  0  0  0  0  0  0  0
   29.8355   11.1261   21.4745 C   0  0  0  0  0  0  0  0  0  0  0  0
   29.3653    9.8711   21.9169 C   0  0  0  0  0  0  0  0  0  0  0  0
   28.1148    9.3566   21.5034 C   0  0  0  0  0  0  0  0  0  0  0  0
   27.3438   10.1509   20.6263 C   0  0  0  0  0  0  0  0  0  0  0  0
   27.7798   11.4138   20.1634 C   0  0  0  0  0  0  0  0  0  0  0  0
  7  6  2  0  0  0
  6 11  1  0  0  0
 42 48  1  0  0  0
  1  2  1  0  0  0
  2  4  1  0  0  0
 32 33  2  0  0  0
 35 33  1  0  0  0
 33 25  1  0  0  0
 33 34  2  0  0  0
 15  7  1  0  0  0
  8  7  1  0  0  0
 43 46  1  0  0  0
 19 13  1  0  0  0
 16 13  1  0  0  0
 13 15  1  0  0  0
  8  9  2  0  0  0
 28 25  1  0  0  0
 25 29  1  0  0  0
 15 14  2  0  0  0
  4  9  1  0  0  0
  9 10  1  0  0  0
 27 26  1  0  0  0
 26 30  1  0  0  0
  3  4  2  0  0  0
 10 11  2  0  0  0
 22 23  1  0  0  0
 11 12  1  0  0  0
 17 16  1  0  0  0
 20 19  1  0  0  0
 20 21  1  0  0  0
 17 18  1  0  0  0
 41  1  1  0  0  0
  1 23  1  0  0  0
 23 27  1  0  0  0
 28 27  1  0  0  0
 44 41  1  0  0  0
 45 44  2  0  0  0
 49 44  1  0  0  0
 46 45  1  0  0  0
 47 46  2  0  0  0
 47 48  1  0  0  0
 48 49  2  0  0  0
 29 30  1  0  0  0
 36 35  2  0  0  0
 35 40  1  0  0  0
 37 36  1  0  0  0
 37 38  2  0  0  0
 38 39  1  0  0  0
 39 40  2  0  0  0
  2  5  1  0  0  0
 26 31  1  0  0  0
 22 24  1  0  0  0
M  END
> <minimizedAffinity>
-9.73189

$$$$
3LPI_Z74_A_456


 49 52  0  0  0  0  0  0  0  0999 V2000
   23.7712   13.3218   24.0214 C   0  0  0  0  0  0  0  0  0  0  0  0
   22.6012   13.0456   24.8782 N   0  0  0  0  0  0  0  0  0  0  0  0
   23.0311   10.8302   25.1523 O   0  0  0  0  0  0  0  0  0  0  0  0
   22.2787   11.7843   25.3244 C   0  0  0  0  0  0  0  0  0  0  0  0
   22.0249   13.7987   25.1428 H   0  0  0  0  0  0  0  0  0  0  0  0
   18.5083   11.4652   27.4106 C   0  0  0  0  0  0  0  0  0  0  0  0
   18.5675   11.1224   26.0296 C   0  0  0  0  0  0  0  0  0  0  0  0
   19.8081   11.2291   25.3384 C   0  0  0  0  0  0  0  0  0  0  0  0
   20.9774   11.6675   26.0155 C   0  0  0  0  0  0  0  0  0  0  0  0
   20.8971   12.0059   27.3996 C   0  0  0  0  0  0  0  0  0  0  0  0
   19.6649   11.9073   28.1044 C   0  0  0  0  0  0  0  0  0  0  0  0
   19.5767   12.2643   29.5708 C   0  0  0  0  0  0  0  0  0  0  0  0
   16.6017   11.5033   24.4484 N   0  0  0  0  0  0  0  0  0  0  0  0
   16.9228    9.5361   25.5962 O   0  0  0  0  0  0  0  0  0  0  0  0
   17.3222   10.6732   25.3457 C   0  0  0  0  0  0  0  0  0  0  0  0
   15.1957   11.0975   24.1374 C   0  0  0  0  0  0  0  0  0  0  0  0
   14.9837   10.6617   22.6656 C   0  0  0  0  0  0  0  0  0  0  0  0
   15.7390    9.3800   22.2852 C   0  0  0  0  0  0  0  0  0  0  0  0
   17.1279   12.7360   23.7740 C   0  0  0  0  0  0  0  0  0  0  0  0
   16.5297   14.0352   24.3400 C   0  0  0  0  0  0  0  0  0  0  0  0
   17.1311   14.4292   25.6948 C   0  0  0  0  0  0  0  0  0  0  0  0
   24.4283   15.6398   23.7786 O   0  0  0  0  0  0  0  0  0  0  0  0
   24.5845   14.5018   24.6095 C   0  0  0  0  0  0  0  0  0  0  0  0
   23.4841   15.8332   23.6694 H   0  0  0  0  0  0  0  0  0  0  0  0
   28.2646   13.9029   23.4221 N   0  0  0  0  0  0  0  0  0  0  0  0
   26.7125   15.4179   25.4017 N   0  0  0  0  0  0  0  0  0  0  0  0
   26.0992   14.2355   24.7524 C   0  0  0  0  0  0  0  0  0  0  0  0
   26.7909   13.9632   23.3844 C   0  0  0  0  0  0  0  0  0  0  0  0
   28.8700   15.0098   24.2254 C   0  0  0  0  0  0  0  0  0  0  0  0
   28.1747   15.2769   25.5718 C   0  0  0  0  0  0  0  0  0  0  0  0
   26.2872   15.5439   26.3202 H   0  0  0  0  0  0  0  0  0  0  0  0
   30.4241   13.8172   22.0901 O   0  0  0  0  0  0  0  0  0  0  0  0
   29.0300   13.5553   21.8838 S   0  0  0  0  0  0  0  0  0  0  0  0
   28.3015   14.3297   20.9180 O   0  0  0  0  0  0  0  0  0  0  0  0
   28.7640   11.8149   21.5880 C   0  0  0  0  0  0  0  0  0  0  0  0
   29.2830   10.8647   22.4999 C   0  0  0  0  0  0  0  0  0  0  0  0
   29.0692    9.4835   22.2700 C   0  0  0  0  0  0  0  0  0  0  0  0
   28.3386    9.0548   21.1328 C   0  0  0  0  0  0  0  0  0  0  0  0
   27.8213   10.0034   20.2243 C   0  0  0  0  0  0  0  0  0  0  0  0
   28.0332   11.3880   20.4495 C   0  0  0  0  0  0  0  0  0  0  0  0
   23.2725   13.6152   22.5749 C   0  0  0  0  0  0  0  0  0  0  0  0
   22.0403    9.0855   21.2014 F   0  0  0  0  0  0  0  0  0  0  0  0
   25.2651   11.4121   18.6357 F   0  0  0  0  0  0  0  0  0  0  0  0
   23.4079   12.4337   21.6362 C   0  0  0  0  0  0  0  0  0  0  0  0
   24.3086   12.4726   20.5246 C   0  0  0  0  0  0  0  0  0  0  0  0
   24.4175   11.3563   19.6678 C   0  0  0  0  0  0  0  0  0  0  0  0
   23.6540   10.1838   19.8718 C   0  0  0  0  0  0  0  0  0  0  0  0
   22.7723   10.1668   20.9749 C   0  0  0  0  0  0  0  0  0  0  0  0
   22.6373   11.2641   21.8565 C   0  0  0  0  0  0  0  0  0  0  0  0
  7  6  2  0  0  0
  6 11  1  0  0  0
 42 48  1  0  0  0
  1  2  1  0  0  0
  2  4  1  0  0  0
 32 33  2  0  0  0
 35 33  1  0  0  0
 33 25  1  0  0  0
 33 34  2  0  0  0
 15  7  1  0  0  0
  8  7  1  0  0  0
 43 46  1  0  0  0
 19 13  1  0  0  0
 16 13  1  0  0  0
 13 15  1  0  0  0
  8  9  2  0  0  0
 28 25  1  0  0  0
 25 29  1  0  0  0
 15 14  2  0  0  0
  4  9  1  0  0  0
  9 10  1  0  0  0
 27 26  1  0  0  0
 26 30  1  0  0  0
  3  4  2  0  0  0
 10 11  2  0  0  0
 22 23  1  0  0  0
 11 12  1  0  0  0
 17 16  1  0  0  0
 20 19  1  0  0  0
 20 21  1  0  0  0
 17 18  1  0  0  0
 41  1  1  0  0  0
  1 23  1  0  0  0
 23 27  1  0  0  0
 28 27  1  0  0  0
 44 41  1  0  0  0
 45 44  2  0  0  0
 49 44  1  0  0  0
 46 45  1  0  0  0
 47 46  2  0  0  0
 47 48  1  0  0  0
 48 49  2  0  0  0
 29 30  1  0  0  0
 36 35  2  0  0  0
 35 40  1  0  0  0
 37 36  1  0  0  0
 37 38  2  0  0  0
 38 39  1  0  0  0
 39 40  2  0  0  0
  2  5  1  0  0  0
 26 31  1  0  0  0
 22 24  1  0  0  0
M  END
> <minimizedAffinity>
-9.62669

$$$$
3LPI_Z74_A_456


 49 52  0  0  0  0  0  0  0  0999 V2000
   25.9958   14.3989   24.0951 C   0  0  0  0  0  0  0  0  0  0  0  0
   24.8584   13.6287   24.6358 N   0  0  0  0  0  0  0  0  0  0  0  0
   23.2891   14.5372   23.2648 O   0  0  0  0  0  0  0  0  0  0  0  0
   23.5601   13.8149   24.2192 C   0  0  0  0  0  0  0  0  0  0  0  0
   25.0370   12.9503   25.3266 H   0  0  0  0  0  0  0  0  0  0  0  0
   20.5889   11.7225   26.5566 C   0  0  0  0  0  0  0  0  0  0  0  0
   20.5496   11.6232   25.1365 C   0  0  0  0  0  0  0  0  0  0  0  0
   21.5258   12.3138   24.3631 C   0  0  0  0  0  0  0  0  0  0  0  0
   22.5325   13.0906   24.9964 C   0  0  0  0  0  0  0  0  0  0  0  0
   22.5548   13.1770   26.4207 C   0  0  0  0  0  0  0  0  0  0  0  0
   21.5853   12.4952   27.2082 C   0  0  0  0  0  0  0  0  0  0  0  0
   21.6066   12.5841   28.7172 C   0  0  0  0  0  0  0  0  0  0  0  0
   18.1302   11.2466   24.4195 N   0  0  0  0  0  0  0  0  0  0  0  0
   19.8003    9.7092   24.0483 O   0  0  0  0  0  0  0  0  0  0  0  0
   19.4767   10.8069   24.5017 C   0  0  0  0  0  0  0  0  0  0  0  0
   17.0987   10.2044   24.1224 C   0  0  0  0  0  0  0  0  0  0  0  0
   16.1304   10.5943   22.9773 C   0  0  0  0  0  0  0  0  0  0  0  0
   15.2001    9.4540   22.5387 C   0  0  0  0  0  0  0  0  0  0  0  0
   17.6535   12.6593   24.5863 C   0  0  0  0  0  0  0  0  0  0  0  0
   16.7411   12.8477   25.8104 C   0  0  0  0  0  0  0  0  0  0  0  0
   17.5013   13.3241   27.0543 C   0  0  0  0  0  0  0  0  0  0  0  0
   28.2753   14.1759   24.8814 O   0  0  0  0  0  0  0  0  0  0  0  0
   27.2757   13.5264   24.1140 C   0  0  0  0  0  0  0  0  0  0  0  0
   27.9264   14.3755   25.7642 H   0  0  0  0  0  0  0  0  0  0  0  0
   27.2726   12.7578   20.2772 N   0  0  0  0  0  0  0  0  0  0  0  0
   28.6161   14.4358   22.2778 N   0  0  0  0  0  0  0  0  0  0  0  0
   27.8775   13.2307   22.7225 C   0  0  0  0  0  0  0  0  0  0  0  0
   26.7943   12.8538   21.6696 C   0  0  0  0  0  0  0  0  0  0  0  0
   28.1596   13.8978   19.8889 C   0  0  0  0  0  0  0  0  0  0  0  0
   29.2215   14.2681   20.9391 C   0  0  0  0  0  0  0  0  0  0  0  0
   29.3581   14.6312   22.9500 H   0  0  0  0  0  0  0  0  0  0  0  0
   26.7076   11.3678   18.2294 O   0  0  0  0  0  0  0  0  0  0  0  0
   26.0530   12.2931   19.1069 S   0  0  0  0  0  0  0  0  0  0  0  0
   25.5477   13.5297   18.5792 O   0  0  0  0  0  0  0  0  0  0  0  0
   24.7737   11.4652   20.0372 C   0  0  0  0  0  0  0  0  0  0  0  0
   24.9063   10.0871   20.3323 C   0  0  0  0  0  0  0  0  0  0  0  0
   23.8950    9.4291   21.0744 C   0  0  0  0  0  0  0  0  0  0  0  0
   22.7562   10.1470   21.5197 C   0  0  0  0  0  0  0  0  0  0  0  0
   22.6252   11.5213   21.2249 C   0  0  0  0  0  0  0  0  0  0  0  0
   23.6349   12.1851   20.4815 C   0  0  0  0  0  0  0  0  0  0  0  0
   26.1604   15.7015   24.9336 C   0  0  0  0  0  0  0  0  0  0  0  0
   23.5112   19.4781   23.3080 F   0  0  0  0  0  0  0  0  0  0  0  0
   28.0179   19.1267   21.9073 F   0  0  0  0  0  0  0  0  0  0  0  0
   26.0263   16.9696   24.1155 C   0  0  0  0  0  0  0  0  0  0  0  0
   27.1294   17.4827   23.3616 C   0  0  0  0  0  0  0  0  0  0  0  0
   26.9759   18.6643   22.6052 C   0  0  0  0  0  0  0  0  0  0  0  0
   25.7515   19.3706   22.5678 C   0  0  0  0  0  0  0  0  0  0  0  0
   24.6762   18.8463   23.3184 C   0  0  0  0  0  0  0  0  0  0  0  0
   24.7906   17.6644   24.0861 C   0  0  0  0  0  0  0  0  0  0  0  0
  7  6  2  0  0  0
  6 11  1  0  0  0
 42 48  1  0  0  0
  1  2  1  0  0  0
  2  4  1  0  0  0
 32 33  2  0  0  0
 35 33  1  0  0  0
 33 25  1  0  0  0
 33 34  2  0  0  0
 15  7  1  0  0  0
  8  7  1  0  0  0
 43 46  1  0  0  0
 19 13  1  0  0  0
 16 13  1  0  0  0
 13 15  1  0  0  0
  8  9  2  0  0  0
 28 25  1  0  0  0
 25 29  1  0  0  0
 15 14  2  0  0  0
  4  9  1  0  0  0
  9 10  1  0  0  0
 27 26  1  0  0  0
 26 30  1  0  0  0
  3  4  2  0  0  0
 10 11  2  0  0  0
 22 23  1  0  0  0
 11 12  1  0  0  0
 17 16  1  0  0  0
 20 19  1  0  0  0
 20 21  1  0  0  0
 17 18  1  0  0  0
 41  1  1  0  0  0
  1 23  1  0  0  0
 23 27  1  0  0  0
 28 27  1  0  0  0
 44 41  1  0  0  0
 45 44  2  0  0  0
 49 44  1  0  0  0
 46 45  1  0  0  0
 47 46  2  0  0  0
 47 48  1  0  0  0
 48 49  2  0  0  0
 29 30  1  0  0  0
 36 35  2  0  0  0
 35 40  1  0  0  0
 37 36  1  0  0  0
 37 38  2  0  0  0
 38 39  1  0  0  0
 39 40  2  0  0  0
  2  5  1  0  0  0
 26 31  1  0  0  0
 22 24  1  0  0  0
M  END
> <minimizedAffinity>
-9.41578

$$$$
