1VYF_OLA_A_1134
  RCSB PDB12061704283D
Coordinates from PDB:1VYF:A:1134 Model:1 without hydrogens
 20 19  0  0  0  0            999 V2000
   16.9920   31.2630    6.3800   C 0  0  0  0  0  0  0  0  0  0  0  0
   17.7850   32.1150    6.7500   O 0  0  0  0  0  0  0  0  0  0  0  0
   17.0370   30.9660    5.0900   O 0  0  0  0  0  0  0  0  0  0  0  0
   16.0230   30.4770    7.2640   C 0  0  0  0  0  0  0  0  0  0  0  0
   15.4320   31.1480    8.5150   C 0  0  0  0  0  0  0  0  0  0  0  0
   13.8910   30.9830    8.6210   C 0  0  0  0  0  0  0  0  0  0  0  0
   13.3540   30.2580    9.8630   C 0  0  0  0  0  0  0  0  0  0  0  0
   11.9490   29.6720    9.6640   C 0  0  0  0  0  0  0  0  0  0  0  0
   10.7980   30.6320    9.9340   C 0  0  0  0  0  0  0  0  0  0  0  0
   10.3790   31.4310    8.7030   C 0  0  0  0  0  0  0  0  0  0  0  0
    8.9180   31.2450    8.3660   C 0  0  0  0  0  0  0  0  0  0  0  0
    8.3520   31.7600    7.2640   C 0  0  0  0  0  0  0  0  0  0  0  0
    9.1040   32.5700    6.2270   C 0  0  0  0  0  0  0  0  0  0  0  0
    8.3200   33.8070    5.7830   C 0  0  0  0  0  0  0  0  0  0  0  0
    8.8930   34.4630    4.5180   C 0  0  0  0  0  0  0  0  0  0  0  0
   10.2260   35.1930    4.7200   C 0  0  0  0  0  0  0  0  0  0  0  0
   11.4490   34.3300    4.3850   C 0  0  0  0  0  0  0  0  0  0  0  0
   12.7280   34.8900    5.0180   C 0  0  0  0  0  0  0  0  0  0  0  0
   13.4420   33.8780    5.9210   C 0  0  0  0  0  0  0  0  0  0  0  0
   14.4360   33.0810    5.1130   C 0  0  0  0  0  0  0  0  0  0  0  0
  1  2  2  0  0  0  0
  1  3  1  0  0  0  0
  1  4  1  0  0  0  0
  4  5  1  0  0  0  0
  5  6  1  0  0  0  0
  6  7  1  0  0  0  0
  7  8  1  0  0  0  0
  8  9  1  0  0  0  0
  9 10  1  0  0  0  0
 10 11  1  0  0  0  0
 11 12  2  0  0  0  0
 12 13  1  0  0  0  0
 13 14  1  0  0  0  0
 14 15  1  0  0  0  0
 15 16  1  0  0  0  0
 16 17  1  0  0  0  0
 17 18  1  0  0  0  0
 18 19  1  0  0  0  0
 19 20  1  0  0  0  0
A    1
C1
A    2
O1
A    3
O2
A    4
C2
A    5
C3
A    6
C4
A    7
C5
A    8
C6
A    9
C7
A   10
C8
A   11
C9
A   12
C10
A   13
C11
A   14
C12
A   15
C13
A   16
C14
A   17
C15
A   18
C16
A   19
C17
A   20
C18
M  END
>  <InstanceId>
1VYF_OLA_A_1134

>  <ChemCompId>
OLA

>  <PdbId>
1VYF

>  <ChainId>
A

>  <ResidueNumber>
1134

>  <InsertionCode>


>  <Model>
1

>  <AltIds>


>  <MissingHeavyAtoms>
0

>  <ObservedFormula>
C18 O2

>  <Name>
OLEIC ACID

>  <SystematicName>
(Z)-octadec-9-enoic acid

>  <Synonyms>


>  <Type>
NON-POLYMER

>  <Formula>
C18 H34 O2

>  <MolecularWeight>
282.461

>  <ModifiedDate>
2011-06-04

>  <Parent>


>  <OneLetterCode>


>  <SubcomponentList>


>  <AmbiguousFlag>
N

>  <InChI>
InChI=1S/C18H34O2/c1-2-3-4-5-6-7-8-9-10-11-12-13-14-15-16-17-18(19)20/h9-10H,2-8,11-17H2,1H3,(H,19,20)/b10-9-

>  <InChIKey>
ZQPPMHVWECSIRJ-KTKRTIGZSA-N

>  <SMILES>
CCCCCCCC\C=C/CCCCCCCC(=O)O

$$$$
