3DZT_EAH_A_305


 25 24  0  0  0  0  0  0  0  0999 V2000
  -16.4594    0.1834    4.3257 C   0  0  0  0  0  0  0  0  0  0  0  0
  -15.9161    1.5053    3.9406 C   0  0  0  0  0  0  0  0  0  0  0  0
  -16.2864    1.8891    2.6087 C   0  0  0  0  0  0  0  0  0  0  0  0
  -15.3247    2.4670    1.9214 C   0  0  0  0  0  0  0  0  0  0  0  0
  -15.8617    2.7578    0.6226 C   0  0  0  0  0  0  0  0  0  0  0  0
  -15.5367    3.7968   -0.0903 C   0  0  0  0  0  0  0  0  0  0  0  0
  -14.6369    4.8331    0.4569 C   0  0  0  0  0  0  0  0  0  0  0  0
  -14.5431    5.9779   -0.4989 C   0  0  0  0  0  0  0  0  0  0  0  0
  -13.6653    6.2045   -1.4395 C   0  0  0  0  0  0  0  0  0  0  0  0
  -12.5119    5.3295   -1.7742 C   0  0  0  0  0  0  0  0  0  0  0  0
  -12.8993    4.2228   -2.7075 C   0  0  0  0  0  0  0  0  0  0  0  0
  -12.0770    3.0483   -2.3013 C   0  0  0  0  0  0  0  0  0  0  0  0
  -11.7737    2.8756   -0.8425 C   0  0  0  0  0  0  0  0  0  0  0  0
  -10.5528    2.0817   -0.5652 C   0  0  0  0  0  0  0  0  0  0  0  0
  -15.7989   -0.3890    5.5521 C   0  0  0  0  0  0  0  0  0  0  0  0
  -15.4835   -1.8695    5.4637 C   0  0  0  0  0  0  0  0  0  0  0  0
  -14.9109   -2.2438    4.3348 O   0  0  0  0  0  0  0  0  0  0  0  0
  -14.0341   -1.8348    4.2659 H   0  0  0  0  0  0  0  0  0  0  0  0
  -14.7453   -2.3534    6.7053 C   0  0  0  0  0  0  0  0  0  0  0  0
  -13.4782   -3.0808    6.3029 C   0  0  0  0  0  0  0  0  0  0  0  0
  -13.1593   -4.2511    7.1790 C   0  0  0  0  0  0  0  0  0  0  0  0
  -11.1090   -4.9516    8.1179 O   0  0  0  0  0  0  0  0  0  0  0  0
  -11.6739   -4.2166    7.3656 C   0  0  0  0  0  0  0  0  0  0  0  0
  -11.0443   -3.3830    6.7627 O   0  0  0  0  0  0  0  0  0  0  0  0
  -11.4816   -2.8030    6.1707 H   0  0  0  0  0  0  0  0  0  0  0  0
 23 22  2  0  0  0
 23 24  1  0  0  0
 21 23  1  0  0  0
 20 21  1  0  0  0
 19 20  1  0  0  0
 16 19  1  0  0  0
 16 15  1  0  0  0
 17 16  1  0  0  0
  1 15  1  0  0  0
  2  1  2  0  0  0
  3  2  1  0  0  0
  4  3  2  0  0  0
  5  4  1  0  0  0
  6  5  2  0  0  0
  7  6  1  0  0  0
  8  7  1  0  0  0
  9  8  2  0  0  0
 10  9  1  0  0  0
 10 11  1  0  0  0
 11 12  1  0  0  0
 13 12  1  0  0  0
 13 14  1  0  0  0
 24 25  1  0  0  0
 17 18  1  0  0  0
M  END
> <minimizedAffinity>
-8.90015

$$$$
3DZT_EAH_A_305


 25 24  0  0  0  0  0  0  0  0999 V2000
  -16.7293    0.1530    4.5884 C   0  0  0  0  0  0  0  0  0  0  0  0
  -15.7891    1.0852    3.9266 C   0  0  0  0  0  0  0  0  0  0  0  0
  -16.3671    1.7380    2.7873 C   0  0  0  0  0  0  0  0  0  0  0  0
  -15.4901    2.2340    1.9410 C   0  0  0  0  0  0  0  0  0  0  0  0
  -16.2386    2.8215    0.8666 C   0  0  0  0  0  0  0  0  0  0  0  0
  -15.7756    3.7339    0.0624 C   0  0  0  0  0  0  0  0  0  0  0  0
  -14.4345    4.3156    0.2770 C   0  0  0  0  0  0  0  0  0  0  0  0
  -14.1740    5.3764   -0.7426 C   0  0  0  0  0  0  0  0  0  0  0  0
  -13.6108    5.2786   -1.9173 C   0  0  0  0  0  0  0  0  0  0  0  0
  -13.0788    4.0286   -2.5193 C   0  0  0  0  0  0  0  0  0  0  0  0
  -11.5961    4.0928   -2.7276 C   0  0  0  0  0  0  0  0  0  0  0  0
  -11.1070    2.6944   -2.5672 C   0  0  0  0  0  0  0  0  0  0  0  0
   -9.9653    2.4547   -1.6242 C   0  0  0  0  0  0  0  0  0  0  0  0
  -10.3733    1.9497   -0.2914 C   0  0  0  0  0  0  0  0  0  0  0  0
  -16.0468   -0.7920    5.5418 C   0  0  0  0  0  0  0  0  0  0  0  0
  -16.2135   -2.2598    5.2000 C   0  0  0  0  0  0  0  0  0  0  0  0
  -17.1374   -2.5119    4.2916 O   0  0  0  0  0  0  0  0  0  0  0  0
  -16.8709   -2.1245    3.4432 H   0  0  0  0  0  0  0  0  0  0  0  0
  -14.8716   -2.9131    4.8946 C   0  0  0  0  0  0  0  0  0  0  0  0
  -14.5722   -3.9849    5.9234 C   0  0  0  0  0  0  0  0  0  0  0  0
  -15.3177   -5.2608    5.6885 C   0  0  0  0  0  0  0  0  0  0  0  0
  -13.9045   -6.8763    6.6728 O   0  0  0  0  0  0  0  0  0  0  0  0
  -14.2748   -6.3354    5.6751 C   0  0  0  0  0  0  0  0  0  0  0  0
  -13.7681   -6.6226    4.6189 O   0  0  0  0  0  0  0  0  0  0  0  0
  -14.0542   -6.2018    3.8321 H   0  0  0  0  0  0  0  0  0  0  0  0
 23 22  2  0  0  0
 23 24  1  0  0  0
 21 23  1  0  0  0
 20 21  1  0  0  0
 19 20  1  0  0  0
 16 19  1  0  0  0
 16 15  1  0  0  0
 17 16  1  0  0  0
  1 15  1  0  0  0
  2  1  2  0  0  0
  3  2  1  0  0  0
  4  3  2  0  0  0
  5  4  1  0  0  0
  6  5  2  0  0  0
  7  6  1  0  0  0
  8  7  1  0  0  0
  9  8  2  0  0  0
 10  9  1  0  0  0
 10 11  1  0  0  0
 11 12  1  0  0  0
 13 12  1  0  0  0
 13 14  1  0  0  0
 24 25  1  0  0  0
 17 18  1  0  0  0
M  END
> <minimizedAffinity>
-8.73198

$$$$
3DZT_EAH_A_305


 25 24  0  0  0  0  0  0  0  0999 V2000
  -16.6956    0.4676    4.1515 C   0  0  0  0  0  0  0  0  0  0  0  0
  -15.7211    1.3668    3.4936 C   0  0  0  0  0  0  0  0  0  0  0  0
  -16.2735    2.0442    2.3560 C   0  0  0  0  0  0  0  0  0  0  0  0
  -15.3824    2.4413    1.4731 C   0  0  0  0  0  0  0  0  0  0  0  0
  -16.1084    3.0703    0.4068 C   0  0  0  0  0  0  0  0  0  0  0  0
  -15.6859    4.1065   -0.2576 C   0  0  0  0  0  0  0  0  0  0  0  0
  -14.4317    4.7864    0.1267 C   0  0  0  0  0  0  0  0  0  0  0  0
  -14.1609    5.9170   -0.8120 C   0  0  0  0  0  0  0  0  0  0  0  0
  -13.2212    6.0431   -1.7108 C   0  0  0  0  0  0  0  0  0  0  0  0
  -12.1653    5.0396   -2.0039 C   0  0  0  0  0  0  0  0  0  0  0  0
  -12.7137    3.8386   -2.7130 C   0  0  0  0  0  0  0  0  0  0  0  0
  -11.7269    2.7473   -2.4770 C   0  0  0  0  0  0  0  0  0  0  0  0
  -10.5776    3.0284   -1.5548 C   0  0  0  0  0  0  0  0  0  0  0  0
  -10.4211    2.0413   -0.4599 C   0  0  0  0  0  0  0  0  0  0  0  0
  -16.0492   -0.5050    5.1023 C   0  0  0  0  0  0  0  0  0  0  0  0
  -16.5579   -1.9288    4.9881 C   0  0  0  0  0  0  0  0  0  0  0  0
  -15.7845   -2.7348    4.2849 O   0  0  0  0  0  0  0  0  0  0  0  0
  -14.9358   -2.8478    4.7409 H   0  0  0  0  0  0  0  0  0  0  0  0
  -16.9370   -2.4924    6.3517 C   0  0  0  0  0  0  0  0  0  0  0  0
  -17.5035   -1.3923    7.2267 C   0  0  0  0  0  0  0  0  0  0  0  0
  -16.7528   -1.2037    8.5073 C   0  0  0  0  0  0  0  0  0  0  0  0
  -16.0578    1.0523    8.5608 O   0  0  0  0  0  0  0  0  0  0  0  0
  -16.8946    0.2489    8.8425 C   0  0  0  0  0  0  0  0  0  0  0  0
  -17.8717    0.5977    9.4576 O   0  0  0  0  0  0  0  0  0  0  0  0
  -18.5323   -0.0280    9.6818 H   0  0  0  0  0  0  0  0  0  0  0  0
 23 22  2  0  0  0
 23 24  1  0  0  0
 21 23  1  0  0  0
 20 21  1  0  0  0
 19 20  1  0  0  0
 16 19  1  0  0  0
 16 15  1  0  0  0
 17 16  1  0  0  0
  1 15  1  0  0  0
  2  1  2  0  0  0
  3  2  1  0  0  0
  4  3  2  0  0  0
  5  4  1  0  0  0
  6  5  2  0  0  0
  7  6  1  0  0  0
  8  7  1  0  0  0
  9  8  2  0  0  0
 10  9  1  0  0  0
 10 11  1  0  0  0
 11 12  1  0  0  0
 13 12  1  0  0  0
 13 14  1  0  0  0
 24 25  1  0  0  0
 17 18  1  0  0  0
M  END
> <minimizedAffinity>
-8.05369

$$$$
3DZT_EAH_A_305


 25 24  0  0  0  0  0  0  0  0999 V2000
  -15.7808    3.0476    1.3758 C   0  0  0  0  0  0  0  0  0  0  0  0
  -15.2441    2.1529    2.4257 C   0  0  0  0  0  0  0  0  0  0  0  0
  -16.2754    1.4570    3.1401 C   0  0  0  0  0  0  0  0  0  0  0  0
  -15.8353    0.5456    3.9809 C   0  0  0  0  0  0  0  0  0  0  0  0
  -16.9900   -0.0247    4.6143 C   0  0  0  0  0  0  0  0  0  0  0  0
  -17.0578   -0.3325    5.8770 C   0  0  0  0  0  0  0  0  0  0  0  0
  -15.8712   -0.2026    6.7477 C   0  0  0  0  0  0  0  0  0  0  0  0
  -15.7866   -1.3782    7.6663 C   0  0  0  0  0  0  0  0  0  0  0  0
  -15.2490   -2.5518    7.4655 C   0  0  0  0  0  0  0  0  0  0  0  0
  -14.5761   -2.9918    6.2160 C   0  0  0  0  0  0  0  0  0  0  0  0
  -14.2076   -4.4439    6.2583 C   0  0  0  0  0  0  0  0  0  0  0  0
  -14.0435   -4.7748    7.7020 C   0  0  0  0  0  0  0  0  0  0  0  0
  -12.7500   -5.3982    8.1359 C   0  0  0  0  0  0  0  0  0  0  0  0
  -11.5428   -4.6425    7.7245 C   0  0  0  0  0  0  0  0  0  0  0  0
  -14.7645    4.0378    0.8712 C   0  0  0  0  0  0  0  0  0  0  0  0
  -15.2619    4.9369   -0.2437 C   0  0  0  0  0  0  0  0  0  0  0  0
  -15.6239    6.1457    0.1441 O   0  0  0  0  0  0  0  0  0  0  0  0
  -14.8480    6.6252    0.4743 H   0  0  0  0  0  0  0  0  0  0  0  0
  -14.2961    4.9441   -1.4219 C   0  0  0  0  0  0  0  0  0  0  0  0
  -13.6223    3.5924   -1.5464 C   0  0  0  0  0  0  0  0  0  0  0  0
  -12.2042    3.6748   -2.0167 C   0  0  0  0  0  0  0  0  0  0  0  0
  -11.1095    2.2987   -3.5927 O   0  0  0  0  0  0  0  0  0  0  0  0
  -12.1324    2.7912   -3.2237 C   0  0  0  0  0  0  0  0  0  0  0  0
  -13.1414    2.6161   -3.8609 O   0  0  0  0  0  0  0  0  0  0  0  0
  -13.9476    2.9998   -3.5767 H   0  0  0  0  0  0  0  0  0  0  0  0
 23 22  2  0  0  0
 23 24  1  0  0  0
 21 23  1  0  0  0
 20 21  1  0  0  0
 19 20  1  0  0  0
 16 19  1  0  0  0
 16 15  1  0  0  0
 17 16  1  0  0  0
  1 15  1  0  0  0
  2  1  2  0  0  0
  3  2  1  0  0  0
  4  3  2  0  0  0
  5  4  1  0  0  0
  6  5  2  0  0  0
  7  6  1  0  0  0
  8  7  1  0  0  0
  9  8  2  0  0  0
 10  9  1  0  0  0
 10 11  1  0  0  0
 11 12  1  0  0  0
 13 12  1  0  0  0
 13 14  1  0  0  0
 24 25  1  0  0  0
 17 18  1  0  0  0
M  END
> <minimizedAffinity>
-8.03497

$$$$
3DZT_EAH_A_305


 25 24  0  0  0  0  0  0  0  0999 V2000
  -16.6076    0.3072    4.0581 C   0  0  0  0  0  0  0  0  0  0  0  0
  -15.8169    1.4938    3.6608 C   0  0  0  0  0  0  0  0  0  0  0  0
  -16.3389    2.1404    2.4913 C   0  0  0  0  0  0  0  0  0  0  0  0
  -15.4592    2.3176    1.5289 C   0  0  0  0  0  0  0  0  0  0  0  0
  -16.1549    2.9490    0.4439 C   0  0  0  0  0  0  0  0  0  0  0  0
  -15.8258    4.0990   -0.0688 C   0  0  0  0  0  0  0  0  0  0  0  0
  -14.7364    4.9026    0.5232 C   0  0  0  0  0  0  0  0  0  0  0  0
  -14.4054    6.0479   -0.3777 C   0  0  0  0  0  0  0  0  0  0  0  0
  -13.8305    6.0422   -1.5508 C   0  0  0  0  0  0  0  0  0  0  0  0
  -13.3557    4.8346   -2.2748 C   0  0  0  0  0  0  0  0  0  0  0  0
  -11.9380    4.4938   -1.9283 C   0  0  0  0  0  0  0  0  0  0  0  0
  -12.0056    3.2076   -1.1790 C   0  0  0  0  0  0  0  0  0  0  0  0
  -10.8934    2.2209   -1.3779 C   0  0  0  0  0  0  0  0  0  0  0  0
  -10.7653    1.7213   -2.7678 C   0  0  0  0  0  0  0  0  0  0  0  0
  -15.8869   -0.5772    5.0411 C   0  0  0  0  0  0  0  0  0  0  0  0
  -16.3662   -2.0156    5.0621 C   0  0  0  0  0  0  0  0  0  0  0  0
  -15.8329   -2.7870    4.1332 O   0  0  0  0  0  0  0  0  0  0  0  0
  -14.8808   -2.8773    4.2953 H   0  0  0  0  0  0  0  0  0  0  0  0
  -16.2789   -2.6079    6.4629 C   0  0  0  0  0  0  0  0  0  0  0  0
  -17.5284   -3.4111    6.7635 C   0  0  0  0  0  0  0  0  0  0  0  0
  -18.6474   -2.5867    7.3178 C   0  0  0  0  0  0  0  0  0  0  0  0
  -20.1012   -4.1762    8.2851 O   0  0  0  0  0  0  0  0  0  0  0  0
  -19.8380   -3.4947    7.3409 C   0  0  0  0  0  0  0  0  0  0  0  0
  -20.5201   -3.5634    6.3485 O   0  0  0  0  0  0  0  0  0  0  0  0
  -20.3189   -3.0311    5.6040 H   0  0  0  0  0  0  0  0  0  0  0  0
 23 22  2  0  0  0
 23 24  1  0  0  0
 21 23  1  0  0  0
 20 21  1  0  0  0
 19 20  1  0  0  0
 16 19  1  0  0  0
 16 15  1  0  0  0
 17 16  1  0  0  0
  1 15  1  0  0  0
  2  1  2  0  0  0
  3  2  1  0  0  0
  4  3  2  0  0  0
  5  4  1  0  0  0
  6  5  2  0  0  0
  7  6  1  0  0  0
  8  7  1  0  0  0
  9  8  2  0  0  0
 10  9  1  0  0  0
 10 11  1  0  0  0
 11 12  1  0  0  0
 13 12  1  0  0  0
 13 14  1  0  0  0
 24 25  1  0  0  0
 17 18  1  0  0  0
M  END
> <minimizedAffinity>
-7.72997

$$$$
3DZT_EAH_A_305


 25 24  0  0  0  0  0  0  0  0999 V2000
  -15.2531    3.2084    0.5479 C   0  0  0  0  0  0  0  0  0  0  0  0
  -15.1295    2.8962    1.9895 C   0  0  0  0  0  0  0  0  0  0  0  0
  -16.1133    1.9531    2.4378 C   0  0  0  0  0  0  0  0  0  0  0  0
  -15.8983    1.4742    3.6444 C   0  0  0  0  0  0  0  0  0  0  0  0
  -16.9800    0.5759    3.9316 C   0  0  0  0  0  0  0  0  0  0  0  0
  -16.9765   -0.2906    4.9026 C   0  0  0  0  0  0  0  0  0  0  0  0
  -15.7726   -0.4796    5.7379 C   0  0  0  0  0  0  0  0  0  0  0  0
  -16.0765   -0.1119    7.1540 C   0  0  0  0  0  0  0  0  0  0  0  0
  -16.6568   -0.8165    8.0886 C   0  0  0  0  0  0  0  0  0  0  0  0
  -17.1678   -2.2032    7.9339 C   0  0  0  0  0  0  0  0  0  0  0  0
  -16.0760   -3.2215    8.0641 C   0  0  0  0  0  0  0  0  0  0  0  0
  -16.5182   -4.3906    7.2528 C   0  0  0  0  0  0  0  0  0  0  0  0
  -16.1671   -4.4052    5.7945 C   0  0  0  0  0  0  0  0  0  0  0  0
  -14.7873   -3.9522    5.4968 C   0  0  0  0  0  0  0  0  0  0  0  0
  -14.4842    4.4390    0.1449 C   0  0  0  0  0  0  0  0  0  0  0  0
  -14.1274    4.5038   -1.3274 C   0  0  0  0  0  0  0  0  0  0  0  0
  -15.1518    4.7129   -2.1332 O   0  0  0  0  0  0  0  0  0  0  0  0
  -15.5213    5.5938   -1.9647 H   0  0  0  0  0  0  0  0  0  0  0  0
  -12.9614    5.4528   -1.5734 C   0  0  0  0  0  0  0  0  0  0  0  0
  -11.8084    4.7017   -2.2081 C   0  0  0  0  0  0  0  0  0  0  0  0
  -11.7272    3.2683   -1.7866 C   0  0  0  0  0  0  0  0  0  0  0  0
  -12.5397    2.4146   -3.8328 O   0  0  0  0  0  0  0  0  0  0  0  0
  -11.6337    2.4833   -3.0585 C   0  0  0  0  0  0  0  0  0  0  0  0
  -10.6189    1.8679   -3.2735 O   0  0  0  0  0  0  0  0  0  0  0  0
   -9.9040    1.9175   -2.6697 H   0  0  0  0  0  0  0  0  0  0  0  0
 23 22  2  0  0  0
 23 24  1  0  0  0
 21 23  1  0  0  0
 20 21  1  0  0  0
 19 20  1  0  0  0
 16 19  1  0  0  0
 16 15  1  0  0  0
 17 16  1  0  0  0
  1 15  1  0  0  0
  2  1  2  0  0  0
  3  2  1  0  0  0
  4  3  2  0  0  0
  5  4  1  0  0  0
  6  5  2  0  0  0
  7  6  1  0  0  0
  8  7  1  0  0  0
  9  8  2  0  0  0
 10  9  1  0  0  0
 10 11  1  0  0  0
 11 12  1  0  0  0
 13 12  1  0  0  0
 13 14  1  0  0  0
 24 25  1  0  0  0
 17 18  1  0  0  0
M  END
> <minimizedAffinity>
-7.68575

$$$$
3DZT_EAH_A_305


 25 24  0  0  0  0  0  0  0  0999 V2000
  -16.4345   -0.9554    5.0408 C   0  0  0  0  0  0  0  0  0  0  0  0
  -15.8537    0.3649    4.7087 C   0  0  0  0  0  0  0  0  0  0  0  0
  -16.5360    1.0130    3.6258 C   0  0  0  0  0  0  0  0  0  0  0  0
  -15.7491    1.6757    2.8054 C   0  0  0  0  0  0  0  0  0  0  0  0
  -16.5905    2.2326    1.7848 C   0  0  0  0  0  0  0  0  0  0  0  0
  -16.1692    3.0081    0.8284 C   0  0  0  0  0  0  0  0  0  0  0  0
  -14.7636    3.4618    0.7917 C   0  0  0  0  0  0  0  0  0  0  0  0
  -14.7079    4.9069    0.4156 C   0  0  0  0  0  0  0  0  0  0  0  0
  -14.3275    5.4590   -0.7056 C   0  0  0  0  0  0  0  0  0  0  0  0
  -13.8406    4.7309   -1.9059 C   0  0  0  0  0  0  0  0  0  0  0  0
  -12.3445    4.7289   -1.9926 C   0  0  0  0  0  0  0  0  0  0  0  0
  -11.9135    3.4014   -1.4704 C   0  0  0  0  0  0  0  0  0  0  0  0
  -10.7823    2.7067   -2.1688 C   0  0  0  0  0  0  0  0  0  0  0  0
   -9.5802    2.5036   -1.3254 C   0  0  0  0  0  0  0  0  0  0  0  0
  -15.5324   -1.7932    5.9080 C   0  0  0  0  0  0  0  0  0  0  0  0
  -14.9175   -2.9884    5.2062 C   0  0  0  0  0  0  0  0  0  0  0  0
  -13.6345   -3.1730    5.4556 O   0  0  0  0  0  0  0  0  0  0  0  0
  -13.5155   -3.3921    6.3930 H   0  0  0  0  0  0  0  0  0  0  0  0
  -15.7589   -4.2423    5.4080 C   0  0  0  0  0  0  0  0  0  0  0  0
  -15.8945   -4.5415    6.8875 C   0  0  0  0  0  0  0  0  0  0  0  0
  -17.1132   -5.3418    7.2241 C   0  0  0  0  0  0  0  0  0  0  0  0
  -16.7801   -6.4614    9.2762 O   0  0  0  0  0  0  0  0  0  0  0  0
  -16.6278   -6.4614    8.0922 C   0  0  0  0  0  0  0  0  0  0  0  0
  -16.0247   -7.3657    7.5694 O   0  0  0  0  0  0  0  0  0  0  0  0
  -15.9017   -7.3717    6.6406 H   0  0  0  0  0  0  0  0  0  0  0  0
 23 22  2  0  0  0
 23 24  1  0  0  0
 21 23  1  0  0  0
 20 21  1  0  0  0
 19 20  1  0  0  0
 16 19  1  0  0  0
 16 15  1  0  0  0
 17 16  1  0  0  0
  1 15  1  0  0  0
  2  1  2  0  0  0
  3  2  1  0  0  0
  4  3  2  0  0  0
  5  4  1  0  0  0
  6  5  2  0  0  0
  7  6  1  0  0  0
  8  7  1  0  0  0
  9  8  2  0  0  0
 10  9  1  0  0  0
 10 11  1  0  0  0
 11 12  1  0  0  0
 13 12  1  0  0  0
 13 14  1  0  0  0
 24 25  1  0  0  0
 17 18  1  0  0  0
M  END
> <minimizedAffinity>
-7.58523

$$$$
3DZT_EAH_A_305


 25 24  0  0  0  0  0  0  0  0999 V2000
  -16.1165    2.5218    1.8628 C   0  0  0  0  0  0  0  0  0  0  0  0
  -15.5054    1.7357    2.9580 C   0  0  0  0  0  0  0  0  0  0  0  0
  -16.4750    1.0056    3.7229 C   0  0  0  0  0  0  0  0  0  0  0  0
  -15.9609    0.1323    4.5622 C   0  0  0  0  0  0  0  0  0  0  0  0
  -17.0626   -0.4797    5.2487 C   0  0  0  0  0  0  0  0  0  0  0  0
  -17.1853   -0.5279    6.5434 C   0  0  0  0  0  0  0  0  0  0  0  0
  -16.1074   -0.0259    7.4204 C   0  0  0  0  0  0  0  0  0  0  0  0
  -16.6888    0.4643    8.7068 C   0  0  0  0  0  0  0  0  0  0  0  0
  -16.9962   -0.2034    9.7868 C   0  0  0  0  0  0  0  0  0  0  0  0
  -16.8281   -1.6677    9.9748 C   0  0  0  0  0  0  0  0  0  0  0  0
  -18.0145   -2.2867   10.6496 C   0  0  0  0  0  0  0  0  0  0  0  0
  -19.0200   -2.5070    9.5720 C   0  0  0  0  0  0  0  0  0  0  0  0
  -18.6001   -3.3054    8.3736 C   0  0  0  0  0  0  0  0  0  0  0  0
  -19.5524   -3.2456    7.2390 C   0  0  0  0  0  0  0  0  0  0  0  0
  -15.1837    3.5561    1.2901 C   0  0  0  0  0  0  0  0  0  0  0  0
  -15.6159    4.1203   -0.0493 C   0  0  0  0  0  0  0  0  0  0  0  0
  -15.7212    5.4357   -0.0842 O   0  0  0  0  0  0  0  0  0  0  0  0
  -14.8456    5.8336    0.0420 H   0  0  0  0  0  0  0  0  0  0  0  0
  -14.7776    3.5507   -1.1866 C   0  0  0  0  0  0  0  0  0  0  0  0
  -13.3050    3.6472   -0.8422 C   0  0  0  0  0  0  0  0  0  0  0  0
  -12.4588    4.1346   -1.9759 C   0  0  0  0  0  0  0  0  0  0  0  0
  -11.3319    2.7425   -3.5148 O   0  0  0  0  0  0  0  0  0  0  0  0
  -11.6156    2.9637   -2.3764 C   0  0  0  0  0  0  0  0  0  0  0  0
  -11.2551    2.2012   -1.5141 O   0  0  0  0  0  0  0  0  0  0  0  0
  -11.4744    2.3690   -0.6187 H   0  0  0  0  0  0  0  0  0  0  0  0
 23 22  2  0  0  0
 23 24  1  0  0  0
 21 23  1  0  0  0
 20 21  1  0  0  0
 19 20  1  0  0  0
 16 19  1  0  0  0
 16 15  1  0  0  0
 17 16  1  0  0  0
  1 15  1  0  0  0
  2  1  2  0  0  0
  3  2  1  0  0  0
  4  3  2  0  0  0
  5  4  1  0  0  0
  6  5  2  0  0  0
  7  6  1  0  0  0
  8  7  1  0  0  0
  9  8  2  0  0  0
 10  9  1  0  0  0
 10 11  1  0  0  0
 11 12  1  0  0  0
 13 12  1  0  0  0
 13 14  1  0  0  0
 24 25  1  0  0  0
 17 18  1  0  0  0
M  END
> <minimizedAffinity>
-7.50922

$$$$
3DZT_EAH_A_305


 25 24  0  0  0  0  0  0  0  0999 V2000
  -16.0878    2.1264    3.3590 C   0  0  0  0  0  0  0  0  0  0  0  0
  -15.7953    0.6947    3.5946 C   0  0  0  0  0  0  0  0  0  0  0  0
  -16.0210    0.3004    4.9555 C   0  0  0  0  0  0  0  0  0  0  0  0
  -17.0780   -0.4628    5.1330 C   0  0  0  0  0  0  0  0  0  0  0  0
  -17.1332   -0.7739    6.5329 C   0  0  0  0  0  0  0  0  0  0  0  0
  -17.1565   -1.9821    7.0161 C   0  0  0  0  0  0  0  0  0  0  0  0
  -17.2326   -3.1511    6.1157 C   0  0  0  0  0  0  0  0  0  0  0  0
  -15.8965   -3.3988    5.4942 C   0  0  0  0  0  0  0  0  0  0  0  0
  -14.9539   -4.2283    5.8550 C   0  0  0  0  0  0  0  0  0  0  0  0
  -15.0106   -5.1464    7.0219 C   0  0  0  0  0  0  0  0  0  0  0  0
  -14.1705   -6.3700    6.8147 C   0  0  0  0  0  0  0  0  0  0  0  0
  -13.2032   -6.3899    7.9481 C   0  0  0  0  0  0  0  0  0  0  0  0
  -12.5263   -5.1025    8.3149 C   0  0  0  0  0  0  0  0  0  0  0  0
  -11.2256   -4.8850    7.6378 C   0  0  0  0  0  0  0  0  0  0  0  0
  -15.5243    2.6353    2.0584 C   0  0  0  0  0  0  0  0  0  0  0  0
  -16.5282    2.7113    0.9247 C   0  0  0  0  0  0  0  0  0  0  0  0
  -17.6936    3.2356    1.2556 O   0  0  0  0  0  0  0  0  0  0  0  0
  -17.5723    4.1676    1.4956 H   0  0  0  0  0  0  0  0  0  0  0  0
  -15.9131    3.3415   -0.3184 C   0  0  0  0  0  0  0  0  0  0  0  0
  -14.5491    3.9131    0.0127 C   0  0  0  0  0  0  0  0  0  0  0  0
  -13.8971    4.6055   -1.1425 C   0  0  0  0  0  0  0  0  0  0  0  0
  -15.1693    6.4841   -0.4885 O   0  0  0  0  0  0  0  0  0  0  0  0
  -14.1369    6.0666   -0.9187 C   0  0  0  0  0  0  0  0  0  0  0  0
  -13.2654    6.8401   -1.2303 O   0  0  0  0  0  0  0  0  0  0  0  0
  -12.4529    6.5188   -1.5686 H   0  0  0  0  0  0  0  0  0  0  0  0
 23 22  2  0  0  0
 23 24  1  0  0  0
 21 23  1  0  0  0
 20 21  1  0  0  0
 19 20  1  0  0  0
 16 19  1  0  0  0
 16 15  1  0  0  0
 17 16  1  0  0  0
  1 15  1  0  0  0
  2  1  2  0  0  0
  3  2  1  0  0  0
  4  3  2  0  0  0
  5  4  1  0  0  0
  6  5  2  0  0  0
  7  6  1  0  0  0
  8  7  1  0  0  0
  9  8  2  0  0  0
 10  9  1  0  0  0
 10 11  1  0  0  0
 11 12  1  0  0  0
 13 12  1  0  0  0
 13 14  1  0  0  0
 24 25  1  0  0  0
 17 18  1  0  0  0
M  END
> <minimizedAffinity>
-7.46777

$$$$
3DZT_EAH_A_305


 25 24  0  0  0  0  0  0  0  0999 V2000
  -16.5707   -4.5330    6.9913 C   0  0  0  0  0  0  0  0  0  0  0  0
  -17.4461   -4.2866    8.1592 C   0  0  0  0  0  0  0  0  0  0  0  0
  -17.6290   -2.8894    8.4287 C   0  0  0  0  0  0  0  0  0  0  0  0
  -16.5273   -2.2497    8.7578 C   0  0  0  0  0  0  0  0  0  0  0  0
  -16.8924   -0.8776    8.9666 C   0  0  0  0  0  0  0  0  0  0  0  0
  -16.6909    0.0752    8.1033 C   0  0  0  0  0  0  0  0  0  0  0  0
  -15.9547   -0.1887    6.8498 C   0  0  0  0  0  0  0  0  0  0  0  0
  -16.9216   -0.4225    5.7348 C   0  0  0  0  0  0  0  0  0  0  0  0
  -16.9042    0.0347    4.5111 C   0  0  0  0  0  0  0  0  0  0  0  0
  -15.8684    0.9334    3.9389 C   0  0  0  0  0  0  0  0  0  0  0  0
  -16.4390    1.8669    2.9148 C   0  0  0  0  0  0  0  0  0  0  0  0
  -15.3050    2.2159    2.0132 C   0  0  0  0  0  0  0  0  0  0  0  0
  -15.5924    3.0974    0.8340 C   0  0  0  0  0  0  0  0  0  0  0  0
  -14.5099    4.0588    0.5155 C   0  0  0  0  0  0  0  0  0  0  0  0
  -16.0817   -5.9552    6.9128 C   0  0  0  0  0  0  0  0  0  0  0  0
  -14.6722   -6.1070    6.3749 C   0  0  0  0  0  0  0  0  0  0  0  0
  -14.2587   -5.1034    5.6237 O   0  0  0  0  0  0  0  0  0  0  0  0
  -14.1952   -4.3001    6.1637 H   0  0  0  0  0  0  0  0  0  0  0  0
  -13.6935   -6.4761    7.4825 C   0  0  0  0  0  0  0  0  0  0  0  0
  -13.2659   -5.2298    8.2312 C   0  0  0  0  0  0  0  0  0  0  0  0
  -11.7825   -5.0373    8.2693 C   0  0  0  0  0  0  0  0  0  0  0  0
  -12.2498   -3.1713    6.8999 O   0  0  0  0  0  0  0  0  0  0  0  0
  -11.4826   -4.0365    7.1964 C   0  0  0  0  0  0  0  0  0  0  0  0
  -10.4465   -4.1475    6.5889 O   0  0  0  0  0  0  0  0  0  0  0  0
   -9.8401   -4.8245    6.8167 H   0  0  0  0  0  0  0  0  0  0  0  0
 23 22  2  0  0  0
 23 24  1  0  0  0
 21 23  1  0  0  0
 20 21  1  0  0  0
 19 20  1  0  0  0
 16 19  1  0  0  0
 16 15  1  0  0  0
 17 16  1  0  0  0
  1 15  1  0  0  0
  2  1  2  0  0  0
  3  2  1  0  0  0
  4  3  2  0  0  0
  5  4  1  0  0  0
  6  5  2  0  0  0
  7  6  1  0  0  0
  8  7  1  0  0  0
  9  8  2  0  0  0
 10  9  1  0  0  0
 10 11  1  0  0  0
 11 12  1  0  0  0
 13 12  1  0  0  0
 13 14  1  0  0  0
 24 25  1  0  0  0
 17 18  1  0  0  0
M  END
> <minimizedAffinity>
-7.41333

$$$$
