2P3B_3TL_A_101


 74 77  0  0  0  0  0  0  0  0999 V2000
   19.8334   -0.2069    0.2666 C   0  0  0  0  0  0  0  0  0  0  0  0
   21.2106   -0.0160    0.4582 O   0  0  0  0  0  0  0  0  0  0  0  0
   21.4197   -0.0947    1.4021 H   0  0  0  0  0  0  0  0  0  0  0  0
   19.5211   -1.6280    0.7423 C   0  0  0  0  0  0  0  0  0  0  0  0
   20.7307   -2.3498    0.6869 O   0  0  0  0  0  0  0  0  0  0  0  0
   21.0432   -2.3871   -0.2307 H   0  0  0  0  0  0  0  0  0  0  0  0
   18.5252   -2.4085   -0.1028 C   0  0  0  0  0  0  0  0  0  0  0  0
   18.5846   -1.9583   -1.4948 N   0  0  0  0  0  0  0  0  0  0  0  0
   17.6800   -1.1981   -2.1161 C   0  0  0  0  0  0  0  0  0  0  0  0
   16.6533   -0.8212   -1.5817 O   0  0  0  0  0  0  0  0  0  0  0  0
   19.3654   -2.2431   -2.0224 H   0  0  0  0  0  0  0  0  0  0  0  0
   17.9928   -0.8355   -3.5494 C   0  0  0  0  0  0  0  0  0  0  0  0
   17.5079   -1.8686   -4.4569 N   0  0  0  0  0  0  0  0  0  0  0  0
   18.2098   -2.9183   -4.8853 C   0  0  0  0  0  0  0  0  0  0  0  0
   19.3625   -3.1334   -4.5318 O   0  0  0  0  0  0  0  0  0  0  0  0
   16.5822   -1.7838   -4.7814 H   0  0  0  0  0  0  0  0  0  0  0  0
   17.4927   -3.8235   -5.8720 C   0  0  0  0  0  0  0  0  0  0  0  0
   16.8157   -2.9939   -6.9544 C   0  0  0  0  0  0  0  0  0  0  0  0
   16.5097   -4.6407   -5.1959 N   0  0  0  0  0  0  0  0  0  0  0  0
   16.1909   -5.9006   -5.4887 C   0  0  0  0  0  0  0  0  0  0  0  0
   16.9625   -6.7553   -5.8877 O   0  0  0  0  0  0  0  0  0  0  0  0
   16.0283   -4.2246   -4.4446 H   0  0  0  0  0  0  0  0  0  0  0  0
   14.8113   -6.2650   -5.3075 O   0  0  0  0  0  0  0  0  0  0  0  0
   14.3936   -7.5953   -4.9755 C   0  0  0  0  0  0  0  0  0  0  0  0
   13.3447   -7.6262   -3.8843 C   0  0  0  0  0  0  0  0  0  0  0  0
   12.9853   -6.4296   -3.2438 C   0  0  0  0  0  0  0  0  0  0  0  0
   12.0316   -6.4227   -2.2239 C   0  0  0  0  0  0  0  0  0  0  0  0
   11.4294   -7.6234   -1.8550 C   0  0  0  0  0  0  0  0  0  0  0  0
   11.7797   -8.8199   -2.4848 C   0  0  0  0  0  0  0  0  0  0  0  0
   12.7390   -8.8197   -3.5021 C   0  0  0  0  0  0  0  0  0  0  0  0
   17.3882    0.5150   -3.9410 C   0  0  0  0  0  0  0  0  0  0  0  0
   16.3701    0.3554   -5.0600 C   0  0  0  0  0  0  0  0  0  0  0  0
   18.4500    1.5342   -4.3601 C   0  0  0  0  0  0  0  0  0  0  0  0
   18.9185   -3.8868    0.0432 C   0  0  0  0  0  0  0  0  0  0  0  0
   17.9330   -4.8425   -0.5840 C   0  0  0  0  0  0  0  0  0  0  0  0
   16.5731   -4.7883   -0.2729 C   0  0  0  0  0  0  0  0  0  0  0  0
   18.4015   -5.7668   -1.5078 C   0  0  0  0  0  0  0  0  0  0  0  0
   15.6629   -5.6667   -0.8648 C   0  0  0  0  0  0  0  0  0  0  0  0
   17.5063   -6.6485   -2.1017 C   0  0  0  0  0  0  0  0  0  0  0  0
   16.1430   -6.5969   -1.7837 C   0  0  0  0  0  0  0  0  0  0  0  0
   19.0630    0.9086    0.9842 C   0  0  0  0  0  0  0  0  0  0  0  0
   18.2756    0.9154    3.3327 C   0  0  0  0  0  0  0  0  0  0  0  0
   17.1060    1.1070    3.0143 O   0  0  0  0  0  0  0  0  0  0  0  0
   19.2731    0.8782    2.4386 N   0  0  0  0  0  0  0  0  0  0  0  0
   20.1972    0.8277    2.7743 H   0  0  0  0  0  0  0  0  0  0  0  0
   18.6530    0.7197    4.7804 C   0  0  0  0  0  0  0  0  0  0  0  0
   18.5756    2.0392    6.8352 C   0  0  0  0  0  0  0  0  0  0  0  0
   19.4111    1.3423    7.3943 O   0  0  0  0  0  0  0  0  0  0  0  0
   18.0719    1.7371    5.6348 N   0  0  0  0  0  0  0  0  0  0  0  0
   17.2765    2.2236    5.3186 H   0  0  0  0  0  0  0  0  0  0  0  0
   18.0412    3.3034    7.4668 C   0  0  0  0  0  0  0  0  0  0  0  0
   17.7267    3.0506    8.9291 C   0  0  0  0  0  0  0  0  0  0  0  0
   16.8661    5.1843    6.5219 C   0  0  0  0  0  0  0  0  0  0  0  0
   17.8219    5.9073    6.6951 O   0  0  0  0  0  0  0  0  0  0  0  0
   16.8891    3.8740    6.7909 N   0  0  0  0  0  0  0  0  0  0  0  0
   16.1313    3.3011    6.5327 H   0  0  0  0  0  0  0  0  0  0  0  0
   15.6665    5.7780    5.9761 O   0  0  0  0  0  0  0  0  0  0  0  0
   15.6640    6.6298    4.8134 C   0  0  0  0  0  0  0  0  0  0  0  0
   14.2857    7.0766    4.3321 C   0  0  0  0  0  0  0  0  0  0  0  0
   13.8871    8.4090    4.5293 C   0  0  0  0  0  0  0  0  0  0  0  0
   12.6436    8.8738    4.0957 C   0  0  0  0  0  0  0  0  0  0  0  0
   11.7653    7.9933    3.4719 C   0  0  0  0  0  0  0  0  0  0  0  0
   12.1469    6.6690    3.2662 C   0  0  0  0  0  0  0  0  0  0  0  0
   13.4013    6.2180    3.6958 C   0  0  0  0  0  0  0  0  0  0  0  0
   18.2572   -0.6660    5.3276 C   0  0  0  0  0  0  0  0  0  0  0  0
   18.5650   -1.7815    4.3443 C   0  0  0  0  0  0  0  0  0  0  0  0
   16.7744   -0.7514    5.6782 C   0  0  0  0  0  0  0  0  0  0  0  0
   19.4409    2.2608    0.3618 C   0  0  0  0  0  0  0  0  0  0  0  0
   18.4269    3.3177    0.7218 C   0  0  0  0  0  0  0  0  0  0  0  0
   18.7139    4.2718    1.7029 C   0  0  0  0  0  0  0  0  0  0  0  0
   17.1891    3.3299    0.0766 C   0  0  0  0  0  0  0  0  0  0  0  0
   17.7728    5.2539    2.0322 C   0  0  0  0  0  0  0  0  0  0  0  0
   16.2470    4.2945    0.4206 C   0  0  0  0  0  0  0  0  0  0  0  0
   16.5316    5.2619    1.3906 C   0  0  0  0  0  0  0  0  0  0  0  0
 53 54  2  0  0  0
 53 57  1  0  0  0
 53 55  1  0  0  0
 57 58  1  0  0  0
 58 59  1  0  0  0
 59 60  2  0  0  0
 59 64  1  0  0  0
 60 61  1  0  0  0
 61 62  2  0  0  0
 62 63  1  0  0  0
 63 64  2  0  0  0
 55 51  1  0  0  0
 51 47  1  0  0  0
 51 52  1  0  0  0
 47 48  2  0  0  0
 47 49  1  0  0  0
 49 46  1  0  0  0
 46 42  1  0  0  0
 46 65  1  0  0  0
 42 43  2  0  0  0
 42 44  1  0  0  0
 65 66  1  0  0  0
 65 67  1  0  0  0
  1  2  1  0  0  0
  1 41  1  0  0  0
  1  4  1  0  0  0
 41 44  1  0  0  0
 41 68  1  0  0  0
 68 69  1  0  0  0
 69 70  2  0  0  0
 69 71  1  0  0  0
 70 72  1  0  0  0
 71 73  2  0  0  0
 72 74  2  0  0  0
 73 74  1  0  0  0
  8  7  1  0  0  0
  8  9  1  0  0  0
  7  4  1  0  0  0
  7 34  1  0  0  0
  4  5  1  0  0  0
 34 35  1  0  0  0
 35 36  2  0  0  0
 35 37  1  0  0  0
 36 38  1  0  0  0
 37 39  2  0  0  0
 38 40  2  0  0  0
 39 40  1  0  0  0
 13 12  1  0  0  0
 13 14  1  0  0  0
 12  9  1  0  0  0
 12 31  1  0  0  0
  9 10  2  0  0  0
 31 32  1  0  0  0
 31 33  1  0  0  0
 19 17  1  0  0  0
 19 20  1  0  0  0
 17 14  1  0  0  0
 17 18  1  0  0  0
 14 15  2  0  0  0
 20 21  2  0  0  0
 20 23  1  0  0  0
 23 24  1  0  0  0
 24 25  1  0  0  0
 25 26  2  0  0  0
 25 30  1  0  0  0
 26 27  1  0  0  0
 27 28  2  0  0  0
 28 29  1  0  0  0
 29 30  2  0  0  0
 55 56  1  0  0  0
 49 50  1  0  0  0
  2  3  1  0  0  0
 44 45  1  0  0  0
  8 11  1  0  0  0
  5  6  1  0  0  0
 13 16  1  0  0  0
 19 22  1  0  0  0
M  END
> <minimizedAffinity>
-10.95957

$$$$
2P3B_3TL_A_101


 74 77  0  0  0  0  0  0  0  0999 V2000
   19.2621    0.8458    0.6719 C   0  0  0  0  0  0  0  0  0  0  0  0
   20.4061    1.6333    0.8745 O   0  0  0  0  0  0  0  0  0  0  0  0
   20.8627    1.3394    1.6782 H   0  0  0  0  0  0  0  0  0  0  0  0
   19.7519   -0.5923    0.4843 C   0  0  0  0  0  0  0  0  0  0  0  0
   20.8761   -0.5311   -0.3642 O   0  0  0  0  0  0  0  0  0  0  0  0
   20.6113   -0.1742   -1.2264 H   0  0  0  0  0  0  0  0  0  0  0  0
   18.7723   -1.5470   -0.1820 C   0  0  0  0  0  0  0  0  0  0  0  0
   18.8396   -1.4025   -1.6375 N   0  0  0  0  0  0  0  0  0  0  0  0
   17.8603   -0.9638   -2.4317 C   0  0  0  0  0  0  0  0  0  0  0  0
   16.7551   -0.6672   -2.0170 O   0  0  0  0  0  0  0  0  0  0  0  0
   19.6873   -1.6524   -2.0715 H   0  0  0  0  0  0  0  0  0  0  0  0
   18.1942   -0.8678   -3.9025 C   0  0  0  0  0  0  0  0  0  0  0  0
   17.6290   -1.9973   -4.6311 N   0  0  0  0  0  0  0  0  0  0  0  0
   18.2933   -3.0914   -5.0051 C   0  0  0  0  0  0  0  0  0  0  0  0
   19.4778   -3.2676   -4.7483 O   0  0  0  0  0  0  0  0  0  0  0  0
   16.6745   -1.9480   -4.8672 H   0  0  0  0  0  0  0  0  0  0  0  0
   17.4879   -4.1024   -5.8030 C   0  0  0  0  0  0  0  0  0  0  0  0
   16.6181   -3.3918   -6.8309 C   0  0  0  0  0  0  0  0  0  0  0  0
   16.6579   -4.9006   -4.9283 N   0  0  0  0  0  0  0  0  0  0  0  0
   16.4138   -6.2053   -5.0417 C   0  0  0  0  0  0  0  0  0  0  0  0
   17.2041   -7.0453   -5.4355 O   0  0  0  0  0  0  0  0  0  0  0  0
   16.2308   -4.4335   -4.1742 H   0  0  0  0  0  0  0  0  0  0  0  0
   15.0983   -6.6410   -4.6568 O   0  0  0  0  0  0  0  0  0  0  0  0
   14.8705   -7.7451   -3.7717 C   0  0  0  0  0  0  0  0  0  0  0  0
   13.5380   -7.6606   -3.0582 C   0  0  0  0  0  0  0  0  0  0  0  0
   12.7837   -8.8301   -2.8725 C   0  0  0  0  0  0  0  0  0  0  0  0
   11.5442   -8.7876   -2.2309 C   0  0  0  0  0  0  0  0  0  0  0  0
   11.0674   -7.5646   -1.7646 C   0  0  0  0  0  0  0  0  0  0  0  0
   11.8090   -6.3947   -1.9445 C   0  0  0  0  0  0  0  0  0  0  0  0
   13.0473   -6.4444   -2.5920 C   0  0  0  0  0  0  0  0  0  0  0  0
   17.6920    0.4409   -4.5170 C   0  0  0  0  0  0  0  0  0  0  0  0
   17.7189    0.3781   -6.0367 C   0  0  0  0  0  0  0  0  0  0  0  0
   18.4915    1.6567   -4.0433 C   0  0  0  0  0  0  0  0  0  0  0  0
   19.1801   -2.9555    0.2777 C   0  0  0  0  0  0  0  0  0  0  0  0
   18.1648   -4.0213   -0.0557 C   0  0  0  0  0  0  0  0  0  0  0  0
   18.3833   -4.9309   -1.0921 C   0  0  0  0  0  0  0  0  0  0  0  0
   17.0112   -4.1021    0.7123 C   0  0  0  0  0  0  0  0  0  0  0  0
   17.4467   -5.9232   -1.3894 C   0  0  0  0  0  0  0  0  0  0  0  0
   16.0699   -5.0832    0.4247 C   0  0  0  0  0  0  0  0  0  0  0  0
   16.2879   -5.9911   -0.6195 C   0  0  0  0  0  0  0  0  0  0  0  0
   18.2875    1.0595    1.8369 C   0  0  0  0  0  0  0  0  0  0  0  0
   17.3680    3.2328    2.5896 C   0  0  0  0  0  0  0  0  0  0  0  0
   17.8398    3.1223    3.7170 O   0  0  0  0  0  0  0  0  0  0  0  0
   17.4744    2.2714    1.6622 N   0  0  0  0  0  0  0  0  0  0  0  0
   16.9809    2.3829    0.8176 H   0  0  0  0  0  0  0  0  0  0  0  0
   16.6195    4.4811    2.1916 C   0  0  0  0  0  0  0  0  0  0  0  0
   15.2263    5.8101    3.6955 C   0  0  0  0  0  0  0  0  0  0  0  0
   14.2249    5.6609    3.0091 O   0  0  0  0  0  0  0  0  0  0  0  0
   16.4330    5.3822    3.3123 N   0  0  0  0  0  0  0  0  0  0  0  0
   17.2249    5.6903    3.8095 H   0  0  0  0  0  0  0  0  0  0  0  0
   15.1758    6.5000    5.0387 C   0  0  0  0  0  0  0  0  0  0  0  0
   16.0295    7.7534    5.0019 C   0  0  0  0  0  0  0  0  0  0  0  0
   14.7699    5.6159    7.2444 C   0  0  0  0  0  0  0  0  0  0  0  0
   13.6799    6.1417    7.2877 O   0  0  0  0  0  0  0  0  0  0  0  0
   15.5546    5.6604    6.1618 N   0  0  0  0  0  0  0  0  0  0  0  0
   16.3822    5.1283    6.1266 H   0  0  0  0  0  0  0  0  0  0  0  0
   15.2122    4.8921    8.4149 O   0  0  0  0  0  0  0  0  0  0  0  0
   16.5908    4.8269    8.8304 C   0  0  0  0  0  0  0  0  0  0  0  0
   17.3623    3.6005    8.3489 C   0  0  0  0  0  0  0  0  0  0  0  0
   18.0490    3.6570    7.1249 C   0  0  0  0  0  0  0  0  0  0  0  0
   18.7819    2.5695    6.6447 C   0  0  0  0  0  0  0  0  0  0  0  0
   18.8178    1.3910    7.3833 C   0  0  0  0  0  0  0  0  0  0  0  0
   18.1443    1.3198    8.6011 C   0  0  0  0  0  0  0  0  0  0  0  0
   17.4219    2.4212    9.0769 C   0  0  0  0  0  0  0  0  0  0  0  0
   17.3001    5.2561    1.0460 C   0  0  0  0  0  0  0  0  0  0  0  0
   16.5950    5.0529   -0.2835 C   0  0  0  0  0  0  0  0  0  0  0  0
   18.7619    4.8586    0.8624 C   0  0  0  0  0  0  0  0  0  0  0  0
   17.4325   -0.2039    2.0148 C   0  0  0  0  0  0  0  0  0  0  0  0
   17.4519   -0.6654    3.4505 C   0  0  0  0  0  0  0  0  0  0  0  0
   16.5704   -0.1137    4.3854 C   0  0  0  0  0  0  0  0  0  0  0  0
   18.3684   -1.6413    3.8459 C   0  0  0  0  0  0  0  0  0  0  0  0
   16.5877   -0.5465    5.7162 C   0  0  0  0  0  0  0  0  0  0  0  0
   18.3979   -2.0550    5.1742 C   0  0  0  0  0  0  0  0  0  0  0  0
   17.5094   -1.5189    6.1128 C   0  0  0  0  0  0  0  0  0  0  0  0
 53 54  2  0  0  0
 53 57  1  0  0  0
 53 55  1  0  0  0
 57 58  1  0  0  0
 58 59  1  0  0  0
 59 60  2  0  0  0
 59 64  1  0  0  0
 60 61  1  0  0  0
 61 62  2  0  0  0
 62 63  1  0  0  0
 63 64  2  0  0  0
 55 51  1  0  0  0
 51 47  1  0  0  0
 51 52  1  0  0  0
 47 48  2  0  0  0
 47 49  1  0  0  0
 49 46  1  0  0  0
 46 42  1  0  0  0
 46 65  1  0  0  0
 42 43  2  0  0  0
 42 44  1  0  0  0
 65 66  1  0  0  0
 65 67  1  0  0  0
  1  2  1  0  0  0
  1 41  1  0  0  0
  1  4  1  0  0  0
 41 44  1  0  0  0
 41 68  1  0  0  0
 68 69  1  0  0  0
 69 70  2  0  0  0
 69 71  1  0  0  0
 70 72  1  0  0  0
 71 73  2  0  0  0
 72 74  2  0  0  0
 73 74  1  0  0  0
  8  7  1  0  0  0
  8  9  1  0  0  0
  7  4  1  0  0  0
  7 34  1  0  0  0
  4  5  1  0  0  0
 34 35  1  0  0  0
 35 36  2  0  0  0
 35 37  1  0  0  0
 36 38  1  0  0  0
 37 39  2  0  0  0
 38 40  2  0  0  0
 39 40  1  0  0  0
 13 12  1  0  0  0
 13 14  1  0  0  0
 12  9  1  0  0  0
 12 31  1  0  0  0
  9 10  2  0  0  0
 31 32  1  0  0  0
 31 33  1  0  0  0
 19 17  1  0  0  0
 19 20  1  0  0  0
 17 14  1  0  0  0
 17 18  1  0  0  0
 14 15  2  0  0  0
 20 21  2  0  0  0
 20 23  1  0  0  0
 23 24  1  0  0  0
 24 25  1  0  0  0
 25 26  2  0  0  0
 25 30  1  0  0  0
 26 27  1  0  0  0
 27 28  2  0  0  0
 28 29  1  0  0  0
 29 30  2  0  0  0
 55 56  1  0  0  0
 49 50  1  0  0  0
  2  3  1  0  0  0
 44 45  1  0  0  0
  8 11  1  0  0  0
  5  6  1  0  0  0
 13 16  1  0  0  0
 19 22  1  0  0  0
M  END
> <minimizedAffinity>
-10.83445

$$$$
2P3B_3TL_A_101


 74 77  0  0  0  0  0  0  0  0999 V2000
   19.5869   -1.3184    0.5757 C   0  0  0  0  0  0  0  0  0  0  0  0
   20.8782   -1.8652    0.6342 O   0  0  0  0  0  0  0  0  0  0  0  0
   21.3100   -1.7678   -0.2290 H   0  0  0  0  0  0  0  0  0  0  0  0
   19.7584    0.1686    0.2551 C   0  0  0  0  0  0  0  0  0  0  0  0
   21.0649    0.5211    0.6503 O   0  0  0  0  0  0  0  0  0  0  0  0
   21.1589    0.3930    1.6072 H   0  0  0  0  0  0  0  0  0  0  0  0
   18.8247    1.1193    0.9896 C   0  0  0  0  0  0  0  0  0  0  0  0
   18.8849    0.8703    2.4312 N   0  0  0  0  0  0  0  0  0  0  0  0
   17.8601    0.9311    3.2845 C   0  0  0  0  0  0  0  0  0  0  0  0
   16.7358    1.2526    2.9464 O   0  0  0  0  0  0  0  0  0  0  0  0
   19.7643    0.6359    2.8067 H   0  0  0  0  0  0  0  0  0  0  0  0
   18.1754    0.5899    4.7226 C   0  0  0  0  0  0  0  0  0  0  0  0
   17.6729    1.6260    5.6171 N   0  0  0  0  0  0  0  0  0  0  0  0
   18.3916    2.6252    6.1299 C   0  0  0  0  0  0  0  0  0  0  0  0
   19.5790    2.7855    5.8763 O   0  0  0  0  0  0  0  0  0  0  0  0
   16.7207    1.5842    5.8637 H   0  0  0  0  0  0  0  0  0  0  0  0
   17.6448    3.5444    7.0811 C   0  0  0  0  0  0  0  0  0  0  0  0
   16.6429    2.7490    7.9067 C   0  0  0  0  0  0  0  0  0  0  0  0
   16.9586    4.5876    6.3517 N   0  0  0  0  0  0  0  0  0  0  0  0
   17.3988    5.8271    6.1405 C   0  0  0  0  0  0  0  0  0  0  0  0
   18.5604    6.1481    5.9591 O   0  0  0  0  0  0  0  0  0  0  0  0
   16.0787    4.3591    5.9737 H   0  0  0  0  0  0  0  0  0  0  0  0
   16.3998    6.8616    6.1246 O   0  0  0  0  0  0  0  0  0  0  0  0
   15.1165    6.7157    6.7460 C   0  0  0  0  0  0  0  0  0  0  0  0
   13.9873    6.6091    5.7433 C   0  0  0  0  0  0  0  0  0  0  0  0
   14.2838    6.3009    4.4061 C   0  0  0  0  0  0  0  0  0  0  0  0
   13.2690    6.2080    3.4514 C   0  0  0  0  0  0  0  0  0  0  0  0
   11.9495    6.4151    3.8470 C   0  0  0  0  0  0  0  0  0  0  0  0
   11.6429    6.7230    5.1744 C   0  0  0  0  0  0  0  0  0  0  0  0
   12.6650    6.8190    6.1238 C   0  0  0  0  0  0  0  0  0  0  0  0
   17.5907   -0.7650    5.1287 C   0  0  0  0  0  0  0  0  0  0  0  0
   16.4886   -0.5977    6.1639 C   0  0  0  0  0  0  0  0  0  0  0  0
   18.6535   -1.7255    5.6670 C   0  0  0  0  0  0  0  0  0  0  0  0
   19.2985    2.5357    0.6281 C   0  0  0  0  0  0  0  0  0  0  0  0
   18.2679    3.6067    0.8904 C   0  0  0  0  0  0  0  0  0  0  0  0
   17.1578    3.7630    0.0583 C   0  0  0  0  0  0  0  0  0  0  0  0
   18.4277    4.4232    2.0016 C   0  0  0  0  0  0  0  0  0  0  0  0
   16.2002    4.7474    0.3117 C   0  0  0  0  0  0  0  0  0  0  0  0
   17.4833    5.4087    2.2632 C   0  0  0  0  0  0  0  0  0  0  0  0
   16.3734    5.5682    1.4236 C   0  0  0  0  0  0  0  0  0  0  0  0
   18.7457   -2.1131   -0.4311 C   0  0  0  0  0  0  0  0  0  0  0  0
   18.1176   -1.2474   -2.6653 C   0  0  0  0  0  0  0  0  0  0  0  0
   16.9225   -1.2033   -2.3903 O   0  0  0  0  0  0  0  0  0  0  0  0
   19.0383   -1.7304   -1.8197 N   0  0  0  0  0  0  0  0  0  0  0  0
   19.9611   -1.8345   -2.1466 H   0  0  0  0  0  0  0  0  0  0  0  0
   18.6141   -0.7586   -4.0037 C   0  0  0  0  0  0  0  0  0  0  0  0
   18.5003   -2.8523   -5.2578 C   0  0  0  0  0  0  0  0  0  0  0  0
   19.4353   -3.3487   -4.6450 O   0  0  0  0  0  0  0  0  0  0  0  0
   18.1271   -1.5793   -5.0955 N   0  0  0  0  0  0  0  0  0  0  0  0
   17.4981   -1.1839   -5.7414 H   0  0  0  0  0  0  0  0  0  0  0  0
   17.6919   -3.6460   -6.2573 C   0  0  0  0  0  0  0  0  0  0  0  0
   17.5156   -2.8380   -7.5289 C   0  0  0  0  0  0  0  0  0  0  0  0
   16.2324   -5.3983   -5.4756 C   0  0  0  0  0  0  0  0  0  0  0  0
   17.1413   -6.1984   -5.4788 O   0  0  0  0  0  0  0  0  0  0  0  0
   16.4046   -4.1032   -5.7636 N   0  0  0  0  0  0  0  0  0  0  0  0
   15.6648   -3.4652   -5.6418 H   0  0  0  0  0  0  0  0  0  0  0  0
   14.9171   -5.8791   -5.1175 O   0  0  0  0  0  0  0  0  0  0  0  0
   14.6367   -7.2582   -4.8061 C   0  0  0  0  0  0  0  0  0  0  0  0
   13.5236   -7.4859   -3.7863 C   0  0  0  0  0  0  0  0  0  0  0  0
   13.1220   -8.7985   -3.4883 C   0  0  0  0  0  0  0  0  0  0  0  0
   12.1193   -9.0638   -2.5531 C   0  0  0  0  0  0  0  0  0  0  0  0
   11.4841   -8.0037   -1.9141 C   0  0  0  0  0  0  0  0  0  0  0  0
   11.8729   -6.6957   -2.1964 C   0  0  0  0  0  0  0  0  0  0  0  0
   12.8875   -6.4435   -3.1282 C   0  0  0  0  0  0  0  0  0  0  0  0
   18.2413    0.7097   -4.2886 C   0  0  0  0  0  0  0  0  0  0  0  0
   18.4225    1.5957   -3.0688 C   0  0  0  0  0  0  0  0  0  0  0  0
   16.7992    0.8623   -4.7639 C   0  0  0  0  0  0  0  0  0  0  0  0
   18.9459   -3.6147   -0.1785 C   0  0  0  0  0  0  0  0  0  0  0  0
   17.6463   -4.3626   -0.3407 C   0  0  0  0  0  0  0  0  0  0  0  0
   17.3175   -4.9577   -1.5627 C   0  0  0  0  0  0  0  0  0  0  0  0
   16.7629   -4.4462    0.7369 C   0  0  0  0  0  0  0  0  0  0  0  0
   16.1128   -5.6545   -1.7094 C   0  0  0  0  0  0  0  0  0  0  0  0
   15.5562   -5.1217    0.5824 C   0  0  0  0  0  0  0  0  0  0  0  0
   15.2261   -5.7327   -0.6324 C   0  0  0  0  0  0  0  0  0  0  0  0
 53 54  2  0  0  0
 53 57  1  0  0  0
 53 55  1  0  0  0
 57 58  1  0  0  0
 58 59  1  0  0  0
 59 60  2  0  0  0
 59 64  1  0  0  0
 60 61  1  0  0  0
 61 62  2  0  0  0
 62 63  1  0  0  0
 63 64  2  0  0  0
 55 51  1  0  0  0
 51 47  1  0  0  0
 51 52  1  0  0  0
 47 48  2  0  0  0
 47 49  1  0  0  0
 49 46  1  0  0  0
 46 42  1  0  0  0
 46 65  1  0  0  0
 42 43  2  0  0  0
 42 44  1  0  0  0
 65 66  1  0  0  0
 65 67  1  0  0  0
  1  2  1  0  0  0
  1 41  1  0  0  0
  1  4  1  0  0  0
 41 44  1  0  0  0
 41 68  1  0  0  0
 68 69  1  0  0  0
 69 70  2  0  0  0
 69 71  1  0  0  0
 70 72  1  0  0  0
 71 73  2  0  0  0
 72 74  2  0  0  0
 73 74  1  0  0  0
  8  7  1  0  0  0
  8  9  1  0  0  0
  7  4  1  0  0  0
  7 34  1  0  0  0
  4  5  1  0  0  0
 34 35  1  0  0  0
 35 36  2  0  0  0
 35 37  1  0  0  0
 36 38  1  0  0  0
 37 39  2  0  0  0
 38 40  2  0  0  0
 39 40  1  0  0  0
 13 12  1  0  0  0
 13 14  1  0  0  0
 12  9  1  0  0  0
 12 31  1  0  0  0
  9 10  2  0  0  0
 31 32  1  0  0  0
 31 33  1  0  0  0
 19 17  1  0  0  0
 19 20  1  0  0  0
 17 14  1  0  0  0
 17 18  1  0  0  0
 14 15  2  0  0  0
 20 21  2  0  0  0
 20 23  1  0  0  0
 23 24  1  0  0  0
 24 25  1  0  0  0
 25 26  2  0  0  0
 25 30  1  0  0  0
 26 27  1  0  0  0
 27 28  2  0  0  0
 28 29  1  0  0  0
 29 30  2  0  0  0
 55 56  1  0  0  0
 49 50  1  0  0  0
  2  3  1  0  0  0
 44 45  1  0  0  0
  8 11  1  0  0  0
  5  6  1  0  0  0
 13 16  1  0  0  0
 19 22  1  0  0  0
M  END
> <minimizedAffinity>
-10.64713

$$$$
2P3B_3TL_A_101


 74 77  0  0  0  0  0  0  0  0999 V2000
   19.8197   -0.4015    0.7549 C   0  0  0  0  0  0  0  0  0  0  0  0
   21.0670   -0.2499    0.1294 O   0  0  0  0  0  0  0  0  0  0  0  0
   20.9378    0.0782   -0.7743 H   0  0  0  0  0  0  0  0  0  0  0  0
   19.1851    0.9908    0.8026 C   0  0  0  0  0  0  0  0  0  0  0  0
   20.1322    1.8873    0.2672 O   0  0  0  0  0  0  0  0  0  0  0  0
   20.9283    1.8856    0.8213 H   0  0  0  0  0  0  0  0  0  0  0  0
   18.8416    1.5180    2.1879 C   0  0  0  0  0  0  0  0  0  0  0  0
   18.7973    2.9815    2.1728 N   0  0  0  0  0  0  0  0  0  0  0  0
   18.1227    3.7580    3.0238 C   0  0  0  0  0  0  0  0  0  0  0  0
   17.4146    3.3116    3.9076 O   0  0  0  0  0  0  0  0  0  0  0  0
   19.3139    3.4358    1.4686 H   0  0  0  0  0  0  0  0  0  0  0  0
   18.2720    5.2480    2.8204 C   0  0  0  0  0  0  0  0  0  0  0  0
   17.1937    5.9670    3.4886 N   0  0  0  0  0  0  0  0  0  0  0  0
   15.9250    6.0183    3.0814 C   0  0  0  0  0  0  0  0  0  0  0  0
   15.5252    5.4319    2.0833 O   0  0  0  0  0  0  0  0  0  0  0  0
   17.4221    6.4568    4.3115 H   0  0  0  0  0  0  0  0  0  0  0  0
   15.0037    6.8823    3.9253 C   0  0  0  0  0  0  0  0  0  0  0  0
   15.5869    8.2799    4.0819 C   0  0  0  0  0  0  0  0  0  0  0  0
   14.7976    6.2897    5.2282 N   0  0  0  0  0  0  0  0  0  0  0  0
   15.7273    6.0814    6.1593 C   0  0  0  0  0  0  0  0  0  0  0  0
   16.6816    6.8047    6.3860 O   0  0  0  0  0  0  0  0  0  0  0  0
   13.8790    6.0128    5.4491 H   0  0  0  0  0  0  0  0  0  0  0  0
   15.5708    4.8962    6.9589 O   0  0  0  0  0  0  0  0  0  0  0  0
   16.3979    4.6059    8.0928 C   0  0  0  0  0  0  0  0  0  0  0  0
   17.2817    3.3953    7.8806 C   0  0  0  0  0  0  0  0  0  0  0  0
   17.2028    2.3216    8.7817 C   0  0  0  0  0  0  0  0  0  0  0  0
   18.0125    1.1948    8.6246 C   0  0  0  0  0  0  0  0  0  0  0  0
   18.8971    1.1441    7.5498 C   0  0  0  0  0  0  0  0  0  0  0  0
   18.9846    2.2068    6.6476 C   0  0  0  0  0  0  0  0  0  0  0  0
   18.1738    3.3338    6.8140 C   0  0  0  0  0  0  0  0  0  0  0  0
   19.6214    5.7606    3.3291 C   0  0  0  0  0  0  0  0  0  0  0  0
   19.7622    5.5385    4.8274 C   0  0  0  0  0  0  0  0  0  0  0  0
   19.8452    7.2406    3.0104 C   0  0  0  0  0  0  0  0  0  0  0  0
   17.4796    0.9028    2.5455 C   0  0  0  0  0  0  0  0  0  0  0  0
   17.5236   -0.0178    3.7406 C   0  0  0  0  0  0  0  0  0  0  0  0
   16.5648    0.0621    4.7522 C   0  0  0  0  0  0  0  0  0  0  0  0
   18.5266   -0.9756    3.8036 C   0  0  0  0  0  0  0  0  0  0  0  0
   16.6022   -0.7998    5.8504 C   0  0  0  0  0  0  0  0  0  0  0  0
   18.5766   -1.8375    4.8927 C   0  0  0  0  0  0  0  0  0  0  0  0
   17.6174   -1.7517    5.9099 C   0  0  0  0  0  0  0  0  0  0  0  0
   19.0061   -1.4673    0.0101 C   0  0  0  0  0  0  0  0  0  0  0  0
   18.1464   -1.1982   -2.2973 C   0  0  0  0  0  0  0  0  0  0  0  0
   16.9730   -1.2385   -1.9405 O   0  0  0  0  0  0  0  0  0  0  0  0
   19.1685   -1.3683   -1.4474 N   0  0  0  0  0  0  0  0  0  0  0  0
   20.0778   -1.4303   -1.8196 H   0  0  0  0  0  0  0  0  0  0  0  0
   18.4989   -0.9610   -3.7451 C   0  0  0  0  0  0  0  0  0  0  0  0
   18.3662   -3.0484   -5.0077 C   0  0  0  0  0  0  0  0  0  0  0  0
   19.5475   -3.3107   -4.8286 O   0  0  0  0  0  0  0  0  0  0  0  0
   17.8197   -1.8895   -4.6279 N   0  0  0  0  0  0  0  0  0  0  0  0
   16.9224   -1.6575   -4.9599 H   0  0  0  0  0  0  0  0  0  0  0  0
   17.4277   -4.0214   -5.6823 C   0  0  0  0  0  0  0  0  0  0  0  0
   16.6231   -3.3006   -6.7472 C   0  0  0  0  0  0  0  0  0  0  0  0
   16.5990   -6.0703   -4.7193 C   0  0  0  0  0  0  0  0  0  0  0  0
   17.4449   -6.7184   -5.2945 O   0  0  0  0  0  0  0  0  0  0  0  0
   16.5455   -4.7346   -4.7752 N   0  0  0  0  0  0  0  0  0  0  0  0
   15.9132   -4.2392   -4.2060 H   0  0  0  0  0  0  0  0  0  0  0  0
   15.6302   -6.7888   -3.9226 O   0  0  0  0  0  0  0  0  0  0  0  0
   14.4390   -7.3846   -4.4735 C   0  0  0  0  0  0  0  0  0  0  0  0
   13.2656   -7.5170   -3.5057 C   0  0  0  0  0  0  0  0  0  0  0  0
   12.8395   -6.3902   -2.7834 C   0  0  0  0  0  0  0  0  0  0  0  0
   11.7626   -6.4523   -1.8964 C   0  0  0  0  0  0  0  0  0  0  0  0
   11.1062   -7.6637   -1.7035 C   0  0  0  0  0  0  0  0  0  0  0  0
   11.5147   -8.7902   -2.4146 C   0  0  0  0  0  0  0  0  0  0  0  0
   12.5892   -8.7121   -3.3096 C   0  0  0  0  0  0  0  0  0  0  0  0
   18.1950    0.4753   -4.2150 C   0  0  0  0  0  0  0  0  0  0  0  0
   18.4205    1.4991   -3.1165 C   0  0  0  0  0  0  0  0  0  0  0  0
   16.7606    0.6341   -4.7111 C   0  0  0  0  0  0  0  0  0  0  0  0
   19.3801   -2.8547    0.5523 C   0  0  0  0  0  0  0  0  0  0  0  0
   18.3063   -3.8631    0.2286 C   0  0  0  0  0  0  0  0  0  0  0  0
   18.4977   -4.8016   -0.7902 C   0  0  0  0  0  0  0  0  0  0  0  0
   17.1090   -3.8456    0.9461 C   0  0  0  0  0  0  0  0  0  0  0  0
   17.5013   -5.7387   -1.0859 C   0  0  0  0  0  0  0  0  0  0  0  0
   16.1114   -4.7650    0.6363 C   0  0  0  0  0  0  0  0  0  0  0  0
   16.3006   -5.7168   -0.3717 C   0  0  0  0  0  0  0  0  0  0  0  0
 53 54  2  0  0  0
 53 57  1  0  0  0
 53 55  1  0  0  0
 57 58  1  0  0  0
 58 59  1  0  0  0
 59 60  2  0  0  0
 59 64  1  0  0  0
 60 61  1  0  0  0
 61 62  2  0  0  0
 62 63  1  0  0  0
 63 64  2  0  0  0
 55 51  1  0  0  0
 51 47  1  0  0  0
 51 52  1  0  0  0
 47 48  2  0  0  0
 47 49  1  0  0  0
 49 46  1  0  0  0
 46 42  1  0  0  0
 46 65  1  0  0  0
 42 43  2  0  0  0
 42 44  1  0  0  0
 65 66  1  0  0  0
 65 67  1  0  0  0
  1  2  1  0  0  0
  1 41  1  0  0  0
  1  4  1  0  0  0
 41 44  1  0  0  0
 41 68  1  0  0  0
 68 69  1  0  0  0
 69 70  2  0  0  0
 69 71  1  0  0  0
 70 72  1  0  0  0
 71 73  2  0  0  0
 72 74  2  0  0  0
 73 74  1  0  0  0
  8  7  1  0  0  0
  8  9  1  0  0  0
  7  4  1  0  0  0
  7 34  1  0  0  0
  4  5  1  0  0  0
 34 35  1  0  0  0
 35 36  2  0  0  0
 35 37  1  0  0  0
 36 38  1  0  0  0
 37 39  2  0  0  0
 38 40  2  0  0  0
 39 40  1  0  0  0
 13 12  1  0  0  0
 13 14  1  0  0  0
 12  9  1  0  0  0
 12 31  1  0  0  0
  9 10  2  0  0  0
 31 32  1  0  0  0
 31 33  1  0  0  0
 19 17  1  0  0  0
 19 20  1  0  0  0
 17 14  1  0  0  0
 17 18  1  0  0  0
 14 15  2  0  0  0
 20 21  2  0  0  0
 20 23  1  0  0  0
 23 24  1  0  0  0
 24 25  1  0  0  0
 25 26  2  0  0  0
 25 30  1  0  0  0
 26 27  1  0  0  0
 27 28  2  0  0  0
 28 29  1  0  0  0
 29 30  2  0  0  0
 55 56  1  0  0  0
 49 50  1  0  0  0
  2  3  1  0  0  0
 44 45  1  0  0  0
  8 11  1  0  0  0
  5  6  1  0  0  0
 13 16  1  0  0  0
 19 22  1  0  0  0
M  END
> <minimizedAffinity>
-10.58376

$$$$
2P3B_3TL_A_101


 74 77  0  0  0  0  0  0  0  0999 V2000
   19.3066   -0.8877    0.5265 C   0  0  0  0  0  0  0  0  0  0  0  0
   20.4210   -1.7153    0.3190 O   0  0  0  0  0  0  0  0  0  0  0  0
   20.9037   -1.4166   -0.4677 H   0  0  0  0  0  0  0  0  0  0  0  0
   19.8512    0.5228    0.7662 C   0  0  0  0  0  0  0  0  0  0  0  0
   20.9782    0.3864    1.6020 O   0  0  0  0  0  0  0  0  0  0  0  0
   20.7063    0.0058    2.4518 H   0  0  0  0  0  0  0  0  0  0  0  0
   18.9126    1.4861    1.4778 C   0  0  0  0  0  0  0  0  0  0  0  0
   19.0330    1.3269    2.9283 N   0  0  0  0  0  0  0  0  0  0  0  0
   18.0401    1.0442    3.7748 C   0  0  0  0  0  0  0  0  0  0  0  0
   16.8817    0.9264    3.4200 O   0  0  0  0  0  0  0  0  0  0  0  0
   19.9309    1.4389    3.3160 H   0  0  0  0  0  0  0  0  0  0  0  0
   18.4317    0.8910    5.2263 C   0  0  0  0  0  0  0  0  0  0  0  0
   17.7882    1.9145    6.0414 N   0  0  0  0  0  0  0  0  0  0  0  0
   18.3596    3.0417    6.4668 C   0  0  0  0  0  0  0  0  0  0  0  0
   19.5132    3.3454    6.1896 O   0  0  0  0  0  0  0  0  0  0  0  0
   16.8509    1.7600    6.3000 H   0  0  0  0  0  0  0  0  0  0  0  0
   17.4905    3.9204    7.3501 C   0  0  0  0  0  0  0  0  0  0  0  0
   16.5605    3.0624    8.1970 C   0  0  0  0  0  0  0  0  0  0  0  0
   16.7132    4.8407    6.5501 N   0  0  0  0  0  0  0  0  0  0  0  0
   17.0432    6.0934    6.2394 C   0  0  0  0  0  0  0  0  0  0  0  0
   18.1717    6.4985    6.0213 O   0  0  0  0  0  0  0  0  0  0  0  0
   15.8550    4.5085    6.2003 H   0  0  0  0  0  0  0  0  0  0  0  0
   15.9580    7.0335    6.1549 O   0  0  0  0  0  0  0  0  0  0  0  0
   15.7176    7.8446    4.9979 C   0  0  0  0  0  0  0  0  0  0  0  0
   14.3198    7.6749    4.4418 C   0  0  0  0  0  0  0  0  0  0  0  0
   13.4922    8.8013    4.3101 C   0  0  0  0  0  0  0  0  0  0  0  0
   12.1927    8.6801    3.8138 C   0  0  0  0  0  0  0  0  0  0  0  0
   11.7285    7.4216    3.4383 C   0  0  0  0  0  0  0  0  0  0  0  0
   12.5428    6.2940    3.5657 C   0  0  0  0  0  0  0  0  0  0  0  0
   13.8414    6.4225    4.0678 C   0  0  0  0  0  0  0  0  0  0  0  0
   18.0759   -0.4949    5.7698 C   0  0  0  0  0  0  0  0  0  0  0  0
   18.4820   -0.6316    7.2294 C   0  0  0  0  0  0  0  0  0  0  0  0
   18.7108   -1.6251    4.9565 C   0  0  0  0  0  0  0  0  0  0  0  0
   19.3246    2.8924    1.0152 C   0  0  0  0  0  0  0  0  0  0  0  0
   18.2216    3.9164    1.1272 C   0  0  0  0  0  0  0  0  0  0  0  0
   18.1308    4.7653    2.2319 C   0  0  0  0  0  0  0  0  0  0  0  0
   17.3063    4.0218    0.0888 C   0  0  0  0  0  0  0  0  0  0  0  0
   17.1156    5.7196    2.3259 C   0  0  0  0  0  0  0  0  0  0  0  0
   16.2894    4.9655    0.1716 C   0  0  0  0  0  0  0  0  0  0  0  0
   16.1961    5.8122    1.2837 C   0  0  0  0  0  0  0  0  0  0  0  0
   18.3452   -1.0260   -0.6607 C   0  0  0  0  0  0  0  0  0  0  0  0
   17.6248   -3.3401   -1.1718 C   0  0  0  0  0  0  0  0  0  0  0  0
   18.4728   -3.4863   -2.0467 O   0  0  0  0  0  0  0  0  0  0  0  0
   17.4518   -2.1842   -0.5163 N   0  0  0  0  0  0  0  0  0  0  0  0
   16.6843   -2.1064    0.0953 H   0  0  0  0  0  0  0  0  0  0  0  0
   16.7100   -4.4790   -0.7940 C   0  0  0  0  0  0  0  0  0  0  0  0
   15.5215   -6.0450   -2.2446 C   0  0  0  0  0  0  0  0  0  0  0  0
   14.4600   -5.8884   -1.6574 O   0  0  0  0  0  0  0  0  0  0  0  0
   16.6669   -5.5032   -1.8197 N   0  0  0  0  0  0  0  0  0  0  0  0
   17.5130   -5.8109   -2.2179 H   0  0  0  0  0  0  0  0  0  0  0  0
   15.6205   -6.8744   -3.5036 C   0  0  0  0  0  0  0  0  0  0  0  0
   16.6255   -7.9925   -3.3013 C   0  0  0  0  0  0  0  0  0  0  0  0
   14.9598   -5.7890   -5.5523 C   0  0  0  0  0  0  0  0  0  0  0  0
   13.7885   -5.9788   -5.3107 O   0  0  0  0  0  0  0  0  0  0  0  0
   15.9386   -6.1161   -4.7009 N   0  0  0  0  0  0  0  0  0  0  0  0
   16.8671   -5.8450   -4.8845 H   0  0  0  0  0  0  0  0  0  0  0  0
   15.2913   -5.1571   -6.8094 O   0  0  0  0  0  0  0  0  0  0  0  0
   16.6403   -5.0361   -7.3022 C   0  0  0  0  0  0  0  0  0  0  0  0
   17.3697   -3.7547   -6.9059 C   0  0  0  0  0  0  0  0  0  0  0  0
   18.0861   -3.7168   -5.6983 C   0  0  0  0  0  0  0  0  0  0  0  0
   18.7828   -2.5756   -5.2949 C   0  0  0  0  0  0  0  0  0  0  0  0
   18.7513   -1.4381   -6.0954 C   0  0  0  0  0  0  0  0  0  0  0  0
   18.0476   -1.4605   -7.2978 C   0  0  0  0  0  0  0  0  0  0  0  0
   17.3622   -2.6149   -7.6964 C   0  0  0  0  0  0  0  0  0  0  0  0
   17.0884   -5.1411    0.5456 C   0  0  0  0  0  0  0  0  0  0  0  0
   15.9074   -5.2312    1.4959 C   0  0  0  0  0  0  0  0  0  0  0  0
   18.2091   -4.3972    1.2664 C   0  0  0  0  0  0  0  0  0  0  0  0
   17.5778    0.2920   -0.8418 C   0  0  0  0  0  0  0  0  0  0  0  0
   17.5370    0.6920   -2.2955 C   0  0  0  0  0  0  0  0  0  0  0  0
   16.5906    0.1323   -3.1594 C   0  0  0  0  0  0  0  0  0  0  0  0
   18.4626    1.6183   -2.7791 C   0  0  0  0  0  0  0  0  0  0  0  0
   16.5523    0.5082   -4.5069 C   0  0  0  0  0  0  0  0  0  0  0  0
   18.4360    1.9748   -4.1239 C   0  0  0  0  0  0  0  0  0  0  0  0
   17.4829    1.4308   -4.9919 C   0  0  0  0  0  0  0  0  0  0  0  0
 53 54  2  0  0  0
 53 57  1  0  0  0
 53 55  1  0  0  0
 57 58  1  0  0  0
 58 59  1  0  0  0
 59 60  2  0  0  0
 59 64  1  0  0  0
 60 61  1  0  0  0
 61 62  2  0  0  0
 62 63  1  0  0  0
 63 64  2  0  0  0
 55 51  1  0  0  0
 51 47  1  0  0  0
 51 52  1  0  0  0
 47 48  2  0  0  0
 47 49  1  0  0  0
 49 46  1  0  0  0
 46 42  1  0  0  0
 46 65  1  0  0  0
 42 43  2  0  0  0
 42 44  1  0  0  0
 65 66  1  0  0  0
 65 67  1  0  0  0
  1  2  1  0  0  0
  1 41  1  0  0  0
  1  4  1  0  0  0
 41 44  1  0  0  0
 41 68  1  0  0  0
 68 69  1  0  0  0
 69 70  2  0  0  0
 69 71  1  0  0  0
 70 72  1  0  0  0
 71 73  2  0  0  0
 72 74  2  0  0  0
 73 74  1  0  0  0
  8  7  1  0  0  0
  8  9  1  0  0  0
  7  4  1  0  0  0
  7 34  1  0  0  0
  4  5  1  0  0  0
 34 35  1  0  0  0
 35 36  2  0  0  0
 35 37  1  0  0  0
 36 38  1  0  0  0
 37 39  2  0  0  0
 38 40  2  0  0  0
 39 40  1  0  0  0
 13 12  1  0  0  0
 13 14  1  0  0  0
 12  9  1  0  0  0
 12 31  1  0  0  0
  9 10  2  0  0  0
 31 32  1  0  0  0
 31 33  1  0  0  0
 19 17  1  0  0  0
 19 20  1  0  0  0
 17 14  1  0  0  0
 17 18  1  0  0  0
 14 15  2  0  0  0
 20 21  2  0  0  0
 20 23  1  0  0  0
 23 24  1  0  0  0
 24 25  1  0  0  0
 25 26  2  0  0  0
 25 30  1  0  0  0
 26 27  1  0  0  0
 27 28  2  0  0  0
 28 29  1  0  0  0
 29 30  2  0  0  0
 55 56  1  0  0  0
 49 50  1  0  0  0
  2  3  1  0  0  0
 44 45  1  0  0  0
  8 11  1  0  0  0
  5  6  1  0  0  0
 13 16  1  0  0  0
 19 22  1  0  0  0
M  END
> <minimizedAffinity>
-10.56288

$$$$
2P3B_3TL_A_101


 74 77  0  0  0  0  0  0  0  0999 V2000
   19.7655    0.3626    1.1829 C   0  0  0  0  0  0  0  0  0  0  0  0
   21.1138    0.2308    0.8158 O   0  0  0  0  0  0  0  0  0  0  0  0
   21.1993    0.3370   -0.1445 H   0  0  0  0  0  0  0  0  0  0  0  0
   19.3434    1.7796    0.7861 C   0  0  0  0  0  0  0  0  0  0  0  0
   20.5146    2.5643    0.7758 O   0  0  0  0  0  0  0  0  0  0  0  0
   20.8957    2.5880    1.6675 H   0  0  0  0  0  0  0  0  0  0  0  0
   18.3777    2.4758    1.7335 C   0  0  0  0  0  0  0  0  0  0  0  0
   18.5887    2.0042    3.1035 N   0  0  0  0  0  0  0  0  0  0  0  0
   17.7633    1.2224    3.8034 C   0  0  0  0  0  0  0  0  0  0  0  0
   16.6903    0.8409    3.3737 O   0  0  0  0  0  0  0  0  0  0  0  0
   19.4176    2.2907    3.5509 H   0  0  0  0  0  0  0  0  0  0  0  0
   18.2297    0.8409    5.1893 C   0  0  0  0  0  0  0  0  0  0  0  0
   17.7434    1.7987    6.1754 N   0  0  0  0  0  0  0  0  0  0  0  0
   18.3406    2.9441    6.5061 C   0  0  0  0  0  0  0  0  0  0  0  0
   19.3807    3.3243    5.9831 O   0  0  0  0  0  0  0  0  0  0  0  0
   16.9015    1.5808    6.6368 H   0  0  0  0  0  0  0  0  0  0  0  0
   17.6584    3.7418    7.6043 C   0  0  0  0  0  0  0  0  0  0  0  0
   17.3507    2.8447    8.7954 C   0  0  0  0  0  0  0  0  0  0  0  0
   16.4370    4.3432    7.1167 N   0  0  0  0  0  0  0  0  0  0  0  0
   15.8487    5.4390    7.5941 C   0  0  0  0  0  0  0  0  0  0  0  0
   16.4221    6.4171    8.0407 O   0  0  0  0  0  0  0  0  0  0  0  0
   15.9966    3.8987    6.3567 H   0  0  0  0  0  0  0  0  0  0  0  0
   14.4107    5.4505    7.5672 O   0  0  0  0  0  0  0  0  0  0  0  0
   13.6372    6.6443    7.7432 C   0  0  0  0  0  0  0  0  0  0  0  0
   13.4658    7.4276    6.4591 C   0  0  0  0  0  0  0  0  0  0  0  0
   12.6798    6.8903    5.4273 C   0  0  0  0  0  0  0  0  0  0  0  0
   12.5109    7.5787    4.2242 C   0  0  0  0  0  0  0  0  0  0  0  0
   13.1265    8.8178    4.0636 C   0  0  0  0  0  0  0  0  0  0  0  0
   13.9113    9.3616    5.0831 C   0  0  0  0  0  0  0  0  0  0  0  0
   14.0797    8.6643    6.2833 C   0  0  0  0  0  0  0  0  0  0  0  0
   17.7747   -0.5682    5.5764 C   0  0  0  0  0  0  0  0  0  0  0  0
   17.8141   -0.7615    7.0848 C   0  0  0  0  0  0  0  0  0  0  0  0
   18.6074   -1.6602    4.9012 C   0  0  0  0  0  0  0  0  0  0  0  0
   18.6602    3.9795    1.5907 C   0  0  0  0  0  0  0  0  0  0  0  0
   17.7514    4.8503    2.4236 C   0  0  0  0  0  0  0  0  0  0  0  0
   16.3747    4.8883    2.1944 C   0  0  0  0  0  0  0  0  0  0  0  0
   18.3087    5.5983    3.4518 C   0  0  0  0  0  0  0  0  0  0  0  0
   15.5359    5.6863    2.9754 C   0  0  0  0  0  0  0  0  0  0  0  0
   17.4851    6.3987    4.2344 C   0  0  0  0  0  0  0  0  0  0  0  0
   16.1049    6.4404    3.9989 C   0  0  0  0  0  0  0  0  0  0  0  0
   18.9527   -0.7677    0.5393 C   0  0  0  0  0  0  0  0  0  0  0  0
   17.9256   -0.7702   -1.7147 C   0  0  0  0  0  0  0  0  0  0  0  0
   16.7987   -0.9835   -1.2784 O   0  0  0  0  0  0  0  0  0  0  0  0
   19.0100   -0.7231   -0.9288 N   0  0  0  0  0  0  0  0  0  0  0  0
   19.8933   -0.6549   -1.3581 H   0  0  0  0  0  0  0  0  0  0  0  0
   18.1474   -0.5576   -3.1920 C   0  0  0  0  0  0  0  0  0  0  0  0
   18.3851   -2.1547   -5.0256 C   0  0  0  0  0  0  0  0  0  0  0  0
   19.3081   -1.5348   -5.5356 O   0  0  0  0  0  0  0  0  0  0  0  0
   17.6988   -1.6916   -3.9766 N   0  0  0  0  0  0  0  0  0  0  0  0
   16.8570   -2.1371   -3.7271 H   0  0  0  0  0  0  0  0  0  0  0  0
   17.9438   -3.5010   -5.5503 C   0  0  0  0  0  0  0  0  0  0  0  0
   17.3340   -3.3370   -6.9295 C   0  0  0  0  0  0  0  0  0  0  0  0
   17.3443   -5.4597   -4.2792 C   0  0  0  0  0  0  0  0  0  0  0  0
   18.4173   -5.9728   -4.5063 O   0  0  0  0  0  0  0  0  0  0  0  0
   17.0344   -4.2199   -4.6751 N   0  0  0  0  0  0  0  0  0  0  0  0
   16.1966   -3.7983   -4.3757 H   0  0  0  0  0  0  0  0  0  0  0  0
   16.3803   -6.2276   -3.5238 O   0  0  0  0  0  0  0  0  0  0  0  0
   15.4561   -7.1526   -4.1300 C   0  0  0  0  0  0  0  0  0  0  0  0
   15.2883   -7.0145   -5.6413 C   0  0  0  0  0  0  0  0  0  0  0  0
   16.0269   -7.8510   -6.4943 C   0  0  0  0  0  0  0  0  0  0  0  0
   15.9008   -7.7768   -7.8832 C   0  0  0  0  0  0  0  0  0  0  0  0
   15.0396   -6.8373   -8.4412 C   0  0  0  0  0  0  0  0  0  0  0  0
   14.2974   -6.0020   -7.6085 C   0  0  0  0  0  0  0  0  0  0  0  0
   14.4247   -6.0941   -6.2168 C   0  0  0  0  0  0  0  0  0  0  0  0
   17.4626    0.7140   -3.7305 C   0  0  0  0  0  0  0  0  0  0  0  0
   16.3663    0.3961   -4.7320 C   0  0  0  0  0  0  0  0  0  0  0  0
   18.4477    1.6641   -4.4057 C   0  0  0  0  0  0  0  0  0  0  0  0
   19.4265   -2.1136    1.1074 C   0  0  0  0  0  0  0  0  0  0  0  0
   18.5139   -3.2311    0.6679 C   0  0  0  0  0  0  0  0  0  0  0  0
   17.2287   -3.3512    1.2057 C   0  0  0  0  0  0  0  0  0  0  0  0
   18.9665   -4.1574   -0.2732 C   0  0  0  0  0  0  0  0  0  0  0  0
   16.3825   -4.3866    0.7932 C   0  0  0  0  0  0  0  0  0  0  0  0
   18.1309   -5.1984   -0.6663 C   0  0  0  0  0  0  0  0  0  0  0  0
   16.8382   -5.3172   -0.1442 C   0  0  0  0  0  0  0  0  0  0  0  0
 53 54  2  0  0  0
 53 57  1  0  0  0
 53 55  1  0  0  0
 57 58  1  0  0  0
 58 59  1  0  0  0
 59 60  2  0  0  0
 59 64  1  0  0  0
 60 61  1  0  0  0
 61 62  2  0  0  0
 62 63  1  0  0  0
 63 64  2  0  0  0
 55 51  1  0  0  0
 51 47  1  0  0  0
 51 52  1  0  0  0
 47 48  2  0  0  0
 47 49  1  0  0  0
 49 46  1  0  0  0
 46 42  1  0  0  0
 46 65  1  0  0  0
 42 43  2  0  0  0
 42 44  1  0  0  0
 65 66  1  0  0  0
 65 67  1  0  0  0
  1  2  1  0  0  0
  1 41  1  0  0  0
  1  4  1  0  0  0
 41 44  1  0  0  0
 41 68  1  0  0  0
 68 69  1  0  0  0
 69 70  2  0  0  0
 69 71  1  0  0  0
 70 72  1  0  0  0
 71 73  2  0  0  0
 72 74  2  0  0  0
 73 74  1  0  0  0
  8  7  1  0  0  0
  8  9  1  0  0  0
  7  4  1  0  0  0
  7 34  1  0  0  0
  4  5  1  0  0  0
 34 35  1  0  0  0
 35 36  2  0  0  0
 35 37  1  0  0  0
 36 38  1  0  0  0
 37 39  2  0  0  0
 38 40  2  0  0  0
 39 40  1  0  0  0
 13 12  1  0  0  0
 13 14  1  0  0  0
 12  9  1  0  0  0
 12 31  1  0  0  0
  9 10  2  0  0  0
 31 32  1  0  0  0
 31 33  1  0  0  0
 19 17  1  0  0  0
 19 20  1  0  0  0
 17 14  1  0  0  0
 17 18  1  0  0  0
 14 15  2  0  0  0
 20 21  2  0  0  0
 20 23  1  0  0  0
 23 24  1  0  0  0
 24 25  1  0  0  0
 25 26  2  0  0  0
 25 30  1  0  0  0
 26 27  1  0  0  0
 27 28  2  0  0  0
 28 29  1  0  0  0
 29 30  2  0  0  0
 55 56  1  0  0  0
 49 50  1  0  0  0
  2  3  1  0  0  0
 44 45  1  0  0  0
  8 11  1  0  0  0
  5  6  1  0  0  0
 13 16  1  0  0  0
 19 22  1  0  0  0
M  END
> <minimizedAffinity>
-10.25393

$$$$
2P3B_3TL_A_101


 74 77  0  0  0  0  0  0  0  0999 V2000
   18.1655   -2.7628    1.9022 C   0  0  0  0  0  0  0  0  0  0  0  0
   16.9640   -2.2378    1.4014 O   0  0  0  0  0  0  0  0  0  0  0  0
   17.1356   -1.3796    0.9832 H   0  0  0  0  0  0  0  0  0  0  0  0
   19.0904   -2.9571    0.6980 C   0  0  0  0  0  0  0  0  0  0  0  0
   19.4580   -1.6698    0.2563 O   0  0  0  0  0  0  0  0  0  0  0  0
   18.6663   -1.1879   -0.0300 H   0  0  0  0  0  0  0  0  0  0  0  0
   18.4767   -3.6567   -0.5059 C   0  0  0  0  0  0  0  0  0  0  0  0
   18.6033   -2.8138   -1.6964 N   0  0  0  0  0  0  0  0  0  0  0  0
   17.7999   -1.8027   -2.0349 C   0  0  0  0  0  0  0  0  0  0  0  0
   16.8179   -1.4923   -1.3860 O   0  0  0  0  0  0  0  0  0  0  0  0
   19.3517   -3.0113   -2.3048 H   0  0  0  0  0  0  0  0  0  0  0  0
   18.1686   -1.0589   -3.2976 C   0  0  0  0  0  0  0  0  0  0  0  0
   17.7659   -1.8180   -4.4756 N   0  0  0  0  0  0  0  0  0  0  0  0
   18.4754   -2.7865   -5.0557 C   0  0  0  0  0  0  0  0  0  0  0  0
   19.5624   -3.1573   -4.6302 O   0  0  0  0  0  0  0  0  0  0  0  0
   16.8949   -1.5963   -4.8774 H   0  0  0  0  0  0  0  0  0  0  0  0
   17.8582   -3.3871   -6.3070 C   0  0  0  0  0  0  0  0  0  0  0  0
   17.3585   -2.2848   -7.2308 C   0  0  0  0  0  0  0  0  0  0  0  0
   16.7660   -4.2712   -5.9654 N   0  0  0  0  0  0  0  0  0  0  0  0
   16.8603   -5.5640   -5.6581 C   0  0  0  0  0  0  0  0  0  0  0  0
   17.7756   -6.0843   -5.0444 O   0  0  0  0  0  0  0  0  0  0  0  0
   15.8632   -3.8787   -5.9592 H   0  0  0  0  0  0  0  0  0  0  0  0
   15.7751   -6.4011   -6.0942 O   0  0  0  0  0  0  0  0  0  0  0  0
   14.4068   -6.1441   -5.7534 C   0  0  0  0  0  0  0  0  0  0  0  0
   13.8708   -7.1033   -4.7121 C   0  0  0  0  0  0  0  0  0  0  0  0
   13.1443   -6.5974   -3.6225 C   0  0  0  0  0  0  0  0  0  0  0  0
   12.6467   -7.4513   -2.6360 C   0  0  0  0  0  0  0  0  0  0  0  0
   12.8719   -8.8210   -2.7530 C   0  0  0  0  0  0  0  0  0  0  0  0
   13.5940   -9.3353   -3.8323 C   0  0  0  0  0  0  0  0  0  0  0  0
   14.0932   -8.4735   -4.8138 C   0  0  0  0  0  0  0  0  0  0  0  0
   17.5353    0.3337   -3.3447 C   0  0  0  0  0  0  0  0  0  0  0  0
   16.5372    0.4431   -4.4876 C   0  0  0  0  0  0  0  0  0  0  0  0
   18.5765    1.4482   -3.4694 C   0  0  0  0  0  0  0  0  0  0  0  0
   19.2383   -4.9831   -0.6540 C   0  0  0  0  0  0  0  0  0  0  0  0
   18.4135   -6.0931   -1.2584 C   0  0  0  0  0  0  0  0  0  0  0  0
   19.0169   -7.2119   -1.8359 C   0  0  0  0  0  0  0  0  0  0  0  0
   17.0297   -5.9967   -1.2037 C   0  0  0  0  0  0  0  0  0  0  0  0
   18.2497   -8.2425   -2.3832 C   0  0  0  0  0  0  0  0  0  0  0  0
   16.2548   -7.0142   -1.7475 C   0  0  0  0  0  0  0  0  0  0  0  0
   16.8620   -8.1331   -2.3321 C   0  0  0  0  0  0  0  0  0  0  0  0
   18.7043   -1.8365    2.9996 C   0  0  0  0  0  0  0  0  0  0  0  0
   19.0912    0.5235    2.3543 C   0  0  0  0  0  0  0  0  0  0  0  0
   20.2951    0.3544    2.1872 O   0  0  0  0  0  0  0  0  0  0  0  0
   18.2794   -0.4429    2.8045 N   0  0  0  0  0  0  0  0  0  0  0  0
   17.3474   -0.2067    3.0163 H   0  0  0  0  0  0  0  0  0  0  0  0
   18.4583    1.8621    2.0640 C   0  0  0  0  0  0  0  0  0  0  0  0
   17.8047    3.6833    3.5558 C   0  0  0  0  0  0  0  0  0  0  0  0
   16.7439    3.8682    2.9756 O   0  0  0  0  0  0  0  0  0  0  0  0
   18.7307    2.8291    3.1097 N   0  0  0  0  0  0  0  0  0  0  0  0
   19.6315    2.8574    3.5059 H   0  0  0  0  0  0  0  0  0  0  0  0
   18.1543    4.4165    4.8297 C   0  0  0  0  0  0  0  0  0  0  0  0
   19.0830    3.5629    5.6723 C   0  0  0  0  0  0  0  0  0  0  0  0
   16.9601    6.0976    6.0785 C   0  0  0  0  0  0  0  0  0  0  0  0
   17.7680    6.9449    5.7690 O   0  0  0  0  0  0  0  0  0  0  0  0
   17.0080    4.8445    5.6123 N   0  0  0  0  0  0  0  0  0  0  0  0
   16.2721    4.2175    5.7982 H   0  0  0  0  0  0  0  0  0  0  0  0
   15.8910    6.4847    6.9711 O   0  0  0  0  0  0  0  0  0  0  0  0
   15.1883    5.5513    7.8151 C   0  0  0  0  0  0  0  0  0  0  0  0
   15.5626    5.5965    9.2946 C   0  0  0  0  0  0  0  0  0  0  0  0
   14.6682    5.0791   10.2462 C   0  0  0  0  0  0  0  0  0  0  0  0
   14.9669    5.0821   11.6104 C   0  0  0  0  0  0  0  0  0  0  0  0
   16.1697    5.6302   12.0447 C   0  0  0  0  0  0  0  0  0  0  0  0
   17.0690    6.1449   11.1131 C   0  0  0  0  0  0  0  0  0  0  0  0
   16.7624    6.1258    9.7467 C   0  0  0  0  0  0  0  0  0  0  0  0
   18.8999    2.4610    0.7140 C   0  0  0  0  0  0  0  0  0  0  0  0
   19.7878    3.6803    0.8892 C   0  0  0  0  0  0  0  0  0  0  0  0
   17.7152    2.8699   -0.1567 C   0  0  0  0  0  0  0  0  0  0  0  0
   18.2944   -2.3916    4.3716 C   0  0  0  0  0  0  0  0  0  0  0  0
   17.9944   -1.2703    5.3347 C   0  0  0  0  0  0  0  0  0  0  0  0
   16.7731   -0.5918    5.2760 C   0  0  0  0  0  0  0  0  0  0  0  0
   18.9529   -0.9025    6.2806 C   0  0  0  0  0  0  0  0  0  0  0  0
   16.4956    0.4456    6.1734 C   0  0  0  0  0  0  0  0  0  0  0  0
   18.6830    0.1432    7.1581 C   0  0  0  0  0  0  0  0  0  0  0  0
   17.4577    0.8174    7.1160 C   0  0  0  0  0  0  0  0  0  0  0  0
 53 54  2  0  0  0
 53 57  1  0  0  0
 53 55  1  0  0  0
 57 58  1  0  0  0
 58 59  1  0  0  0
 59 60  2  0  0  0
 59 64  1  0  0  0
 60 61  1  0  0  0
 61 62  2  0  0  0
 62 63  1  0  0  0
 63 64  2  0  0  0
 55 51  1  0  0  0
 51 47  1  0  0  0
 51 52  1  0  0  0
 47 48  2  0  0  0
 47 49  1  0  0  0
 49 46  1  0  0  0
 46 42  1  0  0  0
 46 65  1  0  0  0
 42 43  2  0  0  0
 42 44  1  0  0  0
 65 66  1  0  0  0
 65 67  1  0  0  0
  1  2  1  0  0  0
  1 41  1  0  0  0
  1  4  1  0  0  0
 41 44  1  0  0  0
 41 68  1  0  0  0
 68 69  1  0  0  0
 69 70  2  0  0  0
 69 71  1  0  0  0
 70 72  1  0  0  0
 71 73  2  0  0  0
 72 74  2  0  0  0
 73 74  1  0  0  0
  8  7  1  0  0  0
  8  9  1  0  0  0
  7  4  1  0  0  0
  7 34  1  0  0  0
  4  5  1  0  0  0
 34 35  1  0  0  0
 35 36  2  0  0  0
 35 37  1  0  0  0
 36 38  1  0  0  0
 37 39  2  0  0  0
 38 40  2  0  0  0
 39 40  1  0  0  0
 13 12  1  0  0  0
 13 14  1  0  0  0
 12  9  1  0  0  0
 12 31  1  0  0  0
  9 10  2  0  0  0
 31 32  1  0  0  0
 31 33  1  0  0  0
 19 17  1  0  0  0
 19 20  1  0  0  0
 17 14  1  0  0  0
 17 18  1  0  0  0
 14 15  2  0  0  0
 20 21  2  0  0  0
 20 23  1  0  0  0
 23 24  1  0  0  0
 24 25  1  0  0  0
 25 26  2  0  0  0
 25 30  1  0  0  0
 26 27  1  0  0  0
 27 28  2  0  0  0
 28 29  1  0  0  0
 29 30  2  0  0  0
 55 56  1  0  0  0
 49 50  1  0  0  0
  2  3  1  0  0  0
 44 45  1  0  0  0
  8 11  1  0  0  0
  5  6  1  0  0  0
 13 16  1  0  0  0
 19 22  1  0  0  0
M  END
> <minimizedAffinity>
-10.20020

$$$$
2P3B_3TL_A_101


 74 77  0  0  0  0  0  0  0  0999 V2000
   19.9294   -0.3437    0.8351 C   0  0  0  0  0  0  0  0  0  0  0  0
   21.2519   -0.5735    0.4252 O   0  0  0  0  0  0  0  0  0  0  0  0
   21.3235   -0.4298   -0.5315 H   0  0  0  0  0  0  0  0  0  0  0  0
   19.6230    1.1214    0.5141 C   0  0  0  0  0  0  0  0  0  0  0  0
   20.8179    1.8407    0.7196 O   0  0  0  0  0  0  0  0  0  0  0  0
   21.0811    1.7713    1.6506 H   0  0  0  0  0  0  0  0  0  0  0  0
   18.5732    1.7888    1.3903 C   0  0  0  0  0  0  0  0  0  0  0  0
   18.7200    1.3454    2.7780 N   0  0  0  0  0  0  0  0  0  0  0  0
   17.7515    0.8544    3.5547 C   0  0  0  0  0  0  0  0  0  0  0  0
   16.5943    0.7600    3.1892 O   0  0  0  0  0  0  0  0  0  0  0  0
   19.6177    1.4160    3.1759 H   0  0  0  0  0  0  0  0  0  0  0  0
   18.1691    0.4286    4.9432 C   0  0  0  0  0  0  0  0  0  0  0  0
   17.7730    1.4293    5.9270 N   0  0  0  0  0  0  0  0  0  0  0  0
   18.4262    2.5618    6.1895 C   0  0  0  0  0  0  0  0  0  0  0  0
   19.4464    2.8909    5.5971 O   0  0  0  0  0  0  0  0  0  0  0  0
   16.9524    1.2538    6.4418 H   0  0  0  0  0  0  0  0  0  0  0  0
   17.8358    3.4125    7.3009 C   0  0  0  0  0  0  0  0  0  0  0  0
   17.1781    2.5276    8.3508 C   0  0  0  0  0  0  0  0  0  0  0  0
   16.8664    4.3457    6.7712 N   0  0  0  0  0  0  0  0  0  0  0  0
   17.0232    5.6623    6.6421 C   0  0  0  0  0  0  0  0  0  0  0  0
   18.0640    6.2305    6.3611 O   0  0  0  0  0  0  0  0  0  0  0  0
   16.0050    3.9708    6.4767 H   0  0  0  0  0  0  0  0  0  0  0  0
   15.8487    6.4653    6.8528 O   0  0  0  0  0  0  0  0  0  0  0  0
   14.8139    6.1056    7.7770 C   0  0  0  0  0  0  0  0  0  0  0  0
   15.3409    5.8223    9.1676 C   0  0  0  0  0  0  0  0  0  0  0  0
   16.3637    6.6290    9.6913 C   0  0  0  0  0  0  0  0  0  0  0  0
   16.8833    6.3884   10.9649 C   0  0  0  0  0  0  0  0  0  0  0  0
   16.3635    5.3385   11.7184 C   0  0  0  0  0  0  0  0  0  0  0  0
   15.3465    4.5290   11.2072 C   0  0  0  0  0  0  0  0  0  0  0  0
   14.8343    4.7732    9.9291 C   0  0  0  0  0  0  0  0  0  0  0  0
   17.5750   -0.9290    5.3262 C   0  0  0  0  0  0  0  0  0  0  0  0
   16.8217   -0.8448    6.6452 C   0  0  0  0  0  0  0  0  0  0  0  0
   18.6346   -2.0296    5.4143 C   0  0  0  0  0  0  0  0  0  0  0  0
   18.8009    3.3011    1.2402 C   0  0  0  0  0  0  0  0  0  0  0  0
   17.5773    4.1325    1.5395 C   0  0  0  0  0  0  0  0  0  0  0  0
   16.6630    4.4625    0.5374 C   0  0  0  0  0  0  0  0  0  0  0  0
   17.3579    4.5430    2.8474 C   0  0  0  0  0  0  0  0  0  0  0  0
   15.5258    5.2217    0.8211 C   0  0  0  0  0  0  0  0  0  0  0  0
   16.2314    5.3016    3.1423 C   0  0  0  0  0  0  0  0  0  0  0  0
   15.3183    5.6371    2.1343 C   0  0  0  0  0  0  0  0  0  0  0  0
   19.0061   -1.3685    0.1642 C   0  0  0  0  0  0  0  0  0  0  0  0
   17.8766   -1.1022   -2.0241 C   0  0  0  0  0  0  0  0  0  0  0  0
   16.7554   -1.2198   -1.5395 O   0  0  0  0  0  0  0  0  0  0  0  0
   18.9963   -1.2291   -1.2990 N   0  0  0  0  0  0  0  0  0  0  0  0
   19.8596   -1.2291   -1.7722 H   0  0  0  0  0  0  0  0  0  0  0  0
   18.0487   -0.8138   -3.4952 C   0  0  0  0  0  0  0  0  0  0  0  0
   18.1563   -2.4777   -5.2809 C   0  0  0  0  0  0  0  0  0  0  0  0
   19.2416   -2.0785   -5.6796 O   0  0  0  0  0  0  0  0  0  0  0  0
   17.4657   -1.8518   -4.3232 N   0  0  0  0  0  0  0  0  0  0  0  0
   16.5260   -2.1049   -4.1742 H   0  0  0  0  0  0  0  0  0  0  0  0
   17.5057   -3.7172   -5.8493 C   0  0  0  0  0  0  0  0  0  0  0  0
   16.7152   -3.3552   -7.0923 C   0  0  0  0  0  0  0  0  0  0  0  0
   16.5503   -5.7712   -5.0246 C   0  0  0  0  0  0  0  0  0  0  0  0
   17.2132   -6.4257   -5.7982 O   0  0  0  0  0  0  0  0  0  0  0  0
   16.6698   -4.4437   -4.9094 N   0  0  0  0  0  0  0  0  0  0  0  0
   16.1950   -3.9630   -4.1933 H   0  0  0  0  0  0  0  0  0  0  0  0
   15.6134   -6.4775   -4.1803 O   0  0  0  0  0  0  0  0  0  0  0  0
   15.2808   -7.8685   -4.3589 C   0  0  0  0  0  0  0  0  0  0  0  0
   15.9662   -8.8345   -3.3955 C   0  0  0  0  0  0  0  0  0  0  0  0
   15.2862   -9.9922   -2.9829 C   0  0  0  0  0  0  0  0  0  0  0  0
   15.8720  -10.9162   -2.1149 C   0  0  0  0  0  0  0  0  0  0  0  0
   17.1527  -10.6772   -1.6265 C   0  0  0  0  0  0  0  0  0  0  0  0
   17.8418   -9.5348   -2.0286 C   0  0  0  0  0  0  0  0  0  0  0  0
   17.2474   -8.6215   -2.9084 C   0  0  0  0  0  0  0  0  0  0  0  0
   17.4556    0.5442   -3.9196 C   0  0  0  0  0  0  0  0  0  0  0  0
   16.1817    0.3865   -4.7310 C   0  0  0  0  0  0  0  0  0  0  0  0
   18.4338    1.3734   -4.7468 C   0  0  0  0  0  0  0  0  0  0  0  0
   19.4066   -2.7794    0.6197 C   0  0  0  0  0  0  0  0  0  0  0  0
   18.3171   -3.7733    0.3033 C   0  0  0  0  0  0  0  0  0  0  0  0
   17.1746   -3.8536    1.1056 C   0  0  0  0  0  0  0  0  0  0  0  0
   18.4626   -4.6261   -0.7922 C   0  0  0  0  0  0  0  0  0  0  0  0
   16.1634   -4.7739    0.8074 C   0  0  0  0  0  0  0  0  0  0  0  0
   17.4654   -5.5547   -1.0743 C   0  0  0  0  0  0  0  0  0  0  0  0
   16.3123   -5.6316   -0.2855 C   0  0  0  0  0  0  0  0  0  0  0  0
 53 54  2  0  0  0
 53 57  1  0  0  0
 53 55  1  0  0  0
 57 58  1  0  0  0
 58 59  1  0  0  0
 59 60  2  0  0  0
 59 64  1  0  0  0
 60 61  1  0  0  0
 61 62  2  0  0  0
 62 63  1  0  0  0
 63 64  2  0  0  0
 55 51  1  0  0  0
 51 47  1  0  0  0
 51 52  1  0  0  0
 47 48  2  0  0  0
 47 49  1  0  0  0
 49 46  1  0  0  0
 46 42  1  0  0  0
 46 65  1  0  0  0
 42 43  2  0  0  0
 42 44  1  0  0  0
 65 66  1  0  0  0
 65 67  1  0  0  0
  1  2  1  0  0  0
  1 41  1  0  0  0
  1  4  1  0  0  0
 41 44  1  0  0  0
 41 68  1  0  0  0
 68 69  1  0  0  0
 69 70  2  0  0  0
 69 71  1  0  0  0
 70 72  1  0  0  0
 71 73  2  0  0  0
 72 74  2  0  0  0
 73 74  1  0  0  0
  8  7  1  0  0  0
  8  9  1  0  0  0
  7  4  1  0  0  0
  7 34  1  0  0  0
  4  5  1  0  0  0
 34 35  1  0  0  0
 35 36  2  0  0  0
 35 37  1  0  0  0
 36 38  1  0  0  0
 37 39  2  0  0  0
 38 40  2  0  0  0
 39 40  1  0  0  0
 13 12  1  0  0  0
 13 14  1  0  0  0
 12  9  1  0  0  0
 12 31  1  0  0  0
  9 10  2  0  0  0
 31 32  1  0  0  0
 31 33  1  0  0  0
 19 17  1  0  0  0
 19 20  1  0  0  0
 17 14  1  0  0  0
 17 18  1  0  0  0
 14 15  2  0  0  0
 20 21  2  0  0  0
 20 23  1  0  0  0
 23 24  1  0  0  0
 24 25  1  0  0  0
 25 26  2  0  0  0
 25 30  1  0  0  0
 26 27  1  0  0  0
 27 28  2  0  0  0
 28 29  1  0  0  0
 29 30  2  0  0  0
 55 56  1  0  0  0
 49 50  1  0  0  0
  2  3  1  0  0  0
 44 45  1  0  0  0
  8 11  1  0  0  0
  5  6  1  0  0  0
 13 16  1  0  0  0
 19 22  1  0  0  0
M  END
> <minimizedAffinity>
-10.06632

$$$$
2P3B_3TL_A_101


 74 77  0  0  0  0  0  0  0  0999 V2000
   19.0388   -0.5045    0.5265 C   0  0  0  0  0  0  0  0  0  0  0  0
   20.1640   -1.3435    0.5321 O   0  0  0  0  0  0  0  0  0  0  0  0
   20.6792   -1.1989   -0.2770 H   0  0  0  0  0  0  0  0  0  0  0  0
   19.5677    0.9319    0.5074 C   0  0  0  0  0  0  0  0  0  0  0  0
   20.9138    0.8747    0.9222 O   0  0  0  0  0  0  0  0  0  0  0  0
   20.9583    0.5354    1.8298 H   0  0  0  0  0  0  0  0  0  0  0  0
   18.8774    1.9074    1.4493 C   0  0  0  0  0  0  0  0  0  0  0  0
   19.1249    1.5241    2.8407 N   0  0  0  0  0  0  0  0  0  0  0  0
   18.1993    1.1846    3.7407 C   0  0  0  0  0  0  0  0  0  0  0  0
   17.0061    1.1995    3.5006 O   0  0  0  0  0  0  0  0  0  0  0  0
   20.0625    1.5161    3.1407 H   0  0  0  0  0  0  0  0  0  0  0  0
   18.7164    0.7890    5.1045 C   0  0  0  0  0  0  0  0  0  0  0  0
   18.1335    1.6353    6.1389 N   0  0  0  0  0  0  0  0  0  0  0  0
   18.6020    2.8218    6.5273 C   0  0  0  0  0  0  0  0  0  0  0  0
   19.5898    3.3414    6.0232 O   0  0  0  0  0  0  0  0  0  0  0  0
   17.3241    1.3020    6.5895 H   0  0  0  0  0  0  0  0  0  0  0  0
   17.8430    3.4818    7.6656 C   0  0  0  0  0  0  0  0  0  0  0  0
   17.3612    2.4322    8.6578 C   0  0  0  0  0  0  0  0  0  0  0  0
   16.7143    4.2321    7.1611 N   0  0  0  0  0  0  0  0  0  0  0  0
   16.1720    5.3152    7.7157 C   0  0  0  0  0  0  0  0  0  0  0  0
   16.7780    6.1881    8.3121 O   0  0  0  0  0  0  0  0  0  0  0  0
   16.3063    3.9105    6.3249 H   0  0  0  0  0  0  0  0  0  0  0  0
   14.7460    5.4494    7.5843 O   0  0  0  0  0  0  0  0  0  0  0  0
   14.0025    6.5079    8.2016 C   0  0  0  0  0  0  0  0  0  0  0  0
   12.5566    6.1387    8.4566 C   0  0  0  0  0  0  0  0  0  0  0  0
   12.2181    5.4711    9.6444 C   0  0  0  0  0  0  0  0  0  0  0  0
   10.8968    5.1032    9.9065 C   0  0  0  0  0  0  0  0  0  0  0  0
    9.9109    5.4185    8.9743 C   0  0  0  0  0  0  0  0  0  0  0  0
   10.2364    6.0818    7.7890 C   0  0  0  0  0  0  0  0  0  0  0  0
   11.5624    6.4429    7.5312 C   0  0  0  0  0  0  0  0  0  0  0  0
   18.4254   -0.6800    5.4207 C   0  0  0  0  0  0  0  0  0  0  0  0
   18.6651   -1.5602    4.2034 C   0  0  0  0  0  0  0  0  0  0  0  0
   17.0006   -0.8987    5.9347 C   0  0  0  0  0  0  0  0  0  0  0  0
   19.4580    3.2914    1.1197 C   0  0  0  0  0  0  0  0  0  0  0  0
   18.7064    4.4336    1.7587 C   0  0  0  0  0  0  0  0  0  0  0  0
   19.3392    5.3165    2.6357 C   0  0  0  0  0  0  0  0  0  0  0  0
   17.3685    4.6117    1.4336 C   0  0  0  0  0  0  0  0  0  0  0  0
   18.6429    6.3793    3.2154 C   0  0  0  0  0  0  0  0  0  0  0  0
   16.6636    5.6638    2.0059 C   0  0  0  0  0  0  0  0  0  0  0  0
   17.2985    6.5450    2.8906 C   0  0  0  0  0  0  0  0  0  0  0  0
   18.1302   -0.8840   -0.6495 C   0  0  0  0  0  0  0  0  0  0  0  0
   17.4123   -3.1822   -1.2311 C   0  0  0  0  0  0  0  0  0  0  0  0
   17.9434   -3.1443   -2.3367 O   0  0  0  0  0  0  0  0  0  0  0  0
   17.3945   -2.1316   -0.3994 N   0  0  0  0  0  0  0  0  0  0  0  0
   16.8593   -2.1992    0.4242 H   0  0  0  0  0  0  0  0  0  0  0  0
   16.7299   -4.4398   -0.7520 C   0  0  0  0  0  0  0  0  0  0  0  0
   15.1753   -5.8222   -2.0333 C   0  0  0  0  0  0  0  0  0  0  0  0
   14.2986   -5.7423   -1.1841 O   0  0  0  0  0  0  0  0  0  0  0  0
   16.4046   -5.3317   -1.8482 N   0  0  0  0  0  0  0  0  0  0  0  0
   17.1160   -5.5853   -2.4798 H   0  0  0  0  0  0  0  0  0  0  0  0
   14.9347   -6.4917   -3.3662 C   0  0  0  0  0  0  0  0  0  0  0  0
   15.1307   -7.9895   -3.2285 C   0  0  0  0  0  0  0  0  0  0  0  0
   15.1952   -5.8233   -5.6677 C   0  0  0  0  0  0  0  0  0  0  0  0
   14.0124   -5.9760   -5.8777 O   0  0  0  0  0  0  0  0  0  0  0  0
   15.7422   -5.9718   -4.4559 N   0  0  0  0  0  0  0  0  0  0  0  0
   16.6846   -5.7308   -4.3039 H   0  0  0  0  0  0  0  0  0  0  0  0
   16.0301   -5.4387   -6.7833 O   0  0  0  0  0  0  0  0  0  0  0  0
   15.9847   -4.1331   -7.3920 C   0  0  0  0  0  0  0  0  0  0  0  0
   17.0713   -3.1612   -6.9384 C   0  0  0  0  0  0  0  0  0  0  0  0
   17.7933   -3.4358   -5.7652 C   0  0  0  0  0  0  0  0  0  0  0  0
   18.8072   -2.5883   -5.3132 C   0  0  0  0  0  0  0  0  0  0  0  0
   19.0980   -1.4304   -6.0276 C   0  0  0  0  0  0  0  0  0  0  0  0
   18.3929   -1.1451   -7.1950 C   0  0  0  0  0  0  0  0  0  0  0  0
   17.3859   -2.0089   -7.6438 C   0  0  0  0  0  0  0  0  0  0  0  0
   17.5587   -5.2205    0.2871 C   0  0  0  0  0  0  0  0  0  0  0  0
   17.1188   -4.9274    1.7106 C   0  0  0  0  0  0  0  0  0  0  0  0
   19.0507   -4.9155    0.1895 C   0  0  0  0  0  0  0  0  0  0  0  0
   17.1997    0.2960   -0.9665 C   0  0  0  0  0  0  0  0  0  0  0  0
   17.3136    0.6926   -2.4172 C   0  0  0  0  0  0  0  0  0  0  0  0
   18.2901    1.6049   -2.8292 C   0  0  0  0  0  0  0  0  0  0  0  0
   16.4258    0.1518   -3.3488 C   0  0  0  0  0  0  0  0  0  0  0  0
   18.3963    1.9682   -4.1765 C   0  0  0  0  0  0  0  0  0  0  0  0
   16.5199    0.5305   -4.6845 C   0  0  0  0  0  0  0  0  0  0  0  0
   17.5034    1.4313   -5.1075 C   0  0  0  0  0  0  0  0  0  0  0  0
 53 54  2  0  0  0
 53 57  1  0  0  0
 53 55  1  0  0  0
 57 58  1  0  0  0
 58 59  1  0  0  0
 59 60  2  0  0  0
 59 64  1  0  0  0
 60 61  1  0  0  0
 61 62  2  0  0  0
 62 63  1  0  0  0
 63 64  2  0  0  0
 55 51  1  0  0  0
 51 47  1  0  0  0
 51 52  1  0  0  0
 47 48  2  0  0  0
 47 49  1  0  0  0
 49 46  1  0  0  0
 46 42  1  0  0  0
 46 65  1  0  0  0
 42 43  2  0  0  0
 42 44  1  0  0  0
 65 66  1  0  0  0
 65 67  1  0  0  0
  1  2  1  0  0  0
  1 41  1  0  0  0
  1  4  1  0  0  0
 41 44  1  0  0  0
 41 68  1  0  0  0
 68 69  1  0  0  0
 69 70  2  0  0  0
 69 71  1  0  0  0
 70 72  1  0  0  0
 71 73  2  0  0  0
 72 74  2  0  0  0
 73 74  1  0  0  0
  8  7  1  0  0  0
  8  9  1  0  0  0
  7  4  1  0  0  0
  7 34  1  0  0  0
  4  5  1  0  0  0
 34 35  1  0  0  0
 35 36  2  0  0  0
 35 37  1  0  0  0
 36 38  1  0  0  0
 37 39  2  0  0  0
 38 40  2  0  0  0
 39 40  1  0  0  0
 13 12  1  0  0  0
 13 14  1  0  0  0
 12  9  1  0  0  0
 12 31  1  0  0  0
  9 10  2  0  0  0
 31 32  1  0  0  0
 31 33  1  0  0  0
 19 17  1  0  0  0
 19 20  1  0  0  0
 17 14  1  0  0  0
 17 18  1  0  0  0
 14 15  2  0  0  0
 20 21  2  0  0  0
 20 23  1  0  0  0
 23 24  1  0  0  0
 24 25  1  0  0  0
 25 26  2  0  0  0
 25 30  1  0  0  0
 26 27  1  0  0  0
 27 28  2  0  0  0
 28 29  1  0  0  0
 29 30  2  0  0  0
 55 56  1  0  0  0
 49 50  1  0  0  0
  2  3  1  0  0  0
 44 45  1  0  0  0
  8 11  1  0  0  0
  5  6  1  0  0  0
 13 16  1  0  0  0
 19 22  1  0  0  0
M  END
> <minimizedAffinity>
-10.04358

$$$$
2P3B_3TL_A_101


 74 77  0  0  0  0  0  0  0  0999 V2000
   19.3081   -0.8921    0.5514 C   0  0  0  0  0  0  0  0  0  0  0  0
   20.4316   -1.7241    0.4270 O   0  0  0  0  0  0  0  0  0  0  0  0
   20.9676   -1.4330   -0.3272 H   0  0  0  0  0  0  0  0  0  0  0  0
   19.8393    0.5189    0.8164 C   0  0  0  0  0  0  0  0  0  0  0  0
   20.9680    0.3783    1.6493 O   0  0  0  0  0  0  0  0  0  0  0  0
   20.7002   -0.0202    2.4921 H   0  0  0  0  0  0  0  0  0  0  0  0
   18.8919    1.4602    1.5456 C   0  0  0  0  0  0  0  0  0  0  0  0
   19.0376    1.2987    2.9935 N   0  0  0  0  0  0  0  0  0  0  0  0
   18.0670    0.9771    3.8519 C   0  0  0  0  0  0  0  0  0  0  0  0
   16.9088    0.8198    3.5122 O   0  0  0  0  0  0  0  0  0  0  0  0
   19.9362    1.4408    3.3697 H   0  0  0  0  0  0  0  0  0  0  0  0
   18.4836    0.8313    5.2972 C   0  0  0  0  0  0  0  0  0  0  0  0
   17.9043    1.8963    6.1074 N   0  0  0  0  0  0  0  0  0  0  0  0
   18.5149    3.0309    6.4507 C   0  0  0  0  0  0  0  0  0  0  0  0
   19.6530    3.3058    6.0916 O   0  0  0  0  0  0  0  0  0  0  0  0
   16.9828    1.7665    6.4287 H   0  0  0  0  0  0  0  0  0  0  0  0
   17.7128    3.9573    7.3485 C   0  0  0  0  0  0  0  0  0  0  0  0
   16.5906    3.1887    8.0327 C   0  0  0  0  0  0  0  0  0  0  0  0
   17.1599    5.0555    6.5874 N   0  0  0  0  0  0  0  0  0  0  0  0
   16.6639    6.1896    7.0799 C   0  0  0  0  0  0  0  0  0  0  0  0
   17.0771    6.7788    8.0633 O   0  0  0  0  0  0  0  0  0  0  0  0
   17.1490    4.9552    5.6080 H   0  0  0  0  0  0  0  0  0  0  0  0
   15.5461    6.7539    6.3722 O   0  0  0  0  0  0  0  0  0  0  0  0
   15.4111    6.6861    4.9469 C   0  0  0  0  0  0  0  0  0  0  0  0
   14.0862    7.2296    4.4559 C   0  0  0  0  0  0  0  0  0  0  0  0
   13.1792    6.3619    3.8270 C   0  0  0  0  0  0  0  0  0  0  0  0
   11.9538    6.8314    3.3496 C   0  0  0  0  0  0  0  0  0  0  0  0
   11.6357    8.1773    3.5161 C   0  0  0  0  0  0  0  0  0  0  0  0
   12.5306    9.0497    4.1397 C   0  0  0  0  0  0  0  0  0  0  0  0
   13.7579    8.5733    4.6110 C   0  0  0  0  0  0  0  0  0  0  0  0
   18.0789   -0.5278    5.8731 C   0  0  0  0  0  0  0  0  0  0  0  0
   18.4803   -0.6444    7.3358 C   0  0  0  0  0  0  0  0  0  0  0  0
   18.6730   -1.6988    5.0871 C   0  0  0  0  0  0  0  0  0  0  0  0
   19.2675    2.8762    1.0818 C   0  0  0  0  0  0  0  0  0  0  0  0
   18.0828    3.7974    0.9214 C   0  0  0  0  0  0  0  0  0  0  0  0
   17.6787    4.2451   -0.3377 C   0  0  0  0  0  0  0  0  0  0  0  0
   17.3757    4.1724    2.0557 C   0  0  0  0  0  0  0  0  0  0  0  0
   16.5744    5.0876   -0.4827 C   0  0  0  0  0  0  0  0  0  0  0  0
   16.2766    5.0129    1.9252 C   0  0  0  0  0  0  0  0  0  0  0  0
   15.8763    5.4662    0.6617 C   0  0  0  0  0  0  0  0  0  0  0  0
   18.4295   -1.0378   -0.6973 C   0  0  0  0  0  0  0  0  0  0  0  0
   17.5690   -3.1985   -1.5497 C   0  0  0  0  0  0  0  0  0  0  0  0
   18.2054   -3.1201   -2.5959 O   0  0  0  0  0  0  0  0  0  0  0  0
   17.5647   -2.2244   -0.6294 N   0  0  0  0  0  0  0  0  0  0  0  0
   16.9487   -2.3082    0.1340 H   0  0  0  0  0  0  0  0  0  0  0  0
   16.7340   -4.4193   -1.2508 C   0  0  0  0  0  0  0  0  0  0  0  0
   15.4740   -5.8863   -2.7439 C   0  0  0  0  0  0  0  0  0  0  0  0
   14.5012   -5.9172   -2.0029 O   0  0  0  0  0  0  0  0  0  0  0  0
   16.6224   -5.2950   -2.4013 N   0  0  0  0  0  0  0  0  0  0  0  0
   17.4226   -5.4600   -2.9505 H   0  0  0  0  0  0  0  0  0  0  0  0
   15.4527   -6.5243   -4.1133 C   0  0  0  0  0  0  0  0  0  0  0  0
   16.7231   -7.3261   -4.3234 C   0  0  0  0  0  0  0  0  0  0  0  0
   14.5661   -5.9820   -6.2885 C   0  0  0  0  0  0  0  0  0  0  0  0
   13.9803   -7.0402   -6.3472 O   0  0  0  0  0  0  0  0  0  0  0  0
   15.2535   -5.5919   -5.2091 N   0  0  0  0  0  0  0  0  0  0  0  0
   15.6215   -4.6802   -5.1580 H   0  0  0  0  0  0  0  0  0  0  0  0
   14.4848   -5.1061   -7.4356 O   0  0  0  0  0  0  0  0  0  0  0  0
   15.2020   -5.3422   -8.6633 C   0  0  0  0  0  0  0  0  0  0  0  0
   14.3315   -5.5905   -9.8927 C   0  0  0  0  0  0  0  0  0  0  0  0
   13.0245   -6.0763   -9.7230 C   0  0  0  0  0  0  0  0  0  0  0  0
   12.1811   -6.3069  -10.8120 C   0  0  0  0  0  0  0  0  0  0  0  0
   12.6502   -6.0719  -12.1005 C   0  0  0  0  0  0  0  0  0  0  0  0
   13.9434   -5.5871  -12.2857 C   0  0  0  0  0  0  0  0  0  0  0  0
   14.7755   -5.3494  -11.1846 C   0  0  0  0  0  0  0  0  0  0  0  0
   17.2653   -5.2396   -0.0588 C   0  0  0  0  0  0  0  0  0  0  0  0
   16.3584   -5.1427    1.1552 C   0  0  0  0  0  0  0  0  0  0  0  0
   18.6638   -4.8044    0.3699 C   0  0  0  0  0  0  0  0  0  0  0  0
   17.6350    0.2597   -0.9068 C   0  0  0  0  0  0  0  0  0  0  0  0
   17.6199    0.6487   -2.3640 C   0  0  0  0  0  0  0  0  0  0  0  0
   18.5324    1.5860   -2.8580 C   0  0  0  0  0  0  0  0  0  0  0  0
   16.6765    0.0751   -3.2181 C   0  0  0  0  0  0  0  0  0  0  0  0
   18.5189    1.9422   -4.2113 C   0  0  0  0  0  0  0  0  0  0  0  0
   16.6514    0.4464   -4.5589 C   0  0  0  0  0  0  0  0  0  0  0  0
   17.5704    1.3725   -5.0645 C   0  0  0  0  0  0  0  0  0  0  0  0
 53 54  2  0  0  0
 53 57  1  0  0  0
 53 55  1  0  0  0
 57 58  1  0  0  0
 58 59  1  0  0  0
 59 60  2  0  0  0
 59 64  1  0  0  0
 60 61  1  0  0  0
 61 62  2  0  0  0
 62 63  1  0  0  0
 63 64  2  0  0  0
 55 51  1  0  0  0
 51 47  1  0  0  0
 51 52  1  0  0  0
 47 48  2  0  0  0
 47 49  1  0  0  0
 49 46  1  0  0  0
 46 42  1  0  0  0
 46 65  1  0  0  0
 42 43  2  0  0  0
 42 44  1  0  0  0
 65 66  1  0  0  0
 65 67  1  0  0  0
  1  2  1  0  0  0
  1 41  1  0  0  0
  1  4  1  0  0  0
 41 44  1  0  0  0
 41 68  1  0  0  0
 68 69  1  0  0  0
 69 70  2  0  0  0
 69 71  1  0  0  0
 70 72  1  0  0  0
 71 73  2  0  0  0
 72 74  2  0  0  0
 73 74  1  0  0  0
  8  7  1  0  0  0
  8  9  1  0  0  0
  7  4  1  0  0  0
  7 34  1  0  0  0
  4  5  1  0  0  0
 34 35  1  0  0  0
 35 36  2  0  0  0
 35 37  1  0  0  0
 36 38  1  0  0  0
 37 39  2  0  0  0
 38 40  2  0  0  0
 39 40  1  0  0  0
 13 12  1  0  0  0
 13 14  1  0  0  0
 12  9  1  0  0  0
 12 31  1  0  0  0
  9 10  2  0  0  0
 31 32  1  0  0  0
 31 33  1  0  0  0
 19 17  1  0  0  0
 19 20  1  0  0  0
 17 14  1  0  0  0
 17 18  1  0  0  0
 14 15  2  0  0  0
 20 21  2  0  0  0
 20 23  1  0  0  0
 23 24  1  0  0  0
 24 25  1  0  0  0
 25 26  2  0  0  0
 25 30  1  0  0  0
 26 27  1  0  0  0
 27 28  2  0  0  0
 28 29  1  0  0  0
 29 30  2  0  0  0
 55 56  1  0  0  0
 49 50  1  0  0  0
  2  3  1  0  0  0
 44 45  1  0  0  0
  8 11  1  0  0  0
  5  6  1  0  0  0
 13 16  1  0  0  0
 19 22  1  0  0  0
M  END
> <minimizedAffinity>
-9.82441

$$$$
