6CPW_F8V_A_403


 49 55  0  0  0  0  0  0  0  0999 V2000
   48.9591   18.6135    9.2992 N   0  0  0  0  0  0  0  0  0  0  0  0
   47.5986   18.3905    8.7520 C   0  0  0  0  0  0  0  0  0  0  0  0
   47.4759   16.8859    8.7151 C   0  0  0  0  0  0  0  0  0  0  0  0
   48.3146   16.4345    9.9231 C   0  0  0  0  0  0  0  0  0  0  0  0
   48.9836   17.6816   10.5120 C   0  0  0  0  0  0  0  0  0  0  0  0
   49.3558   15.3817    9.5349 C   0  0  0  0  0  0  0  0  0  0  0  0
   50.5433   15.6669    9.4887 O   0  0  0  0  0  0  0  0  0  0  0  0
   48.8509   14.1797    9.1898 N   0  0  0  0  0  0  0  0  0  0  0  0
   47.8779   14.0656    9.2879 H   0  0  0  0  0  0  0  0  0  0  0  0
   49.5725   13.0671    8.7022 C   0  0  0  0  0  0  0  0  0  0  0  0
   49.0678   11.7945    8.9705 C   0  0  0  0  0  0  0  0  0  0  0  0
   49.7565   10.6686    8.5243 C   0  0  0  0  0  0  0  0  0  0  0  0
   49.5748    9.2139    8.6385 C   0  0  0  0  0  0  0  0  0  0  0  0
   50.5859    8.6404    7.9902 N   0  0  0  0  0  0  0  0  0  0  0  0
   51.3978    9.6085    7.4881 N   0  0  0  0  0  0  0  0  0  0  0  0
   50.9389   10.8499    7.7822 C   0  0  0  0  0  0  0  0  0  0  0  0
   51.4394   12.1127    7.5015 C   0  0  0  0  0  0  0  0  0  0  0  0
   50.7524   13.2198    7.9716 C   0  0  0  0  0  0  0  0  0  0  0  0
   52.2182    9.4300    6.9740 H   0  0  0  0  0  0  0  0  0  0  0  0
   48.5100    8.4535    9.3520 C   0  0  0  0  0  0  0  0  0  0  0  0
   48.0961    7.2038    8.8825 C   0  0  0  0  0  0  0  0  0  0  0  0
   47.1344    6.4740    9.5614 C   0  0  0  0  0  0  0  0  0  0  0  0
   46.5892    7.0147   10.6991 C   0  0  0  0  0  0  0  0  0  0  0  0
   45.6300    6.3084   11.3621 F   0  0  0  0  0  0  0  0  0  0  0  0
   46.9671    8.2375   11.1997 C   0  0  0  0  0  0  0  0  0  0  0  0
   47.9357    8.9551   10.5169 C   0  0  0  0  0  0  0  0  0  0  0  0
   47.1334   15.7737   11.1792 S   0  0  0  0  0  0  0  0  0  0  0  0
   46.3054   17.1364   12.0084 C   0  0  0  0  0  0  0  0  0  0  0  0
   49.3123   20.0218    9.6689 C   0  0  0  0  0  0  0  0  0  0  0  0
   49.4963   20.3254    7.3356 O   0  0  0  0  0  0  0  0  0  0  0  0
   49.4382   20.8939    8.4246 C   0  0  0  0  0  0  0  0  0  0  0  0
   49.3748   22.2375    8.5203 N   0  0  0  0  0  0  0  0  0  0  0  0
   49.1385   23.0839    7.3564 C   0  0  0  0  0  0  0  0  0  0  0  0
   47.6789   23.4434    7.3119 C   0  0  0  0  0  0  0  0  0  0  0  0
   47.2399   24.0866    8.5633 N   0  0  0  0  0  0  0  0  0  0  0  0
   47.6795   23.3969    9.7920 C   0  0  0  0  0  0  0  0  0  0  0  0
   49.1498   23.0428    9.7204 C   0  0  0  0  0  0  0  0  0  0  0  0
   45.9073   24.6059    8.4897 C   0  0  0  0  0  0  0  0  0  0  0  0
   45.3240   24.8981    7.2468 C   0  0  0  0  0  0  0  0  0  0  0  0
   43.9703   25.1528    7.1393 C   0  0  0  0  0  0  0  0  0  0  0  0
   43.1532   25.2151    8.2665 C   0  0  0  0  0  0  0  0  0  0  0  0
   43.7538   25.0423    9.5125 C   0  0  0  0  0  0  0  0  0  0  0  0
   45.0974   24.7165    9.6281 C   0  0  0  0  0  0  0  0  0  0  0  0
   41.6810   25.4233    8.1361 C   0  0  0  0  0  0  0  0  0  0  0  0
   41.1761   25.4406    6.8904 N   0  0  0  0  0  0  0  0  0  0  0  0
   39.8371   25.4588    6.8004 C   0  0  0  0  0  0  0  0  0  0  0  0
   39.0045   25.4755    7.8964 C   0  0  0  0  0  0  0  0  0  0  0  0
   39.6290   25.4669    9.1211 C   0  0  0  0  0  0  0  0  0  0  0  0
   40.9622   25.4407    9.2714 N   0  0  0  0  0  0  0  0  0  0  0  0
 46 45  2  0  0  0
 46 47  1  0  0  0
 45 44  1  0  0  0
 40 39  2  0  0  0
 40 41  1  0  0  0
 39 38  1  0  0  0
 34 33  1  0  0  0
 34 35  1  0  0  0
 30 31  2  0  0  0
 15 16  1  0  0  0
 15 14  1  0  0  0
 33 32  1  0  0  0
 17 16  2  0  0  0
 17 18  1  0  0  0
 47 48  2  0  0  0
 16 12  1  0  0  0
 14 13  2  0  0  0
 44 41  1  0  0  0
 44 49  2  0  0  0
 18 10  2  0  0  0
 41 42  2  0  0  0
 12 13  1  0  0  0
 12 11  2  0  0  0
 31 32  1  0  0  0
 31 29  1  0  0  0
 13 20  1  0  0  0
 38 35  1  0  0  0
 38 43  2  0  0  0
 32 37  1  0  0  0
 21 20  2  0  0  0
 21 22  1  0  0  0
 35 36  1  0  0  0
 10 11  1  0  0  0
 10  8  1  0  0  0
  3  2  1  0  0  0
  3  4  1  0  0  0
 48 49  1  0  0  0
  2  1  1  0  0  0
 20 26  1  0  0  0
 22 23  2  0  0  0
  8  6  1  0  0  0
  7  6  2  0  0  0
  1 29  1  0  0  0
  1  5  1  0  0  0
 42 43  1  0  0  0
  6  4  1  0  0  0
 37 36  1  0  0  0
  4  5  1  0  0  0
  4 27  1  0  0  0
 26 25  2  0  0  0
 23 25  1  0  0  0
 23 24  1  0  0  0
 27 28  1  0  0  0
  8  9  1  0  0  0
 15 19  1  0  0  0
M  END
> <minimizedAffinity>
-14.09336

$$$$
6CPW_F8V_A_403


 49 55  0  0  0  0  0  0  0  0999 V2000
   44.0698   17.2710   14.1026 N   0  0  0  0  0  0  0  0  0  0  0  0
   42.8277   16.8101   13.4353 C   0  0  0  0  0  0  0  0  0  0  0  0
   43.2930   15.6514   12.5863 C   0  0  0  0  0  0  0  0  0  0  0  0
   44.4427   15.0491   13.4121 C   0  0  0  0  0  0  0  0  0  0  0  0
   44.6701   15.9632   14.6214 C   0  0  0  0  0  0  0  0  0  0  0  0
   45.7226   14.8992   12.5859 C   0  0  0  0  0  0  0  0  0  0  0  0
   46.8203   15.0172   13.1101 O   0  0  0  0  0  0  0  0  0  0  0  0
   45.5301   14.7073   11.2650 N   0  0  0  0  0  0  0  0  0  0  0  0
   44.5976   14.6083   10.9651 H   0  0  0  0  0  0  0  0  0  0  0  0
   46.5270   14.6335   10.2664 C   0  0  0  0  0  0  0  0  0  0  0  0
   47.0503   13.3773    9.9594 C   0  0  0  0  0  0  0  0  0  0  0  0
   48.0479   13.2602    8.9940 C   0  0  0  0  0  0  0  0  0  0  0  0
   48.8494   12.1580    8.4417 C   0  0  0  0  0  0  0  0  0  0  0  0
   49.6598   12.6831    7.5257 N   0  0  0  0  0  0  0  0  0  0  0  0
   49.4481   14.0246    7.4621 N   0  0  0  0  0  0  0  0  0  0  0  0
   48.4833   14.4215    8.3279 C   0  0  0  0  0  0  0  0  0  0  0  0
   47.9583   15.6718    8.6198 C   0  0  0  0  0  0  0  0  0  0  0  0
   46.9823   15.7714    9.5976 C   0  0  0  0  0  0  0  0  0  0  0  0
   49.9356   14.6331    6.8610 H   0  0  0  0  0  0  0  0  0  0  0  0
   48.8378   10.7134    8.8076 C   0  0  0  0  0  0  0  0  0  0  0  0
   49.9274    9.8949    8.4965 C   0  0  0  0  0  0  0  0  0  0  0  0
   49.9404    8.5603    8.8669 C   0  0  0  0  0  0  0  0  0  0  0  0
   48.8515    8.0592    9.5353 C   0  0  0  0  0  0  0  0  0  0  0  0
   48.8515    6.7422    9.8875 F   0  0  0  0  0  0  0  0  0  0  0  0
   47.7599    8.8263    9.8652 C   0  0  0  0  0  0  0  0  0  0  0  0
   47.7611   10.1618    9.4969 C   0  0  0  0  0  0  0  0  0  0  0  0
   43.8553   13.4132   14.0358 S   0  0  0  0  0  0  0  0  0  0  0  0
   42.9144   12.5778   12.7526 C   0  0  0  0  0  0  0  0  0  0  0  0
   43.9099   18.2846   15.1942 C   0  0  0  0  0  0  0  0  0  0  0  0
   46.2346   18.6748   15.0766 O   0  0  0  0  0  0  0  0  0  0  0  0
   45.1355   19.1877   15.2794 C   0  0  0  0  0  0  0  0  0  0  0  0
   44.9960   20.5166   15.4606 N   0  0  0  0  0  0  0  0  0  0  0  0
   46.0864   21.4498   15.2007 C   0  0  0  0  0  0  0  0  0  0  0  0
   45.8932   22.0457   13.8336 C   0  0  0  0  0  0  0  0  0  0  0  0
   44.5723   22.6864   13.7023 N   0  0  0  0  0  0  0  0  0  0  0  0
   43.4457   21.8710   14.1967 C   0  0  0  0  0  0  0  0  0  0  0  0
   43.7549   21.2846   15.5578 C   0  0  0  0  0  0  0  0  0  0  0  0
   44.4236   23.4205   12.4818 C   0  0  0  0  0  0  0  0  0  0  0  0
   45.4538   23.4343   11.5284 C   0  0  0  0  0  0  0  0  0  0  0  0
   45.2348   23.9163   10.2522 C   0  0  0  0  0  0  0  0  0  0  0  0
   44.0143   24.4845    9.8921 C   0  0  0  0  0  0  0  0  0  0  0  0
   43.0289   24.5793   10.8735 C   0  0  0  0  0  0  0  0  0  0  0  0
   43.2126   24.0356   12.1366 C   0  0  0  0  0  0  0  0  0  0  0  0
   43.7636   24.9406    8.4932 C   0  0  0  0  0  0  0  0  0  0  0  0
   44.8099   24.9218    7.6496 N   0  0  0  0  0  0  0  0  0  0  0  0
   44.5292   25.1721    6.3611 C   0  0  0  0  0  0  0  0  0  0  0  0
   43.2615   25.4503    5.9025 C   0  0  0  0  0  0  0  0  0  0  0  0
   42.2694   25.4538    6.8541 C   0  0  0  0  0  0  0  0  0  0  0  0
   42.4901   25.2029    8.1537 N   0  0  0  0  0  0  0  0  0  0  0  0
 46 45  2  0  0  0
 46 47  1  0  0  0
 45 44  1  0  0  0
 40 39  2  0  0  0
 40 41  1  0  0  0
 39 38  1  0  0  0
 34 33  1  0  0  0
 34 35  1  0  0  0
 30 31  2  0  0  0
 15 16  1  0  0  0
 15 14  1  0  0  0
 33 32  1  0  0  0
 17 16  2  0  0  0
 17 18  1  0  0  0
 47 48  2  0  0  0
 16 12  1  0  0  0
 14 13  2  0  0  0
 44 41  1  0  0  0
 44 49  2  0  0  0
 18 10  2  0  0  0
 41 42  2  0  0  0
 12 13  1  0  0  0
 12 11  2  0  0  0
 31 32  1  0  0  0
 31 29  1  0  0  0
 13 20  1  0  0  0
 38 35  1  0  0  0
 38 43  2  0  0  0
 32 37  1  0  0  0
 21 20  2  0  0  0
 21 22  1  0  0  0
 35 36  1  0  0  0
 10 11  1  0  0  0
 10  8  1  0  0  0
  3  2  1  0  0  0
  3  4  1  0  0  0
 48 49  1  0  0  0
  2  1  1  0  0  0
 20 26  1  0  0  0
 22 23  2  0  0  0
  8  6  1  0  0  0
  7  6  2  0  0  0
  1 29  1  0  0  0
  1  5  1  0  0  0
 42 43  1  0  0  0
  6  4  1  0  0  0
 37 36  1  0  0  0
  4  5  1  0  0  0
  4 27  1  0  0  0
 26 25  2  0  0  0
 23 25  1  0  0  0
 23 24  1  0  0  0
 27 28  1  0  0  0
  8  9  1  0  0  0
 15 19  1  0  0  0
M  END
> <minimizedAffinity>
-12.31030

$$$$
6CPW_F8V_A_403


 49 55  0  0  0  0  0  0  0  0999 V2000
   43.7817   20.1359   14.3112 N   0  0  0  0  0  0  0  0  0  0  0  0
   44.0698   20.3503   15.7504 C   0  0  0  0  0  0  0  0  0  0  0  0
   44.5953   21.7651   15.7976 C   0  0  0  0  0  0  0  0  0  0  0  0
   43.8238   22.4652   14.6656 C   0  0  0  0  0  0  0  0  0  0  0  0
   42.9982   21.3964   13.9405 C   0  0  0  0  0  0  0  0  0  0  0  0
   44.7623   23.1885   13.6964 C   0  0  0  0  0  0  0  0  0  0  0  0
   45.0815   24.3523   13.8896 O   0  0  0  0  0  0  0  0  0  0  0  0
   45.1276   22.4720   12.6138 N   0  0  0  0  0  0  0  0  0  0  0  0
   44.8226   21.5365   12.5808 H   0  0  0  0  0  0  0  0  0  0  0  0
   45.9024   22.9238   11.5220 C   0  0  0  0  0  0  0  0  0  0  0  0
   45.2344   23.5126   10.4481 C   0  0  0  0  0  0  0  0  0  0  0  0
   45.9570   23.9560    9.3427 C   0  0  0  0  0  0  0  0  0  0  0  0
   45.6235   24.5681    8.0479 C   0  0  0  0  0  0  0  0  0  0  0  0
   46.7698   24.7663    7.4011 N   0  0  0  0  0  0  0  0  0  0  0  0
   47.7973   24.3194    8.1710 N   0  0  0  0  0  0  0  0  0  0  0  0
   47.3583   23.8226    9.3536 C   0  0  0  0  0  0  0  0  0  0  0  0
   48.0297   23.2493   10.4236 C   0  0  0  0  0  0  0  0  0  0  0  0
   47.2925   22.7949   11.5046 C   0  0  0  0  0  0  0  0  0  0  0  0
   48.7439   24.3524    7.9027 H   0  0  0  0  0  0  0  0  0  0  0  0
   44.2851   24.9020    7.4838 C   0  0  0  0  0  0  0  0  0  0  0  0
   44.0880   24.9376    6.1005 C   0  0  0  0  0  0  0  0  0  0  0  0
   42.8382   25.2096    5.5690 C   0  0  0  0  0  0  0  0  0  0  0  0
   41.8019   25.4558    6.4344 C   0  0  0  0  0  0  0  0  0  0  0  0
   40.5733   25.7408    5.9168 F   0  0  0  0  0  0  0  0  0  0  0  0
   41.9476   25.4285    7.8007 C   0  0  0  0  0  0  0  0  0  0  0  0
   43.2003   25.1473    8.3214 C   0  0  0  0  0  0  0  0  0  0  0  0
   42.6515   23.6462   15.4660 S   0  0  0  0  0  0  0  0  0  0  0  0
   41.6207   24.4196   14.2132 C   0  0  0  0  0  0  0  0  0  0  0  0
   43.0339   18.8877   13.9542 C   0  0  0  0  0  0  0  0  0  0  0  0
   42.6543   17.1293   15.4821 O   0  0  0  0  0  0  0  0  0  0  0  0
   43.5005   17.7132   14.8073 C   0  0  0  0  0  0  0  0  0  0  0  0
   44.7727   17.2729   14.7298 N   0  0  0  0  0  0  0  0  0  0  0  0
   45.1699   15.9664   15.2423 C   0  0  0  0  0  0  0  0  0  0  0  0
   45.2122   14.9934   14.0964 C   0  0  0  0  0  0  0  0  0  0  0  0
   46.1038   15.4608   13.0199 N   0  0  0  0  0  0  0  0  0  0  0  0
   45.9115   16.8734   12.6373 C   0  0  0  0  0  0  0  0  0  0  0  0
   45.8416   17.7633   13.8601 C   0  0  0  0  0  0  0  0  0  0  0  0
   46.3112   14.4798   11.9975 C   0  0  0  0  0  0  0  0  0  0  0  0
   46.4763   14.8692   10.6591 C   0  0  0  0  0  0  0  0  0  0  0  0
   46.9270   13.9734    9.7086 C   0  0  0  0  0  0  0  0  0  0  0  0
   47.1496   12.6343   10.0234 C   0  0  0  0  0  0  0  0  0  0  0  0
   46.8722   12.2198   11.3250 C   0  0  0  0  0  0  0  0  0  0  0  0
   46.4873   13.1237   12.3046 C   0  0  0  0  0  0  0  0  0  0  0  0
   47.7008   11.6891    9.0081 C   0  0  0  0  0  0  0  0  0  0  0  0
   48.7643   12.1073    8.3005 N   0  0  0  0  0  0  0  0  0  0  0  0
   49.3470   11.1860    7.5174 C   0  0  0  0  0  0  0  0  0  0  0  0
   48.8979    9.8892    7.4109 C   0  0  0  0  0  0  0  0  0  0  0  0
   47.7966    9.5742    8.1710 C   0  0  0  0  0  0  0  0  0  0  0  0
   47.1787   10.4513    8.9770 N   0  0  0  0  0  0  0  0  0  0  0  0
 46 45  2  0  0  0
 46 47  1  0  0  0
 45 44  1  0  0  0
 40 39  2  0  0  0
 40 41  1  0  0  0
 39 38  1  0  0  0
 34 33  1  0  0  0
 34 35  1  0  0  0
 30 31  2  0  0  0
 15 16  1  0  0  0
 15 14  1  0  0  0
 33 32  1  0  0  0
 17 16  2  0  0  0
 17 18  1  0  0  0
 47 48  2  0  0  0
 16 12  1  0  0  0
 14 13  2  0  0  0
 44 41  1  0  0  0
 44 49  2  0  0  0
 18 10  2  0  0  0
 41 42  2  0  0  0
 12 13  1  0  0  0
 12 11  2  0  0  0
 31 32  1  0  0  0
 31 29  1  0  0  0
 13 20  1  0  0  0
 38 35  1  0  0  0
 38 43  2  0  0  0
 32 37  1  0  0  0
 21 20  2  0  0  0
 21 22  1  0  0  0
 35 36  1  0  0  0
 10 11  1  0  0  0
 10  8  1  0  0  0
  3  2  1  0  0  0
  3  4  1  0  0  0
 48 49  1  0  0  0
  2  1  1  0  0  0
 20 26  1  0  0  0
 22 23  2  0  0  0
  8  6  1  0  0  0
  7  6  2  0  0  0
  1 29  1  0  0  0
  1  5  1  0  0  0
 42 43  1  0  0  0
  6  4  1  0  0  0
 37 36  1  0  0  0
  4  5  1  0  0  0
  4 27  1  0  0  0
 26 25  2  0  0  0
 23 25  1  0  0  0
 23 24  1  0  0  0
 27 28  1  0  0  0
  8  9  1  0  0  0
 15 19  1  0  0  0
M  END
> <minimizedAffinity>
-12.28382

$$$$
6CPW_F8V_A_403


 49 55  0  0  0  0  0  0  0  0999 V2000
   42.3400   15.6288   15.5250 N   0  0  0  0  0  0  0  0  0  0  0  0
   41.9152   16.8772   16.2043 C   0  0  0  0  0  0  0  0  0  0  0  0
   42.8785   17.9121   15.6741 C   0  0  0  0  0  0  0  0  0  0  0  0
   43.1657   17.4255   14.2433 C   0  0  0  0  0  0  0  0  0  0  0  0
   42.4657   16.0733   14.0667 C   0  0  0  0  0  0  0  0  0  0  0  0
   44.6673   17.3089   13.9698 C   0  0  0  0  0  0  0  0  0  0  0  0
   45.4829   17.6553   14.8115 O   0  0  0  0  0  0  0  0  0  0  0  0
   44.9905   16.8761   12.7340 N   0  0  0  0  0  0  0  0  0  0  0  0
   44.2436   16.6073   12.1517 H   0  0  0  0  0  0  0  0  0  0  0  0
   46.2892   16.7682   12.1880 C   0  0  0  0  0  0  0  0  0  0  0  0
   46.7613   17.8290   11.4147 C   0  0  0  0  0  0  0  0  0  0  0  0
   48.0292   17.7573   10.8418 C   0  0  0  0  0  0  0  0  0  0  0  0
   48.8339   18.6192    9.9633 C   0  0  0  0  0  0  0  0  0  0  0  0
   49.9903   17.9945    9.7533 N   0  0  0  0  0  0  0  0  0  0  0  0
   49.9791   16.8058   10.4129 N   0  0  0  0  0  0  0  0  0  0  0  0
   48.8177   16.6170   11.0864 C   0  0  0  0  0  0  0  0  0  0  0  0
   48.3589   15.5643   11.8645 C   0  0  0  0  0  0  0  0  0  0  0  0
   47.0875   15.6441   12.4082 C   0  0  0  0  0  0  0  0  0  0  0  0
   50.7231   16.1611   10.4028 H   0  0  0  0  0  0  0  0  0  0  0  0
   48.4806   19.9344    9.3580 C   0  0  0  0  0  0  0  0  0  0  0  0
   48.7356   20.1839    8.0066 C   0  0  0  0  0  0  0  0  0  0  0  0
   48.3755   21.3896    7.4277 C   0  0  0  0  0  0  0  0  0  0  0  0
   47.7740   22.3374    8.2174 C   0  0  0  0  0  0  0  0  0  0  0  0
   47.4327   23.5324    7.6570 F   0  0  0  0  0  0  0  0  0  0  0  0
   47.5007   22.1355    9.5490 C   0  0  0  0  0  0  0  0  0  0  0  0
   47.8579   20.9228   10.1156 C   0  0  0  0  0  0  0  0  0  0  0  0
   42.3701   18.6341   13.0959 S   0  0  0  0  0  0  0  0  0  0  0  0
   43.4440   20.0583   12.8763 C   0  0  0  0  0  0  0  0  0  0  0  0
   41.4365   14.4427   15.6721 C   0  0  0  0  0  0  0  0  0  0  0  0
   40.2633   14.5429   13.6267 O   0  0  0  0  0  0  0  0  0  0  0  0
   41.0478   13.8847   14.3074 C   0  0  0  0  0  0  0  0  0  0  0  0
   41.6349   12.7679   13.8315 N   0  0  0  0  0  0  0  0  0  0  0  0
   41.5633   12.3988   12.4223 C   0  0  0  0  0  0  0  0  0  0  0  0
   42.8304   12.8423   11.7445 C   0  0  0  0  0  0  0  0  0  0  0  0
   44.0236   12.2823   12.4041 N   0  0  0  0  0  0  0  0  0  0  0  0
   44.0226   12.4043   13.8751 C   0  0  0  0  0  0  0  0  0  0  0  0
   42.6924   11.9732   14.4556 C   0  0  0  0  0  0  0  0  0  0  0  0
   45.2339   12.5327   11.6809 C   0  0  0  0  0  0  0  0  0  0  0  0
   46.4505   11.9839   12.1158 C   0  0  0  0  0  0  0  0  0  0  0  0
   47.5681   11.9996   11.3036 C   0  0  0  0  0  0  0  0  0  0  0  0
   47.5533   12.6353   10.0635 C   0  0  0  0  0  0  0  0  0  0  0  0
   46.3800   13.2837    9.6816 C   0  0  0  0  0  0  0  0  0  0  0  0
   45.2312   13.2145   10.4564 C   0  0  0  0  0  0  0  0  0  0  0  0
   48.7434   12.5891    9.1638 C   0  0  0  0  0  0  0  0  0  0  0  0
   49.6137   13.6096    9.2519 N   0  0  0  0  0  0  0  0  0  0  0  0
   50.7562   13.4675    8.5620 C   0  0  0  0  0  0  0  0  0  0  0  0
   51.0423   12.3646    7.7897 C   0  0  0  0  0  0  0  0  0  0  0  0
   50.0763   11.3869    7.7635 C   0  0  0  0  0  0  0  0  0  0  0  0
   48.9199   11.4714    8.4390 N   0  0  0  0  0  0  0  0  0  0  0  0
 46 45  2  0  0  0
 46 47  1  0  0  0
 45 44  1  0  0  0
 40 39  2  0  0  0
 40 41  1  0  0  0
 39 38  1  0  0  0
 34 33  1  0  0  0
 34 35  1  0  0  0
 30 31  2  0  0  0
 15 16  1  0  0  0
 15 14  1  0  0  0
 33 32  1  0  0  0
 17 16  2  0  0  0
 17 18  1  0  0  0
 47 48  2  0  0  0
 16 12  1  0  0  0
 14 13  2  0  0  0
 44 41  1  0  0  0
 44 49  2  0  0  0
 18 10  2  0  0  0
 41 42  2  0  0  0
 12 13  1  0  0  0
 12 11  2  0  0  0
 31 32  1  0  0  0
 31 29  1  0  0  0
 13 20  1  0  0  0
 38 35  1  0  0  0
 38 43  2  0  0  0
 32 37  1  0  0  0
 21 20  2  0  0  0
 21 22  1  0  0  0
 35 36  1  0  0  0
 10 11  1  0  0  0
 10  8  1  0  0  0
  3  2  1  0  0  0
  3  4  1  0  0  0
 48 49  1  0  0  0
  2  1  1  0  0  0
 20 26  1  0  0  0
 22 23  2  0  0  0
  8  6  1  0  0  0
  7  6  2  0  0  0
  1 29  1  0  0  0
  1  5  1  0  0  0
 42 43  1  0  0  0
  6  4  1  0  0  0
 37 36  1  0  0  0
  4  5  1  0  0  0
  4 27  1  0  0  0
 26 25  2  0  0  0
 23 25  1  0  0  0
 23 24  1  0  0  0
 27 28  1  0  0  0
  8  9  1  0  0  0
 15 19  1  0  0  0
M  END
> <minimizedAffinity>
-12.22180

$$$$
6CPW_F8V_A_403


 49 55  0  0  0  0  0  0  0  0999 V2000
   43.5699   20.3377   15.0349 N   0  0  0  0  0  0  0  0  0  0  0  0
   44.6395   20.1215   16.0395 C   0  0  0  0  0  0  0  0  0  0  0  0
   45.8518   20.7622   15.4070 C   0  0  0  0  0  0  0  0  0  0  0  0
   45.2536   21.9283   14.6013 C   0  0  0  0  0  0  0  0  0  0  0  0
   43.7277   21.8219   14.6995 C   0  0  0  0  0  0  0  0  0  0  0  0
   45.7148   21.9105   13.1418 C   0  0  0  0  0  0  0  0  0  0  0  0
   45.7912   20.8581   12.5251 O   0  0  0  0  0  0  0  0  0  0  0  0
   46.0854   23.1085   12.6456 N   0  0  0  0  0  0  0  0  0  0  0  0
   45.9583   23.8877   13.2338 H   0  0  0  0  0  0  0  0  0  0  0  0
   46.6370   23.3621   11.3697 C   0  0  0  0  0  0  0  0  0  0  0  0
   45.7805   23.8210   10.3689 C   0  0  0  0  0  0  0  0  0  0  0  0
   46.2781   24.0667    9.0910 C   0  0  0  0  0  0  0  0  0  0  0  0
   45.7062   24.5014    7.8079 C   0  0  0  0  0  0  0  0  0  0  0  0
   46.7054   24.5508    6.9300 N   0  0  0  0  0  0  0  0  0  0  0  0
   47.8567   24.1716    7.5455 N   0  0  0  0  0  0  0  0  0  0  0  0
   47.6514   23.8709    8.8515 C   0  0  0  0  0  0  0  0  0  0  0  0
   48.5107   23.4265    9.8456 C   0  0  0  0  0  0  0  0  0  0  0  0
   47.9938   23.1671   11.1042 C   0  0  0  0  0  0  0  0  0  0  0  0
   48.7321   24.1214    7.0979 H   0  0  0  0  0  0  0  0  0  0  0  0
   44.2889   24.8130    7.4689 C   0  0  0  0  0  0  0  0  0  0  0  0
   43.3595   25.0744    8.4796 C   0  0  0  0  0  0  0  0  0  0  0  0
   42.0496   25.4022    8.1711 C   0  0  0  0  0  0  0  0  0  0  0  0
   41.6844   25.4511    6.8490 C   0  0  0  0  0  0  0  0  0  0  0  0
   40.3922   25.7566    6.5399 F   0  0  0  0  0  0  0  0  0  0  0  0
   42.5639   25.2050    5.8219 C   0  0  0  0  0  0  0  0  0  0  0  0
   43.8735   24.8860    6.1419 C   0  0  0  0  0  0  0  0  0  0  0  0
   45.7726   23.4860   15.4464 S   0  0  0  0  0  0  0  0  0  0  0  0
   44.3280   24.4970   15.7941 C   0  0  0  0  0  0  0  0  0  0  0  0
   42.1719   20.0060   15.4595 C   0  0  0  0  0  0  0  0  0  0  0  0
   41.0080   19.5680   13.4536 O   0  0  0  0  0  0  0  0  0  0  0  0
   41.5096   19.0662   14.4580 C   0  0  0  0  0  0  0  0  0  0  0  0
   41.5763   17.7298   14.6249 N   0  0  0  0  0  0  0  0  0  0  0  0
   41.2766   16.8007   13.5414 C   0  0  0  0  0  0  0  0  0  0  0  0
   42.5705   16.3597   12.9147 C   0  0  0  0  0  0  0  0  0  0  0  0
   43.4840   15.7726   13.9113 N   0  0  0  0  0  0  0  0  0  0  0  0
   43.6236   16.5607   15.1515 C   0  0  0  0  0  0  0  0  0  0  0  0
   42.2706   16.9897   15.6783 C   0  0  0  0  0  0  0  0  0  0  0  0
   44.6469   15.1775   13.3246 C   0  0  0  0  0  0  0  0  0  0  0  0
   44.9447   13.8241   13.5483 C   0  0  0  0  0  0  0  0  0  0  0  0
   45.9043   13.1737   12.7965 C   0  0  0  0  0  0  0  0  0  0  0  0
   46.6698   13.8557   11.8526 C   0  0  0  0  0  0  0  0  0  0  0  0
   46.4568   15.2262   11.7132 C   0  0  0  0  0  0  0  0  0  0  0  0
   45.4487   15.8753   12.4113 C   0  0  0  0  0  0  0  0  0  0  0  0
   47.6564   13.1321   10.9976 C   0  0  0  0  0  0  0  0  0  0  0  0
   47.3461   11.8738   10.6409 N   0  0  0  0  0  0  0  0  0  0  0  0
   48.1592   11.3025    9.7387 C   0  0  0  0  0  0  0  0  0  0  0  0
   49.2601   11.9331    9.2048 C   0  0  0  0  0  0  0  0  0  0  0  0
   49.4887   13.2139    9.6491 C   0  0  0  0  0  0  0  0  0  0  0  0
   48.7057   13.8376   10.5426 N   0  0  0  0  0  0  0  0  0  0  0  0
 46 45  2  0  0  0
 46 47  1  0  0  0
 45 44  1  0  0  0
 40 39  2  0  0  0
 40 41  1  0  0  0
 39 38  1  0  0  0
 34 33  1  0  0  0
 34 35  1  0  0  0
 30 31  2  0  0  0
 15 16  1  0  0  0
 15 14  1  0  0  0
 33 32  1  0  0  0
 17 16  2  0  0  0
 17 18  1  0  0  0
 47 48  2  0  0  0
 16 12  1  0  0  0
 14 13  2  0  0  0
 44 41  1  0  0  0
 44 49  2  0  0  0
 18 10  2  0  0  0
 41 42  2  0  0  0
 12 13  1  0  0  0
 12 11  2  0  0  0
 31 32  1  0  0  0
 31 29  1  0  0  0
 13 20  1  0  0  0
 38 35  1  0  0  0
 38 43  2  0  0  0
 32 37  1  0  0  0
 21 20  2  0  0  0
 21 22  1  0  0  0
 35 36  1  0  0  0
 10 11  1  0  0  0
 10  8  1  0  0  0
  3  2  1  0  0  0
  3  4  1  0  0  0
 48 49  1  0  0  0
  2  1  1  0  0  0
 20 26  1  0  0  0
 22 23  2  0  0  0
  8  6  1  0  0  0
  7  6  2  0  0  0
  1 29  1  0  0  0
  1  5  1  0  0  0
 42 43  1  0  0  0
  6  4  1  0  0  0
 37 36  1  0  0  0
  4  5  1  0  0  0
  4 27  1  0  0  0
 26 25  2  0  0  0
 23 25  1  0  0  0
 23 24  1  0  0  0
 27 28  1  0  0  0
  8  9  1  0  0  0
 15 19  1  0  0  0
M  END
> <minimizedAffinity>
-11.97726

$$$$
6CPW_F8V_A_403


 49 55  0  0  0  0  0  0  0  0999 V2000
   42.5781   17.3225   13.8825 N   0  0  0  0  0  0  0  0  0  0  0  0
   41.7152   16.4583   13.0406 C   0  0  0  0  0  0  0  0  0  0  0  0
   42.6199   15.3057   12.6758 C   0  0  0  0  0  0  0  0  0  0  0  0
   43.5274   15.1659   13.9101 C   0  0  0  0  0  0  0  0  0  0  0  0
   43.1935   16.3207   14.8611 C   0  0  0  0  0  0  0  0  0  0  0  0
   45.0109   15.1738   13.5328 C   0  0  0  0  0  0  0  0  0  0  0  0
   45.8734   15.0798   14.3935 O   0  0  0  0  0  0  0  0  0  0  0  0
   45.2655   15.3625   12.2219 N   0  0  0  0  0  0  0  0  0  0  0  0
   44.4854   15.4038   11.6228 H   0  0  0  0  0  0  0  0  0  0  0  0
   46.5350   15.5071   11.6187 C   0  0  0  0  0  0  0  0  0  0  0  0
   47.0272   14.4369   10.8713 C   0  0  0  0  0  0  0  0  0  0  0  0
   48.2824   14.5292   10.2739 C   0  0  0  0  0  0  0  0  0  0  0  0
   49.1317   13.6348    9.4733 C   0  0  0  0  0  0  0  0  0  0  0  0
   50.2473   14.3031    9.1900 N   0  0  0  0  0  0  0  0  0  0  0  0
   50.1808   15.5380    9.7547 N   0  0  0  0  0  0  0  0  0  0  0  0
   49.0134   15.7235   10.4185 C   0  0  0  0  0  0  0  0  0  0  0  0
   48.5243   16.7959   11.1500 C   0  0  0  0  0  0  0  0  0  0  0  0
   47.2836   16.6778   11.7545 C   0  0  0  0  0  0  0  0  0  0  0  0
   50.8930   16.2146    9.6895 H   0  0  0  0  0  0  0  0  0  0  0  0
   48.8771   12.2291    9.0486 C   0  0  0  0  0  0  0  0  0  0  0  0
   47.9443   11.4413    9.7288 C   0  0  0  0  0  0  0  0  0  0  0  0
   47.6744   10.1467    9.3167 C   0  0  0  0  0  0  0  0  0  0  0  0
   48.3553    9.6532    8.2320 C   0  0  0  0  0  0  0  0  0  0  0  0
   48.1061    8.3739    7.8321 F   0  0  0  0  0  0  0  0  0  0  0  0
   49.2782   10.3916    7.5307 C   0  0  0  0  0  0  0  0  0  0  0  0
   49.5343   11.6880    7.9469 C   0  0  0  0  0  0  0  0  0  0  0  0
   43.0591   13.5863   14.7440 S   0  0  0  0  0  0  0  0  0  0  0  0
   43.6748   12.1924   13.7911 C   0  0  0  0  0  0  0  0  0  0  0  0
   41.9045   18.4566   14.5930 C   0  0  0  0  0  0  0  0  0  0  0  0
   43.5374   18.7311   16.2748 O   0  0  0  0  0  0  0  0  0  0  0  0
   42.9187   19.2886   15.3700 C   0  0  0  0  0  0  0  0  0  0  0  0
   43.1968   20.5541   14.9963 N   0  0  0  0  0  0  0  0  0  0  0  0
   44.3839   21.2560   15.4709 C   0  0  0  0  0  0  0  0  0  0  0  0
   45.4518   21.1613   14.4163 C   0  0  0  0  0  0  0  0  0  0  0  0
   44.9820   21.6812   13.1197 N   0  0  0  0  0  0  0  0  0  0  0  0
   43.6508   21.1916   12.7110 C   0  0  0  0  0  0  0  0  0  0  0  0
   42.6609   21.2911   13.8522 C   0  0  0  0  0  0  0  0  0  0  0  0
   46.0243   21.7761   12.1423 C   0  0  0  0  0  0  0  0  0  0  0  0
   46.4829   20.6290   11.4759 C   0  0  0  0  0  0  0  0  0  0  0  0
   47.2948   20.7307   10.3626 C   0  0  0  0  0  0  0  0  0  0  0  0
   47.7577   21.9662    9.9141 C   0  0  0  0  0  0  0  0  0  0  0  0
   47.3992   23.0971   10.6459 C   0  0  0  0  0  0  0  0  0  0  0  0
   46.5281   23.0147   11.7226 C   0  0  0  0  0  0  0  0  0  0  0  0
   48.5782   22.0729    8.6718 C   0  0  0  0  0  0  0  0  0  0  0  0
   48.9401   20.9216    8.0799 N   0  0  0  0  0  0  0  0  0  0  0  0
   49.5291   21.0390    6.8795 C   0  0  0  0  0  0  0  0  0  0  0  0
   49.7760   22.2493    6.2722 C   0  0  0  0  0  0  0  0  0  0  0  0
   49.3738   23.3619    6.9723 C   0  0  0  0  0  0  0  0  0  0  0  0
   48.7737   23.3046    8.1711 N   0  0  0  0  0  0  0  0  0  0  0  0
 46 45  2  0  0  0
 46 47  1  0  0  0
 45 44  1  0  0  0
 40 39  2  0  0  0
 40 41  1  0  0  0
 39 38  1  0  0  0
 34 33  1  0  0  0
 34 35  1  0  0  0
 30 31  2  0  0  0
 15 16  1  0  0  0
 15 14  1  0  0  0
 33 32  1  0  0  0
 17 16  2  0  0  0
 17 18  1  0  0  0
 47 48  2  0  0  0
 16 12  1  0  0  0
 14 13  2  0  0  0
 44 41  1  0  0  0
 44 49  2  0  0  0
 18 10  2  0  0  0
 41 42  2  0  0  0
 12 13  1  0  0  0
 12 11  2  0  0  0
 31 32  1  0  0  0
 31 29  1  0  0  0
 13 20  1  0  0  0
 38 35  1  0  0  0
 38 43  2  0  0  0
 32 37  1  0  0  0
 21 20  2  0  0  0
 21 22  1  0  0  0
 35 36  1  0  0  0
 10 11  1  0  0  0
 10  8  1  0  0  0
  3  2  1  0  0  0
  3  4  1  0  0  0
 48 49  1  0  0  0
  2  1  1  0  0  0
 20 26  1  0  0  0
 22 23  2  0  0  0
  8  6  1  0  0  0
  7  6  2  0  0  0
  1 29  1  0  0  0
  1  5  1  0  0  0
 42 43  1  0  0  0
  6  4  1  0  0  0
 37 36  1  0  0  0
  4  5  1  0  0  0
  4 27  1  0  0  0
 26 25  2  0  0  0
 23 25  1  0  0  0
 23 24  1  0  0  0
 27 28  1  0  0  0
  8  9  1  0  0  0
 15 19  1  0  0  0
M  END
> <minimizedAffinity>
-11.81929

$$$$
6CPW_F8V_A_403


 49 55  0  0  0  0  0  0  0  0999 V2000
   46.5612   22.6172   11.8346 N   0  0  0  0  0  0  0  0  0  0  0  0
   45.1730   22.9297   11.4157 C   0  0  0  0  0  0  0  0  0  0  0  0
   44.3259   22.1675   12.4064 C   0  0  0  0  0  0  0  0  0  0  0  0
   45.1712   22.2007   13.6913 C   0  0  0  0  0  0  0  0  0  0  0  0
   46.5119   22.8578   13.3445 C   0  0  0  0  0  0  0  0  0  0  0  0
   45.3780   20.8012   14.2759 C   0  0  0  0  0  0  0  0  0  0  0  0
   46.1704   20.6176   15.1881 O   0  0  0  0  0  0  0  0  0  0  0  0
   44.6866   19.8187   13.6631 N   0  0  0  0  0  0  0  0  0  0  0  0
   44.0634   20.0951   12.9529 H   0  0  0  0  0  0  0  0  0  0  0  0
   44.7634   18.4341   13.9340 C   0  0  0  0  0  0  0  0  0  0  0  0
   45.2899   17.6045   12.9438 C   0  0  0  0  0  0  0  0  0  0  0  0
   45.3676   16.2306   13.1611 C   0  0  0  0  0  0  0  0  0  0  0  0
   45.8054   15.0671   12.3757 C   0  0  0  0  0  0  0  0  0  0  0  0
   45.6342   13.9911   13.1401 N   0  0  0  0  0  0  0  0  0  0  0  0
   45.1130   14.3741   14.3359 N   0  0  0  0  0  0  0  0  0  0  0  0
   44.9353   15.7167   14.3984 C   0  0  0  0  0  0  0  0  0  0  0  0
   44.4223   16.5377   15.3918 C   0  0  0  0  0  0  0  0  0  0  0  0
   44.3330   17.8985   15.1494 C   0  0  0  0  0  0  0  0  0  0  0  0
   44.8918   13.7528   15.0668 H   0  0  0  0  0  0  0  0  0  0  0  0
   46.3213   15.0175   10.9784 C   0  0  0  0  0  0  0  0  0  0  0  0
   46.8602   16.1605   10.3810 C   0  0  0  0  0  0  0  0  0  0  0  0
   47.3764   16.1131    9.0966 C   0  0  0  0  0  0  0  0  0  0  0  0
   47.3336   14.9192    8.4210 C   0  0  0  0  0  0  0  0  0  0  0  0
   47.8248   14.8706    7.1502 F   0  0  0  0  0  0  0  0  0  0  0  0
   46.8167   13.7695    8.9687 C   0  0  0  0  0  0  0  0  0  0  0  0
   46.3104   13.8266   10.2571 C   0  0  0  0  0  0  0  0  0  0  0  0
   44.2892   23.2992   14.8852 S   0  0  0  0  0  0  0  0  0  0  0  0
   45.4194   24.5517   15.5049 C   0  0  0  0  0  0  0  0  0  0  0  0
   47.6545   23.4039   11.1785 C   0  0  0  0  0  0  0  0  0  0  0  0
   48.0189   21.8582    9.4325 O   0  0  0  0  0  0  0  0  0  0  0  0
   47.7798   23.0334    9.7048 C   0  0  0  0  0  0  0  0  0  0  0  0
   47.5256   23.9458    8.7449 N   0  0  0  0  0  0  0  0  0  0  0  0
   47.2895   23.5617    7.3579 C   0  0  0  0  0  0  0  0  0  0  0  0
   45.8057   23.5205    7.1166 C   0  0  0  0  0  0  0  0  0  0  0  0
   45.1652   24.8047    7.4527 N   0  0  0  0  0  0  0  0  0  0  0  0
   45.5743   25.3698    8.7535 C   0  0  0  0  0  0  0  0  0  0  0  0
   47.0790   25.3282    8.9153 C   0  0  0  0  0  0  0  0  0  0  0  0
   43.7878   24.8631    7.0653 C   0  0  0  0  0  0  0  0  0  0  0  0
   42.7901   25.1237    8.0177 C   0  0  0  0  0  0  0  0  0  0  0  0
   41.5010   25.4347    7.6297 C   0  0  0  0  0  0  0  0  0  0  0  0
   41.1238   25.4154    6.2883 C   0  0  0  0  0  0  0  0  0  0  0  0
   42.0844   25.0407    5.3503 C   0  0  0  0  0  0  0  0  0  0  0  0
   43.3987   24.7952    5.7207 C   0  0  0  0  0  0  0  0  0  0  0  0
   39.7480   25.8183    5.8726 C   0  0  0  0  0  0  0  0  0  0  0  0
   38.7583   25.6088    6.7576 N   0  0  0  0  0  0  0  0  0  0  0  0
   37.5637   26.1293    6.4359 C   0  0  0  0  0  0  0  0  0  0  0  0
   37.3298   26.8258    5.2719 C   0  0  0  0  0  0  0  0  0  0  0  0
   38.4108   26.9706    4.4350 C   0  0  0  0  0  0  0  0  0  0  0  0
   39.6290   26.4790    4.7085 N   0  0  0  0  0  0  0  0  0  0  0  0
 46 45  2  0  0  0
 46 47  1  0  0  0
 45 44  1  0  0  0
 40 39  2  0  0  0
 40 41  1  0  0  0
 39 38  1  0  0  0
 34 33  1  0  0  0
 34 35  1  0  0  0
 30 31  2  0  0  0
 15 16  1  0  0  0
 15 14  1  0  0  0
 33 32  1  0  0  0
 17 16  2  0  0  0
 17 18  1  0  0  0
 47 48  2  0  0  0
 16 12  1  0  0  0
 14 13  2  0  0  0
 44 41  1  0  0  0
 44 49  2  0  0  0
 18 10  2  0  0  0
 41 42  2  0  0  0
 12 13  1  0  0  0
 12 11  2  0  0  0
 31 32  1  0  0  0
 31 29  1  0  0  0
 13 20  1  0  0  0
 38 35  1  0  0  0
 38 43  2  0  0  0
 32 37  1  0  0  0
 21 20  2  0  0  0
 21 22  1  0  0  0
 35 36  1  0  0  0
 10 11  1  0  0  0
 10  8  1  0  0  0
  3  2  1  0  0  0
  3  4  1  0  0  0
 48 49  1  0  0  0
  2  1  1  0  0  0
 20 26  1  0  0  0
 22 23  2  0  0  0
  8  6  1  0  0  0
  7  6  2  0  0  0
  1 29  1  0  0  0
  1  5  1  0  0  0
 42 43  1  0  0  0
  6  4  1  0  0  0
 37 36  1  0  0  0
  4  5  1  0  0  0
  4 27  1  0  0  0
 26 25  2  0  0  0
 23 25  1  0  0  0
 23 24  1  0  0  0
 27 28  1  0  0  0
  8  9  1  0  0  0
 15 19  1  0  0  0
M  END
> <minimizedAffinity>
-11.62496

$$$$
6CPW_F8V_A_403


 49 55  0  0  0  0  0  0  0  0999 V2000
   43.9775   19.7499   15.0036 N   0  0  0  0  0  0  0  0  0  0  0  0
   44.8071   20.5550   15.9330 C   0  0  0  0  0  0  0  0  0  0  0  0
   45.2920   21.6974   15.0728 C   0  0  0  0  0  0  0  0  0  0  0  0
   44.1286   21.9169   14.0905 C   0  0  0  0  0  0  0  0  0  0  0  0
   43.0966   20.8121   14.3435 C   0  0  0  0  0  0  0  0  0  0  0  0
   44.6004   21.9077   12.6343 C   0  0  0  0  0  0  0  0  0  0  0  0
   43.8226   21.6456   11.7288 O   0  0  0  0  0  0  0  0  0  0  0  0
   45.9186   22.1330   12.4600 N   0  0  0  0  0  0  0  0  0  0  0  0
   46.4387   22.3532   13.2664 H   0  0  0  0  0  0  0  0  0  0  0  0
   46.6312   22.0858   11.2408 C   0  0  0  0  0  0  0  0  0  0  0  0
   47.1105   20.8474   10.8135 C   0  0  0  0  0  0  0  0  0  0  0  0
   47.8340   20.7574    9.6263 C   0  0  0  0  0  0  0  0  0  0  0  0
   48.5135   19.6807    8.8907 C   0  0  0  0  0  0  0  0  0  0  0  0
   49.0421   20.2256    7.7975 N   0  0  0  0  0  0  0  0  0  0  0  0
   48.7661   21.5568    7.7869 N   0  0  0  0  0  0  0  0  0  0  0  0
   48.0375   21.9264    8.8688 C   0  0  0  0  0  0  0  0  0  0  0  0
   47.5529   23.1587    9.2819 C   0  0  0  0  0  0  0  0  0  0  0  0
   46.8543   23.2322   10.4757 C   0  0  0  0  0  0  0  0  0  0  0  0
   49.0593   22.1764    7.0802 H   0  0  0  0  0  0  0  0  0  0  0  0
   48.6549   18.2414    9.2506 C   0  0  0  0  0  0  0  0  0  0  0  0
   49.7142   17.8130   10.0556 C   0  0  0  0  0  0  0  0  0  0  0  0
   49.8310   16.4835   10.4258 C   0  0  0  0  0  0  0  0  0  0  0  0
   48.8880   15.5956    9.9718 C   0  0  0  0  0  0  0  0  0  0  0  0
   49.0073   14.2827   10.3191 F   0  0  0  0  0  0  0  0  0  0  0  0
   47.8281   15.9713    9.1816 C   0  0  0  0  0  0  0  0  0  0  0  0
   47.7167   17.3051    8.8241 C   0  0  0  0  0  0  0  0  0  0  0  0
   43.3529   23.5339   14.5306 S   0  0  0  0  0  0  0  0  0  0  0  0
   42.4630   23.3763   16.0840 C   0  0  0  0  0  0  0  0  0  0  0  0
   43.1642   18.6481   15.6114 C   0  0  0  0  0  0  0  0  0  0  0  0
   41.7959   18.6826   13.6887 O   0  0  0  0  0  0  0  0  0  0  0  0
   42.2960   17.9700   14.5572 C   0  0  0  0  0  0  0  0  0  0  0  0
   42.1806   16.6269   14.5253 N   0  0  0  0  0  0  0  0  0  0  0  0
   41.6651   15.9240   13.3559 C   0  0  0  0  0  0  0  0  0  0  0  0
   42.8283   15.4180   12.5480 C   0  0  0  0  0  0  0  0  0  0  0  0
   43.7217   14.5686   13.3559 N   0  0  0  0  0  0  0  0  0  0  0  0
   44.0709   15.1304   14.6754 C   0  0  0  0  0  0  0  0  0  0  0  0
   42.8400   15.6479   15.3890 C   0  0  0  0  0  0  0  0  0  0  0  0
   44.7362   13.9228   12.5784 C   0  0  0  0  0  0  0  0  0  0  0  0
   45.5507   12.9331   13.1508 C   0  0  0  0  0  0  0  0  0  0  0  0
   46.3506   12.1277   12.3630 C   0  0  0  0  0  0  0  0  0  0  0  0
   46.4445   12.3247   10.9866 C   0  0  0  0  0  0  0  0  0  0  0  0
   45.7271   13.3839   10.4331 C   0  0  0  0  0  0  0  0  0  0  0  0
   44.8668   14.1540   11.2024 C   0  0  0  0  0  0  0  0  0  0  0  0
   47.2577   11.4080   10.1344 C   0  0  0  0  0  0  0  0  0  0  0  0
   47.3603   10.1304   10.5395 N   0  0  0  0  0  0  0  0  0  0  0  0
   47.9499    9.2873    9.6775 C   0  0  0  0  0  0  0  0  0  0  0  0
   48.4440    9.6783    8.4537 C   0  0  0  0  0  0  0  0  0  0  0  0
   48.2947   11.0101    8.1472 C   0  0  0  0  0  0  0  0  0  0  0  0
   47.7071   11.8962    8.9658 N   0  0  0  0  0  0  0  0  0  0  0  0
 46 45  2  0  0  0
 46 47  1  0  0  0
 45 44  1  0  0  0
 40 39  2  0  0  0
 40 41  1  0  0  0
 39 38  1  0  0  0
 34 33  1  0  0  0
 34 35  1  0  0  0
 30 31  2  0  0  0
 15 16  1  0  0  0
 15 14  1  0  0  0
 33 32  1  0  0  0
 17 16  2  0  0  0
 17 18  1  0  0  0
 47 48  2  0  0  0
 16 12  1  0  0  0
 14 13  2  0  0  0
 44 41  1  0  0  0
 44 49  2  0  0  0
 18 10  2  0  0  0
 41 42  2  0  0  0
 12 13  1  0  0  0
 12 11  2  0  0  0
 31 32  1  0  0  0
 31 29  1  0  0  0
 13 20  1  0  0  0
 38 35  1  0  0  0
 38 43  2  0  0  0
 32 37  1  0  0  0
 21 20  2  0  0  0
 21 22  1  0  0  0
 35 36  1  0  0  0
 10 11  1  0  0  0
 10  8  1  0  0  0
  3  2  1  0  0  0
  3  4  1  0  0  0
 48 49  1  0  0  0
  2  1  1  0  0  0
 20 26  1  0  0  0
 22 23  2  0  0  0
  8  6  1  0  0  0
  7  6  2  0  0  0
  1 29  1  0  0  0
  1  5  1  0  0  0
 42 43  1  0  0  0
  6  4  1  0  0  0
 37 36  1  0  0  0
  4  5  1  0  0  0
  4 27  1  0  0  0
 26 25  2  0  0  0
 23 25  1  0  0  0
 23 24  1  0  0  0
 27 28  1  0  0  0
  8  9  1  0  0  0
 15 19  1  0  0  0
M  END
> <minimizedAffinity>
-11.59863

$$$$
6CPW_F8V_A_403


 49 55  0  0  0  0  0  0  0  0999 V2000
   43.3422   18.9604   14.4292 N   0  0  0  0  0  0  0  0  0  0  0  0
   44.7688   18.5967   14.6097 C   0  0  0  0  0  0  0  0  0  0  0  0
   45.5067   19.6883   13.8722 C   0  0  0  0  0  0  0  0  0  0  0  0
   44.6030   20.9179   14.0669 C   0  0  0  0  0  0  0  0  0  0  0  0
   43.3334   20.4479   14.7859 C   0  0  0  0  0  0  0  0  0  0  0  0
   44.2645   21.5951   12.7365 C   0  0  0  0  0  0  0  0  0  0  0  0
   43.5160   21.0554   11.9351 O   0  0  0  0  0  0  0  0  0  0  0  0
   44.9042   22.7606   12.5103 N   0  0  0  0  0  0  0  0  0  0  0  0
   45.4668   23.1039   13.2416 H   0  0  0  0  0  0  0  0  0  0  0  0
   44.8513   23.5403   11.3331 C   0  0  0  0  0  0  0  0  0  0  0  0
   45.7049   23.1964   10.2847 C   0  0  0  0  0  0  0  0  0  0  0  0
   45.6991   23.9489    9.1122 C   0  0  0  0  0  0  0  0  0  0  0  0
   46.4505   23.9282    7.8484 C   0  0  0  0  0  0  0  0  0  0  0  0
   45.9839   24.9240    7.0985 N   0  0  0  0  0  0  0  0  0  0  0  0
   45.0117   25.5800    7.7861 N   0  0  0  0  0  0  0  0  0  0  0  0
   44.8016   25.0284    9.0066 C   0  0  0  0  0  0  0  0  0  0  0  0
   43.9417   25.3679   10.0407 C   0  0  0  0  0  0  0  0  0  0  0  0
   43.9768   24.6213   11.2068 C   0  0  0  0  0  0  0  0  0  0  0  0
   44.5205   26.3600    7.4402 H   0  0  0  0  0  0  0  0  0  0  0  0
   47.5557   23.0214    7.4276 C   0  0  0  0  0  0  0  0  0  0  0  0
   48.6197   23.5084    6.6632 C   0  0  0  0  0  0  0  0  0  0  0  0
   49.6696   22.6810    6.3005 C   0  0  0  0  0  0  0  0  0  0  0  0
   49.6323   21.3684    6.6997 C   0  0  0  0  0  0  0  0  0  0  0  0
   50.6546   20.5451    6.3314 F   0  0  0  0  0  0  0  0  0  0  0  0
   48.6092   20.8463    7.4544 C   0  0  0  0  0  0  0  0  0  0  0  0
   47.5683   21.6850    7.8182 C   0  0  0  0  0  0  0  0  0  0  0  0
   45.5027   22.0718   15.1934 S   0  0  0  0  0  0  0  0  0  0  0  0
   44.4715   22.4595   16.6133 C   0  0  0  0  0  0  0  0  0  0  0  0
   42.3441   18.1863   15.2350 C   0  0  0  0  0  0  0  0  0  0  0  0
   40.8562   17.6112   13.4956 O   0  0  0  0  0  0  0  0  0  0  0  0
   41.6109   17.1736   14.3624 C   0  0  0  0  0  0  0  0  0  0  0  0
   41.8740   15.8557   14.4736 N   0  0  0  0  0  0  0  0  0  0  0  0
   41.4747   14.8995   13.4473 C   0  0  0  0  0  0  0  0  0  0  0  0
   42.6568   14.6271   12.5584 C   0  0  0  0  0  0  0  0  0  0  0  0
   43.8203   14.1569   13.3314 N   0  0  0  0  0  0  0  0  0  0  0  0
   44.1135   14.9525   14.5395 C   0  0  0  0  0  0  0  0  0  0  0  0
   42.8551   15.2059   15.3423 C   0  0  0  0  0  0  0  0  0  0  0  0
   44.9022   13.7148   12.5037 C   0  0  0  0  0  0  0  0  0  0  0  0
   45.6566   12.5859   12.8598 C   0  0  0  0  0  0  0  0  0  0  0  0
   46.5254   11.9989   11.9600 C   0  0  0  0  0  0  0  0  0  0  0  0
   46.7493   12.5545   10.7017 C   0  0  0  0  0  0  0  0  0  0  0  0
   46.0899   13.7426   10.3912 C   0  0  0  0  0  0  0  0  0  0  0  0
   45.1627   14.3023   11.2583 C   0  0  0  0  0  0  0  0  0  0  0  0
   47.6372   11.8772    9.7113 C   0  0  0  0  0  0  0  0  0  0  0  0
   47.1521   10.7767    9.1108 N   0  0  0  0  0  0  0  0  0  0  0  0
   47.8920   10.2822    8.1061 C   0  0  0  0  0  0  0  0  0  0  0  0
   49.0862   10.8348    7.7019 C   0  0  0  0  0  0  0  0  0  0  0  0
   49.4918   11.9517    8.3932 C   0  0  0  0  0  0  0  0  0  0  0  0
   48.7896   12.4941    9.3998 N   0  0  0  0  0  0  0  0  0  0  0  0
 46 45  2  0  0  0
 46 47  1  0  0  0
 45 44  1  0  0  0
 40 39  2  0  0  0
 40 41  1  0  0  0
 39 38  1  0  0  0
 34 33  1  0  0  0
 34 35  1  0  0  0
 30 31  2  0  0  0
 15 16  1  0  0  0
 15 14  1  0  0  0
 33 32  1  0  0  0
 17 16  2  0  0  0
 17 18  1  0  0  0
 47 48  2  0  0  0
 16 12  1  0  0  0
 14 13  2  0  0  0
 44 41  1  0  0  0
 44 49  2  0  0  0
 18 10  2  0  0  0
 41 42  2  0  0  0
 12 13  1  0  0  0
 12 11  2  0  0  0
 31 32  1  0  0  0
 31 29  1  0  0  0
 13 20  1  0  0  0
 38 35  1  0  0  0
 38 43  2  0  0  0
 32 37  1  0  0  0
 21 20  2  0  0  0
 21 22  1  0  0  0
 35 36  1  0  0  0
 10 11  1  0  0  0
 10  8  1  0  0  0
  3  2  1  0  0  0
  3  4  1  0  0  0
 48 49  1  0  0  0
  2  1  1  0  0  0
 20 26  1  0  0  0
 22 23  2  0  0  0
  8  6  1  0  0  0
  7  6  2  0  0  0
  1 29  1  0  0  0
  1  5  1  0  0  0
 42 43  1  0  0  0
  6  4  1  0  0  0
 37 36  1  0  0  0
  4  5  1  0  0  0
  4 27  1  0  0  0
 26 25  2  0  0  0
 23 25  1  0  0  0
 23 24  1  0  0  0
 27 28  1  0  0  0
  8  9  1  0  0  0
 15 19  1  0  0  0
M  END
> <minimizedAffinity>
-11.36205

$$$$
6CPW_F8V_A_403


 49 55  0  0  0  0  0  0  0  0999 V2000
   44.4220   20.0299   14.2290 N   0  0  0  0  0  0  0  0  0  0  0  0
   44.8854   20.1951   15.6284 C   0  0  0  0  0  0  0  0  0  0  0  0
   45.3887   21.6182   15.6672 C   0  0  0  0  0  0  0  0  0  0  0  0
   44.4692   22.3442   14.6701 C   0  0  0  0  0  0  0  0  0  0  0  0
   43.5771   21.2863   14.0110 C   0  0  0  0  0  0  0  0  0  0  0  0
   45.2660   23.1245   13.6215 C   0  0  0  0  0  0  0  0  0  0  0  0
   45.4961   24.3153   13.7726 O   0  0  0  0  0  0  0  0  0  0  0  0
   45.6103   22.4191   12.5249 N   0  0  0  0  0  0  0  0  0  0  0  0
   45.3863   21.4604   12.5291 H   0  0  0  0  0  0  0  0  0  0  0  0
   46.2589   22.9123   11.3705 C   0  0  0  0  0  0  0  0  0  0  0  0
   45.4711   23.5040   10.3830 C   0  0  0  0  0  0  0  0  0  0  0  0
   46.0666   23.9878    9.2201 C   0  0  0  0  0  0  0  0  0  0  0  0
   45.5885   24.6159    7.9795 C   0  0  0  0  0  0  0  0  0  0  0  0
   46.6579   24.8568    7.2246 N   0  0  0  0  0  0  0  0  0  0  0  0
   47.7689   24.4222    7.8766 N   0  0  0  0  0  0  0  0  0  0  0  0
   47.4646   23.8911    9.0864 C   0  0  0  0  0  0  0  0  0  0  0  0
   48.2550   23.3150   10.0700 C   0  0  0  0  0  0  0  0  0  0  0  0
   47.6427   22.8204   11.2098 C   0  0  0  0  0  0  0  0  0  0  0  0
   48.6823   24.4854    7.5147 H   0  0  0  0  0  0  0  0  0  0  0  0
   44.1920   24.9254    7.5611 C   0  0  0  0  0  0  0  0  0  0  0  0
   43.8446   24.9398    6.2074 C   0  0  0  0  0  0  0  0  0  0  0  0
   42.5406   25.1889    5.8124 C   0  0  0  0  0  0  0  0  0  0  0  0
   41.6015   25.4338    6.7830 C   0  0  0  0  0  0  0  0  0  0  0  0
   40.3200   25.6964    6.3994 F   0  0  0  0  0  0  0  0  0  0  0  0
   41.8960   25.4268    8.1254 C   0  0  0  0  0  0  0  0  0  0  0  0
   43.2018   25.1684    8.5093 C   0  0  0  0  0  0  0  0  0  0  0  0
   43.3872   23.4677   15.6584 S   0  0  0  0  0  0  0  0  0  0  0  0
   41.9092   22.5855   16.1754 C   0  0  0  0  0  0  0  0  0  0  0  0
   43.6565   18.7803   13.9176 C   0  0  0  0  0  0  0  0  0  0  0  0
   42.1139   18.6528   15.6993 O   0  0  0  0  0  0  0  0  0  0  0  0
   43.1130   18.1453   15.1928 C   0  0  0  0  0  0  0  0  0  0  0  0
   43.6502   17.0056   15.6735 N   0  0  0  0  0  0  0  0  0  0  0  0
   42.9608   16.1842   16.6619 C   0  0  0  0  0  0  0  0  0  0  0  0
   42.2675   15.0557   15.9496 C   0  0  0  0  0  0  0  0  0  0  0  0
   43.2095   14.2681   15.1344 N   0  0  0  0  0  0  0  0  0  0  0  0
   44.1165   15.0766   14.2963 C   0  0  0  0  0  0  0  0  0  0  0  0
   44.7303   16.2076   15.0940 C   0  0  0  0  0  0  0  0  0  0  0  0
   42.6228   13.0812   14.5887 C   0  0  0  0  0  0  0  0  0  0  0  0
   42.4632   11.9350   15.3832 C   0  0  0  0  0  0  0  0  0  0  0  0
   41.6781   10.8801   14.9593 C   0  0  0  0  0  0  0  0  0  0  0  0
   41.0893   10.8772   13.6963 C   0  0  0  0  0  0  0  0  0  0  0  0
   41.3445   11.9626   12.8598 C   0  0  0  0  0  0  0  0  0  0  0  0
   42.0724   13.0586   13.3001 C   0  0  0  0  0  0  0  0  0  0  0  0
   40.1880    9.7653   13.2728 C   0  0  0  0  0  0  0  0  0  0  0  0
   40.1321    9.4937   11.9575 N   0  0  0  0  0  0  0  0  0  0  0  0
   39.4519    8.3884   11.6152 C   0  0  0  0  0  0  0  0  0  0  0  0
   38.8253    7.5714   12.5287 C   0  0  0  0  0  0  0  0  0  0  0  0
   38.9384    7.9506   13.8453 C   0  0  0  0  0  0  0  0  0  0  0  0
   39.6119    9.0397   14.2462 N   0  0  0  0  0  0  0  0  0  0  0  0
 46 45  2  0  0  0
 46 47  1  0  0  0
 45 44  1  0  0  0
 40 39  2  0  0  0
 40 41  1  0  0  0
 39 38  1  0  0  0
 34 33  1  0  0  0
 34 35  1  0  0  0
 30 31  2  0  0  0
 15 16  1  0  0  0
 15 14  1  0  0  0
 33 32  1  0  0  0
 17 16  2  0  0  0
 17 18  1  0  0  0
 47 48  2  0  0  0
 16 12  1  0  0  0
 14 13  2  0  0  0
 44 41  1  0  0  0
 44 49  2  0  0  0
 18 10  2  0  0  0
 41 42  2  0  0  0
 12 13  1  0  0  0
 12 11  2  0  0  0
 31 32  1  0  0  0
 31 29  1  0  0  0
 13 20  1  0  0  0
 38 35  1  0  0  0
 38 43  2  0  0  0
 32 37  1  0  0  0
 21 20  2  0  0  0
 21 22  1  0  0  0
 35 36  1  0  0  0
 10 11  1  0  0  0
 10  8  1  0  0  0
  3  2  1  0  0  0
  3  4  1  0  0  0
 48 49  1  0  0  0
  2  1  1  0  0  0
 20 26  1  0  0  0
 22 23  2  0  0  0
  8  6  1  0  0  0
  7  6  2  0  0  0
  1 29  1  0  0  0
  1  5  1  0  0  0
 42 43  1  0  0  0
  6  4  1  0  0  0
 37 36  1  0  0  0
  4  5  1  0  0  0
  4 27  1  0  0  0
 26 25  2  0  0  0
 23 25  1  0  0  0
 23 24  1  0  0  0
 27 28  1  0  0  0
  8  9  1  0  0  0
 15 19  1  0  0  0
M  END
> <minimizedAffinity>
-11.15760

$$$$
