6CPW_F8V_A_403
  RCSB PDB05261800303D
Coordinates from PDB:6CPW:A:403 Model:1 without hydrogens
 47 53  0  0  0  0            999 V2000
   49.3360   20.0840    7.4280   O 0  0  0  0  0  0  0  0  0  0  0  0
   49.2980   20.6540    8.5170   C 0  0  0  0  0  0  0  0  0  0  0  0
   49.2850   21.9990    8.6130   N 0  0  0  0  0  0  0  0  0  0  0  0
   49.0820   22.8540    7.4490   C 0  0  0  0  0  0  0  0  0  0  0  0
   47.6370   23.2680    7.4030   C 0  0  0  0  0  0  0  0  0  0  0  0
   47.2210   23.9270    8.6540   N 0  0  0  0  0  0  0  0  0  0  0  0
   45.9090   24.4960    8.5790   C 0  0  0  0  0  0  0  0  0  0  0  0
   45.4380   25.0450    7.3760   C 0  0  0  0  0  0  0  0  0  0  0  0
   44.1030   25.3620    7.2140   C 0  0  0  0  0  0  0  0  0  0  0  0
   43.1950   25.2310    8.2630   C 0  0  0  0  0  0  0  0  0  0  0  0
   41.7430   25.5110    8.0600   C 0  0  0  0  0  0  0  0  0  0  0  0
   41.3190   25.6400    6.7910   N 0  0  0  0  0  0  0  0  0  0  0  0
   39.9900   25.7220    6.6220   C 0  0  0  0  0  0  0  0  0  0  0  0
   39.0910   25.6950    7.6640   C 0  0  0  0  0  0  0  0  0  0  0  0
   39.6360   25.5710    8.9200   C 0  0  0  0  0  0  0  0  0  0  0  0
   40.9550   25.4770    9.1480   N 0  0  0  0  0  0  0  0  0  0  0  0
   43.6850   24.7980    9.4940   C 0  0  0  0  0  0  0  0  0  0  0  0
   45.0080   24.4100    9.6490   C 0  0  0  0  0  0  0  0  0  0  0  0
   47.6330   23.2210    9.8830   C 0  0  0  0  0  0  0  0  0  0  0  0
   49.0890   22.8120    9.8130   C 0  0  0  0  0  0  0  0  0  0  0  0
   49.1380   19.7870    9.7610   C 0  0  0  0  0  0  0  0  0  0  0  0
   48.8090   18.3740    9.3870   N 0  0  0  0  0  0  0  0  0  0  0  0
   47.4250   18.1140    8.9210   C 0  0  0  0  0  0  0  0  0  0  0  0
   47.3500   16.6070    8.8630   C 0  0  0  0  0  0  0  0  0  0  0  0
   48.2770   16.1640   10.0080   C 0  0  0  0  0  0  0  0  0  0  0  0
   48.9400   17.4230   10.5780   C 0  0  0  0  0  0  0  0  0  0  0  0
   47.1990   15.4420   11.3220   S 0  0  0  0  0  0  0  0  0  0  0  0
   48.2010   14.9750   12.7390   C 0  0  0  0  0  0  0  0  0  0  0  0
   49.3260   15.1540    9.5360   C 0  0  0  0  0  0  0  0  0  0  0  0
   50.4780   15.5040    9.3260   O 0  0  0  0  0  0  0  0  0  0  0  0
   48.8590   13.9090    9.3110   N 0  0  0  0  0  0  0  0  0  0  0  0
   49.5830   12.8160    8.7840   C 0  0  0  0  0  0  0  0  0  0  0  0
   49.0630   11.5360    8.9770   C 0  0  0  0  0  0  0  0  0  0  0  0
   49.7530   10.4280    8.4900   C 0  0  0  0  0  0  0  0  0  0  0  0
   49.5580    8.9710    8.5270   C 0  0  0  0  0  0  0  0  0  0  0  0
   50.5790    8.4220    7.8730   N 0  0  0  0  0  0  0  0  0  0  0  0
   51.4090    9.4070    7.4380   N 0  0  0  0  0  0  0  0  0  0  0  0
   50.9530   10.6360    7.7840   C 0  0  0  0  0  0  0  0  0  0  0  0
   51.4690   11.9070    7.5780   C 0  0  0  0  0  0  0  0  0  0  0  0
   50.7800   12.9950    8.0880   C 0  0  0  0  0  0  0  0  0  0  0  0
   48.4720    8.1850    9.1780   C 0  0  0  0  0  0  0  0  0  0  0  0
   48.0780    6.9510    8.6530   C 0  0  0  0  0  0  0  0  0  0  0  0
   47.0960    6.1970    9.2740   C 0  0  0  0  0  0  0  0  0  0  0  0
   46.5110    6.6980   10.4100   C 0  0  0  0  0  0  0  0  0  0  0  0
   45.5320    5.9680   11.0160   F 0  0  0  0  0  0  0  0  0  0  0  0
   46.8680    7.9040   10.9640   C 0  0  0  0  0  0  0  0  0  0  0  0
   47.8570    8.6460   10.3390   C 0  0  0  0  0  0  0  0  0  0  0  0
 13 12  2  0  0  0  0
 13 14  1  0  0  0  0
 12 11  1  0  0  0  0
  9  8  2  0  0  0  0
  9 10  1  0  0  0  0
  8  7  1  0  0  0  0
  5  4  1  0  0  0  0
  5  6  1  0  0  0  0
  1  2  2  0  0  0  0
 37 38  1  0  0  0  0
 37 36  1  0  0  0  0
  4  3  1  0  0  0  0
 39 38  2  0  0  0  0
 39 40  1  0  0  0  0
 14 15  2  0  0  0  0
 38 34  1  0  0  0  0
 36 35  2  0  0  0  0
 11 10  1  0  0  0  0
 11 16  2  0  0  0  0
 40 32  2  0  0  0  0
 10 17  2  0  0  0  0
 34 35  1  0  0  0  0
 34 33  2  0  0  0  0
  2  3  1  0  0  0  0
  2 21  1  0  0  0  0
 35 41  1  0  0  0  0
  7  6  1  0  0  0  0
  7 18  2  0  0  0  0
  3 20  1  0  0  0  0
 42 41  2  0  0  0  0
 42 43  1  0  0  0  0
  6 19  1  0  0  0  0
 32 33  1  0  0  0  0
 32 31  1  0  0  0  0
 24 23  1  0  0  0  0
 24 25  1  0  0  0  0
 15 16  1  0  0  0  0
 23 22  1  0  0  0  0
 41 47  1  0  0  0  0
 43 44  2  0  0  0  0
 31 29  1  0  0  0  0
 30 29  2  0  0  0  0
 22 21  1  0  0  0  0
 22 26  1  0  0  0  0
 17 18  1  0  0  0  0
 29 25  1  0  0  0  0
 20 19  1  0  0  0  0
 25 26  1  0  0  0  0
 25 27  1  0  0  0  0
 47 46  2  0  0  0  0
 44 46  1  0  0  0  0
 44 45  1  0  0  0  0
 27 28  1  0  0  0  0
A    1
O1
A    2
C20
A    3
N4
A    4
C24
A    5
C23
A    6
N5
A    7
C25
A    8
C30
A    9
C29
A   10
C28
A   11
C31
A   12
N7
A   13
C34
A   14
C33
A   15
C32
A   16
N6
A   17
C27
A   18
C26
A   19
C22
A   20
C21
A   21
C19
A   22
N
A   23
C1
A   24
C2
A   25
C3
A   26
C
A   27
S
A   28
C18
A   29
C4
A   30
O
A   31
N1
A   32
C5
A   33
C10
A   34
C9
A   35
C11
A   36
N2
A   37
N3
A   38
C8
A   39
C7
A   40
C6
A   41
C12
A   42
C17
A   43
C16
A   44
C15
A   45
F
A   46
C14
A   47
C13
M  END
>  <InstanceId>
6CPW_F8V_A_403

>  <ChemCompId>
F8V

>  <PdbId>
6CPW

>  <ChainId>
A

>  <ResidueNumber>
403

>  <InsertionCode>


>  <Model>
1

>  <AltIds>


>  <MissingHeavyAtoms>
0

>  <ObservedFormula>
C35 N8 O2 S F

>  <Name>
(3S)-N-[3-(4-fluorophenyl)-1H-indazol-5-yl]-3-(methylsulfanyl)-1-(2-oxo-2-{4-[4-(pyrimidin-2-yl)phenyl]piperazin-1-yl}ethyl)pyrrolidine-3-carboxamide

>  <SystematicName>
(3~{S})-~{N}-[3-(4-fluorophenyl)-1~{H}-indazol-5-yl]-3-methylsulfanyl-1-[2-oxidanylidene-2-[4-(4-pyrimidin-2-ylphenyl)piperazin-1-yl]ethyl]pyrrolidine-3-carboxamide

>  <Synonyms>


>  <Type>
NON-POLYMER

>  <Formula>
C35 H35 F N8 O2 S

>  <MolecularWeight>
650.768

>  <ModifiedDate>
2018-05-18

>  <Parent>


>  <OneLetterCode>


>  <SubcomponentList>


>  <AmbiguousFlag>
N

>  <InChI>
InChI=1S/C35H35FN8O2S/c1-47-35(34(46)39-27-9-12-30-29(21-27)32(41-40-30)24-3-7-26(36)8-4-24)13-16-42(23-35)22-31(45)44-19-17-43(18-20-44)28-10-5-25(6-11-28)33-37-14-2-15-38-33/h2-12,14-15,21H,13,16-20,22-23H2,1H3,(H,39,46)(H,40,41)/t35-/m0/s1

>  <InChIKey>
MRHUCFAJTNKMCG-DHUJRADRSA-N

>  <SMILES>
CS[C@]1(CCN(C1)CC(=O)N2CCN(CC2)c3ccc(cc3)c4ncccn4)C(=O)Nc5ccc6c(c5)c(n[nH]6)c7ccc(cc7)F

$$$$
