5D3C_56O_A_306


 54 56  0  0  0  0  0  0  0  0999 V2000
    7.4834   28.0425    5.2266 N   0  0  0  0  0  0  0  0  0  0  0  0
    8.4302   27.2219    4.8160 C   0  0  0  0  0  0  0  0  0  0  0  0
    9.6019   27.3526    5.1007 O   0  0  0  0  0  0  0  0  0  0  0  0
    6.5471   27.8933    4.9616 H   0  0  0  0  0  0  0  0  0  0  0  0
    7.8337   29.1643    6.0704 C   0  0  0  0  0  0  0  0  0  0  0  0
    7.9063   29.1880    8.4306 N   0  0  0  0  0  0  0  0  0  0  0  0
    7.1096   29.2007    7.3738 C   0  0  0  0  0  0  0  0  0  0  0  0
    5.8956   29.2390    7.4361 O   0  0  0  0  0  0  0  0  0  0  0  0
    8.8818   29.1475    8.3045 H   0  0  0  0  0  0  0  0  0  0  0  0
    7.3597   29.2331    9.7674 C   0  0  0  0  0  0  0  0  0  0  0  0
    6.9837   30.6431   10.1027 C   0  0  0  0  0  0  0  0  0  0  0  0
    5.6838   30.9003   10.2107 N   0  0  0  0  0  0  0  0  0  0  0  0
    7.8442   31.4841   10.2822 O   0  0  0  0  0  0  0  0  0  0  0  0
    5.0258   30.1845   10.0554 H   0  0  0  0  0  0  0  0  0  0  0  0
    5.3791   31.8064   10.4459 H   0  0  0  0  0  0  0  0  0  0  0  0
    8.3871   28.7030   10.7573 C   0  0  0  0  0  0  0  0  0  0  0  0
    7.7644   28.4615   12.1250 C   0  0  0  0  0  0  0  0  0  0  0  0
    8.3920   27.0265   13.9078 O   0  0  0  0  0  0  0  0  0  0  0  0
    8.2722   27.1507   12.6713 C   0  0  0  0  0  0  0  0  0  0  0  0
    8.5558   26.2422   11.8605 O   0  0  0  0  0  0  0  0  0  0  0  0
    8.1659   27.7378   14.4742 H   0  0  0  0  0  0  0  0  0  0  0  0
    7.6222   30.4606    5.2979 C   0  0  0  0  0  0  0  0  0  0  0  0
    8.8191   31.3969    5.4321 C   0  0  0  0  0  0  0  0  0  0  0  0
    8.7353   32.2046    6.7052 C   0  0  0  0  0  0  0  0  0  0  0  0
    9.3901   31.8261    7.6924 O   0  0  0  0  0  0  0  0  0  0  0  0
    8.0213   33.2242    6.7197 O   0  0  0  0  0  0  0  0  0  0  0  0
    9.9150   31.0518    7.6376 H   0  0  0  0  0  0  0  0  0  0  0  0
    7.9808   26.1391    3.9061 C   0  0  0  0  0  0  0  0  0  0  0  0
    8.8753   26.3708    2.6858 C   0  0  0  0  0  0  0  0  0  0  0  0
    8.4340   25.4680    1.5593 C   0  0  0  0  0  0  0  0  0  0  0  0
    9.2780   24.5036    1.2306 N   0  0  0  0  0  0  0  0  0  0  0  0
    8.9045   23.6369    0.2139 O   0  0  0  0  0  0  0  0  0  0  0  0
    7.3594   25.6139    1.0177 O   0  0  0  0  0  0  0  0  0  0  0  0
   10.1420   24.4044    1.6920 H   0  0  0  0  0  0  0  0  0  0  0  0
    8.0286   23.8875   -0.1191 H   0  0  0  0  0  0  0  0  0  0  0  0
    8.2058   24.7559    4.5163 C   0  0  0  0  0  0  0  0  0  0  0  0
    5.7123   24.3153    5.2698 C   0  0  0  0  0  0  0  0  0  0  0  0
    7.0001   24.0247    5.0407 C   0  0  0  0  0  0  0  0  0  0  0  0
    7.2416   22.7543    5.3274 O   0  0  0  0  0  0  0  0  0  0  0  0
    6.0353   22.1993    5.8064 N   0  0  0  0  0  0  0  0  0  0  0  0
    5.1285   23.1391    5.7562 C   0  0  0  0  0  0  0  0  0  0  0  0
    1.3745   23.4241    5.9564 C   0  0  0  0  0  0  0  0  0  0  0  0
    2.6835   23.6093    5.5741 C   0  0  0  0  0  0  0  0  0  0  0  0
    2.0937   21.8155    7.5891 C   0  0  0  0  0  0  0  0  0  0  0  0
    3.7149   22.9176    6.1806 C   0  0  0  0  0  0  0  0  0  0  0  0
    3.4156   22.0117    7.1943 C   0  0  0  0  0  0  0  0  0  0  0  0
    1.0796   22.5273    6.9630 C   0  0  0  0  0  0  0  0  0  0  0  0
   -0.3469   22.3757    7.3249 C   0  0  0  0  0  0  0  0  0  0  0  0
   -1.0784   23.4643    7.7498 C   0  0  0  0  0  0  0  0  0  0  0  0
   -0.9392   21.1223    7.2532 C   0  0  0  0  0  0  0  0  0  0  0  0
   -2.2712   20.9492    7.5935 C   0  0  0  0  0  0  0  0  0  0  0  0
   -3.0090   22.0409    8.0160 C   0  0  0  0  0  0  0  0  0  0  0  0
   -2.4079   23.2857    8.0899 C   0  0  0  0  0  0  0  0  0  0  0  0
   -3.3164   24.6535    8.6180 Cl  0  0  0  0  0  0  0  0  0  0  0  0
 32 31  1  0  0  0
 33 30  2  0  0  0
 31 30  1  0  0  0
 30 29  1  0  0  0
 26 24  2  0  0  0
 29 28  1  0  0  0
 24 25  1  0  0  0
 24 23  1  0  0  0
 28 36  1  0  0  0
 28  2  1  0  0  0
 23 22  1  0  0  0
 36 38  1  0  0  0
  1  2  1  0  0  0
  1  5  1  0  0  0
  2  3  2  0  0  0
 37 38  2  0  0  0
 37 41  1  0  0  0
 22  5  1  0  0  0
 38 39  1  0  0  0
  5  7  1  0  0  0
 46 44  2  0  0  0
 46 45  1  0  0  0
 44 47  1  0  0  0
 41 45  1  0  0  0
 41 40  2  0  0  0
 39 40  1  0  0  0
 45 43  2  0  0  0
  8  7  2  0  0  0
  7  6  1  0  0  0
 47 48  1  0  0  0
 47 42  2  0  0  0
 49 48  2  0  0  0
 49 53  1  0  0  0
 48 50  1  0  0  0
 43 42  1  0  0  0
 54 53  1  0  0  0
 53 52  2  0  0  0
 50 51  2  0  0  0
  6 10  1  0  0  0
 52 51  1  0  0  0
 12 11  1  0  0  0
 11 10  1  0  0  0
 11 13  2  0  0  0
 10 16  1  0  0  0
 16 17  1  0  0  0
 17 19  1  0  0  0
 19 20  2  0  0  0
 19 18  1  0  0  0
 18 21  1  0  0  0
 12 14  1  0  0  0
 12 15  1  0  0  0
  6  9  1  0  0  0
 25 27  1  0  0  0
  1  4  1  0  0  0
 31 34  1  0  0  0
 32 35  1  0  0  0
M  END
> <minimizedAffinity>
-10.77348

$$$$
5D3C_56O_A_306


 54 56  0  0  0  0  0  0  0  0999 V2000
    9.1524   28.9218    3.1520 N   0  0  0  0  0  0  0  0  0  0  0  0
    9.0887   27.8965    3.9784 C   0  0  0  0  0  0  0  0  0  0  0  0
    9.4966   27.9282    5.1202 O   0  0  0  0  0  0  0  0  0  0  0  0
    8.8107   28.8407    2.2322 H   0  0  0  0  0  0  0  0  0  0  0  0
    9.7291   30.1673    3.6097 C   0  0  0  0  0  0  0  0  0  0  0  0
    9.0349   31.1555    5.6389 N   0  0  0  0  0  0  0  0  0  0  0  0
    8.7777   31.0498    4.3449 C   0  0  0  0  0  0  0  0  0  0  0  0
    7.8560   31.6122    3.7852 O   0  0  0  0  0  0  0  0  0  0  0  0
    9.7946   30.6635    6.0262 H   0  0  0  0  0  0  0  0  0  0  0  0
    8.2126   31.9853    6.4893 C   0  0  0  0  0  0  0  0  0  0  0  0
    9.0653   33.0332    7.1347 C   0  0  0  0  0  0  0  0  0  0  0  0
    9.0903   33.0412    8.4640 N   0  0  0  0  0  0  0  0  0  0  0  0
    9.7075   33.8102    6.4537 O   0  0  0  0  0  0  0  0  0  0  0  0
    8.5519   32.3909    8.9703 H   0  0  0  0  0  0  0  0  0  0  0  0
    9.6471   33.6975    8.9419 H   0  0  0  0  0  0  0  0  0  0  0  0
    7.5349   31.1220    7.5439 C   0  0  0  0  0  0  0  0  0  0  0  0
    8.1804   29.7464    7.6310 C   0  0  0  0  0  0  0  0  0  0  0  0
    9.9263   30.1041    9.1979 O   0  0  0  0  0  0  0  0  0  0  0  0
    8.8099   29.5846    8.9919 C   0  0  0  0  0  0  0  0  0  0  0  0
    8.1871   28.9324    9.8579 O   0  0  0  0  0  0  0  0  0  0  0  0
   10.3529   30.5839    8.5154 H   0  0  0  0  0  0  0  0  0  0  0  0
   10.3436   30.9027    2.4251 C   0  0  0  0  0  0  0  0  0  0  0  0
   11.5752   31.7029    2.8374 C   0  0  0  0  0  0  0  0  0  0  0  0
   11.1987   33.1095    3.2374 C   0  0  0  0  0  0  0  0  0  0  0  0
   11.7004   33.5871    4.2704 O   0  0  0  0  0  0  0  0  0  0  0  0
   10.4071   33.7438    2.5161 O   0  0  0  0  0  0  0  0  0  0  0  0
   12.2923   33.0738    4.7843 H   0  0  0  0  0  0  0  0  0  0  0  0
    8.5374   26.6469    3.3981 C   0  0  0  0  0  0  0  0  0  0  0  0
    9.2465   26.5974    2.0425 C   0  0  0  0  0  0  0  0  0  0  0  0
    8.6697   25.4758    1.2130 C   0  0  0  0  0  0  0  0  0  0  0  0
    9.5331   24.5613    0.8022 N   0  0  0  0  0  0  0  0  0  0  0  0
    9.0438   23.5007    0.0540 O   0  0  0  0  0  0  0  0  0  0  0  0
    7.4837   25.4164    0.9697 O   0  0  0  0  0  0  0  0  0  0  0  0
   10.4906   24.6313    1.0203 H   0  0  0  0  0  0  0  0  0  0  0  0
    8.0855   23.5997   -0.0592 H   0  0  0  0  0  0  0  0  0  0  0  0
    8.8734   25.4271    4.2556 C   0  0  0  0  0  0  0  0  0  0  0  0
    6.4652   24.7309    5.0897 C   0  0  0  0  0  0  0  0  0  0  0  0
    7.7315   24.5495    4.6909 C   0  0  0  0  0  0  0  0  0  0  0  0
    8.0178   23.2571    4.6469 O   0  0  0  0  0  0  0  0  0  0  0  0
    6.8685   22.5613    5.0801 N   0  0  0  0  0  0  0  0  0  0  0  0
    5.9462   23.4528    5.3305 C   0  0  0  0  0  0  0  0  0  0  0  0
    2.1964   23.3911    5.7164 C   0  0  0  0  0  0  0  0  0  0  0  0
    3.4635   23.7102    5.2844 C   0  0  0  0  0  0  0  0  0  0  0  0
    3.1339   21.7794    7.2311 C   0  0  0  0  0  0  0  0  0  0  0  0
    4.5803   23.0862    5.8074 C   0  0  0  0  0  0  0  0  0  0  0  0
    4.4123   22.1112    6.7866 C   0  0  0  0  0  0  0  0  0  0  0  0
    2.0315   22.4259    6.6888 C   0  0  0  0  0  0  0  0  0  0  0  0
    0.6437   22.1305    7.1074 C   0  0  0  0  0  0  0  0  0  0  0  0
   -0.3868   22.9748    6.7523 C   0  0  0  0  0  0  0  0  0  0  0  0
    0.3889   21.0057    7.8799 C   0  0  0  0  0  0  0  0  0  0  0  0
   -0.8998   20.7085    8.2929 C   0  0  0  0  0  0  0  0  0  0  0  0
   -1.9367   21.5517    7.9341 C   0  0  0  0  0  0  0  0  0  0  0  0
   -1.6719   22.6743    7.1687 C   0  0  0  0  0  0  0  0  0  0  0  0
   -2.9555   23.7345    6.7178 Cl  0  0  0  0  0  0  0  0  0  0  0  0
 32 31  1  0  0  0
 33 30  2  0  0  0
 31 30  1  0  0  0
 30 29  1  0  0  0
 26 24  2  0  0  0
 29 28  1  0  0  0
 24 25  1  0  0  0
 24 23  1  0  0  0
 28 36  1  0  0  0
 28  2  1  0  0  0
 23 22  1  0  0  0
 36 38  1  0  0  0
  1  2  1  0  0  0
  1  5  1  0  0  0
  2  3  2  0  0  0
 37 38  2  0  0  0
 37 41  1  0  0  0
 22  5  1  0  0  0
 38 39  1  0  0  0
  5  7  1  0  0  0
 46 44  2  0  0  0
 46 45  1  0  0  0
 44 47  1  0  0  0
 41 45  1  0  0  0
 41 40  2  0  0  0
 39 40  1  0  0  0
 45 43  2  0  0  0
  8  7  2  0  0  0
  7  6  1  0  0  0
 47 48  1  0  0  0
 47 42  2  0  0  0
 49 48  2  0  0  0
 49 53  1  0  0  0
 48 50  1  0  0  0
 43 42  1  0  0  0
 54 53  1  0  0  0
 53 52  2  0  0  0
 50 51  2  0  0  0
  6 10  1  0  0  0
 52 51  1  0  0  0
 12 11  1  0  0  0
 11 10  1  0  0  0
 11 13  2  0  0  0
 10 16  1  0  0  0
 16 17  1  0  0  0
 17 19  1  0  0  0
 19 20  2  0  0  0
 19 18  1  0  0  0
 18 21  1  0  0  0
 12 14  1  0  0  0
 12 15  1  0  0  0
  6  9  1  0  0  0
 25 27  1  0  0  0
  1  4  1  0  0  0
 31 34  1  0  0  0
 32 35  1  0  0  0
M  END
> <minimizedAffinity>
-10.43669

$$$$
5D3C_56O_A_306


 54 56  0  0  0  0  0  0  0  0999 V2000
    7.5698   27.5464    5.1368 N   0  0  0  0  0  0  0  0  0  0  0  0
    8.4913   26.7387    4.6503 C   0  0  0  0  0  0  0  0  0  0  0  0
    9.6769   26.9948    4.6514 O   0  0  0  0  0  0  0  0  0  0  0  0
    6.6193   27.2917    5.1060 H   0  0  0  0  0  0  0  0  0  0  0  0
    7.9687   28.8106    5.7163 C   0  0  0  0  0  0  0  0  0  0  0  0
    8.2807   29.2567    8.0141 N   0  0  0  0  0  0  0  0  0  0  0  0
    7.3805   29.0820    7.0597 C   0  0  0  0  0  0  0  0  0  0  0  0
    6.1787   29.1342    7.2388 O   0  0  0  0  0  0  0  0  0  0  0  0
    9.2389   29.1915    7.7975 H   0  0  0  0  0  0  0  0  0  0  0  0
    7.8724   29.5421    9.3705 C   0  0  0  0  0  0  0  0  0  0  0  0
    7.9827   31.0139    9.6227 C   0  0  0  0  0  0  0  0  0  0  0  0
    9.0298   31.6309    9.0836 N   0  0  0  0  0  0  0  0  0  0  0  0
    7.1331   31.5929   10.2729 O   0  0  0  0  0  0  0  0  0  0  0  0
    9.6907   31.1172    8.5654 H   0  0  0  0  0  0  0  0  0  0  0  0
    9.1442   32.6014    9.2026 H   0  0  0  0  0  0  0  0  0  0  0  0
    8.7493   28.7650   10.3419 C   0  0  0  0  0  0  0  0  0  0  0  0
    7.9110   27.9079   11.2796 C   0  0  0  0  0  0  0  0  0  0  0  0
    8.3412   26.3826   13.0460 O   0  0  0  0  0  0  0  0  0  0  0  0
    8.8188   27.2557   12.2921 C   0  0  0  0  0  0  0  0  0  0  0  0
   10.0139   27.6202   12.3363 O   0  0  0  0  0  0  0  0  0  0  0  0
    7.4379   26.1442   12.9734 H   0  0  0  0  0  0  0  0  0  0  0  0
    7.6386   29.9364    4.7440 C   0  0  0  0  0  0  0  0  0  0  0  0
    8.8559   30.3418    3.9188 C   0  0  0  0  0  0  0  0  0  0  0  0
    8.7905   29.7516    2.5304 C   0  0  0  0  0  0  0  0  0  0  0  0
    7.6830   29.4012    2.0860 O   0  0  0  0  0  0  0  0  0  0  0  0
    9.8445   29.6441    1.8769 O   0  0  0  0  0  0  0  0  0  0  0  0
    6.9143   29.5001    2.6125 H   0  0  0  0  0  0  0  0  0  0  0  0
    7.9785   25.4954    4.0231 C   0  0  0  0  0  0  0  0  0  0  0  0
    8.9161   25.3463    2.8224 C   0  0  0  0  0  0  0  0  0  0  0  0
    8.3073   26.0270    1.6204 C   0  0  0  0  0  0  0  0  0  0  0  0
    9.0953   26.8740    0.9785 N   0  0  0  0  0  0  0  0  0  0  0  0
    8.5842   27.5074   -0.1449 O   0  0  0  0  0  0  0  0  0  0  0  0
    7.1752   25.7825    1.2628 O   0  0  0  0  0  0  0  0  0  0  0  0
   10.0136   27.0488    1.2876 H   0  0  0  0  0  0  0  0  0  0  0  0
    7.6721   27.2132   -0.2950 H   0  0  0  0  0  0  0  0  0  0  0  0
    8.0793   24.2995    4.9697 C   0  0  0  0  0  0  0  0  0  0  0  0
    5.5470   24.0087    5.6643 C   0  0  0  0  0  0  0  0  0  0  0  0
    6.7969   23.6238    5.3726 C   0  0  0  0  0  0  0  0  0  0  0  0
    6.8957   22.3043    5.4300 O   0  0  0  0  0  0  0  0  0  0  0  0
    5.6323   21.8090    5.8190 N   0  0  0  0  0  0  0  0  0  0  0  0
    4.8343   22.8363    5.9445 C   0  0  0  0  0  0  0  0  0  0  0  0
    1.1039   23.3630    6.0882 C   0  0  0  0  0  0  0  0  0  0  0  0
    2.4289   23.4695    5.7317 C   0  0  0  0  0  0  0  0  0  0  0  0
    1.6870   21.6782    7.6981 C   0  0  0  0  0  0  0  0  0  0  0  0
    3.4018   22.6996    6.3406 C   0  0  0  0  0  0  0  0  0  0  0  0
    3.0259   21.7951    7.3297 C   0  0  0  0  0  0  0  0  0  0  0  0
    0.7330   22.4675    7.0704 C   0  0  0  0  0  0  0  0  0  0  0  0
   -0.7066   22.4025    7.4052 C   0  0  0  0  0  0  0  0  0  0  0  0
   -1.3825   23.5368    7.8019 C   0  0  0  0  0  0  0  0  0  0  0  0
   -1.3684   21.1843    7.3368 C   0  0  0  0  0  0  0  0  0  0  0  0
   -2.7145   21.0921    7.6521 C   0  0  0  0  0  0  0  0  0  0  0  0
   -3.3965   22.2298    8.0463 C   0  0  0  0  0  0  0  0  0  0  0  0
   -2.7264   23.4391    8.1171 C   0  0  0  0  0  0  0  0  0  0  0  0
   -3.5650   24.8635    8.6100 Cl  0  0  0  0  0  0  0  0  0  0  0  0
 32 31  1  0  0  0
 33 30  2  0  0  0
 31 30  1  0  0  0
 30 29  1  0  0  0
 26 24  2  0  0  0
 29 28  1  0  0  0
 24 25  1  0  0  0
 24 23  1  0  0  0
 28 36  1  0  0  0
 28  2  1  0  0  0
 23 22  1  0  0  0
 36 38  1  0  0  0
  1  2  1  0  0  0
  1  5  1  0  0  0
  2  3  2  0  0  0
 37 38  2  0  0  0
 37 41  1  0  0  0
 22  5  1  0  0  0
 38 39  1  0  0  0
  5  7  1  0  0  0
 46 44  2  0  0  0
 46 45  1  0  0  0
 44 47  1  0  0  0
 41 45  1  0  0  0
 41 40  2  0  0  0
 39 40  1  0  0  0
 45 43  2  0  0  0
  8  7  2  0  0  0
  7  6  1  0  0  0
 47 48  1  0  0  0
 47 42  2  0  0  0
 49 48  2  0  0  0
 49 53  1  0  0  0
 48 50  1  0  0  0
 43 42  1  0  0  0
 54 53  1  0  0  0
 53 52  2  0  0  0
 50 51  2  0  0  0
  6 10  1  0  0  0
 52 51  1  0  0  0
 12 11  1  0  0  0
 11 10  1  0  0  0
 11 13  2  0  0  0
 10 16  1  0  0  0
 16 17  1  0  0  0
 17 19  1  0  0  0
 19 20  2  0  0  0
 19 18  1  0  0  0
 18 21  1  0  0  0
 12 14  1  0  0  0
 12 15  1  0  0  0
  6  9  1  0  0  0
 25 27  1  0  0  0
  1  4  1  0  0  0
 31 34  1  0  0  0
 32 35  1  0  0  0
M  END
> <minimizedAffinity>
-10.38652

$$$$
5D3C_56O_A_306


 54 56  0  0  0  0  0  0  0  0999 V2000
    8.5766   27.1785    2.2672 N   0  0  0  0  0  0  0  0  0  0  0  0
    9.1304   27.7058    3.3413 C   0  0  0  0  0  0  0  0  0  0  0  0
    9.8323   28.6947    3.3180 O   0  0  0  0  0  0  0  0  0  0  0  0
    8.0189   26.3706    2.3413 H   0  0  0  0  0  0  0  0  0  0  0  0
    8.7963   27.7985    0.9786 C   0  0  0  0  0  0  0  0  0  0  0  0
    8.2579   30.0876    1.1937 N   0  0  0  0  0  0  0  0  0  0  0  0
    7.8736   28.9310    0.6778 C   0  0  0  0  0  0  0  0  0  0  0  0
    6.8645   28.7820    0.0154 O   0  0  0  0  0  0  0  0  0  0  0  0
    9.0836   30.1322    1.7280 H   0  0  0  0  0  0  0  0  0  0  0  0
    7.4786   31.2858    0.9813 C   0  0  0  0  0  0  0  0  0  0  0  0
    8.3759   32.3820    0.4964 C   0  0  0  0  0  0  0  0  0  0  0  0
    9.5465   32.0088   -0.0115 N   0  0  0  0  0  0  0  0  0  0  0  0
    8.0180   33.5431    0.5569 O   0  0  0  0  0  0  0  0  0  0  0  0
    9.7901   31.0552   -0.0379 H   0  0  0  0  0  0  0  0  0  0  0  0
   10.1698   32.6859   -0.3612 H   0  0  0  0  0  0  0  0  0  0  0  0
    6.7959   31.6879    2.2808 C   0  0  0  0  0  0  0  0  0  0  0  0
    7.3386   30.8930    3.4599 C   0  0  0  0  0  0  0  0  0  0  0  0
    9.1215   31.1884    4.9979 O   0  0  0  0  0  0  0  0  0  0  0  0
    8.3247   31.7475    4.2161 C   0  0  0  0  0  0  0  0  0  0  0  0
    8.3005   32.9837    4.0301 O   0  0  0  0  0  0  0  0  0  0  0  0
    9.0998   30.2575    5.1024 H   0  0  0  0  0  0  0  0  0  0  0  0
    8.7211   26.7357   -0.1107 C   0  0  0  0  0  0  0  0  0  0  0  0
    9.9693   25.8588   -0.1279 C   0  0  0  0  0  0  0  0  0  0  0  0
    9.6104   24.4096   -0.3544 C   0  0  0  0  0  0  0  0  0  0  0  0
    9.0820   23.7765    0.5767 O   0  0  0  0  0  0  0  0  0  0  0  0
    9.8480   23.9022   -1.4659 O   0  0  0  0  0  0  0  0  0  0  0  0
    8.9210   24.1982    1.3978 H   0  0  0  0  0  0  0  0  0  0  0  0
    8.8969   26.9638    4.6050 C   0  0  0  0  0  0  0  0  0  0  0  0
    7.4582   27.3668    4.9378 C   0  0  0  0  0  0  0  0  0  0  0  0
    7.4646   28.3735    6.0627 C   0  0  0  0  0  0  0  0  0  0  0  0
    8.6568   28.7071    6.5293 N   0  0  0  0  0  0  0  0  0  0  0  0
    8.7119   29.6450    7.5499 O   0  0  0  0  0  0  0  0  0  0  0  0
    6.4355   28.8566    6.4831 O   0  0  0  0  0  0  0  0  0  0  0  0
    9.4773   28.3034    6.1644 H   0  0  0  0  0  0  0  0  0  0  0  0
    7.8126   29.9284    7.7775 H   0  0  0  0  0  0  0  0  0  0  0  0
    9.0287   25.4537    4.4085 C   0  0  0  0  0  0  0  0  0  0  0  0
    6.5753   24.8110    5.1484 C   0  0  0  0  0  0  0  0  0  0  0  0
    7.8448   24.6006    4.7749 C   0  0  0  0  0  0  0  0  0  0  0  0
    8.0862   23.3017    4.6813 O   0  0  0  0  0  0  0  0  0  0  0  0
    6.9014   22.6305    5.0534 N   0  0  0  0  0  0  0  0  0  0  0  0
    6.0048   23.5435    5.3189 C   0  0  0  0  0  0  0  0  0  0  0  0
    3.1149   21.9329    7.1267 C   0  0  0  0  0  0  0  0  0  0  0  0
    4.3899   22.2619    6.7267 C   0  0  0  0  0  0  0  0  0  0  0  0
    2.2277   23.5156    5.5523 C   0  0  0  0  0  0  0  0  0  0  0  0
    4.6142   23.2071    5.7436 C   0  0  0  0  0  0  0  0  0  0  0  0
    3.5232   23.8402    5.1546 C   0  0  0  0  0  0  0  0  0  0  0  0
    2.0343   22.5598    6.5403 C   0  0  0  0  0  0  0  0  0  0  0  0
    0.6919   22.1603    7.0166 C   0  0  0  0  0  0  0  0  0  0  0  0
   -0.4081   22.9444    6.7410 C   0  0  0  0  0  0  0  0  0  0  0  0
    0.5507   20.9982    7.7626 C   0  0  0  0  0  0  0  0  0  0  0  0
   -0.6932   20.6036    8.2284 C   0  0  0  0  0  0  0  0  0  0  0  0
   -1.7997   21.3864    7.9493 C   0  0  0  0  0  0  0  0  0  0  0  0
   -1.6479   22.5467    7.2097 C   0  0  0  0  0  0  0  0  0  0  0  0
   -3.0191   23.5322    6.8581 Cl  0  0  0  0  0  0  0  0  0  0  0  0
 32 31  1  0  0  0
 33 30  2  0  0  0
 31 30  1  0  0  0
 30 29  1  0  0  0
 26 24  2  0  0  0
 29 28  1  0  0  0
 24 25  1  0  0  0
 24 23  1  0  0  0
 28 36  1  0  0  0
 28  2  1  0  0  0
 23 22  1  0  0  0
 36 38  1  0  0  0
  1  2  1  0  0  0
  1  5  1  0  0  0
  2  3  2  0  0  0
 37 38  2  0  0  0
 37 41  1  0  0  0
 22  5  1  0  0  0
 38 39  1  0  0  0
  5  7  1  0  0  0
 46 44  2  0  0  0
 46 45  1  0  0  0
 44 47  1  0  0  0
 41 45  1  0  0  0
 41 40  2  0  0  0
 39 40  1  0  0  0
 45 43  2  0  0  0
  8  7  2  0  0  0
  7  6  1  0  0  0
 47 48  1  0  0  0
 47 42  2  0  0  0
 49 48  2  0  0  0
 49 53  1  0  0  0
 48 50  1  0  0  0
 43 42  1  0  0  0
 54 53  1  0  0  0
 53 52  2  0  0  0
 50 51  2  0  0  0
  6 10  1  0  0  0
 52 51  1  0  0  0
 12 11  1  0  0  0
 11 10  1  0  0  0
 11 13  2  0  0  0
 10 16  1  0  0  0
 16 17  1  0  0  0
 17 19  1  0  0  0
 19 20  2  0  0  0
 19 18  1  0  0  0
 18 21  1  0  0  0
 12 14  1  0  0  0
 12 15  1  0  0  0
  6  9  1  0  0  0
 25 27  1  0  0  0
  1  4  1  0  0  0
 31 34  1  0  0  0
 32 35  1  0  0  0
M  END
> <minimizedAffinity>
-10.08265

$$$$
5D3C_56O_A_306


 54 56  0  0  0  0  0  0  0  0999 V2000
    7.8831   29.1992    3.6999 N   0  0  0  0  0  0  0  0  0  0  0  0
    8.8518   28.5766    3.0578 C   0  0  0  0  0  0  0  0  0  0  0  0
    9.8839   29.1139    2.7153 O   0  0  0  0  0  0  0  0  0  0  0  0
    7.0624   28.7165    3.9503 H   0  0  0  0  0  0  0  0  0  0  0  0
    8.0378   30.5986    4.0330 C   0  0  0  0  0  0  0  0  0  0  0  0
    8.1192   30.1805    6.3557 N   0  0  0  0  0  0  0  0  0  0  0  0
    7.5997   30.9521    5.4142 C   0  0  0  0  0  0  0  0  0  0  0  0
    6.8336   31.8712    5.6322 O   0  0  0  0  0  0  0  0  0  0  0  0
    8.7269   29.4478    6.1044 H   0  0  0  0  0  0  0  0  0  0  0  0
    7.8042   30.4020    7.7484 C   0  0  0  0  0  0  0  0  0  0  0  0
    9.0452   30.8119    8.4789 C   0  0  0  0  0  0  0  0  0  0  0  0
    9.6294   29.8791    9.2248 N   0  0  0  0  0  0  0  0  0  0  0  0
    9.4853   31.9399    8.3611 O   0  0  0  0  0  0  0  0  0  0  0  0
    9.2335   28.9799    9.2879 H   0  0  0  0  0  0  0  0  0  0  0  0
   10.4579   30.0876    9.7141 H   0  0  0  0  0  0  0  0  0  0  0  0
    7.2245   29.1294    8.3494 C   0  0  0  0  0  0  0  0  0  0  0  0
    6.0462   29.4359    9.2627 C   0  0  0  0  0  0  0  0  0  0  0  0
    5.4879   29.0464   11.5361 O   0  0  0  0  0  0  0  0  0  0  0  0
    6.3740   28.9719   10.6598 C   0  0  0  0  0  0  0  0  0  0  0  0
    7.5237   28.5340   10.8830 O   0  0  0  0  0  0  0  0  0  0  0  0
    4.6408   29.3824   11.3183 H   0  0  0  0  0  0  0  0  0  0  0  0
    7.3053   31.4459    2.9998 C   0  0  0  0  0  0  0  0  0  0  0  0
    8.2784   32.1920    2.0924 C   0  0  0  0  0  0  0  0  0  0  0  0
    8.3324   31.5620    0.7211 C   0  0  0  0  0  0  0  0  0  0  0  0
    9.2789   30.8005    0.4547 O   0  0  0  0  0  0  0  0  0  0  0  0
    7.4247   31.8200   -0.0908 O   0  0  0  0  0  0  0  0  0  0  0  0
    9.9412   30.6340    1.0963 H   0  0  0  0  0  0  0  0  0  0  0  0
    8.5741   27.1615    2.7078 C   0  0  0  0  0  0  0  0  0  0  0  0
    9.4648   26.9674    1.4782 C   0  0  0  0  0  0  0  0  0  0  0  0
    8.8541   25.9247    0.5734 C   0  0  0  0  0  0  0  0  0  0  0  0
    9.4838   25.7164   -0.5714 N   0  0  0  0  0  0  0  0  0  0  0  0
    8.9694   24.7519   -1.4255 O   0  0  0  0  0  0  0  0  0  0  0  0
    7.8641   25.3067    0.9010 O   0  0  0  0  0  0  0  0  0  0  0  0
   10.2902   26.2287   -0.8091 H   0  0  0  0  0  0  0  0  0  0  0  0
    8.1792   24.3552   -1.0267 H   0  0  0  0  0  0  0  0  0  0  0  0
    8.9609   26.2109    3.8404 C   0  0  0  0  0  0  0  0  0  0  0  0
    6.6572   25.2925    4.7513 C   0  0  0  0  0  0  0  0  0  0  0  0
    7.9204   25.2301    4.3085 C   0  0  0  0  0  0  0  0  0  0  0  0
    8.3229   23.9698    4.2464 O   0  0  0  0  0  0  0  0  0  0  0  0
    7.2582   23.1695    4.7138 N   0  0  0  0  0  0  0  0  0  0  0  0
    6.2668   23.9711    5.0011 C   0  0  0  0  0  0  0  0  0  0  0  0
    2.5538   23.5483    5.4998 C   0  0  0  0  0  0  0  0  0  0  0  0
    3.7705   23.9846    5.0275 C   0  0  0  0  0  0  0  0  0  0  0  0
    3.6880   22.0524    6.9987 C   0  0  0  0  0  0  0  0  0  0  0  0
    4.9577   23.4784    5.5218 C   0  0  0  0  0  0  0  0  0  0  0  0
    4.9144   22.5024    6.5134 C   0  0  0  0  0  0  0  0  0  0  0  0
    2.5124   22.5823    6.4845 C   0  0  0  0  0  0  0  0  0  0  0  0
    1.1728   22.1577    6.9469 C   0  0  0  0  0  0  0  0  0  0  0  0
    0.0506   22.8709    6.5827 C   0  0  0  0  0  0  0  0  0  0  0  0
    1.0560   21.0455    7.7692 C   0  0  0  0  0  0  0  0  0  0  0  0
   -0.1850   20.6294    8.2238 C   0  0  0  0  0  0  0  0  0  0  0  0
   -1.3136   21.3407    7.8561 C   0  0  0  0  0  0  0  0  0  0  0  0
   -1.1864   22.4521    7.0406 C   0  0  0  0  0  0  0  0  0  0  0  0
   -2.5854   23.3485    6.5781 Cl  0  0  0  0  0  0  0  0  0  0  0  0
 32 31  1  0  0  0
 33 30  2  0  0  0
 31 30  1  0  0  0
 30 29  1  0  0  0
 26 24  2  0  0  0
 29 28  1  0  0  0
 24 25  1  0  0  0
 24 23  1  0  0  0
 28 36  1  0  0  0
 28  2  1  0  0  0
 23 22  1  0  0  0
 36 38  1  0  0  0
  1  2  1  0  0  0
  1  5  1  0  0  0
  2  3  2  0  0  0
 37 38  2  0  0  0
 37 41  1  0  0  0
 22  5  1  0  0  0
 38 39  1  0  0  0
  5  7  1  0  0  0
 46 44  2  0  0  0
 46 45  1  0  0  0
 44 47  1  0  0  0
 41 45  1  0  0  0
 41 40  2  0  0  0
 39 40  1  0  0  0
 45 43  2  0  0  0
  8  7  2  0  0  0
  7  6  1  0  0  0
 47 48  1  0  0  0
 47 42  2  0  0  0
 49 48  2  0  0  0
 49 53  1  0  0  0
 48 50  1  0  0  0
 43 42  1  0  0  0
 54 53  1  0  0  0
 53 52  2  0  0  0
 50 51  2  0  0  0
  6 10  1  0  0  0
 52 51  1  0  0  0
 12 11  1  0  0  0
 11 10  1  0  0  0
 11 13  2  0  0  0
 10 16  1  0  0  0
 16 17  1  0  0  0
 17 19  1  0  0  0
 19 20  2  0  0  0
 19 18  1  0  0  0
 18 21  1  0  0  0
 12 14  1  0  0  0
 12 15  1  0  0  0
  6  9  1  0  0  0
 25 27  1  0  0  0
  1  4  1  0  0  0
 31 34  1  0  0  0
 32 35  1  0  0  0
M  END
> <minimizedAffinity>
-10.03151

$$$$
5D3C_56O_A_306


 54 56  0  0  0  0  0  0  0  0999 V2000
    9.4532   29.0746    2.4817 N   0  0  0  0  0  0  0  0  0  0  0  0
    8.8191   27.9633    2.8000 C   0  0  0  0  0  0  0  0  0  0  0  0
    7.9560   27.4618    2.1111 O   0  0  0  0  0  0  0  0  0  0  0  0
   10.1430   29.4421    3.0803 H   0  0  0  0  0  0  0  0  0  0  0  0
    9.1255   29.7487    1.2442 C   0  0  0  0  0  0  0  0  0  0  0  0
    9.2426   28.3202   -0.6325 N   0  0  0  0  0  0  0  0  0  0  0  0
    9.8802   29.2526    0.0573 C   0  0  0  0  0  0  0  0  0  0  0  0
   10.9811   29.6811   -0.2320 O   0  0  0  0  0  0  0  0  0  0  0  0
    8.3557   28.0146   -0.3339 H   0  0  0  0  0  0  0  0  0  0  0  0
    9.8342   27.7461   -1.8192 C   0  0  0  0  0  0  0  0  0  0  0  0
    9.1971   28.3487   -3.0328 C   0  0  0  0  0  0  0  0  0  0  0  0
    9.5647   27.8452   -4.2071 N   0  0  0  0  0  0  0  0  0  0  0  0
    8.3738   29.2371   -2.9195 O   0  0  0  0  0  0  0  0  0  0  0  0
   10.2359   27.1260   -4.2460 H   0  0  0  0  0  0  0  0  0  0  0  0
    9.1656   28.1915   -5.0378 H   0  0  0  0  0  0  0  0  0  0  0  0
    9.6411   26.2364   -1.8067 C   0  0  0  0  0  0  0  0  0  0  0  0
    9.9035   25.6565   -0.4241 C   0  0  0  0  0  0  0  0  0  0  0  0
    9.0994   23.6396    0.5335 O   0  0  0  0  0  0  0  0  0  0  0  0
    9.6426   24.1715   -0.4568 C   0  0  0  0  0  0  0  0  0  0  0  0
    9.9854   23.5331   -1.4757 O   0  0  0  0  0  0  0  0  0  0  0  0
    8.8610   24.1621    1.2740 H   0  0  0  0  0  0  0  0  0  0  0  0
    9.3217   31.2494    1.4213 C   0  0  0  0  0  0  0  0  0  0  0  0
    8.3469   31.8274    2.4424 C   0  0  0  0  0  0  0  0  0  0  0  0
    6.9261   31.4299    2.1206 C   0  0  0  0  0  0  0  0  0  0  0  0
    6.5074   30.3351    2.5365 O   0  0  0  0  0  0  0  0  0  0  0  0
    6.2219   32.2141    1.4584 O   0  0  0  0  0  0  0  0  0  0  0  0
    7.0721   29.7750    3.0318 H   0  0  0  0  0  0  0  0  0  0  0  0
    9.1815   27.3805    4.1158 C   0  0  0  0  0  0  0  0  0  0  0  0
    7.9330   27.6912    4.9450 C   0  0  0  0  0  0  0  0  0  0  0  0
    8.1443   28.9739    5.7123 C   0  0  0  0  0  0  0  0  0  0  0  0
    8.3600   28.8388    7.0106 N   0  0  0  0  0  0  0  0  0  0  0  0
    8.5799   29.9903    7.7523 O   0  0  0  0  0  0  0  0  0  0  0  0
    8.1402   30.0505    5.1552 O   0  0  0  0  0  0  0  0  0  0  0  0
    8.3643   27.9510    7.4360 H   0  0  0  0  0  0  0  0  0  0  0  0
    8.5390   30.7637    7.1684 H   0  0  0  0  0  0  0  0  0  0  0  0
    9.4349   25.8763    4.0193 C   0  0  0  0  0  0  0  0  0  0  0  0
    7.0603   25.0949    4.8738 C   0  0  0  0  0  0  0  0  0  0  0  0
    8.3120   24.9569    4.4160 C   0  0  0  0  0  0  0  0  0  0  0  0
    8.6004   23.6751    4.2485 O   0  0  0  0  0  0  0  0  0  0  0  0
    7.4694   22.9370    4.6593 N   0  0  0  0  0  0  0  0  0  0  0  0
    6.5541   23.7974    5.0196 C   0  0  0  0  0  0  0  0  0  0  0  0
    2.8129   23.5973    5.4405 C   0  0  0  0  0  0  0  0  0  0  0  0
    4.0631   23.9617    4.9955 C   0  0  0  0  0  0  0  0  0  0  0  0
    3.8237   22.0280    6.9525 C   0  0  0  0  0  0  0  0  0  0  0  0
    5.2072   23.3821    5.5105 C   0  0  0  0  0  0  0  0  0  0  0  0
    5.0847   22.4055    6.4950 C   0  0  0  0  0  0  0  0  0  0  0  0
    2.6931   22.6306    6.4180 C   0  0  0  0  0  0  0  0  0  0  0  0
    1.3211   22.2854    6.8506 C   0  0  0  0  0  0  0  0  0  0  0  0
    0.2558   23.0859    6.4968 C   0  0  0  0  0  0  0  0  0  0  0  0
    1.1164   21.1583    7.6346 C   0  0  0  0  0  0  0  0  0  0  0  0
   -0.1565   20.8150    8.0609 C   0  0  0  0  0  0  0  0  0  0  0  0
   -1.2282   21.6142    7.7035 C   0  0  0  0  0  0  0  0  0  0  0  0
   -1.0133   22.7395    6.9263 C   0  0  0  0  0  0  0  0  0  0  0  0
   -2.3407   23.7450    6.4770 Cl  0  0  0  0  0  0  0  0  0  0  0  0
 32 31  1  0  0  0
 33 30  2  0  0  0
 31 30  1  0  0  0
 30 29  1  0  0  0
 26 24  2  0  0  0
 29 28  1  0  0  0
 24 25  1  0  0  0
 24 23  1  0  0  0
 28 36  1  0  0  0
 28  2  1  0  0  0
 23 22  1  0  0  0
 36 38  1  0  0  0
  1  2  1  0  0  0
  1  5  1  0  0  0
  2  3  2  0  0  0
 37 38  2  0  0  0
 37 41  1  0  0  0
 22  5  1  0  0  0
 38 39  1  0  0  0
  5  7  1  0  0  0
 46 44  2  0  0  0
 46 45  1  0  0  0
 44 47  1  0  0  0
 41 45  1  0  0  0
 41 40  2  0  0  0
 39 40  1  0  0  0
 45 43  2  0  0  0
  8  7  2  0  0  0
  7  6  1  0  0  0
 47 48  1  0  0  0
 47 42  2  0  0  0
 49 48  2  0  0  0
 49 53  1  0  0  0
 48 50  1  0  0  0
 43 42  1  0  0  0
 54 53  1  0  0  0
 53 52  2  0  0  0
 50 51  2  0  0  0
  6 10  1  0  0  0
 52 51  1  0  0  0
 12 11  1  0  0  0
 11 10  1  0  0  0
 11 13  2  0  0  0
 10 16  1  0  0  0
 16 17  1  0  0  0
 17 19  1  0  0  0
 19 20  2  0  0  0
 19 18  1  0  0  0
 18 21  1  0  0  0
 12 14  1  0  0  0
 12 15  1  0  0  0
  6  9  1  0  0  0
 25 27  1  0  0  0
  1  4  1  0  0  0
 31 34  1  0  0  0
 32 35  1  0  0  0
M  END
> <minimizedAffinity>
-9.86049

$$$$
5D3C_56O_A_306


 54 56  0  0  0  0  0  0  0  0999 V2000
    9.1680   28.4007    2.6693 N   0  0  0  0  0  0  0  0  0  0  0  0
    8.6237   27.7940    1.6330 C   0  0  0  0  0  0  0  0  0  0  0  0
    8.0190   28.3747    0.7565 O   0  0  0  0  0  0  0  0  0  0  0  0
    9.6441   27.8803    3.3562 H   0  0  0  0  0  0  0  0  0  0  0  0
    9.0588   29.8385    2.7875 C   0  0  0  0  0  0  0  0  0  0  0  0
   10.3800   30.5616    0.9688 N   0  0  0  0  0  0  0  0  0  0  0  0
   10.2471   30.5869    2.2854 C   0  0  0  0  0  0  0  0  0  0  0  0
   11.0116   31.1619    3.0365 O   0  0  0  0  0  0  0  0  0  0  0  0
    9.7265   30.0676    0.4228 H   0  0  0  0  0  0  0  0  0  0  0  0
   11.4739   31.2513    0.3241 C   0  0  0  0  0  0  0  0  0  0  0  0
   11.0685   32.6632    0.0341 C   0  0  0  0  0  0  0  0  0  0  0  0
   10.1217   32.8313   -0.8840 N   0  0  0  0  0  0  0  0  0  0  0  0
   11.5805   33.5874    0.6371 O   0  0  0  0  0  0  0  0  0  0  0  0
    9.7385   32.0502   -1.3447 H   0  0  0  0  0  0  0  0  0  0  0  0
    9.8038   33.7369   -1.1031 H   0  0  0  0  0  0  0  0  0  0  0  0
   11.8478   30.5266   -0.9610 C   0  0  0  0  0  0  0  0  0  0  0  0
   11.0746   29.2237   -1.1065 C   0  0  0  0  0  0  0  0  0  0  0  0
    8.9540   28.6609   -2.0109 O   0  0  0  0  0  0  0  0  0  0  0  0
    9.9313   29.4358   -2.0670 C   0  0  0  0  0  0  0  0  0  0  0  0
   10.0121   30.3792   -2.8835 O   0  0  0  0  0  0  0  0  0  0  0  0
    8.9409   27.9682   -1.3801 H   0  0  0  0  0  0  0  0  0  0  0  0
    8.7627   30.2033    4.2370 C   0  0  0  0  0  0  0  0  0  0  0  0
    7.5990   29.3902    4.7952 C   0  0  0  0  0  0  0  0  0  0  0  0
    8.0679   28.4414    5.8723 C   0  0  0  0  0  0  0  0  0  0  0  0
    9.1823   27.9039    5.7456 O   0  0  0  0  0  0  0  0  0  0  0  0
    7.3276   28.2371    6.8519 O   0  0  0  0  0  0  0  0  0  0  0  0
    9.7074   28.0862    4.9913 H   0  0  0  0  0  0  0  0  0  0  0  0
    8.7362   26.3143    1.6328 C   0  0  0  0  0  0  0  0  0  0  0  0
    9.8494   26.0898    0.6065 C   0  0  0  0  0  0  0  0  0  0  0  0
    9.4900   24.9212   -0.2789 C   0  0  0  0  0  0  0  0  0  0  0  0
    9.7051   25.0925   -1.5730 N   0  0  0  0  0  0  0  0  0  0  0  0
    9.4085   24.0367   -2.4226 O   0  0  0  0  0  0  0  0  0  0  0  0
    9.0575   23.8880    0.1845 O   0  0  0  0  0  0  0  0  0  0  0  0
   10.0636   25.9406   -1.9214 H   0  0  0  0  0  0  0  0  0  0  0  0
    9.0684   23.2905   -1.9045 H   0  0  0  0  0  0  0  0  0  0  0  0
    9.1212   25.7747    3.0101 C   0  0  0  0  0  0  0  0  0  0  0  0
    6.7757   25.0288    3.9705 C   0  0  0  0  0  0  0  0  0  0  0  0
    8.0949   24.9575    3.7465 C   0  0  0  0  0  0  0  0  0  0  0  0
    8.5951   23.8622    4.2984 O   0  0  0  0  0  0  0  0  0  0  0  0
    7.5317   23.2022    4.9511 N   0  0  0  0  0  0  0  0  0  0  0  0
    6.4499   23.9037    4.7378 C   0  0  0  0  0  0  0  0  0  0  0  0
    3.7893   22.1681    6.7683 C   0  0  0  0  0  0  0  0  0  0  0  0
    5.0120   22.5521    6.2669 C   0  0  0  0  0  0  0  0  0  0  0  0
    2.7092   23.7128    5.2791 C   0  0  0  0  0  0  0  0  0  0  0  0
    5.1143   23.5072    5.2732 C   0  0  0  0  0  0  0  0  0  0  0  0
    3.9527   24.0933    4.7783 C   0  0  0  0  0  0  0  0  0  0  0  0
    2.6385   22.7484    6.2752 C   0  0  0  0  0  0  0  0  0  0  0  0
    1.3579   22.2909    6.8577 C   0  0  0  0  0  0  0  0  0  0  0  0
    0.1725   22.8970    6.4996 C   0  0  0  0  0  0  0  0  0  0  0  0
    1.3609   21.2583    7.7854 C   0  0  0  0  0  0  0  0  0  0  0  0
    0.1775   20.8145    8.3533 C   0  0  0  0  0  0  0  0  0  0  0  0
   -1.0143   21.4180    7.9922 C   0  0  0  0  0  0  0  0  0  0  0  0
   -1.0064   22.4510    7.0708 C   0  0  0  0  0  0  0  0  0  0  0  0
   -2.4852   23.2130    6.6151 Cl  0  0  0  0  0  0  0  0  0  0  0  0
 32 31  1  0  0  0
 33 30  2  0  0  0
 31 30  1  0  0  0
 30 29  1  0  0  0
 26 24  2  0  0  0
 29 28  1  0  0  0
 24 25  1  0  0  0
 24 23  1  0  0  0
 28 36  1  0  0  0
 28  2  1  0  0  0
 23 22  1  0  0  0
 36 38  1  0  0  0
  1  2  1  0  0  0
  1  5  1  0  0  0
  2  3  2  0  0  0
 37 38  2  0  0  0
 37 41  1  0  0  0
 22  5  1  0  0  0
 38 39  1  0  0  0
  5  7  1  0  0  0
 46 44  2  0  0  0
 46 45  1  0  0  0
 44 47  1  0  0  0
 41 45  1  0  0  0
 41 40  2  0  0  0
 39 40  1  0  0  0
 45 43  2  0  0  0
  8  7  2  0  0  0
  7  6  1  0  0  0
 47 48  1  0  0  0
 47 42  2  0  0  0
 49 48  2  0  0  0
 49 53  1  0  0  0
 48 50  1  0  0  0
 43 42  1  0  0  0
 54 53  1  0  0  0
 53 52  2  0  0  0
 50 51  2  0  0  0
  6 10  1  0  0  0
 52 51  1  0  0  0
 12 11  1  0  0  0
 11 10  1  0  0  0
 11 13  2  0  0  0
 10 16  1  0  0  0
 16 17  1  0  0  0
 17 19  1  0  0  0
 19 20  2  0  0  0
 19 18  1  0  0  0
 18 21  1  0  0  0
 12 14  1  0  0  0
 12 15  1  0  0  0
  6  9  1  0  0  0
 25 27  1  0  0  0
  1  4  1  0  0  0
 31 34  1  0  0  0
 32 35  1  0  0  0
M  END
> <minimizedAffinity>
-9.83669

$$$$
5D3C_56O_A_306


 54 56  0  0  0  0  0  0  0  0999 V2000
    9.2311   28.3604    2.6146 N   0  0  0  0  0  0  0  0  0  0  0  0
    8.5561   27.8431    1.6071 C   0  0  0  0  0  0  0  0  0  0  0  0
    7.7804   28.4767    0.9230 O   0  0  0  0  0  0  0  0  0  0  0  0
    9.8450   27.7995    3.1417 H   0  0  0  0  0  0  0  0  0  0  0  0
    9.0611   29.7603    2.9383 C   0  0  0  0  0  0  0  0  0  0  0  0
   10.1211   30.8966    1.1603 N   0  0  0  0  0  0  0  0  0  0  0  0
   10.1660   30.6392    2.4578 C   0  0  0  0  0  0  0  0  0  0  0  0
   11.0204   31.0698    3.2087 O   0  0  0  0  0  0  0  0  0  0  0  0
    9.4036   30.5059    0.6109 H   0  0  0  0  0  0  0  0  0  0  0  0
   11.1137   31.7449    0.5414 C   0  0  0  0  0  0  0  0  0  0  0  0
   10.4329   32.7356   -0.3514 C   0  0  0  0  0  0  0  0  0  0  0  0
   11.1898   33.7160   -0.8347 N   0  0  0  0  0  0  0  0  0  0  0  0
    9.2529   32.6134   -0.6204 O   0  0  0  0  0  0  0  0  0  0  0  0
   12.1409   33.7716   -0.5866 H   0  0  0  0  0  0  0  0  0  0  0  0
   10.7991   34.3865   -1.4406 H   0  0  0  0  0  0  0  0  0  0  0  0
   12.0912   30.8909   -0.2534 C   0  0  0  0  0  0  0  0  0  0  0  0
   13.3826   30.6639    0.5196 C   0  0  0  0  0  0  0  0  0  0  0  0
   13.8120   32.0145    2.4230 O   0  0  0  0  0  0  0  0  0  0  0  0
   13.7960   31.9572    1.1759 C   0  0  0  0  0  0  0  0  0  0  0  0
   14.1030   32.9214    0.4415 O   0  0  0  0  0  0  0  0  0  0  0  0
   13.5729   31.2633    2.9296 H   0  0  0  0  0  0  0  0  0  0  0  0
    8.8668   29.9091    4.4423 C   0  0  0  0  0  0  0  0  0  0  0  0
    7.3970   29.7920    4.8337 C   0  0  0  0  0  0  0  0  0  0  0  0
    7.1965   28.7123    5.8702 C   0  0  0  0  0  0  0  0  0  0  0  0
    6.8556   27.5789    5.4882 O   0  0  0  0  0  0  0  0  0  0  0  0
    7.3870   28.9917    7.0681 O   0  0  0  0  0  0  0  0  0  0  0  0
    6.7228   27.4123    4.5758 H   0  0  0  0  0  0  0  0  0  0  0  0
    8.7517   26.3878    1.3928 C   0  0  0  0  0  0  0  0  0  0  0  0
    9.7724   26.3785    0.2522 C   0  0  0  0  0  0  0  0  0  0  0  0
    9.5528   25.1592   -0.6102 C   0  0  0  0  0  0  0  0  0  0  0  0
   10.0392   24.0239   -0.1359 N   0  0  0  0  0  0  0  0  0  0  0  0
    9.8427   22.8735   -0.8857 O   0  0  0  0  0  0  0  0  0  0  0  0
    8.9439   25.2273   -1.6561 O   0  0  0  0  0  0  0  0  0  0  0  0
   10.5244   23.9965    0.7203 H   0  0  0  0  0  0  0  0  0  0  0  0
    9.3487   23.0929   -1.6911 H   0  0  0  0  0  0  0  0  0  0  0  0
    9.2968   25.6987    2.6435 C   0  0  0  0  0  0  0  0  0  0  0  0
    6.9958   24.9227    3.6842 C   0  0  0  0  0  0  0  0  0  0  0  0
    8.3218   24.9282    3.4915 C   0  0  0  0  0  0  0  0  0  0  0  0
    8.8953   23.9839    4.2222 O   0  0  0  0  0  0  0  0  0  0  0  0
    7.8726   23.3512    4.9613 N   0  0  0  0  0  0  0  0  0  0  0  0
    6.7430   23.9141    4.6221 C   0  0  0  0  0  0  0  0  0  0  0  0
    3.0386   23.7260    5.2973 C   0  0  0  0  0  0  0  0  0  0  0  0
    4.2574   24.0909    4.7725 C   0  0  0  0  0  0  0  0  0  0  0  0
    4.1421   22.1295    6.7130 C   0  0  0  0  0  0  0  0  0  0  0  0
    5.4308   23.4981    5.1988 C   0  0  0  0  0  0  0  0  0  0  0  0
    5.3707   22.5076    6.1750 C   0  0  0  0  0  0  0  0  0  0  0  0
    2.9808   22.7455    6.2666 C   0  0  0  0  0  0  0  0  0  0  0  0
    1.6399   22.4006    6.7878 C   0  0  0  0  0  0  0  0  0  0  0  0
    0.5461   23.1760    6.4671 C   0  0  0  0  0  0  0  0  0  0  0  0
    1.4944   21.2999    7.6210 C   0  0  0  0  0  0  0  0  0  0  0  0
    0.2520   20.9578    8.1302 C   0  0  0  0  0  0  0  0  0  0  0  0
   -0.8485   21.7317    7.8063 C   0  0  0  0  0  0  0  0  0  0  0  0
   -0.6923   22.8309    6.9795 C   0  0  0  0  0  0  0  0  0  0  0  0
   -2.0559   23.8050    6.5711 Cl  0  0  0  0  0  0  0  0  0  0  0  0
 32 31  1  0  0  0
 33 30  2  0  0  0
 31 30  1  0  0  0
 30 29  1  0  0  0
 26 24  2  0  0  0
 29 28  1  0  0  0
 24 25  1  0  0  0
 24 23  1  0  0  0
 28 36  1  0  0  0
 28  2  1  0  0  0
 23 22  1  0  0  0
 36 38  1  0  0  0
  1  2  1  0  0  0
  1  5  1  0  0  0
  2  3  2  0  0  0
 37 38  2  0  0  0
 37 41  1  0  0  0
 22  5  1  0  0  0
 38 39  1  0  0  0
  5  7  1  0  0  0
 46 44  2  0  0  0
 46 45  1  0  0  0
 44 47  1  0  0  0
 41 45  1  0  0  0
 41 40  2  0  0  0
 39 40  1  0  0  0
 45 43  2  0  0  0
  8  7  2  0  0  0
  7  6  1  0  0  0
 47 48  1  0  0  0
 47 42  2  0  0  0
 49 48  2  0  0  0
 49 53  1  0  0  0
 48 50  1  0  0  0
 43 42  1  0  0  0
 54 53  1  0  0  0
 53 52  2  0  0  0
 50 51  2  0  0  0
  6 10  1  0  0  0
 52 51  1  0  0  0
 12 11  1  0  0  0
 11 10  1  0  0  0
 11 13  2  0  0  0
 10 16  1  0  0  0
 16 17  1  0  0  0
 17 19  1  0  0  0
 19 20  2  0  0  0
 19 18  1  0  0  0
 18 21  1  0  0  0
 12 14  1  0  0  0
 12 15  1  0  0  0
  6  9  1  0  0  0
 25 27  1  0  0  0
  1  4  1  0  0  0
 31 34  1  0  0  0
 32 35  1  0  0  0
M  END
> <minimizedAffinity>
-9.80495

$$$$
5D3C_56O_A_306


 54 56  0  0  0  0  0  0  0  0999 V2000
   -3.4781   21.7433    7.8964 N   0  0  0  0  0  0  0  0  0  0  0  0
   -2.6635   21.3590    6.9336 C   0  0  0  0  0  0  0  0  0  0  0  0
   -2.9185   20.4642    6.1556 O   0  0  0  0  0  0  0  0  0  0  0  0
   -3.2193   22.4729    8.5047 H   0  0  0  0  0  0  0  0  0  0  0  0
   -4.7560   21.0826    8.0505 C   0  0  0  0  0  0  0  0  0  0  0  0
   -5.7306   22.7611    9.3955 N   0  0  0  0  0  0  0  0  0  0  0  0
   -5.8952   22.0065    8.3207 C   0  0  0  0  0  0  0  0  0  0  0  0
   -6.8770   22.0463    7.6040 O   0  0  0  0  0  0  0  0  0  0  0  0
   -4.9121   22.6687    9.9347 H   0  0  0  0  0  0  0  0  0  0  0  0
   -6.7392   23.7193    9.7860 C   0  0  0  0  0  0  0  0  0  0  0  0
   -6.2024   25.1056    9.6076 C   0  0  0  0  0  0  0  0  0  0  0  0
   -6.9374   26.0946   10.1068 N   0  0  0  0  0  0  0  0  0  0  0  0
   -5.1367   25.2865    9.0496 O   0  0  0  0  0  0  0  0  0  0  0  0
   -7.7939   25.8962   10.5498 H   0  0  0  0  0  0  0  0  0  0  0  0
   -6.6252   27.0254   10.0335 H   0  0  0  0  0  0  0  0  0  0  0  0
   -7.1357   23.4809   11.2360 C   0  0  0  0  0  0  0  0  0  0  0  0
   -5.9144   23.4361   12.1433 C   0  0  0  0  0  0  0  0  0  0  0  0
   -7.0943   21.8245   13.4246 O   0  0  0  0  0  0  0  0  0  0  0  0
   -6.2958   22.7839   13.4485 C   0  0  0  0  0  0  0  0  0  0  0  0
   -5.7976   23.2349   14.5028 O   0  0  0  0  0  0  0  0  0  0  0  0
   -7.4405   21.5233   12.6076 H   0  0  0  0  0  0  0  0  0  0  0  0
   -4.6471   20.0246    9.1417 C   0  0  0  0  0  0  0  0  0  0  0  0
   -5.8496   19.0859    9.1368 C   0  0  0  0  0  0  0  0  0  0  0  0
   -6.5161   19.0518   10.4913 C   0  0  0  0  0  0  0  0  0  0  0  0
   -7.0287   17.9851   10.8739 O   0  0  0  0  0  0  0  0  0  0  0  0
   -6.5220   20.0884   11.1803 O   0  0  0  0  0  0  0  0  0  0  0  0
   -7.0015   17.2280   10.3225 H   0  0  0  0  0  0  0  0  0  0  0  0
   -1.3533   22.0549    6.8953 C   0  0  0  0  0  0  0  0  0  0  0  0
   -1.5969   23.2237    7.8532 C   0  0  0  0  0  0  0  0  0  0  0  0
   -1.1444   24.5093    7.2043 C   0  0  0  0  0  0  0  0  0  0  0  0
   -2.0761   25.1815    6.5481 N   0  0  0  0  0  0  0  0  0  0  0  0
   -1.7099   26.3798    5.9529 O   0  0  0  0  0  0  0  0  0  0  0  0
   -0.0022   24.9013    7.3093 O   0  0  0  0  0  0  0  0  0  0  0  0
   -2.9982   24.8426    6.4843 H   0  0  0  0  0  0  0  0  0  0  0  0
   -0.7697   26.5499    6.1203 H   0  0  0  0  0  0  0  0  0  0  0  0
   -0.2184   21.1539    7.3816 C   0  0  0  0  0  0  0  0  0  0  0  0
    1.8197   22.3914    6.2438 C   0  0  0  0  0  0  0  0  0  0  0  0
    1.1908   21.6248    7.1450 C   0  0  0  0  0  0  0  0  0  0  0  0
    2.0430   21.2139    8.0720 O   0  0  0  0  0  0  0  0  0  0  0  0
    3.3131   21.7222    7.7242 N   0  0  0  0  0  0  0  0  0  0  0  0
    3.1630   22.4321    6.6372 C   0  0  0  0  0  0  0  0  0  0  0  0
    5.0943   24.7370    4.3631 C   0  0  0  0  0  0  0  0  0  0  0  0
    4.0605   24.0823    4.9929 C   0  0  0  0  0  0  0  0  0  0  0  0
    6.6678   23.5072    5.6981 C   0  0  0  0  0  0  0  0  0  0  0  0
    4.2984   23.1365    5.9722 C   0  0  0  0  0  0  0  0  0  0  0  0
    5.6132   22.8498    6.3284 C   0  0  0  0  0  0  0  0  0  0  0  0
    6.3972   24.4502    4.7158 C   0  0  0  0  0  0  0  0  0  0  0  0
    7.4604   25.1897    4.0008 C   0  0  0  0  0  0  0  0  0  0  0  0
    7.7776   24.8696    2.6978 C   0  0  0  0  0  0  0  0  0  0  0  0
    8.1522   26.1968    4.6597 C   0  0  0  0  0  0  0  0  0  0  0  0
    9.1580   26.9008    4.0175 C   0  0  0  0  0  0  0  0  0  0  0  0
    9.4754   26.5846    2.7083 C   0  0  0  0  0  0  0  0  0  0  0  0
    8.7840   25.5747    2.0614 C   0  0  0  0  0  0  0  0  0  0  0  0
    9.1726   25.1695    0.4305 Cl  0  0  0  0  0  0  0  0  0  0  0  0
 32 31  1  0  0  0
 33 30  2  0  0  0
 31 30  1  0  0  0
 30 29  1  0  0  0
 26 24  2  0  0  0
 29 28  1  0  0  0
 24 25  1  0  0  0
 24 23  1  0  0  0
 28 36  1  0  0  0
 28  2  1  0  0  0
 23 22  1  0  0  0
 36 38  1  0  0  0
  1  2  1  0  0  0
  1  5  1  0  0  0
  2  3  2  0  0  0
 37 38  2  0  0  0
 37 41  1  0  0  0
 22  5  1  0  0  0
 38 39  1  0  0  0
  5  7  1  0  0  0
 46 44  2  0  0  0
 46 45  1  0  0  0
 44 47  1  0  0  0
 41 45  1  0  0  0
 41 40  2  0  0  0
 39 40  1  0  0  0
 45 43  2  0  0  0
  8  7  2  0  0  0
  7  6  1  0  0  0
 47 48  1  0  0  0
 47 42  2  0  0  0
 49 48  2  0  0  0
 49 53  1  0  0  0
 48 50  1  0  0  0
 43 42  1  0  0  0
 54 53  1  0  0  0
 53 52  2  0  0  0
 50 51  2  0  0  0
  6 10  1  0  0  0
 52 51  1  0  0  0
 12 11  1  0  0  0
 11 10  1  0  0  0
 11 13  2  0  0  0
 10 16  1  0  0  0
 16 17  1  0  0  0
 17 19  1  0  0  0
 19 20  2  0  0  0
 19 18  1  0  0  0
 18 21  1  0  0  0
 12 14  1  0  0  0
 12 15  1  0  0  0
  6  9  1  0  0  0
 25 27  1  0  0  0
  1  4  1  0  0  0
 31 34  1  0  0  0
 32 35  1  0  0  0
M  END
> <minimizedAffinity>
-9.80265

$$$$
5D3C_56O_A_306


 54 56  0  0  0  0  0  0  0  0999 V2000
    9.6146   28.8039    1.8217 N   0  0  0  0  0  0  0  0  0  0  0  0
    8.7282   28.0787    2.4751 C   0  0  0  0  0  0  0  0  0  0  0  0
    7.6542   27.7551    2.0136 O   0  0  0  0  0  0  0  0  0  0  0  0
   10.4703   29.0433    2.2455 H   0  0  0  0  0  0  0  0  0  0  0  0
    9.3175   29.2445    0.4760 C   0  0  0  0  0  0  0  0  0  0  0  0
    9.6727   26.9767   -0.0780 N   0  0  0  0  0  0  0  0  0  0  0  0
    9.2342   28.1425   -0.5255 C   0  0  0  0  0  0  0  0  0  0  0  0
    8.7983   28.3218   -1.6467 O   0  0  0  0  0  0  0  0  0  0  0  0
   10.0207   26.9072    0.8403 H   0  0  0  0  0  0  0  0  0  0  0  0
    9.6462   25.8047   -0.9228 C   0  0  0  0  0  0  0  0  0  0  0  0
    9.3058   24.6041   -0.0954 C   0  0  0  0  0  0  0  0  0  0  0  0
    9.8912   23.4612   -0.4402 N   0  0  0  0  0  0  0  0  0  0  0  0
    8.5465   24.7025    0.8500 O   0  0  0  0  0  0  0  0  0  0  0  0
   10.4985   23.4333   -1.2145 H   0  0  0  0  0  0  0  0  0  0  0  0
    9.7175   22.6430    0.0789 H   0  0  0  0  0  0  0  0  0  0  0  0
   11.0015   25.6270   -1.5922 C   0  0  0  0  0  0  0  0  0  0  0  0
   10.8522   25.3795   -3.0866 C   0  0  0  0  0  0  0  0  0  0  0  0
   11.2280   23.0411   -3.2350 O   0  0  0  0  0  0  0  0  0  0  0  0
   11.6816   24.1800   -3.4710 C   0  0  0  0  0  0  0  0  0  0  0  0
   12.7932   24.3773   -4.0082 O   0  0  0  0  0  0  0  0  0  0  0  0
   10.3884   22.9458   -2.8300 H   0  0  0  0  0  0  0  0  0  0  0  0
   10.3443   30.2865    0.0495 C   0  0  0  0  0  0  0  0  0  0  0  0
   11.4876   30.3935    1.0537 C   0  0  0  0  0  0  0  0  0  0  0  0
   12.5810   31.2971    0.5360 C   0  0  0  0  0  0  0  0  0  0  0  0
   13.7644   30.9766    0.7447 O   0  0  0  0  0  0  0  0  0  0  0  0
   12.2604   32.3255   -0.0878 O   0  0  0  0  0  0  0  0  0  0  0  0
   13.9608   30.1929    1.2193 H   0  0  0  0  0  0  0  0  0  0  0  0
    9.0985   27.7278    3.8686 C   0  0  0  0  0  0  0  0  0  0  0  0
    7.8010   28.0370    4.6195 C   0  0  0  0  0  0  0  0  0  0  0  0
    8.0253   29.2010    5.5542 C   0  0  0  0  0  0  0  0  0  0  0  0
    8.5056   28.8955    6.7485 N   0  0  0  0  0  0  0  0  0  0  0  0
    8.7468   29.9362    7.6334 O   0  0  0  0  0  0  0  0  0  0  0  0
    7.7998   30.3407    5.2082 O   0  0  0  0  0  0  0  0  0  0  0  0
    8.6858   27.9611    7.0007 H   0  0  0  0  0  0  0  0  0  0  0  0
    8.5115   30.7785    7.2138 H   0  0  0  0  0  0  0  0  0  0  0  0
    9.4882   26.2555    3.9981 C   0  0  0  0  0  0  0  0  0  0  0  0
    7.1573   25.3527    4.8533 C   0  0  0  0  0  0  0  0  0  0  0  0
    8.4027   25.2803    4.3641 C   0  0  0  0  0  0  0  0  0  0  0  0
    8.7265   24.0196    4.1189 O   0  0  0  0  0  0  0  0  0  0  0  0
    7.6277   23.2243    4.5094 N   0  0  0  0  0  0  0  0  0  0  0  0
    6.6943   24.0337    4.9354 C   0  0  0  0  0  0  0  0  0  0  0  0
    2.9691   23.6327    5.3548 C   0  0  0  0  0  0  0  0  0  0  0  0
    4.1981   24.0615    4.9082 C   0  0  0  0  0  0  0  0  0  0  0  0
    4.0623   22.1322    6.8793 C   0  0  0  0  0  0  0  0  0  0  0  0
    5.3715   23.5491    5.4284 C   0  0  0  0  0  0  0  0  0  0  0  0
    5.3013   22.5746    6.4199 C   0  0  0  0  0  0  0  0  0  0  0  0
    2.9010   22.6682    6.3394 C   0  0  0  0  0  0  0  0  0  0  0  0
    1.5494   22.2517    6.7734 C   0  0  0  0  0  0  0  0  0  0  0  0
    0.4428   22.9919    6.4153 C   0  0  0  0  0  0  0  0  0  0  0  0
    1.4053   21.1193    7.5631 C   0  0  0  0  0  0  0  0  0  0  0  0
    0.1525   20.7101    7.9908 C   0  0  0  0  0  0  0  0  0  0  0  0
   -0.9604   21.4486    7.6291 C   0  0  0  0  0  0  0  0  0  0  0  0
   -0.8061   22.5798    6.8463 C   0  0  0  0  0  0  0  0  0  0  0  0
   -2.1855   23.5101    6.3916 Cl  0  0  0  0  0  0  0  0  0  0  0  0
 32 31  1  0  0  0
 33 30  2  0  0  0
 31 30  1  0  0  0
 30 29  1  0  0  0
 26 24  2  0  0  0
 29 28  1  0  0  0
 24 25  1  0  0  0
 24 23  1  0  0  0
 28 36  1  0  0  0
 28  2  1  0  0  0
 23 22  1  0  0  0
 36 38  1  0  0  0
  1  2  1  0  0  0
  1  5  1  0  0  0
  2  3  2  0  0  0
 37 38  2  0  0  0
 37 41  1  0  0  0
 22  5  1  0  0  0
 38 39  1  0  0  0
  5  7  1  0  0  0
 46 44  2  0  0  0
 46 45  1  0  0  0
 44 47  1  0  0  0
 41 45  1  0  0  0
 41 40  2  0  0  0
 39 40  1  0  0  0
 45 43  2  0  0  0
  8  7  2  0  0  0
  7  6  1  0  0  0
 47 48  1  0  0  0
 47 42  2  0  0  0
 49 48  2  0  0  0
 49 53  1  0  0  0
 48 50  1  0  0  0
 43 42  1  0  0  0
 54 53  1  0  0  0
 53 52  2  0  0  0
 50 51  2  0  0  0
  6 10  1  0  0  0
 52 51  1  0  0  0
 12 11  1  0  0  0
 11 10  1  0  0  0
 11 13  2  0  0  0
 10 16  1  0  0  0
 16 17  1  0  0  0
 17 19  1  0  0  0
 19 20  2  0  0  0
 19 18  1  0  0  0
 18 21  1  0  0  0
 12 14  1  0  0  0
 12 15  1  0  0  0
  6  9  1  0  0  0
 25 27  1  0  0  0
  1  4  1  0  0  0
 31 34  1  0  0  0
 32 35  1  0  0  0
M  END
> <minimizedAffinity>
-9.67400

$$$$
