5D3C_56O_A_306
  RCSB PDB12061717123D
Coordinates from PDB:5D3C:A:306 Model:1 without hydrogens
 46 48  0  0  0  0            999 V2000
    1.2590   23.7480    5.4210   C 0  0  0  0  0  0  0  0  0  0  0  0
    2.5930   23.8510    5.0990   C 0  0  0  0  0  0  0  0  0  0  0  0
    5.5920   24.2270    4.5650   C 0  0  0  0  0  0  0  0  0  0  0  0
    1.8330   22.3590    7.2950   C 0  0  0  0  0  0  0  0  0  0  0  0
    3.5660   23.2250    5.8550   C 0  0  0  0  0  0  0  0  0  0  0  0
   10.6080   28.8570   12.2060   O 0  0  0  0  0  0  0  0  0  0  0  0
   10.0130   29.9090   11.8930   C 0  0  0  0  0  0  0  0  0  0  0  0
   10.4420   31.0490   12.1750   O 0  0  0  0  0  0  0  0  0  0  0  0
    8.7100   29.8030   11.1410   C 0  0  0  0  0  0  0  0  0  0  0  0
    8.8990   30.3670    9.7400   C 0  0  0  0  0  0  0  0  0  0  0  0
    7.8280   29.8540    8.7880   C 0  0  0  0  0  0  0  0  0  0  0  0
    6.6820   30.8150    8.7170   C 0  0  0  0  0  0  0  0  0  0  0  0
    6.8710   31.9100    7.9870   N 0  0  0  0  0  0  0  0  0  0  0  0
    5.6370   30.5710    9.2900   O 0  0  0  0  0  0  0  0  0  0  0  0
    8.3930   29.6840    7.4690   N 0  0  0  0  0  0  0  0  0  0  0  0
    7.6530   29.2300    6.4700   C 0  0  0  0  0  0  0  0  0  0  0  0
    6.4820   28.9190    6.5760   O 0  0  0  0  0  0  0  0  0  0  0  0
    8.3840   29.1280    5.1740   C 0  0  0  0  0  0  0  0  0  0  0  0
    8.3260   30.4480    4.4150   C 0  0  0  0  0  0  0  0  0  0  0  0
    9.3890   30.5160    3.3230   C 0  0  0  0  0  0  0  0  0  0  0  0
    9.0720   31.6040    2.3250   C 0  0  0  0  0  0  0  0  0  0  0  0
    9.7490   32.6470    2.3490   O 0  0  0  0  0  0  0  0  0  0  0  0
    8.1510   31.4160    1.5090   O 0  0  0  0  0  0  0  0  0  0  0  0
    7.9220   28.0610    4.3130   N 0  0  0  0  0  0  0  0  0  0  0  0
    8.5870   26.9230    4.2800   C 0  0  0  0  0  0  0  0  0  0  0  0
    9.5860   26.7100    4.9340   O 0  0  0  0  0  0  0  0  0  0  0  0
    8.0710   25.9140    3.3220   C 0  0  0  0  0  0  0  0  0  0  0  0
    9.0330   26.0870    2.1440   C 0  0  0  0  0  0  0  0  0  0  0  0
    8.6030   25.1920    1.0070   C 0  0  0  0  0  0  0  0  0  0  0  0
    9.3020   24.0790    0.8550   N 0  0  0  0  0  0  0  0  0  0  0  0
    8.9290   23.2160   -0.1650   O 0  0  0  0  0  0  0  0  0  0  0  0
    7.6580   25.4760    0.3030   O 0  0  0  0  0  0  0  0  0  0  0  0
    8.1340   24.5000    3.8990   C 0  0  0  0  0  0  0  0  0  0  0  0
    6.9090   23.9830    4.6030   C 0  0  0  0  0  0  0  0  0  0  0  0
    7.1710   23.0130    5.4660   O 0  0  0  0  0  0  0  0  0  0  0  0
    5.9430   22.6310    6.0480   N 0  0  0  0  0  0  0  0  0  0  0  0
    5.0080   23.3560    5.4930   C 0  0  0  0  0  0  0  0  0  0  0  0
    3.1810   22.4710    6.9600   C 0  0  0  0  0  0  0  0  0  0  0  0
    0.8790   23.0020    6.5180   C 0  0  0  0  0  0  0  0  0  0  0  0
   -0.5700   22.9320    6.8080   C 0  0  0  0  0  0  0  0  0  0  0  0
   -1.1460   21.7430    7.2020   C 0  0  0  0  0  0  0  0  0  0  0  0
   -1.3510   24.0700    6.6600   C 0  0  0  0  0  0  0  0  0  0  0  0
   -2.7120   24.0320    6.9170   C 0  0  0  0  0  0  0  0  0  0  0  0
   -3.2920   22.8410    7.3170   C 0  0  0  0  0  0  0  0  0  0  0  0
   -2.5060   21.7100    7.4560   C 0  0  0  0  0  0  0  0  0  0  0  0
   -3.2180   20.2190    7.9510  Cl 0  0  0  0  0  0  0  0  0  0  0  0
 31 30  1  0  0  0  0
 32 29  2  0  0  0  0
 30 29  1  0  0  0  0
 29 28  1  0  0  0  0
 23 21  2  0  0  0  0
 28 27  1  0  0  0  0
 21 22  1  0  0  0  0
 21 20  1  0  0  0  0
 27 33  1  0  0  0  0
 27 25  1  0  0  0  0
 20 19  1  0  0  0  0
 33 34  1  0  0  0  0
 24 25  1  0  0  0  0
 24 18  1  0  0  0  0
 25 26  2  0  0  0  0
  3 34  2  0  0  0  0
  3 37  1  0  0  0  0
 19 18  1  0  0  0  0
 34 35  1  0  0  0  0
 18 16  1  0  0  0  0
 38  4  2  0  0  0  0
 38  5  1  0  0  0  0
  4 39  1  0  0  0  0
 37  5  1  0  0  0  0
 37 36  2  0  0  0  0
 35 36  1  0  0  0  0
  5  2  2  0  0  0  0
 17 16  2  0  0  0  0
 16 15  1  0  0  0  0
 39 40  1  0  0  0  0
 39  1  2  0  0  0  0
 41 40  2  0  0  0  0
 41 45  1  0  0  0  0
 40 42  1  0  0  0  0
  2  1  1  0  0  0  0
 46 45  1  0  0  0  0
 45 44  2  0  0  0  0
 42 43  2  0  0  0  0
 15 11  1  0  0  0  0
 44 43  1  0  0  0  0
 13 12  1  0  0  0  0
 12 11  1  0  0  0  0
 12 14  2  0  0  0  0
 11 10  1  0  0  0  0
 10  9  1  0  0  0  0
  9  7  1  0  0  0  0
  7  8  2  0  0  0  0
  7  6  1  0  0  0  0
A    1
C4
A    2
C5
A    3
C8
A    4
C2
A    5
C6
A    6
O44
A    7
C42
A    8
O43
A    9
C41
A   10
C40
A   11
C29
A   12
C37
A   13
N39
A   14
O38
A   15
N28
A   16
C27
A   17
O36
A   18
C26
A   19
C31
A   20
C32
A   21
C33
A   22
O35
A   23
O34
A   24
N25
A   25
C20
A   26
O30
A   27
C19
A   28
C21
A   29
C22
A   30
N24
A   31
O24
A   32
O23
A   33
C71
A   34
C9
A   35
O10
A   36
N11
A   37
C7
A   38
C1
A   39
C3
A   40
C12
A   41
C17
A   42
C13
A   43
C14
A   44
C15
A   45
C16
A   46
CL
M  END
>  <InstanceId>
5D3C_56O_A_306

>  <ChemCompId>
56O

>  <PdbId>
5D3C

>  <ChainId>
A

>  <ResidueNumber>
306

>  <InsertionCode>


>  <Model>
1

>  <AltIds>


>  <MissingHeavyAtoms>
0

>  <ObservedFormula>
C30 N5 O10 Cl

>  <Name>
N-[(2R)-2-{[3-(3'-chlorobiphenyl-4-yl)-1,2-oxazol-5-yl]methyl}-4-(hydroxyamino)-4-oxobutanoyl]-L-alpha-glutamyl-L-alpha-glutamine

>  <SystematicName>
(4S)-5-azanyl-4-[[(2S)-2-[[(2R)-2-[[3-[4-(3-chlorophenyl)phenyl]-1,2-oxazol-5-yl]methyl]-4-(oxidanylamino)-4-oxidanylidene-butanoyl]amino]-5-oxidanyl-5-oxidanylidene-pentanoyl]amino]-5-oxidanylidene-pentanoic acid

>  <Synonyms>


>  <Type>
NON-POLYMER

>  <Formula>
C30 H32 Cl N5 O10

>  <MolecularWeight>
658.056

>  <ModifiedDate>
2016-08-12

>  <Parent>


>  <OneLetterCode>


>  <SubcomponentList>


>  <AmbiguousFlag>
N

>  <InChI>
InChI=1S/C30H32ClN5O10/c31-20-3-1-2-18(12-20)16-4-6-17(7-5-16)24-15-21(46-36-24)13-19(14-25(37)35-45)29(43)34-23(9-11-27(40)41)30(44)33-22(28(32)42)8-10-26(38)39/h1-7,12,15,19,22-23,45H,8-11,13-14H2,(H2,32,42)(H,33,44)(H,34,43)(H,35,37)(H,38,39)(H,40,41)/t19-,22+,23+/m1/s1

>  <InChIKey>
VBMQORMYXJZHKU-OIBXWCBGSA-N

>  <SMILES>
c1cc(cc(c1)Cl)c2ccc(cc2)c3cc(on3)C[C@H](CC(=O)NO)C(=O)N[C@@H](CCC(=O)O)C(=O)N[C@@H](CCC(=O)O)C(=O)N

$$$$
