2H4K_509_A_300


 22 23  0  0  0  0  0  0  0  0999 V2000
   44.8816   13.4613    1.2048 C   0  0  0  0  0  0  0  0  0  0  0  0
   45.7642   13.5151    2.2408 C   0  0  0  0  0  0  0  0  0  0  0  0
   45.7135   14.6785    3.0392 C   0  0  0  0  0  0  0  0  0  0  0  0
   44.7299   15.5226    2.5797 C   0  0  0  0  0  0  0  0  0  0  0  0
   43.9318   14.8784    1.2065 S   0  0  0  0  0  0  0  0  0  0  0  0
   47.0165   12.1737    2.5928 Br  0  0  0  0  0  0  0  0  0  0  0  0
   44.2825   10.3483   -1.6264 C   0  0  0  0  0  0  0  0  0  0  0  0
   44.4393   11.6689   -2.0638 C   0  0  0  0  0  0  0  0  0  0  0  0
   44.6325   12.6971   -1.1354 C   0  0  0  0  0  0  0  0  0  0  0  0
   44.6965   12.3900    0.2356 C   0  0  0  0  0  0  0  0  0  0  0  0
   44.5353   11.0609    0.6669 C   0  0  0  0  0  0  0  0  0  0  0  0
   44.3340   10.0379   -0.2651 C   0  0  0  0  0  0  0  0  0  0  0  0
   44.3463   16.9207    3.1775 C   0  0  0  0  0  0  0  0  0  0  0  0
   44.1590   17.8292    2.3182 O   0  0  0  0  0  0  0  0  0  0  0  0
   44.2722   17.0264    4.4391 O   0  0  0  0  0  0  0  0  0  0  0  0
   44.4325   16.2796    4.9820 H   0  0  0  0  0  0  0  0  0  0  0  0
   46.5228   14.8945    4.1020 O   0  0  0  0  0  0  0  0  0  0  0  0
   47.6831   15.6919    3.8208 C   0  0  0  0  0  0  0  0  0  0  0  0
   47.6895   16.9109    4.7576 C   0  0  0  0  0  0  0  0  0  0  0  0
   48.6658   17.6757    4.6145 O   0  0  0  0  0  0  0  0  0  0  0  0
   46.7522   17.0477    5.5765 O   0  0  0  0  0  0  0  0  0  0  0  0
   46.0610   16.4159    5.6073 H   0  0  0  0  0  0  0  0  0  0  0  0
  7  8  2  0  0  0
  7 12  1  0  0  0
  8  9  1  0  0  0
  9 10  2  0  0  0
 10 11  1  0  0  0
 10  1  1  0  0  0
 11 12  2  0  0  0
  1  2  2  0  0  0
  1  5  1  0  0  0
  2  3  1  0  0  0
  2  6  1  0  0  0
  3  4  2  0  0  0
  3 17  1  0  0  0
  4  5  1  0  0  0
  4 13  1  0  0  0
 13 14  2  0  0  0
 13 15  1  0  0  0
 17 18  1  0  0  0
 18 19  1  0  0  0
 19 20  2  0  0  0
 19 21  1  0  0  0
 15 16  1  0  0  0
 21 22  1  0  0  0
M  END
> <minimizedAffinity>
-8.04572

$$$$
2H4K_509_A_300


 22 23  0  0  0  0  0  0  0  0999 V2000
   45.2677   12.9219    0.7849 C   0  0  0  0  0  0  0  0  0  0  0  0
   45.7889   13.2532    1.9990 C   0  0  0  0  0  0  0  0  0  0  0  0
   45.4502   14.5324    2.4913 C   0  0  0  0  0  0  0  0  0  0  0  0
   44.6209   15.1749    1.6022 C   0  0  0  0  0  0  0  0  0  0  0  0
   44.3066   14.2128    0.2189 S   0  0  0  0  0  0  0  0  0  0  0  0
   46.9267   12.1316    2.9679 Br  0  0  0  0  0  0  0  0  0  0  0  0
   45.7703    9.2668   -1.3252 C   0  0  0  0  0  0  0  0  0  0  0  0
   44.7024    9.4162   -0.4325 C   0  0  0  0  0  0  0  0  0  0  0  0
   44.5355   10.6157    0.2673 C   0  0  0  0  0  0  0  0  0  0  0  0
   45.4304   11.6778    0.0454 C   0  0  0  0  0  0  0  0  0  0  0  0
   46.5024   11.5186   -0.8513 C   0  0  0  0  0  0  0  0  0  0  0  0
   46.6694   10.3141   -1.5420 C   0  0  0  0  0  0  0  0  0  0  0  0
   44.0172   16.6134    1.7619 C   0  0  0  0  0  0  0  0  0  0  0  0
   42.8229   16.7323    1.3639 O   0  0  0  0  0  0  0  0  0  0  0  0
   44.7605   17.5180    2.2496 O   0  0  0  0  0  0  0  0  0  0  0  0
   45.6362   17.3134    2.5126 H   0  0  0  0  0  0  0  0  0  0  0  0
   45.8870   15.0200    3.6756 O   0  0  0  0  0  0  0  0  0  0  0  0
   47.1667   15.6685    3.6227 C   0  0  0  0  0  0  0  0  0  0  0  0
   47.1439   16.8936    4.5512 C   0  0  0  0  0  0  0  0  0  0  0  0
   48.2693   17.3330    4.8657 O   0  0  0  0  0  0  0  0  0  0  0  0
   46.0382   17.3494    4.9219 O   0  0  0  0  0  0  0  0  0  0  0  0
   45.2439   16.9474    4.6295 H   0  0  0  0  0  0  0  0  0  0  0  0
  7  8  2  0  0  0
  7 12  1  0  0  0
  8  9  1  0  0  0
  9 10  2  0  0  0
 10 11  1  0  0  0
 10  1  1  0  0  0
 11 12  2  0  0  0
  1  2  2  0  0  0
  1  5  1  0  0  0
  2  3  1  0  0  0
  2  6  1  0  0  0
  3  4  2  0  0  0
  3 17  1  0  0  0
  4  5  1  0  0  0
  4 13  1  0  0  0
 13 14  2  0  0  0
 13 15  1  0  0  0
 17 18  1  0  0  0
 18 19  1  0  0  0
 19 20  2  0  0  0
 19 21  1  0  0  0
 15 16  1  0  0  0
 21 22  1  0  0  0
M  END
> <minimizedAffinity>
-7.22818

$$$$
2H4K_509_A_300


 22 23  0  0  0  0  0  0  0  0999 V2000
   45.3249   12.2905    0.2870 C   0  0  0  0  0  0  0  0  0  0  0  0
   45.5931   12.8118    1.5165 C   0  0  0  0  0  0  0  0  0  0  0  0
   45.1746   14.1431    1.7306 C   0  0  0  0  0  0  0  0  0  0  0  0
   44.5486   14.6268    0.6058 C   0  0  0  0  0  0  0  0  0  0  0  0
   44.5110   13.4610   -0.6501 S   0  0  0  0  0  0  0  0  0  0  0  0
   46.5002   11.8731    2.8534 Br  0  0  0  0  0  0  0  0  0  0  0  0
   46.1781    8.4055   -1.2110 C   0  0  0  0  0  0  0  0  0  0  0  0
   47.1566    9.4052   -1.2659 C   0  0  0  0  0  0  0  0  0  0  0  0
   46.8788   10.6863   -0.7780 C   0  0  0  0  0  0  0  0  0  0  0  0
   45.6214   10.9529   -0.2070 C   0  0  0  0  0  0  0  0  0  0  0  0
   44.6429    9.9436   -0.1582 C   0  0  0  0  0  0  0  0  0  0  0  0
   44.9232    8.6669   -0.6551 C   0  0  0  0  0  0  0  0  0  0  0  0
   43.9395   16.0599    0.4205 C   0  0  0  0  0  0  0  0  0  0  0  0
   44.2064   16.6082   -0.6871 O   0  0  0  0  0  0  0  0  0  0  0  0
   43.2608   16.5441    1.3762 O   0  0  0  0  0  0  0  0  0  0  0  0
   43.1265   16.0430    2.1565 H   0  0  0  0  0  0  0  0  0  0  0  0
   45.3677   14.8125    2.8907 O   0  0  0  0  0  0  0  0  0  0  0  0
   46.4693   15.7332    2.8764 C   0  0  0  0  0  0  0  0  0  0  0  0
   46.0523   17.0212    3.6048 C   0  0  0  0  0  0  0  0  0  0  0  0
   44.8208   17.1647    3.7507 O   0  0  0  0  0  0  0  0  0  0  0  0
   46.9429   17.8153    3.9845 O   0  0  0  0  0  0  0  0  0  0  0  0
   47.8452   17.6172    3.8273 H   0  0  0  0  0  0  0  0  0  0  0  0
  7  8  2  0  0  0
  7 12  1  0  0  0
  8  9  1  0  0  0
  9 10  2  0  0  0
 10 11  1  0  0  0
 10  1  1  0  0  0
 11 12  2  0  0  0
  1  2  2  0  0  0
  1  5  1  0  0  0
  2  3  1  0  0  0
  2  6  1  0  0  0
  3  4  2  0  0  0
  3 17  1  0  0  0
  4  5  1  0  0  0
  4 13  1  0  0  0
 13 14  2  0  0  0
 13 15  1  0  0  0
 17 18  1  0  0  0
 18 19  1  0  0  0
 19 20  2  0  0  0
 19 21  1  0  0  0
 15 16  1  0  0  0
 21 22  1  0  0  0
M  END
> <minimizedAffinity>
-6.98687

$$$$
2H4K_509_A_300


 22 23  0  0  0  0  0  0  0  0999 V2000
   46.2366   12.7170    1.7921 C   0  0  0  0  0  0  0  0  0  0  0  0
   45.2156   13.2640    1.0755 C   0  0  0  0  0  0  0  0  0  0  0  0
   44.6612   14.4542    1.5946 C   0  0  0  0  0  0  0  0  0  0  0  0
   45.3181   14.8161    2.7472 C   0  0  0  0  0  0  0  0  0  0  0  0
   46.5541   13.6992    3.1504 S   0  0  0  0  0  0  0  0  0  0  0  0
   44.5266   12.4936   -0.4812 Br  0  0  0  0  0  0  0  0  0  0  0  0
   48.4261    9.1890    0.8843 C   0  0  0  0  0  0  0  0  0  0  0  0
   48.4387   10.2673   -0.0083 C   0  0  0  0  0  0  0  0  0  0  0  0
   47.7162   11.4287    0.2843 C   0  0  0  0  0  0  0  0  0  0  0  0
   47.0024   11.5148    1.4931 C   0  0  0  0  0  0  0  0  0  0  0  0
   46.9927   10.4257    2.3833 C   0  0  0  0  0  0  0  0  0  0  0  0
   47.7101    9.2638    2.0818 C   0  0  0  0  0  0  0  0  0  0  0  0
   45.0145   16.0694    3.6397 C   0  0  0  0  0  0  0  0  0  0  0  0
   44.2659   15.8416    4.6330 O   0  0  0  0  0  0  0  0  0  0  0  0
   45.5181   17.1806    3.2932 O   0  0  0  0  0  0  0  0  0  0  0  0
   46.0624   17.2312    2.5322 H   0  0  0  0  0  0  0  0  0  0  0  0
   43.6393   15.1223    1.0111 O   0  0  0  0  0  0  0  0  0  0  0  0
   44.0401   16.1936    0.1434 C   0  0  0  0  0  0  0  0  0  0  0  0
   43.5969   15.8656   -1.2916 C   0  0  0  0  0  0  0  0  0  0  0  0
   44.5192   15.8467   -2.1328 O   0  0  0  0  0  0  0  0  0  0  0  0
   42.3833   15.6527   -1.5148 O   0  0  0  0  0  0  0  0  0  0  0  0
   41.7643   15.6900   -0.8125 H   0  0  0  0  0  0  0  0  0  0  0  0
  7  8  2  0  0  0
  7 12  1  0  0  0
  8  9  1  0  0  0
  9 10  2  0  0  0
 10 11  1  0  0  0
 10  1  1  0  0  0
 11 12  2  0  0  0
  1  2  2  0  0  0
  1  5  1  0  0  0
  2  3  1  0  0  0
  2  6  1  0  0  0
  3  4  2  0  0  0
  3 17  1  0  0  0
  4  5  1  0  0  0
  4 13  1  0  0  0
 13 14  2  0  0  0
 13 15  1  0  0  0
 17 18  1  0  0  0
 18 19  1  0  0  0
 19 20  2  0  0  0
 19 21  1  0  0  0
 15 16  1  0  0  0
 21 22  1  0  0  0
M  END
> <minimizedAffinity>
-6.30835

$$$$
2H4K_509_A_300


 22 23  0  0  0  0  0  0  0  0999 V2000
   46.0172   13.9573    2.4165 C   0  0  0  0  0  0  0  0  0  0  0  0
   45.1309   13.9765    1.3824 C   0  0  0  0  0  0  0  0  0  0  0  0
   44.9608   12.7588    0.6885 C   0  0  0  0  0  0  0  0  0  0  0  0
   45.7504   11.7826    1.2496 C   0  0  0  0  0  0  0  0  0  0  0  0
   46.6633   12.3857    2.5689 S   0  0  0  0  0  0  0  0  0  0  0  0
   44.2090   15.5119    0.8494 Br  0  0  0  0  0  0  0  0  0  0  0  0
   47.0994   17.1007    5.0647 C   0  0  0  0  0  0  0  0  0  0  0  0
   48.0400   16.5964    4.1588 C   0  0  0  0  0  0  0  0  0  0  0  0
   47.6895   15.5591    3.2883 C   0  0  0  0  0  0  0  0  0  0  0  0
   46.3794   15.0481    3.3110 C   0  0  0  0  0  0  0  0  0  0  0  0
   45.4411   15.5586    4.2263 C   0  0  0  0  0  0  0  0  0  0  0  0
   45.7994   16.5900    5.1000 C   0  0  0  0  0  0  0  0  0  0  0  0
   45.8639   10.2905    0.7805 C   0  0  0  0  0  0  0  0  0  0  0  0
   46.9634    9.7315    1.0585 O   0  0  0  0  0  0  0  0  0  0  0  0
   44.8769    9.7856    0.1645 O   0  0  0  0  0  0  0  0  0  0  0  0
   44.1069   10.2978    0.0137 H   0  0  0  0  0  0  0  0  0  0  0  0
   44.1252   12.6063   -0.3650 O   0  0  0  0  0  0  0  0  0  0  0  0
   44.7297   12.8293   -1.6480 C   0  0  0  0  0  0  0  0  0  0  0  0
   44.1110   11.8581   -2.6665 C   0  0  0  0  0  0  0  0  0  0  0  0
   44.4400   10.6631   -2.5169 O   0  0  0  0  0  0  0  0  0  0  0  0
   43.3503   12.3142   -3.5503 O   0  0  0  0  0  0  0  0  0  0  0  0
   43.1634   13.2319   -3.5796 H   0  0  0  0  0  0  0  0  0  0  0  0
  7  8  2  0  0  0
  7 12  1  0  0  0
  8  9  1  0  0  0
  9 10  2  0  0  0
 10 11  1  0  0  0
 10  1  1  0  0  0
 11 12  2  0  0  0
  1  2  2  0  0  0
  1  5  1  0  0  0
  2  3  1  0  0  0
  2  6  1  0  0  0
  3  4  2  0  0  0
  3 17  1  0  0  0
  4  5  1  0  0  0
  4 13  1  0  0  0
 13 14  2  0  0  0
 13 15  1  0  0  0
 17 18  1  0  0  0
 18 19  1  0  0  0
 19 20  2  0  0  0
 19 21  1  0  0  0
 15 16  1  0  0  0
 21 22  1  0  0  0
M  END
> <minimizedAffinity>
-6.15561

$$$$
2H4K_509_A_300


 22 23  0  0  0  0  0  0  0  0999 V2000
   45.2546   14.0484    1.4659 C   0  0  0  0  0  0  0  0  0  0  0  0
   45.5876   12.7459    1.2469 C   0  0  0  0  0  0  0  0  0  0  0  0
   45.1844   12.2024    0.0078 C   0  0  0  0  0  0  0  0  0  0  0  0
   44.5334   13.1583   -0.7363 C   0  0  0  0  0  0  0  0  0  0  0  0
   44.4294   14.6509    0.0997 S   0  0  0  0  0  0  0  0  0  0  0  0
   46.4824   11.6904    2.5025 Br  0  0  0  0  0  0  0  0  0  0  0  0
   46.1145   16.4907    4.8365 C   0  0  0  0  0  0  0  0  0  0  0  0
   44.7902   16.3255    4.4139 C   0  0  0  0  0  0  0  0  0  0  0  0
   44.5029   15.5262    3.3027 C   0  0  0  0  0  0  0  0  0  0  0  0
   45.5501   14.8683    2.6328 C   0  0  0  0  0  0  0  0  0  0  0  0
   46.8783   15.0417    3.0622 C   0  0  0  0  0  0  0  0  0  0  0  0
   47.1606   15.8488    4.1687 C   0  0  0  0  0  0  0  0  0  0  0  0
   43.9223   12.9696   -2.1682 C   0  0  0  0  0  0  0  0  0  0  0  0
   43.2210   13.9397   -2.5753 O   0  0  0  0  0  0  0  0  0  0  0  0
   44.1623   11.8833   -2.7772 O   0  0  0  0  0  0  0  0  0  0  0  0
   44.7002   11.2298   -2.3752 H   0  0  0  0  0  0  0  0  0  0  0  0
   45.4290   10.9251   -0.3661 O   0  0  0  0  0  0  0  0  0  0  0  0
   44.4540    9.9712    0.0818 C   0  0  0  0  0  0  0  0  0  0  0  0
   44.2544    8.9105   -1.0130 C   0  0  0  0  0  0  0  0  0  0  0  0
   44.8995    9.1136   -2.0623 O   0  0  0  0  0  0  0  0  0  0  0  0
   43.4813    7.9511   -0.7900 O   0  0  0  0  0  0  0  0  0  0  0  0
   43.0404    7.8865    0.0343 H   0  0  0  0  0  0  0  0  0  0  0  0
  7  8  2  0  0  0
  7 12  1  0  0  0
  8  9  1  0  0  0
  9 10  2  0  0  0
 10 11  1  0  0  0
 10  1  1  0  0  0
 11 12  2  0  0  0
  1  2  2  0  0  0
  1  5  1  0  0  0
  2  3  1  0  0  0
  2  6  1  0  0  0
  3  4  2  0  0  0
  3 17  1  0  0  0
  4  5  1  0  0  0
  4 13  1  0  0  0
 13 14  2  0  0  0
 13 15  1  0  0  0
 17 18  1  0  0  0
 18 19  1  0  0  0
 19 20  2  0  0  0
 19 21  1  0  0  0
 15 16  1  0  0  0
 21 22  1  0  0  0
M  END
> <minimizedAffinity>
-5.99175

$$$$
2H4K_509_A_300


 22 23  0  0  0  0  0  0  0  0999 V2000
   45.9618   12.8650    1.7712 C   0  0  0  0  0  0  0  0  0  0  0  0
   45.5341   12.3003    0.6078 C   0  0  0  0  0  0  0  0  0  0  0  0
   45.9059   10.9545    0.3981 C   0  0  0  0  0  0  0  0  0  0  0  0
   46.6328   10.4940    1.4707 C   0  0  0  0  0  0  0  0  0  0  0  0
   46.8413   11.7070    2.6635 S   0  0  0  0  0  0  0  0  0  0  0  0
   44.5523   13.2282   -0.6830 Br  0  0  0  0  0  0  0  0  0  0  0  0
   45.2649   16.8293    3.1364 C   0  0  0  0  0  0  0  0  0  0  0  0
   44.2539   16.1360    2.4604 C   0  0  0  0  0  0  0  0  0  0  0  0
   44.4802   14.8328    2.0056 C   0  0  0  0  0  0  0  0  0  0  0  0
   45.7188   14.2160    2.2579 C   0  0  0  0  0  0  0  0  0  0  0  0
   46.7303   14.9205    2.9355 C   0  0  0  0  0  0  0  0  0  0  0  0
   46.5014   16.2263    3.3806 C   0  0  0  0  0  0  0  0  0  0  0  0
   47.2401    9.0579    1.6386 C   0  0  0  0  0  0  0  0  0  0  0  0
   48.2338    8.9924    2.4178 O   0  0  0  0  0  0  0  0  0  0  0  0
   46.7092    8.1092    0.9855 O   0  0  0  0  0  0  0  0  0  0  0  0
   45.9701    8.2760    0.4343 H   0  0  0  0  0  0  0  0  0  0  0  0
   45.5695   10.2468   -0.7052 O   0  0  0  0  0  0  0  0  0  0  0  0
   44.2220    9.7513   -0.7128 C   0  0  0  0  0  0  0  0  0  0  0  0
   44.2167    8.3294   -1.2972 C   0  0  0  0  0  0  0  0  0  0  0  0
   45.3240    7.9306   -1.7138 O   0  0  0  0  0  0  0  0  0  0  0  0
   43.1400    7.6907   -1.3213 O   0  0  0  0  0  0  0  0  0  0  0  0
   42.3574    8.0788   -0.9824 H   0  0  0  0  0  0  0  0  0  0  0  0
  7  8  2  0  0  0
  7 12  1  0  0  0
  8  9  1  0  0  0
  9 10  2  0  0  0
 10 11  1  0  0  0
 10  1  1  0  0  0
 11 12  2  0  0  0
  1  2  2  0  0  0
  1  5  1  0  0  0
  2  3  1  0  0  0
  2  6  1  0  0  0
  3  4  2  0  0  0
  3 17  1  0  0  0
  4  5  1  0  0  0
  4 13  1  0  0  0
 13 14  2  0  0  0
 13 15  1  0  0  0
 17 18  1  0  0  0
 18 19  1  0  0  0
 19 20  2  0  0  0
 19 21  1  0  0  0
 15 16  1  0  0  0
 21 22  1  0  0  0
M  END
> <minimizedAffinity>
-5.91959

$$$$
2H4K_509_A_300


 22 23  0  0  0  0  0  0  0  0999 V2000
   44.2347   15.4643    0.0343 C   0  0  0  0  0  0  0  0  0  0  0  0
   44.6261   14.1990    0.3523 C   0  0  0  0  0  0  0  0  0  0  0  0
   44.9766   13.9788    1.7021 C   0  0  0  0  0  0  0  0  0  0  0  0
   44.8202   15.1384    2.4246 C   0  0  0  0  0  0  0  0  0  0  0  0
   44.2752   16.4309    1.4395 S   0  0  0  0  0  0  0  0  0  0  0  0
   44.7515   12.8183   -0.9004 Br  0  0  0  0  0  0  0  0  0  0  0  0
   42.9580   17.0014   -3.7170 C   0  0  0  0  0  0  0  0  0  0  0  0
   44.1618   17.4429   -3.1550 C   0  0  0  0  0  0  0  0  0  0  0  0
   44.5837   16.9429   -1.9187 C   0  0  0  0  0  0  0  0  0  0  0  0
   43.8050   15.9742   -1.2605 C   0  0  0  0  0  0  0  0  0  0  0  0
   42.5954   15.5379   -1.8308 C   0  0  0  0  0  0  0  0  0  0  0  0
   42.1742   16.0473   -3.0631 C   0  0  0  0  0  0  0  0  0  0  0  0
   45.1037   15.3295    3.9550 C   0  0  0  0  0  0  0  0  0  0  0  0
   44.1984   15.9457    4.5871 O   0  0  0  0  0  0  0  0  0  0  0  0
   46.1943   14.8762    4.4175 O   0  0  0  0  0  0  0  0  0  0  0  0
   46.7949   14.4327    3.8513 H   0  0  0  0  0  0  0  0  0  0  0  0
   45.3919   12.7844    2.1839 O   0  0  0  0  0  0  0  0  0  0  0  0
   46.8169   12.6122    2.2151 C   0  0  0  0  0  0  0  0  0  0  0  0
   47.1820   11.3346    1.4418 C   0  0  0  0  0  0  0  0  0  0  0  0
   46.5335   10.3200    1.7714 O   0  0  0  0  0  0  0  0  0  0  0  0
   48.0773   11.3928    0.5684 O   0  0  0  0  0  0  0  0  0  0  0  0
   48.5083   12.2060    0.3927 H   0  0  0  0  0  0  0  0  0  0  0  0
  7  8  2  0  0  0
  7 12  1  0  0  0
  8  9  1  0  0  0
  9 10  2  0  0  0
 10 11  1  0  0  0
 10  1  1  0  0  0
 11 12  2  0  0  0
  1  2  2  0  0  0
  1  5  1  0  0  0
  2  3  1  0  0  0
  2  6  1  0  0  0
  3  4  2  0  0  0
  3 17  1  0  0  0
  4  5  1  0  0  0
  4 13  1  0  0  0
 13 14  2  0  0  0
 13 15  1  0  0  0
 17 18  1  0  0  0
 18 19  1  0  0  0
 19 20  2  0  0  0
 19 21  1  0  0  0
 15 16  1  0  0  0
 21 22  1  0  0  0
M  END
> <minimizedAffinity>
-5.91710

$$$$
2H4K_509_A_300


 22 23  0  0  0  0  0  0  0  0999 V2000
   44.3247   15.0301   -0.1950 C   0  0  0  0  0  0  0  0  0  0  0  0
   44.4689   15.4937    1.0776 C   0  0  0  0  0  0  0  0  0  0  0  0
   45.0150   14.5854    2.0105 C   0  0  0  0  0  0  0  0  0  0  0  0
   45.3059   13.3924    1.3916 C   0  0  0  0  0  0  0  0  0  0  0  0
   44.8937   13.4236   -0.2718 S   0  0  0  0  0  0  0  0  0  0  0  0
   43.9449   17.2059    1.6117 Br  0  0  0  0  0  0  0  0  0  0  0  0
   42.8452   17.0581   -3.6248 C   0  0  0  0  0  0  0  0  0  0  0  0
   42.0929   16.0310   -3.0427 C   0  0  0  0  0  0  0  0  0  0  0  0
   42.5778   15.3580   -1.9165 C   0  0  0  0  0  0  0  0  0  0  0  0
   43.8107   15.7403   -1.3581 C   0  0  0  0  0  0  0  0  0  0  0  0
   44.5617   16.7716   -1.9507 C   0  0  0  0  0  0  0  0  0  0  0  0
   44.0760   17.4354   -3.0816 C   0  0  0  0  0  0  0  0  0  0  0  0
   45.9208   12.1171    2.0661 C   0  0  0  0  0  0  0  0  0  0  0  0
   45.5736   11.0214    1.5391 O   0  0  0  0  0  0  0  0  0  0  0  0
   46.6825   12.2839    3.0663 O   0  0  0  0  0  0  0  0  0  0  0  0
   46.8716   13.1492    3.3721 H   0  0  0  0  0  0  0  0  0  0  0  0
   45.2193   14.8823    3.3149 O   0  0  0  0  0  0  0  0  0  0  0  0
   46.4174   15.6272    3.5805 C   0  0  0  0  0  0  0  0  0  0  0  0
   46.1215   16.6787    4.6623 C   0  0  0  0  0  0  0  0  0  0  0  0
   47.1260   17.0971    5.2742 O   0  0  0  0  0  0  0  0  0  0  0  0
   44.9349   17.0289    4.8551 O   0  0  0  0  0  0  0  0  0  0  0  0
   44.2466   16.6548    4.3410 H   0  0  0  0  0  0  0  0  0  0  0  0
  7  8  2  0  0  0
  7 12  1  0  0  0
  8  9  1  0  0  0
  9 10  2  0  0  0
 10 11  1  0  0  0
 10  1  1  0  0  0
 11 12  2  0  0  0
  1  2  2  0  0  0
  1  5  1  0  0  0
  2  3  1  0  0  0
  2  6  1  0  0  0
  3  4  2  0  0  0
  3 17  1  0  0  0
  4  5  1  0  0  0
  4 13  1  0  0  0
 13 14  2  0  0  0
 13 15  1  0  0  0
 17 18  1  0  0  0
 18 19  1  0  0  0
 19 20  2  0  0  0
 19 21  1  0  0  0
 15 16  1  0  0  0
 21 22  1  0  0  0
M  END
> <minimizedAffinity>
-5.88756

$$$$
2H4K_509_A_300


 22 23  0  0  0  0  0  0  0  0999 V2000
   45.0968   15.0492    1.6623 C   0  0  0  0  0  0  0  0  0  0  0  0
   45.2243   13.7457    1.2882 C   0  0  0  0  0  0  0  0  0  0  0  0
   44.6231   13.3909    0.0610 C   0  0  0  0  0  0  0  0  0  0  0  0
   44.0343   14.4940   -0.5113 C   0  0  0  0  0  0  0  0  0  0  0  0
   44.2230   15.8913    0.4633 S   0  0  0  0  0  0  0  0  0  0  0  0
   46.0933   12.4597    2.3287 Br  0  0  0  0  0  0  0  0  0  0  0  0
   46.6498   16.8887    5.1651 C   0  0  0  0  0  0  0  0  0  0  0  0
   47.4943   16.6324    4.0784 C   0  0  0  0  0  0  0  0  0  0  0  0
   46.9885   16.0234    2.9253 C   0  0  0  0  0  0  0  0  0  0  0  0
   45.6220   15.6978    2.8559 C   0  0  0  0  0  0  0  0  0  0  0  0
   44.7808   15.9563    3.9534 C   0  0  0  0  0  0  0  0  0  0  0  0
   45.2936   16.5577    5.1070 C   0  0  0  0  0  0  0  0  0  0  0  0
   43.2565   14.5356   -1.8724 C   0  0  0  0  0  0  0  0  0  0  0  0
   42.3717   15.4357   -1.9480 O   0  0  0  0  0  0  0  0  0  0  0  0
   43.5597   13.6772   -2.7555 O   0  0  0  0  0  0  0  0  0  0  0  0
   44.2382   13.0529   -2.5885 H   0  0  0  0  0  0  0  0  0  0  0  0
   44.6507   12.1397   -0.4536 O   0  0  0  0  0  0  0  0  0  0  0  0
   45.8365   11.8228   -1.1983 C   0  0  0  0  0  0  0  0  0  0  0  0
   46.2705   10.3876   -0.8583 C   0  0  0  0  0  0  0  0  0  0  0  0
   45.4252    9.7213   -0.2257 O   0  0  0  0  0  0  0  0  0  0  0  0
   47.4042    9.9982   -1.2200 O   0  0  0  0  0  0  0  0  0  0  0  0
   47.9693   10.5766   -1.6934 H   0  0  0  0  0  0  0  0  0  0  0  0
  7  8  2  0  0  0
  7 12  1  0  0  0
  8  9  1  0  0  0
  9 10  2  0  0  0
 10 11  1  0  0  0
 10  1  1  0  0  0
 11 12  2  0  0  0
  1  2  2  0  0  0
  1  5  1  0  0  0
  2  3  1  0  0  0
  2  6  1  0  0  0
  3  4  2  0  0  0
  3 17  1  0  0  0
  4  5  1  0  0  0
  4 13  1  0  0  0
 13 14  2  0  0  0
 13 15  1  0  0  0
 17 18  1  0  0  0
 18 19  1  0  0  0
 19 20  2  0  0  0
 19 21  1  0  0  0
 15 16  1  0  0  0
 21 22  1  0  0  0
M  END
> <minimizedAffinity>
-5.76080

$$$$
