3NEE_B72_A_1


 26 27  0  0  0  0  0  0  0  0999 V2000
  -21.9899   -0.0436   -7.6115 C   0  0  0  0  0  0  0  0  0  0  0  0
  -21.2828    0.8098   -6.7816 C   0  0  0  0  0  0  0  0  0  0  0  0
  -21.2800    0.6061   -5.4104 C   0  0  0  0  0  0  0  0  0  0  0  0
  -20.4894    1.5666   -4.5106 C   0  0  0  0  0  0  0  0  0  0  0  0
  -21.9904   -0.4471   -4.8385 C   0  0  0  0  0  0  0  0  0  0  0  0
  -22.6884   -1.3105   -5.6900 C   0  0  0  0  0  0  0  0  0  0  0  0
  -22.6952   -1.1120   -7.0697 C   0  0  0  0  0  0  0  0  0  0  0  0
  -23.4712   -2.4873   -5.0901 C   0  0  0  0  0  0  0  0  0  0  0  0
  -21.9595    0.1849   -8.9493 O   0  0  0  0  0  0  0  0  0  0  0  0
  -21.1387    1.3658   -9.1500 C   0  0  0  0  0  0  0  0  0  0  0  0
  -21.6442    3.4900  -10.1287 O   0  0  0  0  0  0  0  0  0  0  0  0
  -21.8773    2.2586  -10.1397 C   0  0  0  0  0  0  0  0  0  0  0  0
  -22.6901    1.6941  -10.9008 O   0  0  0  0  0  0  0  0  0  0  0  0
  -21.0185    3.8430   -9.5271 H   0  0  0  0  0  0  0  0  0  0  0  0
  -21.9375   -0.6508   -3.3158 C   0  0  0  0  0  0  0  0  0  0  0  0
  -22.9300    0.1850   -2.5015 C   0  0  0  0  0  0  0  0  0  0  0  0
  -22.6421    0.3894   -1.1546 C   0  0  0  0  0  0  0  0  0  0  0  0
  -23.4898    1.1436   -0.3515 C   0  0  0  0  0  0  0  0  0  0  0  0
  -24.6339    1.6936   -0.9148 C   0  0  0  0  0  0  0  0  0  0  0  0
  -25.4737    2.4154   -0.1363 O   0  0  0  0  0  0  0  0  0  0  0  0
  -24.9255    1.4916   -2.2606 C   0  0  0  0  0  0  0  0  0  0  0  0
  -24.0761    0.7405   -3.0661 C   0  0  0  0  0  0  0  0  0  0  0  0
  -25.2742    2.5494    0.7694 H   0  0  0  0  0  0  0  0  0  0  0  0
  -23.1673    1.3615    1.1367 C   0  0  0  0  0  0  0  0  0  0  0  0
  -23.3450    0.0374    1.8718 C   0  0  0  0  0  0  0  0  0  0  0  0
  -21.7234    1.8310    1.2876 C   0  0  0  0  0  0  0  0  0  0  0  0
 12 13  2  0  0  0
 12 11  1  0  0  0
 10 12  1  0  0  0
  9 10  1  0  0  0
  1  9  1  0  0  0
  2  1  1  0  0  0
  3  2  2  0  0  0
  4  3  1  0  0  0
  5  6  2  0  0  0
  5  3  1  0  0  0
  6  7  1  0  0  0
  7  1  2  0  0  0
  8  6  1  0  0  0
 15  5  1  0  0  0
 16 22  1  0  0  0
 16 15  1  0  0  0
 17 16  2  0  0  0
 18 19  2  0  0  0
 18 17  1  0  0  0
 24 18  1  0  0  0
 24 26  1  0  0  0
 25 24  1  0  0  0
 19 21  1  0  0  0
 20 19  1  0  0  0
 21 22  2  0  0  0
 11 14  1  0  0  0
 20 23  1  0  0  0
M  END
> <minimizedAffinity>
-8.37080

$$$$
3NEE_B72_A_1


 26 27  0  0  0  0  0  0  0  0999 V2000
  -21.7764    0.0138   -7.5269 C   0  0  0  0  0  0  0  0  0  0  0  0
  -22.4550   -0.7550   -6.5966 C   0  0  0  0  0  0  0  0  0  0  0  0
  -22.3420   -0.4743   -5.2437 C   0  0  0  0  0  0  0  0  0  0  0  0
  -23.1032   -1.3418   -4.2311 C   0  0  0  0  0  0  0  0  0  0  0  0
  -21.5423    0.5728   -4.7910 C   0  0  0  0  0  0  0  0  0  0  0  0
  -20.8740    1.3509   -5.7427 C   0  0  0  0  0  0  0  0  0  0  0  0
  -20.9834    1.0746   -7.1046 C   0  0  0  0  0  0  0  0  0  0  0  0
  -19.9945    2.5192   -5.2749 C   0  0  0  0  0  0  0  0  0  0  0  0
  -21.9210   -0.2881   -8.8424 O   0  0  0  0  0  0  0  0  0  0  0  0
  -22.4037   -1.6562   -8.9037 C   0  0  0  0  0  0  0  0  0  0  0  0
  -21.8570   -3.5632  -10.2416 O   0  0  0  0  0  0  0  0  0  0  0  0
  -21.6471   -2.3454  -10.0327 C   0  0  0  0  0  0  0  0  0  0  0  0
  -20.8440   -1.6399  -10.6777 O   0  0  0  0  0  0  0  0  0  0  0  0
  -22.4766   -4.0288   -9.7152 H   0  0  0  0  0  0  0  0  0  0  0  0
  -21.4675    0.8646   -3.2836 C   0  0  0  0  0  0  0  0  0  0  0  0
  -20.5535   -0.0613   -2.4750 C   0  0  0  0  0  0  0  0  0  0  0  0
  -20.8742   -0.2689   -1.1359 C   0  0  0  0  0  0  0  0  0  0  0  0
  -20.0981   -1.1021   -0.3385 C   0  0  0  0  0  0  0  0  0  0  0  0
  -18.9925   -1.7280   -0.8994 C   0  0  0  0  0  0  0  0  0  0  0  0
  -18.2214   -2.5277   -0.1260 O   0  0  0  0  0  0  0  0  0  0  0  0
  -18.6683   -1.5231   -2.2373 C   0  0  0  0  0  0  0  0  0  0  0  0
  -19.4463   -0.6929   -3.0372 C   0  0  0  0  0  0  0  0  0  0  0  0
  -18.4427   -2.6634    0.7744 H   0  0  0  0  0  0  0  0  0  0  0  0
  -20.4563   -1.3232    1.1410 C   0  0  0  0  0  0  0  0  0  0  0  0
  -20.0768   -0.0718    1.9255 C   0  0  0  0  0  0  0  0  0  0  0  0
  -21.9562   -1.5669    1.2771 C   0  0  0  0  0  0  0  0  0  0  0  0
 12 13  2  0  0  0
 12 11  1  0  0  0
 10 12  1  0  0  0
  9 10  1  0  0  0
  1  9  1  0  0  0
  2  1  1  0  0  0
  3  2  2  0  0  0
  4  3  1  0  0  0
  5  6  2  0  0  0
  5  3  1  0  0  0
  6  7  1  0  0  0
  7  1  2  0  0  0
  8  6  1  0  0  0
 15  5  1  0  0  0
 16 22  1  0  0  0
 16 15  1  0  0  0
 17 16  2  0  0  0
 18 19  2  0  0  0
 18 17  1  0  0  0
 24 18  1  0  0  0
 24 26  1  0  0  0
 25 24  1  0  0  0
 19 21  1  0  0  0
 20 19  1  0  0  0
 21 22  2  0  0  0
 11 14  1  0  0  0
 20 23  1  0  0  0
M  END
> <minimizedAffinity>
-8.36149

$$$$
3NEE_B72_A_1


 26 27  0  0  0  0  0  0  0  0999 V2000
  -21.4815    0.0495   -7.6515 C   0  0  0  0  0  0  0  0  0  0  0  0
  -20.7698    1.1147   -7.1264 C   0  0  0  0  0  0  0  0  0  0  0  0
  -20.7836    1.3581   -5.7617 C   0  0  0  0  0  0  0  0  0  0  0  0
  -19.9875    2.5462   -5.2032 C   0  0  0  0  0  0  0  0  0  0  0  0
  -21.5155    0.5498   -4.8945 C   0  0  0  0  0  0  0  0  0  0  0  0
  -22.2180   -0.5319   -5.4369 C   0  0  0  0  0  0  0  0  0  0  0  0
  -22.2082   -0.7828   -6.8080 C   0  0  0  0  0  0  0  0  0  0  0  0
  -23.0244   -1.4476   -4.5048 C   0  0  0  0  0  0  0  0  0  0  0  0
  -21.4344   -0.1602   -8.9919 O   0  0  0  0  0  0  0  0  0  0  0  0
  -22.3646   -1.2383   -9.2763 C   0  0  0  0  0  0  0  0  0  0  0  0
  -21.9275   -3.4463  -10.0880 O   0  0  0  0  0  0  0  0  0  0  0  0
  -21.6354   -2.2306  -10.1739 C   0  0  0  0  0  0  0  0  0  0  0  0
  -20.7703   -1.7580  -10.9400 O   0  0  0  0  0  0  0  0  0  0  0  0
  -22.5900   -3.7278   -9.4882 H   0  0  0  0  0  0  0  0  0  0  0  0
  -21.4807    0.8409   -3.3856 C   0  0  0  0  0  0  0  0  0  0  0  0
  -20.5740   -0.0736   -2.5560 C   0  0  0  0  0  0  0  0  0  0  0  0
  -20.8596   -0.1995   -1.1990 C   0  0  0  0  0  0  0  0  0  0  0  0
  -20.0878   -1.0170   -0.3815 C   0  0  0  0  0  0  0  0  0  0  0  0
  -19.0223   -1.7104   -0.9406 C   0  0  0  0  0  0  0  0  0  0  0  0
  -18.2551   -2.4958   -0.1486 O   0  0  0  0  0  0  0  0  0  0  0  0
  -18.7332   -1.5874   -2.2964 C   0  0  0  0  0  0  0  0  0  0  0  0
  -19.5071   -0.7728   -3.1162 C   0  0  0  0  0  0  0  0  0  0  0  0
  -18.4527   -2.5763    0.7638 H   0  0  0  0  0  0  0  0  0  0  0  0
  -20.4069   -1.1477    1.1176 C   0  0  0  0  0  0  0  0  0  0  0  0
  -20.6710    0.2442    1.6818 C   0  0  0  0  0  0  0  0  0  0  0  0
  -21.6504   -2.0114    1.3063 C   0  0  0  0  0  0  0  0  0  0  0  0
 12 13  2  0  0  0
 12 11  1  0  0  0
 10 12  1  0  0  0
  9 10  1  0  0  0
  1  9  1  0  0  0
  2  1  1  0  0  0
  3  2  2  0  0  0
  4  3  1  0  0  0
  5  6  2  0  0  0
  5  3  1  0  0  0
  6  7  1  0  0  0
  7  1  2  0  0  0
  8  6  1  0  0  0
 15  5  1  0  0  0
 16 22  1  0  0  0
 16 15  1  0  0  0
 17 16  2  0  0  0
 18 19  2  0  0  0
 18 17  1  0  0  0
 24 18  1  0  0  0
 24 26  1  0  0  0
 25 24  1  0  0  0
 19 21  1  0  0  0
 20 19  1  0  0  0
 21 22  2  0  0  0
 11 14  1  0  0  0
 20 23  1  0  0  0
M  END
> <minimizedAffinity>
-8.32534

$$$$
3NEE_B72_A_1


 26 27  0  0  0  0  0  0  0  0999 V2000
  -21.7503    0.0650   -7.6813 C   0  0  0  0  0  0  0  0  0  0  0  0
  -22.1621   -0.8275   -6.7062 C   0  0  0  0  0  0  0  0  0  0  0  0
  -21.8592   -0.5940   -5.3737 C   0  0  0  0  0  0  0  0  0  0  0  0
  -22.3257   -1.5989   -4.3108 C   0  0  0  0  0  0  0  0  0  0  0  0
  -21.1310    0.5294   -4.9881 C   0  0  0  0  0  0  0  0  0  0  0  0
  -20.7340    1.4306   -5.9821 C   0  0  0  0  0  0  0  0  0  0  0  0
  -21.0355    1.2024   -7.3237 C   0  0  0  0  0  0  0  0  0  0  0  0
  -19.9402    2.6839   -5.5865 C   0  0  0  0  0  0  0  0  0  0  0  0
  -22.0752   -0.1953   -8.9733 O   0  0  0  0  0  0  0  0  0  0  0  0
  -22.5340   -1.5724   -9.0166 C   0  0  0  0  0  0  0  0  0  0  0  0
  -21.8382   -3.5307  -10.2024 O   0  0  0  0  0  0  0  0  0  0  0  0
  -21.6202   -2.3162   -9.9829 C   0  0  0  0  0  0  0  0  0  0  0  0
  -20.6900   -1.6561  -10.4906 O   0  0  0  0  0  0  0  0  0  0  0  0
  -22.5578   -3.9607   -9.7838 H   0  0  0  0  0  0  0  0  0  0  0  0
  -20.8408    0.7620   -3.4966 C   0  0  0  0  0  0  0  0  0  0  0  0
  -22.0451    1.1749   -2.6447 C   0  0  0  0  0  0  0  0  0  0  0  0
  -22.0363    0.8077   -1.3016 C   0  0  0  0  0  0  0  0  0  0  0  0
  -23.0891    1.1526   -0.4619 C   0  0  0  0  0  0  0  0  0  0  0  0
  -24.1554    1.8728   -0.9844 C   0  0  0  0  0  0  0  0  0  0  0  0
  -25.1927    2.1985   -0.1780 O   0  0  0  0  0  0  0  0  0  0  0  0
  -24.1683    2.2417   -2.3263 C   0  0  0  0  0  0  0  0  0  0  0  0
  -23.1137    1.9007   -3.1666 C   0  0  0  0  0  0  0  0  0  0  0  0
  -25.1806    1.9485    0.7250 H   0  0  0  0  0  0  0  0  0  0  0  0
  -23.0742    0.7398    1.0198 C   0  0  0  0  0  0  0  0  0  0  0  0
  -22.4327   -0.6390    1.1341 C   0  0  0  0  0  0  0  0  0  0  0  0
  -22.2560    1.7438    1.8262 C   0  0  0  0  0  0  0  0  0  0  0  0
 12 13  2  0  0  0
 12 11  1  0  0  0
 10 12  1  0  0  0
  9 10  1  0  0  0
  1  9  1  0  0  0
  2  1  1  0  0  0
  3  2  2  0  0  0
  4  3  1  0  0  0
  5  6  2  0  0  0
  5  3  1  0  0  0
  6  7  1  0  0  0
  7  1  2  0  0  0
  8  6  1  0  0  0
 15  5  1  0  0  0
 16 22  1  0  0  0
 16 15  1  0  0  0
 17 16  2  0  0  0
 18 19  2  0  0  0
 18 17  1  0  0  0
 24 18  1  0  0  0
 24 26  1  0  0  0
 25 24  1  0  0  0
 19 21  1  0  0  0
 20 19  1  0  0  0
 21 22  2  0  0  0
 11 14  1  0  0  0
 20 23  1  0  0  0
M  END
> <minimizedAffinity>
-8.12514

$$$$
3NEE_B72_A_1


 26 27  0  0  0  0  0  0  0  0999 V2000
  -23.4814    1.0881    0.1681 C   0  0  0  0  0  0  0  0  0  0  0  0
  -23.4785    1.9555   -0.9110 C   0  0  0  0  0  0  0  0  0  0  0  0
  -22.6133    1.7448   -1.9734 C   0  0  0  0  0  0  0  0  0  0  0  0
  -22.6278    2.7211   -3.1582 C   0  0  0  0  0  0  0  0  0  0  0  0
  -21.7268    0.6700   -1.9764 C   0  0  0  0  0  0  0  0  0  0  0  0
  -21.7507   -0.2071   -0.8865 C   0  0  0  0  0  0  0  0  0  0  0  0
  -22.6183   -0.0015    0.1849 C   0  0  0  0  0  0  0  0  0  0  0  0
  -20.7935   -1.4074   -0.8667 C   0  0  0  0  0  0  0  0  0  0  0  0
  -24.3504    1.3244    1.1839 O   0  0  0  0  0  0  0  0  0  0  0  0
  -25.0349    2.5646    0.8645 C   0  0  0  0  0  0  0  0  0  0  0  0
  -27.1818    3.0146   -0.0912 O   0  0  0  0  0  0  0  0  0  0  0  0
  -26.4874    2.2090    0.5717 C   0  0  0  0  0  0  0  0  0  0  0  0
  -26.8995    1.1241    1.0321 O   0  0  0  0  0  0  0  0  0  0  0  0
  -26.8027    3.8119   -0.4051 H   0  0  0  0  0  0  0  0  0  0  0  0
  -20.8039    0.4597   -3.1876 C   0  0  0  0  0  0  0  0  0  0  0  0
  -21.4680   -0.1455   -4.4283 C   0  0  0  0  0  0  0  0  0  0  0  0
  -21.0443    0.3164   -5.6718 C   0  0  0  0  0  0  0  0  0  0  0  0
  -21.5930   -0.1898   -6.8444 C   0  0  0  0  0  0  0  0  0  0  0  0
  -22.5749   -1.1681   -6.7576 C   0  0  0  0  0  0  0  0  0  0  0  0
  -23.1267   -1.6546   -7.8940 O   0  0  0  0  0  0  0  0  0  0  0  0
  -23.0015   -1.6323   -5.5169 C   0  0  0  0  0  0  0  0  0  0  0  0
  -22.4504   -1.1296   -4.3430 C   0  0  0  0  0  0  0  0  0  0  0  0
  -22.8371   -1.3397   -8.7276 H   0  0  0  0  0  0  0  0  0  0  0  0
  -21.1227    0.3284   -8.2142 C   0  0  0  0  0  0  0  0  0  0  0  0
  -20.6665    1.7749   -8.0566 C   0  0  0  0  0  0  0  0  0  0  0  0
  -19.9537   -0.5167   -8.7111 C   0  0  0  0  0  0  0  0  0  0  0  0
 12 13  2  0  0  0
 12 11  1  0  0  0
 10 12  1  0  0  0
  9 10  1  0  0  0
  1  9  1  0  0  0
  2  1  1  0  0  0
  3  2  2  0  0  0
  4  3  1  0  0  0
  5  6  2  0  0  0
  5  3  1  0  0  0
  6  7  1  0  0  0
  7  1  2  0  0  0
  8  6  1  0  0  0
 15  5  1  0  0  0
 16 22  1  0  0  0
 16 15  1  0  0  0
 17 16  2  0  0  0
 18 19  2  0  0  0
 18 17  1  0  0  0
 24 18  1  0  0  0
 24 26  1  0  0  0
 25 24  1  0  0  0
 19 21  1  0  0  0
 20 19  1  0  0  0
 21 22  2  0  0  0
 11 14  1  0  0  0
 20 23  1  0  0  0
M  END
> <minimizedAffinity>
-7.84257

$$$$
3NEE_B72_A_1


 26 27  0  0  0  0  0  0  0  0999 V2000
  -20.3524   -1.0765    0.0177 C   0  0  0  0  0  0  0  0  0  0  0  0
  -20.3441   -1.8942   -1.0995 C   0  0  0  0  0  0  0  0  0  0  0  0
  -21.1036   -1.5644   -2.2114 C   0  0  0  0  0  0  0  0  0  0  0  0
  -21.0789   -2.4877   -3.4379 C   0  0  0  0  0  0  0  0  0  0  0  0
  -21.8942   -0.4174   -2.2275 C   0  0  0  0  0  0  0  0  0  0  0  0
  -21.8817    0.4077   -1.0976 C   0  0  0  0  0  0  0  0  0  0  0  0
  -21.1200    0.0825    0.0237 C   0  0  0  0  0  0  0  0  0  0  0  0
  -22.7338    1.6849   -1.0902 C   0  0  0  0  0  0  0  0  0  0  0  0
  -19.5877   -1.4301    1.0821 O   0  0  0  0  0  0  0  0  0  0  0  0
  -18.8319   -2.6026    0.6789 C   0  0  0  0  0  0  0  0  0  0  0  0
  -17.0412   -1.0837    1.1388 O   0  0  0  0  0  0  0  0  0  0  0  0
  -17.3565   -2.2613    0.8479 C   0  0  0  0  0  0  0  0  0  0  0  0
  -16.5447   -3.1928    0.6690 O   0  0  0  0  0  0  0  0  0  0  0  0
  -17.7077   -0.4361    1.2582 H   0  0  0  0  0  0  0  0  0  0  0  0
  -22.6995   -0.0768   -3.4918 C   0  0  0  0  0  0  0  0  0  0  0  0
  -21.9077    0.5901   -4.6210 C   0  0  0  0  0  0  0  0  0  0  0  0
  -22.2173    0.2190   -5.9269 C   0  0  0  0  0  0  0  0  0  0  0  0
  -21.5487    0.7855   -7.0059 C   0  0  0  0  0  0  0  0  0  0  0  0
  -20.5625    1.7323   -6.7616 C   0  0  0  0  0  0  0  0  0  0  0  0
  -19.8946    2.2768   -7.8057 O   0  0  0  0  0  0  0  0  0  0  0  0
  -20.2497    2.1059   -5.4580 C   0  0  0  0  0  0  0  0  0  0  0  0
  -20.9207    1.5427   -4.3777 C   0  0  0  0  0  0  0  0  0  0  0  0
  -20.1079    2.0229   -8.6820 H   0  0  0  0  0  0  0  0  0  0  0  0
  -21.8934    0.3674   -8.4455 C   0  0  0  0  0  0  0  0  0  0  0  0
  -21.1252   -0.9070   -8.7790 C   0  0  0  0  0  0  0  0  0  0  0  0
  -23.3906    0.0966   -8.5589 C   0  0  0  0  0  0  0  0  0  0  0  0
 12 13  2  0  0  0
 12 11  1  0  0  0
 10 12  1  0  0  0
  9 10  1  0  0  0
  1  9  1  0  0  0
  2  1  1  0  0  0
  3  2  2  0  0  0
  4  3  1  0  0  0
  5  6  2  0  0  0
  5  3  1  0  0  0
  6  7  1  0  0  0
  7  1  2  0  0  0
  8  6  1  0  0  0
 15  5  1  0  0  0
 16 22  1  0  0  0
 16 15  1  0  0  0
 17 16  2  0  0  0
 18 19  2  0  0  0
 18 17  1  0  0  0
 24 18  1  0  0  0
 24 26  1  0  0  0
 25 24  1  0  0  0
 19 21  1  0  0  0
 20 19  1  0  0  0
 21 22  2  0  0  0
 11 14  1  0  0  0
 20 23  1  0  0  0
M  END
> <minimizedAffinity>
-7.81692

$$$$
3NEE_B72_A_1


 26 27  0  0  0  0  0  0  0  0999 V2000
  -20.2719   -1.0709    0.0723 C   0  0  0  0  0  0  0  0  0  0  0  0
  -21.0392    0.0814    0.0613 C   0  0  0  0  0  0  0  0  0  0  0  0
  -21.8239    0.3868   -1.0400 C   0  0  0  0  0  0  0  0  0  0  0  0
  -22.6652    1.6711   -1.0293 C   0  0  0  0  0  0  0  0  0  0  0  0
  -21.8514   -0.4462   -2.1564 C   0  0  0  0  0  0  0  0  0  0  0  0
  -21.0827   -1.6150   -2.1258 C   0  0  0  0  0  0  0  0  0  0  0  0
  -20.2918   -1.9285   -1.0216 C   0  0  0  0  0  0  0  0  0  0  0  0
  -21.1016   -2.5588   -3.3367 C   0  0  0  0  0  0  0  0  0  0  0  0
  -19.5247   -1.3383    1.1736 O   0  0  0  0  0  0  0  0  0  0  0  0
  -18.8055   -2.5694    0.8984 C   0  0  0  0  0  0  0  0  0  0  0  0
  -16.5362   -3.0479    0.3096 O   0  0  0  0  0  0  0  0  0  0  0  0
  -17.3279   -2.2099    0.8012 C   0  0  0  0  0  0  0  0  0  0  0  0
  -16.9971   -1.0881    1.2383 O   0  0  0  0  0  0  0  0  0  0  0  0
  -16.8583   -3.8719    0.0012 H   0  0  0  0  0  0  0  0  0  0  0  0
  -22.7564   -0.0820   -3.3444 C   0  0  0  0  0  0  0  0  0  0  0  0
  -22.0355    0.4530   -4.5857 C   0  0  0  0  0  0  0  0  0  0  0  0
  -22.4440   -0.0348   -5.8243 C   0  0  0  0  0  0  0  0  0  0  0  0
  -21.8441    0.4083   -6.9974 C   0  0  0  0  0  0  0  0  0  0  0  0
  -20.8263    1.3496   -6.9161 C   0  0  0  0  0  0  0  0  0  0  0  0
  -20.2251    1.7742   -8.0522 O   0  0  0  0  0  0  0  0  0  0  0  0
  -20.4147    1.8396   -5.6802 C   0  0  0  0  0  0  0  0  0  0  0  0
  -21.0168    1.4001   -4.5060 C   0  0  0  0  0  0  0  0  0  0  0  0
  -20.5048    1.4421   -8.8825 H   0  0  0  0  0  0  0  0  0  0  0  0
  -22.2981   -0.1383   -8.3617 C   0  0  0  0  0  0  0  0  0  0  0  0
  -22.3658   -1.6594   -8.2781 C   0  0  0  0  0  0  0  0  0  0  0  0
  -23.6810    0.4090   -8.7018 C   0  0  0  0  0  0  0  0  0  0  0  0
 12 13  2  0  0  0
 12 11  1  0  0  0
 10 12  1  0  0  0
  9 10  1  0  0  0
  1  9  1  0  0  0
  2  1  1  0  0  0
  3  2  2  0  0  0
  4  3  1  0  0  0
  5  6  2  0  0  0
  5  3  1  0  0  0
  6  7  1  0  0  0
  7  1  2  0  0  0
  8  6  1  0  0  0
 15  5  1  0  0  0
 16 22  1  0  0  0
 16 15  1  0  0  0
 17 16  2  0  0  0
 18 19  2  0  0  0
 18 17  1  0  0  0
 24 18  1  0  0  0
 24 26  1  0  0  0
 25 24  1  0  0  0
 19 21  1  0  0  0
 20 19  1  0  0  0
 21 22  2  0  0  0
 11 14  1  0  0  0
 20 23  1  0  0  0
M  END
> <minimizedAffinity>
-7.77071

$$$$
3NEE_B72_A_1


 26 27  0  0  0  0  0  0  0  0999 V2000
  -21.7581    0.1597    0.0948 C   0  0  0  0  0  0  0  0  0  0  0  0
  -21.0344   -0.7974   -0.5960 C   0  0  0  0  0  0  0  0  0  0  0  0
  -21.3023   -1.0439   -1.9336 C   0  0  0  0  0  0  0  0  0  0  0  0
  -20.4871   -2.1110   -2.6780 C   0  0  0  0  0  0  0  0  0  0  0  0
  -22.3039   -0.3475   -2.6065 C   0  0  0  0  0  0  0  0  0  0  0  0
  -23.0173    0.6272   -1.9004 C   0  0  0  0  0  0  0  0  0  0  0  0
  -22.7530    0.8806   -0.5554 C   0  0  0  0  0  0  0  0  0  0  0  0
  -24.1194    1.4193   -2.6182 C   0  0  0  0  0  0  0  0  0  0  0  0
  -21.4585    0.3773    1.4008 O   0  0  0  0  0  0  0  0  0  0  0  0
  -21.4593    1.8167    1.5926 C   0  0  0  0  0  0  0  0  0  0  0  0
  -21.4622    3.0029    3.6707 O   0  0  0  0  0  0  0  0  0  0  0  0
  -21.9790    2.0781    3.0010 C   0  0  0  0  0  0  0  0  0  0  0  0
  -22.8935    1.3306    3.4056 O   0  0  0  0  0  0  0  0  0  0  0  0
  -20.7777    3.5241    3.2994 H   0  0  0  0  0  0  0  0  0  0  0  0
  -22.5486   -0.6348   -4.0966 C   0  0  0  0  0  0  0  0  0  0  0  0
  -21.7950    0.2690   -5.0772 C   0  0  0  0  0  0  0  0  0  0  0  0
  -21.9976    0.0489   -6.4372 C   0  0  0  0  0  0  0  0  0  0  0  0
  -21.3559    0.8329   -7.3890 C   0  0  0  0  0  0  0  0  0  0  0  0
  -20.5055    1.8444   -6.9620 C   0  0  0  0  0  0  0  0  0  0  0  0
  -19.8635    2.6019   -7.8821 O   0  0  0  0  0  0  0  0  0  0  0  0
  -20.3000    2.0677   -5.6037 C   0  0  0  0  0  0  0  0  0  0  0  0
  -20.9445    1.2866   -4.6504 C   0  0  0  0  0  0  0  0  0  0  0  0
  -20.0043    2.4487   -8.7957 H   0  0  0  0  0  0  0  0  0  0  0  0
  -21.5815    0.5810   -8.8896 C   0  0  0  0  0  0  0  0  0  0  0  0
  -20.7140   -0.5966   -9.3209 C   0  0  0  0  0  0  0  0  0  0  0  0
  -23.0482    0.2440   -9.1407 C   0  0  0  0  0  0  0  0  0  0  0  0
 12 13  2  0  0  0
 12 11  1  0  0  0
 10 12  1  0  0  0
  9 10  1  0  0  0
  1  9  1  0  0  0
  2  1  1  0  0  0
  3  2  2  0  0  0
  4  3  1  0  0  0
  5  6  2  0  0  0
  5  3  1  0  0  0
  6  7  1  0  0  0
  7  1  2  0  0  0
  8  6  1  0  0  0
 15  5  1  0  0  0
 16 22  1  0  0  0
 16 15  1  0  0  0
 17 16  2  0  0  0
 18 19  2  0  0  0
 18 17  1  0  0  0
 24 18  1  0  0  0
 24 26  1  0  0  0
 25 24  1  0  0  0
 19 21  1  0  0  0
 20 19  1  0  0  0
 21 22  2  0  0  0
 11 14  1  0  0  0
 20 23  1  0  0  0
M  END
> <minimizedAffinity>
-7.75335

$$$$
3NEE_B72_A_1


 26 27  0  0  0  0  0  0  0  0999 V2000
  -21.9982   -0.4056    0.1130 C   0  0  0  0  0  0  0  0  0  0  0  0
  -22.6067    0.6352   -0.5678 C   0  0  0  0  0  0  0  0  0  0  0  0
  -22.2525    0.9129   -1.8790 C   0  0  0  0  0  0  0  0  0  0  0  0
  -22.9405    2.0729   -2.6127 C   0  0  0  0  0  0  0  0  0  0  0  0
  -21.2772    0.1643   -2.5342 C   0  0  0  0  0  0  0  0  0  0  0  0
  -20.6811   -0.8938   -1.8394 C   0  0  0  0  0  0  0  0  0  0  0  0
  -21.0327   -1.1790   -0.5210 C   0  0  0  0  0  0  0  0  0  0  0  0
  -19.6112   -1.7443   -2.5391 C   0  0  0  0  0  0  0  0  0  0  0  0
  -22.3801   -0.6506    1.3924 O   0  0  0  0  0  0  0  0  0  0  0  0
  -21.7452   -1.8966    1.7836 C   0  0  0  0  0  0  0  0  0  0  0  0
  -22.3880   -2.5870    3.9826 O   0  0  0  0  0  0  0  0  0  0  0  0
  -21.6153   -1.8728    3.3017 C   0  0  0  0  0  0  0  0  0  0  0  0
  -20.7396   -1.1191    3.7747 O   0  0  0  0  0  0  0  0  0  0  0  0
  -23.0223   -3.1292    3.5564 H   0  0  0  0  0  0  0  0  0  0  0  0
  -20.9350    0.4907   -3.9968 C   0  0  0  0  0  0  0  0  0  0  0  0
  -21.6832   -0.3315   -5.0508 C   0  0  0  0  0  0  0  0  0  0  0  0
  -21.4035   -0.0653   -6.3887 C   0  0  0  0  0  0  0  0  0  0  0  0
  -22.0355   -0.7748   -7.4033 C   0  0  0  0  0  0  0  0  0  0  0  0
  -22.9546   -1.7583   -7.0619 C   0  0  0  0  0  0  0  0  0  0  0  0
  -23.5872   -2.4426   -8.0437 O   0  0  0  0  0  0  0  0  0  0  0  0
  -23.2372   -2.0275   -5.7260 C   0  0  0  0  0  0  0  0  0  0  0  0
  -22.6026   -1.3211   -4.7098 C   0  0  0  0  0  0  0  0  0  0  0  0
  -23.3944   -2.2587   -8.9421 H   0  0  0  0  0  0  0  0  0  0  0  0
  -21.7244   -0.4721   -8.8791 C   0  0  0  0  0  0  0  0  0  0  0  0
  -22.4357    0.8185   -9.2712 C   0  0  0  0  0  0  0  0  0  0  0  0
  -20.2204   -0.2934   -9.0624 C   0  0  0  0  0  0  0  0  0  0  0  0
 12 13  2  0  0  0
 12 11  1  0  0  0
 10 12  1  0  0  0
  9 10  1  0  0  0
  1  9  1  0  0  0
  2  1  1  0  0  0
  3  2  2  0  0  0
  4  3  1  0  0  0
  5  6  2  0  0  0
  5  3  1  0  0  0
  6  7  1  0  0  0
  7  1  2  0  0  0
  8  6  1  0  0  0
 15  5  1  0  0  0
 16 22  1  0  0  0
 16 15  1  0  0  0
 17 16  2  0  0  0
 18 19  2  0  0  0
 18 17  1  0  0  0
 24 18  1  0  0  0
 24 26  1  0  0  0
 25 24  1  0  0  0
 19 21  1  0  0  0
 20 19  1  0  0  0
 21 22  2  0  0  0
 11 14  1  0  0  0
 20 23  1  0  0  0
M  END
> <minimizedAffinity>
-7.66025

$$$$
3NEE_B72_A_1


 26 27  0  0  0  0  0  0  0  0999 V2000
  -21.2376   -0.3334   -7.3911 C   0  0  0  0  0  0  0  0  0  0  0  0
  -20.5741    0.8146   -6.9926 C   0  0  0  0  0  0  0  0  0  0  0  0
  -20.8216    1.3663   -5.7451 C   0  0  0  0  0  0  0  0  0  0  0  0
  -20.0743    2.6404   -5.3263 C   0  0  0  0  0  0  0  0  0  0  0  0
  -21.7430    0.7893   -4.8738 C   0  0  0  0  0  0  0  0  0  0  0  0
  -22.3953   -0.3788   -5.2833 C   0  0  0  0  0  0  0  0  0  0  0  0
  -22.1510   -0.9392   -6.5360 C   0  0  0  0  0  0  0  0  0  0  0  0
  -23.4077   -1.0443   -4.3400 C   0  0  0  0  0  0  0  0  0  0  0  0
  -20.9600   -0.8470   -8.6166 O   0  0  0  0  0  0  0  0  0  0  0  0
  -21.8525   -0.1891   -9.5542 C   0  0  0  0  0  0  0  0  0  0  0  0
  -20.9817   -1.8539  -11.0358 O   0  0  0  0  0  0  0  0  0  0  0  0
  -21.5148   -0.7237  -10.9406 C   0  0  0  0  0  0  0  0  0  0  0  0
  -21.7854    0.0201  -11.9062 O   0  0  0  0  0  0  0  0  0  0  0  0
  -20.8082   -2.3566  -10.2643 H   0  0  0  0  0  0  0  0  0  0  0  0
  -21.9662    1.4199   -3.4898 C   0  0  0  0  0  0  0  0  0  0  0  0
  -21.4527    0.6031   -2.3000 C   0  0  0  0  0  0  0  0  0  0  0  0
  -20.4032   -0.2815   -2.5348 C   0  0  0  0  0  0  0  0  0  0  0  0
  -19.8767   -1.0517   -1.5044 C   0  0  0  0  0  0  0  0  0  0  0  0
  -20.4149   -0.9255   -0.2304 C   0  0  0  0  0  0  0  0  0  0  0  0
  -19.9195   -1.6839    0.7755 O   0  0  0  0  0  0  0  0  0  0  0  0
  -21.4640   -0.0428    0.0088 C   0  0  0  0  0  0  0  0  0  0  0  0
  -21.9890    0.7314   -1.0206 C   0  0  0  0  0  0  0  0  0  0  0  0
  -19.2132   -2.2772    0.6109 H   0  0  0  0  0  0  0  0  0  0  0  0
  -18.7201   -2.0297   -1.7725 C   0  0  0  0  0  0  0  0  0  0  0  0
  -18.7281   -2.3984   -3.2522 C   0  0  0  0  0  0  0  0  0  0  0  0
  -17.3916   -1.3638   -1.4270 C   0  0  0  0  0  0  0  0  0  0  0  0
 12 13  2  0  0  0
 12 11  1  0  0  0
 10 12  1  0  0  0
  9 10  1  0  0  0
  1  9  1  0  0  0
  2  1  1  0  0  0
  3  2  2  0  0  0
  4  3  1  0  0  0
  5  6  2  0  0  0
  5  3  1  0  0  0
  6  7  1  0  0  0
  7  1  2  0  0  0
  8  6  1  0  0  0
 15  5  1  0  0  0
 16 22  1  0  0  0
 16 15  1  0  0  0
 17 16  2  0  0  0
 18 19  2  0  0  0
 18 17  1  0  0  0
 24 18  1  0  0  0
 24 26  1  0  0  0
 25 24  1  0  0  0
 19 21  1  0  0  0
 20 19  1  0  0  0
 21 22  2  0  0  0
 11 14  1  0  0  0
 20 23  1  0  0  0
M  END
> <minimizedAffinity>
-7.65937

$$$$
