6EIQ_B6Z_A_501


 33 36  0  0  0  0  0  0  0  0999 V2000
    1.9351  -28.8343   -9.5921 N   0  0  0  0  0  0  0  0  0  0  0  0
    1.1593  -28.4807   -9.0999 H   0  0  0  0  0  0  0  0  0  0  0  0
    2.5303  -28.0337  -10.4905 C   0  0  0  0  0  0  0  0  0  0  0  0
    3.7213  -28.3566  -11.6132 S   0  0  0  0  0  0  0  0  0  0  0  0
    2.2036  -26.7393  -10.5756 N   0  0  0  0  0  0  0  0  0  0  0  0
    2.8746  -26.0382  -11.5099 C   0  0  0  0  0  0  0  0  0  0  0  0
    2.5916  -24.7403  -11.6451 N   0  0  0  0  0  0  0  0  0  0  0  0
    3.7726  -26.7613  -12.2054 C   0  0  0  0  0  0  0  0  0  0  0  0
    3.0649  -24.2009  -12.3190 H   0  0  0  0  0  0  0  0  0  0  0  0
    1.9096  -24.3228  -11.0707 H   0  0  0  0  0  0  0  0  0  0  0  0
    4.5503  -26.2341  -13.1756 C   0  0  0  0  0  0  0  0  0  0  0  0
    4.0703  -25.9879  -14.2827 O   0  0  0  0  0  0  0  0  0  0  0  0
    5.9061  -25.9632  -12.9648 C   0  0  0  0  0  0  0  0  0  0  0  0
    6.5500  -24.8732  -13.5534 C   0  0  0  0  0  0  0  0  0  0  0  0
    7.8990  -24.6237  -13.2939 C   0  0  0  0  0  0  0  0  0  0  0  0
    8.6105  -25.4484  -12.4248 C   0  0  0  0  0  0  0  0  0  0  0  0
    7.9671  -26.5251  -11.8154 C   0  0  0  0  0  0  0  0  0  0  0  0
    6.6196  -26.7797  -12.0821 C   0  0  0  0  0  0  0  0  0  0  0  0
    3.0102  -32.8025   -8.9454 C   0  0  0  0  0  0  0  0  0  0  0  0
    1.8867  -32.4541   -9.6971 C   0  0  0  0  0  0  0  0  0  0  0  0
    1.5599  -31.1125   -9.8998 C   0  0  0  0  0  0  0  0  0  0  0  0
    3.8051  -31.7897   -8.3862 C   0  0  0  0  0  0  0  0  0  0  0  0
    3.4750  -30.4405   -8.5790 C   0  0  0  0  0  0  0  0  0  0  0  0
    2.3360  -30.0942   -9.3230 C   0  0  0  0  0  0  0  0  0  0  0  0
    2.2510  -35.1433   -8.8273 C   0  0  0  0  0  0  0  0  0  0  0  0
    2.4250  -35.8874   -7.5789 C   0  0  0  0  0  0  0  0  0  0  0  0
    3.6816  -36.6943   -7.7190 N   0  0  0  0  0  0  0  0  0  0  0  0
    3.4225  -38.0665   -8.2179 C   0  0  0  0  0  0  0  0  0  0  0  0
    4.7890  -36.1083   -8.5142 C   0  0  0  0  0  0  0  0  0  0  0  0
    4.6947  -34.5626   -8.5268 C   0  0  0  0  0  0  0  0  0  0  0  0
    3.3125  -34.1084   -8.7898 N   0  0  0  0  0  0  0  0  0  0  0  0
    0.4594  -30.7286  -10.6253 O   0  0  0  0  0  0  0  0  0  0  0  0
   -0.8410  -31.1001  -10.1225 C   0  0  0  0  0  0  0  0  0  0  0  0
 17 16  2  0  0  0
 17 18  1  0  0  0
 16 15  1  0  0  0
 18 13  2  0  0  0
 15 14  2  0  0  0
 13 14  1  0  0  0
 13 11  1  0  0  0
 12 11  2  0  0  0
 11  8  1  0  0  0
  8  4  1  0  0  0
  8  6  2  0  0  0
  4  3  1  0  0  0
  6  7  1  0  0  0
  6  5  1  0  0  0
  3  5  2  0  0  0
  3  1  1  0  0  0
 30 29  1  0  0  0
 30 31  1  0  0  0
 32 21  1  0  0  0
 32 33  1  0  0  0
  1 24  1  0  0  0
 21 24  2  0  0  0
 21 20  1  0  0  0
 24 23  1  0  0  0
 29 27  1  0  0  0
 20 19  2  0  0  0
 23 22  2  0  0  0
 19 22  1  0  0  0
 19 31  1  0  0  0
 31 25  1  0  0  0
 27 26  1  0  0  0
 27 28  1  0  0  0
 26 25  1  0  0  0
  1  2  1  0  0  0
  7  9  1  0  0  0
  7 10  1  0  0  0
M  END
> <minimizedAffinity>
-8.87056

$$$$
6EIQ_B6Z_A_501


 33 36  0  0  0  0  0  0  0  0999 V2000
    4.1024  -30.4867  -10.4862 N   0  0  0  0  0  0  0  0  0  0  0  0
    4.1833  -31.3122   -9.9559 H   0  0  0  0  0  0  0  0  0  0  0  0
    5.2019  -29.7353  -10.6552 C   0  0  0  0  0  0  0  0  0  0  0  0
    5.4391  -28.3389  -11.5364 S   0  0  0  0  0  0  0  0  0  0  0  0
    6.3604  -30.0794  -10.0813 N   0  0  0  0  0  0  0  0  0  0  0  0
    7.3928  -29.2508  -10.3307 C   0  0  0  0  0  0  0  0  0  0  0  0
    8.5763  -29.5395   -9.7839 N   0  0  0  0  0  0  0  0  0  0  0  0
    7.0861  -28.2084  -11.1259 C   0  0  0  0  0  0  0  0  0  0  0  0
    9.3502  -28.9533   -9.9474 H   0  0  0  0  0  0  0  0  0  0  0  0
    8.6750  -30.3384   -9.2172 H   0  0  0  0  0  0  0  0  0  0  0  0
    7.9890  -27.2758  -11.4990 C   0  0  0  0  0  0  0  0  0  0  0  0
    8.9712  -27.0527  -10.7905 O   0  0  0  0  0  0  0  0  0  0  0  0
    7.8383  -26.5365  -12.6766 C   0  0  0  0  0  0  0  0  0  0  0  0
    7.4232  -27.1187  -13.8757 C   0  0  0  0  0  0  0  0  0  0  0  0
    7.2591  -26.3381  -15.0217 C   0  0  0  0  0  0  0  0  0  0  0  0
    7.4860  -24.9641  -14.9730 C   0  0  0  0  0  0  0  0  0  0  0  0
    7.8782  -24.3728  -13.7726 C   0  0  0  0  0  0  0  0  0  0  0  0
    8.0508  -25.1554  -12.6283 C   0  0  0  0  0  0  0  0  0  0  0  0
    0.2965  -29.4728  -11.8310 C   0  0  0  0  0  0  0  0  0  0  0  0
    0.5827  -29.6333  -10.4742 C   0  0  0  0  0  0  0  0  0  0  0  0
    1.8726  -29.9668  -10.0582 C   0  0  0  0  0  0  0  0  0  0  0  0
    1.3174  -29.6591  -12.7763 C   0  0  0  0  0  0  0  0  0  0  0  0
    2.6125  -30.0038  -12.3636 C   0  0  0  0  0  0  0  0  0  0  0  0
    2.8930  -30.1790  -10.9992 C   0  0  0  0  0  0  0  0  0  0  0  0
   -1.2450  -28.6859  -13.5843 C   0  0  0  0  0  0  0  0  0  0  0  0
   -1.9062  -27.3901  -13.4235 C   0  0  0  0  0  0  0  0  0  0  0  0
   -3.2727  -27.6593  -12.8666 N   0  0  0  0  0  0  0  0  0  0  0  0
   -4.3034  -27.7814  -13.9258 C   0  0  0  0  0  0  0  0  0  0  0  0
   -3.4211  -28.8046  -11.9347 C   0  0  0  0  0  0  0  0  0  0  0  0
   -2.0758  -29.1174  -11.2343 C   0  0  0  0  0  0  0  0  0  0  0  0
   -0.9547  -29.1254  -12.1979 N   0  0  0  0  0  0  0  0  0  0  0  0
    2.1927  -30.1418   -8.7347 O   0  0  0  0  0  0  0  0  0  0  0  0
    1.1919  -30.7206   -7.8714 C   0  0  0  0  0  0  0  0  0  0  0  0
 17 16  2  0  0  0
 17 18  1  0  0  0
 16 15  1  0  0  0
 18 13  2  0  0  0
 15 14  2  0  0  0
 13 14  1  0  0  0
 13 11  1  0  0  0
 12 11  2  0  0  0
 11  8  1  0  0  0
  8  4  1  0  0  0
  8  6  2  0  0  0
  4  3  1  0  0  0
  6  7  1  0  0  0
  6  5  1  0  0  0
  3  5  2  0  0  0
  3  1  1  0  0  0
 30 29  1  0  0  0
 30 31  1  0  0  0
 32 21  1  0  0  0
 32 33  1  0  0  0
  1 24  1  0  0  0
 21 24  2  0  0  0
 21 20  1  0  0  0
 24 23  1  0  0  0
 29 27  1  0  0  0
 20 19  2  0  0  0
 23 22  2  0  0  0
 19 22  1  0  0  0
 19 31  1  0  0  0
 31 25  1  0  0  0
 27 26  1  0  0  0
 27 28  1  0  0  0
 26 25  1  0  0  0
  1  2  1  0  0  0
  7  9  1  0  0  0
  7 10  1  0  0  0
M  END
> <minimizedAffinity>
-8.57433

$$$$
6EIQ_B6Z_A_501


 33 36  0  0  0  0  0  0  0  0999 V2000
    4.9708  -28.0397  -12.8335 N   0  0  0  0  0  0  0  0  0  0  0  0
    5.8415  -27.8966  -13.2702 H   0  0  0  0  0  0  0  0  0  0  0  0
    4.9308  -28.8338  -11.7518 C   0  0  0  0  0  0  0  0  0  0  0  0
    3.6415  -29.3380  -10.8209 S   0  0  0  0  0  0  0  0  0  0  0  0
    6.0542  -29.3480  -11.2388 N   0  0  0  0  0  0  0  0  0  0  0  0
    5.8857  -30.1226  -10.1496 C   0  0  0  0  0  0  0  0  0  0  0  0
    6.9699  -30.6672   -9.5921 N   0  0  0  0  0  0  0  0  0  0  0  0
    4.6052  -30.2481   -9.7525 C   0  0  0  0  0  0  0  0  0  0  0  0
    6.8796  -31.2381   -8.7952 H   0  0  0  0  0  0  0  0  0  0  0  0
    7.8597  -30.4977   -9.9780 H   0  0  0  0  0  0  0  0  0  0  0  0
    4.2358  -30.9737   -8.6750 C   0  0  0  0  0  0  0  0  0  0  0  0
    4.3246  -30.4882   -7.5467 O   0  0  0  0  0  0  0  0  0  0  0  0
    3.7574  -32.2821   -8.7988 C   0  0  0  0  0  0  0  0  0  0  0  0
    4.5596  -33.3971   -8.5491 C   0  0  0  0  0  0  0  0  0  0  0  0
    4.0336  -34.6859   -8.6580 C   0  0  0  0  0  0  0  0  0  0  0  0
    2.6941  -34.8707   -8.9947 C   0  0  0  0  0  0  0  0  0  0  0  0
    1.8816  -33.7606   -9.2226 C   0  0  0  0  0  0  0  0  0  0  0  0
    2.4104  -32.4714   -9.1222 C   0  0  0  0  0  0  0  0  0  0  0  0
    1.7887  -25.9469  -14.5113 C   0  0  0  0  0  0  0  0  0  0  0  0
    3.0052  -25.3297  -14.2151 C   0  0  0  0  0  0  0  0  0  0  0  0
    4.0539  -26.0642  -13.6593 C   0  0  0  0  0  0  0  0  0  0  0  0
    1.6255  -27.3138  -14.2361 C   0  0  0  0  0  0  0  0  0  0  0  0
    2.6730  -28.0534  -13.6685 C   0  0  0  0  0  0  0  0  0  0  0  0
    3.8900  -27.4260  -13.3583 C   0  0  0  0  0  0  0  0  0  0  0  0
    0.8347  -23.7323  -15.0164 C   0  0  0  0  0  0  0  0  0  0  0  0
   -0.4578  -23.3636  -14.4371 C   0  0  0  0  0  0  0  0  0  0  0  0
   -1.5013  -23.6362  -15.4796 N   0  0  0  0  0  0  0  0  0  0  0  0
   -1.8040  -22.4424  -16.3056 C   0  0  0  0  0  0  0  0  0  0  0  0
   -1.2806  -24.7896  -16.3869 C   0  0  0  0  0  0  0  0  0  0  0  0
   -0.3669  -25.8453  -15.7169 C   0  0  0  0  0  0  0  0  0  0  0  0
    0.8039  -25.2140  -15.0716 N   0  0  0  0  0  0  0  0  0  0  0  0
    5.2623  -25.4930  -13.3460 O   0  0  0  0  0  0  0  0  0  0  0  0
    6.0762  -25.0025  -14.4317 C   0  0  0  0  0  0  0  0  0  0  0  0
 17 16  2  0  0  0
 17 18  1  0  0  0
 16 15  1  0  0  0
 18 13  2  0  0  0
 15 14  2  0  0  0
 13 14  1  0  0  0
 13 11  1  0  0  0
 12 11  2  0  0  0
 11  8  1  0  0  0
  8  4  1  0  0  0
  8  6  2  0  0  0
  4  3  1  0  0  0
  6  7  1  0  0  0
  6  5  1  0  0  0
  3  5  2  0  0  0
  3  1  1  0  0  0
 30 29  1  0  0  0
 30 31  1  0  0  0
 32 21  1  0  0  0
 32 33  1  0  0  0
  1 24  1  0  0  0
 21 24  2  0  0  0
 21 20  1  0  0  0
 24 23  1  0  0  0
 29 27  1  0  0  0
 20 19  2  0  0  0
 23 22  2  0  0  0
 19 22  1  0  0  0
 19 31  1  0  0  0
 31 25  1  0  0  0
 27 26  1  0  0  0
 27 28  1  0  0  0
 26 25  1  0  0  0
  1  2  1  0  0  0
  7  9  1  0  0  0
  7 10  1  0  0  0
M  END
> <minimizedAffinity>
-8.55100

$$$$
6EIQ_B6Z_A_501


 33 36  0  0  0  0  0  0  0  0999 V2000
    2.1515  -28.5263  -10.3670 N   0  0  0  0  0  0  0  0  0  0  0  0
    1.5450  -27.8501  -10.7467 H   0  0  0  0  0  0  0  0  0  0  0  0
    3.4624  -28.4200  -10.6363 C   0  0  0  0  0  0  0  0  0  0  0  0
    4.3558  -27.1262  -11.1939 S   0  0  0  0  0  0  0  0  0  0  0  0
    4.2792  -29.4684  -10.4841 N   0  0  0  0  0  0  0  0  0  0  0  0
    5.5703  -29.2396  -10.7930 C   0  0  0  0  0  0  0  0  0  0  0  0
    6.4363  -30.2473  -10.6597 N   0  0  0  0  0  0  0  0  0  0  0  0
    5.8255  -27.9853  -11.2110 C   0  0  0  0  0  0  0  0  0  0  0  0
    7.3867  -30.1116  -10.8775 H   0  0  0  0  0  0  0  0  0  0  0  0
    6.1243  -31.1259  -10.3436 H   0  0  0  0  0  0  0  0  0  0  0  0
    7.0563  -27.5668  -11.5770 C   0  0  0  0  0  0  0  0  0  0  0  0
    8.0502  -27.9854  -10.9825 O   0  0  0  0  0  0  0  0  0  0  0  0
    7.2421  -26.6522  -12.6186 C   0  0  0  0  0  0  0  0  0  0  0  0
    7.8749  -25.4224  -12.4283 C   0  0  0  0  0  0  0  0  0  0  0  0
    8.0644  -24.5505  -13.5023 C   0  0  0  0  0  0  0  0  0  0  0  0
    7.6435  -24.9105  -14.7809 C   0  0  0  0  0  0  0  0  0  0  0  0
    7.0317  -26.1473  -14.9819 C   0  0  0  0  0  0  0  0  0  0  0  0
    6.8343  -27.0159  -13.9056 C   0  0  0  0  0  0  0  0  0  0  0  0
    0.4010  -31.6457   -8.2396 C   0  0  0  0  0  0  0  0  0  0  0  0
    0.0689  -31.3798   -9.5691 C   0  0  0  0  0  0  0  0  0  0  0  0
    0.6814  -30.3295  -10.2544 C   0  0  0  0  0  0  0  0  0  0  0  0
    1.3517  -30.8400   -7.5934 C   0  0  0  0  0  0  0  0  0  0  0  0
    1.9624  -29.7774   -8.2750 C   0  0  0  0  0  0  0  0  0  0  0  0
    1.6150  -29.5039   -9.6074 C   0  0  0  0  0  0  0  0  0  0  0  0
    0.4512  -33.3322   -6.4443 C   0  0  0  0  0  0  0  0  0  0  0  0
    0.5061  -34.7509   -6.7999 C   0  0  0  0  0  0  0  0  0  0  0  0
   -0.8984  -35.2742   -6.7407 N   0  0  0  0  0  0  0  0  0  0  0  0
   -1.2284  -35.8663   -5.4218 C   0  0  0  0  0  0  0  0  0  0  0  0
   -1.9928  -34.3488   -7.1255 C   0  0  0  0  0  0  0  0  0  0  0  0
   -1.4700  -33.2540   -8.0880 C   0  0  0  0  0  0  0  0  0  0  0  0
   -0.1909  -32.6844   -7.6137 N   0  0  0  0  0  0  0  0  0  0  0  0
    0.3766  -30.0303  -11.5592 O   0  0  0  0  0  0  0  0  0  0  0  0
   -1.0104  -29.8149  -11.8936 C   0  0  0  0  0  0  0  0  0  0  0  0
 17 16  2  0  0  0
 17 18  1  0  0  0
 16 15  1  0  0  0
 18 13  2  0  0  0
 15 14  2  0  0  0
 13 14  1  0  0  0
 13 11  1  0  0  0
 12 11  2  0  0  0
 11  8  1  0  0  0
  8  4  1  0  0  0
  8  6  2  0  0  0
  4  3  1  0  0  0
  6  7  1  0  0  0
  6  5  1  0  0  0
  3  5  2  0  0  0
  3  1  1  0  0  0
 30 29  1  0  0  0
 30 31  1  0  0  0
 32 21  1  0  0  0
 32 33  1  0  0  0
  1 24  1  0  0  0
 21 24  2  0  0  0
 21 20  1  0  0  0
 24 23  1  0  0  0
 29 27  1  0  0  0
 20 19  2  0  0  0
 23 22  2  0  0  0
 19 22  1  0  0  0
 19 31  1  0  0  0
 31 25  1  0  0  0
 27 26  1  0  0  0
 27 28  1  0  0  0
 26 25  1  0  0  0
  1  2  1  0  0  0
  7  9  1  0  0  0
  7 10  1  0  0  0
M  END
> <minimizedAffinity>
-8.38864

$$$$
6EIQ_B6Z_A_501


 33 36  0  0  0  0  0  0  0  0999 V2000
    1.3549  -29.5190   -9.9519 N   0  0  0  0  0  0  0  0  0  0  0  0
    0.4548  -29.2618   -9.6472 H   0  0  0  0  0  0  0  0  0  0  0  0
    2.0162  -28.6690  -10.7533 C   0  0  0  0  0  0  0  0  0  0  0  0
    3.1193  -27.4707  -10.3924 S   0  0  0  0  0  0  0  0  0  0  0  0
    1.8226  -28.6859  -12.0769 N   0  0  0  0  0  0  0  0  0  0  0  0
    2.5374  -27.7810  -12.7731 C   0  0  0  0  0  0  0  0  0  0  0  0
    2.3894  -27.7495  -14.0998 N   0  0  0  0  0  0  0  0  0  0  0  0
    3.3310  -27.0008  -12.0151 C   0  0  0  0  0  0  0  0  0  0  0  0
    2.8980  -27.0995  -14.6366 H   0  0  0  0  0  0  0  0  0  0  0  0
    1.7717  -28.3762  -14.5412 H   0  0  0  0  0  0  0  0  0  0  0  0
    4.1147  -26.0279  -12.5281 C   0  0  0  0  0  0  0  0  0  0  0  0
    3.6055  -25.0800  -13.1272 O   0  0  0  0  0  0  0  0  0  0  0  0
    5.5076  -26.0664  -12.4085 C   0  0  0  0  0  0  0  0  0  0  0  0
    6.1671  -27.0561  -11.6772 C   0  0  0  0  0  0  0  0  0  0  0  0
    7.5615  -27.0729  -11.6067 C   0  0  0  0  0  0  0  0  0  0  0  0
    8.3099  -26.1138  -12.2862 C   0  0  0  0  0  0  0  0  0  0  0  0
    7.6580  -25.1365  -13.0374 C   0  0  0  0  0  0  0  0  0  0  0  0
    6.2626  -25.1146  -13.1006 C   0  0  0  0  0  0  0  0  0  0  0  0
    2.6487  -33.2276   -8.5759 C   0  0  0  0  0  0  0  0  0  0  0  0
    1.4546  -32.6523   -8.1382 C   0  0  0  0  0  0  0  0  0  0  0  0
    1.0478  -31.4097   -8.6265 C   0  0  0  0  0  0  0  0  0  0  0  0
    3.4433  -32.5399   -9.5067 C   0  0  0  0  0  0  0  0  0  0  0  0
    3.0434  -31.2867   -9.9926 C   0  0  0  0  0  0  0  0  0  0  0  0
    1.8492  -30.7045   -9.5388 C   0  0  0  0  0  0  0  0  0  0  0  0
    4.4235  -34.8574   -8.0624 C   0  0  0  0  0  0  0  0  0  0  0  0
    4.4499  -36.1328   -8.7799 C   0  0  0  0  0  0  0  0  0  0  0  0
    3.7815  -37.1469   -7.8998 N   0  0  0  0  0  0  0  0  0  0  0  0
    4.7464  -37.8830   -7.0477 C   0  0  0  0  0  0  0  0  0  0  0  0
    2.6614  -36.6820   -7.0446 C   0  0  0  0  0  0  0  0  0  0  0  0
    1.9925  -35.4256   -7.6548 C   0  0  0  0  0  0  0  0  0  0  0  0
    3.0006  -34.4416   -8.1033 N   0  0  0  0  0  0  0  0  0  0  0  0
   -0.1148  -30.8064   -8.2152 O   0  0  0  0  0  0  0  0  0  0  0  0
   -1.3580  -31.4871   -8.4855 C   0  0  0  0  0  0  0  0  0  0  0  0
 17 16  2  0  0  0
 17 18  1  0  0  0
 16 15  1  0  0  0
 18 13  2  0  0  0
 15 14  2  0  0  0
 13 14  1  0  0  0
 13 11  1  0  0  0
 12 11  2  0  0  0
 11  8  1  0  0  0
  8  4  1  0  0  0
  8  6  2  0  0  0
  4  3  1  0  0  0
  6  7  1  0  0  0
  6  5  1  0  0  0
  3  5  2  0  0  0
  3  1  1  0  0  0
 30 29  1  0  0  0
 30 31  1  0  0  0
 32 21  1  0  0  0
 32 33  1  0  0  0
  1 24  1  0  0  0
 21 24  2  0  0  0
 21 20  1  0  0  0
 24 23  1  0  0  0
 29 27  1  0  0  0
 20 19  2  0  0  0
 23 22  2  0  0  0
 19 22  1  0  0  0
 19 31  1  0  0  0
 31 25  1  0  0  0
 27 26  1  0  0  0
 27 28  1  0  0  0
 26 25  1  0  0  0
  1  2  1  0  0  0
  7  9  1  0  0  0
  7 10  1  0  0  0
M  END
> <minimizedAffinity>
-8.37908

$$$$
6EIQ_B6Z_A_501


 33 36  0  0  0  0  0  0  0  0999 V2000
    1.7443  -29.4970   -8.5542 N   0  0  0  0  0  0  0  0  0  0  0  0
    1.2204  -28.8556   -8.0219 H   0  0  0  0  0  0  0  0  0  0  0  0
    1.5097  -30.8065   -8.3737 C   0  0  0  0  0  0  0  0  0  0  0  0
    1.5985  -32.0839   -9.4429 S   0  0  0  0  0  0  0  0  0  0  0  0
    1.1177  -31.2734   -7.1829 N   0  0  0  0  0  0  0  0  0  0  0  0
    0.9070  -32.6028   -7.1288 C   0  0  0  0  0  0  0  0  0  0  0  0
    0.5159  -33.1301   -5.9660 N   0  0  0  0  0  0  0  0  0  0  0  0
    1.1233  -33.2452   -8.2922 C   0  0  0  0  0  0  0  0  0  0  0  0
    0.3537  -34.0985   -5.8944 H   0  0  0  0  0  0  0  0  0  0  0  0
    0.3897  -32.5504   -5.1803 H   0  0  0  0  0  0  0  0  0  0  0  0
    0.9542  -34.5768   -8.4409 C   0  0  0  0  0  0  0  0  0  0  0  0
   -0.1730  -35.0663   -8.3617 O   0  0  0  0  0  0  0  0  0  0  0  0
    2.0347  -35.4332   -8.6758 C   0  0  0  0  0  0  0  0  0  0  0  0
    3.3146  -35.1731   -8.1826 C   0  0  0  0  0  0  0  0  0  0  0  0
    4.3591  -36.0694   -8.4175 C   0  0  0  0  0  0  0  0  0  0  0  0
    4.1278  -37.2456   -9.1279 C   0  0  0  0  0  0  0  0  0  0  0  0
    2.8465  -37.5226   -9.6032 C   0  0  0  0  0  0  0  0  0  0  0  0
    1.8035  -36.6215   -9.3757 C   0  0  0  0  0  0  0  0  0  0  0  0
    4.4126  -27.7690  -11.2402 C   0  0  0  0  0  0  0  0  0  0  0  0
    3.1465  -27.2301  -11.0060 C   0  0  0  0  0  0  0  0  0  0  0  0
    2.2797  -27.8320  -10.0925 C   0  0  0  0  0  0  0  0  0  0  0  0
    4.8042  -28.9295  -10.5542 C   0  0  0  0  0  0  0  0  0  0  0  0
    3.9329  -29.5433   -9.6429 C   0  0  0  0  0  0  0  0  0  0  0  0
    2.6546  -29.0069   -9.4210 C   0  0  0  0  0  0  0  0  0  0  0  0
    4.9484  -25.7700  -12.5768 C   0  0  0  0  0  0  0  0  0  0  0  0
    4.9604  -25.8706  -14.0369 C   0  0  0  0  0  0  0  0  0  0  0  0
    6.3876  -26.0716  -14.4525 N   0  0  0  0  0  0  0  0  0  0  0  0
    7.0696  -24.7953  -14.7766 C   0  0  0  0  0  0  0  0  0  0  0  0
    7.2636  -26.8532  -13.5449 C   0  0  0  0  0  0  0  0  0  0  0  0
    6.4246  -27.8219  -12.6754 C   0  0  0  0  0  0  0  0  0  0  0  0
    5.2359  -27.1482  -12.1107 N   0  0  0  0  0  0  0  0  0  0  0  0
    1.0238  -27.3382   -9.8402 O   0  0  0  0  0  0  0  0  0  0  0  0
    0.1991  -26.9875  -10.9711 C   0  0  0  0  0  0  0  0  0  0  0  0
 17 16  2  0  0  0
 17 18  1  0  0  0
 16 15  1  0  0  0
 18 13  2  0  0  0
 15 14  2  0  0  0
 13 14  1  0  0  0
 13 11  1  0  0  0
 12 11  2  0  0  0
 11  8  1  0  0  0
  8  4  1  0  0  0
  8  6  2  0  0  0
  4  3  1  0  0  0
  6  7  1  0  0  0
  6  5  1  0  0  0
  3  5  2  0  0  0
  3  1  1  0  0  0
 30 29  1  0  0  0
 30 31  1  0  0  0
 32 21  1  0  0  0
 32 33  1  0  0  0
  1 24  1  0  0  0
 21 24  2  0  0  0
 21 20  1  0  0  0
 24 23  1  0  0  0
 29 27  1  0  0  0
 20 19  2  0  0  0
 23 22  2  0  0  0
 19 22  1  0  0  0
 19 31  1  0  0  0
 31 25  1  0  0  0
 27 26  1  0  0  0
 27 28  1  0  0  0
 26 25  1  0  0  0
  1  2  1  0  0  0
  7  9  1  0  0  0
  7 10  1  0  0  0
M  END
> <minimizedAffinity>
-8.29194

$$$$
6EIQ_B6Z_A_501


 33 36  0  0  0  0  0  0  0  0999 V2000
    1.9096  -30.2801  -11.3050 N   0  0  0  0  0  0  0  0  0  0  0  0
    2.4448  -31.1041  -11.3680 H   0  0  0  0  0  0  0  0  0  0  0  0
    2.4981  -29.1193  -11.6341 C   0  0  0  0  0  0  0  0  0  0  0  0
    3.6312  -28.7695  -12.8074 S   0  0  0  0  0  0  0  0  0  0  0  0
    2.2164  -27.9957  -10.9649 N   0  0  0  0  0  0  0  0  0  0  0  0
    2.8755  -26.8979  -11.3833 C   0  0  0  0  0  0  0  0  0  0  0  0
    2.6355  -25.7438  -10.7560 N   0  0  0  0  0  0  0  0  0  0  0  0
    3.7181  -27.1162  -12.4106 C   0  0  0  0  0  0  0  0  0  0  0  0
    3.1015  -24.9239  -11.0384 H   0  0  0  0  0  0  0  0  0  0  0  0
    1.9926  -25.7129  -10.0110 H   0  0  0  0  0  0  0  0  0  0  0  0
    4.4759  -26.1434  -12.9614 C   0  0  0  0  0  0  0  0  0  0  0  0
    3.9701  -25.3393  -13.7450 O   0  0  0  0  0  0  0  0  0  0  0  0
    5.8394  -26.0228  -12.6746 C   0  0  0  0  0  0  0  0  0  0  0  0
    6.5048  -26.9081  -11.8246 C   0  0  0  0  0  0  0  0  0  0  0  0
    7.8736  -26.7674  -11.5873 C   0  0  0  0  0  0  0  0  0  0  0  0
    8.5941  -25.7541  -12.2165 C   0  0  0  0  0  0  0  0  0  0  0  0
    7.9400  -24.8809  -13.0848 C   0  0  0  0  0  0  0  0  0  0  0  0
    6.5687  -25.0164  -13.3152 C   0  0  0  0  0  0  0  0  0  0  0  0
   -1.9514  -30.6739   -9.8024 C   0  0  0  0  0  0  0  0  0  0  0  0
   -0.8386  -31.1683   -9.1199 C   0  0  0  0  0  0  0  0  0  0  0  0
    0.4429  -31.0121   -9.6502 C   0  0  0  0  0  0  0  0  0  0  0  0
   -1.7709  -30.0247  -11.0339 C   0  0  0  0  0  0  0  0  0  0  0  0
   -0.4861  -29.8742  -11.5752 C   0  0  0  0  0  0  0  0  0  0  0  0
    0.6292  -30.3859  -10.8932 C   0  0  0  0  0  0  0  0  0  0  0  0
   -4.1296  -29.6856   -9.2121 C   0  0  0  0  0  0  0  0  0  0  0  0
   -4.5023  -29.5719   -7.8013 C   0  0  0  0  0  0  0  0  0  0  0  0
   -5.3717  -30.7511   -7.4793 N   0  0  0  0  0  0  0  0  0  0  0  0
   -6.8156  -30.4511   -7.6348 C   0  0  0  0  0  0  0  0  0  0  0  0
   -5.0814  -32.0288   -8.1758 C   0  0  0  0  0  0  0  0  0  0  0  0
   -3.5981  -32.0861   -8.6173 C   0  0  0  0  0  0  0  0  0  0  0  0
   -3.1740  -30.8191   -9.2499 N   0  0  0  0  0  0  0  0  0  0  0  0
    1.5616  -31.4911   -9.0146 O   0  0  0  0  0  0  0  0  0  0  0  0
    1.7891  -31.0782   -7.6508 C   0  0  0  0  0  0  0  0  0  0  0  0
 17 16  2  0  0  0
 17 18  1  0  0  0
 16 15  1  0  0  0
 18 13  2  0  0  0
 15 14  2  0  0  0
 13 14  1  0  0  0
 13 11  1  0  0  0
 12 11  2  0  0  0
 11  8  1  0  0  0
  8  4  1  0  0  0
  8  6  2  0  0  0
  4  3  1  0  0  0
  6  7  1  0  0  0
  6  5  1  0  0  0
  3  5  2  0  0  0
  3  1  1  0  0  0
 30 29  1  0  0  0
 30 31  1  0  0  0
 32 21  1  0  0  0
 32 33  1  0  0  0
  1 24  1  0  0  0
 21 24  2  0  0  0
 21 20  1  0  0  0
 24 23  1  0  0  0
 29 27  1  0  0  0
 20 19  2  0  0  0
 23 22  2  0  0  0
 19 22  1  0  0  0
 19 31  1  0  0  0
 31 25  1  0  0  0
 27 26  1  0  0  0
 27 28  1  0  0  0
 26 25  1  0  0  0
  1  2  1  0  0  0
  7  9  1  0  0  0
  7 10  1  0  0  0
M  END
> <minimizedAffinity>
-8.16663

$$$$
6EIQ_B6Z_A_501


 33 36  0  0  0  0  0  0  0  0999 V2000
    2.4734  -29.3661   -9.6464 N   0  0  0  0  0  0  0  0  0  0  0  0
    2.1837  -28.8147   -8.8840 H   0  0  0  0  0  0  0  0  0  0  0  0
    2.7428  -28.7464  -10.8065 C   0  0  0  0  0  0  0  0  0  0  0  0
    3.7163  -27.4324  -11.1362 S   0  0  0  0  0  0  0  0  0  0  0  0
    2.1782  -29.1561  -11.9480 N   0  0  0  0  0  0  0  0  0  0  0  0
    2.5208  -28.4505  -13.0432 C   0  0  0  0  0  0  0  0  0  0  0  0
    1.9914  -28.8122  -14.2145 N   0  0  0  0  0  0  0  0  0  0  0  0
    3.3776  -27.4396  -12.8046 C   0  0  0  0  0  0  0  0  0  0  0  0
    2.2222  -28.3163  -15.0331 H   0  0  0  0  0  0  0  0  0  0  0  0
    1.3704  -29.5748  -14.2596 H   0  0  0  0  0  0  0  0  0  0  0  0
    3.8283  -26.6121  -13.7721 C   0  0  0  0  0  0  0  0  0  0  0  0
    3.0581  -26.2080  -14.6439 O   0  0  0  0  0  0  0  0  0  0  0  0
    5.1638  -26.1999  -13.8234 C   0  0  0  0  0  0  0  0  0  0  0  0
    5.5974  -25.0005  -13.2555 C   0  0  0  0  0  0  0  0  0  0  0  0
    6.9455  -24.6405  -13.3056 C   0  0  0  0  0  0  0  0  0  0  0  0
    7.8761  -25.4878  -13.9035 C   0  0  0  0  0  0  0  0  0  0  0  0
    7.4532  -26.6981  -14.4519 C   0  0  0  0  0  0  0  0  0  0  0  0
    6.1030  -27.0541  -14.4095 C   0  0  0  0  0  0  0  0  0  0  0  0
    3.0174  -33.4358   -8.9669 C   0  0  0  0  0  0  0  0  0  0  0  0
    4.0627  -32.5193   -8.8414 C   0  0  0  0  0  0  0  0  0  0  0  0
    3.8426  -31.1601   -9.0700 C   0  0  0  0  0  0  0  0  0  0  0  0
    1.7420  -32.9790   -9.3347 C   0  0  0  0  0  0  0  0  0  0  0  0
    1.5185  -31.6156   -9.5750 C   0  0  0  0  0  0  0  0  0  0  0  0
    2.5757  -30.6988   -9.4623 C   0  0  0  0  0  0  0  0  0  0  0  0
    2.1398  -35.6944   -8.5215 C   0  0  0  0  0  0  0  0  0  0  0  0
    2.4210  -36.3273   -7.2321 C   0  0  0  0  0  0  0  0  0  0  0  0
    3.6004  -37.2320   -7.4338 N   0  0  0  0  0  0  0  0  0  0  0  0
    3.2003  -38.6231   -7.7556 C   0  0  0  0  0  0  0  0  0  0  0  0
    4.6347  -36.8049   -8.4084 C   0  0  0  0  0  0  0  0  0  0  0  0
    4.6322  -35.2646   -8.5686 C   0  0  0  0  0  0  0  0  0  0  0  0
    3.2580  -34.7394   -8.7142 N   0  0  0  0  0  0  0  0  0  0  0  0
    4.8453  -30.2283   -8.9652 O   0  0  0  0  0  0  0  0  0  0  0  0
    6.0009  -30.3851   -9.8149 C   0  0  0  0  0  0  0  0  0  0  0  0
 17 16  2  0  0  0
 17 18  1  0  0  0
 16 15  1  0  0  0
 18 13  2  0  0  0
 15 14  2  0  0  0
 13 14  1  0  0  0
 13 11  1  0  0  0
 12 11  2  0  0  0
 11  8  1  0  0  0
  8  4  1  0  0  0
  8  6  2  0  0  0
  4  3  1  0  0  0
  6  7  1  0  0  0
  6  5  1  0  0  0
  3  5  2  0  0  0
  3  1  1  0  0  0
 30 29  1  0  0  0
 30 31  1  0  0  0
 32 21  1  0  0  0
 32 33  1  0  0  0
  1 24  1  0  0  0
 21 24  2  0  0  0
 21 20  1  0  0  0
 24 23  1  0  0  0
 29 27  1  0  0  0
 20 19  2  0  0  0
 23 22  2  0  0  0
 19 22  1  0  0  0
 19 31  1  0  0  0
 31 25  1  0  0  0
 27 26  1  0  0  0
 27 28  1  0  0  0
 26 25  1  0  0  0
  1  2  1  0  0  0
  7  9  1  0  0  0
  7 10  1  0  0  0
M  END
> <minimizedAffinity>
-8.08107

$$$$
6EIQ_B6Z_A_501


 33 36  0  0  0  0  0  0  0  0999 V2000
    2.3710  -28.6326   -9.9420 N   0  0  0  0  0  0  0  0  0  0  0  0
    2.1487  -28.4289   -9.0048 H   0  0  0  0  0  0  0  0  0  0  0  0
    3.6545  -28.5306  -10.3222 C   0  0  0  0  0  0  0  0  0  0  0  0
    4.4859  -27.2595  -11.0121 S   0  0  0  0  0  0  0  0  0  0  0  0
    4.4921  -29.5650  -10.1873 N   0  0  0  0  0  0  0  0  0  0  0  0
    5.7513  -29.3428  -10.6111 C   0  0  0  0  0  0  0  0  0  0  0  0
    6.6359  -30.3370  -10.5009 N   0  0  0  0  0  0  0  0  0  0  0  0
    5.9584  -28.1086  -11.1080 C   0  0  0  0  0  0  0  0  0  0  0  0
    7.5640  -30.2057  -10.8018 H   0  0  0  0  0  0  0  0  0  0  0  0
    6.3599  -31.2013  -10.1188 H   0  0  0  0  0  0  0  0  0  0  0  0
    7.1509  -27.7001  -11.5928 C   0  0  0  0  0  0  0  0  0  0  0  0
    8.1941  -28.0794  -11.0595 O   0  0  0  0  0  0  0  0  0  0  0  0
    7.2419  -26.8395  -12.6914 C   0  0  0  0  0  0  0  0  0  0  0  0
    6.7515  -27.1840  -13.9523 C   0  0  0  0  0  0  0  0  0  0  0  0
    6.8383  -26.2831  -15.0156 C   0  0  0  0  0  0  0  0  0  0  0  0
    7.3951  -25.0206  -14.8218 C   0  0  0  0  0  0  0  0  0  0  0  0
    7.8655  -24.6617  -13.5591 C   0  0  0  0  0  0  0  0  0  0  0  0
    7.7866  -25.5664  -12.4975 C   0  0  0  0  0  0  0  0  0  0  0  0
   -0.8526  -29.8436  -12.2792 C   0  0  0  0  0  0  0  0  0  0  0  0
   -0.7063  -30.2527  -10.9526 C   0  0  0  0  0  0  0  0  0  0  0  0
    0.3840  -29.8212  -10.1957 C   0  0  0  0  0  0  0  0  0  0  0  0
    0.1134  -28.9998  -12.8496 C   0  0  0  0  0  0  0  0  0  0  0  0
    1.2158  -28.5717  -12.0959 C   0  0  0  0  0  0  0  0  0  0  0  0
    1.3673  -28.9972  -10.7667 C   0  0  0  0  0  0  0  0  0  0  0  0
   -2.7791  -31.3670  -12.4733 C   0  0  0  0  0  0  0  0  0  0  0  0
   -2.8258  -32.3198  -13.5833 C   0  0  0  0  0  0  0  0  0  0  0  0
   -3.6794  -31.7068  -14.6537 N   0  0  0  0  0  0  0  0  0  0  0  0
   -5.0994  -32.1226  -14.5550 C   0  0  0  0  0  0  0  0  0  0  0  0
   -3.6331  -30.2317  -14.8082 C   0  0  0  0  0  0  0  0  0  0  0  0
   -2.2894  -29.6688  -14.2830 C   0  0  0  0  0  0  0  0  0  0  0  0
   -1.9316  -30.2584  -12.9754 N   0  0  0  0  0  0  0  0  0  0  0  0
    0.5685  -30.2074   -8.8912 O   0  0  0  0  0  0  0  0  0  0  0  0
    0.4196  -31.6077   -8.5768 C   0  0  0  0  0  0  0  0  0  0  0  0
 17 16  2  0  0  0
 17 18  1  0  0  0
 16 15  1  0  0  0
 18 13  2  0  0  0
 15 14  2  0  0  0
 13 14  1  0  0  0
 13 11  1  0  0  0
 12 11  2  0  0  0
 11  8  1  0  0  0
  8  4  1  0  0  0
  8  6  2  0  0  0
  4  3  1  0  0  0
  6  7  1  0  0  0
  6  5  1  0  0  0
  3  5  2  0  0  0
  3  1  1  0  0  0
 30 29  1  0  0  0
 30 31  1  0  0  0
 32 21  1  0  0  0
 32 33  1  0  0  0
  1 24  1  0  0  0
 21 24  2  0  0  0
 21 20  1  0  0  0
 24 23  1  0  0  0
 29 27  1  0  0  0
 20 19  2  0  0  0
 23 22  2  0  0  0
 19 22  1  0  0  0
 19 31  1  0  0  0
 31 25  1  0  0  0
 27 26  1  0  0  0
 27 28  1  0  0  0
 26 25  1  0  0  0
  1  2  1  0  0  0
  7  9  1  0  0  0
  7 10  1  0  0  0
M  END
> <minimizedAffinity>
-8.06786

$$$$
6EIQ_B6Z_A_501


 33 36  0  0  0  0  0  0  0  0999 V2000
    1.0100  -29.1076  -12.8015 N   0  0  0  0  0  0  0  0  0  0  0  0
    0.4103  -29.8862  -12.7448 H   0  0  0  0  0  0  0  0  0  0  0  0
    2.1837  -29.1670  -12.1525 C   0  0  0  0  0  0  0  0  0  0  0  0
    3.7481  -29.1372  -12.7311 S   0  0  0  0  0  0  0  0  0  0  0  0
    2.2237  -29.2883  -10.8208 N   0  0  0  0  0  0  0  0  0  0  0  0
    3.4590  -29.3449  -10.2866 C   0  0  0  0  0  0  0  0  0  0  0  0
    3.5652  -29.4639   -8.9608 N   0  0  0  0  0  0  0  0  0  0  0  0
    4.4560  -29.2739  -11.1888 C   0  0  0  0  0  0  0  0  0  0  0  0
    4.4543  -29.5079   -8.5402 H   0  0  0  0  0  0  0  0  0  0  0  0
    2.7545  -29.5077   -8.4040 H   0  0  0  0  0  0  0  0  0  0  0  0
    5.7620  -29.3258  -10.8490 C   0  0  0  0  0  0  0  0  0  0  0  0
    6.1898  -30.2768  -10.1939 O   0  0  0  0  0  0  0  0  0  0  0  0
    6.6572  -28.3150  -11.2138 C   0  0  0  0  0  0  0  0  0  0  0  0
    6.2967  -27.2709  -12.0676 C   0  0  0  0  0  0  0  0  0  0  0  0
    7.2140  -26.2668  -12.3839 C   0  0  0  0  0  0  0  0  0  0  0  0
    8.4927  -26.2851  -11.8306 C   0  0  0  0  0  0  0  0  0  0  0  0
    8.8514  -27.3126  -10.9588 C   0  0  0  0  0  0  0  0  0  0  0  0
    7.9364  -28.3219  -10.6493 C   0  0  0  0  0  0  0  0  0  0  0  0
   -0.3203  -25.7188  -14.8181 C   0  0  0  0  0  0  0  0  0  0  0  0
   -0.6536  -25.9640  -13.4850 C   0  0  0  0  0  0  0  0  0  0  0  0
   -0.1837  -27.1077  -12.8376 C   0  0  0  0  0  0  0  0  0  0  0  0
    0.4859  -26.6390  -15.5065 C   0  0  0  0  0  0  0  0  0  0  0  0
    0.9522  -27.7944  -14.8630 C   0  0  0  0  0  0  0  0  0  0  0  0
    0.6026  -28.0452  -13.5266 C   0  0  0  0  0  0  0  0  0  0  0  0
   -2.1751  -24.4841  -15.8693 C   0  0  0  0  0  0  0  0  0  0  0  0
   -2.0659  -24.0945  -17.2759 C   0  0  0  0  0  0  0  0  0  0  0  0
   -1.5975  -22.6698  -17.3028 N   0  0  0  0  0  0  0  0  0  0  0  0
   -2.7206  -21.7041  -17.3734 C   0  0  0  0  0  0  0  0  0  0  0  0
   -0.6700  -22.2315  -16.2305 C   0  0  0  0  0  0  0  0  0  0  0  0
    0.1185  -23.4375  -15.6629 C   0  0  0  0  0  0  0  0  0  0  0  0
   -0.7701  -24.5910  -15.4070 N   0  0  0  0  0  0  0  0  0  0  0  0
   -0.4955  -27.3894  -11.5306 O   0  0  0  0  0  0  0  0  0  0  0  0
   -1.8876  -27.5636  -11.1936 C   0  0  0  0  0  0  0  0  0  0  0  0
 17 16  2  0  0  0
 17 18  1  0  0  0
 16 15  1  0  0  0
 18 13  2  0  0  0
 15 14  2  0  0  0
 13 14  1  0  0  0
 13 11  1  0  0  0
 12 11  2  0  0  0
 11  8  1  0  0  0
  8  4  1  0  0  0
  8  6  2  0  0  0
  4  3  1  0  0  0
  6  7  1  0  0  0
  6  5  1  0  0  0
  3  5  2  0  0  0
  3  1  1  0  0  0
 30 29  1  0  0  0
 30 31  1  0  0  0
 32 21  1  0  0  0
 32 33  1  0  0  0
  1 24  1  0  0  0
 21 24  2  0  0  0
 21 20  1  0  0  0
 24 23  1  0  0  0
 29 27  1  0  0  0
 20 19  2  0  0  0
 23 22  2  0  0  0
 19 22  1  0  0  0
 19 31  1  0  0  0
 31 25  1  0  0  0
 27 26  1  0  0  0
 27 28  1  0  0  0
 26 25  1  0  0  0
  1  2  1  0  0  0
  7  9  1  0  0  0
  7 10  1  0  0  0
M  END
> <minimizedAffinity>
-7.94155

$$$$
