5CP5_EB0_A_201


 27 30  0  0  0  0  0  0  0  0999 V2000
  -12.0084    7.9170   -5.0000 N   0  0  0  0  0  0  0  0  0  0  0  0
  -10.6636    7.8377   -5.1082 C   0  0  0  0  0  0  0  0  0  0  0  0
  -10.0442    7.9813   -6.1769 O   0  0  0  0  0  0  0  0  0  0  0  0
  -10.1333    7.4953   -3.9094 C   0  0  0  0  0  0  0  0  0  0  0  0
   -8.8864    7.2956   -3.4332 C   0  0  0  0  0  0  0  0  0  0  0  0
   -8.6870    6.9488   -2.0845 C   0  0  0  0  0  0  0  0  0  0  0  0
   -9.8133    6.8169   -1.2439 C   0  0  0  0  0  0  0  0  0  0  0  0
  -11.1104    7.0452   -1.7734 C   0  0  0  0  0  0  0  0  0  0  0  0
  -11.1923    7.3587   -3.0853 C   0  0  0  0  0  0  0  0  0  0  0  0
  -12.3374    7.6203   -3.7369 C   0  0  0  0  0  0  0  0  0  0  0  0
  -13.5275    7.5072   -3.0902 C   0  0  0  0  0  0  0  0  0  0  0  0
  -13.5356    7.1964   -1.7236 C   0  0  0  0  0  0  0  0  0  0  0  0
  -12.3329    6.9386   -1.0545 C   0  0  0  0  0  0  0  0  0  0  0  0
  -12.4228    6.4697    0.6714 S   0  0  0  0  0  0  0  0  0  0  0  0
  -13.8522    6.7623    1.1244 O   0  0  0  0  0  0  0  0  0  0  0  0
  -11.3977    7.2726    1.4597 O   0  0  0  0  0  0  0  0  0  0  0  0
  -12.0581    4.9138    0.7885 N   0  0  0  0  0  0  0  0  0  0  0  0
  -11.3617    4.5595    0.1895 H   0  0  0  0  0  0  0  0  0  0  0  0
  -12.6442    4.0503    1.6580 C   0  0  0  0  0  0  0  0  0  0  0  0
  -13.9227    3.5035    1.5411 C   0  0  0  0  0  0  0  0  0  0  0  0
  -14.4448    2.6617    2.5331 C   0  0  0  0  0  0  0  0  0  0  0  0
  -13.6981    2.3588    3.6570 C   0  0  0  0  0  0  0  0  0  0  0  0
  -14.1548    1.5497    4.6078 F   0  0  0  0  0  0  0  0  0  0  0  0
  -12.4309    2.9073    3.7923 C   0  0  0  0  0  0  0  0  0  0  0  0
  -11.9290    3.7537    2.8086 C   0  0  0  0  0  0  0  0  0  0  0  0
  -13.3745    7.0444   -6.7453 C   0  0  0  0  0  0  0  0  0  0  0  0
  -12.9681    8.3207   -6.0701 C   0  0  0  0  0  0  0  0  0  0  0  0
 23 22  1  0  0  0
 24 22  2  0  0  0
 24 25  1  0  0  0
 22 21  1  0  0  0
 25 19  2  0  0  0
 21 20  2  0  0  0
 19 17  1  0  0  0
 19 20  1  0  0  0
 17 14  1  0  0  0
  6  7  2  0  0  0
  6  5  1  0  0  0
  7  8  1  0  0  0
 14 16  2  0  0  0
 14 15  2  0  0  0
 14 13  1  0  0  0
  5  4  2  0  0  0
  8 13  2  0  0  0
  8  9  1  0  0  0
 13 12  1  0  0  0
  4  9  1  0  0  0
  4  2  1  0  0  0
  9 10  2  0  0  0
 12 11  2  0  0  0
  2  3  2  0  0  0
  2  1  1  0  0  0
 10 11  1  0  0  0
 10  1  1  0  0  0
  1 27  1  0  0  0
 26 27  1  0  0  0
 17 18  1  0  0  0
M  END
> <minimizedAffinity>
-9.16303

$$$$
5CP5_EB0_A_201


 27 30  0  0  0  0  0  0  0  0999 V2000
  -12.6701    5.4970    0.6840 N   0  0  0  0  0  0  0  0  0  0  0  0
  -13.7969    5.7286   -0.0255 C   0  0  0  0  0  0  0  0  0  0  0  0
  -14.8547    5.0926    0.1257 O   0  0  0  0  0  0  0  0  0  0  0  0
  -13.5546    6.6783   -0.9609 C   0  0  0  0  0  0  0  0  0  0  0  0
  -14.2864    7.3010   -1.9085 C   0  0  0  0  0  0  0  0  0  0  0  0
  -13.7010    8.2825   -2.7289 C   0  0  0  0  0  0  0  0  0  0  0  0
  -12.3392    8.6019   -2.5390 C   0  0  0  0  0  0  0  0  0  0  0  0
  -11.6006    7.9366   -1.5255 C   0  0  0  0  0  0  0  0  0  0  0  0
  -12.2541    6.9998   -0.8034 C   0  0  0  0  0  0  0  0  0  0  0  0
  -11.7085    6.2922    0.1996 C   0  0  0  0  0  0  0  0  0  0  0  0
  -10.3921    6.4452    0.5005 C   0  0  0  0  0  0  0  0  0  0  0  0
   -9.6399    7.4041   -0.1918 C   0  0  0  0  0  0  0  0  0  0  0  0
  -10.2257    8.1434   -1.2266 C   0  0  0  0  0  0  0  0  0  0  0  0
   -9.1856    9.2942   -2.1214 S   0  0  0  0  0  0  0  0  0  0  0  0
   -7.7969    9.2009   -1.4913 O   0  0  0  0  0  0  0  0  0  0  0  0
   -9.7742   10.6930   -2.0033 O   0  0  0  0  0  0  0  0  0  0  0  0
   -9.1784    8.8679   -3.6661 N   0  0  0  0  0  0  0  0  0  0  0  0
   -9.2709    9.5805   -4.3390 H   0  0  0  0  0  0  0  0  0  0  0  0
   -9.0535    7.5903   -4.1102 C   0  0  0  0  0  0  0  0  0  0  0  0
   -8.2030    6.6153   -3.5875 C   0  0  0  0  0  0  0  0  0  0  0  0
   -8.1195    5.3407   -4.1652 C   0  0  0  0  0  0  0  0  0  0  0  0
   -8.8812    5.0251   -5.2754 C   0  0  0  0  0  0  0  0  0  0  0  0
   -8.8405    3.8209   -5.8373 F   0  0  0  0  0  0  0  0  0  0  0  0
   -9.7203    5.9901   -5.8136 C   0  0  0  0  0  0  0  0  0  0  0  0
   -9.7837    7.2566   -5.2410 C   0  0  0  0  0  0  0  0  0  0  0  0
  -11.7484    3.3943    1.3187 C   0  0  0  0  0  0  0  0  0  0  0  0
  -12.5201    4.5686    1.8436 C   0  0  0  0  0  0  0  0  0  0  0  0
 23 22  1  0  0  0
 24 22  2  0  0  0
 24 25  1  0  0  0
 22 21  1  0  0  0
 25 19  2  0  0  0
 21 20  2  0  0  0
 19 17  1  0  0  0
 19 20  1  0  0  0
 17 14  1  0  0  0
  6  7  2  0  0  0
  6  5  1  0  0  0
  7  8  1  0  0  0
 14 16  2  0  0  0
 14 15  2  0  0  0
 14 13  1  0  0  0
  5  4  2  0  0  0
  8 13  2  0  0  0
  8  9  1  0  0  0
 13 12  1  0  0  0
  4  9  1  0  0  0
  4  2  1  0  0  0
  9 10  2  0  0  0
 12 11  2  0  0  0
  2  3  2  0  0  0
  2  1  1  0  0  0
 10 11  1  0  0  0
 10  1  1  0  0  0
  1 27  1  0  0  0
 26 27  1  0  0  0
 17 18  1  0  0  0
M  END
> <minimizedAffinity>
-9.05246

$$$$
5CP5_EB0_A_201


 27 30  0  0  0  0  0  0  0  0999 V2000
  -10.3085    7.8295   -4.7995 N   0  0  0  0  0  0  0  0  0  0  0  0
  -11.6310    7.9922   -5.0256 C   0  0  0  0  0  0  0  0  0  0  0  0
  -12.1074    8.3755   -6.1085 O   0  0  0  0  0  0  0  0  0  0  0  0
  -12.3169    7.7622   -3.8802 C   0  0  0  0  0  0  0  0  0  0  0  0
  -13.6188    7.7602   -3.5249 C   0  0  0  0  0  0  0  0  0  0  0  0
  -13.9955    7.4547   -2.2044 C   0  0  0  0  0  0  0  0  0  0  0  0
  -12.9876    7.1497   -1.2643 C   0  0  0  0  0  0  0  0  0  0  0  0
  -11.6282    7.1492   -1.6733 C   0  0  0  0  0  0  0  0  0  0  0  0
  -11.3737    7.4711   -2.9608 C   0  0  0  0  0  0  0  0  0  0  0  0
  -10.1489    7.5020   -3.5115 C   0  0  0  0  0  0  0  0  0  0  0  0
   -9.0529    7.2675   -2.7427 C   0  0  0  0  0  0  0  0  0  0  0  0
   -9.2250    6.9152   -1.3971 C   0  0  0  0  0  0  0  0  0  0  0  0
  -10.5090    6.8747   -0.8400 C   0  0  0  0  0  0  0  0  0  0  0  0
  -10.6494    6.4951    0.9044 S   0  0  0  0  0  0  0  0  0  0  0  0
  -11.8752    7.2516    1.4136 O   0  0  0  0  0  0  0  0  0  0  0  0
   -9.3743    6.9299    1.6128 O   0  0  0  0  0  0  0  0  0  0  0  0
  -10.8098    4.9085    1.0616 N   0  0  0  0  0  0  0  0  0  0  0  0
  -10.0265    4.3463    0.8625 H   0  0  0  0  0  0  0  0  0  0  0  0
  -11.9529    4.2864    1.4509 C   0  0  0  0  0  0  0  0  0  0  0  0
  -13.1833    4.3365    0.7945 C   0  0  0  0  0  0  0  0  0  0  0  0
  -14.3129    3.6952    1.3218 C   0  0  0  0  0  0  0  0  0  0  0  0
  -14.2291    2.9992    2.5139 C   0  0  0  0  0  0  0  0  0  0  0  0
  -15.2754    2.3644    3.0328 F   0  0  0  0  0  0  0  0  0  0  0  0
  -13.0149    2.9537    3.1837 C   0  0  0  0  0  0  0  0  0  0  0  0
  -11.9041    3.6067    2.6587 C   0  0  0  0  0  0  0  0  0  0  0  0
   -9.0758    6.5583   -6.3927 C   0  0  0  0  0  0  0  0  0  0  0  0
   -9.2111    7.9324   -5.8065 C   0  0  0  0  0  0  0  0  0  0  0  0
 23 22  1  0  0  0
 24 22  2  0  0  0
 24 25  1  0  0  0
 22 21  1  0  0  0
 25 19  2  0  0  0
 21 20  2  0  0  0
 19 17  1  0  0  0
 19 20  1  0  0  0
 17 14  1  0  0  0
  6  7  2  0  0  0
  6  5  1  0  0  0
  7  8  1  0  0  0
 14 16  2  0  0  0
 14 15  2  0  0  0
 14 13  1  0  0  0
  5  4  2  0  0  0
  8 13  2  0  0  0
  8  9  1  0  0  0
 13 12  1  0  0  0
  4  9  1  0  0  0
  4  2  1  0  0  0
  9 10  2  0  0  0
 12 11  2  0  0  0
  2  3  2  0  0  0
  2  1  1  0  0  0
 10 11  1  0  0  0
 10  1  1  0  0  0
  1 27  1  0  0  0
 26 27  1  0  0  0
 17 18  1  0  0  0
M  END
> <minimizedAffinity>
-8.94250

$$$$
5CP5_EB0_A_201


 27 30  0  0  0  0  0  0  0  0999 V2000
  -13.4298    5.1955    1.1552 N   0  0  0  0  0  0  0  0  0  0  0  0
  -14.3916    5.6173    0.3045 C   0  0  0  0  0  0  0  0  0  0  0  0
  -15.5683    5.2164    0.3342 O   0  0  0  0  0  0  0  0  0  0  0  0
  -13.8485    6.4540   -0.6123 C   0  0  0  0  0  0  0  0  0  0  0  0
  -14.3175    7.1674   -1.6574 C   0  0  0  0  0  0  0  0  0  0  0  0
  -13.4483    7.9711   -2.4175 C   0  0  0  0  0  0  0  0  0  0  0  0
  -12.0825    8.0166   -2.0639 C   0  0  0  0  0  0  0  0  0  0  0  0
  -11.6236    7.2632   -0.9517 C   0  0  0  0  0  0  0  0  0  0  0  0
  -12.5379    6.5125   -0.2986 C   0  0  0  0  0  0  0  0  0  0  0  0
  -12.2739    5.7563    0.7797 C   0  0  0  0  0  0  0  0  0  0  0  0
  -10.9997    5.6534    1.2412 C   0  0  0  0  0  0  0  0  0  0  0  0
   -9.9886    6.4071    0.6295 C   0  0  0  0  0  0  0  0  0  0  0  0
  -10.2813    7.2010   -0.4861 C   0  0  0  0  0  0  0  0  0  0  0  0
   -8.9267    8.0747   -1.2661 S   0  0  0  0  0  0  0  0  0  0  0  0
   -7.8836    8.3155   -0.1762 O   0  0  0  0  0  0  0  0  0  0  0  0
   -9.4483    9.3773   -1.8560 O   0  0  0  0  0  0  0  0  0  0  0  0
   -8.3593    7.1624   -2.4551 N   0  0  0  0  0  0  0  0  0  0  0  0
   -7.6357    6.5296   -2.2424 H   0  0  0  0  0  0  0  0  0  0  0  0
   -8.8086    7.2028   -3.7363 C   0  0  0  0  0  0  0  0  0  0  0  0
   -9.8800    6.4763   -4.2574 C   0  0  0  0  0  0  0  0  0  0  0  0
  -10.2199    6.5586   -5.6150 C   0  0  0  0  0  0  0  0  0  0  0  0
   -9.4910    7.3643   -6.4706 C   0  0  0  0  0  0  0  0  0  0  0  0
   -9.7968    7.4801   -7.7591 F   0  0  0  0  0  0  0  0  0  0  0  0
   -8.4145    8.0809   -5.9680 C   0  0  0  0  0  0  0  0  0  0  0  0
   -8.0771    7.9797   -4.6220 C   0  0  0  0  0  0  0  0  0  0  0  0
  -13.5035    2.9093    1.8200 C   0  0  0  0  0  0  0  0  0  0  0  0
  -13.6143    4.3106    2.3435 C   0  0  0  0  0  0  0  0  0  0  0  0
 23 22  1  0  0  0
 24 22  2  0  0  0
 24 25  1  0  0  0
 22 21  1  0  0  0
 25 19  2  0  0  0
 21 20  2  0  0  0
 19 17  1  0  0  0
 19 20  1  0  0  0
 17 14  1  0  0  0
  6  7  2  0  0  0
  6  5  1  0  0  0
  7  8  1  0  0  0
 14 16  2  0  0  0
 14 15  2  0  0  0
 14 13  1  0  0  0
  5  4  2  0  0  0
  8 13  2  0  0  0
  8  9  1  0  0  0
 13 12  1  0  0  0
  4  9  1  0  0  0
  4  2  1  0  0  0
  9 10  2  0  0  0
 12 11  2  0  0  0
  2  3  2  0  0  0
  2  1  1  0  0  0
 10 11  1  0  0  0
 10  1  1  0  0  0
  1 27  1  0  0  0
 26 27  1  0  0  0
 17 18  1  0  0  0
M  END
> <minimizedAffinity>
-8.26270

$$$$
5CP5_EB0_A_201


 27 30  0  0  0  0  0  0  0  0999 V2000
   -9.7052    8.9038   -3.6269 N   0  0  0  0  0  0  0  0  0  0  0  0
  -10.6726    9.5074   -4.3524 C   0  0  0  0  0  0  0  0  0  0  0  0
  -10.4487   10.3232   -5.2639 O   0  0  0  0  0  0  0  0  0  0  0  0
  -11.8876    9.1520   -3.8699 C   0  0  0  0  0  0  0  0  0  0  0  0
  -13.1679    9.4237   -4.1987 C   0  0  0  0  0  0  0  0  0  0  0  0
  -14.2264    8.8561   -3.4662 C   0  0  0  0  0  0  0  0  0  0  0  0
  -13.9220    7.9989   -2.3868 C   0  0  0  0  0  0  0  0  0  0  0  0
  -12.5647    7.7245   -2.0744 C   0  0  0  0  0  0  0  0  0  0  0  0
  -11.6247    8.3327   -2.8311 C   0  0  0  0  0  0  0  0  0  0  0  0
  -10.3002    8.1691   -2.6793 C   0  0  0  0  0  0  0  0  0  0  0  0
   -9.8229    7.4020   -1.6639 C   0  0  0  0  0  0  0  0  0  0  0  0
  -10.7283    6.7244   -0.8358 C   0  0  0  0  0  0  0  0  0  0  0  0
  -12.1066    6.8946   -1.0142 C   0  0  0  0  0  0  0  0  0  0  0  0
  -13.2045    6.0620    0.1296 S   0  0  0  0  0  0  0  0  0  0  0  0
  -14.2713    5.3732   -0.7199 O   0  0  0  0  0  0  0  0  0  0  0  0
  -13.8051    7.0882    1.0798 O   0  0  0  0  0  0  0  0  0  0  0  0
  -12.3413    5.0150    0.9819 N   0  0  0  0  0  0  0  0  0  0  0  0
  -11.3621    5.0393    0.8825 H   0  0  0  0  0  0  0  0  0  0  0  0
  -12.8686    4.0962    1.8322 C   0  0  0  0  0  0  0  0  0  0  0  0
  -14.1680    3.5888    1.7951 C   0  0  0  0  0  0  0  0  0  0  0  0
  -14.6195    2.6803    2.7625 C   0  0  0  0  0  0  0  0  0  0  0  0
  -13.7801    2.2701    3.7821 C   0  0  0  0  0  0  0  0  0  0  0  0
  -14.1694    1.3961    4.7051 F   0  0  0  0  0  0  0  0  0  0  0  0
  -12.4902    2.7780    3.8386 C   0  0  0  0  0  0  0  0  0  0  0  0
  -12.0579    3.6908    2.8817 C   0  0  0  0  0  0  0  0  0  0  0  0
   -7.9251    7.8841   -4.8373 C   0  0  0  0  0  0  0  0  0  0  0  0
   -8.2329    8.9814   -3.8619 C   0  0  0  0  0  0  0  0  0  0  0  0
 23 22  1  0  0  0
 24 22  2  0  0  0
 24 25  1  0  0  0
 22 21  1  0  0  0
 25 19  2  0  0  0
 21 20  2  0  0  0
 19 17  1  0  0  0
 19 20  1  0  0  0
 17 14  1  0  0  0
  6  7  2  0  0  0
  6  5  1  0  0  0
  7  8  1  0  0  0
 14 16  2  0  0  0
 14 15  2  0  0  0
 14 13  1  0  0  0
  5  4  2  0  0  0
  8 13  2  0  0  0
  8  9  1  0  0  0
 13 12  1  0  0  0
  4  9  1  0  0  0
  4  2  1  0  0  0
  9 10  2  0  0  0
 12 11  2  0  0  0
  2  3  2  0  0  0
  2  1  1  0  0  0
 10 11  1  0  0  0
 10  1  1  0  0  0
  1 27  1  0  0  0
 26 27  1  0  0  0
 17 18  1  0  0  0
M  END
> <minimizedAffinity>
-8.21734

$$$$
5CP5_EB0_A_201


 27 30  0  0  0  0  0  0  0  0999 V2000
  -12.9547    5.2019    0.3258 N   0  0  0  0  0  0  0  0  0  0  0  0
  -11.8320    5.1927    1.0781 C   0  0  0  0  0  0  0  0  0  0  0  0
  -11.6667    4.4589    2.0684 O   0  0  0  0  0  0  0  0  0  0  0  0
  -10.9846    6.1533    0.6369 C   0  0  0  0  0  0  0  0  0  0  0  0
   -9.7510    6.5776    0.9824 C   0  0  0  0  0  0  0  0  0  0  0  0
   -9.1378    7.6305    0.2793 C   0  0  0  0  0  0  0  0  0  0  0  0
   -9.8363    8.2292   -0.7914 C   0  0  0  0  0  0  0  0  0  0  0  0
  -11.1277    7.7515   -1.1366 C   0  0  0  0  0  0  0  0  0  0  0  0
  -11.6315    6.7459   -0.3877 C   0  0  0  0  0  0  0  0  0  0  0  0
  -12.8280    6.1697   -0.5901 C   0  0  0  0  0  0  0  0  0  0  0  0
  -13.6538    6.6428   -1.5603 C   0  0  0  0  0  0  0  0  0  0  0  0
  -13.2071    7.6784   -2.3925 C   0  0  0  0  0  0  0  0  0  0  0  0
  -11.9521    8.2608   -2.1776 C   0  0  0  0  0  0  0  0  0  0  0  0
  -11.4784    9.6320   -3.2274 S   0  0  0  0  0  0  0  0  0  0  0  0
  -11.3086   10.8407   -2.3085 O   0  0  0  0  0  0  0  0  0  0  0  0
  -12.5620    9.8564   -4.2726 O   0  0  0  0  0  0  0  0  0  0  0  0
  -10.1151    9.2445   -3.9748 N   0  0  0  0  0  0  0  0  0  0  0  0
   -9.4274    9.9431   -4.0660 H   0  0  0  0  0  0  0  0  0  0  0  0
   -9.8435    8.0179   -4.4912 C   0  0  0  0  0  0  0  0  0  0  0  0
  -10.5551    7.3739   -5.5043 C   0  0  0  0  0  0  0  0  0  0  0  0
  -10.2133    6.0796   -5.9203 C   0  0  0  0  0  0  0  0  0  0  0  0
   -9.1589    5.4100   -5.3267 C   0  0  0  0  0  0  0  0  0  0  0  0
   -8.7962    4.1895   -5.7090 F   0  0  0  0  0  0  0  0  0  0  0  0
   -8.4523    6.0334   -4.3085 C   0  0  0  0  0  0  0  0  0  0  0  0
   -8.8101    7.3123   -3.8934 C   0  0  0  0  0  0  0  0  0  0  0  0
  -15.1928    5.0527    1.1276 C   0  0  0  0  0  0  0  0  0  0  0  0
  -14.1142    4.2684    0.4408 C   0  0  0  0  0  0  0  0  0  0  0  0
 23 22  1  0  0  0
 24 22  2  0  0  0
 24 25  1  0  0  0
 22 21  1  0  0  0
 25 19  2  0  0  0
 21 20  2  0  0  0
 19 17  1  0  0  0
 19 20  1  0  0  0
 17 14  1  0  0  0
  6  7  2  0  0  0
  6  5  1  0  0  0
  7  8  1  0  0  0
 14 16  2  0  0  0
 14 15  2  0  0  0
 14 13  1  0  0  0
  5  4  2  0  0  0
  8 13  2  0  0  0
  8  9  1  0  0  0
 13 12  1  0  0  0
  4  9  1  0  0  0
  4  2  1  0  0  0
  9 10  2  0  0  0
 12 11  2  0  0  0
  2  3  2  0  0  0
  2  1  1  0  0  0
 10 11  1  0  0  0
 10  1  1  0  0  0
  1 27  1  0  0  0
 26 27  1  0  0  0
 17 18  1  0  0  0
M  END
> <minimizedAffinity>
-8.06401

$$$$
5CP5_EB0_A_201


 27 30  0  0  0  0  0  0  0  0999 V2000
   -7.1819   10.0178   -2.0718 N   0  0  0  0  0  0  0  0  0  0  0  0
   -7.8792   11.0037   -2.6788 C   0  0  0  0  0  0  0  0  0  0  0  0
   -7.3552   12.0030   -3.2017 O   0  0  0  0  0  0  0  0  0  0  0  0
   -9.2064   10.7685   -2.5424 C   0  0  0  0  0  0  0  0  0  0  0  0
  -10.3369   11.3847   -2.9465 C   0  0  0  0  0  0  0  0  0  0  0  0
  -11.5955   10.8419   -2.6294 C   0  0  0  0  0  0  0  0  0  0  0  0
  -11.6499    9.6437   -1.8851 C   0  0  0  0  0  0  0  0  0  0  0  0
  -10.4418    9.0144   -1.4855 C   0  0  0  0  0  0  0  0  0  0  0  0
   -9.2871    9.6267   -1.8288 C   0  0  0  0  0  0  0  0  0  0  0  0
   -8.0611    9.1577   -1.5437 C   0  0  0  0  0  0  0  0  0  0  0  0
   -7.9223    8.0281   -0.8008 C   0  0  0  0  0  0  0  0  0  0  0  0
   -9.0683    7.3219   -0.4105 C   0  0  0  0  0  0  0  0  0  0  0  0
  -10.3397    7.8164   -0.7259 C   0  0  0  0  0  0  0  0  0  0  0  0
  -11.7607    6.9056   -0.1275 S   0  0  0  0  0  0  0  0  0  0  0  0
  -12.7041    6.7459   -1.3185 O   0  0  0  0  0  0  0  0  0  0  0  0
  -12.4054    7.6814    1.0124 O   0  0  0  0  0  0  0  0  0  0  0  0
  -11.2518    5.4938    0.4343 N   0  0  0  0  0  0  0  0  0  0  0  0
  -10.3106    5.2505    0.2788 H   0  0  0  0  0  0  0  0  0  0  0  0
  -12.0306    4.6098    1.1104 C   0  0  0  0  0  0  0  0  0  0  0  0
  -13.3371    4.2442    0.7837 C   0  0  0  0  0  0  0  0  0  0  0  0
  -14.0654    3.3587    1.5903 C   0  0  0  0  0  0  0  0  0  0  0  0
  -13.4996    2.8303    2.7362 C   0  0  0  0  0  0  0  0  0  0  0  0
  -14.1548    1.9739    3.5138 F   0  0  0  0  0  0  0  0  0  0  0  0
  -12.2063    3.1968    3.0800 C   0  0  0  0  0  0  0  0  0  0  0  0
  -11.4985    4.0883    2.2800 C   0  0  0  0  0  0  0  0  0  0  0  0
   -5.2568   10.5208   -0.7623 C   0  0  0  0  0  0  0  0  0  0  0  0
   -5.6972    9.8649   -2.0374 C   0  0  0  0  0  0  0  0  0  0  0  0
 23 22  1  0  0  0
 24 22  2  0  0  0
 24 25  1  0  0  0
 22 21  1  0  0  0
 25 19  2  0  0  0
 21 20  2  0  0  0
 19 17  1  0  0  0
 19 20  1  0  0  0
 17 14  1  0  0  0
  6  7  2  0  0  0
  6  5  1  0  0  0
  7  8  1  0  0  0
 14 16  2  0  0  0
 14 15  2  0  0  0
 14 13  1  0  0  0
  5  4  2  0  0  0
  8 13  2  0  0  0
  8  9  1  0  0  0
 13 12  1  0  0  0
  4  9  1  0  0  0
  4  2  1  0  0  0
  9 10  2  0  0  0
 12 11  2  0  0  0
  2  3  2  0  0  0
  2  1  1  0  0  0
 10 11  1  0  0  0
 10  1  1  0  0  0
  1 27  1  0  0  0
 26 27  1  0  0  0
 17 18  1  0  0  0
M  END
> <minimizedAffinity>
-7.59284

$$$$
5CP5_EB0_A_201


 27 30  0  0  0  0  0  0  0  0999 V2000
  -12.4873    6.9961    0.1421 N   0  0  0  0  0  0  0  0  0  0  0  0
  -11.1664    6.9034    0.4130 C   0  0  0  0  0  0  0  0  0  0  0  0
  -10.6963    6.8514    1.5631 O   0  0  0  0  0  0  0  0  0  0  0  0
  -10.4626    6.9676   -0.7428 C   0  0  0  0  0  0  0  0  0  0  0  0
   -9.1559    6.9105   -1.0754 C   0  0  0  0  0  0  0  0  0  0  0  0
   -8.7599    7.0008   -2.4223 C   0  0  0  0  0  0  0  0  0  0  0  0
   -9.7538    7.1493   -3.4136 C   0  0  0  0  0  0  0  0  0  0  0  0
  -11.1202    7.1942   -3.0311 C   0  0  0  0  0  0  0  0  0  0  0  0
  -11.3915    7.1141   -1.7098 C   0  0  0  0  0  0  0  0  0  0  0  0
  -12.6271    7.1251   -1.1829 C   0  0  0  0  0  0  0  0  0  0  0  0
  -13.7075    7.2960   -1.9895 C   0  0  0  0  0  0  0  0  0  0  0  0
  -13.5190    7.3771   -3.3760 C   0  0  0  0  0  0  0  0  0  0  0  0
  -12.2257    7.3513   -3.9119 C   0  0  0  0  0  0  0  0  0  0  0  0
  -12.0537    7.5396   -5.6844 S   0  0  0  0  0  0  0  0  0  0  0  0
  -13.4566    7.3954   -6.2720 O   0  0  0  0  0  0  0  0  0  0  0  0
  -11.1021    6.4733   -6.2084 O   0  0  0  0  0  0  0  0  0  0  0  0
  -11.4211    8.9824   -5.9770 N   0  0  0  0  0  0  0  0  0  0  0  0
  -10.6197    9.0248   -6.5474 H   0  0  0  0  0  0  0  0  0  0  0  0
  -11.9151   10.1510   -5.4918 C   0  0  0  0  0  0  0  0  0  0  0  0
  -13.0204   10.8463   -5.9838 C   0  0  0  0  0  0  0  0  0  0  0  0
  -13.4068   12.0765   -5.4337 C   0  0  0  0  0  0  0  0  0  0  0  0
  -12.6913   12.6302   -4.3877 C   0  0  0  0  0  0  0  0  0  0  0  0
  -13.0405   13.7855   -3.8304 F   0  0  0  0  0  0  0  0  0  0  0  0
  -11.5818   11.9559   -3.8986 C   0  0  0  0  0  0  0  0  0  0  0  0
  -11.1987   10.7430   -4.4625 C   0  0  0  0  0  0  0  0  0  0  0  0
  -13.9505    5.4533    1.2157 C   0  0  0  0  0  0  0  0  0  0  0  0
  -13.6084    6.9109    1.1244 C   0  0  0  0  0  0  0  0  0  0  0  0
 23 22  1  0  0  0
 24 22  2  0  0  0
 24 25  1  0  0  0
 22 21  1  0  0  0
 25 19  2  0  0  0
 21 20  2  0  0  0
 19 17  1  0  0  0
 19 20  1  0  0  0
 17 14  1  0  0  0
  6  7  2  0  0  0
  6  5  1  0  0  0
  7  8  1  0  0  0
 14 16  2  0  0  0
 14 15  2  0  0  0
 14 13  1  0  0  0
  5  4  2  0  0  0
  8 13  2  0  0  0
  8  9  1  0  0  0
 13 12  1  0  0  0
  4  9  1  0  0  0
  4  2  1  0  0  0
  9 10  2  0  0  0
 12 11  2  0  0  0
  2  3  2  0  0  0
  2  1  1  0  0  0
 10 11  1  0  0  0
 10  1  1  0  0  0
  1 27  1  0  0  0
 26 27  1  0  0  0
 17 18  1  0  0  0
M  END
> <minimizedAffinity>
-7.57200

$$$$
5CP5_EB0_A_201


 27 30  0  0  0  0  0  0  0  0999 V2000
  -13.4356    3.7827    1.9479 N   0  0  0  0  0  0  0  0  0  0  0  0
  -14.6291    4.2369    1.5053 C   0  0  0  0  0  0  0  0  0  0  0  0
  -15.7205    3.7172    1.7973 O   0  0  0  0  0  0  0  0  0  0  0  0
  -14.4306    5.2641    0.6445 C   0  0  0  0  0  0  0  0  0  0  0  0
  -15.2282    6.0870   -0.0682 C   0  0  0  0  0  0  0  0  0  0  0  0
  -14.6703    7.0897   -0.8820 C   0  0  0  0  0  0  0  0  0  0  0  0
  -13.2655    7.2173   -0.9352 C   0  0  0  0  0  0  0  0  0  0  0  0
  -12.4553    6.3432   -0.1641 C   0  0  0  0  0  0  0  0  0  0  0  0
  -13.0911    5.4053    0.5722 C   0  0  0  0  0  0  0  0  0  0  0  0
  -12.4765    4.5138    1.3671 C   0  0  0  0  0  0  0  0  0  0  0  0
  -11.1190    4.4686    1.4138 C   0  0  0  0  0  0  0  0  0  0  0  0
  -10.3786    5.4126    0.6891 C   0  0  0  0  0  0  0  0  0  0  0  0
  -11.0337    6.3442   -0.1255 C   0  0  0  0  0  0  0  0  0  0  0  0
  -10.0232    7.4690   -1.0848 S   0  0  0  0  0  0  0  0  0  0  0  0
   -8.5894    7.2923   -0.5878 O   0  0  0  0  0  0  0  0  0  0  0  0
  -10.5281    8.8903   -0.8799 O   0  0  0  0  0  0  0  0  0  0  0  0
  -10.1777    7.0865   -2.6332 N   0  0  0  0  0  0  0  0  0  0  0  0
  -11.0692    6.8170   -2.9524 H   0  0  0  0  0  0  0  0  0  0  0  0
   -9.1625    7.1088   -3.5354 C   0  0  0  0  0  0  0  0  0  0  0  0
   -8.5170    8.2462   -4.0222 C   0  0  0  0  0  0  0  0  0  0  0  0
   -7.5141    8.1494   -4.9970 C   0  0  0  0  0  0  0  0  0  0  0  0
   -7.1461    6.9154   -5.5013 C   0  0  0  0  0  0  0  0  0  0  0  0
   -6.1868    6.7856   -6.4124 F   0  0  0  0  0  0  0  0  0  0  0  0
   -7.7901    5.7779   -5.0361 C   0  0  0  0  0  0  0  0  0  0  0  0
   -8.7946    5.8874   -4.0796 C   0  0  0  0  0  0  0  0  0  0  0  0
  -13.1894    3.3887    4.2841 C   0  0  0  0  0  0  0  0  0  0  0  0
  -13.2082    2.7008    2.9513 C   0  0  0  0  0  0  0  0  0  0  0  0
 23 22  1  0  0  0
 24 22  2  0  0  0
 24 25  1  0  0  0
 22 21  1  0  0  0
 25 19  2  0  0  0
 21 20  2  0  0  0
 19 17  1  0  0  0
 19 20  1  0  0  0
 17 14  1  0  0  0
  6  7  2  0  0  0
  6  5  1  0  0  0
  7  8  1  0  0  0
 14 16  2  0  0  0
 14 15  2  0  0  0
 14 13  1  0  0  0
  5  4  2  0  0  0
  8 13  2  0  0  0
  8  9  1  0  0  0
 13 12  1  0  0  0
  4  9  1  0  0  0
  4  2  1  0  0  0
  9 10  2  0  0  0
 12 11  2  0  0  0
  2  3  2  0  0  0
  2  1  1  0  0  0
 10 11  1  0  0  0
 10  1  1  0  0  0
  1 27  1  0  0  0
 26 27  1  0  0  0
 17 18  1  0  0  0
M  END
> <minimizedAffinity>
-7.49871

$$$$
5CP5_EB0_A_201


 27 30  0  0  0  0  0  0  0  0999 V2000
  -12.8100    5.8683    0.5756 N   0  0  0  0  0  0  0  0  0  0  0  0
  -11.5423    5.9039    1.0428 C   0  0  0  0  0  0  0  0  0  0  0  0
  -11.1792    5.3679    2.1045 O   0  0  0  0  0  0  0  0  0  0  0  0
  -10.7824    6.6760    0.2292 C   0  0  0  0  0  0  0  0  0  0  0  0
   -9.4846    7.0442    0.1923 C   0  0  0  0  0  0  0  0  0  0  0  0
   -9.0101    7.8763   -0.8379 C   0  0  0  0  0  0  0  0  0  0  0  0
   -9.9156    8.3140   -1.8284 C   0  0  0  0  0  0  0  0  0  0  0  0
  -11.2718    7.8990   -1.7670 C   0  0  0  0  0  0  0  0  0  0  0  0
  -11.6273    7.1119   -0.7277 C   0  0  0  0  0  0  0  0  0  0  0  0
  -12.8617    6.6203   -0.5305 C   0  0  0  0  0  0  0  0  0  0  0  0
  -13.8725    6.9669   -1.3703 C   0  0  0  0  0  0  0  0  0  0  0  0
  -13.5910    7.7721   -2.4825 C   0  0  0  0  0  0  0  0  0  0  0  0
  -12.2964    8.2668   -2.6821 C   0  0  0  0  0  0  0  0  0  0  0  0
  -12.0255    9.3541   -4.0789 S   0  0  0  0  0  0  0  0  0  0  0  0
  -10.7695    8.8458   -4.7846 O   0  0  0  0  0  0  0  0  0  0  0  0
  -11.8602   10.7808   -3.5747 O   0  0  0  0  0  0  0  0  0  0  0  0
  -13.3180    9.2891   -5.0239 N   0  0  0  0  0  0  0  0  0  0  0  0
  -14.0987    9.8332   -4.7714 H   0  0  0  0  0  0  0  0  0  0  0  0
  -13.4100    8.5343   -6.1495 C   0  0  0  0  0  0  0  0  0  0  0  0
  -13.3340    7.1426   -6.2173 C   0  0  0  0  0  0  0  0  0  0  0  0
  -13.3880    6.4726   -7.4475 C   0  0  0  0  0  0  0  0  0  0  0  0
  -13.5142    7.1845   -8.6264 C   0  0  0  0  0  0  0  0  0  0  0  0
  -13.5869    6.5806   -9.8084 F   0  0  0  0  0  0  0  0  0  0  0  0
  -13.5764    8.5695   -8.5739 C   0  0  0  0  0  0  0  0  0  0  0  0
  -13.5066    9.2246   -7.3484 C   0  0  0  0  0  0  0  0  0  0  0  0
  -13.7240    3.6721    0.6986 C   0  0  0  0  0  0  0  0  0  0  0  0
  -13.9490    5.0871    1.1426 C   0  0  0  0  0  0  0  0  0  0  0  0
 23 22  1  0  0  0
 24 22  2  0  0  0
 24 25  1  0  0  0
 22 21  1  0  0  0
 25 19  2  0  0  0
 21 20  2  0  0  0
 19 17  1  0  0  0
 19 20  1  0  0  0
 17 14  1  0  0  0
  6  7  2  0  0  0
  6  5  1  0  0  0
  7  8  1  0  0  0
 14 16  2  0  0  0
 14 15  2  0  0  0
 14 13  1  0  0  0
  5  4  2  0  0  0
  8 13  2  0  0  0
  8  9  1  0  0  0
 13 12  1  0  0  0
  4  9  1  0  0  0
  4  2  1  0  0  0
  9 10  2  0  0  0
 12 11  2  0  0  0
  2  3  2  0  0  0
  2  1  1  0  0  0
 10 11  1  0  0  0
 10  1  1  0  0  0
  1 27  1  0  0  0
 26 27  1  0  0  0
 17 18  1  0  0  0
M  END
> <minimizedAffinity>
-7.46094

$$$$
