3DD0_EZL_A_301
  RCSB PDB12061708183D
Coordinates from PDB:3DD0:A:301 Model:1 without hydrogens
 16 17  0  0  0  0            999 V2000
   -5.4650   -0.6060   16.2520   N 0  0  0  0  0  0  0  0  0  0  0  0
   -3.6850    3.3930   15.2430   C 0  0  0  0  0  0  0  0  0  0  0  0
   -4.8450    4.0640   14.8540   C 0  0  0  0  0  0  0  0  0  0  0  0
   -4.7370    5.2650   14.1050   C 0  0  0  0  0  0  0  0  0  0  0  0
   -3.3640    5.6120   13.8750   C 0  0  0  0  0  0  0  0  0  0  0  0
   -1.9210    7.5120   13.0240   C 0  0  0  0  0  0  0  0  0  0  0  0
   -5.6250    0.8590   18.2690   O 0  0  0  0  0  0  0  0  0  0  0  0
   -7.4470    0.8910   16.6670   O 0  0  0  0  0  0  0  0  0  0  0  0
   -6.0450    0.7020   16.9090   S 0  0  0  0  0  0  0  0  0  0  0  0
   -5.2880    2.0820   16.0560   C 0  0  0  0  0  0  0  0  0  0  0  0
   -3.9690    2.2590   15.9940   N 0  0  0  0  0  0  0  0  0  0  0  0
   -6.2190    3.2530   15.3190   S 0  0  0  0  0  0  0  0  0  0  0  0
   -2.1720    4.9870   14.2630   C 0  0  0  0  0  0  0  0  0  0  0  0
   -2.3270    3.7790   15.0230   C 0  0  0  0  0  0  0  0  0  0  0  0
   -3.2050    6.7660   13.0960   O 0  0  0  0  0  0  0  0  0  0  0  0
   -1.7510    8.4140   14.2560   C 0  0  0  0  0  0  0  0  0  0  0  0
  1  9  1  0  0  0  0
  2  3  2  0  0  0  0
  2 11  1  0  0  0  0
  2 14  1  0  0  0  0
  3  4  1  0  0  0  0
  3 12  1  0  0  0  0
  4  5  2  0  0  0  0
  5 13  1  0  0  0  0
  5 15  1  0  0  0  0
  6 15  1  0  0  0  0
  6 16  1  0  0  0  0
  7  9  2  0  0  0  0
  8  9  2  0  0  0  0
  9 10  1  0  0  0  0
 10 11  2  0  0  0  0
 10 12  1  0  0  0  0
 13 14  2  0  0  0  0
A    1
N1
A    2
C2
A    3
C3
A    4
C4
A    5
C5
A    6
C8
A    7
O1
A    8
O2
A    9
S1
A   10
C1
A   11
N2
A   12
S2
A   13
C6
A   14
C7
A   15
O3
A   16
C9
M  END
>  <InstanceId>
3DD0_EZL_A_301

>  <ChemCompId>
EZL

>  <PdbId>
3DD0

>  <ChainId>
A

>  <ResidueNumber>
301

>  <InsertionCode>


>  <Model>
1

>  <AltIds>


>  <MissingHeavyAtoms>
0

>  <ObservedFormula>
C9 N2 O3 S2

>  <Name>
6-ethoxy-1,3-benzothiazole-2-sulfonamide

>  <SystematicName>
6-ethoxy-1,3-benzothiazole-2-sulfonamide

>  <Synonyms>
Ethoxzolamide

>  <Type>
NON-POLYMER

>  <Formula>
C9 H10 N2 O3 S2

>  <MolecularWeight>
258.317

>  <ModifiedDate>
2011-06-04

>  <Parent>


>  <OneLetterCode>


>  <SubcomponentList>


>  <AmbiguousFlag>
N

>  <InChI>
InChI=1S/C9H10N2O3S2/c1-2-14-6-3-4-7-8(5-6)15-9(11-7)16(10,12)13/h3-5H,2H2,1H3,(H2,10,12,13)

>  <InChIKey>
OUZWUKMCLIBBOG-UHFFFAOYSA-N

>  <SMILES>
CCOc1ccc2c(c1)sc(n2)S(=O)(=O)N

$$$$
