4K4J_1O8_A_500


 23 24  0  0  0  0  0  0  0  0999 V2000
   63.6570   48.6578   28.5779 C   0  0  0  0  0  0  0  0  0  0  0  0
   64.6131   49.4963   27.7293 C   0  0  0  0  0  0  0  0  0  0  0  0
   62.5874   48.0107   27.9659 C   0  0  0  0  0  0  0  0  0  0  0  0
   65.5357   46.7220   29.6786 C   0  0  0  0  0  0  0  0  0  0  0  0
   66.9064   46.4140   30.2893 C   0  0  0  0  0  0  0  0  0  0  0  0
   66.8262   45.9291   31.7405 C   0  0  0  0  0  0  0  0  0  0  0  0
   65.8956   46.8055   32.5851 C   0  0  0  0  0  0  0  0  0  0  0  0
   66.0406   46.7704   33.9685 C   0  0  0  0  0  0  0  0  0  0  0  0
   65.2106   47.5222   34.7927 C   0  0  0  0  0  0  0  0  0  0  0  0
   64.2185   48.3349   34.2495 C   0  0  0  0  0  0  0  0  0  0  0  0
   64.0713   48.3798   32.8694 C   0  0  0  0  0  0  0  0  0  0  0  0
   64.9017   47.6212   32.0504 C   0  0  0  0  0  0  0  0  0  0  0  0
   64.7479   47.6675   30.5876 C   0  0  0  0  0  0  0  0  0  0  0  0
   63.8503   48.5695   30.0333 C   0  0  0  0  0  0  0  0  0  0  0  0
   61.6232   47.2198   28.7309 C   0  0  0  0  0  0  0  0  0  0  0  0
   60.2605   47.4147   28.5249 C   0  0  0  0  0  0  0  0  0  0  0  0
   59.2586   46.6539   29.2810 C   0  0  0  0  0  0  0  0  0  0  0  0
   59.7058   45.6740   30.3679 C   0  0  0  0  0  0  0  0  0  0  0  0
   57.9127   46.8268   28.9771 C   0  0  0  0  0  0  0  0  0  0  0  0
   56.8433   46.1096   29.6787 C   0  0  0  0  0  0  0  0  0  0  0  0
   56.4087   46.6074   30.7397 O   0  0  0  0  0  0  0  0  0  0  0  0
   56.4219   45.0359   29.1958 O   0  0  0  0  0  0  0  0  0  0  0  0
   56.7838   44.7079   28.3962 H   0  0  0  0  0  0  0  0  0  0  0  0
  2  1  1  0  0  0
  3  1  2  0  0  0
  3 15  1  0  0  0
 16 15  2  0  0  0
 16 17  1  0  0  0
  1 14  1  0  0  0
 19 17  2  0  0  0
 19 20  1  0  0  0
 17 18  1  0  0  0
 21 20  2  0  0  0
 20 22  1  0  0  0
  4  5  1  0  0  0
  4 13  1  0  0  0
 14 13  2  0  0  0
  5  6  1  0  0  0
 13 12  1  0  0  0
  6  7  1  0  0  0
 12  7  2  0  0  0
 12 11  1  0  0  0
  7  8  1  0  0  0
 11 10  2  0  0  0
  8  9  2  0  0  0
 10  9  1  0  0  0
 22 23  1  0  0  0
M  END
> <minimizedAffinity>
-11.12909

$$$$
4K4J_1O8_A_500


 23 24  0  0  0  0  0  0  0  0999 V2000
   63.9790   48.2713   27.8389 C   0  0  0  0  0  0  0  0  0  0  0  0
   64.8250   49.2497   27.0239 C   0  0  0  0  0  0  0  0  0  0  0  0
   62.5907   48.3508   27.7767 C   0  0  0  0  0  0  0  0  0  0  0  0
   64.3583   48.8474   30.6696 C   0  0  0  0  0  0  0  0  0  0  0  0
   63.9270   48.6477   32.1258 C   0  0  0  0  0  0  0  0  0  0  0  0
   64.9795   47.9267   32.9743 C   0  0  0  0  0  0  0  0  0  0  0  0
   65.5374   46.6897   32.2627 C   0  0  0  0  0  0  0  0  0  0  0  0
   66.1574   45.7136   33.0365 C   0  0  0  0  0  0  0  0  0  0  0  0
   66.7072   44.5795   32.4491 C   0  0  0  0  0  0  0  0  0  0  0  0
   66.6421   44.3918   31.0707 C   0  0  0  0  0  0  0  0  0  0  0  0
   66.0196   45.3587   30.2922 C   0  0  0  0  0  0  0  0  0  0  0  0
   65.4760   46.4937   30.8854 C   0  0  0  0  0  0  0  0  0  0  0  0
   64.8156   47.5196   30.0625 C   0  0  0  0  0  0  0  0  0  0  0  0
   64.6327   47.2806   28.7076 C   0  0  0  0  0  0  0  0  0  0  0  0
   61.7305   47.4614   28.5574 C   0  0  0  0  0  0  0  0  0  0  0  0
   60.3479   47.5600   28.4300 C   0  0  0  0  0  0  0  0  0  0  0  0
   59.4475   46.6982   29.2050 C   0  0  0  0  0  0  0  0  0  0  0  0
   60.0259   45.6017   30.1019 C   0  0  0  0  0  0  0  0  0  0  0  0
   58.0742   46.8854   29.0912 C   0  0  0  0  0  0  0  0  0  0  0  0
   57.1000   46.0724   29.8261 C   0  0  0  0  0  0  0  0  0  0  0  0
   56.8824   46.3654   31.0215 O   0  0  0  0  0  0  0  0  0  0  0  0
   56.5404   45.1234   29.2344 O   0  0  0  0  0  0  0  0  0  0  0  0
   56.7410   44.9479   28.3361 H   0  0  0  0  0  0  0  0  0  0  0  0
  2  1  1  0  0  0
  3  1  2  0  0  0
  3 15  1  0  0  0
 16 15  2  0  0  0
 16 17  1  0  0  0
  1 14  1  0  0  0
 19 17  2  0  0  0
 19 20  1  0  0  0
 17 18  1  0  0  0
 21 20  2  0  0  0
 20 22  1  0  0  0
  4  5  1  0  0  0
  4 13  1  0  0  0
 14 13  2  0  0  0
  5  6  1  0  0  0
 13 12  1  0  0  0
  6  7  1  0  0  0
 12  7  2  0  0  0
 12 11  1  0  0  0
  7  8  1  0  0  0
 11 10  2  0  0  0
  8  9  2  0  0  0
 10  9  1  0  0  0
 22 23  1  0  0  0
M  END
> <minimizedAffinity>
-10.00670

$$$$
