3EL5_1UN_B_201
  RCSB PDB12061708283D
Coordinates from PDB:3EL5:B:201 Model:1 without hydrogens
 40 43  0  0  0  0            999 V2000
    8.0680    1.6420   13.0990   C 0  0  0  0  0  0  0  0  0  0  0  0
    7.3920    2.5160   11.9440   C 0  0  0  0  0  0  0  0  0  0  0  0
    8.3000    2.7520   10.6490   C 0  0  0  0  0  0  0  0  0  0  0  0
    8.8580    1.3450   10.2510   C 0  0  0  0  0  0  0  0  0  0  0  0
    9.5000    0.5200   11.4490   C 0  0  0  0  0  0  0  0  0  0  0  0
    8.4450    0.1750   12.6270   C 0  0  0  0  0  0  0  0  0  0  0  0
    5.7880    0.8040   13.9290   N 0  0  0  0  0  0  0  0  0  0  0  0
    5.1110    1.6050   12.8130   C 0  0  0  0  0  0  0  0  0  0  0  0
    6.0200    1.7870   11.5090   C 0  0  0  0  0  0  0  0  0  0  0  0
    7.0900    1.4590   14.3850   C 0  0  0  0  0  0  0  0  0  0  0  0
    3.9190    0.8840   12.3480   C 0  0  0  0  0  0  0  0  0  0  0  0
    2.8630    1.7710   12.0750   N 0  0  0  0  0  0  0  0  0  0  0  0
    1.4880    1.3700   11.5770   C 0  0  0  0  0  0  0  0  0  0  0  0
    0.8440    0.4770   12.6190   C 0  0  0  0  0  0  0  0  0  0  0  0
    1.5610    0.5430   10.2110   C 0  0  0  0  0  0  0  0  0  0  0  0
    0.6580    2.7160   11.4010   C 0  0  0  0  0  0  0  0  0  0  0  0
    4.0060   -0.4000   12.2330   O 0  0  0  0  0  0  0  0  0  0  0  0
    4.9850    0.6910   15.1750   C 0  0  0  0  0  0  0  0  0  0  0  0
    5.5050   -0.5480   15.9080   C 0  0  0  0  0  0  0  0  0  0  0  0
    4.8080   -1.8970   15.5500   C 0  0  0  0  0  0  0  0  0  0  0  0
    5.3240   -0.2360   17.2750   O 0  0  0  0  0  0  0  0  0  0  0  0
    5.5480   -2.9200   16.3070   N 0  0  0  0  0  0  0  0  0  0  0  0
    3.3400   -2.0610   15.9620   C 0  0  0  0  0  0  0  0  0  0  0  0
    6.5700   -3.6200   15.6020   C 0  0  0  0  0  0  0  0  0  0  0  0
    6.8660   -3.4170   14.4020   O 0  0  0  0  0  0  0  0  0  0  0  0
    7.2820   -4.5580   16.3950   C 0  0  0  0  0  0  0  0  0  0  0  0
    6.5130   -5.4890   17.2530   C 0  0  0  0  0  0  0  0  0  0  0  0
    7.1580   -6.4340   18.1000   C 0  0  0  0  0  0  0  0  0  0  0  0
    8.5780   -6.4760   18.1050   C 0  0  0  0  0  0  0  0  0  0  0  0
    9.3520   -5.5660   17.2650   C 0  0  0  0  0  0  0  0  0  0  0  0
    8.7400   -4.5910   16.3950   C 0  0  0  0  0  0  0  0  0  0  0  0
   10.7200   -5.6190   17.2940   O 0  0  0  0  0  0  0  0  0  0  0  0
    9.6630   -3.6860   15.5700   C 0  0  0  0  0  0  0  0  0  0  0  0
    2.5340   -3.3020   14.8320   S 0  0  0  0  0  0  0  0  0  0  0  0
    2.6710   -4.7690   15.7810   C 0  0  0  0  0  0  0  0  0  0  0  0
    2.9230   -5.9450   15.0430   C 0  0  0  0  0  0  0  0  0  0  0  0
    3.0470   -7.1760   15.7750   C 0  0  0  0  0  0  0  0  0  0  0  0
    2.9240   -7.2320   17.2140   C 0  0  0  0  0  0  0  0  0  0  0  0
    2.6630   -6.0340   17.9680   C 0  0  0  0  0  0  0  0  0  0  0  0
    2.5380   -4.7880   17.2250   C 0  0  0  0  0  0  0  0  0  0  0  0
  1  2  1  0  0  0  0
  1  6  1  0  0  0  0
  1 10  1  0  0  0  0
  2  3  1  0  0  0  0
  2  9  1  0  0  0  0
  3  4  1  0  0  0  0
  4  5  1  0  0  0  0
  5  6  1  0  0  0  0
  7  8  1  0  0  0  0
  7 10  1  0  0  0  0
  7 18  1  0  0  0  0
  8  9  1  0  0  0  0
  8 11  1  0  0  0  0
 11 12  1  0  0  0  0
 11 17  2  0  0  0  0
 12 13  1  0  0  0  0
 13 14  1  0  0  0  0
 13 15  1  0  0  0  0
 13 16  1  0  0  0  0
 18 19  1  0  0  0  0
 19 20  1  0  0  0  0
 19 21  1  0  0  0  0
 20 22  1  0  0  0  0
 20 23  1  0  0  0  0
 22 24  1  0  0  0  0
 23 34  1  0  0  0  0
 24 25  2  0  0  0  0
 24 26  1  0  0  0  0
 26 27  2  0  0  0  0
 26 31  1  0  0  0  0
 27 28  1  0  0  0  0
 28 29  2  0  0  0  0
 29 30  1  0  0  0  0
 30 31  2  0  0  0  0
 30 32  1  0  0  0  0
 31 33  1  0  0  0  0
 34 35  1  0  0  0  0
 35 36  2  0  0  0  0
 35 40  1  0  0  0  0
 36 37  1  0  0  0  0
 37 38  2  0  0  0  0
 38 39  1  0  0  0  0
 39 40  2  0  0  0  0
A    1
C1
A    2
C2
A    3
C3
A    4
C4
A    5
C5
A    6
C6
A    7
N7
A    8
C8
A    9
C9
A   10
C10
A   11
C11
A   12
N12
A   13
C13
A   14
C14
A   15
C15
A   16
C16
A   17
O17
A   18
C18
A   19
C19
A   20
C20
A   21
O21
A   22
N22
A   23
C23
A   24
C24
A   25
O25
A   26
C29
A   27
C30
A   28
C31
A   29
C32
A   30
C33
A   31
C34
A   32
O38
A   33
C39
A   34
S74
A   35
C77
A   36
C78
A   37
C79
A   38
C80
A   39
C81
A   40
C82
M  END
>  <InstanceId>
3EL5_1UN_B_201

>  <ChemCompId>
1UN

>  <PdbId>
3EL5

>  <ChainId>
B

>  <ResidueNumber>
201

>  <InsertionCode>


>  <Model>
1

>  <AltIds>


>  <MissingHeavyAtoms>
0

>  <ObservedFormula>
C32 N3 O4 S

>  <Name>
2-[2-HYDROXY-3-(3-HYDROXY-2-METHYL-BENZOYLAMINO)-4-PHENYL SULFANYL-BUTYL]-DECAHYDRO-ISOQUINOLINE-3-CARBOXYLIC ACID TERT-BUTYLAMIDE

>  <SystematicName>
(2S,3S,4aS,8aS)-N-tert-butyl-2-[(2R,3R)-2-hydroxy-3-[(3-hydroxy-2-methyl-phenyl)carbonylamino]-4-phenylsulfanyl-butyl]-3,4,4a,5,6,7,8,8a-octahydro-1H-isoquinoline-3-carboxamide

>  <Synonyms>
NELFINAVIR MESYLATE AG1343

>  <Type>
NON-POLYMER

>  <Formula>
C32 H45 N3 O4 S

>  <MolecularWeight>
567.782

>  <ModifiedDate>
2011-06-04

>  <Parent>


>  <OneLetterCode>


>  <SubcomponentList>


>  <AmbiguousFlag>
N

>  <InChI>
InChI=1S/C32H45N3O4S/c1-21-25(15-10-16-28(21)36)30(38)33-26(20-40-24-13-6-5-7-14-24)29(37)19-35-18-23-12-9-8-11-22(23)17-27(35)31(39)34-32(2,3)4/h5-7,10,13-16,22-23,26-27,29,36-37H,8-9,11-12,17-20H2,1-4H3,(H,33,38)(H,34,39)/t22-,23+,26-,27-,29+/m0/s1

>  <InChIKey>
QAGYKUNXZHXKMR-HKWSIXNMSA-N

>  <SMILES>
Cc1c(cccc1O)C(=O)N[C@@H](CSc2ccccc2)[C@@H](C[N@@]3C[C@H]4CCCC[C@H]4C[C@H]3C(=O)NC(C)(C)C)O

$$$$
