3EL5_1UN_B_201


 44 47  0  0  0  0  0  0  0  0999 V2000
    5.4926   -0.5734   15.5951 C   0  0  0  0  0  0  0  0  0  0  0  0
    5.2168   -0.3743   16.9673 O   0  0  0  0  0  0  0  0  0  0  0  0
    4.2567   -0.3606   17.1054 H   0  0  0  0  0  0  0  0  0  0  0  0
    4.8396    0.6291   14.9093 C   0  0  0  0  0  0  0  0  0  0  0  0
    7.8108    1.8461   12.8092 C   0  0  0  0  0  0  0  0  0  0  0  0
    7.0601    2.7509   11.7264 C   0  0  0  0  0  0  0  0  0  0  0  0
    7.9167    3.1045   10.4231 C   0  0  0  0  0  0  0  0  0  0  0  0
    8.5278    1.7514    9.9282 C   0  0  0  0  0  0  0  0  0  0  0  0
    9.2435    0.8913   11.0578 C   0  0  0  0  0  0  0  0  0  0  0  0
    8.2418    0.4286   12.2419 C   0  0  0  0  0  0  0  0  0  0  0  0
    5.5986    0.8522   13.6506 N   0  0  0  0  0  0  0  0  0  0  0  0
    4.8515    1.6819   12.6024 C   0  0  0  0  0  0  0  0  0  0  0  0
    5.7113    1.9823   11.2870 C   0  0  0  0  0  0  0  0  0  0  0  0
    6.8816    1.5424   14.1085 C   0  0  0  0  0  0  0  0  0  0  0  0
    3.6812    0.9317   12.1287 C   0  0  0  0  0  0  0  0  0  0  0  0
    2.5272    1.7346   12.1330 N   0  0  0  0  0  0  0  0  0  0  0  0
    3.8661   -0.2943   11.7652 O   0  0  0  0  0  0  0  0  0  0  0  0
    2.6250    2.6654   12.4385 H   0  0  0  0  0  0  0  0  0  0  0  0
    1.1440    1.2837   11.7054 C   0  0  0  0  0  0  0  0  0  0  0  0
    0.2100    2.4756   11.7747 C   0  0  0  0  0  0  0  0  0  0  0  0
    0.5556    0.1526   12.6697 C   0  0  0  0  0  0  0  0  0  0  0  0
    1.2786    0.7623   10.2082 C   0  0  0  0  0  0  0  0  0  0  0  0
    4.9991   -1.9779   15.1283 C   0  0  0  0  0  0  0  0  0  0  0  0
    5.7006   -2.9359   15.9985 N   0  0  0  0  0  0  0  0  0  0  0  0
    6.7280   -3.7151   15.3911 C   0  0  0  0  0  0  0  0  0  0  0  0
    7.0589   -3.6311   14.1861 O   0  0  0  0  0  0  0  0  0  0  0  0
    5.4718   -3.0335   16.9510 H   0  0  0  0  0  0  0  0  0  0  0  0
    7.4020   -4.5848   16.2884 C   0  0  0  0  0  0  0  0  0  0  0  0
    6.6107   -5.6032   17.0171 C   0  0  0  0  0  0  0  0  0  0  0  0
    7.2113   -6.4876   17.9572 C   0  0  0  0  0  0  0  0  0  0  0  0
    8.6094   -6.3810   18.1853 C   0  0  0  0  0  0  0  0  0  0  0  0
    9.4050   -5.3832   17.4752 C   0  0  0  0  0  0  0  0  0  0  0  0
    8.8373   -4.4652   16.5175 C   0  0  0  0  0  0  0  0  0  0  0  0
   10.7495   -5.2934   17.7189 O   0  0  0  0  0  0  0  0  0  0  0  0
    9.7774   -3.4570   15.8456 C   0  0  0  0  0  0  0  0  0  0  0  0
   11.1538   -5.8727   18.3344 H   0  0  0  0  0  0  0  0  0  0  0  0
    3.5064   -2.2888   15.2920 C   0  0  0  0  0  0  0  0  0  0  0  0
    3.0992   -3.8152   14.3066 S   0  0  0  0  0  0  0  0  0  0  0  0
    3.1324   -5.0466   15.5531 C   0  0  0  0  0  0  0  0  0  0  0  0
    3.3658   -6.3616   15.0977 C   0  0  0  0  0  0  0  0  0  0  0  0
    3.4054   -7.4091   16.0814 C   0  0  0  0  0  0  0  0  0  0  0  0
    3.2180   -7.1495   17.4908 C   0  0  0  0  0  0  0  0  0  0  0  0
    2.9758   -5.8093   17.9567 C   0  0  0  0  0  0  0  0  0  0  0  0
    2.9363   -4.7495   16.9590 C   0  0  0  0  0  0  0  0  0  0  0  0
  5  6  1  0  0  0
  5 10  1  0  0  0
  5 14  1  0  0  0
  6  7  1  0  0  0
  6 13  1  0  0  0
  7  8  1  0  0  0
  8  9  1  0  0  0
  9 10  1  0  0  0
 11 12  1  0  0  0
 11 14  1  0  0  0
 11  4  1  0  0  0
 12 13  1  0  0  0
 12 15  1  0  0  0
 15 16  1  0  0  0
 15 17  2  0  0  0
 16 19  1  0  0  0
 19 20  1  0  0  0
 19 21  1  0  0  0
 19 22  1  0  0  0
  4  1  1  0  0  0
  1 23  1  0  0  0
  1  2  1  0  0  0
 23 24  1  0  0  0
 23 37  1  0  0  0
 24 25  1  0  0  0
 37 38  1  0  0  0
 25 26  2  0  0  0
 25 28  1  0  0  0
 28 29  2  0  0  0
 28 33  1  0  0  0
 29 30  1  0  0  0
 30 31  2  0  0  0
 31 32  1  0  0  0
 32 33  2  0  0  0
 32 34  1  0  0  0
 33 35  1  0  0  0
 38 39  1  0  0  0
 39 40  2  0  0  0
 39 44  1  0  0  0
 40 41  1  0  0  0
 41 42  2  0  0  0
 42 43  1  0  0  0
 43 44  2  0  0  0
 16 18  1  0  0  0
  2  3  1  0  0  0
 24 27  1  0  0  0
 34 36  1  0  0  0
M  END
> <minimizedAffinity>
-11.15683

$$$$
3EL5_1UN_B_201


 44 47  0  0  0  0  0  0  0  0999 V2000
    5.4790   -0.5295   15.6178 C   0  0  0  0  0  0  0  0  0  0  0  0
    5.2116   -0.1011   16.9384 O   0  0  0  0  0  0  0  0  0  0  0  0
    4.2646   -0.1986   17.1244 H   0  0  0  0  0  0  0  0  0  0  0  0
    4.6328    0.4041   14.7489 C   0  0  0  0  0  0  0  0  0  0  0  0
    7.7372    1.8543   13.0229 C   0  0  0  0  0  0  0  0  0  0  0  0
    7.0585    2.8716   11.9936 C   0  0  0  0  0  0  0  0  0  0  0  0
    8.0049    3.3697   10.8048 C   0  0  0  0  0  0  0  0  0  0  0  0
    8.6656    2.0814   10.2104 C   0  0  0  0  0  0  0  0  0  0  0  0
    9.3054    1.1033   11.2883 C   0  0  0  0  0  0  0  0  0  0  0  0
    8.2243    0.5095   12.3363 C   0  0  0  0  0  0  0  0  0  0  0  0
    5.4800    0.7673   13.5825 N   0  0  0  0  0  0  0  0  0  0  0  0
    4.8032    1.7062   12.5795 C   0  0  0  0  0  0  0  0  0  0  0  0
    5.7543    2.1527   11.3730 C   0  0  0  0  0  0  0  0  0  0  0  0
    6.7181    1.4060   14.2080 C   0  0  0  0  0  0  0  0  0  0  0  0
    3.6792    1.0100   11.9401 C   0  0  0  0  0  0  0  0  0  0  0  0
    2.4935    1.7585   12.0424 N   0  0  0  0  0  0  0  0  0  0  0  0
    3.9250   -0.1259   11.3755 O   0  0  0  0  0  0  0  0  0  0  0  0
    2.5440    2.6240   12.5088 H   0  0  0  0  0  0  0  0  0  0  0  0
    1.1433    1.3411   11.4928 C   0  0  0  0  0  0  0  0  0  0  0  0
    0.5922    0.2336   12.3691 C   0  0  0  0  0  0  0  0  0  0  0  0
    1.2509    0.7700   10.0036 C   0  0  0  0  0  0  0  0  0  0  0  0
    0.2085    2.6269   11.5589 C   0  0  0  0  0  0  0  0  0  0  0  0
    5.1935   -2.0551   15.4612 C   0  0  0  0  0  0  0  0  0  0  0  0
    6.3096   -2.7236   16.1500 N   0  0  0  0  0  0  0  0  0  0  0  0
    7.1198   -3.5897   15.3595 C   0  0  0  0  0  0  0  0  0  0  0  0
    6.9385   -3.8077   14.1395 O   0  0  0  0  0  0  0  0  0  0  0  0
    6.4872   -2.5799   17.1077 H   0  0  0  0  0  0  0  0  0  0  0  0
    8.2088   -4.1670   16.0642 C   0  0  0  0  0  0  0  0  0  0  0  0
    9.5845   -3.7466   15.7106 C   0  0  0  0  0  0  0  0  0  0  0  0
   10.7269   -4.3055   16.3500 C   0  0  0  0  0  0  0  0  0  0  0  0
   10.5234   -5.2869   17.3568 C   0  0  0  0  0  0  0  0  0  0  0  0
    9.1740   -5.7127   17.7185 C   0  0  0  0  0  0  0  0  0  0  0  0
    7.9891   -5.1758   17.0942 C   0  0  0  0  0  0  0  0  0  0  0  0
    9.0035   -6.6671   18.6855 O   0  0  0  0  0  0  0  0  0  0  0  0
    6.6289   -5.7127   17.5557 C   0  0  0  0  0  0  0  0  0  0  0  0
    9.7495   -7.0391   19.1133 H   0  0  0  0  0  0  0  0  0  0  0  0
    3.9187   -2.6026   16.1145 C   0  0  0  0  0  0  0  0  0  0  0  0
    3.2088   -3.9341   15.0238 S   0  0  0  0  0  0  0  0  0  0  0  0
    3.1430   -5.2881   16.1346 C   0  0  0  0  0  0  0  0  0  0  0  0
    2.9736   -4.9474   17.4934 C   0  0  0  0  0  0  0  0  0  0  0  0
    2.9104   -6.0223   18.4458 C   0  0  0  0  0  0  0  0  0  0  0  0
    3.0123   -7.4087   18.0502 C   0  0  0  0  0  0  0  0  0  0  0  0
    3.1891   -7.7578   16.6651 C   0  0  0  0  0  0  0  0  0  0  0  0
    3.2526   -6.6678   15.7017 C   0  0  0  0  0  0  0  0  0  0  0  0
  5  6  1  0  0  0
  5 10  1  0  0  0
  5 14  1  0  0  0
  6  7  1  0  0  0
  6 13  1  0  0  0
  7  8  1  0  0  0
  8  9  1  0  0  0
  9 10  1  0  0  0
 11 12  1  0  0  0
 11 14  1  0  0  0
 11  4  1  0  0  0
 12 13  1  0  0  0
 12 15  1  0  0  0
 15 16  1  0  0  0
 15 17  2  0  0  0
 16 19  1  0  0  0
 19 20  1  0  0  0
 19 21  1  0  0  0
 19 22  1  0  0  0
  4  1  1  0  0  0
  1 23  1  0  0  0
  1  2  1  0  0  0
 23 24  1  0  0  0
 23 37  1  0  0  0
 24 25  1  0  0  0
 37 38  1  0  0  0
 25 26  2  0  0  0
 25 28  1  0  0  0
 28 29  2  0  0  0
 28 33  1  0  0  0
 29 30  1  0  0  0
 30 31  2  0  0  0
 31 32  1  0  0  0
 32 33  2  0  0  0
 32 34  1  0  0  0
 33 35  1  0  0  0
 38 39  1  0  0  0
 39 40  2  0  0  0
 39 44  1  0  0  0
 40 41  1  0  0  0
 41 42  2  0  0  0
 42 43  1  0  0  0
 43 44  2  0  0  0
 16 18  1  0  0  0
  2  3  1  0  0  0
 24 27  1  0  0  0
 34 36  1  0  0  0
M  END
> <minimizedAffinity>
-10.87020

$$$$
3EL5_1UN_B_201


 44 47  0  0  0  0  0  0  0  0999 V2000
    4.1545   -0.9288   12.9740 C   0  0  0  0  0  0  0  0  0  0  0  0
    4.9860   -1.9420   12.4440 O   0  0  0  0  0  0  0  0  0  0  0  0
    5.2260   -2.5645   13.1481 H   0  0  0  0  0  0  0  0  0  0  0  0
    5.0212   -0.2636   14.0459 C   0  0  0  0  0  0  0  0  0  0  0  0
    7.4025   -2.7278   15.7712 C   0  0  0  0  0  0  0  0  0  0  0  0
    8.7733   -1.9079   15.7138 C   0  0  0  0  0  0  0  0  0  0  0  0
   10.0948   -2.7724   15.9661 C   0  0  0  0  0  0  0  0  0  0  0  0
    9.9710   -4.0294   15.0419 C   0  0  0  0  0  0  0  0  0  0  0  0
    8.5768   -4.7883   15.1331 C   0  0  0  0  0  0  0  0  0  0  0  0
    7.3197   -3.8756   14.6790 C   0  0  0  0  0  0  0  0  0  0  0  0
    6.2487   -1.0942   14.1619 N   0  0  0  0  0  0  0  0  0  0  0  0
    7.5567   -0.3041   14.0598 C   0  0  0  0  0  0  0  0  0  0  0  0
    8.8668   -1.1986   14.2677 C   0  0  0  0  0  0  0  0  0  0  0  0
    6.1064   -1.7788   15.5196 C   0  0  0  0  0  0  0  0  0  0  0  0
    7.6870    0.2525   12.7070 C   0  0  0  0  0  0  0  0  0  0  0  0
    7.8986    1.6418   12.7474 N   0  0  0  0  0  0  0  0  0  0  0  0
    7.6198   -0.5717   11.7142 O   0  0  0  0  0  0  0  0  0  0  0  0
    7.9338    2.0682   13.6340 H   0  0  0  0  0  0  0  0  0  0  0  0
    8.0768    2.5369   11.5364 C   0  0  0  0  0  0  0  0  0  0  0  0
    8.3081    3.9548   12.0201 C   0  0  0  0  0  0  0  0  0  0  0  0
    6.7793    2.5508   10.6030 C   0  0  0  0  0  0  0  0  0  0  0  0
    9.3526    1.9953   10.7549 C   0  0  0  0  0  0  0  0  0  0  0  0
    2.7982   -1.5242   13.4638 C   0  0  0  0  0  0  0  0  0  0  0  0
    3.1702   -2.6012   14.3958 N   0  0  0  0  0  0  0  0  0  0  0  0
    2.3939   -3.7949   14.3333 C   0  0  0  0  0  0  0  0  0  0  0  0
    1.4353   -3.9735   13.5472 O   0  0  0  0  0  0  0  0  0  0  0  0
    3.9169   -2.5021   15.0298 H   0  0  0  0  0  0  0  0  0  0  0  0
    2.8290   -4.8155   15.2192 C   0  0  0  0  0  0  0  0  0  0  0  0
    3.1330   -6.1544   14.6631 C   0  0  0  0  0  0  0  0  0  0  0  0
    3.5421   -7.2359   15.4935 C   0  0  0  0  0  0  0  0  0  0  0  0
    3.6631   -7.0053   16.8901 C   0  0  0  0  0  0  0  0  0  0  0  0
    3.3680   -5.6914   17.4553 C   0  0  0  0  0  0  0  0  0  0  0  0
    2.9473   -4.5692   16.6517 C   0  0  0  0  0  0  0  0  0  0  0  0
    3.4827   -5.4960   18.8057 O   0  0  0  0  0  0  0  0  0  0  0  0
    2.6579   -3.2436   17.3662 C   0  0  0  0  0  0  0  0  0  0  0  0
    3.7534   -6.2014   19.3599 H   0  0  0  0  0  0  0  0  0  0  0  0
    1.8683   -0.5968   14.2556 C   0  0  0  0  0  0  0  0  0  0  0  0
    0.2281   -0.5004   13.3798 S   0  0  0  0  0  0  0  0  0  0  0  0
    0.5937    0.6302   12.0915 C   0  0  0  0  0  0  0  0  0  0  0  0
    0.3631    1.9886   12.3960 C   0  0  0  0  0  0  0  0  0  0  0  0
    0.6500    2.9575   11.3734 C   0  0  0  0  0  0  0  0  0  0  0  0
    1.1583    2.5787   10.0745 C   0  0  0  0  0  0  0  0  0  0  0  0
    1.3903    1.1932    9.7609 C   0  0  0  0  0  0  0  0  0  0  0  0
    1.0995    0.2132   10.7979 C   0  0  0  0  0  0  0  0  0  0  0  0
  5  6  1  0  0  0
  5 10  1  0  0  0
  5 14  1  0  0  0
  6  7  1  0  0  0
  6 13  1  0  0  0
  7  8  1  0  0  0
  8  9  1  0  0  0
  9 10  1  0  0  0
 11 12  1  0  0  0
 11 14  1  0  0  0
 11  4  1  0  0  0
 12 13  1  0  0  0
 12 15  1  0  0  0
 15 16  1  0  0  0
 15 17  2  0  0  0
 16 19  1  0  0  0
 19 20  1  0  0  0
 19 21  1  0  0  0
 19 22  1  0  0  0
  4  1  1  0  0  0
  1 23  1  0  0  0
  1  2  1  0  0  0
 23 24  1  0  0  0
 23 37  1  0  0  0
 24 25  1  0  0  0
 37 38  1  0  0  0
 25 26  2  0  0  0
 25 28  1  0  0  0
 28 29  2  0  0  0
 28 33  1  0  0  0
 29 30  1  0  0  0
 30 31  2  0  0  0
 31 32  1  0  0  0
 32 33  2  0  0  0
 32 34  1  0  0  0
 33 35  1  0  0  0
 38 39  1  0  0  0
 39 40  2  0  0  0
 39 44  1  0  0  0
 40 41  1  0  0  0
 41 42  2  0  0  0
 42 43  1  0  0  0
 43 44  2  0  0  0
 16 18  1  0  0  0
  2  3  1  0  0  0
 24 27  1  0  0  0
 34 36  1  0  0  0
M  END
> <minimizedAffinity>
-10.82883

$$$$
3EL5_1UN_B_201


 44 47  0  0  0  0  0  0  0  0999 V2000
    5.1275   -0.2910   15.4185 C   0  0  0  0  0  0  0  0  0  0  0  0
    5.0927    0.8762   16.2156 O   0  0  0  0  0  0  0  0  0  0  0  0
    5.9937    1.1059   16.4921 H   0  0  0  0  0  0  0  0  0  0  0  0
    5.7226   -1.3532   16.3460 C   0  0  0  0  0  0  0  0  0  0  0  0
    2.7962   -3.8320   16.4480 C   0  0  0  0  0  0  0  0  0  0  0  0
    3.5415   -5.1530   16.9523 C   0  0  0  0  0  0  0  0  0  0  0  0
    2.7366   -6.5165   16.7279 C   0  0  0  0  0  0  0  0  0  0  0  0
    2.2498   -6.4905   15.2407 C   0  0  0  0  0  0  0  0  0  0  0  0
    1.5336   -5.1418   14.7980 C   0  0  0  0  0  0  0  0  0  0  0  0
    2.4973   -3.8446   14.8899 C   0  0  0  0  0  0  0  0  0  0  0  0
    5.0216   -2.6244   16.0254 N   0  0  0  0  0  0  0  0  0  0  0  0
    5.7666   -3.8855   16.4726 C   0  0  0  0  0  0  0  0  0  0  0  0
    4.9629   -5.2406   16.1941 C   0  0  0  0  0  0  0  0  0  0  0  0
    3.6701   -2.4888   16.7234 C   0  0  0  0  0  0  0  0  0  0  0  0
    7.0110   -4.0165   15.7036 C   0  0  0  0  0  0  0  0  0  0  0  0
    8.0824   -4.3948   16.5315 N   0  0  0  0  0  0  0  0  0  0  0  0
    6.9504   -3.8033   14.4307 O   0  0  0  0  0  0  0  0  0  0  0  0
    7.8908   -4.5235   17.4886 H   0  0  0  0  0  0  0  0  0  0  0  0
    9.5091   -4.6208   16.0703 C   0  0  0  0  0  0  0  0  0  0  0  0
   10.1042   -3.2813   15.6835 C   0  0  0  0  0  0  0  0  0  0  0  0
    9.5826   -5.5704   14.7865 C   0  0  0  0  0  0  0  0  0  0  0  0
   10.2923   -5.2472   17.3055 C   0  0  0  0  0  0  0  0  0  0  0  0
    5.9024   -0.0321   14.0895 C   0  0  0  0  0  0  0  0  0  0  0  0
    5.1905    1.0840   13.4455 N   0  0  0  0  0  0  0  0  0  0  0  0
    4.4605    0.7758   12.2607 C   0  0  0  0  0  0  0  0  0  0  0  0
    4.3930   -0.3657   11.7498 O   0  0  0  0  0  0  0  0  0  0  0  0
    5.2173    1.9965   13.8142 H   0  0  0  0  0  0  0  0  0  0  0  0
    3.7548    1.8789   11.7121 C   0  0  0  0  0  0  0  0  0  0  0  0
    4.5304    2.9853   11.1050 C   0  0  0  0  0  0  0  0  0  0  0  0
    3.8943    4.1387   10.5652 C   0  0  0  0  0  0  0  0  0  0  0  0
    2.4763    4.2109   10.6124 C   0  0  0  0  0  0  0  0  0  0  0  0
    1.6958    3.1290   11.2066 C   0  0  0  0  0  0  0  0  0  0  0  0
    2.2990    1.9446   11.7682 C   0  0  0  0  0  0  0  0  0  0  0  0
    0.3305    3.2256   11.2490 O   0  0  0  0  0  0  0  0  0  0  0  0
    1.3705    0.8839   12.3720 C   0  0  0  0  0  0  0  0  0  0  0  0
   -0.0970    3.9801   10.8942 H   0  0  0  0  0  0  0  0  0  0  0  0
    7.3627    0.4219   14.2039 C   0  0  0  0  0  0  0  0  0  0  0  0
    8.2564   -0.0282   12.6338 S   0  0  0  0  0  0  0  0  0  0  0  0
    8.1787    1.4832   11.7501 C   0  0  0  0  0  0  0  0  0  0  0  0
    8.2308    2.6499   12.5421 C   0  0  0  0  0  0  0  0  0  0  0  0
    8.1734    3.9167   11.8650 C   0  0  0  0  0  0  0  0  0  0  0  0
    8.0680    4.0172   10.4270 C   0  0  0  0  0  0  0  0  0  0  0  0
    8.0107    2.8281    9.6179 C   0  0  0  0  0  0  0  0  0  0  0  0
    8.0693    1.5459   10.3053 C   0  0  0  0  0  0  0  0  0  0  0  0
  5  6  1  0  0  0
  5 10  1  0  0  0
  5 14  1  0  0  0
  6  7  1  0  0  0
  6 13  1  0  0  0
  7  8  1  0  0  0
  8  9  1  0  0  0
  9 10  1  0  0  0
 11 12  1  0  0  0
 11 14  1  0  0  0
 11  4  1  0  0  0
 12 13  1  0  0  0
 12 15  1  0  0  0
 15 16  1  0  0  0
 15 17  2  0  0  0
 16 19  1  0  0  0
 19 20  1  0  0  0
 19 21  1  0  0  0
 19 22  1  0  0  0
  4  1  1  0  0  0
  1 23  1  0  0  0
  1  2  1  0  0  0
 23 24  1  0  0  0
 23 37  1  0  0  0
 24 25  1  0  0  0
 37 38  1  0  0  0
 25 26  2  0  0  0
 25 28  1  0  0  0
 28 29  2  0  0  0
 28 33  1  0  0  0
 29 30  1  0  0  0
 30 31  2  0  0  0
 31 32  1  0  0  0
 32 33  2  0  0  0
 32 34  1  0  0  0
 33 35  1  0  0  0
 38 39  1  0  0  0
 39 40  2  0  0  0
 39 44  1  0  0  0
 40 41  1  0  0  0
 41 42  2  0  0  0
 42 43  1  0  0  0
 43 44  2  0  0  0
 16 18  1  0  0  0
  2  3  1  0  0  0
 24 27  1  0  0  0
 34 36  1  0  0  0
M  END
> <minimizedAffinity>
-10.81160

$$$$
3EL5_1UN_B_201


 44 47  0  0  0  0  0  0  0  0999 V2000
    3.7795   -2.4294   15.4203 C   0  0  0  0  0  0  0  0  0  0  0  0
    4.5053   -1.9036   16.5138 O   0  0  0  0  0  0  0  0  0  0  0  0
    5.2848   -1.4284   16.1860 H   0  0  0  0  0  0  0  0  0  0  0  0
    4.7726   -3.3738   14.7386 C   0  0  0  0  0  0  0  0  0  0  0  0
    2.9410   -6.2920   16.4264 C   0  0  0  0  0  0  0  0  0  0  0  0
    3.6615   -6.3114   17.8531 C   0  0  0  0  0  0  0  0  0  0  0  0
    3.4605   -7.6534   18.6991 C   0  0  0  0  0  0  0  0  0  0  0  0
    3.7764   -8.8324   17.7195 C   0  0  0  0  0  0  0  0  0  0  0  0
    3.0426   -8.7432   16.3117 C   0  0  0  0  0  0  0  0  0  0  0  0
    3.4579   -7.4345   15.4546 C   0  0  0  0  0  0  0  0  0  0  0  0
    4.6807   -4.6677   15.4649 N   0  0  0  0  0  0  0  0  0  0  0  0
    5.4132   -4.6894   16.8097 C   0  0  0  0  0  0  0  0  0  0  0  0
    5.2375   -6.0599   17.6163 C   0  0  0  0  0  0  0  0  0  0  0  0
    3.1797   -4.8918   15.6350 C   0  0  0  0  0  0  0  0  0  0  0  0
    6.8586   -4.5654   16.5810 C   0  0  0  0  0  0  0  0  0  0  0  0
    7.4795   -5.8265   16.5586 N   0  0  0  0  0  0  0  0  0  0  0  0
    7.3358   -3.3764   16.4132 O   0  0  0  0  0  0  0  0  0  0  0  0
    6.9059   -6.6154   16.6926 H   0  0  0  0  0  0  0  0  0  0  0  0
    8.9607   -6.0706   16.3448 C   0  0  0  0  0  0  0  0  0  0  0  0
    9.2245   -7.5572   16.4798 C   0  0  0  0  0  0  0  0  0  0  0  0
    9.8571   -5.3202   17.4351 C   0  0  0  0  0  0  0  0  0  0  0  0
    9.2953   -5.5728   14.8711 C   0  0  0  0  0  0  0  0  0  0  0  0
    3.2068   -1.2821   14.5318 C   0  0  0  0  0  0  0  0  0  0  0  0
    4.3134   -0.9057   13.6368 N   0  0  0  0  0  0  0  0  0  0  0  0
    5.1098    0.2055   14.0399 C   0  0  0  0  0  0  0  0  0  0  0  0
    4.9240    0.8636   15.0893 O   0  0  0  0  0  0  0  0  0  0  0  0
    4.4941   -1.3964   12.8026 H   0  0  0  0  0  0  0  0  0  0  0  0
    6.1906    0.4910   13.1648 C   0  0  0  0  0  0  0  0  0  0  0  0
    7.4961   -0.1629   13.4141 C   0  0  0  0  0  0  0  0  0  0  0  0
    8.6338    0.0998   12.5997 C   0  0  0  0  0  0  0  0  0  0  0  0
    8.4935    1.0112   11.5190 C   0  0  0  0  0  0  0  0  0  0  0  0
    7.2136    1.6644   11.2583 C   0  0  0  0  0  0  0  0  0  0  0  0
    6.0368    1.4304   12.0599 C   0  0  0  0  0  0  0  0  0  0  0  0
    7.1054    2.5464   10.2165 O   0  0  0  0  0  0  0  0  0  0  0  0
    4.7546    2.1857   11.6895 C   0  0  0  0  0  0  0  0  0  0  0  0
    7.8483    2.7238    9.6737 H   0  0  0  0  0  0  0  0  0  0  0  0
    2.0306   -1.6269   13.6102 C   0  0  0  0  0  0  0  0  0  0  0  0
    0.6809   -0.3694   13.8627 S   0  0  0  0  0  0  0  0  0  0  0  0
    0.8231    0.5842   12.3992 C   0  0  0  0  0  0  0  0  0  0  0  0
    1.5745   -0.0084   11.3623 C   0  0  0  0  0  0  0  0  0  0  0  0
    1.7191    0.7321   10.1386 C   0  0  0  0  0  0  0  0  0  0  0  0
    1.1243    2.0363    9.9529 C   0  0  0  0  0  0  0  0  0  0  0  0
    0.3608    2.6439   11.0110 C   0  0  0  0  0  0  0  0  0  0  0  0
    0.2152    1.8923   12.2496 C   0  0  0  0  0  0  0  0  0  0  0  0
  5  6  1  0  0  0
  5 10  1  0  0  0
  5 14  1  0  0  0
  6  7  1  0  0  0
  6 13  1  0  0  0
  7  8  1  0  0  0
  8  9  1  0  0  0
  9 10  1  0  0  0
 11 12  1  0  0  0
 11 14  1  0  0  0
 11  4  1  0  0  0
 12 13  1  0  0  0
 12 15  1  0  0  0
 15 16  1  0  0  0
 15 17  2  0  0  0
 16 19  1  0  0  0
 19 20  1  0  0  0
 19 21  1  0  0  0
 19 22  1  0  0  0
  4  1  1  0  0  0
  1 23  1  0  0  0
  1  2  1  0  0  0
 23 24  1  0  0  0
 23 37  1  0  0  0
 24 25  1  0  0  0
 37 38  1  0  0  0
 25 26  2  0  0  0
 25 28  1  0  0  0
 28 29  2  0  0  0
 28 33  1  0  0  0
 29 30  1  0  0  0
 30 31  2  0  0  0
 31 32  1  0  0  0
 32 33  2  0  0  0
 32 34  1  0  0  0
 33 35  1  0  0  0
 38 39  1  0  0  0
 39 40  2  0  0  0
 39 44  1  0  0  0
 40 41  1  0  0  0
 41 42  2  0  0  0
 42 43  1  0  0  0
 43 44  2  0  0  0
 16 18  1  0  0  0
  2  3  1  0  0  0
 24 27  1  0  0  0
 34 36  1  0  0  0
M  END
> <minimizedAffinity>
-10.41070

$$$$
3EL5_1UN_B_201


 44 47  0  0  0  0  0  0  0  0999 V2000
    4.1741   -2.7981   14.2945 C   0  0  0  0  0  0  0  0  0  0  0  0
    3.4734   -3.9609   13.9002 O   0  0  0  0  0  0  0  0  0  0  0  0
    2.6522   -4.0326   14.4116 H   0  0  0  0  0  0  0  0  0  0  0  0
    4.4524   -3.0222   15.7828 C   0  0  0  0  0  0  0  0  0  0  0  0
    8.1329   -3.0350   14.6997 C   0  0  0  0  0  0  0  0  0  0  0  0
    8.4147   -4.6063   14.6191 C   0  0  0  0  0  0  0  0  0  0  0  0
    9.9591   -5.0208   14.5978 C   0  0  0  0  0  0  0  0  0  0  0  0
   10.6343   -4.2294   15.7672 C   0  0  0  0  0  0  0  0  0  0  0  0
   10.2985   -2.6757   15.8009 C   0  0  0  0  0  0  0  0  0  0  0  0
    8.7240   -2.3650   16.0106 C   0  0  0  0  0  0  0  0  0  0  0  0
    5.8857   -3.4036   15.8846 N   0  0  0  0  0  0  0  0  0  0  0  0
    6.1403   -4.9134   15.8523 C   0  0  0  0  0  0  0  0  0  0  0  0
    7.6912   -5.3053   15.8805 C   0  0  0  0  0  0  0  0  0  0  0  0
    6.5431   -2.6940   14.7028 C   0  0  0  0  0  0  0  0  0  0  0  0
    5.5700   -5.5310   17.0565 C   0  0  0  0  0  0  0  0  0  0  0  0
    4.4128   -6.2682   16.7501 N   0  0  0  0  0  0  0  0  0  0  0  0
    6.1921   -5.3449   18.1736 O   0  0  0  0  0  0  0  0  0  0  0  0
    4.1255   -6.2882   15.8087 H   0  0  0  0  0  0  0  0  0  0  0  0
    3.5713   -7.0351   17.7517 C   0  0  0  0  0  0  0  0  0  0  0  0
    2.3653   -7.6011   17.0285 C   0  0  0  0  0  0  0  0  0  0  0  0
    3.0322   -6.0962   18.9277 C   0  0  0  0  0  0  0  0  0  0  0  0
    4.4893   -8.2066   18.3141 C   0  0  0  0  0  0  0  0  0  0  0  0
    3.3639   -1.5140   13.9362 C   0  0  0  0  0  0  0  0  0  0  0  0
    4.2038   -0.7928   12.9658 N   0  0  0  0  0  0  0  0  0  0  0  0
    4.8583    0.3820   13.4381 C   0  0  0  0  0  0  0  0  0  0  0  0
    4.7602    0.8238   14.6060 O   0  0  0  0  0  0  0  0  0  0  0  0
    4.3081   -1.1059   12.0383 H   0  0  0  0  0  0  0  0  0  0  0  0
    5.6925    1.0071   12.4743 C   0  0  0  0  0  0  0  0  0  0  0  0
    7.0303    0.4276   12.2124 C   0  0  0  0  0  0  0  0  0  0  0  0
    7.9347    1.0180   11.2851 C   0  0  0  0  0  0  0  0  0  0  0  0
    7.5241    2.1907   10.5963 C   0  0  0  0  0  0  0  0  0  0  0  0
    6.2084    2.7752   10.8417 C   0  0  0  0  0  0  0  0  0  0  0  0
    5.2625    2.2123   11.7747 C   0  0  0  0  0  0  0  0  0  0  0  0
    5.8388    3.9113   10.1725 O   0  0  0  0  0  0  0  0  0  0  0  0
    3.9167    2.9261   11.9504 C   0  0  0  0  0  0  0  0  0  0  0  0
    6.4266    4.3058    9.5587 H   0  0  0  0  0  0  0  0  0  0  0  0
    2.0089   -1.7077   13.2446 C   0  0  0  0  0  0  0  0  0  0  0  0
    0.8815   -0.3075   13.7293 S   0  0  0  0  0  0  0  0  0  0  0  0
    0.8846    0.6571   12.2661 C   0  0  0  0  0  0  0  0  0  0  0  0
    0.2829    1.9284   12.3789 C   0  0  0  0  0  0  0  0  0  0  0  0
    0.2619    2.7608   11.2070 C   0  0  0  0  0  0  0  0  0  0  0  0
    0.8314    2.3340    9.9490 C   0  0  0  0  0  0  0  0  0  0  0  0
    1.4421    1.0360    9.8311 C   0  0  0  0  0  0  0  0  0  0  0  0
    1.4627    0.1943   11.0192 C   0  0  0  0  0  0  0  0  0  0  0  0
  5  6  1  0  0  0
  5 10  1  0  0  0
  5 14  1  0  0  0
  6  7  1  0  0  0
  6 13  1  0  0  0
  7  8  1  0  0  0
  8  9  1  0  0  0
  9 10  1  0  0  0
 11 12  1  0  0  0
 11 14  1  0  0  0
 11  4  1  0  0  0
 12 13  1  0  0  0
 12 15  1  0  0  0
 15 16  1  0  0  0
 15 17  2  0  0  0
 16 19  1  0  0  0
 19 20  1  0  0  0
 19 21  1  0  0  0
 19 22  1  0  0  0
  4  1  1  0  0  0
  1 23  1  0  0  0
  1  2  1  0  0  0
 23 24  1  0  0  0
 23 37  1  0  0  0
 24 25  1  0  0  0
 37 38  1  0  0  0
 25 26  2  0  0  0
 25 28  1  0  0  0
 28 29  2  0  0  0
 28 33  1  0  0  0
 29 30  1  0  0  0
 30 31  2  0  0  0
 31 32  1  0  0  0
 32 33  2  0  0  0
 32 34  1  0  0  0
 33 35  1  0  0  0
 38 39  1  0  0  0
 39 40  2  0  0  0
 39 44  1  0  0  0
 40 41  1  0  0  0
 41 42  2  0  0  0
 42 43  1  0  0  0
 43 44  2  0  0  0
 16 18  1  0  0  0
  2  3  1  0  0  0
 24 27  1  0  0  0
 34 36  1  0  0  0
M  END
> <minimizedAffinity>
-10.05665

$$$$
3EL5_1UN_B_201


 44 47  0  0  0  0  0  0  0  0999 V2000
    6.5494   -2.2759   14.4313 C   0  0  0  0  0  0  0  0  0  0  0  0
    5.8880   -2.4087   13.1888 O   0  0  0  0  0  0  0  0  0  0  0  0
    5.6515   -1.5299   12.8529 H   0  0  0  0  0  0  0  0  0  0  0  0
    5.5168   -1.5870   15.3269 C   0  0  0  0  0  0  0  0  0  0  0  0
    2.7930    0.4153   13.5129 C   0  0  0  0  0  0  0  0  0  0  0  0
    1.4753   -0.2549   14.1207 C   0  0  0  0  0  0  0  0  0  0  0  0
    0.1294    0.0278   13.3047 C   0  0  0  0  0  0  0  0  0  0  0  0
    0.4621   -0.2742   11.8056 C   0  0  0  0  0  0  0  0  0  0  0  0
    1.7948    0.4071   11.2689 C   0  0  0  0  0  0  0  0  0  0  0  0
    3.1254   -0.0887   12.0457 C   0  0  0  0  0  0  0  0  0  0  0  0
    4.2941   -1.4193   14.4981 N   0  0  0  0  0  0  0  0  0  0  0  0
    3.0479   -2.1040   15.0669 C   0  0  0  0  0  0  0  0  0  0  0  0
    1.7233   -1.8467   14.2074 C   0  0  0  0  0  0  0  0  0  0  0  0
    4.1143    0.0944   14.4045 C   0  0  0  0  0  0  0  0  0  0  0  0
    3.2380   -3.5602   15.0460 C   0  0  0  0  0  0  0  0  0  0  0  0
    3.1432   -4.1036   16.3391 N   0  0  0  0  0  0  0  0  0  0  0  0
    3.4302   -4.1199   13.8974 O   0  0  0  0  0  0  0  0  0  0  0  0
    2.9690   -3.4794   17.0803 H   0  0  0  0  0  0  0  0  0  0  0  0
    3.2873   -5.5729   16.6852 C   0  0  0  0  0  0  0  0  0  0  0  0
    2.9521   -5.7534   18.1525 C   0  0  0  0  0  0  0  0  0  0  0  0
    4.7802   -6.0992   16.4628 C   0  0  0  0  0  0  0  0  0  0  0  0
    2.2489   -6.3591   15.7713 C   0  0  0  0  0  0  0  0  0  0  0  0
    7.9097   -1.5319   14.2587 C   0  0  0  0  0  0  0  0  0  0  0  0
    7.5452   -0.1504   13.9040 N   0  0  0  0  0  0  0  0  0  0  0  0
    7.7337    0.2294   12.5432 C   0  0  0  0  0  0  0  0  0  0  0  0
    8.1817   -0.5301   11.6537 O   0  0  0  0  0  0  0  0  0  0  0  0
    7.1895    0.4788   14.5724 H   0  0  0  0  0  0  0  0  0  0  0  0
    7.3193    1.5552   12.2494 C   0  0  0  0  0  0  0  0  0  0  0  0
    5.8764    1.8167   12.0401 C   0  0  0  0  0  0  0  0  0  0  0  0
    5.3897    3.1130   11.7095 C   0  0  0  0  0  0  0  0  0  0  0  0
    6.3265    4.1741   11.5877 C   0  0  0  0  0  0  0  0  0  0  0  0
    7.7526    3.9343   11.7914 C   0  0  0  0  0  0  0  0  0  0  0  0
    8.2894    2.6369   12.1238 C   0  0  0  0  0  0  0  0  0  0  0  0
    8.6373    4.9711   11.6593 O   0  0  0  0  0  0  0  0  0  0  0  0
    9.8074    2.5128   12.3025 C   0  0  0  0  0  0  0  0  0  0  0  0
    8.3259    5.8282   11.4440 H   0  0  0  0  0  0  0  0  0  0  0  0
    8.8096   -1.4162   15.4950 C   0  0  0  0  0  0  0  0  0  0  0  0
   10.4110   -2.3039   15.1576 S   0  0  0  0  0  0  0  0  0  0  0  0
   10.0275   -3.9232   15.7076 C   0  0  0  0  0  0  0  0  0  0  0  0
    9.5984   -4.8169   14.7035 C   0  0  0  0  0  0  0  0  0  0  0  0
    9.2740   -6.1594   15.1022 C   0  0  0  0  0  0  0  0  0  0  0  0
    9.3775   -6.6015   16.4743 C   0  0  0  0  0  0  0  0  0  0  0  0
    9.8112   -5.6901   17.5005 C   0  0  0  0  0  0  0  0  0  0  0  0
   10.1397   -4.3308   17.0949 C   0  0  0  0  0  0  0  0  0  0  0  0
  5  6  1  0  0  0
  5 10  1  0  0  0
  5 14  1  0  0  0
  6  7  1  0  0  0
  6 13  1  0  0  0
  7  8  1  0  0  0
  8  9  1  0  0  0
  9 10  1  0  0  0
 11 12  1  0  0  0
 11 14  1  0  0  0
 11  4  1  0  0  0
 12 13  1  0  0  0
 12 15  1  0  0  0
 15 16  1  0  0  0
 15 17  2  0  0  0
 16 19  1  0  0  0
 19 20  1  0  0  0
 19 21  1  0  0  0
 19 22  1  0  0  0
  4  1  1  0  0  0
  1 23  1  0  0  0
  1  2  1  0  0  0
 23 24  1  0  0  0
 23 37  1  0  0  0
 24 25  1  0  0  0
 37 38  1  0  0  0
 25 26  2  0  0  0
 25 28  1  0  0  0
 28 29  2  0  0  0
 28 33  1  0  0  0
 29 30  1  0  0  0
 30 31  2  0  0  0
 31 32  1  0  0  0
 32 33  2  0  0  0
 32 34  1  0  0  0
 33 35  1  0  0  0
 38 39  1  0  0  0
 39 40  2  0  0  0
 39 44  1  0  0  0
 40 41  1  0  0  0
 41 42  2  0  0  0
 42 43  1  0  0  0
 43 44  2  0  0  0
 16 18  1  0  0  0
  2  3  1  0  0  0
 24 27  1  0  0  0
 34 36  1  0  0  0
M  END
> <minimizedAffinity>
-10.02667

$$$$
3EL5_1UN_B_201


 44 47  0  0  0  0  0  0  0  0999 V2000
    5.1387   -1.7267   14.0572 C   0  0  0  0  0  0  0  0  0  0  0  0
    5.2598   -1.8312   12.6525 O   0  0  0  0  0  0  0  0  0  0  0  0
    6.0052   -1.2885   12.3510 H   0  0  0  0  0  0  0  0  0  0  0  0
    4.8860   -0.2361   14.2957 C   0  0  0  0  0  0  0  0  0  0  0  0
    7.7908    1.8227   12.8665 C   0  0  0  0  0  0  0  0  0  0  0  0
    6.9957    3.0413   12.2048 C   0  0  0  0  0  0  0  0  0  0  0  0
    7.8302    3.9060   11.1499 C   0  0  0  0  0  0  0  0  0  0  0  0
    8.5000    2.8754   10.1809 C   0  0  0  0  0  0  0  0  0  0  0  0
    9.2583    1.6786   10.9024 C   0  0  0  0  0  0  0  0  0  0  0  0
    8.2832    0.7529   11.8035 C   0  0  0  0  0  0  0  0  0  0  0  0
    5.6291    0.4869   13.2302 N   0  0  0  0  0  0  0  0  0  0  0  0
    4.8411    1.6231   12.5718 C   0  0  0  0  0  0  0  0  0  0  0  0
    5.6813    2.4434   11.4851 C   0  0  0  0  0  0  0  0  0  0  0  0
    6.8814    1.0024   13.9360 C   0  0  0  0  0  0  0  0  0  0  0  0
    3.7041    1.0632   11.8298 C   0  0  0  0  0  0  0  0  0  0  0  0
    2.5179    1.7621   12.1145 N   0  0  0  0  0  0  0  0  0  0  0  0
    3.9404    0.0716   11.0358 O   0  0  0  0  0  0  0  0  0  0  0  0
    2.5765    2.5126   12.7490 H   0  0  0  0  0  0  0  0  0  0  0  0
    1.1557    1.4540   11.5239 C   0  0  0  0  0  0  0  0  0  0  0  0
    0.5958    0.2324   12.2254 C   0  0  0  0  0  0  0  0  0  0  0  0
    1.2391    1.1186    9.9632 C   0  0  0  0  0  0  0  0  0  0  0  0
    0.2423    2.7273   11.7994 C   0  0  0  0  0  0  0  0  0  0  0  0
    6.3892   -2.3306   14.7681 C   0  0  0  0  0  0  0  0  0  0  0  0
    6.0117   -3.7168   15.0891 N   0  0  0  0  0  0  0  0  0  0  0  0
    5.0599   -3.8926   16.1354 C   0  0  0  0  0  0  0  0  0  0  0  0
    4.5393   -2.9542   16.7813 O   0  0  0  0  0  0  0  0  0  0  0  0
    6.3969   -4.4832   14.6058 H   0  0  0  0  0  0  0  0  0  0  0  0
    4.6974   -5.2456   16.3670 C   0  0  0  0  0  0  0  0  0  0  0  0
    3.4747   -5.7728   15.7178 C   0  0  0  0  0  0  0  0  0  0  0  0
    3.0301   -7.1084   15.9293 C   0  0  0  0  0  0  0  0  0  0  0  0
    3.7953   -7.9465   16.7839 C   0  0  0  0  0  0  0  0  0  0  0  0
    5.0036   -7.4434   17.4316 C   0  0  0  0  0  0  0  0  0  0  0  0
    5.4883   -6.0967   17.2483 C   0  0  0  0  0  0  0  0  0  0  0  0
    5.7195   -8.2673   18.2586 O   0  0  0  0  0  0  0  0  0  0  0  0
    6.7648   -5.6862   17.9923 C   0  0  0  0  0  0  0  0  0  0  0  0
    5.4356   -9.1486   18.4021 H   0  0  0  0  0  0  0  0  0  0  0  0
    7.6817   -2.4344   13.9494 C   0  0  0  0  0  0  0  0  0  0  0  0
    9.1330   -2.1417   15.0784 S   0  0  0  0  0  0  0  0  0  0  0  0
    9.5128   -3.7776   15.5793 C   0  0  0  0  0  0  0  0  0  0  0  0
   10.1687   -3.8919   16.8234 C   0  0  0  0  0  0  0  0  0  0  0  0
   10.5002   -5.2135   17.2817 C   0  0  0  0  0  0  0  0  0  0  0  0
   10.1819   -6.3968   16.5152 C   0  0  0  0  0  0  0  0  0  0  0  0
    9.5163   -6.2818   15.2441 C   0  0  0  0  0  0  0  0  0  0  0  0
    9.1811   -4.9424   14.7816 C   0  0  0  0  0  0  0  0  0  0  0  0
  5  6  1  0  0  0
  5 10  1  0  0  0
  5 14  1  0  0  0
  6  7  1  0  0  0
  6 13  1  0  0  0
  7  8  1  0  0  0
  8  9  1  0  0  0
  9 10  1  0  0  0
 11 12  1  0  0  0
 11 14  1  0  0  0
 11  4  1  0  0  0
 12 13  1  0  0  0
 12 15  1  0  0  0
 15 16  1  0  0  0
 15 17  2  0  0  0
 16 19  1  0  0  0
 19 20  1  0  0  0
 19 21  1  0  0  0
 19 22  1  0  0  0
  4  1  1  0  0  0
  1 23  1  0  0  0
  1  2  1  0  0  0
 23 24  1  0  0  0
 23 37  1  0  0  0
 24 25  1  0  0  0
 37 38  1  0  0  0
 25 26  2  0  0  0
 25 28  1  0  0  0
 28 29  2  0  0  0
 28 33  1  0  0  0
 29 30  1  0  0  0
 30 31  2  0  0  0
 31 32  1  0  0  0
 32 33  2  0  0  0
 32 34  1  0  0  0
 33 35  1  0  0  0
 38 39  1  0  0  0
 39 40  2  0  0  0
 39 44  1  0  0  0
 40 41  1  0  0  0
 41 42  2  0  0  0
 42 43  1  0  0  0
 43 44  2  0  0  0
 16 18  1  0  0  0
  2  3  1  0  0  0
 24 27  1  0  0  0
 34 36  1  0  0  0
M  END
> <minimizedAffinity>
-10.01153

$$$$
3EL5_1UN_B_201


 44 47  0  0  0  0  0  0  0  0999 V2000
    5.0795   -2.5559   15.7664 C   0  0  0  0  0  0  0  0  0  0  0  0
    6.2087   -2.0093   16.4181 O   0  0  0  0  0  0  0  0  0  0  0  0
    6.8964   -1.8125   15.7629 H   0  0  0  0  0  0  0  0  0  0  0  0
    5.6145   -3.8299   15.1080 C   0  0  0  0  0  0  0  0  0  0  0  0
    2.9461   -5.7918   17.0444 C   0  0  0  0  0  0  0  0  0  0  0  0
    3.6892   -6.0054   18.4434 C   0  0  0  0  0  0  0  0  0  0  0  0
    3.0624   -7.1389   19.3811 C   0  0  0  0  0  0  0  0  0  0  0  0
    2.8730   -8.3970   18.4696 C   0  0  0  0  0  0  0  0  0  0  0  0
    2.1440   -8.1128   17.0855 C   0  0  0  0  0  0  0  0  0  0  0  0
    2.9574   -7.0892   16.1313 C   0  0  0  0  0  0  0  0  0  0  0  0
    5.1000   -4.9644   15.9195 N   0  0  0  0  0  0  0  0  0  0  0  0
    5.8488   -5.1883   17.2365 C   0  0  0  0  0  0  0  0  0  0  0  0
    5.2329   -6.3594   18.1359 C   0  0  0  0  0  0  0  0  0  0  0  0
    3.6322   -4.6155   16.1560 C   0  0  0  0  0  0  0  0  0  0  0  0
    7.2253   -5.6127   16.9500 C   0  0  0  0  0  0  0  0  0  0  0  0
    8.0193   -4.5244   16.5482 N   0  0  0  0  0  0  0  0  0  0  0  0
    7.5126   -6.8605   17.1228 O   0  0  0  0  0  0  0  0  0  0  0  0
    7.5870   -3.6409   16.5045 H   0  0  0  0  0  0  0  0  0  0  0  0
    9.4875   -4.6004   16.1766 C   0  0  0  0  0  0  0  0  0  0  0  0
    9.6263   -5.4897   14.9568 C   0  0  0  0  0  0  0  0  0  0  0  0
   10.3707   -5.2416   17.3445 C   0  0  0  0  0  0  0  0  0  0  0  0
    9.9496   -3.1148   15.8436 C   0  0  0  0  0  0  0  0  0  0  0  0
    4.4327   -1.5100   14.8065 C   0  0  0  0  0  0  0  0  0  0  0  0
    5.5220   -1.0942   13.9077 N   0  0  0  0  0  0  0  0  0  0  0  0
    5.6426    0.3035   13.6561 C   0  0  0  0  0  0  0  0  0  0  0  0
    4.8903    1.1767   14.1464 O   0  0  0  0  0  0  0  0  0  0  0  0
    6.1356   -1.7480   13.5013 H   0  0  0  0  0  0  0  0  0  0  0  0
    6.7392    0.6494   12.8233 C   0  0  0  0  0  0  0  0  0  0  0  0
    8.0658    0.0594   13.1170 C   0  0  0  0  0  0  0  0  0  0  0  0
    9.2181    0.3847   12.3470 C   0  0  0  0  0  0  0  0  0  0  0  0
    9.0721    1.2965   11.2673 C   0  0  0  0  0  0  0  0  0  0  0  0
    7.7716    1.8871   10.9632 C   0  0  0  0  0  0  0  0  0  0  0  0
    6.5793    1.5886   11.7191 C   0  0  0  0  0  0  0  0  0  0  0  0
    7.6577    2.7707    9.9233 O   0  0  0  0  0  0  0  0  0  0  0  0
    5.2754    2.2819   11.3059 C   0  0  0  0  0  0  0  0  0  0  0  0
    8.4103    2.9891    9.4096 H   0  0  0  0  0  0  0  0  0  0  0  0
    3.3058   -2.0000   13.8890 C   0  0  0  0  0  0  0  0  0  0  0  0
    1.7326   -1.1145   14.3444 S   0  0  0  0  0  0  0  0  0  0  0  0
    1.4751   -0.1212   12.9236 C   0  0  0  0  0  0  0  0  0  0  0  0
    2.3640   -0.3557   11.8530 C   0  0  0  0  0  0  0  0  0  0  0  0
    2.1934    0.4315   10.6622 C   0  0  0  0  0  0  0  0  0  0  0  0
    1.1561    1.4306   10.5416 C   0  0  0  0  0  0  0  0  0  0  0  0
    0.2511    1.6739   11.6341 C   0  0  0  0  0  0  0  0  0  0  0  0
    0.4251    0.8755   12.8393 C   0  0  0  0  0  0  0  0  0  0  0  0
  5  6  1  0  0  0
  5 10  1  0  0  0
  5 14  1  0  0  0
  6  7  1  0  0  0
  6 13  1  0  0  0
  7  8  1  0  0  0
  8  9  1  0  0  0
  9 10  1  0  0  0
 11 12  1  0  0  0
 11 14  1  0  0  0
 11  4  1  0  0  0
 12 13  1  0  0  0
 12 15  1  0  0  0
 15 16  1  0  0  0
 15 17  2  0  0  0
 16 19  1  0  0  0
 19 20  1  0  0  0
 19 21  1  0  0  0
 19 22  1  0  0  0
  4  1  1  0  0  0
  1 23  1  0  0  0
  1  2  1  0  0  0
 23 24  1  0  0  0
 23 37  1  0  0  0
 24 25  1  0  0  0
 37 38  1  0  0  0
 25 26  2  0  0  0
 25 28  1  0  0  0
 28 29  2  0  0  0
 28 33  1  0  0  0
 29 30  1  0  0  0
 30 31  2  0  0  0
 31 32  1  0  0  0
 32 33  2  0  0  0
 32 34  1  0  0  0
 33 35  1  0  0  0
 38 39  1  0  0  0
 39 40  2  0  0  0
 39 44  1  0  0  0
 40 41  1  0  0  0
 41 42  2  0  0  0
 42 43  1  0  0  0
 43 44  2  0  0  0
 16 18  1  0  0  0
  2  3  1  0  0  0
 24 27  1  0  0  0
 34 36  1  0  0  0
M  END
> <minimizedAffinity>
-9.98232

$$$$
3EL5_1UN_B_201


 44 47  0  0  0  0  0  0  0  0999 V2000
    5.7191   -2.1187   15.9862 C   0  0  0  0  0  0  0  0  0  0  0  0
    5.9077   -1.0785   16.9248 O   0  0  0  0  0  0  0  0  0  0  0  0
    6.8372   -0.8009   16.9174 H   0  0  0  0  0  0  0  0  0  0  0  0
    6.6459   -3.2327   16.4790 C   0  0  0  0  0  0  0  0  0  0  0  0
    3.3503   -5.1887   16.6577 C   0  0  0  0  0  0  0  0  0  0  0  0
    3.5973   -6.0704   17.9678 C   0  0  0  0  0  0  0  0  0  0  0  0
    2.6154   -7.3205   18.1422 C   0  0  0  0  0  0  0  0  0  0  0  0
    2.6158   -8.0648   16.7654 C   0  0  0  0  0  0  0  0  0  0  0  0
    2.3835   -7.1281   15.5019 C   0  0  0  0  0  0  0  0  0  0  0  0
    3.5378   -6.0093   15.3129 C   0  0  0  0  0  0  0  0  0  0  0  0
    5.8097   -4.4584   16.5712 N   0  0  0  0  0  0  0  0  0  0  0  0
    6.0869   -5.3192   17.8071 C   0  0  0  0  0  0  0  0  0  0  0  0
    5.1241   -6.5907   17.9349 C   0  0  0  0  0  0  0  0  0  0  0  0
    4.3765   -3.9313   16.5593 C   0  0  0  0  0  0  0  0  0  0  0  0
    7.4430   -5.8763   17.7206 C   0  0  0  0  0  0  0  0  0  0  0  0
    7.9631   -5.7477   16.4208 N   0  0  0  0  0  0  0  0  0  0  0  0
    7.9588   -6.3604   18.8018 O   0  0  0  0  0  0  0  0  0  0  0  0
    7.3895   -5.3201   15.7445 H   0  0  0  0  0  0  0  0  0  0  0  0
    9.3356   -6.2140   15.9758 C   0  0  0  0  0  0  0  0  0  0  0  0
    9.4256   -7.7114   16.1940 C   0  0  0  0  0  0  0  0  0  0  0  0
   10.5065   -5.5314   16.8234 C   0  0  0  0  0  0  0  0  0  0  0  0
    9.4548   -5.8642   14.4282 C   0  0  0  0  0  0  0  0  0  0  0  0
    5.9749   -1.6087   14.5342 C   0  0  0  0  0  0  0  0  0  0  0  0
    4.7610   -0.8569   14.1758 N   0  0  0  0  0  0  0  0  0  0  0  0
    3.7534   -1.5734   13.4666 C   0  0  0  0  0  0  0  0  0  0  0  0
    3.8422   -2.7792   13.1394 O   0  0  0  0  0  0  0  0  0  0  0  0
    4.6508    0.0920   14.4138 H   0  0  0  0  0  0  0  0  0  0  0  0
    2.5868   -0.8124   13.1917 C   0  0  0  0  0  0  0  0  0  0  0  0
    1.3347   -1.1513   13.9072 C   0  0  0  0  0  0  0  0  0  0  0  0
    0.1180   -0.4550   13.6599 C   0  0  0  0  0  0  0  0  0  0  0  0
    0.1244    0.5948   12.7028 C   0  0  0  0  0  0  0  0  0  0  0  0
    1.3499    0.9427   11.9886 C   0  0  0  0  0  0  0  0  0  0  0  0
    2.6033    0.2615   12.2052 C   0  0  0  0  0  0  0  0  0  0  0  0
    1.3290    1.9522   11.0637 O   0  0  0  0  0  0  0  0  0  0  0  0
    3.8172    0.7145   11.3849 C   0  0  0  0  0  0  0  0  0  0  0  0
    0.5332    2.4175   10.8959 H   0  0  0  0  0  0  0  0  0  0  0  0
    7.1400   -0.6334   14.3265 C   0  0  0  0  0  0  0  0  0  0  0  0
    6.4536    1.0819   14.0963 S   0  0  0  0  0  0  0  0  0  0  0  0
    7.3587    1.6282   12.6985 C   0  0  0  0  0  0  0  0  0  0  0  0
    8.0018    0.6123   11.9600 C   0  0  0  0  0  0  0  0  0  0  0  0
    8.7556    1.0076   10.8015 C   0  0  0  0  0  0  0  0  0  0  0  0
    8.8639    2.3882   10.3875 C   0  0  0  0  0  0  0  0  0  0  0  0
    8.2118    3.4262   11.1419 C   0  0  0  0  0  0  0  0  0  0  0  0
    7.4485    3.0239   12.3148 C   0  0  0  0  0  0  0  0  0  0  0  0
  5  6  1  0  0  0
  5 10  1  0  0  0
  5 14  1  0  0  0
  6  7  1  0  0  0
  6 13  1  0  0  0
  7  8  1  0  0  0
  8  9  1  0  0  0
  9 10  1  0  0  0
 11 12  1  0  0  0
 11 14  1  0  0  0
 11  4  1  0  0  0
 12 13  1  0  0  0
 12 15  1  0  0  0
 15 16  1  0  0  0
 15 17  2  0  0  0
 16 19  1  0  0  0
 19 20  1  0  0  0
 19 21  1  0  0  0
 19 22  1  0  0  0
  4  1  1  0  0  0
  1 23  1  0  0  0
  1  2  1  0  0  0
 23 24  1  0  0  0
 23 37  1  0  0  0
 24 25  1  0  0  0
 37 38  1  0  0  0
 25 26  2  0  0  0
 25 28  1  0  0  0
 28 29  2  0  0  0
 28 33  1  0  0  0
 29 30  1  0  0  0
 30 31  2  0  0  0
 31 32  1  0  0  0
 32 33  2  0  0  0
 32 34  1  0  0  0
 33 35  1  0  0  0
 38 39  1  0  0  0
 39 40  2  0  0  0
 39 44  1  0  0  0
 40 41  1  0  0  0
 41 42  2  0  0  0
 42 43  1  0  0  0
 43 44  2  0  0  0
 16 18  1  0  0  0
  2  3  1  0  0  0
 24 27  1  0  0  0
 34 36  1  0  0  0
M  END
> <minimizedAffinity>
-9.91274

$$$$
