1NW7_SAH_A_401
  RCSB PDB12061703283D
Coordinates from PDB:1NW7:A:401 Model:1 without hydrogens
 26 28  0  0  0  0            999 V2000
   32.1050   21.0830    2.2810   N 0  0  0  0  0  0  0  0  0  0  0  0
   32.7850   20.0740    1.4480   C 0  0  0  0  0  0  0  0  0  0  0  0
   31.9580   19.8100    0.1710   C 0  0  0  0  0  0  0  0  0  0  0  0
   31.6500   21.0980   -0.6090   C 0  0  0  0  0  0  0  0  0  0  0  0
   30.6180   20.8150   -2.1010   S 0  0  0  0  0  0  0  0  0  0  0  0
   34.2000   20.5660    1.0980   C 0  0  0  0  0  0  0  0  0  0  0  0
   34.4940   21.7350    1.4270   O 0  0  0  0  0  0  0  0  0  0  0  0
   34.9560   19.7570    0.5160   O 0  0  0  0  0  0  0  0  0  0  0  0
   29.9130   22.4910   -2.2940   C 0  0  0  0  0  0  0  0  0  0  0  0
   28.7790   22.5530   -3.3240   C 0  0  0  0  0  0  0  0  0  0  0  0
   28.1780   23.8750   -3.2700   O 0  0  0  0  0  0  0  0  0  0  0  0
   29.2820   22.3550   -4.7600   C 0  0  0  0  0  0  0  0  0  0  0  0
   28.4320   21.4190   -5.4340   O 0  0  0  0  0  0  0  0  0  0  0  0
   29.1710   23.7270   -5.4020   C 0  0  0  0  0  0  0  0  0  0  0  0
   28.7690   23.5900   -6.7710   O 0  0  0  0  0  0  0  0  0  0  0  0
   28.0440   24.3860   -4.6220   C 0  0  0  0  0  0  0  0  0  0  0  0
   28.0850   25.8850   -4.6170   N 0  0  0  0  0  0  0  0  0  0  0  0
   29.1840   26.6590   -4.5410   C 0  0  0  0  0  0  0  0  0  0  0  0
   28.8160   27.9420   -4.4650   N 0  0  0  0  0  0  0  0  0  0  0  0
   27.4860   27.9840   -4.4980   C 0  0  0  0  0  0  0  0  0  0  0  0
   26.5480   29.0200   -4.4490   C 0  0  0  0  0  0  0  0  0  0  0  0
   26.9470   30.2940   -4.3680   N 0  0  0  0  0  0  0  0  0  0  0  0
   25.2240   28.7190   -4.5010   N 0  0  0  0  0  0  0  0  0  0  0  0
   24.8080   27.4470   -4.6010   C 0  0  0  0  0  0  0  0  0  0  0  0
   25.6890   26.4410   -4.6500   N 0  0  0  0  0  0  0  0  0  0  0  0
   27.0230   26.6820   -4.5990   C 0  0  0  0  0  0  0  0  0  0  0  0
  1  2  1  0  0  0  0
  2  3  1  0  0  0  0
  2  6  1  0  0  0  0
  3  4  1  0  0  0  0
  4  5  1  0  0  0  0
  5  9  1  0  0  0  0
  6  7  2  0  0  0  0
  6  8  1  0  0  0  0
  9 10  1  0  0  0  0
 10 11  1  0  0  0  0
 10 12  1  0  0  0  0
 11 16  1  0  0  0  0
 12 13  1  0  0  0  0
 12 14  1  0  0  0  0
 14 15  1  0  0  0  0
 14 16  1  0  0  0  0
 16 17  1  0  0  0  0
 17 18  1  0  0  0  0
 17 26  1  0  0  0  0
 18 19  2  0  0  0  0
 19 20  1  0  0  0  0
 20 21  1  0  0  0  0
 20 26  2  0  0  0  0
 21 22  1  0  0  0  0
 21 23  2  0  0  0  0
 23 24  1  0  0  0  0
 24 25  2  0  0  0  0
 25 26  1  0  0  0  0
A    1
N
A    2
CA
A    3
CB
A    4
CG
A    5
SD
A    6
C
A    7
O
A    8
OXT
A    9
C5'
A   10
C4'
A   11
O4'
A   12
C3'
A   13
O3'
A   14
C2'
A   15
O2'
A   16
C1'
A   17
N9
A   18
C8
A   19
N7
A   20
C5
A   21
C6
A   22
N6
A   23
N1
A   24
C2
A   25
N3
A   26
C4
M  END
>  <InstanceId>
1NW7_SAH_A_401

>  <ChemCompId>
SAH

>  <PdbId>
1NW7

>  <ChainId>
A

>  <ResidueNumber>
401

>  <InsertionCode>


>  <Model>
1

>  <AltIds>


>  <MissingHeavyAtoms>
0

>  <ObservedFormula>
C14 N6 O5 S

>  <Name>
S-ADENOSYL-L-HOMOCYSTEINE

>  <SystematicName>
(2S)-2-amino-4-[[(2S,3S,4R,5R)-5-(6-aminopurin-9-yl)-3,4-dihydroxy-oxolan-2-yl]methylsulfanyl]butanoic acid

>  <Synonyms>


>  <Type>
L-PEPTIDE LINKING

>  <Formula>
C14 H20 N6 O5 S

>  <MolecularWeight>
384.411

>  <ModifiedDate>
2011-06-04

>  <Parent>
CYS

>  <OneLetterCode>
C

>  <SubcomponentList>


>  <AmbiguousFlag>
N

>  <InChI>
InChI=1S/C14H20N6O5S/c15-6(14(23)24)1-2-26-3-7-9(21)10(22)13(25-7)20-5-19-8-11(16)17-4-18-12(8)20/h4-7,9-10,13,21-22H,1-3,15H2,(H,23,24)(H2,16,17,18)/t6-,7+,9+,10+,13+/m0/s1

>  <InChIKey>
ZJUKTBDSGOFHSH-WFMPWKQPSA-N

>  <SMILES>
c1nc(c2c(n1)n(cn2)[C@H]3[C@@H]([C@@H]([C@H](O3)CSCC[C@@H](C(=O)O)N)O)O)N

$$$$
