1NW7_SAH_A_401


 33 35  0  0  0  0  0  0  0  0999 V2000
   30.3705   23.3818   -4.5951 C   0  0  0  0  0  0  0  0  0  0  0  0
   29.7766   24.5489   -3.9650 O   0  0  0  0  0  0  0  0  0  0  0  0
   29.9440   23.4107   -6.0687 C   0  0  0  0  0  0  0  0  0  0  0  0
   28.9698   22.3857   -6.2993 O   0  0  0  0  0  0  0  0  0  0  0  0
   29.3238   24.7831   -6.2657 C   0  0  0  0  0  0  0  0  0  0  0  0
   28.2077   24.6863   -7.1598 O   0  0  0  0  0  0  0  0  0  0  0  0
   28.8129   25.1366   -4.8776 C   0  0  0  0  0  0  0  0  0  0  0  0
   28.2171   22.5145   -5.7011 H   0  0  0  0  0  0  0  0  0  0  0  0
   27.5709   24.0418   -6.8135 H   0  0  0  0  0  0  0  0  0  0  0  0
   28.6830   26.6079   -4.6189 N   0  0  0  0  0  0  0  0  0  0  0  0
   29.6834   27.4690   -4.3536 C   0  0  0  0  0  0  0  0  0  0  0  0
   29.1694   28.6733   -4.0838 N   0  0  0  0  0  0  0  0  0  0  0  0
   27.8453   28.5794   -4.1827 C   0  0  0  0  0  0  0  0  0  0  0  0
   26.7945   29.4862   -4.0124 C   0  0  0  0  0  0  0  0  0  0  0  0
   27.0429   30.7620   -3.6969 N   0  0  0  0  0  0  0  0  0  0  0  0
   25.5161   29.0604   -4.1872 N   0  0  0  0  0  0  0  0  0  0  0  0
   25.2513   27.7880   -4.5220 C   0  0  0  0  0  0  0  0  0  0  0  0
   26.2421   26.9046   -4.6904 N   0  0  0  0  0  0  0  0  0  0  0  0
   27.5373   27.2729   -4.5261 C   0  0  0  0  0  0  0  0  0  0  0  0
   27.9707   31.0663   -3.5712 H   0  0  0  0  0  0  0  0  0  0  0  0
   26.2979   31.3967   -3.5904 H   0  0  0  0  0  0  0  0  0  0  0  0
   31.8924   23.4583   -4.4258 C   0  0  0  0  0  0  0  0  0  0  0  0
   32.4845   22.6734   -2.8842 S   0  0  0  0  0  0  0  0  0  0  0  0
   30.8660   22.2868   -2.1083 C   0  0  0  0  0  0  0  0  0  0  0  0
   30.5773   20.7797   -2.0216 C   0  0  0  0  0  0  0  0  0  0  0  0
   28.2627   21.6037   -2.2623 N   0  0  0  0  0  0  0  0  0  0  0  0
   29.1339   20.4277   -2.4423 C   0  0  0  0  0  0  0  0  0  0  0  0
   28.6251   22.3826   -2.8121 H   0  0  0  0  0  0  0  0  0  0  0  0
   28.2422   21.8639   -1.2763 H   0  0  0  0  0  0  0  0  0  0  0  0
   28.5879   19.2523   -1.6134 C   0  0  0  0  0  0  0  0  0  0  0  0
   29.1195   18.1354   -1.7900 O   0  0  0  0  0  0  0  0  0  0  0  0
   27.6560   19.5020   -0.8171 O   0  0  0  0  0  0  0  0  0  0  0  0
   27.3176   20.3732   -0.7503 H   0  0  0  0  0  0  0  0  0  0  0  0
 26 27  1  0  0  0
 27 25  1  0  0  0
 27 30  1  0  0  0
 25 24  1  0  0  0
 24 23  1  0  0  0
 23 22  1  0  0  0
 30 31  2  0  0  0
 30 32  1  0  0  0
 22  1  1  0  0  0
  1  2  1  0  0  0
  1  3  1  0  0  0
  2  7  1  0  0  0
  3  4  1  0  0  0
  3  5  1  0  0  0
  5  6  1  0  0  0
  5  7  1  0  0  0
  7 10  1  0  0  0
 10 11  1  0  0  0
 10 19  1  0  0  0
 11 12  2  0  0  0
 12 13  1  0  0  0
 13 14  1  0  0  0
 13 19  2  0  0  0
 14 15  1  0  0  0
 14 16  2  0  0  0
 16 17  1  0  0  0
 17 18  2  0  0  0
 18 19  1  0  0  0
 26 28  1  0  0  0
 26 29  1  0  0  0
 32 33  1  0  0  0
  4  8  1  0  0  0
  6  9  1  0  0  0
 15 20  1  0  0  0
 15 21  1  0  0  0
M  END
> <minimizedAffinity>
-8.61409

$$$$
1NW7_SAH_A_401


 33 35  0  0  0  0  0  0  0  0999 V2000
   29.3043   23.7206   -4.0954 C   0  0  0  0  0  0  0  0  0  0  0  0
   28.4119   24.7891   -3.6783 O   0  0  0  0  0  0  0  0  0  0  0  0
   29.4084   23.8037   -5.6240 C   0  0  0  0  0  0  0  0  0  0  0  0
   28.6849   22.7131   -6.2072 O   0  0  0  0  0  0  0  0  0  0  0  0
   28.7536   25.1256   -5.9856 C   0  0  0  0  0  0  0  0  0  0  0  0
   28.0283   24.9867   -7.2140 O   0  0  0  0  0  0  0  0  0  0  0  0
   27.7638   25.3452   -4.8520 C   0  0  0  0  0  0  0  0  0  0  0  0
   27.7638   22.7374   -5.9043 H   0  0  0  0  0  0  0  0  0  0  0  0
   27.3823   24.2681   -7.1286 H   0  0  0  0  0  0  0  0  0  0  0  0
   27.4002   26.7803   -4.6134 N   0  0  0  0  0  0  0  0  0  0  0  0
   26.1663   27.3164   -4.6649 C   0  0  0  0  0  0  0  0  0  0  0  0
   26.2521   28.6394   -4.4927 N   0  0  0  0  0  0  0  0  0  0  0  0
   27.5374   28.9432   -4.3268 C   0  0  0  0  0  0  0  0  0  0  0  0
   28.2306   30.1390   -4.1146 C   0  0  0  0  0  0  0  0  0  0  0  0
   27.5711   31.2989   -4.0218 N   0  0  0  0  0  0  0  0  0  0  0  0
   29.5830   30.1080   -3.9871 N   0  0  0  0  0  0  0  0  0  0  0  0
   30.2575   28.9501   -4.0593 C   0  0  0  0  0  0  0  0  0  0  0  0
   29.6134   27.7947   -4.2611 N   0  0  0  0  0  0  0  0  0  0  0  0
   28.2641   27.7657   -4.3984 C   0  0  0  0  0  0  0  0  0  0  0  0
   26.5911   31.3168   -4.1147 H   0  0  0  0  0  0  0  0  0  0  0  0
   28.0656   32.1348   -3.8605 H   0  0  0  0  0  0  0  0  0  0  0  0
   30.6591   23.9205   -3.4059 C   0  0  0  0  0  0  0  0  0  0  0  0
   31.2836   22.4051   -2.5953 S   0  0  0  0  0  0  0  0  0  0  0  0
   29.6832   21.5780   -2.2408 C   0  0  0  0  0  0  0  0  0  0  0  0
   29.8334   20.0917   -1.8793 C   0  0  0  0  0  0  0  0  0  0  0  0
   27.6779   19.6847   -0.7467 N   0  0  0  0  0  0  0  0  0  0  0  0
   28.4899   19.3319   -1.9259 C   0  0  0  0  0  0  0  0  0  0  0  0
   27.5280   20.6934   -0.7266 H   0  0  0  0  0  0  0  0  0  0  0  0
   28.1665   19.3966    0.1010 H   0  0  0  0  0  0  0  0  0  0  0  0
   28.7165   17.8105   -1.9570 C   0  0  0  0  0  0  0  0  0  0  0  0
   27.9415   17.1338   -2.6659 O   0  0  0  0  0  0  0  0  0  0  0  0
   29.6652   17.3625   -1.2759 O   0  0  0  0  0  0  0  0  0  0  0  0
   30.1970   17.9466   -0.7719 H   0  0  0  0  0  0  0  0  0  0  0  0
 26 27  1  0  0  0
 27 25  1  0  0  0
 27 30  1  0  0  0
 25 24  1  0  0  0
 24 23  1  0  0  0
 23 22  1  0  0  0
 30 31  2  0  0  0
 30 32  1  0  0  0
 22  1  1  0  0  0
  1  2  1  0  0  0
  1  3  1  0  0  0
  2  7  1  0  0  0
  3  4  1  0  0  0
  3  5  1  0  0  0
  5  6  1  0  0  0
  5  7  1  0  0  0
  7 10  1  0  0  0
 10 11  1  0  0  0
 10 19  1  0  0  0
 11 12  2  0  0  0
 12 13  1  0  0  0
 13 14  1  0  0  0
 13 19  2  0  0  0
 14 15  1  0  0  0
 14 16  2  0  0  0
 16 17  1  0  0  0
 17 18  2  0  0  0
 18 19  1  0  0  0
 26 28  1  0  0  0
 26 29  1  0  0  0
 32 33  1  0  0  0
  4  8  1  0  0  0
  6  9  1  0  0  0
 15 20  1  0  0  0
 15 21  1  0  0  0
M  END
> <minimizedAffinity>
-8.40634

$$$$
1NW7_SAH_A_401


 33 35  0  0  0  0  0  0  0  0999 V2000
   28.8137   22.6360   -3.1824 C   0  0  0  0  0  0  0  0  0  0  0  0
   28.2219   23.9623   -3.2318 O   0  0  0  0  0  0  0  0  0  0  0  0
   29.4407   22.3807   -4.5593 C   0  0  0  0  0  0  0  0  0  0  0  0
   28.6459   21.4242   -5.2709 O   0  0  0  0  0  0  0  0  0  0  0  0
   29.3993   23.7277   -5.2597 C   0  0  0  0  0  0  0  0  0  0  0  0
   29.1195   23.5408   -6.6530 O   0  0  0  0  0  0  0  0  0  0  0  0
   28.2132   24.4221   -4.6086 C   0  0  0  0  0  0  0  0  0  0  0  0
   27.7348   21.7497   -5.3418 H   0  0  0  0  0  0  0  0  0  0  0  0
   28.2893   23.0492   -6.7529 H   0  0  0  0  0  0  0  0  0  0  0  0
   28.2668   25.9200   -4.6562 N   0  0  0  0  0  0  0  0  0  0  0  0
   29.3744   26.6854   -4.6526 C   0  0  0  0  0  0  0  0  0  0  0  0
   29.0205   27.9737   -4.6048 N   0  0  0  0  0  0  0  0  0  0  0  0
   27.6907   28.0275   -4.5835 C   0  0  0  0  0  0  0  0  0  0  0  0
   26.7642   29.0736   -4.5305 C   0  0  0  0  0  0  0  0  0  0  0  0
   27.1768   30.3456   -4.5096 N   0  0  0  0  0  0  0  0  0  0  0  0
   25.4367   28.7838   -4.5168 N   0  0  0  0  0  0  0  0  0  0  0  0
   25.0064   27.5133   -4.5561 C   0  0  0  0  0  0  0  0  0  0  0  0
   25.8762   26.4977   -4.6078 N   0  0  0  0  0  0  0  0  0  0  0  0
   27.2131   26.7274   -4.6208 C   0  0  0  0  0  0  0  0  0  0  0  0
   28.1395   30.5511   -4.5196 H   0  0  0  0  0  0  0  0  0  0  0  0
   26.5177   31.0765   -4.4841 H   0  0  0  0  0  0  0  0  0  0  0  0
   29.8510   22.6072   -2.0537 C   0  0  0  0  0  0  0  0  0  0  0  0
   31.5264   22.1537   -2.6285 S   0  0  0  0  0  0  0  0  0  0  0  0
   32.3198   21.8326   -1.0042 C   0  0  0  0  0  0  0  0  0  0  0  0
   31.7601   20.5932   -0.2880 C   0  0  0  0  0  0  0  0  0  0  0  0
   32.2485   18.6567    1.1632 N   0  0  0  0  0  0  0  0  0  0  0  0
   32.8103   19.9023    0.6088 C   0  0  0  0  0  0  0  0  0  0  0  0
   31.9589   18.0451    0.3999 H   0  0  0  0  0  0  0  0  0  0  0  0
   31.4415   18.8778    1.7465 H   0  0  0  0  0  0  0  0  0  0  0  0
   33.2472   20.8253    1.7594 C   0  0  0  0  0  0  0  0  0  0  0  0
   34.3903   21.3246    1.6862 O   0  0  0  0  0  0  0  0  0  0  0  0
   32.4231   21.0149    2.6812 O   0  0  0  0  0  0  0  0  0  0  0  0
   31.5848   20.5972    2.6534 H   0  0  0  0  0  0  0  0  0  0  0  0
 26 27  1  0  0  0
 27 25  1  0  0  0
 27 30  1  0  0  0
 25 24  1  0  0  0
 24 23  1  0  0  0
 23 22  1  0  0  0
 30 31  2  0  0  0
 30 32  1  0  0  0
 22  1  1  0  0  0
  1  2  1  0  0  0
  1  3  1  0  0  0
  2  7  1  0  0  0
  3  4  1  0  0  0
  3  5  1  0  0  0
  5  6  1  0  0  0
  5  7  1  0  0  0
  7 10  1  0  0  0
 10 11  1  0  0  0
 10 19  1  0  0  0
 11 12  2  0  0  0
 12 13  1  0  0  0
 13 14  1  0  0  0
 13 19  2  0  0  0
 14 15  1  0  0  0
 14 16  2  0  0  0
 16 17  1  0  0  0
 17 18  2  0  0  0
 18 19  1  0  0  0
 26 28  1  0  0  0
 26 29  1  0  0  0
 32 33  1  0  0  0
  4  8  1  0  0  0
  6  9  1  0  0  0
 15 20  1  0  0  0
 15 21  1  0  0  0
M  END
> <minimizedAffinity>
-8.02922

$$$$
1NW7_SAH_A_401


 33 35  0  0  0  0  0  0  0  0999 V2000
   32.1216   25.3532   -5.8485 C   0  0  0  0  0  0  0  0  0  0  0  0
   30.6968   25.3581   -6.1340 O   0  0  0  0  0  0  0  0  0  0  0  0
   32.3907   26.5474   -4.9234 C   0  0  0  0  0  0  0  0  0  0  0  0
   33.0768   27.5690   -5.6573 O   0  0  0  0  0  0  0  0  0  0  0  0
   31.0132   27.0318   -4.5054 C   0  0  0  0  0  0  0  0  0  0  0  0
   31.0095   28.4623   -4.4153 O   0  0  0  0  0  0  0  0  0  0  0  0
   30.1284   26.6099   -5.6682 C   0  0  0  0  0  0  0  0  0  0  0  0
   32.5489   27.8211   -6.4311 H   0  0  0  0  0  0  0  0  0  0  0  0
   31.2901   28.8404   -5.2633 H   0  0  0  0  0  0  0  0  0  0  0  0
   28.6831   26.4240   -5.3142 N   0  0  0  0  0  0  0  0  0  0  0  0
   28.0000   25.2639   -5.3066 C   0  0  0  0  0  0  0  0  0  0  0  0
   26.7146   25.5102   -5.0338 N   0  0  0  0  0  0  0  0  0  0  0  0
   26.5818   26.8236   -4.8631 C   0  0  0  0  0  0  0  0  0  0  0  0
   25.4985   27.6576   -4.5689 C   0  0  0  0  0  0  0  0  0  0  0  0
   24.2785   27.1440   -4.3774 N   0  0  0  0  0  0  0  0  0  0  0  0
   25.7020   28.9969   -4.4635 N   0  0  0  0  0  0  0  0  0  0  0  0
   26.9235   29.5258   -4.6345 C   0  0  0  0  0  0  0  0  0  0  0  0
   27.9735   28.7454   -4.9160 N   0  0  0  0  0  0  0  0  0  0  0  0
   27.8289   27.4020   -5.0359 C   0  0  0  0  0  0  0  0  0  0  0  0
   24.1355   26.1730   -4.4547 H   0  0  0  0  0  0  0  0  0  0  0  0
   23.5235   27.7369   -4.1590 H   0  0  0  0  0  0  0  0  0  0  0  0
   32.4827   24.0144   -5.1941 C   0  0  0  0  0  0  0  0  0  0  0  0
   31.0216   22.9830   -4.8138 S   0  0  0  0  0  0  0  0  0  0  0  0
   31.0814   23.0497   -2.9799 C   0  0  0  0  0  0  0  0  0  0  0  0
   29.7592   22.6389   -2.3127 C   0  0  0  0  0  0  0  0  0  0  0  0
   27.7845   21.5733   -3.3419 N   0  0  0  0  0  0  0  0  0  0  0  0
   29.1741   21.3395   -2.9073 C   0  0  0  0  0  0  0  0  0  0  0  0
   27.7648   22.3305   -4.0251 H   0  0  0  0  0  0  0  0  0  0  0  0
   27.2144   21.8281   -2.5355 H   0  0  0  0  0  0  0  0  0  0  0  0
   29.2047   20.1976   -1.8769 C   0  0  0  0  0  0  0  0  0  0  0  0
   30.3217   19.7122   -1.5979 O   0  0  0  0  0  0  0  0  0  0  0  0
   28.1093   19.8431   -1.3876 O   0  0  0  0  0  0  0  0  0  0  0  0
   27.3174   20.2652   -1.6571 H   0  0  0  0  0  0  0  0  0  0  0  0
 26 27  1  0  0  0
 27 25  1  0  0  0
 27 30  1  0  0  0
 25 24  1  0  0  0
 24 23  1  0  0  0
 23 22  1  0  0  0
 30 31  2  0  0  0
 30 32  1  0  0  0
 22  1  1  0  0  0
  1  2  1  0  0  0
  1  3  1  0  0  0
  2  7  1  0  0  0
  3  4  1  0  0  0
  3  5  1  0  0  0
  5  6  1  0  0  0
  5  7  1  0  0  0
  7 10  1  0  0  0
 10 11  1  0  0  0
 10 19  1  0  0  0
 11 12  2  0  0  0
 12 13  1  0  0  0
 13 14  1  0  0  0
 13 19  2  0  0  0
 14 15  1  0  0  0
 14 16  2  0  0  0
 16 17  1  0  0  0
 17 18  2  0  0  0
 18 19  1  0  0  0
 26 28  1  0  0  0
 26 29  1  0  0  0
 32 33  1  0  0  0
  4  8  1  0  0  0
  6  9  1  0  0  0
 15 20  1  0  0  0
 15 21  1  0  0  0
M  END
> <minimizedAffinity>
-7.75276

$$$$
1NW7_SAH_A_401


 33 35  0  0  0  0  0  0  0  0999 V2000
   33.5437   20.6666   -0.7319 C   0  0  0  0  0  0  0  0  0  0  0  0
   34.8038   20.8490   -0.0315 O   0  0  0  0  0  0  0  0  0  0  0  0
   32.4574   20.5266    0.3427 C   0  0  0  0  0  0  0  0  0  0  0  0
   32.0190   19.1636    0.3972 O   0  0  0  0  0  0  0  0  0  0  0  0
   33.1447   20.9130    1.6409 C   0  0  0  0  0  0  0  0  0  0  0  0
   32.6592   20.0901    2.7094 O   0  0  0  0  0  0  0  0  0  0  0  0
   34.6026   20.5689    1.3785 C   0  0  0  0  0  0  0  0  0  0  0  0
   32.7787   18.5864    0.5719 H   0  0  0  0  0  0  0  0  0  0  0  0
   32.7952   19.1561    2.4857 H   0  0  0  0  0  0  0  0  0  0  0  0
   35.5832   21.3441    2.2070 N   0  0  0  0  0  0  0  0  0  0  0  0
   36.3327   22.3860    1.8003 C   0  0  0  0  0  0  0  0  0  0  0  0
   37.1546   22.7513    2.7894 N   0  0  0  0  0  0  0  0  0  0  0  0
   36.9244   21.9468    3.8246 C   0  0  0  0  0  0  0  0  0  0  0  0
   37.4667   21.8419    5.1093 C   0  0  0  0  0  0  0  0  0  0  0  0
   38.4208   22.6870    5.5146 N   0  0  0  0  0  0  0  0  0  0  0  0
   37.0017   20.8803    5.9491 N   0  0  0  0  0  0  0  0  0  0  0  0
   36.0318   20.0365    5.5637 C   0  0  0  0  0  0  0  0  0  0  0  0
   35.4989   20.1203    4.3391 N   0  0  0  0  0  0  0  0  0  0  0  0
   35.9262   21.0587    3.4577 C   0  0  0  0  0  0  0  0  0  0  0  0
   38.7549   23.3823    4.9029 H   0  0  0  0  0  0  0  0  0  0  0  0
   38.7890   22.6138    6.4248 H   0  0  0  0  0  0  0  0  0  0  0  0
   33.3124   21.8786   -1.6420 C   0  0  0  0  0  0  0  0  0  0  0  0
   32.0104   21.5986   -2.8950 S   0  0  0  0  0  0  0  0  0  0  0  0
   30.7983   22.8657   -2.3505 C   0  0  0  0  0  0  0  0  0  0  0  0
   29.4566   22.2690   -1.8969 C   0  0  0  0  0  0  0  0  0  0  0  0
   27.8485   21.1372   -3.3894 N   0  0  0  0  0  0  0  0  0  0  0  0
   29.1073   20.9621   -2.6416 C   0  0  0  0  0  0  0  0  0  0  0  0
   27.9457   21.9158   -4.0412 H   0  0  0  0  0  0  0  0  0  0  0  0
   27.0896   21.3330   -2.7366 H   0  0  0  0  0  0  0  0  0  0  0  0
   28.9614   19.7880   -1.6583 C   0  0  0  0  0  0  0  0  0  0  0  0
   29.8883   18.9505   -1.6300 O   0  0  0  0  0  0  0  0  0  0  0  0
   27.9287   19.7613   -0.9530 O   0  0  0  0  0  0  0  0  0  0  0  0
   27.2832   20.4347   -1.0419 H   0  0  0  0  0  0  0  0  0  0  0  0
 26 27  1  0  0  0
 27 25  1  0  0  0
 27 30  1  0  0  0
 25 24  1  0  0  0
 24 23  1  0  0  0
 23 22  1  0  0  0
 30 31  2  0  0  0
 30 32  1  0  0  0
 22  1  1  0  0  0
  1  2  1  0  0  0
  1  3  1  0  0  0
  2  7  1  0  0  0
  3  4  1  0  0  0
  3  5  1  0  0  0
  5  6  1  0  0  0
  5  7  1  0  0  0
  7 10  1  0  0  0
 10 11  1  0  0  0
 10 19  1  0  0  0
 11 12  2  0  0  0
 12 13  1  0  0  0
 13 14  1  0  0  0
 13 19  2  0  0  0
 14 15  1  0  0  0
 14 16  2  0  0  0
 16 17  1  0  0  0
 17 18  2  0  0  0
 18 19  1  0  0  0
 26 28  1  0  0  0
 26 29  1  0  0  0
 32 33  1  0  0  0
  4  8  1  0  0  0
  6  9  1  0  0  0
 15 20  1  0  0  0
 15 21  1  0  0  0
M  END
> <minimizedAffinity>
-7.71442

$$$$
1NW7_SAH_A_401


 33 35  0  0  0  0  0  0  0  0999 V2000
   33.9693   21.6703    0.6692 C   0  0  0  0  0  0  0  0  0  0  0  0
   33.5814   22.3113   -0.5760 O   0  0  0  0  0  0  0  0  0  0  0  0
   32.9258   20.5807    0.9487 C   0  0  0  0  0  0  0  0  0  0  0  0
   32.0888   20.9949    2.0354 O   0  0  0  0  0  0  0  0  0  0  0  0
   32.1170   20.4810   -0.3330 C   0  0  0  0  0  0  0  0  0  0  0  0
   30.7399   20.2368   -0.0189 O   0  0  0  0  0  0  0  0  0  0  0  0
   32.2451   21.8719   -0.9344 C   0  0  0  0  0  0  0  0  0  0  0  0
   31.6761   21.8458    1.8194 H   0  0  0  0  0  0  0  0  0  0  0  0
   30.4132   20.9365    0.5681 H   0  0  0  0  0  0  0  0  0  0  0  0
   32.0625   21.9254   -2.4218 N   0  0  0  0  0  0  0  0  0  0  0  0
   33.0041   22.2218   -3.3374 C   0  0  0  0  0  0  0  0  0  0  0  0
   32.4428   22.2645   -4.5500 N   0  0  0  0  0  0  0  0  0  0  0  0
   31.1481   21.9907   -4.4064 C   0  0  0  0  0  0  0  0  0  0  0  0
   30.0735   21.8963   -5.2962 C   0  0  0  0  0  0  0  0  0  0  0  0
   30.2590   22.0836   -6.6074 N   0  0  0  0  0  0  0  0  0  0  0  0
   28.8387   21.5955   -4.8153 N   0  0  0  0  0  0  0  0  0  0  0  0
   28.6397   21.3864   -3.5047 C   0  0  0  0  0  0  0  0  0  0  0  0
   29.6544   21.4713   -2.6366 N   0  0  0  0  0  0  0  0  0  0  0  0
   30.9079   21.7713   -3.0596 C   0  0  0  0  0  0  0  0  0  0  0  0
   31.1554   22.3013   -6.9515 H   0  0  0  0  0  0  0  0  0  0  0  0
   29.4993   22.0036   -7.2284 H   0  0  0  0  0  0  0  0  0  0  0  0
   35.3818   21.0977    0.5029 C   0  0  0  0  0  0  0  0  0  0  0  0
   36.4219   21.3061    1.9922 S   0  0  0  0  0  0  0  0  0  0  0  0
   35.7297   19.9572    3.0278 C   0  0  0  0  0  0  0  0  0  0  0  0
   35.2935   20.4257    4.4252 C   0  0  0  0  0  0  0  0  0  0  0  0
   35.0454   18.0427    5.0205 N   0  0  0  0  0  0  0  0  0  0  0  0
   34.4314   19.3761    5.1597 C   0  0  0  0  0  0  0  0  0  0  0  0
   35.9941   18.0646    5.3945 H   0  0  0  0  0  0  0  0  0  0  0  0
   35.0746   17.7831    4.0345 H   0  0  0  0  0  0  0  0  0  0  0  0
   33.0004   19.3440    4.5957 C   0  0  0  0  0  0  0  0  0  0  0  0
   32.6625   18.3240    3.9580 O   0  0  0  0  0  0  0  0  0  0  0  0
   32.2767   20.3386    4.8231 O   0  0  0  0  0  0  0  0  0  0  0  0
   32.6153   21.0623    5.3126 H   0  0  0  0  0  0  0  0  0  0  0  0
 26 27  1  0  0  0
 27 25  1  0  0  0
 27 30  1  0  0  0
 25 24  1  0  0  0
 24 23  1  0  0  0
 23 22  1  0  0  0
 30 31  2  0  0  0
 30 32  1  0  0  0
 22  1  1  0  0  0
  1  2  1  0  0  0
  1  3  1  0  0  0
  2  7  1  0  0  0
  3  4  1  0  0  0
  3  5  1  0  0  0
  5  6  1  0  0  0
  5  7  1  0  0  0
  7 10  1  0  0  0
 10 11  1  0  0  0
 10 19  1  0  0  0
 11 12  2  0  0  0
 12 13  1  0  0  0
 13 14  1  0  0  0
 13 19  2  0  0  0
 14 15  1  0  0  0
 14 16  2  0  0  0
 16 17  1  0  0  0
 17 18  2  0  0  0
 18 19  1  0  0  0
 26 28  1  0  0  0
 26 29  1  0  0  0
 32 33  1  0  0  0
  4  8  1  0  0  0
  6  9  1  0  0  0
 15 20  1  0  0  0
 15 21  1  0  0  0
M  END
> <minimizedAffinity>
-7.57144

$$$$
1NW7_SAH_A_401


 33 35  0  0  0  0  0  0  0  0999 V2000
   33.5584   22.5386   -0.9979 C   0  0  0  0  0  0  0  0  0  0  0  0
   33.1843   21.9498    0.2769 O   0  0  0  0  0  0  0  0  0  0  0  0
   35.0788   22.7424   -0.9608 C   0  0  0  0  0  0  0  0  0  0  0  0
   35.3655   24.1400   -0.8295 O   0  0  0  0  0  0  0  0  0  0  0  0
   35.5405   21.9899    0.2751 C   0  0  0  0  0  0  0  0  0  0  0  0
   36.6066   22.7080    0.9092 O   0  0  0  0  0  0  0  0  0  0  0  0
   34.3185   22.0235    1.1797 C   0  0  0  0  0  0  0  0  0  0  0  0
   34.9336   24.4852   -0.0326 H   0  0  0  0  0  0  0  0  0  0  0  0
   36.3116   23.6085    1.1164 H   0  0  0  0  0  0  0  0  0  0  0  0
   34.2568   20.9108    2.1830 N   0  0  0  0  0  0  0  0  0  0  0  0
   33.4371   19.8432    2.1502 C   0  0  0  0  0  0  0  0  0  0  0  0
   33.6063   19.1223    3.2633 N   0  0  0  0  0  0  0  0  0  0  0  0
   34.5355   19.7274    3.9998 C   0  0  0  0  0  0  0  0  0  0  0  0
   35.1176   19.4533    5.2414 C   0  0  0  0  0  0  0  0  0  0  0  0
   34.7610   18.3657    5.9333 N   0  0  0  0  0  0  0  0  0  0  0  0
   36.0634   20.2969    5.7312 N   0  0  0  0  0  0  0  0  0  0  0  0
   36.4455   21.3824    5.0406 C   0  0  0  0  0  0  0  0  0  0  0  0
   35.9016   21.6625    3.8505 N   0  0  0  0  0  0  0  0  0  0  0  0
   34.9509   20.8573    3.3138 C   0  0  0  0  0  0  0  0  0  0  0  0
   34.0753   17.7570    5.5747 H   0  0  0  0  0  0  0  0  0  0  0  0
   35.1842   18.1737    6.8012 H   0  0  0  0  0  0  0  0  0  0  0  0
   33.1236   21.5883   -2.1198 C   0  0  0  0  0  0  0  0  0  0  0  0
   32.3206   22.4483   -3.5194 S   0  0  0  0  0  0  0  0  0  0  0  0
   30.6014   22.5158   -2.8782 C   0  0  0  0  0  0  0  0  0  0  0  0
   30.2322   21.3105   -1.9990 C   0  0  0  0  0  0  0  0  0  0  0  0
   28.0173   21.2481   -3.0873 N   0  0  0  0  0  0  0  0  0  0  0  0
   29.1509   20.4161   -2.6433 C   0  0  0  0  0  0  0  0  0  0  0  0
   28.3500   21.9528   -3.7454 H   0  0  0  0  0  0  0  0  0  0  0  0
   27.5966   21.7083   -2.2801 H   0  0  0  0  0  0  0  0  0  0  0  0
   28.6498   19.3529   -1.6507 C   0  0  0  0  0  0  0  0  0  0  0  0
   29.1670   18.2177   -1.7231 O   0  0  0  0  0  0  0  0  0  0  0  0
   27.7662   19.7045   -0.8381 O   0  0  0  0  0  0  0  0  0  0  0  0
   27.4349   20.5808   -0.8564 H   0  0  0  0  0  0  0  0  0  0  0  0
 26 27  1  0  0  0
 27 25  1  0  0  0
 27 30  1  0  0  0
 25 24  1  0  0  0
 24 23  1  0  0  0
 23 22  1  0  0  0
 30 31  2  0  0  0
 30 32  1  0  0  0
 22  1  1  0  0  0
  1  2  1  0  0  0
  1  3  1  0  0  0
  2  7  1  0  0  0
  3  4  1  0  0  0
  3  5  1  0  0  0
  5  6  1  0  0  0
  5  7  1  0  0  0
  7 10  1  0  0  0
 10 11  1  0  0  0
 10 19  1  0  0  0
 11 12  2  0  0  0
 12 13  1  0  0  0
 13 14  1  0  0  0
 13 19  2  0  0  0
 14 15  1  0  0  0
 14 16  2  0  0  0
 16 17  1  0  0  0
 17 18  2  0  0  0
 18 19  1  0  0  0
 26 28  1  0  0  0
 26 29  1  0  0  0
 32 33  1  0  0  0
  4  8  1  0  0  0
  6  9  1  0  0  0
 15 20  1  0  0  0
 15 21  1  0  0  0
M  END
> <minimizedAffinity>
-7.39652

$$$$
1NW7_SAH_A_401


 33 35  0  0  0  0  0  0  0  0999 V2000
   29.8576   25.2009   -6.0397 C   0  0  0  0  0  0  0  0  0  0  0  0
   30.4741   24.0650   -5.3752 O   0  0  0  0  0  0  0  0  0  0  0  0
   28.5062   25.4348   -5.3517 C   0  0  0  0  0  0  0  0  0  0  0  0
   27.4512   25.0210   -6.2284 O   0  0  0  0  0  0  0  0  0  0  0  0
   28.5429   24.5526   -4.1158 C   0  0  0  0  0  0  0  0  0  0  0  0
   27.2428   23.9980   -3.8780 O   0  0  0  0  0  0  0  0  0  0  0  0
   29.4900   23.4321   -4.5161 C   0  0  0  0  0  0  0  0  0  0  0  0
   27.5786   24.0905   -6.4709 H   0  0  0  0  0  0  0  0  0  0  0  0
   26.9485   23.5145   -4.6657 H   0  0  0  0  0  0  0  0  0  0  0  0
   30.1675   22.7498   -3.3654 N   0  0  0  0  0  0  0  0  0  0  0  0
   31.2941   23.1479   -2.7449 C   0  0  0  0  0  0  0  0  0  0  0  0
   31.6423   22.2344   -1.8330 N   0  0  0  0  0  0  0  0  0  0  0  0
   30.7360   21.2602   -1.8698 C   0  0  0  0  0  0  0  0  0  0  0  0
   30.5738   20.0610   -1.1690 C   0  0  0  0  0  0  0  0  0  0  0  0
   31.4428   19.7090   -0.2152 N   0  0  0  0  0  0  0  0  0  0  0  0
   29.5123   19.2630   -1.4567 N   0  0  0  0  0  0  0  0  0  0  0  0
   28.6213   19.6110   -2.3981 C   0  0  0  0  0  0  0  0  0  0  0  0
   28.7577   20.7544   -3.0797 N   0  0  0  0  0  0  0  0  0  0  0  0
   29.7995   21.5886   -2.8367 C   0  0  0  0  0  0  0  0  0  0  0  0
   32.2105   20.2902   -0.0100 H   0  0  0  0  0  0  0  0  0  0  0  0
   31.3148   18.8688    0.2816 H   0  0  0  0  0  0  0  0  0  0  0  0
   30.7948   26.4075   -5.9120 C   0  0  0  0  0  0  0  0  0  0  0  0
   30.4709   27.4146   -4.4207 S   0  0  0  0  0  0  0  0  0  0  0  0
   30.1187   29.0278   -5.2237 C   0  0  0  0  0  0  0  0  0  0  0  0
   29.5309   30.0714   -4.2606 C   0  0  0  0  0  0  0  0  0  0  0  0
   31.3132   31.6154   -3.5299 N   0  0  0  0  0  0  0  0  0  0  0  0
   30.1640   31.4681   -4.4420 C   0  0  0  0  0  0  0  0  0  0  0  0
   31.9925   30.8779   -3.7171 H   0  0  0  0  0  0  0  0  0  0  0  0
   30.9922   31.5448   -2.5643 H   0  0  0  0  0  0  0  0  0  0  0  0
   29.1389   32.5801   -4.1603 C   0  0  0  0  0  0  0  0  0  0  0  0
   27.9856   32.2232   -3.8384 O   0  0  0  0  0  0  0  0  0  0  0  0
   29.5370   33.7612   -4.2669 O   0  0  0  0  0  0  0  0  0  0  0  0
   30.4235   33.9363   -4.5148 H   0  0  0  0  0  0  0  0  0  0  0  0
 26 27  1  0  0  0
 27 25  1  0  0  0
 27 30  1  0  0  0
 25 24  1  0  0  0
 24 23  1  0  0  0
 23 22  1  0  0  0
 30 31  2  0  0  0
 30 32  1  0  0  0
 22  1  1  0  0  0
  1  2  1  0  0  0
  1  3  1  0  0  0
  2  7  1  0  0  0
  3  4  1  0  0  0
  3  5  1  0  0  0
  5  6  1  0  0  0
  5  7  1  0  0  0
  7 10  1  0  0  0
 10 11  1  0  0  0
 10 19  1  0  0  0
 11 12  2  0  0  0
 12 13  1  0  0  0
 13 14  1  0  0  0
 13 19  2  0  0  0
 14 15  1  0  0  0
 14 16  2  0  0  0
 16 17  1  0  0  0
 17 18  2  0  0  0
 18 19  1  0  0  0
 26 28  1  0  0  0
 26 29  1  0  0  0
 32 33  1  0  0  0
  4  8  1  0  0  0
  6  9  1  0  0  0
 15 20  1  0  0  0
 15 21  1  0  0  0
M  END
> <minimizedAffinity>
-7.22913

$$$$
1NW7_SAH_A_401


 33 35  0  0  0  0  0  0  0  0999 V2000
   31.0203   21.2305   -1.5768 C   0  0  0  0  0  0  0  0  0  0  0  0
   30.9240   22.6404   -1.9156 O   0  0  0  0  0  0  0  0  0  0  0  0
   29.8738   20.5211   -2.3093 C   0  0  0  0  0  0  0  0  0  0  0  0
   28.8706   20.1395   -1.3601 O   0  0  0  0  0  0  0  0  0  0  0  0
   29.3244   21.5621   -3.2691 C   0  0  0  0  0  0  0  0  0  0  0  0
   27.8997   21.4336   -3.3594 O   0  0  0  0  0  0  0  0  0  0  0  0
   29.6571   22.8779   -2.5830 C   0  0  0  0  0  0  0  0  0  0  0  0
   28.5639   20.9248   -0.8805 H   0  0  0  0  0  0  0  0  0  0  0  0
   27.5114   21.5094   -2.4737 H   0  0  0  0  0  0  0  0  0  0  0  0
   29.7705   24.0512   -3.5099 N   0  0  0  0  0  0  0  0  0  0  0  0
   30.9039   24.6756   -3.8816 C   0  0  0  0  0  0  0  0  0  0  0  0
   30.5969   25.7348   -4.6375 N   0  0  0  0  0  0  0  0  0  0  0  0
   29.2714   25.7806   -4.7505 C   0  0  0  0  0  0  0  0  0  0  0  0
   28.3839   26.6443   -5.4000 C   0  0  0  0  0  0  0  0  0  0  0  0
   28.8423   27.6801   -6.1111 N   0  0  0  0  0  0  0  0  0  0  0  0
   27.0482   26.4101   -5.3142 N   0  0  0  0  0  0  0  0  0  0  0  0
   26.5732   25.3644   -4.6199 C   0  0  0  0  0  0  0  0  0  0  0  0
   27.4053   24.5256   -3.9918 N   0  0  0  0  0  0  0  0  0  0  0  0
   28.7481   24.7120   -4.0406 C   0  0  0  0  0  0  0  0  0  0  0  0
   29.8109   27.8462   -6.1706 H   0  0  0  0  0  0  0  0  0  0  0  0
   28.2112   28.2766   -6.5750 H   0  0  0  0  0  0  0  0  0  0  0  0
   32.3979   20.7178   -2.0127 C   0  0  0  0  0  0  0  0  0  0  0  0
   33.6458   20.7862   -0.6781 S   0  0  0  0  0  0  0  0  0  0  0  0
   32.6017   20.2439    0.7315 C   0  0  0  0  0  0  0  0  0  0  0  0
   33.2892   19.2076    1.6347 C   0  0  0  0  0  0  0  0  0  0  0  0
   35.0117   20.1149    3.1527 N   0  0  0  0  0  0  0  0  0  0  0  0
   33.5852   19.7564    3.0473 C   0  0  0  0  0  0  0  0  0  0  0  0
   35.2431   20.8029    2.4362 H   0  0  0  0  0  0  0  0  0  0  0  0
   35.5827   19.2802    3.0196 H   0  0  0  0  0  0  0  0  0  0  0  0
   33.2353   18.7186    4.1277 C   0  0  0  0  0  0  0  0  0  0  0  0
   32.4721   19.0875    5.0457 O   0  0  0  0  0  0  0  0  0  0  0  0
   33.7345   17.5783    4.0043 O   0  0  0  0  0  0  0  0  0  0  0  0
   34.2990   17.3898    3.2805 H   0  0  0  0  0  0  0  0  0  0  0  0
 26 27  1  0  0  0
 27 25  1  0  0  0
 27 30  1  0  0  0
 25 24  1  0  0  0
 24 23  1  0  0  0
 23 22  1  0  0  0
 30 31  2  0  0  0
 30 32  1  0  0  0
 22  1  1  0  0  0
  1  2  1  0  0  0
  1  3  1  0  0  0
  2  7  1  0  0  0
  3  4  1  0  0  0
  3  5  1  0  0  0
  5  6  1  0  0  0
  5  7  1  0  0  0
  7 10  1  0  0  0
 10 11  1  0  0  0
 10 19  1  0  0  0
 11 12  2  0  0  0
 12 13  1  0  0  0
 13 14  1  0  0  0
 13 19  2  0  0  0
 14 15  1  0  0  0
 14 16  2  0  0  0
 16 17  1  0  0  0
 17 18  2  0  0  0
 18 19  1  0  0  0
 26 28  1  0  0  0
 26 29  1  0  0  0
 32 33  1  0  0  0
  4  8  1  0  0  0
  6  9  1  0  0  0
 15 20  1  0  0  0
 15 21  1  0  0  0
M  END
> <minimizedAffinity>
-7.22474

$$$$
1NW7_SAH_A_401


 33 35  0  0  0  0  0  0  0  0999 V2000
   33.0905   21.2925   -2.3612 C   0  0  0  0  0  0  0  0  0  0  0  0
   34.0713   21.0763   -1.3109 O   0  0  0  0  0  0  0  0  0  0  0  0
   31.7122   21.2826   -1.6871 C   0  0  0  0  0  0  0  0  0  0  0  0
   31.0290   20.0694   -2.0254 O   0  0  0  0  0  0  0  0  0  0  0  0
   32.0088   21.3245   -0.1981 C   0  0  0  0  0  0  0  0  0  0  0  0
   31.0606   20.5137    0.5076 O   0  0  0  0  0  0  0  0  0  0  0  0
   33.3809   20.6762   -0.0983 C   0  0  0  0  0  0  0  0  0  0  0  0
   31.5690   19.3091   -1.7585 H   0  0  0  0  0  0  0  0  0  0  0  0
   31.0810   19.6106    0.1543 H   0  0  0  0  0  0  0  0  0  0  0  0
   34.1737   21.0813    1.1084 N   0  0  0  0  0  0  0  0  0  0  0  0
   35.2002   21.9518    1.1408 C   0  0  0  0  0  0  0  0  0  0  0  0
   35.7153   21.9813    2.3742 N   0  0  0  0  0  0  0  0  0  0  0  0
   35.0143   21.1353    3.1256 C   0  0  0  0  0  0  0  0  0  0  0  0
   35.0844   20.7439    4.4663 C   0  0  0  0  0  0  0  0  0  0  0  0
   36.0020   21.2750    5.2816 N   0  0  0  0  0  0  0  0  0  0  0  0
   34.1980   19.8280    4.9370 N   0  0  0  0  0  0  0  0  0  0  0  0
   33.2597   19.2995    4.1363 C   0  0  0  0  0  0  0  0  0  0  0  0
   33.1749   19.6609    2.8507 N   0  0  0  0  0  0  0  0  0  0  0  0
   34.0351   20.5688    2.3256 C   0  0  0  0  0  0  0  0  0  0  0  0
   36.6424   21.9383    4.9364 H   0  0  0  0  0  0  0  0  0  0  0  0
   36.0371   21.0027    6.2270 H   0  0  0  0  0  0  0  0  0  0  0  0
   33.3966   22.6300   -3.0455 C   0  0  0  0  0  0  0  0  0  0  0  0
   32.5830   22.8073   -4.6734 S   0  0  0  0  0  0  0  0  0  0  0  0
   31.6419   24.3537   -4.3671 C   0  0  0  0  0  0  0  0  0  0  0  0
   30.1279   24.1275   -4.2295 C   0  0  0  0  0  0  0  0  0  0  0  0
   29.0110   22.9458   -6.0870 N   0  0  0  0  0  0  0  0  0  0  0  0
   29.6803   22.7587   -4.7864 C   0  0  0  0  0  0  0  0  0  0  0  0
   29.6471   23.4140   -6.7324 H   0  0  0  0  0  0  0  0  0  0  0  0
   28.1749   23.5161   -5.9601 H   0  0  0  0  0  0  0  0  0  0  0  0
   28.7215   22.0526   -3.8123 C   0  0  0  0  0  0  0  0  0  0  0  0
   27.8945   22.7684   -3.2082 O   0  0  0  0  0  0  0  0  0  0  0  0
   28.8347   20.8118   -3.7016 O   0  0  0  0  0  0  0  0  0  0  0  0
   29.4865   20.3548   -4.1959 H   0  0  0  0  0  0  0  0  0  0  0  0
 26 27  1  0  0  0
 27 25  1  0  0  0
 27 30  1  0  0  0
 25 24  1  0  0  0
 24 23  1  0  0  0
 23 22  1  0  0  0
 30 31  2  0  0  0
 30 32  1  0  0  0
 22  1  1  0  0  0
  1  2  1  0  0  0
  1  3  1  0  0  0
  2  7  1  0  0  0
  3  4  1  0  0  0
  3  5  1  0  0  0
  5  6  1  0  0  0
  5  7  1  0  0  0
  7 10  1  0  0  0
 10 11  1  0  0  0
 10 19  1  0  0  0
 11 12  2  0  0  0
 12 13  1  0  0  0
 13 14  1  0  0  0
 13 19  2  0  0  0
 14 15  1  0  0  0
 14 16  2  0  0  0
 16 17  1  0  0  0
 17 18  2  0  0  0
 18 19  1  0  0  0
 26 28  1  0  0  0
 26 29  1  0  0  0
 32 33  1  0  0  0
  4  8  1  0  0  0
  6  9  1  0  0  0
 15 20  1  0  0  0
 15 21  1  0  0  0
M  END
> <minimizedAffinity>
-7.16443

$$$$
