2BPV_1IN_B_902


 49 52  0  0  0  0  0  0  0  0999 V2000
   12.7726   25.3090    4.5213 C   0  0  0  0  0  0  0  0  0  0  0  0
    9.1286   24.2055    4.2587 C   0  0  0  0  0  0  0  0  0  0  0  0
   10.3413   25.0139    4.7434 C   0  0  0  0  0  0  0  0  0  0  0  0
    7.8426   25.1637    1.0325 O   0  0  0  0  0  0  0  0  0  0  0  0
   11.4123   24.6732    2.5780 C   0  0  0  0  0  0  0  0  0  0  0  0
   10.1807   23.9551    2.0661 C   0  0  0  0  0  0  0  0  0  0  0  0
    7.9216   24.9492    2.2419 C   0  0  0  0  0  0  0  0  0  0  0  0
    9.0246   24.4128    2.8197 N   0  0  0  0  0  0  0  0  0  0  0  0
   11.5823   24.5989    4.0350 N   0  0  0  0  0  0  0  0  0  0  0  0
   10.4461   24.8530    6.2522 C   0  0  0  0  0  0  0  0  0  0  0  0
   10.4221   23.7250    6.7530 O   0  0  0  0  0  0  0  0  0  0  0  0
   10.5341   26.0286    6.9211 N   0  0  0  0  0  0  0  0  0  0  0  0
   10.5706   26.8655    6.4040 H   0  0  0  0  0  0  0  0  0  0  0  0
    9.2804   25.5100    8.9589 C   0  0  0  0  0  0  0  0  0  0  0  0
   10.5767   26.1020    8.3740 C   0  0  0  0  0  0  0  0  0  0  0  0
   10.6638   27.5929    8.7585 C   0  0  0  0  0  0  0  0  0  0  0  0
   11.8134   25.3694    8.9149 C   0  0  0  0  0  0  0  0  0  0  0  0
    6.7594   25.2867    3.0967 C   0  0  0  0  0  0  0  0  0  0  0  0
    6.4683   26.6827    3.4345 C   0  0  0  0  0  0  0  0  0  0  0  0
    6.0044   27.3228    5.7710 C   0  0  0  0  0  0  0  0  0  0  0  0
    6.3962   27.9300    6.9681 C   0  0  0  0  0  0  0  0  0  0  0  0
    7.6934   28.4588    7.0377 C   0  0  0  0  0  0  0  0  0  0  0  0
    8.1721   27.7991    4.8524 C   0  0  0  0  0  0  0  0  0  0  0  0
    6.8954   27.2607    4.6986 C   0  0  0  0  0  0  0  0  0  0  0  0
    8.5251   28.3621    6.0012 N   0  0  0  0  0  0  0  0  0  0  0  0
   13.8447   24.2396    4.7739 C   0  0  0  0  0  0  0  0  0  0  0  0
   15.1002   24.8069    4.4198 O   0  0  0  0  0  0  0  0  0  0  0  0
   15.2711   25.5850    4.9733 H   0  0  0  0  0  0  0  0  0  0  0  0
   13.9126   23.8074    6.2400 C   0  0  0  0  0  0  0  0  0  0  0  0
   14.8904   22.6684    6.5529 C   0  0  0  0  0  0  0  0  0  0  0  0
   14.5034   21.3781    5.8057 C   0  0  0  0  0  0  0  0  0  0  0  0
   13.3761   20.8943    5.9112 O   0  0  0  0  0  0  0  0  0  0  0  0
   15.4739   20.8533    5.0381 N   0  0  0  0  0  0  0  0  0  0  0  0
   16.2103   21.4284    4.7281 H   0  0  0  0  0  0  0  0  0  0  0  0
   17.8221   19.7148    4.2512 O   0  0  0  0  0  0  0  0  0  0  0  0
   15.4535   19.4366    4.6544 C   0  0  0  0  0  0  0  0  0  0  0  0
   16.6736   17.6342    3.8240 C   0  0  0  0  0  0  0  0  0  0  0  0
   14.7934   19.1023    3.2869 C   0  0  0  0  0  0  0  0  0  0  0  0
   16.8584   18.8113    4.7868 C   0  0  0  0  0  0  0  0  0  0  0  0
   15.7795   18.0765    2.7168 C   0  0  0  0  0  0  0  0  0  0  0  0
   14.7177   20.3073    2.3929 C   0  0  0  0  0  0  0  0  0  0  0  0
   17.9397   20.4605    4.8603 H   0  0  0  0  0  0  0  0  0  0  0  0
   14.8696   22.4428    8.0660 C   0  0  0  0  0  0  0  0  0  0  0  0
   16.0440   21.6284    8.5514 C   0  0  0  0  0  0  0  0  0  0  0  0
   15.8578   20.3768    9.1391 C   0  0  0  0  0  0  0  0  0  0  0  0
   18.4426   21.4299    8.7734 C   0  0  0  0  0  0  0  0  0  0  0  0
   17.3251   22.1650    8.3815 C   0  0  0  0  0  0  0  0  0  0  0  0
   16.9697   19.6416    9.5433 C   0  0  0  0  0  0  0  0  0  0  0  0
   18.2613   20.1678    9.3600 C   0  0  0  0  0  0  0  0  0  0  0  0
  2  3  1  0  0  0
  2  8  1  0  0  0
  3 10  1  0  0  0
  3  9  1  0  0  0
 10 11  2  0  0  0
 10 12  1  0  0  0
 35 39  1  0  0  0
  4  7  2  0  0  0
 14 15  1  0  0  0
  5  6  1  0  0  0
  5  9  1  0  0  0
  6  8  1  0  0  0
  1 26  1  0  0  0
  1  9  1  0  0  0
 26 29  1  0  0  0
 26 27  1  0  0  0
 29 30  1  0  0  0
 30 43  1  0  0  0
 30 31  1  0  0  0
 43 44  1  0  0  0
 44 45  2  0  0  0
 44 47  1  0  0  0
 45 48  1  0  0  0
 46 47  2  0  0  0
 46 49  1  0  0  0
 31 32  2  0  0  0
 31 33  1  0  0  0
 36 38  1  0  0  0
 36 33  1  0  0  0
 36 39  1  0  0  0
 37 39  1  0  0  0
 37 40  1  0  0  0
 19 18  1  0  0  0
 19 24  1  0  0  0
 38 40  1  0  0  0
 38 41  1  0  0  0
  7  8  1  0  0  0
  7 18  1  0  0  0
 20 21  2  0  0  0
 20 24  1  0  0  0
 21 22  1  0  0  0
 22 25  2  0  0  0
 23 24  2  0  0  0
 23 25  1  0  0  0
 12 15  1  0  0  0
 15 16  1  0  0  0
 15 17  1  0  0  0
 48 49  2  0  0  0
 35 42  1  0  0  0
 12 13  1  0  0  0
 27 28  1  0  0  0
 33 34  1  0  0  0
M  END
> <minimizedAffinity>
-10.82394

$$$$
2BPV_1IN_B_902


 49 52  0  0  0  0  0  0  0  0999 V2000
   12.5672   25.2286    4.8584 C   0  0  0  0  0  0  0  0  0  0  0  0
    8.9183   24.2421    4.3317 C   0  0  0  0  0  0  0  0  0  0  0  0
   10.1152   25.0407    4.8689 C   0  0  0  0  0  0  0  0  0  0  0  0
    7.9786   24.9939    0.9359 O   0  0  0  0  0  0  0  0  0  0  0  0
   11.3656   24.4944    2.8464 C   0  0  0  0  0  0  0  0  0  0  0  0
   10.1563   23.7843    2.2738 C   0  0  0  0  0  0  0  0  0  0  0  0
    7.9362   24.8710    2.1597 C   0  0  0  0  0  0  0  0  0  0  0  0
    8.9567   24.3410    2.8780 N   0  0  0  0  0  0  0  0  0  0  0  0
   11.3970   24.5269    4.3146 N   0  0  0  0  0  0  0  0  0  0  0  0
   10.0732   24.9933    6.3885 C   0  0  0  0  0  0  0  0  0  0  0  0
    9.8100   23.9331    6.9633 O   0  0  0  0  0  0  0  0  0  0  0  0
   10.3178   26.1890    6.9783 N   0  0  0  0  0  0  0  0  0  0  0  0
   10.5428   26.9600    6.4090 H   0  0  0  0  0  0  0  0  0  0  0  0
    8.9077   25.8710    8.9540 C   0  0  0  0  0  0  0  0  0  0  0  0
   10.2610   26.3776    8.4203 C   0  0  0  0  0  0  0  0  0  0  0  0
   10.3710   27.8916    8.6925 C   0  0  0  0  0  0  0  0  0  0  0  0
   11.4313   25.6564    9.1050 C   0  0  0  0  0  0  0  0  0  0  0  0
    6.7160   25.3160    2.8727 C   0  0  0  0  0  0  0  0  0  0  0  0
    6.4905   26.7393    3.1390 C   0  0  0  0  0  0  0  0  0  0  0  0
    5.7809   27.4401    5.3950 C   0  0  0  0  0  0  0  0  0  0  0  0
    6.0534   28.0535    6.6217 C   0  0  0  0  0  0  0  0  0  0  0  0
    7.3539   28.5320    6.8376 C   0  0  0  0  0  0  0  0  0  0  0  0
    8.0597   27.8137    4.7337 C   0  0  0  0  0  0  0  0  0  0  0  0
    6.7890   27.3232    4.4368 C   0  0  0  0  0  0  0  0  0  0  0  0
    8.2975   28.3835    5.9085 N   0  0  0  0  0  0  0  0  0  0  0  0
   13.4720   24.1527    5.4757 C   0  0  0  0  0  0  0  0  0  0  0  0
   13.9606   24.6670    6.7087 O   0  0  0  0  0  0  0  0  0  0  0  0
   13.2145   24.8522    7.3002 H   0  0  0  0  0  0  0  0  0  0  0  0
   12.7251   22.8490    5.7646 C   0  0  0  0  0  0  0  0  0  0  0  0
   13.6016   21.5995    5.9131 C   0  0  0  0  0  0  0  0  0  0  0  0
   14.2570   21.5386    7.3059 C   0  0  0  0  0  0  0  0  0  0  0  0
   13.6667   21.9467    8.3064 O   0  0  0  0  0  0  0  0  0  0  0  0
   15.4883   21.0003    7.3312 N   0  0  0  0  0  0  0  0  0  0  0  0
   15.7712   20.4039    6.6008 H   0  0  0  0  0  0  0  0  0  0  0  0
   16.7450   23.4190    7.3354 O   0  0  0  0  0  0  0  0  0  0  0  0
   16.4181   21.2872    8.4303 C   0  0  0  0  0  0  0  0  0  0  0  0
   17.9515   22.7919    9.3308 C   0  0  0  0  0  0  0  0  0  0  0  0
   17.7812   20.5403    8.3927 C   0  0  0  0  0  0  0  0  0  0  0  0
   16.5971   22.8090    8.6152 C   0  0  0  0  0  0  0  0  0  0  0  0
   18.7519   21.6610    8.7819 C   0  0  0  0  0  0  0  0  0  0  0  0
   18.1001   20.0272    7.0171 C   0  0  0  0  0  0  0  0  0  0  0  0
   15.8878   23.4302    6.8816 H   0  0  0  0  0  0  0  0  0  0  0  0
   14.6674   21.6485    4.8166 C   0  0  0  0  0  0  0  0  0  0  0  0
   14.6742   20.4107    3.9529 C   0  0  0  0  0  0  0  0  0  0  0  0
   14.5529   20.5006    2.5659 C   0  0  0  0  0  0  0  0  0  0  0  0
   14.8751   18.0053    3.8284 C   0  0  0  0  0  0  0  0  0  0  0  0
   14.8182   19.1724    4.5883 C   0  0  0  0  0  0  0  0  0  0  0  0
   14.5976   19.3372    1.8012 C   0  0  0  0  0  0  0  0  0  0  0  0
   14.7591   18.0905    2.4322 C   0  0  0  0  0  0  0  0  0  0  0  0
  2  3  1  0  0  0
  2  8  1  0  0  0
  3 10  1  0  0  0
  3  9  1  0  0  0
 10 11  2  0  0  0
 10 12  1  0  0  0
 35 39  1  0  0  0
  4  7  2  0  0  0
 14 15  1  0  0  0
  5  6  1  0  0  0
  5  9  1  0  0  0
  6  8  1  0  0  0
  1 26  1  0  0  0
  1  9  1  0  0  0
 26 29  1  0  0  0
 26 27  1  0  0  0
 29 30  1  0  0  0
 30 43  1  0  0  0
 30 31  1  0  0  0
 43 44  1  0  0  0
 44 45  2  0  0  0
 44 47  1  0  0  0
 45 48  1  0  0  0
 46 47  2  0  0  0
 46 49  1  0  0  0
 31 32  2  0  0  0
 31 33  1  0  0  0
 36 38  1  0  0  0
 36 33  1  0  0  0
 36 39  1  0  0  0
 37 39  1  0  0  0
 37 40  1  0  0  0
 19 18  1  0  0  0
 19 24  1  0  0  0
 38 40  1  0  0  0
 38 41  1  0  0  0
  7  8  1  0  0  0
  7 18  1  0  0  0
 20 21  2  0  0  0
 20 24  1  0  0  0
 21 22  1  0  0  0
 22 25  2  0  0  0
 23 24  2  0  0  0
 23 25  1  0  0  0
 12 15  1  0  0  0
 15 16  1  0  0  0
 15 17  1  0  0  0
 48 49  2  0  0  0
 35 42  1  0  0  0
 12 13  1  0  0  0
 27 28  1  0  0  0
 33 34  1  0  0  0
M  END
> <minimizedAffinity>
-10.62174

$$$$
2BPV_1IN_B_902


 49 52  0  0  0  0  0  0  0  0999 V2000
   13.3722   22.9742    5.6560 C   0  0  0  0  0  0  0  0  0  0  0  0
   15.8816   20.2610    4.7035 C   0  0  0  0  0  0  0  0  0  0  0  0
   14.8787   21.0321    5.5745 C   0  0  0  0  0  0  0  0  0  0  0  0
   14.4098   18.1289    2.2000 O   0  0  0  0  0  0  0  0  0  0  0  0
   13.6966   21.7363    3.5598 C   0  0  0  0  0  0  0  0  0  0  0  0
   14.6283   20.9025    2.7047 C   0  0  0  0  0  0  0  0  0  0  0  0
   15.0480   18.5108    3.1806 C   0  0  0  0  0  0  0  0  0  0  0  0
   15.1636   19.8198    3.5143 N   0  0  0  0  0  0  0  0  0  0  0  0
   14.2886   22.1772    4.8297 N   0  0  0  0  0  0  0  0  0  0  0  0
   15.5906   21.4651    6.8469 C   0  0  0  0  0  0  0  0  0  0  0  0
   16.0674   22.6008    6.9282 O   0  0  0  0  0  0  0  0  0  0  0  0
   15.6494   20.4981    7.7949 N   0  0  0  0  0  0  0  0  0  0  0  0
   15.2053   19.6369    7.6203 H   0  0  0  0  0  0  0  0  0  0  0  0
   17.8051   21.0885    8.7936 C   0  0  0  0  0  0  0  0  0  0  0  0
   16.3432   20.6830    9.0608 C   0  0  0  0  0  0  0  0  0  0  0  0
   16.3265   19.3288    9.7984 C   0  0  0  0  0  0  0  0  0  0  0  0
   15.6254   21.7337    9.9206 C   0  0  0  0  0  0  0  0  0  0  0  0
   15.7208   17.4959    4.0247 C   0  0  0  0  0  0  0  0  0  0  0  0
   17.1580   17.2477    3.8818 C   0  0  0  0  0  0  0  0  0  0  0  0
   18.5076   15.7407    5.2931 C   0  0  0  0  0  0  0  0  0  0  0  0
   19.2752   15.5073    6.4383 C   0  0  0  0  0  0  0  0  0  0  0  0
   19.5111   16.5902    7.2979 C   0  0  0  0  0  0  0  0  0  0  0  0
   18.2956   18.0446    5.9386 C   0  0  0  0  0  0  0  0  0  0  0  0
   18.0056   17.0183    5.0408 C   0  0  0  0  0  0  0  0  0  0  0  0
   19.0344   17.8018    7.0140 N   0  0  0  0  0  0  0  0  0  0  0  0
   13.7500   24.4450    5.4303 C   0  0  0  0  0  0  0  0  0  0  0  0
   15.0129   24.4620    4.7758 O   0  0  0  0  0  0  0  0  0  0  0  0
   14.9418   24.0035    3.9240 H   0  0  0  0  0  0  0  0  0  0  0  0
   12.7437   25.1833    4.5454 C   0  0  0  0  0  0  0  0  0  0  0  0
   11.2656   24.9092    4.8480 C   0  0  0  0  0  0  0  0  0  0  0  0
   10.4890   24.5534    3.5661 C   0  0  0  0  0  0  0  0  0  0  0  0
   10.8492   23.6271    2.8392 O   0  0  0  0  0  0  0  0  0  0  0  0
    9.4054   25.3124    3.3292 N   0  0  0  0  0  0  0  0  0  0  0  0
    8.9788   25.7935    4.0747 H   0  0  0  0  0  0  0  0  0  0  0  0
    8.4195   27.7395    2.5764 O   0  0  0  0  0  0  0  0  0  0  0  0
    8.8479   25.4358    1.9769 C   0  0  0  0  0  0  0  0  0  0  0  0
    7.7659   26.8158    0.4434 C   0  0  0  0  0  0  0  0  0  0  0  0
    7.4675   24.7620    1.7363 C   0  0  0  0  0  0  0  0  0  0  0  0
    8.8633   26.9063    1.5084 C   0  0  0  0  0  0  0  0  0  0  0  0
    6.7472   25.8330    0.9095 C   0  0  0  0  0  0  0  0  0  0  0  0
    6.7338   24.5147    3.0238 C   0  0  0  0  0  0  0  0  0  0  0  0
    9.1139   27.7974    3.2512 H   0  0  0  0  0  0  0  0  0  0  0  0
   10.6854   26.1661    5.4993 C   0  0  0  0  0  0  0  0  0  0  0  0
   10.3729   25.9743    6.9634 C   0  0  0  0  0  0  0  0  0  0  0  0
    9.0925   25.6143    7.3846 C   0  0  0  0  0  0  0  0  0  0  0  0
   11.1825   25.9479    9.2407 C   0  0  0  0  0  0  0  0  0  0  0  0
   11.4123   26.1578    7.8821 C   0  0  0  0  0  0  0  0  0  0  0  0
    8.8529   25.4139    8.7421 C   0  0  0  0  0  0  0  0  0  0  0  0
    9.8976   25.5802    9.6694 C   0  0  0  0  0  0  0  0  0  0  0  0
  2  3  1  0  0  0
  2  8  1  0  0  0
  3 10  1  0  0  0
  3  9  1  0  0  0
 10 11  2  0  0  0
 10 12  1  0  0  0
 35 39  1  0  0  0
  4  7  2  0  0  0
 14 15  1  0  0  0
  5  6  1  0  0  0
  5  9  1  0  0  0
  6  8  1  0  0  0
  1 26  1  0  0  0
  1  9  1  0  0  0
 26 29  1  0  0  0
 26 27  1  0  0  0
 29 30  1  0  0  0
 30 43  1  0  0  0
 30 31  1  0  0  0
 43 44  1  0  0  0
 44 45  2  0  0  0
 44 47  1  0  0  0
 45 48  1  0  0  0
 46 47  2  0  0  0
 46 49  1  0  0  0
 31 32  2  0  0  0
 31 33  1  0  0  0
 36 38  1  0  0  0
 36 33  1  0  0  0
 36 39  1  0  0  0
 37 39  1  0  0  0
 37 40  1  0  0  0
 19 18  1  0  0  0
 19 24  1  0  0  0
 38 40  1  0  0  0
 38 41  1  0  0  0
  7  8  1  0  0  0
  7 18  1  0  0  0
 20 21  2  0  0  0
 20 24  1  0  0  0
 21 22  1  0  0  0
 22 25  2  0  0  0
 23 24  2  0  0  0
 23 25  1  0  0  0
 12 15  1  0  0  0
 15 16  1  0  0  0
 15 17  1  0  0  0
 48 49  2  0  0  0
 35 42  1  0  0  0
 12 13  1  0  0  0
 27 28  1  0  0  0
 33 34  1  0  0  0
M  END
> <minimizedAffinity>
-10.06770

$$$$
2BPV_1IN_B_902


 49 52  0  0  0  0  0  0  0  0999 V2000
   15.1703   22.6144    4.6829 C   0  0  0  0  0  0  0  0  0  0  0  0
   15.9666   20.2045    7.5331 C   0  0  0  0  0  0  0  0  0  0  0  0
   16.2080   21.0577    6.2789 C   0  0  0  0  0  0  0  0  0  0  0  0
   15.9626   22.0236   10.6428 O   0  0  0  0  0  0  0  0  0  0  0  0
   14.5179   22.6390    7.0503 C   0  0  0  0  0  0  0  0  0  0  0  0
   14.3434   21.8493    8.3312 C   0  0  0  0  0  0  0  0  0  0  0  0
   16.2694   21.2282    9.7551 C   0  0  0  0  0  0  0  0  0  0  0  0
   15.5695   21.1153    8.5994 N   0  0  0  0  0  0  0  0  0  0  0  0
   14.9929   21.8360    5.9159 N   0  0  0  0  0  0  0  0  0  0  0  0
   16.6697   20.1364    5.1603 C   0  0  0  0  0  0  0  0  0  0  0  0
   17.8015   20.2663    4.6850 O   0  0  0  0  0  0  0  0  0  0  0  0
   15.7303   19.2413    4.7684 N   0  0  0  0  0  0  0  0  0  0  0  0
   14.8698   19.2190    5.2461 H   0  0  0  0  0  0  0  0  0  0  0  0
   16.2425   19.0985    2.3788 C   0  0  0  0  0  0  0  0  0  0  0  0
   15.9440   18.3118    3.6691 C   0  0  0  0  0  0  0  0  0  0  0  0
   14.6379   17.5145    3.4782 C   0  0  0  0  0  0  0  0  0  0  0  0
   17.0846   17.3382    4.0003 C   0  0  0  0  0  0  0  0  0  0  0  0
   17.4487   20.3561    9.9647 C   0  0  0  0  0  0  0  0  0  0  0  0
   17.3132   19.0862   10.6834 C   0  0  0  0  0  0  0  0  0  0  0  0
   17.3493   16.6199   10.6765 C   0  0  0  0  0  0  0  0  0  0  0  0
   17.7822   15.4098   10.1254 C   0  0  0  0  0  0  0  0  0  0  0  0
   18.5776   15.4655    8.9716 C   0  0  0  0  0  0  0  0  0  0  0  0
   18.4963   17.7960    8.9240 C   0  0  0  0  0  0  0  0  0  0  0  0
   17.7132   17.8266   10.0770 C   0  0  0  0  0  0  0  0  0  0  0  0
   18.8875   16.6351    8.4135 N   0  0  0  0  0  0  0  0  0  0  0  0
   14.0256   23.6368    4.6449 C   0  0  0  0  0  0  0  0  0  0  0  0
   14.5861   24.8856    4.2581 O   0  0  0  0  0  0  0  0  0  0  0  0
   14.9854   24.8021    3.3781 H   0  0  0  0  0  0  0  0  0  0  0  0
   12.9386   23.2675    3.6334 C   0  0  0  0  0  0  0  0  0  0  0  0
   11.5132   23.6952    4.0033 C   0  0  0  0  0  0  0  0  0  0  0  0
   11.2322   23.4683    5.5008 C   0  0  0  0  0  0  0  0  0  0  0  0
   11.0569   22.3361    5.9519 O   0  0  0  0  0  0  0  0  0  0  0  0
   11.2127   24.5836    6.2505 N   0  0  0  0  0  0  0  0  0  0  0  0
   11.6733   25.3919    5.9282 H   0  0  0  0  0  0  0  0  0  0  0  0
    9.4160   26.5887    6.6763 O   0  0  0  0  0  0  0  0  0  0  0  0
   10.5159   24.6162    7.5421 C   0  0  0  0  0  0  0  0  0  0  0  0
    9.0203   25.7635    8.9108 C   0  0  0  0  0  0  0  0  0  0  0  0
   11.3591   25.0646    8.7691 C   0  0  0  0  0  0  0  0  0  0  0  0
    9.1916   25.4012    7.4323 C   0  0  0  0  0  0  0  0  0  0  0  0
   10.3735   25.9888    9.4930 C   0  0  0  0  0  0  0  0  0  0  0  0
   12.5850   25.8287    8.3562 C   0  0  0  0  0  0  0  0  0  0  0  0
    9.5247   26.3601    5.7399 H   0  0  0  0  0  0  0  0  0  0  0  0
   10.5468   22.8788    3.1429 C   0  0  0  0  0  0  0  0  0  0  0  0
    9.3659   23.6872    2.6635 C   0  0  0  0  0  0  0  0  0  0  0  0
    9.4502   24.4707    1.5122 C   0  0  0  0  0  0  0  0  0  0  0  0
    7.0511   24.3088    2.9760 C   0  0  0  0  0  0  0  0  0  0  0  0
    8.1814   23.6151    3.4050 C   0  0  0  0  0  0  0  0  0  0  0  0
    8.3276   25.1756    1.0839 C   0  0  0  0  0  0  0  0  0  0  0  0
    7.1288   25.0941    1.8153 C   0  0  0  0  0  0  0  0  0  0  0  0
  2  3  1  0  0  0
  2  8  1  0  0  0
  3 10  1  0  0  0
  3  9  1  0  0  0
 10 11  2  0  0  0
 10 12  1  0  0  0
 35 39  1  0  0  0
  4  7  2  0  0  0
 14 15  1  0  0  0
  5  6  1  0  0  0
  5  9  1  0  0  0
  6  8  1  0  0  0
  1 26  1  0  0  0
  1  9  1  0  0  0
 26 29  1  0  0  0
 26 27  1  0  0  0
 29 30  1  0  0  0
 30 43  1  0  0  0
 30 31  1  0  0  0
 43 44  1  0  0  0
 44 45  2  0  0  0
 44 47  1  0  0  0
 45 48  1  0  0  0
 46 47  2  0  0  0
 46 49  1  0  0  0
 31 32  2  0  0  0
 31 33  1  0  0  0
 36 38  1  0  0  0
 36 33  1  0  0  0
 36 39  1  0  0  0
 37 39  1  0  0  0
 37 40  1  0  0  0
 19 18  1  0  0  0
 19 24  1  0  0  0
 38 40  1  0  0  0
 38 41  1  0  0  0
  7  8  1  0  0  0
  7 18  1  0  0  0
 20 21  2  0  0  0
 20 24  1  0  0  0
 21 22  1  0  0  0
 22 25  2  0  0  0
 23 24  2  0  0  0
 23 25  1  0  0  0
 12 15  1  0  0  0
 15 16  1  0  0  0
 15 17  1  0  0  0
 48 49  2  0  0  0
 35 42  1  0  0  0
 12 13  1  0  0  0
 27 28  1  0  0  0
 33 34  1  0  0  0
M  END
> <minimizedAffinity>
-10.02974

$$$$
2BPV_1IN_B_902


 49 52  0  0  0  0  0  0  0  0999 V2000
   12.7285   25.3572    4.5722 C   0  0  0  0  0  0  0  0  0  0  0  0
    9.0403   24.4288    4.2549 C   0  0  0  0  0  0  0  0  0  0  0  0
   10.2801   25.1967    4.7369 C   0  0  0  0  0  0  0  0  0  0  0  0
    7.8924   25.2964    0.9520 O   0  0  0  0  0  0  0  0  0  0  0  0
   11.3892   24.6995    2.6216 C   0  0  0  0  0  0  0  0  0  0  0  0
   10.1360   24.0213    2.1077 C   0  0  0  0  0  0  0  0  0  0  0  0
    7.9279   25.1359    2.1718 C   0  0  0  0  0  0  0  0  0  0  0  0
    8.9856   24.5724    2.8055 N   0  0  0  0  0  0  0  0  0  0  0  0
   11.5162   24.6860    4.0848 N   0  0  0  0  0  0  0  0  0  0  0  0
   10.3361   25.1026    6.2539 C   0  0  0  0  0  0  0  0  0  0  0  0
   10.3961   23.9968    6.7992 O   0  0  0  0  0  0  0  0  0  0  0  0
   10.2864   26.3054    6.8770 N   0  0  0  0  0  0  0  0  0  0  0  0
   10.2666   27.1222    6.3278 H   0  0  0  0  0  0  0  0  0  0  0  0
    9.0727   25.6389    8.8959 C   0  0  0  0  0  0  0  0  0  0  0  0
   10.2611   26.4365    8.3262 C   0  0  0  0  0  0  0  0  0  0  0  0
   10.0623   27.9308    8.6511 C   0  0  0  0  0  0  0  0  0  0  0  0
   11.5890   25.9613    8.9339 C   0  0  0  0  0  0  0  0  0  0  0  0
    6.7624   25.5723    2.9759 C   0  0  0  0  0  0  0  0  0  0  0  0
    5.4122   25.5302    2.4078 C   0  0  0  0  0  0  0  0  0  0  0  0
    4.8599   23.4658    3.6397 C   0  0  0  0  0  0  0  0  0  0  0  0
    3.9597   22.4473    3.9678 C   0  0  0  0  0  0  0  0  0  0  0  0
    2.6686   22.5172    3.4244 C   0  0  0  0  0  0  0  0  0  0  0  0
    3.1533   24.5068    2.3079 C   0  0  0  0  0  0  0  0  0  0  0  0
    4.4589   24.5034    2.7968 C   0  0  0  0  0  0  0  0  0  0  0  0
    2.3135   23.5346    2.6406 N   0  0  0  0  0  0  0  0  0  0  0  0
   13.7708   24.2552    4.8094 C   0  0  0  0  0  0  0  0  0  0  0  0
   15.0374   24.7827    4.4340 O   0  0  0  0  0  0  0  0  0  0  0  0
   15.2413   25.5558    4.9832 H   0  0  0  0  0  0  0  0  0  0  0  0
   13.8489   23.8231    6.2751 C   0  0  0  0  0  0  0  0  0  0  0  0
   14.8428   22.6970    6.5842 C   0  0  0  0  0  0  0  0  0  0  0  0
   14.4802   21.4069    5.8245 C   0  0  0  0  0  0  0  0  0  0  0  0
   13.3512   20.9208    5.8966 O   0  0  0  0  0  0  0  0  0  0  0  0
   15.4736   20.8851    5.0847 N   0  0  0  0  0  0  0  0  0  0  0  0
   16.2176   21.4620    4.7969 H   0  0  0  0  0  0  0  0  0  0  0  0
   17.8342   19.7691    4.3026 O   0  0  0  0  0  0  0  0  0  0  0  0
   15.4672   19.4688    4.6987 C   0  0  0  0  0  0  0  0  0  0  0  0
   16.7059   17.6789    3.8691 C   0  0  0  0  0  0  0  0  0  0  0  0
   14.8139   19.1306    3.3290 C   0  0  0  0  0  0  0  0  0  0  0  0
   16.8773   18.8561    4.8341 C   0  0  0  0  0  0  0  0  0  0  0  0
   15.8109   18.1147    2.7601 C   0  0  0  0  0  0  0  0  0  0  0  0
   14.7298   20.3362    2.4365 C   0  0  0  0  0  0  0  0  0  0  0  0
   17.9433   20.5150    4.9131 H   0  0  0  0  0  0  0  0  0  0  0  0
   14.8174   22.4588    8.0953 C   0  0  0  0  0  0  0  0  0  0  0  0
   15.9861   21.6339    8.5764 C   0  0  0  0  0  0  0  0  0  0  0  0
   15.7919   20.3770    9.1500 C   0  0  0  0  0  0  0  0  0  0  0  0
   18.3829   21.4220    8.8053 C   0  0  0  0  0  0  0  0  0  0  0  0
   17.2703   22.1663    8.4171 C   0  0  0  0  0  0  0  0  0  0  0  0
   16.8989   19.6324    9.5506 C   0  0  0  0  0  0  0  0  0  0  0  0
   18.1936   20.1546    9.3778 C   0  0  0  0  0  0  0  0  0  0  0  0
  2  3  1  0  0  0
  2  8  1  0  0  0
  3 10  1  0  0  0
  3  9  1  0  0  0
 10 11  2  0  0  0
 10 12  1  0  0  0
 35 39  1  0  0  0
  4  7  2  0  0  0
 14 15  1  0  0  0
  5  6  1  0  0  0
  5  9  1  0  0  0
  6  8  1  0  0  0
  1 26  1  0  0  0
  1  9  1  0  0  0
 26 29  1  0  0  0
 26 27  1  0  0  0
 29 30  1  0  0  0
 30 43  1  0  0  0
 30 31  1  0  0  0
 43 44  1  0  0  0
 44 45  2  0  0  0
 44 47  1  0  0  0
 45 48  1  0  0  0
 46 47  2  0  0  0
 46 49  1  0  0  0
 31 32  2  0  0  0
 31 33  1  0  0  0
 36 38  1  0  0  0
 36 33  1  0  0  0
 36 39  1  0  0  0
 37 39  1  0  0  0
 37 40  1  0  0  0
 19 18  1  0  0  0
 19 24  1  0  0  0
 38 40  1  0  0  0
 38 41  1  0  0  0
  7  8  1  0  0  0
  7 18  1  0  0  0
 20 21  2  0  0  0
 20 24  1  0  0  0
 21 22  1  0  0  0
 22 25  2  0  0  0
 23 24  2  0  0  0
 23 25  1  0  0  0
 12 15  1  0  0  0
 15 16  1  0  0  0
 15 17  1  0  0  0
 48 49  2  0  0  0
 35 42  1  0  0  0
 12 13  1  0  0  0
 27 28  1  0  0  0
 33 34  1  0  0  0
M  END
> <minimizedAffinity>
-10.01594

$$$$
2BPV_1IN_B_902


 49 52  0  0  0  0  0  0  0  0999 V2000
   13.7671   22.3685    6.6290 C   0  0  0  0  0  0  0  0  0  0  0  0
   16.1553   19.7859    5.1483 C   0  0  0  0  0  0  0  0  0  0  0  0
   15.2247   20.4392    6.1810 C   0  0  0  0  0  0  0  0  0  0  0  0
   14.4868   18.0444    2.4720 O   0  0  0  0  0  0  0  0  0  0  0  0
   13.9350   21.4334    4.3644 C   0  0  0  0  0  0  0  0  0  0  0  0
   14.7942   20.7168    3.3433 C   0  0  0  0  0  0  0  0  0  0  0  0
   15.1924   18.2771    3.4531 C   0  0  0  0  0  0  0  0  0  0  0  0
   15.3559   19.5248    3.9579 N   0  0  0  0  0  0  0  0  0  0  0  0
   14.6137   21.6845    5.6425 N   0  0  0  0  0  0  0  0  0  0  0  0
   16.0230   20.6806    7.4529 C   0  0  0  0  0  0  0  0  0  0  0  0
   15.5102   20.4541    8.5526 O   0  0  0  0  0  0  0  0  0  0  0  0
   17.2684   21.1676    7.2308 N   0  0  0  0  0  0  0  0  0  0  0  0
   17.5732   21.2810    6.3016 H   0  0  0  0  0  0  0  0  0  0  0  0
   18.3873   20.3139    9.2339 C   0  0  0  0  0  0  0  0  0  0  0  0
   18.1725   21.5294    8.3123 C   0  0  0  0  0  0  0  0  0  0  0  0
   17.4981   22.6567    9.1202 C   0  0  0  0  0  0  0  0  0  0  0  0
   19.5072   22.0413    7.7509 C   0  0  0  0  0  0  0  0  0  0  0  0
   15.8950   17.1457    4.1025 C   0  0  0  0  0  0  0  0  0  0  0  0
   17.3434   16.9854    3.9476 C   0  0  0  0  0  0  0  0  0  0  0  0
   18.7024   15.4266    5.2920 C   0  0  0  0  0  0  0  0  0  0  0  0
   19.4804   15.1514    6.4208 C   0  0  0  0  0  0  0  0  0  0  0  0
   19.7273   16.2029    7.3156 C   0  0  0  0  0  0  0  0  0  0  0  0
   18.5027   17.7070    6.0200 C   0  0  0  0  0  0  0  0  0  0  0  0
   18.2014   16.7135    5.0896 C   0  0  0  0  0  0  0  0  0  0  0  0
   19.2511   17.4247    7.0790 N   0  0  0  0  0  0  0  0  0  0  0  0
   14.5002   23.6629    7.0088 C   0  0  0  0  0  0  0  0  0  0  0  0
   14.6339   24.4371    5.8230 O   0  0  0  0  0  0  0  0  0  0  0  0
   13.7540   24.6452    5.4718 H   0  0  0  0  0  0  0  0  0  0  0  0
   13.7327   24.4949    8.0383 C   0  0  0  0  0  0  0  0  0  0  0  0
   12.2796   24.8250    7.6765 C   0  0  0  0  0  0  0  0  0  0  0  0
   12.1679   25.3473    6.2316 C   0  0  0  0  0  0  0  0  0  0  0  0
   12.7559   26.3691    5.8761 O   0  0  0  0  0  0  0  0  0  0  0  0
   11.4066   24.5996    5.4145 N   0  0  0  0  0  0  0  0  0  0  0  0
   11.2418   23.6546    5.6362 H   0  0  0  0  0  0  0  0  0  0  0  0
    8.7232   25.0781    5.4048 O   0  0  0  0  0  0  0  0  0  0  0  0
   10.8167   25.1691    4.1969 C   0  0  0  0  0  0  0  0  0  0  0  0
    8.8634   25.8351    3.1162 C   0  0  0  0  0  0  0  0  0  0  0  0
   10.6848   24.2093    2.9809 C   0  0  0  0  0  0  0  0  0  0  0  0
    9.4877   25.8869    4.5142 C   0  0  0  0  0  0  0  0  0  0  0  0
    9.2840   24.5611    2.4674 C   0  0  0  0  0  0  0  0  0  0  0  0
   10.7414   22.7671    3.3980 C   0  0  0  0  0  0  0  0  0  0  0  0
    9.1178   25.1103    6.2903 H   0  0  0  0  0  0  0  0  0  0  0  0
   11.7823   25.8763    8.6705 C   0  0  0  0  0  0  0  0  0  0  0  0
   10.3054   26.1563    8.5346 C   0  0  0  0  0  0  0  0  0  0  0  0
    9.3563   25.1873    8.8612 C   0  0  0  0  0  0  0  0  0  0  0  0
    8.5673   27.7428    7.9832 C   0  0  0  0  0  0  0  0  0  0  0  0
    9.9204   27.4231    8.0819 C   0  0  0  0  0  0  0  0  0  0  0  0
    8.0023   25.4962    8.7541 C   0  0  0  0  0  0  0  0  0  0  0  0
    7.6083   26.7735    8.3158 C   0  0  0  0  0  0  0  0  0  0  0  0
  2  3  1  0  0  0
  2  8  1  0  0  0
  3 10  1  0  0  0
  3  9  1  0  0  0
 10 11  2  0  0  0
 10 12  1  0  0  0
 35 39  1  0  0  0
  4  7  2  0  0  0
 14 15  1  0  0  0
  5  6  1  0  0  0
  5  9  1  0  0  0
  6  8  1  0  0  0
  1 26  1  0  0  0
  1  9  1  0  0  0
 26 29  1  0  0  0
 26 27  1  0  0  0
 29 30  1  0  0  0
 30 43  1  0  0  0
 30 31  1  0  0  0
 43 44  1  0  0  0
 44 45  2  0  0  0
 44 47  1  0  0  0
 45 48  1  0  0  0
 46 47  2  0  0  0
 46 49  1  0  0  0
 31 32  2  0  0  0
 31 33  1  0  0  0
 36 38  1  0  0  0
 36 33  1  0  0  0
 36 39  1  0  0  0
 37 39  1  0  0  0
 37 40  1  0  0  0
 19 18  1  0  0  0
 19 24  1  0  0  0
 38 40  1  0  0  0
 38 41  1  0  0  0
  7  8  1  0  0  0
  7 18  1  0  0  0
 20 21  2  0  0  0
 20 24  1  0  0  0
 21 22  1  0  0  0
 22 25  2  0  0  0
 23 24  2  0  0  0
 23 25  1  0  0  0
 12 15  1  0  0  0
 15 16  1  0  0  0
 15 17  1  0  0  0
 48 49  2  0  0  0
 35 42  1  0  0  0
 12 13  1  0  0  0
 27 28  1  0  0  0
 33 34  1  0  0  0
M  END
> <minimizedAffinity>
-9.84931

$$$$
2BPV_1IN_B_902


 49 52  0  0  0  0  0  0  0  0999 V2000
   14.6319   23.3998    4.6188 C   0  0  0  0  0  0  0  0  0  0  0  0
   15.4945   20.7687    7.2454 C   0  0  0  0  0  0  0  0  0  0  0  0
   15.5033   21.4792    5.8837 C   0  0  0  0  0  0  0  0  0  0  0  0
   17.5843   22.2700    9.7670 O   0  0  0  0  0  0  0  0  0  0  0  0
   15.1372   23.6107    7.0128 C   0  0  0  0  0  0  0  0  0  0  0  0
   15.2201   22.9264    8.3617 C   0  0  0  0  0  0  0  0  0  0  0  0
   17.1181   21.4589    8.9673 C   0  0  0  0  0  0  0  0  0  0  0  0
   16.0132   21.7156    8.2245 N   0  0  0  0  0  0  0  0  0  0  0  0
   14.6965   22.7289    5.9240 N   0  0  0  0  0  0  0  0  0  0  0  0
   15.0096   20.4967    4.8330 C   0  0  0  0  0  0  0  0  0  0  0  0
   13.8284   20.1381    4.8337 O   0  0  0  0  0  0  0  0  0  0  0  0
   15.9764   20.0797    3.9793 N   0  0  0  0  0  0  0  0  0  0  0  0
   16.8799   20.4612    4.0652 H   0  0  0  0  0  0  0  0  0  0  0  0
   17.0535   18.7536    2.2259 C   0  0  0  0  0  0  0  0  0  0  0  0
   15.7312   19.0900    2.9409 C   0  0  0  0  0  0  0  0  0  0  0  0
   14.7584   19.7198    1.9234 C   0  0  0  0  0  0  0  0  0  0  0  0
   15.0886   17.8295    3.5383 C   0  0  0  0  0  0  0  0  0  0  0  0
   17.7911   20.1475    8.8177 C   0  0  0  0  0  0  0  0  0  0  0  0
   18.5180   19.5546    9.9436 C   0  0  0  0  0  0  0  0  0  0  0  0
   16.7103   17.9343   10.3803 C   0  0  0  0  0  0  0  0  0  0  0  0
   16.1856   16.8620   11.1085 C   0  0  0  0  0  0  0  0  0  0  0  0
   16.9915   16.2938   12.1059 C   0  0  0  0  0  0  0  0  0  0  0  0
   18.7375   17.7743   11.6589 C   0  0  0  0  0  0  0  0  0  0  0  0
   17.9952   18.4021   10.6596 C   0  0  0  0  0  0  0  0  0  0  0  0
   18.2224   16.7521   12.3305 N   0  0  0  0  0  0  0  0  0  0  0  0
   13.5361   24.4690    4.7327 C   0  0  0  0  0  0  0  0  0  0  0  0
   14.0504   25.6649    4.1592 O   0  0  0  0  0  0  0  0  0  0  0  0
   14.2662   25.5094    3.2264 H   0  0  0  0  0  0  0  0  0  0  0  0
   12.2602   24.0884    3.9790 C   0  0  0  0  0  0  0  0  0  0  0  0
   10.9636   24.1445    4.7958 C   0  0  0  0  0  0  0  0  0  0  0  0
    9.7410   23.7876    3.9293 C   0  0  0  0  0  0  0  0  0  0  0  0
    9.6432   22.6860    3.3881 O   0  0  0  0  0  0  0  0  0  0  0  0
    8.8108   24.7531    3.8343 N   0  0  0  0  0  0  0  0  0  0  0  0
    8.7677   25.4537    4.5246 H   0  0  0  0  0  0  0  0  0  0  0  0
    9.2550   26.5414    1.8257 O   0  0  0  0  0  0  0  0  0  0  0  0
    7.8581   24.7799    2.7178 C   0  0  0  0  0  0  0  0  0  0  0  0
    7.2304   25.8158    0.7280 C   0  0  0  0  0  0  0  0  0  0  0  0
    6.4663   25.4063    3.0143 C   0  0  0  0  0  0  0  0  0  0  0  0
    8.5079   25.3853    1.4556 C   0  0  0  0  0  0  0  0  0  0  0  0
    6.2356   26.2442    1.7516 C   0  0  0  0  0  0  0  0  0  0  0  0
    6.4978   26.2897    4.2291 C   0  0  0  0  0  0  0  0  0  0  0  0
   10.0641   26.2696    2.2865 H   0  0  0  0  0  0  0  0  0  0  0  0
   10.8316   25.5611    5.3583 C   0  0  0  0  0  0  0  0  0  0  0  0
   10.6554   25.5805    6.8572 C   0  0  0  0  0  0  0  0  0  0  0  0
   11.7266   25.8672    7.7039 C   0  0  0  0  0  0  0  0  0  0  0  0
    9.1593   25.3639    8.7431 C   0  0  0  0  0  0  0  0  0  0  0  0
    9.3804   25.3132    7.3679 C   0  0  0  0  0  0  0  0  0  0  0  0
   11.5153   25.9085    9.0801 C   0  0  0  0  0  0  0  0  0  0  0  0
   10.2322   25.6574    9.5991 C   0  0  0  0  0  0  0  0  0  0  0  0
  2  3  1  0  0  0
  2  8  1  0  0  0
  3 10  1  0  0  0
  3  9  1  0  0  0
 10 11  2  0  0  0
 10 12  1  0  0  0
 35 39  1  0  0  0
  4  7  2  0  0  0
 14 15  1  0  0  0
  5  6  1  0  0  0
  5  9  1  0  0  0
  6  8  1  0  0  0
  1 26  1  0  0  0
  1  9  1  0  0  0
 26 29  1  0  0  0
 26 27  1  0  0  0
 29 30  1  0  0  0
 30 43  1  0  0  0
 30 31  1  0  0  0
 43 44  1  0  0  0
 44 45  2  0  0  0
 44 47  1  0  0  0
 45 48  1  0  0  0
 46 47  2  0  0  0
 46 49  1  0  0  0
 31 32  2  0  0  0
 31 33  1  0  0  0
 36 38  1  0  0  0
 36 33  1  0  0  0
 36 39  1  0  0  0
 37 39  1  0  0  0
 37 40  1  0  0  0
 19 18  1  0  0  0
 19 24  1  0  0  0
 38 40  1  0  0  0
 38 41  1  0  0  0
  7  8  1  0  0  0
  7 18  1  0  0  0
 20 21  2  0  0  0
 20 24  1  0  0  0
 21 22  1  0  0  0
 22 25  2  0  0  0
 23 24  2  0  0  0
 23 25  1  0  0  0
 12 15  1  0  0  0
 15 16  1  0  0  0
 15 17  1  0  0  0
 48 49  2  0  0  0
 35 42  1  0  0  0
 12 13  1  0  0  0
 27 28  1  0  0  0
 33 34  1  0  0  0
M  END
> <minimizedAffinity>
-9.84810

$$$$
2BPV_1IN_B_902


 49 52  0  0  0  0  0  0  0  0999 V2000
   10.2283   22.9376    4.5249 C   0  0  0  0  0  0  0  0  0  0  0  0
   10.3318   26.5732    5.6814 C   0  0  0  0  0  0  0  0  0  0  0  0
    9.7397   25.2749    5.1131 C   0  0  0  0  0  0  0  0  0  0  0  0
   10.6805   26.6542    9.2663 O   0  0  0  0  0  0  0  0  0  0  0  0
   11.3121   23.9873    6.4627 C   0  0  0  0  0  0  0  0  0  0  0  0
   11.8355   25.2611    7.0936 C   0  0  0  0  0  0  0  0  0  0  0  0
   10.3219   26.9272    8.1210 C   0  0  0  0  0  0  0  0  0  0  0  0
   10.7963   26.2761    7.0305 N   0  0  0  0  0  0  0  0  0  0  0  0
   10.7439   24.1770    5.1216 N   0  0  0  0  0  0  0  0  0  0  0  0
    9.2037   25.5681    3.7202 C   0  0  0  0  0  0  0  0  0  0  0  0
    9.9850   25.8574    2.8095 O   0  0  0  0  0  0  0  0  0  0  0  0
    7.8528   25.5007    3.6304 N   0  0  0  0  0  0  0  0  0  0  0  0
    7.3387   25.2320    4.4259 H   0  0  0  0  0  0  0  0  0  0  0  0
    5.6372   25.4906    2.5893 C   0  0  0  0  0  0  0  0  0  0  0  0
    7.1327   25.8102    2.4042 C   0  0  0  0  0  0  0  0  0  0  0  0
    7.7037   24.9061    1.2929 C   0  0  0  0  0  0  0  0  0  0  0  0
    7.3405   27.2808    2.0133 C   0  0  0  0  0  0  0  0  0  0  0  0
    9.3360   28.0167    7.9302 C   0  0  0  0  0  0  0  0  0  0  0  0
    7.9353   27.8248    8.3160 C   0  0  0  0  0  0  0  0  0  0  0  0
    5.5862   27.4124    7.6867 C   0  0  0  0  0  0  0  0  0  0  0  0
    4.5763   27.3542    6.7214 C   0  0  0  0  0  0  0  0  0  0  0  0
    4.9072   27.7175    5.4077 C   0  0  0  0  0  0  0  0  0  0  0  0
    7.1156   28.1780    6.0001 C   0  0  0  0  0  0  0  0  0  0  0  0
    6.8708   27.8212    7.3253 C   0  0  0  0  0  0  0  0  0  0  0  0
    6.1390   28.1241    5.1031 N   0  0  0  0  0  0  0  0  0  0  0  0
   11.1886   22.5712    3.3845 C   0  0  0  0  0  0  0  0  0  0  0  0
   10.6380   23.0960    2.1825 O   0  0  0  0  0  0  0  0  0  0  0  0
   10.5624   24.0603    2.2554 H   0  0  0  0  0  0  0  0  0  0  0  0
   12.5835   23.1710    3.5724 C   0  0  0  0  0  0  0  0  0  0  0  0
   13.6475   22.2180    4.1301 C   0  0  0  0  0  0  0  0  0  0  0  0
   14.4860   22.8976    5.2292 C   0  0  0  0  0  0  0  0  0  0  0  0
   14.8899   24.0535    5.0996 O   0  0  0  0  0  0  0  0  0  0  0  0
   14.7157   22.1425    6.3171 N   0  0  0  0  0  0  0  0  0  0  0  0
   14.1173   21.3867    6.5172 H   0  0  0  0  0  0  0  0  0  0  0  0
   15.9442   20.0300    7.5245 O   0  0  0  0  0  0  0  0  0  0  0  0
   15.8442   22.4263    7.2119 C   0  0  0  0  0  0  0  0  0  0  0  0
   17.4155   21.5484    8.6906 C   0  0  0  0  0  0  0  0  0  0  0  0
   15.4905   23.0527    8.5902 C   0  0  0  0  0  0  0  0  0  0  0  0
   16.7560   21.1894    7.3554 C   0  0  0  0  0  0  0  0  0  0  0  0
   16.4099   22.2617    9.5277 C   0  0  0  0  0  0  0  0  0  0  0  0
   14.0511   22.8247    8.9553 C   0  0  0  0  0  0  0  0  0  0  0  0
   15.5261   19.8020    6.6794 H   0  0  0  0  0  0  0  0  0  0  0  0
   14.5370   21.7834    2.9637 C   0  0  0  0  0  0  0  0  0  0  0  0
   15.0110   20.3561    3.0907 C   0  0  0  0  0  0  0  0  0  0  0  0
   16.0852   20.0256    3.9173 C   0  0  0  0  0  0  0  0  0  0  0  0
   14.7031   18.0374    2.4817 C   0  0  0  0  0  0  0  0  0  0  0  0
   14.3300   19.3750    2.3616 C   0  0  0  0  0  0  0  0  0  0  0  0
   16.4707   18.6921    4.0334 C   0  0  0  0  0  0  0  0  0  0  0  0
   15.7796   17.6987    3.3163 C   0  0  0  0  0  0  0  0  0  0  0  0
  2  3  1  0  0  0
  2  8  1  0  0  0
  3 10  1  0  0  0
  3  9  1  0  0  0
 10 11  2  0  0  0
 10 12  1  0  0  0
 35 39  1  0  0  0
  4  7  2  0  0  0
 14 15  1  0  0  0
  5  6  1  0  0  0
  5  9  1  0  0  0
  6  8  1  0  0  0
  1 26  1  0  0  0
  1  9  1  0  0  0
 26 29  1  0  0  0
 26 27  1  0  0  0
 29 30  1  0  0  0
 30 43  1  0  0  0
 30 31  1  0  0  0
 43 44  1  0  0  0
 44 45  2  0  0  0
 44 47  1  0  0  0
 45 48  1  0  0  0
 46 47  2  0  0  0
 46 49  1  0  0  0
 31 32  2  0  0  0
 31 33  1  0  0  0
 36 38  1  0  0  0
 36 33  1  0  0  0
 36 39  1  0  0  0
 37 39  1  0  0  0
 37 40  1  0  0  0
 19 18  1  0  0  0
 19 24  1  0  0  0
 38 40  1  0  0  0
 38 41  1  0  0  0
  7  8  1  0  0  0
  7 18  1  0  0  0
 20 21  2  0  0  0
 20 24  1  0  0  0
 21 22  1  0  0  0
 22 25  2  0  0  0
 23 24  2  0  0  0
 23 25  1  0  0  0
 12 15  1  0  0  0
 15 16  1  0  0  0
 15 17  1  0  0  0
 48 49  2  0  0  0
 35 42  1  0  0  0
 12 13  1  0  0  0
 27 28  1  0  0  0
 33 34  1  0  0  0
M  END
> <minimizedAffinity>
-9.83376

$$$$
2BPV_1IN_B_902


 49 52  0  0  0  0  0  0  0  0999 V2000
   12.5758   25.8236    6.5528 C   0  0  0  0  0  0  0  0  0  0  0  0
    9.7522   24.0736    4.6738 C   0  0  0  0  0  0  0  0  0  0  0  0
   10.4465   25.1472    5.5250 C   0  0  0  0  0  0  0  0  0  0  0  0
   10.3976   24.2742    1.1350 O   0  0  0  0  0  0  0  0  0  0  0  0
   12.5504   24.6631    4.3886 C   0  0  0  0  0  0  0  0  0  0  0  0
   11.8499   23.6697    3.4847 C   0  0  0  0  0  0  0  0  0  0  0  0
    9.8112   24.2693    2.2171 C   0  0  0  0  0  0  0  0  0  0  0  0
   10.4446   24.0311    3.3919 N   0  0  0  0  0  0  0  0  0  0  0  0
   11.8950   24.8491    5.6898 N   0  0  0  0  0  0  0  0  0  0  0  0
    9.7136   25.2458    6.8541 C   0  0  0  0  0  0  0  0  0  0  0  0
    9.2905   24.2227    7.3999 O   0  0  0  0  0  0  0  0  0  0  0  0
    9.5751   26.5157    7.3074 N   0  0  0  0  0  0  0  0  0  0  0  0
    9.9821   27.2490    6.7918 H   0  0  0  0  0  0  0  0  0  0  0  0
    7.3339   26.7142    8.2722 C   0  0  0  0  0  0  0  0  0  0  0  0
    8.8482   26.8375    8.5265 C   0  0  0  0  0  0  0  0  0  0  0  0
    9.1774   28.3001    8.8877 C   0  0  0  0  0  0  0  0  0  0  0  0
    9.2928   25.9223    9.6769 C   0  0  0  0  0  0  0  0  0  0  0  0
    8.3525   24.5287    2.2313 C   0  0  0  0  0  0  0  0  0  0  0  0
    7.8313   25.8515    1.8761 C   0  0  0  0  0  0  0  0  0  0  0  0
    7.4140   26.7882    4.1194 C   0  0  0  0  0  0  0  0  0  0  0  0
    6.5900   27.4693    5.0208 C   0  0  0  0  0  0  0  0  0  0  0  0
    5.3627   27.9537    4.5454 C   0  0  0  0  0  0  0  0  0  0  0  0
    5.7722   27.1341    2.4005 C   0  0  0  0  0  0  0  0  0  0  0  0
    7.0019   26.6110    2.7978 C   0  0  0  0  0  0  0  0  0  0  0  0
    5.0112   27.7853    3.2711 N   0  0  0  0  0  0  0  0  0  0  0  0
   13.0983   25.0407    7.7657 C   0  0  0  0  0  0  0  0  0  0  0  0
   12.4319   25.5475    8.9157 O   0  0  0  0  0  0  0  0  0  0  0  0
   11.4759   25.4130    8.8209 H   0  0  0  0  0  0  0  0  0  0  0  0
   12.8097   23.5413    7.6686 C   0  0  0  0  0  0  0  0  0  0  0  0
   14.0337   22.6404    7.4647 C   0  0  0  0  0  0  0  0  0  0  0  0
   13.7794   21.5919    6.3652 C   0  0  0  0  0  0  0  0  0  0  0  0
   12.6843   21.0405    6.2514 O   0  0  0  0  0  0  0  0  0  0  0  0
   14.8250   21.3531    5.5552 N   0  0  0  0  0  0  0  0  0  0  0  0
   15.5357   22.0290    5.4697 H   0  0  0  0  0  0  0  0  0  0  0  0
   17.3152   20.4470    4.9170 O   0  0  0  0  0  0  0  0  0  0  0  0
   14.9245   20.1007    4.7959 C   0  0  0  0  0  0  0  0  0  0  0  0
   16.3370   18.5856    3.7302 C   0  0  0  0  0  0  0  0  0  0  0  0
   14.5280   20.1718    3.2942 C   0  0  0  0  0  0  0  0  0  0  0  0
   16.3062   19.4435    4.9989 C   0  0  0  0  0  0  0  0  0  0  0  0
   15.6361   19.3327    2.6479 C   0  0  0  0  0  0  0  0  0  0  0  0
   14.5665   21.5798    2.7715 C   0  0  0  0  0  0  0  0  0  0  0  0
   17.2964   20.9908    5.7200 H   0  0  0  0  0  0  0  0  0  0  0  0
   14.3349   21.9590    8.8010 C   0  0  0  0  0  0  0  0  0  0  0  0
   15.7654   21.4896    8.9081 C   0  0  0  0  0  0  0  0  0  0  0  0
   16.8284   22.3614    8.6702 C   0  0  0  0  0  0  0  0  0  0  0  0
   17.2935   19.6883    9.4202 C   0  0  0  0  0  0  0  0  0  0  0  0
   15.9894   20.1554    9.2653 C   0  0  0  0  0  0  0  0  0  0  0  0
   18.1344   21.8983    8.8122 C   0  0  0  0  0  0  0  0  0  0  0  0
   18.3666   20.5627    9.1875 C   0  0  0  0  0  0  0  0  0  0  0  0
  2  3  1  0  0  0
  2  8  1  0  0  0
  3 10  1  0  0  0
  3  9  1  0  0  0
 10 11  2  0  0  0
 10 12  1  0  0  0
 35 39  1  0  0  0
  4  7  2  0  0  0
 14 15  1  0  0  0
  5  6  1  0  0  0
  5  9  1  0  0  0
  6  8  1  0  0  0
  1 26  1  0  0  0
  1  9  1  0  0  0
 26 29  1  0  0  0
 26 27  1  0  0  0
 29 30  1  0  0  0
 30 43  1  0  0  0
 30 31  1  0  0  0
 43 44  1  0  0  0
 44 45  2  0  0  0
 44 47  1  0  0  0
 45 48  1  0  0  0
 46 47  2  0  0  0
 46 49  1  0  0  0
 31 32  2  0  0  0
 31 33  1  0  0  0
 36 38  1  0  0  0
 36 33  1  0  0  0
 36 39  1  0  0  0
 37 39  1  0  0  0
 37 40  1  0  0  0
 19 18  1  0  0  0
 19 24  1  0  0  0
 38 40  1  0  0  0
 38 41  1  0  0  0
  7  8  1  0  0  0
  7 18  1  0  0  0
 20 21  2  0  0  0
 20 24  1  0  0  0
 21 22  1  0  0  0
 22 25  2  0  0  0
 23 24  2  0  0  0
 23 25  1  0  0  0
 12 15  1  0  0  0
 15 16  1  0  0  0
 15 17  1  0  0  0
 48 49  2  0  0  0
 35 42  1  0  0  0
 12 13  1  0  0  0
 27 28  1  0  0  0
 33 34  1  0  0  0
M  END
> <minimizedAffinity>
-9.71277

$$$$
2BPV_1IN_B_902


 49 52  0  0  0  0  0  0  0  0999 V2000
   13.5906   21.1988    4.6797 C   0  0  0  0  0  0  0  0  0  0  0  0
   17.1596   19.8542    4.8206 C   0  0  0  0  0  0  0  0  0  0  0  0
   15.7379   20.1758    5.3046 C   0  0  0  0  0  0  0  0  0  0  0  0
   17.4235   16.9975    2.6413 O   0  0  0  0  0  0  0  0  0  0  0  0
   14.9356   20.0055    3.0069 C   0  0  0  0  0  0  0  0  0  0  0  0
   16.3176   19.5979    2.5397 C   0  0  0  0  0  0  0  0  0  0  0  0
   17.5642   17.7465    3.6077 C   0  0  0  0  0  0  0  0  0  0  0  0
   17.0284   18.9911    3.6535 N   0  0  0  0  0  0  0  0  0  0  0  0
   14.9364   20.8201    4.2291 N   0  0  0  0  0  0  0  0  0  0  0  0
   15.8456   21.0390    6.5522 C   0  0  0  0  0  0  0  0  0  0  0  0
   15.8862   22.2683    6.4473 O   0  0  0  0  0  0  0  0  0  0  0  0
   15.9140   20.3271    7.7037 N   0  0  0  0  0  0  0  0  0  0  0  0
   15.8441   19.3461    7.6581 H   0  0  0  0  0  0  0  0  0  0  0  0
   17.3075   21.8947    8.9661 C   0  0  0  0  0  0  0  0  0  0  0  0
   16.0866   20.9561    9.0047 C   0  0  0  0  0  0  0  0  0  0  0  0
   16.3507   19.8336   10.0287 C   0  0  0  0  0  0  0  0  0  0  0  0
   14.8154   21.7173    9.4085 C   0  0  0  0  0  0  0  0  0  0  0  0
   18.3572   17.2667    4.7637 C   0  0  0  0  0  0  0  0  0  0  0  0
   18.2516   15.8744    5.2085 C   0  0  0  0  0  0  0  0  0  0  0  0
   18.9269   15.3719    7.5271 C   0  0  0  0  0  0  0  0  0  0  0  0
   19.8611   14.8803    8.4440 C   0  0  0  0  0  0  0  0  0  0  0  0
   21.0495   14.3352    7.9364 C   0  0  0  0  0  0  0  0  0  0  0  0
   20.3959   14.7408    5.7344 C   0  0  0  0  0  0  0  0  0  0  0  0
   19.1960   15.3095    6.1590 C   0  0  0  0  0  0  0  0  0  0  0  0
   21.2634   14.2719    6.6226 N   0  0  0  0  0  0  0  0  0  0  0  0
   13.4072   22.6772    4.3086 C   0  0  0  0  0  0  0  0  0  0  0  0
   14.6705   23.1639    3.8718 O   0  0  0  0  0  0  0  0  0  0  0  0
   14.9598   22.6604    3.0948 H   0  0  0  0  0  0  0  0  0  0  0  0
   12.3995   22.8801    3.1754 C   0  0  0  0  0  0  0  0  0  0  0  0
   11.4727   24.0933    3.3189 C   0  0  0  0  0  0  0  0  0  0  0  0
   12.0030   25.0800    4.3764 C   0  0  0  0  0  0  0  0  0  0  0  0
   13.0034   25.7655    4.1635 O   0  0  0  0  0  0  0  0  0  0  0  0
   11.2862   25.1351    5.5120 N   0  0  0  0  0  0  0  0  0  0  0  0
   10.3473   24.8390    5.5068 H   0  0  0  0  0  0  0  0  0  0  0  0
   12.1142   23.2941    7.3436 O   0  0  0  0  0  0  0  0  0  0  0  0
   11.8805   25.6296    6.7598 C   0  0  0  0  0  0  0  0  0  0  0  0
   12.7559   25.0726    8.8454 C   0  0  0  0  0  0  0  0  0  0  0  0
   10.8997   26.2616    7.7874 C   0  0  0  0  0  0  0  0  0  0  0  0
   12.7794   24.5533    7.4045 C   0  0  0  0  0  0  0  0  0  0  0  0
   11.4131   25.6655    9.1029 C   0  0  0  0  0  0  0  0  0  0  0  0
    9.4800   25.8366    7.5400 C   0  0  0  0  0  0  0  0  0  0  0  0
   12.1287   22.9646    6.4314 H   0  0  0  0  0  0  0  0  0  0  0  0
   10.0879   23.5744    3.7111 C   0  0  0  0  0  0  0  0  0  0  0  0
    8.9777   24.2090    2.9094 C   0  0  0  0  0  0  0  0  0  0  0  0
    9.2374   24.8320    1.6884 C   0  0  0  0  0  0  0  0  0  0  0  0
    6.6150   24.6735    2.6994 C   0  0  0  0  0  0  0  0  0  0  0  0
    7.6789   24.1410    3.4256 C   0  0  0  0  0  0  0  0  0  0  0  0
    8.1804   25.3763    0.9626 C   0  0  0  0  0  0  0  0  0  0  0  0
    6.8699   25.2964    1.4677 C   0  0  0  0  0  0  0  0  0  0  0  0
  2  3  1  0  0  0
  2  8  1  0  0  0
  3 10  1  0  0  0
  3  9  1  0  0  0
 10 11  2  0  0  0
 10 12  1  0  0  0
 35 39  1  0  0  0
  4  7  2  0  0  0
 14 15  1  0  0  0
  5  6  1  0  0  0
  5  9  1  0  0  0
  6  8  1  0  0  0
  1 26  1  0  0  0
  1  9  1  0  0  0
 26 29  1  0  0  0
 26 27  1  0  0  0
 29 30  1  0  0  0
 30 43  1  0  0  0
 30 31  1  0  0  0
 43 44  1  0  0  0
 44 45  2  0  0  0
 44 47  1  0  0  0
 45 48  1  0  0  0
 46 47  2  0  0  0
 46 49  1  0  0  0
 31 32  2  0  0  0
 31 33  1  0  0  0
 36 38  1  0  0  0
 36 33  1  0  0  0
 36 39  1  0  0  0
 37 39  1  0  0  0
 37 40  1  0  0  0
 19 18  1  0  0  0
 19 24  1  0  0  0
 38 40  1  0  0  0
 38 41  1  0  0  0
  7  8  1  0  0  0
  7 18  1  0  0  0
 20 21  2  0  0  0
 20 24  1  0  0  0
 21 22  1  0  0  0
 22 25  2  0  0  0
 23 24  2  0  0  0
 23 25  1  0  0  0
 12 15  1  0  0  0
 15 16  1  0  0  0
 15 17  1  0  0  0
 48 49  2  0  0  0
 35 42  1  0  0  0
 12 13  1  0  0  0
 27 28  1  0  0  0
 33 34  1  0  0  0
M  END
> <minimizedAffinity>
-9.46093

$$$$
