1YDS_IQS_E_351


 20 21  0  0  0  0  0  0  0  0999 V2000
    7.2160   10.0542    3.0607 C   0  0  0  0  0  0  0  0  0  0  0  0
    7.5081   10.0599    1.6846 C   0  0  0  0  0  0  0  0  0  0  0  0
    6.4765    9.9751    0.7334 C   0  0  0  0  0  0  0  0  0  0  0  0
    5.1379    9.8841    1.1176 C   0  0  0  0  0  0  0  0  0  0  0  0
    4.8270    9.8765    2.4897 C   0  0  0  0  0  0  0  0  0  0  0  0
    3.4976    9.7845    2.9010 C   0  0  0  0  0  0  0  0  0  0  0  0
    3.1949    9.7751    4.2327 N   0  0  0  0  0  0  0  0  0  0  0  0
    4.1658    9.8524    5.1634 C   0  0  0  0  0  0  0  0  0  0  0  0
    5.5142    9.9452    4.8215 C   0  0  0  0  0  0  0  0  0  0  0  0
    5.8609    9.9597    3.4663 C   0  0  0  0  0  0  0  0  0  0  0  0
    8.5733   10.1595    4.2130 S   0  0  0  0  0  0  0  0  0  0  0  0
    8.6647    8.8691    4.8457 O   0  0  0  0  0  0  0  0  0  0  0  0
    8.3882   11.3611    5.0041 O   0  0  0  0  0  0  0  0  0  0  0  0
    9.8606   10.2679    3.2450 N   0  0  0  0  0  0  0  0  0  0  0  0
    9.9353   11.2529    2.9908 H   0  0  0  0  0  0  0  0  0  0  0  0
   11.2064    9.8545    3.6384 C   0  0  0  0  0  0  0  0  0  0  0  0
   11.5893    8.4890    3.0692 C   0  0  0  0  0  0  0  0  0  0  0  0
   11.5907    7.4802    4.1460 N   0  0  0  0  0  0  0  0  0  0  0  0
   12.9924    7.1944    4.4873 C   0  0  0  0  0  0  0  0  0  0  0  0
   11.1305    6.6284    3.8249 H   0  0  0  0  0  0  0  0  0  0  0  0
  1  2  2  0  0  0
  1 10  1  0  0  0
  1 11  1  0  0  0
  2  3  1  0  0  0
  3  4  2  0  0  0
  4  5  1  0  0  0
  5  6  1  0  0  0
  5 10  2  0  0  0
  6  7  2  0  0  0
  7  8  1  0  0  0
  8  9  2  0  0  0
  9 10  1  0  0  0
 11 12  2  0  0  0
 11 13  2  0  0  0
 11 14  1  0  0  0
 14 16  1  0  0  0
 16 17  1  0  0  0
 17 18  1  0  0  0
 18 19  1  0  0  0
 14 15  1  0  0  0
 18 20  1  0  0  0
M  END
> <minimizedAffinity>
-7.54822

$$$$
1YDS_IQS_E_351


 20 21  0  0  0  0  0  0  0  0999 V2000
    7.1760   10.0439    3.0862 C   0  0  0  0  0  0  0  0  0  0  0  0
    7.4616   10.0623    1.7088 C   0  0  0  0  0  0  0  0  0  0  0  0
    6.4251    9.9921    0.7617 C   0  0  0  0  0  0  0  0  0  0  0  0
    5.0879    9.9034    1.1513 C   0  0  0  0  0  0  0  0  0  0  0  0
    4.7835    9.8832    2.5247 C   0  0  0  0  0  0  0  0  0  0  0  0
    3.4556    9.7932    2.9413 C   0  0  0  0  0  0  0  0  0  0  0  0
    3.1591    9.7716    4.2743 N   0  0  0  0  0  0  0  0  0  0  0  0
    4.1347    9.8348    5.2012 C   0  0  0  0  0  0  0  0  0  0  0  0
    5.4819    9.9248    4.8538 C   0  0  0  0  0  0  0  0  0  0  0  0
    5.8224    9.9516    3.4972 C   0  0  0  0  0  0  0  0  0  0  0  0
    8.5391   10.1310    4.2331 S   0  0  0  0  0  0  0  0  0  0  0  0
    8.5369    8.8853    4.9557 O   0  0  0  0  0  0  0  0  0  0  0  0
    8.4437   11.3959    4.9365 O   0  0  0  0  0  0  0  0  0  0  0  0
    9.8294   10.0761    3.2645 N   0  0  0  0  0  0  0  0  0  0  0  0
    9.5188   10.4463    2.3662 H   0  0  0  0  0  0  0  0  0  0  0  0
   11.0920   10.7514    3.5590 C   0  0  0  0  0  0  0  0  0  0  0  0
   12.1173   10.5908    2.4373 C   0  0  0  0  0  0  0  0  0  0  0  0
   11.4351   10.6083    1.1291 N   0  0  0  0  0  0  0  0  0  0  0  0
   12.0994   11.6199    0.2933 C   0  0  0  0  0  0  0  0  0  0  0  0
   10.4521   10.8508    1.2528 H   0  0  0  0  0  0  0  0  0  0  0  0
  1  2  2  0  0  0
  1 10  1  0  0  0
  1 11  1  0  0  0
  2  3  1  0  0  0
  3  4  2  0  0  0
  4  5  1  0  0  0
  5  6  1  0  0  0
  5 10  2  0  0  0
  6  7  2  0  0  0
  7  8  1  0  0  0
  8  9  2  0  0  0
  9 10  1  0  0  0
 11 12  2  0  0  0
 11 13  2  0  0  0
 11 14  1  0  0  0
 14 16  1  0  0  0
 16 17  1  0  0  0
 17 18  1  0  0  0
 18 19  1  0  0  0
 14 15  1  0  0  0
 18 20  1  0  0  0
M  END
> <minimizedAffinity>
-7.21953

$$$$
1YDS_IQS_E_351


 20 21  0  0  0  0  0  0  0  0999 V2000
    8.8027    9.6206    3.7375 C   0  0  0  0  0  0  0  0  0  0  0  0
    8.4595    9.8610    5.0804 C   0  0  0  0  0  0  0  0  0  0  0  0
    7.1621   10.2790    5.4241 C   0  0  0  0  0  0  0  0  0  0  0  0
    6.1771   10.4675    4.4535 C   0  0  0  0  0  0  0  0  0  0  0  0
    6.5025   10.2323    3.1050 C   0  0  0  0  0  0  0  0  0  0  0  0
    5.5376   10.4149    2.1148 C   0  0  0  0  0  0  0  0  0  0  0  0
    5.8529   10.1887    0.8054 N   0  0  0  0  0  0  0  0  0  0  0  0
    7.0899    9.7904    0.4506 C   0  0  0  0  0  0  0  0  0  0  0  0
    8.1015    9.5901    1.3889 C   0  0  0  0  0  0  0  0  0  0  0  0
    7.8133    9.8103    2.7400 C   0  0  0  0  0  0  0  0  0  0  0  0
   10.4680    9.0974    3.3715 S   0  0  0  0  0  0  0  0  0  0  0  0
   11.0730   10.1720    2.6280 O   0  0  0  0  0  0  0  0  0  0  0  0
   10.3981    7.7594    2.8158 O   0  0  0  0  0  0  0  0  0  0  0  0
   11.1772    9.1110    4.8216 N   0  0  0  0  0  0  0  0  0  0  0  0
   11.0662    8.1681    5.1945 H   0  0  0  0  0  0  0  0  0  0  0  0
   12.5807    9.4607    5.0331 C   0  0  0  0  0  0  0  0  0  0  0  0
   13.4521    8.2382    5.3181 C   0  0  0  0  0  0  0  0  0  0  0  0
   12.8889    7.0534    4.6425 N   0  0  0  0  0  0  0  0  0  0  0  0
   13.6806    6.8154    3.4262 C   0  0  0  0  0  0  0  0  0  0  0  0
   11.9144    7.2249    4.3950 H   0  0  0  0  0  0  0  0  0  0  0  0
  1  2  2  0  0  0
  1 10  1  0  0  0
  1 11  1  0  0  0
  2  3  1  0  0  0
  3  4  2  0  0  0
  4  5  1  0  0  0
  5  6  1  0  0  0
  5 10  2  0  0  0
  6  7  2  0  0  0
  7  8  1  0  0  0
  8  9  2  0  0  0
  9 10  1  0  0  0
 11 12  2  0  0  0
 11 13  2  0  0  0
 11 14  1  0  0  0
 14 16  1  0  0  0
 16 17  1  0  0  0
 17 18  1  0  0  0
 18 19  1  0  0  0
 14 15  1  0  0  0
 18 20  1  0  0  0
M  END
> <minimizedAffinity>
-7.15485

$$$$
1YDS_IQS_E_351


 20 21  0  0  0  0  0  0  0  0999 V2000
    8.8118    9.5721    2.3311 C   0  0  0  0  0  0  0  0  0  0  0  0
    8.7954    9.8367    0.9495 C   0  0  0  0  0  0  0  0  0  0  0  0
    7.6097   10.2418    0.3120 C   0  0  0  0  0  0  0  0  0  0  0  0
    6.4178   10.3953    1.0215 C   0  0  0  0  0  0  0  0  0  0  0  0
    6.4152   10.1346    2.4041 C   0  0  0  0  0  0  0  0  0  0  0  0
    5.2372   10.2784    3.1366 C   0  0  0  0  0  0  0  0  0  0  0  0
    5.2332   10.0237    4.4784 N   0  0  0  0  0  0  0  0  0  0  0  0
    6.3558    9.6316    5.1115 C   0  0  0  0  0  0  0  0  0  0  0  0
    7.5663    9.4671    4.4397 C   0  0  0  0  0  0  0  0  0  0  0  0
    7.6079    9.7213    3.0647 C   0  0  0  0  0  0  0  0  0  0  0  0
   10.3489    9.0572    3.0747 S   0  0  0  0  0  0  0  0  0  0  0  0
   10.3502    7.6175    3.0395 O   0  0  0  0  0  0  0  0  0  0  0  0
   10.4911    9.7678    4.3312 O   0  0  0  0  0  0  0  0  0  0  0  0
   11.4489    9.5254    1.9900 N   0  0  0  0  0  0  0  0  0  0  0  0
   11.0610   10.3548    1.5406 H   0  0  0  0  0  0  0  0  0  0  0  0
   12.8289    9.8657    2.3316 C   0  0  0  0  0  0  0  0  0  0  0  0
   13.6409    8.6478    2.7702 C   0  0  0  0  0  0  0  0  0  0  0  0
   13.3999    7.5252    1.8434 N   0  0  0  0  0  0  0  0  0  0  0  0
   14.5646    7.4262    0.9508 C   0  0  0  0  0  0  0  0  0  0  0  0
   12.5568    7.7005    1.2968 H   0  0  0  0  0  0  0  0  0  0  0  0
  1  2  2  0  0  0
  1 10  1  0  0  0
  1 11  1  0  0  0
  2  3  1  0  0  0
  3  4  2  0  0  0
  4  5  1  0  0  0
  5  6  1  0  0  0
  5 10  2  0  0  0
  6  7  2  0  0  0
  7  8  1  0  0  0
  8  9  2  0  0  0
  9 10  1  0  0  0
 11 12  2  0  0  0
 11 13  2  0  0  0
 11 14  1  0  0  0
 14 16  1  0  0  0
 16 17  1  0  0  0
 17 18  1  0  0  0
 18 19  1  0  0  0
 14 15  1  0  0  0
 18 20  1  0  0  0
M  END
> <minimizedAffinity>
-6.87717

$$$$
1YDS_IQS_E_351


 20 21  0  0  0  0  0  0  0  0999 V2000
    9.2648    9.9922    3.6142 C   0  0  0  0  0  0  0  0  0  0  0  0
    8.8822   10.1473    4.9590 C   0  0  0  0  0  0  0  0  0  0  0  0
    7.5275   10.2896    5.3062 C   0  0  0  0  0  0  0  0  0  0  0  0
    6.5230   10.2810    4.3373 C   0  0  0  0  0  0  0  0  0  0  0  0
    6.8871   10.1274    2.9869 C   0  0  0  0  0  0  0  0  0  0  0  0
    5.9034   10.1172    1.9984 C   0  0  0  0  0  0  0  0  0  0  0  0
    6.2559    9.9701    0.6871 N   0  0  0  0  0  0  0  0  0  0  0  0
    7.5475    9.8348    0.3290 C   0  0  0  0  0  0  0  0  0  0  0  0
    8.5803    9.8375    1.2655 C   0  0  0  0  0  0  0  0  0  0  0  0
    8.2558    9.9840    2.6184 C   0  0  0  0  0  0  0  0  0  0  0  0
   11.0011    9.8219    3.2438 S   0  0  0  0  0  0  0  0  0  0  0  0
   11.6878    9.8596    4.5090 O   0  0  0  0  0  0  0  0  0  0  0  0
   11.3242   10.7723    2.1967 O   0  0  0  0  0  0  0  0  0  0  0  0
   11.1118    8.2963    2.7277 N   0  0  0  0  0  0  0  0  0  0  0  0
   11.0124    8.3378    1.7134 H   0  0  0  0  0  0  0  0  0  0  0  0
   12.2681    7.4382    2.9800 C   0  0  0  0  0  0  0  0  0  0  0  0
   13.5299    7.9337    2.2746 C   0  0  0  0  0  0  0  0  0  0  0  0
   14.3028    6.7845    1.7654 N   0  0  0  0  0  0  0  0  0  0  0  0
   14.7184    7.1010    0.3905 C   0  0  0  0  0  0  0  0  0  0  0  0
   13.7220    5.9461    1.7687 H   0  0  0  0  0  0  0  0  0  0  0  0
  1  2  2  0  0  0
  1 10  1  0  0  0
  1 11  1  0  0  0
  2  3  1  0  0  0
  3  4  2  0  0  0
  4  5  1  0  0  0
  5  6  1  0  0  0
  5 10  2  0  0  0
  6  7  2  0  0  0
  7  8  1  0  0  0
  8  9  2  0  0  0
  9 10  1  0  0  0
 11 12  2  0  0  0
 11 13  2  0  0  0
 11 14  1  0  0  0
 14 16  1  0  0  0
 16 17  1  0  0  0
 17 18  1  0  0  0
 18 19  1  0  0  0
 14 15  1  0  0  0
 18 20  1  0  0  0
M  END
> <minimizedAffinity>
-6.80383

$$$$
1YDS_IQS_E_351


 20 21  0  0  0  0  0  0  0  0999 V2000
    6.5631    9.9729    4.3425 C   0  0  0  0  0  0  0  0  0  0  0  0
    5.6293   10.0100    5.3942 C   0  0  0  0  0  0  0  0  0  0  0  0
    4.2493   10.0171    5.1264 C   0  0  0  0  0  0  0  0  0  0  0  0
    3.7614    9.9869    3.8192 C   0  0  0  0  0  0  0  0  0  0  0  0
    4.6807    9.9502    2.7547 C   0  0  0  0  0  0  0  0  0  0  0  0
    4.2199    9.9214    1.4387 C   0  0  0  0  0  0  0  0  0  0  0  0
    5.1115    9.8876    0.4047 N   0  0  0  0  0  0  0  0  0  0  0  0
    6.4387    9.8829    0.6354 C   0  0  0  0  0  0  0  0  0  0  0  0
    6.9665    9.9117    1.9255 C   0  0  0  0  0  0  0  0  0  0  0  0
    6.0824    9.9445    3.0092 C   0  0  0  0  0  0  0  0  0  0  0  0
    8.2987    9.9710    4.7532 S   0  0  0  0  0  0  0  0  0  0  0  0
    8.3905    9.4954    6.1094 O   0  0  0  0  0  0  0  0  0  0  0  0
    8.8411   11.2645    4.3833 O   0  0  0  0  0  0  0  0  0  0  0  0
    8.8865    8.7848    3.8296 N   0  0  0  0  0  0  0  0  0  0  0  0
    8.2089    8.6555    3.0782 H   0  0  0  0  0  0  0  0  0  0  0  0
   10.1957    8.8367    3.1812 C   0  0  0  0  0  0  0  0  0  0  0  0
   11.1836    7.8338    3.7757 C   0  0  0  0  0  0  0  0  0  0  0  0
   11.9133    7.1475    2.6923 N   0  0  0  0  0  0  0  0  0  0  0  0
   13.3389    7.4796    2.8350 C   0  0  0  0  0  0  0  0  0  0  0  0
   11.5710    7.4667    1.7861 H   0  0  0  0  0  0  0  0  0  0  0  0
  1  2  2  0  0  0
  1 10  1  0  0  0
  1 11  1  0  0  0
  2  3  1  0  0  0
  3  4  2  0  0  0
  4  5  1  0  0  0
  5  6  1  0  0  0
  5 10  2  0  0  0
  6  7  2  0  0  0
  7  8  1  0  0  0
  8  9  2  0  0  0
  9 10  1  0  0  0
 11 12  2  0  0  0
 11 13  2  0  0  0
 11 14  1  0  0  0
 14 16  1  0  0  0
 16 17  1  0  0  0
 17 18  1  0  0  0
 18 19  1  0  0  0
 14 15  1  0  0  0
 18 20  1  0  0  0
M  END
> <minimizedAffinity>
-6.78600

$$$$
1YDS_IQS_E_351


 20 21  0  0  0  0  0  0  0  0999 V2000
    9.0673    9.6952    3.6913 C   0  0  0  0  0  0  0  0  0  0  0  0
    8.7644    9.9335    5.0443 C   0  0  0  0  0  0  0  0  0  0  0  0
    7.4674   10.3129    5.4315 C   0  0  0  0  0  0  0  0  0  0  0  0
    6.4433   10.4643    4.4955 C   0  0  0  0  0  0  0  0  0  0  0  0
    6.7281   10.2307    3.1377 C   0  0  0  0  0  0  0  0  0  0  0  0
    5.7235   10.3766    2.1814 C   0  0  0  0  0  0  0  0  0  0  0  0
    5.9993   10.1519    0.8628 N   0  0  0  0  0  0  0  0  0  0  0  0
    7.2350    9.7902    0.4664 C   0  0  0  0  0  0  0  0  0  0  0  0
    8.2848    9.6276    1.3693 C   0  0  0  0  0  0  0  0  0  0  0  0
    8.0379    9.8475    2.7286 C   0  0  0  0  0  0  0  0  0  0  0  0
   10.7343    9.2219    3.2692 S   0  0  0  0  0  0  0  0  0  0  0  0
   10.6609    7.8598    2.8075 O   0  0  0  0  0  0  0  0  0  0  0  0
   11.5906    9.5814    4.3833 O   0  0  0  0  0  0  0  0  0  0  0  0
   11.0422   10.1149    1.9601 N   0  0  0  0  0  0  0  0  0  0  0  0
   10.2151   10.6946    1.8180 H   0  0  0  0  0  0  0  0  0  0  0  0
   12.1862   11.0178    1.8468 C   0  0  0  0  0  0  0  0  0  0  0  0
   13.4439   10.3093    1.3455 C   0  0  0  0  0  0  0  0  0  0  0  0
   14.1557    9.6902    2.4801 N   0  0  0  0  0  0  0  0  0  0  0  0
   14.3026    8.2568    2.1856 C   0  0  0  0  0  0  0  0  0  0  0  0
   13.6182    9.8156    3.3379 H   0  0  0  0  0  0  0  0  0  0  0  0
  1  2  2  0  0  0
  1 10  1  0  0  0
  1 11  1  0  0  0
  2  3  1  0  0  0
  3  4  2  0  0  0
  4  5  1  0  0  0
  5  6  1  0  0  0
  5 10  2  0  0  0
  6  7  2  0  0  0
  7  8  1  0  0  0
  8  9  2  0  0  0
  9 10  1  0  0  0
 11 12  2  0  0  0
 11 13  2  0  0  0
 11 14  1  0  0  0
 14 16  1  0  0  0
 16 17  1  0  0  0
 17 18  1  0  0  0
 18 19  1  0  0  0
 14 15  1  0  0  0
 18 20  1  0  0  0
M  END
> <minimizedAffinity>
-6.65223

$$$$
1YDS_IQS_E_351


 20 21  0  0  0  0  0  0  0  0999 V2000
    7.4798    9.8176    3.2978 C   0  0  0  0  0  0  0  0  0  0  0  0
    7.5063   10.0527    4.6846 C   0  0  0  0  0  0  0  0  0  0  0  0
    6.3150   10.2828    5.3947 C   0  0  0  0  0  0  0  0  0  0  0  0
    5.0749   10.2852    4.7544 C   0  0  0  0  0  0  0  0  0  0  0  0
    5.0292   10.0524    3.3676 C   0  0  0  0  0  0  0  0  0  0  0  0
    3.8033   10.0512    2.7028 C   0  0  0  0  0  0  0  0  0  0  0  0
    3.7580    9.8272    1.3563 N   0  0  0  0  0  0  0  0  0  0  0  0
    4.8859    9.6069    0.6533 C   0  0  0  0  0  0  0  0  0  0  0  0
    6.1436    9.5957    1.2548 C   0  0  0  0  0  0  0  0  0  0  0  0
    6.2276    9.8194    2.6332 C   0  0  0  0  0  0  0  0  0  0  0  0
    9.0284    9.5379    2.4584 S   0  0  0  0  0  0  0  0  0  0  0  0
    8.9997   10.3608    1.2769 O   0  0  0  0  0  0  0  0  0  0  0  0
    9.2233    8.1041    2.3582 O   0  0  0  0  0  0  0  0  0  0  0  0
   10.1038   10.2244    3.4475 N   0  0  0  0  0  0  0  0  0  0  0  0
    9.6423   10.2949    4.3544 H   0  0  0  0  0  0  0  0  0  0  0  0
   11.4279    9.6665    3.7163 C   0  0  0  0  0  0  0  0  0  0  0  0
   12.4747   10.1291    2.7038 C   0  0  0  0  0  0  0  0  0  0  0  0
   12.4135   11.5959    2.5550 N   0  0  0  0  0  0  0  0  0  0  0  0
   12.4787   11.9012    1.1178 C   0  0  0  0  0  0  0  0  0  0  0  0
   13.2013   12.0275    3.0381 H   0  0  0  0  0  0  0  0  0  0  0  0
  1  2  2  0  0  0
  1 10  1  0  0  0
  1 11  1  0  0  0
  2  3  1  0  0  0
  3  4  2  0  0  0
  4  5  1  0  0  0
  5  6  1  0  0  0
  5 10  2  0  0  0
  6  7  2  0  0  0
  7  8  1  0  0  0
  8  9  2  0  0  0
  9 10  1  0  0  0
 11 12  2  0  0  0
 11 13  2  0  0  0
 11 14  1  0  0  0
 14 16  1  0  0  0
 16 17  1  0  0  0
 17 18  1  0  0  0
 18 19  1  0  0  0
 14 15  1  0  0  0
 18 20  1  0  0  0
M  END
> <minimizedAffinity>
-6.63308

$$$$
1YDS_IQS_E_351


 20 21  0  0  0  0  0  0  0  0999 V2000
    8.2814    9.8888    4.0089 C   0  0  0  0  0  0  0  0  0  0  0  0
    7.4420   10.0833    5.1209 C   0  0  0  0  0  0  0  0  0  0  0  0
    6.0601   10.2764    4.9498 C   0  0  0  0  0  0  0  0  0  0  0  0
    5.4773   10.2810    3.6817 C   0  0  0  0  0  0  0  0  0  0  0  0
    6.3016   10.0886    2.5578 C   0  0  0  0  0  0  0  0  0  0  0  0
    5.7453   10.0905    1.2790 C   0  0  0  0  0  0  0  0  0  0  0  0
    6.5447    9.9056    0.1872 N   0  0  0  0  0  0  0  0  0  0  0  0
    7.8721    9.7213    0.3250 C   0  0  0  0  0  0  0  0  0  0  0  0
    8.4928    9.7093    1.5734 C   0  0  0  0  0  0  0  0  0  0  0  0
    7.7041    9.8934    2.7141 C   0  0  0  0  0  0  0  0  0  0  0  0
   10.0258    9.6548    4.2975 S   0  0  0  0  0  0  0  0  0  0  0  0
   10.4120    8.5071    3.5180 O   0  0  0  0  0  0  0  0  0  0  0  0
   10.2436    9.6840    5.7313 O   0  0  0  0  0  0  0  0  0  0  0  0
   10.6874   10.9302    3.5615 N   0  0  0  0  0  0  0  0  0  0  0  0
   10.6387   11.6955    4.2340 H   0  0  0  0  0  0  0  0  0  0  0  0
   12.0524   10.9451    3.0388 C   0  0  0  0  0  0  0  0  0  0  0  0
   12.1022   11.2386    1.5400 C   0  0  0  0  0  0  0  0  0  0  0  0
   13.2897   12.0575    1.2293 N   0  0  0  0  0  0  0  0  0  0  0  0
   12.8394   13.4462    1.0515 C   0  0  0  0  0  0  0  0  0  0  0  0
   13.7287   11.7219    0.3719 H   0  0  0  0  0  0  0  0  0  0  0  0
  1  2  2  0  0  0
  1 10  1  0  0  0
  1 11  1  0  0  0
  2  3  1  0  0  0
  3  4  2  0  0  0
  4  5  1  0  0  0
  5  6  1  0  0  0
  5 10  2  0  0  0
  6  7  2  0  0  0
  7  8  1  0  0  0
  8  9  2  0  0  0
  9 10  1  0  0  0
 11 12  2  0  0  0
 11 13  2  0  0  0
 11 14  1  0  0  0
 14 16  1  0  0  0
 16 17  1  0  0  0
 17 18  1  0  0  0
 18 19  1  0  0  0
 14 15  1  0  0  0
 18 20  1  0  0  0
M  END
> <minimizedAffinity>
-6.59190

$$$$
1YDS_IQS_E_351


 20 21  0  0  0  0  0  0  0  0999 V2000
    6.1705   10.0126    3.1490 C   0  0  0  0  0  0  0  0  0  0  0  0
    4.7722    9.9062    3.0378 C   0  0  0  0  0  0  0  0  0  0  0  0
    4.1625    9.7678    1.7787 C   0  0  0  0  0  0  0  0  0  0  0  0
    4.9167    9.7306    0.6050 C   0  0  0  0  0  0  0  0  0  0  0  0
    6.3167    9.8363    0.6969 C   0  0  0  0  0  0  0  0  0  0  0  0
    7.0940    9.8039   -0.4605 C   0  0  0  0  0  0  0  0  0  0  0  0
    8.4529    9.9083   -0.3725 N   0  0  0  0  0  0  0  0  0  0  0  0
    9.0603   10.0444    0.8222 C   0  0  0  0  0  0  0  0  0  0  0  0
    8.3437   10.0853    2.0174 C   0  0  0  0  0  0  0  0  0  0  0  0
    6.9497    9.9790    1.9652 C   0  0  0  0  0  0  0  0  0  0  0  0
    6.8776   10.1909    4.7766 S   0  0  0  0  0  0  0  0  0  0  0  0
    5.7759   10.4474    5.6679 O   0  0  0  0  0  0  0  0  0  0  0  0
    7.9833   11.1245    4.6775 O   0  0  0  0  0  0  0  0  0  0  0  0
    7.3807    8.6953    5.1171 N   0  0  0  0  0  0  0  0  0  0  0  0
    6.8121    8.0730    4.5427 H   0  0  0  0  0  0  0  0  0  0  0  0
    8.7612    8.2466    4.9445 C   0  0  0  0  0  0  0  0  0  0  0  0
    8.8837    7.1034    3.9379 C   0  0  0  0  0  0  0  0  0  0  0  0
   10.1608    7.2144    3.2071 N   0  0  0  0  0  0  0  0  0  0  0  0
   10.9481    8.2805    3.8448 C   0  0  0  0  0  0  0  0  0  0  0  0
    9.9832    7.4500    2.2307 H   0  0  0  0  0  0  0  0  0  0  0  0
  1  2  2  0  0  0
  1 10  1  0  0  0
  1 11  1  0  0  0
  2  3  1  0  0  0
  3  4  2  0  0  0
  4  5  1  0  0  0
  5  6  1  0  0  0
  5 10  2  0  0  0
  6  7  2  0  0  0
  7  8  1  0  0  0
  8  9  2  0  0  0
  9 10  1  0  0  0
 11 12  2  0  0  0
 11 13  2  0  0  0
 11 14  1  0  0  0
 14 16  1  0  0  0
 16 17  1  0  0  0
 17 18  1  0  0  0
 18 19  1  0  0  0
 14 15  1  0  0  0
 18 20  1  0  0  0
M  END
> <minimizedAffinity>
-6.32946

$$$$
