1C1U_BAI_H_410
  RCSB PDB12061702083D
Coordinates from PDB:1C1U:H:410 Model:1 without hydrogens
 22 25  0  0  0  0            999 V2000
   11.7700  -11.8410   23.0670   C 0  0  0  0  0  0  0  0  0  0  0  0
   12.2330  -10.6420   22.4680   C 0  0  0  0  0  0  0  0  0  0  0  0
   13.2390  -10.6310   21.4990   C 0  0  0  0  0  0  0  0  0  0  0  0
   13.7490  -11.8610   21.1600   C 0  0  0  0  0  0  0  0  0  0  0  0
   13.3230  -13.0070   21.7150   C 0  0  0  0  0  0  0  0  0  0  0  0
   12.3410  -13.0620   22.6640   C 0  0  0  0  0  0  0  0  0  0  0  0
   10.8040  -11.8370   24.0380   C 0  0  0  0  0  0  0  0  0  0  0  0
   14.8610  -13.4670   20.3290   C 0  0  0  0  0  0  0  0  0  0  0  0
   15.9340  -14.2920   19.4750   C 0  0  0  0  0  0  0  0  0  0  0  0
   10.1410  -12.9340   24.2920   N 0  0  0  0  0  0  0  0  0  0  0  0
   10.5790  -10.7240   24.6980   N 0  0  0  0  0  0  0  0  0  0  0  0
   14.6910  -12.1700   20.3150   N 0  0  0  0  0  0  0  0  0  0  0  0
   14.0170  -13.9780   21.1910   N 0  0  0  0  0  0  0  0  0  0  0  0
   17.0350  -11.5170   14.3500   C 0  0  0  0  0  0  0  0  0  0  0  0
   16.5210  -12.6870   13.7390   C 0  0  0  0  0  0  0  0  0  0  0  0
   16.0800  -13.7840   14.5190   C 0  0  0  0  0  0  0  0  0  0  0  0
   16.1790  -13.6390   15.8930   C 0  0  0  0  0  0  0  0  0  0  0  0
   16.6740  -12.5160   16.4540   C 0  0  0  0  0  0  0  0  0  0  0  0
   17.1190  -11.4190   15.7430   C 0  0  0  0  0  0  0  0  0  0  0  0
   16.1400  -13.8320   17.9970   C 0  0  0  0  0  0  0  0  0  0  0  0
   15.8530  -14.4540   16.8710   N 0  0  0  0  0  0  0  0  0  0  0  0
   16.6380  -12.6680   17.7390   N 0  0  0  0  0  0  0  0  0  0  0  0
  1  2  1  0  0  0  0
  1  6  2  0  0  0  0
  1  7  1  0  0  0  0
  2  3  2  0  0  0  0
  3  4  1  0  0  0  0
  4  5  2  0  0  0  0
  4 12  1  0  0  0  0
  5  6  1  0  0  0  0
  5 13  1  0  0  0  0
  7 10  1  0  0  0  0
  7 11  2  0  0  0  0
  8  9  1  0  0  0  0
  8 12  1  0  0  0  0
  8 13  2  0  0  0  0
  9 20  1  0  0  0  0
 14 15  1  0  0  0  0
 14 19  2  0  0  0  0
 15 16  2  0  0  0  0
 16 17  1  0  0  0  0
 17 18  2  0  0  0  0
 17 21  1  0  0  0  0
 18 19  1  0  0  0  0
 18 22  1  0  0  0  0
 20 21  1  0  0  0  0
 20 22  2  0  0  0  0
A    1
C1
A    2
C2
A    3
C3
A    4
C4
A    5
C5
A    6
C6
A    7
C7
A    8
C8
A    9
C9
A   10
N1
A   11
N2
A   12
N3
A   13
N4
A   14
C1'
A   15
C2'
A   16
C3'
A   17
C4'
A   18
C5'
A   19
C6'
A   20
C8'
A   21
N3'
A   22
N4'
M  END
>  <InstanceId>
1C1U_BAI_H_410

>  <ChemCompId>
BAI

>  <PdbId>
1C1U

>  <ChainId>
H

>  <ResidueNumber>
410

>  <InsertionCode>


>  <Model>
1

>  <AltIds>


>  <MissingHeavyAtoms>
0

>  <ObservedFormula>
C16 N6

>  <Name>
(5-AMIDINO-2-BENZIMIDAZOLYL)(2-BENZIMIDAZOLYL)METHANE

>  <SystematicName>
2-(1H-benzimidazol-2-ylmethyl)-1H-benzimidazole-5-carboximidamide

>  <Synonyms>
HEMI-BABIM

>  <Type>
NON-POLYMER

>  <Formula>
C16 H14 N6

>  <MolecularWeight>
290.323

>  <ModifiedDate>
2011-06-04

>  <Parent>


>  <OneLetterCode>


>  <SubcomponentList>


>  <AmbiguousFlag>
N

>  <InChI>
InChI=1S/C16H14N6/c17-16(18)9-5-6-12-13(7-9)22-15(21-12)8-14-19-10-3-1-2-4-11(10)20-14/h1-7H,8H2,(H3,17,18)(H,19,20)(H,21,22)

>  <InChIKey>
KKJYVDXDZURHMA-UHFFFAOYSA-N

>  <SMILES>
c1ccc2c(c1)[nH]c(n2)Cc3[nH]c4ccc(cc4n3)C(=N)N

$$$$
