3U5J_08H_A_1
  RCSB PDB12061711003D
Coordinates from PDB:3U5J:A:1 Model:1 without hydrogens
 22 25  0  0  0  0            999 V2000
   29.1210   15.7270   -1.1820   C 0  0  0  0  0  0  0  0  0  0  0  0
   27.8430   15.1590   -1.0530   C 0  0  0  0  0  0  0  0  0  0  0  0
   27.2860   15.0830    0.2170   C 0  0  0  0  0  0  0  0  0  0  0  0
   25.7010   14.3890    0.4320  Cl 0  0  0  0  0  0  0  0  0  0  0  0
   27.9150   15.5780    1.3660   C 0  0  0  0  0  0  0  0  0  0  0  0
   29.1920   16.1500    1.2240   C 0  0  0  0  0  0  0  0  0  0  0  0
   29.7630   16.2300   -0.0400   C 0  0  0  0  0  0  0  0  0  0  0  0
   31.0230   16.8100   -0.0460   N 0  0  0  0  0  0  0  0  0  0  0  0
   31.5330   17.8720    0.6330   C 0  0  0  0  0  0  0  0  0  0  0  0
   30.8060   18.8220    1.6030   C 0  0  0  0  0  0  0  0  0  0  0  0
   32.8150   18.0370    0.2990   N 0  0  0  0  0  0  0  0  0  0  0  0
   33.1510   17.1120   -0.5260   N 0  0  0  0  0  0  0  0  0  0  0  0
   32.0580   16.3490   -0.7580   C 0  0  0  0  0  0  0  0  0  0  0  0
   31.9560   15.2150   -1.7300   C 0  0  0  0  0  0  0  0  0  0  0  0
   30.9790   15.6910   -2.7460   N 0  0  0  0  0  0  0  0  0  0  0  0
   29.6510   15.7770   -2.5090   C 0  0  0  0  0  0  0  0  0  0  0  0
   28.8590   16.2640   -3.6140   C 0  0  0  0  0  0  0  0  0  0  0  0
   27.6920   16.9910   -3.3980   C 0  0  0  0  0  0  0  0  0  0  0  0
   26.9580   17.5330   -4.4550   C 0  0  0  0  0  0  0  0  0  0  0  0
   27.3430   17.3280   -5.7770   C 0  0  0  0  0  0  0  0  0  0  0  0
   28.4910   16.5930   -5.9960   C 0  0  0  0  0  0  0  0  0  0  0  0
   29.2270   16.0660   -4.9390   C 0  0  0  0  0  0  0  0  0  0  0  0
 21 20  2  0  0  0  0
 21 22  1  0  0  0  0
 20 19  1  0  0  0  0
 22 17  2  0  0  0  0
 19 18  2  0  0  0  0
 17 18  1  0  0  0  0
 17 16  1  0  0  0  0
 15 16  2  0  0  0  0
 15 14  1  0  0  0  0
 16  1  1  0  0  0  0
 14 13  1  0  0  0  0
  1  2  2  0  0  0  0
  1  7  1  0  0  0  0
  2  3  1  0  0  0  0
 13 12  2  0  0  0  0
 13  8  1  0  0  0  0
 12 11  1  0  0  0  0
  8  7  1  0  0  0  0
  8  9  1  0  0  0  0
  7  6  2  0  0  0  0
  3  4  1  0  0  0  0
  3  5  2  0  0  0  0
 11  9  2  0  0  0  0
  9 10  1  0  0  0  0
  6  5  1  0  0  0  0
A    1
CAS
A    2
CAJ
A    3
CAP
A    4
CLAB
A    5
CAH
A    6
CAI
A    7
CAU
A    8
NAV
A    9
CAR
A   10
CAA
A   11
NAM
A   12
NAN
A   13
CAT
A   14
CAK
A   15
NAL
A   16
CAO
A   17
CAQ
A   18
CAF
A   19
CAD
A   20
CAC
A   21
CAE
A   22
CAG
M  END
>  <InstanceId>
3U5J_08H_A_1

>  <ChemCompId>
08H

>  <PdbId>
3U5J

>  <ChainId>
A

>  <ResidueNumber>
1

>  <InsertionCode>


>  <Model>
1

>  <AltIds>


>  <MissingHeavyAtoms>
0

>  <ObservedFormula>
C17 N4 Cl

>  <Name>
8-chloro-1-methyl-6-phenyl-4H-[1,2,4]triazolo[4,3-a][1,4]benzodiazepine

>  <SystematicName>
8-chloranyl-1-methyl-6-phenyl-4H-[1,2,4]triazolo[4,3-a][1,4]benzodiazepine

>  <Synonyms>
ALPRAZOLAM

>  <Type>
NON-POLYMER

>  <Formula>
C17 H13 Cl N4

>  <MolecularWeight>
308.765

>  <ModifiedDate>
2011-11-18

>  <Parent>


>  <OneLetterCode>


>  <SubcomponentList>


>  <AmbiguousFlag>
N

>  <InChI>
InChI=1S/C17H13ClN4/c1-11-20-21-16-10-19-17(12-5-3-2-4-6-12)14-9-13(18)7-8-15(14)22(11)16/h2-9H,10H2,1H3

>  <InChIKey>
VREFGVBLTWBCJP-UHFFFAOYSA-N

>  <SMILES>
Cc1nnc2n1-c3ccc(cc3C(=NC2)c4ccccc4)Cl

$$$$
