3U5J_08H_A_1


 22 25  0  0  0  0  0  0  0  0999 V2000
   29.0870   15.8013   -1.3104 C   0  0  0  0  0  0  0  0  0  0  0  0
   27.8292   15.1791   -1.2537 C   0  0  0  0  0  0  0  0  0  0  0  0
   27.2305   15.0259   -0.0099 C   0  0  0  0  0  0  0  0  0  0  0  0
   25.6682   14.2621    0.1158 Cl  0  0  0  0  0  0  0  0  0  0  0  0
   27.7974   15.4940    1.1819 C   0  0  0  0  0  0  0  0  0  0  0  0
   29.0546   16.1208    1.1123 C   0  0  0  0  0  0  0  0  0  0  0  0
   29.6668   16.2783   -0.1248 C   0  0  0  0  0  0  0  0  0  0  0  0
   30.9018   16.9064   -0.0589 N   0  0  0  0  0  0  0  0  0  0  0  0
   31.3438   17.9566    0.6832 C   0  0  0  0  0  0  0  0  0  0  0  0
   30.5447   18.8342    1.6646 C   0  0  0  0  0  0  0  0  0  0  0  0
   32.6292   18.1857    0.4049 N   0  0  0  0  0  0  0  0  0  0  0  0
   33.0317   17.3115   -0.4454 N   0  0  0  0  0  0  0  0  0  0  0  0
   31.9794   16.5176   -0.7505 C   0  0  0  0  0  0  0  0  0  0  0  0
   31.9582   15.4243   -1.7728 C   0  0  0  0  0  0  0  0  0  0  0  0
   30.9998   15.9061   -2.8037 N   0  0  0  0  0  0  0  0  0  0  0  0
   29.6618   15.9300   -2.6133 C   0  0  0  0  0  0  0  0  0  0  0  0
   28.8908   16.4339   -3.7256 C   0  0  0  0  0  0  0  0  0  0  0  0
   27.6774   17.0852   -3.5242 C   0  0  0  0  0  0  0  0  0  0  0  0
   26.9593   17.6444   -4.5832 C   0  0  0  0  0  0  0  0  0  0  0  0
   27.4099   17.5326   -5.8956 C   0  0  0  0  0  0  0  0  0  0  0  0
   28.6050   16.8725   -6.1012 C   0  0  0  0  0  0  0  0  0  0  0  0
   29.3242   16.3284   -5.0414 C   0  0  0  0  0  0  0  0  0  0  0  0
 21 20  2  0  0  0
 21 22  1  0  0  0
 20 19  1  0  0  0
 22 17  2  0  0  0
 19 18  2  0  0  0
 17 18  1  0  0  0
 17 16  1  0  0  0
 15 16  2  0  0  0
 15 14  1  0  0  0
 16  1  1  0  0  0
 14 13  1  0  0  0
  1  2  2  0  0  0
  1  7  1  0  0  0
  2  3  1  0  0  0
 13 12  2  0  0  0
 13  8  1  0  0  0
 12 11  1  0  0  0
  8  7  1  0  0  0
  8  9  1  0  0  0
  7  6  2  0  0  0
  3  4  1  0  0  0
  3  5  2  0  0  0
 11  9  2  0  0  0
  9 10  1  0  0  0
  6  5  1  0  0  0
M  END
> <minimizedAffinity>
-8.95220

$$$$
3U5J_08H_A_1


 22 25  0  0  0  0  0  0  0  0999 V2000
   29.3495   16.2427   -2.8679 C   0  0  0  0  0  0  0  0  0  0  0  0
   28.1672   16.7935   -3.3889 C   0  0  0  0  0  0  0  0  0  0  0  0
   28.0621   16.9328   -4.7667 C   0  0  0  0  0  0  0  0  0  0  0  0
   26.6145   17.6087   -5.4651 Cl  0  0  0  0  0  0  0  0  0  0  0  0
   29.0552   16.5170   -5.6621 C   0  0  0  0  0  0  0  0  0  0  0  0
   30.2324   15.9614   -5.1294 C   0  0  0  0  0  0  0  0  0  0  0  0
   30.3529   15.8187   -3.7527 C   0  0  0  0  0  0  0  0  0  0  0  0
   31.5596   15.2628   -3.3542 N   0  0  0  0  0  0  0  0  0  0  0  0
   32.3051   14.2516   -3.8744 C   0  0  0  0  0  0  0  0  0  0  0  0
   31.9777   13.3462   -5.0765 C   0  0  0  0  0  0  0  0  0  0  0  0
   33.4081   14.0912   -3.1396 N   0  0  0  0  0  0  0  0  0  0  0  0
   33.4163   14.9728   -2.2059 N   0  0  0  0  0  0  0  0  0  0  0  0
   32.2810   15.7007   -2.3157 C   0  0  0  0  0  0  0  0  0  0  0  0
   31.8198   16.7743   -1.3798 C   0  0  0  0  0  0  0  0  0  0  0  0
   30.5787   16.2221   -0.7732 N   0  0  0  0  0  0  0  0  0  0  0  0
   29.4093   16.1255   -1.4442 C   0  0  0  0  0  0  0  0  0  0  0  0
   28.3133   15.5606   -0.6924 C   0  0  0  0  0  0  0  0  0  0  0  0
   28.2282   15.7216    0.6874 C   0  0  0  0  0  0  0  0  0  0  0  0
   27.1358   15.2471    1.4163 C   0  0  0  0  0  0  0  0  0  0  0  0
   26.1040   14.5505    0.7933 C   0  0  0  0  0  0  0  0  0  0  0  0
   26.1930   14.3741   -0.5731 C   0  0  0  0  0  0  0  0  0  0  0  0
   27.2771   14.8605   -1.2977 C   0  0  0  0  0  0  0  0  0  0  0  0
 21 20  2  0  0  0
 21 22  1  0  0  0
 20 19  1  0  0  0
 22 17  2  0  0  0
 19 18  2  0  0  0
 17 18  1  0  0  0
 17 16  1  0  0  0
 15 16  2  0  0  0
 15 14  1  0  0  0
 16  1  1  0  0  0
 14 13  1  0  0  0
  1  2  2  0  0  0
  1  7  1  0  0  0
  2  3  1  0  0  0
 13 12  2  0  0  0
 13  8  1  0  0  0
 12 11  1  0  0  0
  8  7  1  0  0  0
  8  9  1  0  0  0
  7  6  2  0  0  0
  3  4  1  0  0  0
  3  5  2  0  0  0
 11  9  2  0  0  0
  9 10  1  0  0  0
  6  5  1  0  0  0
M  END
> <minimizedAffinity>
-8.21853

$$$$
3U5J_08H_A_1


 22 25  0  0  0  0  0  0  0  0999 V2000
   29.3126   16.2690   -0.9213 C   0  0  0  0  0  0  0  0  0  0  0  0
   28.1241   16.1416   -1.6586 C   0  0  0  0  0  0  0  0  0  0  0  0
   28.2223   15.9650   -3.0327 C   0  0  0  0  0  0  0  0  0  0  0  0
   26.7773   15.7992   -3.9943 Cl  0  0  0  0  0  0  0  0  0  0  0  0
   29.4426   15.8683   -3.7126 C   0  0  0  0  0  0  0  0  0  0  0  0
   30.6264   15.9914   -2.9633 C   0  0  0  0  0  0  0  0  0  0  0  0
   30.5435   16.1715   -1.5882 C   0  0  0  0  0  0  0  0  0  0  0  0
   31.7782   16.2825   -0.9658 N   0  0  0  0  0  0  0  0  0  0  0  0
   32.9511   15.6223   -1.1592 C   0  0  0  0  0  0  0  0  0  0  0  0
   33.2434   14.4611   -2.1278 C   0  0  0  0  0  0  0  0  0  0  0  0
   33.8712   16.0981   -0.3171 N   0  0  0  0  0  0  0  0  0  0  0  0
   33.3512   17.0496    0.3710 N   0  0  0  0  0  0  0  0  0  0  0  0
   32.0584   17.1743   -0.0083 C   0  0  0  0  0  0  0  0  0  0  0  0
   31.0397   18.0901    0.5955 C   0  0  0  0  0  0  0  0  0  0  0  0
   30.0431   17.1731    1.2114 N   0  0  0  0  0  0  0  0  0  0  0  0
   29.1565   16.4537    0.4879 C   0  0  0  0  0  0  0  0  0  0  0  0
   28.2688   15.6156    1.2593 C   0  0  0  0  0  0  0  0  0  0  0  0
   28.5408   15.3120    2.5901 C   0  0  0  0  0  0  0  0  0  0  0  0
   27.6538   14.5668    3.3696 C   0  0  0  0  0  0  0  0  0  0  0  0
   26.4761   14.0571    2.8298 C   0  0  0  0  0  0  0  0  0  0  0  0
   26.2109   14.3420    1.5052 C   0  0  0  0  0  0  0  0  0  0  0  0
   27.0913   15.0965    0.7356 C   0  0  0  0  0  0  0  0  0  0  0  0
 21 20  2  0  0  0
 21 22  1  0  0  0
 20 19  1  0  0  0
 22 17  2  0  0  0
 19 18  2  0  0  0
 17 18  1  0  0  0
 17 16  1  0  0  0
 15 16  2  0  0  0
 15 14  1  0  0  0
 16  1  1  0  0  0
 14 13  1  0  0  0
  1  2  2  0  0  0
  1  7  1  0  0  0
  2  3  1  0  0  0
 13 12  2  0  0  0
 13  8  1  0  0  0
 12 11  1  0  0  0
  8  7  1  0  0  0
  8  9  1  0  0  0
  7  6  2  0  0  0
  3  4  1  0  0  0
  3  5  2  0  0  0
 11  9  2  0  0  0
  9 10  1  0  0  0
  6  5  1  0  0  0
M  END
> <minimizedAffinity>
-7.90432

$$$$
3U5J_08H_A_1


 22 25  0  0  0  0  0  0  0  0999 V2000
   29.6328   14.5105   -3.2424 C   0  0  0  0  0  0  0  0  0  0  0  0
   30.0956   13.2083   -2.9927 C   0  0  0  0  0  0  0  0  0  0  0  0
   30.0481   12.2867   -4.0306 C   0  0  0  0  0  0  0  0  0  0  0  0
   30.6127   10.6571   -3.7741 Cl  0  0  0  0  0  0  0  0  0  0  0  0
   29.6005   12.5996   -5.3200 C   0  0  0  0  0  0  0  0  0  0  0  0
   29.1448   13.9083   -5.5602 C   0  0  0  0  0  0  0  0  0  0  0  0
   29.1836   14.8401   -4.5304 C   0  0  0  0  0  0  0  0  0  0  0  0
   28.7042   16.0904   -4.8926 N   0  0  0  0  0  0  0  0  0  0  0  0
   28.8545   16.8223   -6.0287 C   0  0  0  0  0  0  0  0  0  0  0  0
   29.6931   16.4860   -7.2759 C   0  0  0  0  0  0  0  0  0  0  0  0
   28.1832   17.9700   -5.9082 N   0  0  0  0  0  0  0  0  0  0  0  0
   27.5863   17.9839   -4.7712 N   0  0  0  0  0  0  0  0  0  0  0  0
   27.9009   16.8370   -4.1259 C   0  0  0  0  0  0  0  0  0  0  0  0
   27.5103   16.4678   -2.7287 C   0  0  0  0  0  0  0  0  0  0  0  0
   28.8005   16.4176   -1.9895 N   0  0  0  0  0  0  0  0  0  0  0  0
   29.6987   15.4188   -2.1401 C   0  0  0  0  0  0  0  0  0  0  0  0
   30.8956   15.5420   -1.3417 C   0  0  0  0  0  0  0  0  0  0  0  0
   30.8605   15.3722    0.0392 C   0  0  0  0  0  0  0  0  0  0  0  0
   32.0215   15.4127    0.8140 C   0  0  0  0  0  0  0  0  0  0  0  0
   33.2619   15.6708    0.2372 C   0  0  0  0  0  0  0  0  0  0  0  0
   33.2986   15.8566   -1.1303 C   0  0  0  0  0  0  0  0  0  0  0  0
   32.1408   15.8019   -1.9006 C   0  0  0  0  0  0  0  0  0  0  0  0
 21 20  2  0  0  0
 21 22  1  0  0  0
 20 19  1  0  0  0
 22 17  2  0  0  0
 19 18  2  0  0  0
 17 18  1  0  0  0
 17 16  1  0  0  0
 15 16  2  0  0  0
 15 14  1  0  0  0
 16  1  1  0  0  0
 14 13  1  0  0  0
  1  2  2  0  0  0
  1  7  1  0  0  0
  2  3  1  0  0  0
 13 12  2  0  0  0
 13  8  1  0  0  0
 12 11  1  0  0  0
  8  7  1  0  0  0
  8  9  1  0  0  0
  7  6  2  0  0  0
  3  4  1  0  0  0
  3  5  2  0  0  0
 11  9  2  0  0  0
  9 10  1  0  0  0
  6  5  1  0  0  0
M  END
> <minimizedAffinity>
-7.36546

$$$$
3U5J_08H_A_1


 22 25  0  0  0  0  0  0  0  0999 V2000
   30.9254   15.5381   -2.1928 C   0  0  0  0  0  0  0  0  0  0  0  0
   32.1790   14.9062   -2.2349 C   0  0  0  0  0  0  0  0  0  0  0  0
   32.5671   14.3014   -3.4234 C   0  0  0  0  0  0  0  0  0  0  0  0
   34.1146   13.5052   -3.5298 Cl  0  0  0  0  0  0  0  0  0  0  0  0
   31.7918   14.3237   -4.5893 C   0  0  0  0  0  0  0  0  0  0  0  0
   30.5409   14.9644   -4.5371 C   0  0  0  0  0  0  0  0  0  0  0  0
   30.1381   15.5712   -3.3540 C   0  0  0  0  0  0  0  0  0  0  0  0
   28.8864   16.1639   -3.4304 N   0  0  0  0  0  0  0  0  0  0  0  0
   28.2869   16.8877   -4.4132 C   0  0  0  0  0  0  0  0  0  0  0  0
   28.8769   17.3338   -5.7640 C   0  0  0  0  0  0  0  0  0  0  0  0
   27.0581   17.2332   -4.0220 N   0  0  0  0  0  0  0  0  0  0  0  0
   26.8369   16.7334   -2.8599 N   0  0  0  0  0  0  0  0  0  0  0  0
   27.9549   16.0764   -2.4737 C   0  0  0  0  0  0  0  0  0  0  0  0
   28.1882   15.4235   -1.1468 C   0  0  0  0  0  0  0  0  0  0  0  0
   29.2860   16.2199   -0.5354 N   0  0  0  0  0  0  0  0  0  0  0  0
   30.5716   16.1407   -0.9454 C   0  0  0  0  0  0  0  0  0  0  0  0
   31.4975   16.9916   -0.2353 C   0  0  0  0  0  0  0  0  0  0  0  0
   31.0449   18.0090    0.5997 C   0  0  0  0  0  0  0  0  0  0  0  0
   31.9262   18.7892    1.3510 C   0  0  0  0  0  0  0  0  0  0  0  0
   33.3034   18.6081    1.2595 C   0  0  0  0  0  0  0  0  0  0  0  0
   33.7570   17.6108    0.4194 C   0  0  0  0  0  0  0  0  0  0  0  0
   32.8745   16.8266   -0.3174 C   0  0  0  0  0  0  0  0  0  0  0  0
 21 20  2  0  0  0
 21 22  1  0  0  0
 20 19  1  0  0  0
 22 17  2  0  0  0
 19 18  2  0  0  0
 17 18  1  0  0  0
 17 16  1  0  0  0
 15 16  2  0  0  0
 15 14  1  0  0  0
 16  1  1  0  0  0
 14 13  1  0  0  0
  1  2  2  0  0  0
  1  7  1  0  0  0
  2  3  1  0  0  0
 13 12  2  0  0  0
 13  8  1  0  0  0
 12 11  1  0  0  0
  8  7  1  0  0  0
  8  9  1  0  0  0
  7  6  2  0  0  0
  3  4  1  0  0  0
  3  5  2  0  0  0
 11  9  2  0  0  0
  9 10  1  0  0  0
  6  5  1  0  0  0
M  END
> <minimizedAffinity>
-7.35615

$$$$
3U5J_08H_A_1


 22 25  0  0  0  0  0  0  0  0999 V2000
   31.7000   13.5592   -4.3327 C   0  0  0  0  0  0  0  0  0  0  0  0
   30.6342   12.7920   -3.8348 C   0  0  0  0  0  0  0  0  0  0  0  0
   30.6110   11.4350   -4.1298 C   0  0  0  0  0  0  0  0  0  0  0  0
   29.3114   10.4369   -3.5340 Cl  0  0  0  0  0  0  0  0  0  0  0  0
   31.6135   10.7878   -4.8627 C   0  0  0  0  0  0  0  0  0  0  0  0
   32.6790   11.5650   -5.3513 C   0  0  0  0  0  0  0  0  0  0  0  0
   32.7137   12.9243   -5.0666 C   0  0  0  0  0  0  0  0  0  0  0  0
   33.8110   13.5784   -5.6072 N   0  0  0  0  0  0  0  0  0  0  0  0
   35.1162   13.2140   -5.7196 C   0  0  0  0  0  0  0  0  0  0  0  0
   35.7978   11.9356   -5.1968 C   0  0  0  0  0  0  0  0  0  0  0  0
   35.7956   14.1843   -6.3353 N   0  0  0  0  0  0  0  0  0  0  0  0
   34.9806   15.1251   -6.6511 N   0  0  0  0  0  0  0  0  0  0  0  0
   33.7526   14.7746   -6.2042 C   0  0  0  0  0  0  0  0  0  0  0  0
   32.5134   15.6127   -6.2618 C   0  0  0  0  0  0  0  0  0  0  0  0
   32.1892   15.8846   -4.8355 N   0  0  0  0  0  0  0  0  0  0  0  0
   31.6742   14.9507   -4.0050 C   0  0  0  0  0  0  0  0  0  0  0  0
   31.4273   15.3976   -2.6541 C   0  0  0  0  0  0  0  0  0  0  0  0
   32.4337   15.3748   -1.6930 C   0  0  0  0  0  0  0  0  0  0  0  0
   32.2308   15.8746   -0.4051 C   0  0  0  0  0  0  0  0  0  0  0  0
   30.9923   16.3774   -0.0160 C   0  0  0  0  0  0  0  0  0  0  0  0
   29.9865   16.3862   -0.9617 C   0  0  0  0  0  0  0  0  0  0  0  0
   30.1970   15.8994   -2.2484 C   0  0  0  0  0  0  0  0  0  0  0  0
 21 20  2  0  0  0
 21 22  1  0  0  0
 20 19  1  0  0  0
 22 17  2  0  0  0
 19 18  2  0  0  0
 17 18  1  0  0  0
 17 16  1  0  0  0
 15 16  2  0  0  0
 15 14  1  0  0  0
 16  1  1  0  0  0
 14 13  1  0  0  0
  1  2  2  0  0  0
  1  7  1  0  0  0
  2  3  1  0  0  0
 13 12  2  0  0  0
 13  8  1  0  0  0
 12 11  1  0  0  0
  8  7  1  0  0  0
  8  9  1  0  0  0
  7  6  2  0  0  0
  3  4  1  0  0  0
  3  5  2  0  0  0
 11  9  2  0  0  0
  9 10  1  0  0  0
  6  5  1  0  0  0
M  END
> <minimizedAffinity>
-7.30847

$$$$
3U5J_08H_A_1


 22 25  0  0  0  0  0  0  0  0999 V2000
   28.0907   15.5260   -1.0679 C   0  0  0  0  0  0  0  0  0  0  0  0
   28.1581   15.6192    0.3318 C   0  0  0  0  0  0  0  0  0  0  0  0
   27.1420   15.0339    1.0761 C   0  0  0  0  0  0  0  0  0  0  0  0
   27.1790   15.1188    2.8173 Cl  0  0  0  0  0  0  0  0  0  0  0  0
   26.0785   14.3241    0.5053 C   0  0  0  0  0  0  0  0  0  0  0  0
   26.0244   14.2321   -0.8971 C   0  0  0  0  0  0  0  0  0  0  0  0
   27.0323   14.8155   -1.6547 C   0  0  0  0  0  0  0  0  0  0  0  0
   26.8624   14.6586   -3.0224 N   0  0  0  0  0  0  0  0  0  0  0  0
   26.4368   13.6024   -3.7656 C   0  0  0  0  0  0  0  0  0  0  0  0
   26.0635   12.1874   -3.2857 C   0  0  0  0  0  0  0  0  0  0  0  0
   26.4271   13.9441   -5.0561 N   0  0  0  0  0  0  0  0  0  0  0  0
   26.7879   15.1720   -5.1627 N   0  0  0  0  0  0  0  0  0  0  0  0
   27.0684   15.6290   -3.9204 C   0  0  0  0  0  0  0  0  0  0  0  0
   27.6209   16.9763   -3.5731 C   0  0  0  0  0  0  0  0  0  0  0  0
   28.9684   16.6856   -3.0133 N   0  0  0  0  0  0  0  0  0  0  0  0
   29.1579   16.1490   -1.7873 C   0  0  0  0  0  0  0  0  0  0  0  0
   30.5368   15.9349   -1.4157 C   0  0  0  0  0  0  0  0  0  0  0  0
   31.4373   15.3462   -2.2987 C   0  0  0  0  0  0  0  0  0  0  0  0
   32.7896   15.2028   -1.9818 C   0  0  0  0  0  0  0  0  0  0  0  0
   33.2845   15.6050   -0.7444 C   0  0  0  0  0  0  0  0  0  0  0  0
   32.3909   16.1741    0.1409 C   0  0  0  0  0  0  0  0  0  0  0  0
   31.0465   16.3275   -0.1843 C   0  0  0  0  0  0  0  0  0  0  0  0
 21 20  2  0  0  0
 21 22  1  0  0  0
 20 19  1  0  0  0
 22 17  2  0  0  0
 19 18  2  0  0  0
 17 18  1  0  0  0
 17 16  1  0  0  0
 15 16  2  0  0  0
 15 14  1  0  0  0
 16  1  1  0  0  0
 14 13  1  0  0  0
  1  2  2  0  0  0
  1  7  1  0  0  0
  2  3  1  0  0  0
 13 12  2  0  0  0
 13  8  1  0  0  0
 12 11  1  0  0  0
  8  7  1  0  0  0
  8  9  1  0  0  0
  7  6  2  0  0  0
  3  4  1  0  0  0
  3  5  2  0  0  0
 11  9  2  0  0  0
  9 10  1  0  0  0
  6  5  1  0  0  0
M  END
> <minimizedAffinity>
-7.20164

$$$$
3U5J_08H_A_1


 22 25  0  0  0  0  0  0  0  0999 V2000
   30.8622   15.0084   -2.7002 C   0  0  0  0  0  0  0  0  0  0  0  0
   30.9118   16.0814   -1.7954 C   0  0  0  0  0  0  0  0  0  0  0  0
   32.1099   16.3277   -1.1376 C   0  0  0  0  0  0  0  0  0  0  0  0
   32.2257   17.6490   -0.0059 Cl  0  0  0  0  0  0  0  0  0  0  0  0
   33.2779   15.5878   -1.3594 C   0  0  0  0  0  0  0  0  0  0  0  0
   33.2181   14.5193   -2.2720 C   0  0  0  0  0  0  0  0  0  0  0  0
   32.0253   14.2592   -2.9351 C   0  0  0  0  0  0  0  0  0  0  0  0
   32.0951   13.1798   -3.8035 N   0  0  0  0  0  0  0  0  0  0  0  0
   33.0662   12.7722   -4.6635 C   0  0  0  0  0  0  0  0  0  0  0  0
   34.4065   13.4600   -4.9838 C   0  0  0  0  0  0  0  0  0  0  0  0
   32.6730   11.6541   -5.2780 N   0  0  0  0  0  0  0  0  0  0  0  0
   31.5212   11.3140   -4.8232 N   0  0  0  0  0  0  0  0  0  0  0  0
   31.1433   12.2461   -3.9181 C   0  0  0  0  0  0  0  0  0  0  0  0
   29.8281   12.3112   -3.2060 C   0  0  0  0  0  0  0  0  0  0  0  0
   29.1981   13.5592   -3.7151 N   0  0  0  0  0  0  0  0  0  0  0  0
   29.6050   14.7944   -3.3468 C   0  0  0  0  0  0  0  0  0  0  0  0
   28.8760   15.8869   -3.9471 C   0  0  0  0  0  0  0  0  0  0  0  0
   29.1703   16.3278   -5.2340 C   0  0  0  0  0  0  0  0  0  0  0  0
   28.4240   17.3311   -5.8554 C   0  0  0  0  0  0  0  0  0  0  0  0
   27.3778   17.9649   -5.1907 C   0  0  0  0  0  0  0  0  0  0  0  0
   27.0936   17.5419   -3.9076 C   0  0  0  0  0  0  0  0  0  0  0  0
   27.8314   16.5322   -3.2970 C   0  0  0  0  0  0  0  0  0  0  0  0
 21 20  2  0  0  0
 21 22  1  0  0  0
 20 19  1  0  0  0
 22 17  2  0  0  0
 19 18  2  0  0  0
 17 18  1  0  0  0
 17 16  1  0  0  0
 15 16  2  0  0  0
 15 14  1  0  0  0
 16  1  1  0  0  0
 14 13  1  0  0  0
  1  2  2  0  0  0
  1  7  1  0  0  0
  2  3  1  0  0  0
 13 12  2  0  0  0
 13  8  1  0  0  0
 12 11  1  0  0  0
  8  7  1  0  0  0
  8  9  1  0  0  0
  7  6  2  0  0  0
  3  4  1  0  0  0
  3  5  2  0  0  0
 11  9  2  0  0  0
  9 10  1  0  0  0
  6  5  1  0  0  0
M  END
> <minimizedAffinity>
-7.14965

$$$$
3U5J_08H_A_1


 22 25  0  0  0  0  0  0  0  0999 V2000
   30.3278   15.1047   -3.7597 C   0  0  0  0  0  0  0  0  0  0  0  0
   29.4976   16.2218   -3.5710 C   0  0  0  0  0  0  0  0  0  0  0  0
   28.2241   16.1913   -4.1244 C   0  0  0  0  0  0  0  0  0  0  0  0
   27.1526   17.5511   -3.9176 Cl  0  0  0  0  0  0  0  0  0  0  0  0
   27.7134   15.0913   -4.8246 C   0  0  0  0  0  0  0  0  0  0  0  0
   28.5516   13.9760   -5.0023 C   0  0  0  0  0  0  0  0  0  0  0  0
   29.8293   13.9936   -4.4569 C   0  0  0  0  0  0  0  0  0  0  0  0
   30.5562   12.8385   -4.7046 N   0  0  0  0  0  0  0  0  0  0  0  0
   30.1975   11.5269   -4.7057 C   0  0  0  0  0  0  0  0  0  0  0  0
   28.8303   10.9119   -4.3529 C   0  0  0  0  0  0  0  0  0  0  0  0
   31.2565   10.7783   -5.0222 N   0  0  0  0  0  0  0  0  0  0  0  0
   32.2549   11.5508   -5.2579 N   0  0  0  0  0  0  0  0  0  0  0  0
   31.8462   12.8253   -5.0601 C   0  0  0  0  0  0  0  0  0  0  0  0
   32.7013   14.0526   -5.1231 C   0  0  0  0  0  0  0  0  0  0  0  0
   32.6975   14.5728   -3.7293 N   0  0  0  0  0  0  0  0  0  0  0  0
   31.6297   15.1885   -3.1745 C   0  0  0  0  0  0  0  0  0  0  0  0
   31.8107   15.6235   -1.8095 C   0  0  0  0  0  0  0  0  0  0  0  0
   31.2207   14.9384   -0.7513 C   0  0  0  0  0  0  0  0  0  0  0  0
   31.4491   15.3018    0.5774 C   0  0  0  0  0  0  0  0  0  0  0  0
   32.2455   16.3982    0.8960 C   0  0  0  0  0  0  0  0  0  0  0  0
   32.8191   17.0906   -0.1517 C   0  0  0  0  0  0  0  0  0  0  0  0
   32.5996   16.7169   -1.4741 C   0  0  0  0  0  0  0  0  0  0  0  0
 21 20  2  0  0  0
 21 22  1  0  0  0
 20 19  1  0  0  0
 22 17  2  0  0  0
 19 18  2  0  0  0
 17 18  1  0  0  0
 17 16  1  0  0  0
 15 16  2  0  0  0
 15 14  1  0  0  0
 16  1  1  0  0  0
 14 13  1  0  0  0
  1  2  2  0  0  0
  1  7  1  0  0  0
  2  3  1  0  0  0
 13 12  2  0  0  0
 13  8  1  0  0  0
 12 11  1  0  0  0
  8  7  1  0  0  0
  8  9  1  0  0  0
  7  6  2  0  0  0
  3  4  1  0  0  0
  3  5  2  0  0  0
 11  9  2  0  0  0
  9 10  1  0  0  0
  6  5  1  0  0  0
M  END
> <minimizedAffinity>
-7.03407

$$$$
3U5J_08H_A_1


 22 25  0  0  0  0  0  0  0  0999 V2000
   29.7394   14.3418   -4.2428 C   0  0  0  0  0  0  0  0  0  0  0  0
   29.4390   13.1367   -3.5869 C   0  0  0  0  0  0  0  0  0  0  0  0
   29.9059   11.9539   -4.1453 C   0  0  0  0  0  0  0  0  0  0  0  0
   29.5629   10.4305   -3.3696 Cl  0  0  0  0  0  0  0  0  0  0  0  0
   30.6915   11.9051   -5.3034 C   0  0  0  0  0  0  0  0  0  0  0  0
   30.9910   13.1184   -5.9486 C   0  0  0  0  0  0  0  0  0  0  0  0
   30.5281   14.3093   -5.4031 C   0  0  0  0  0  0  0  0  0  0  0  0
   30.8866   15.4327   -6.1336 N   0  0  0  0  0  0  0  0  0  0  0  0
   32.0411   15.7677   -6.7691 C   0  0  0  0  0  0  0  0  0  0  0  0
   33.3685   14.9879   -6.8093 C   0  0  0  0  0  0  0  0  0  0  0  0
   31.8952   16.9590   -7.3537 N   0  0  0  0  0  0  0  0  0  0  0  0
   30.6972   17.3758   -7.1526 N   0  0  0  0  0  0  0  0  0  0  0  0
   30.0608   16.4526   -6.3955 C   0  0  0  0  0  0  0  0  0  0  0  0
   28.6775   16.5643   -5.8342 C   0  0  0  0  0  0  0  0  0  0  0  0
   28.8831   16.6116   -4.3615 N   0  0  0  0  0  0  0  0  0  0  0  0
   29.2316   15.5296   -3.6301 C   0  0  0  0  0  0  0  0  0  0  0  0
   29.3897   15.7686   -2.2146 C   0  0  0  0  0  0  0  0  0  0  0  0
   28.3075   15.6785   -1.3441 C   0  0  0  0  0  0  0  0  0  0  0  0
   28.4598   15.8316    0.0354 C   0  0  0  0  0  0  0  0  0  0  0  0
   29.7007   16.1265    0.5932 C   0  0  0  0  0  0  0  0  0  0  0  0
   30.7737   16.2333   -0.2689 C   0  0  0  0  0  0  0  0  0  0  0  0
   30.6199   16.0667   -1.6419 C   0  0  0  0  0  0  0  0  0  0  0  0
 21 20  2  0  0  0
 21 22  1  0  0  0
 20 19  1  0  0  0
 22 17  2  0  0  0
 19 18  2  0  0  0
 17 18  1  0  0  0
 17 16  1  0  0  0
 15 16  2  0  0  0
 15 14  1  0  0  0
 16  1  1  0  0  0
 14 13  1  0  0  0
  1  2  2  0  0  0
  1  7  1  0  0  0
  2  3  1  0  0  0
 13 12  2  0  0  0
 13  8  1  0  0  0
 12 11  1  0  0  0
  8  7  1  0  0  0
  8  9  1  0  0  0
  7  6  2  0  0  0
  3  4  1  0  0  0
  3  5  2  0  0  0
 11  9  2  0  0  0
  9 10  1  0  0  0
  6  5  1  0  0  0
M  END
> <minimizedAffinity>
-7.01097

$$$$
