1O3D_780_A_246


 30 33  0  0  0  0  0  0  0  0999 V2000
   44.1058   -3.0297   26.2273 C   0  0  0  0  0  0  0  0  0  0  0  0
   44.3100   -1.6161   26.1939 C   0  0  0  0  0  0  0  0  0  0  0  0
   44.1660   -0.7945   27.3157 C   0  0  0  0  0  0  0  0  0  0  0  0
   43.8176   -1.4131   28.4895 C   0  0  0  0  0  0  0  0  0  0  0  0
   43.6212   -2.7364   28.5868 C   0  0  0  0  0  0  0  0  0  0  0  0
   43.7509   -3.5986   27.4849 C   0  0  0  0  0  0  0  0  0  0  0  0
   43.6337   -0.9368   29.6622 N   0  0  0  0  0  0  0  0  0  0  0  0
   43.2977   -3.1013   29.8167 N   0  0  0  0  0  0  0  0  0  0  0  0
   43.3255   -1.9204   30.4165 C   0  0  0  0  0  0  0  0  0  0  0  0
   43.7143    0.0067   29.9318 H   0  0  0  0  0  0  0  0  0  0  0  0
   44.2751   -3.7936   25.0562 C   0  0  0  0  0  0  0  0  0  0  0  0
   44.1660   -5.1015   25.0813 N   0  0  0  0  0  0  0  0  0  0  0  0
   44.5410   -3.1636   23.9267 N   0  0  0  0  0  0  0  0  0  0  0  0
   43.9675   -5.5627   25.9281 H   0  0  0  0  0  0  0  0  0  0  0  0
   44.2827   -5.6212   24.2533 H   0  0  0  0  0  0  0  0  0  0  0  0
   44.6210   -2.1824   23.9173 H   0  0  0  0  0  0  0  0  0  0  0  0
   44.6593   -3.6751   23.0938 H   0  0  0  0  0  0  0  0  0  0  0  0
   43.0515   -1.7912   31.7981 C   0  0  0  0  0  0  0  0  0  0  0  0
   42.1938   -2.6875   32.4576 C   0  0  0  0  0  0  0  0  0  0  0  0
   41.9159   -2.5697   33.8161 C   0  0  0  0  0  0  0  0  0  0  0  0
   42.4876   -1.5603   34.5464 C   0  0  0  0  0  0  0  0  0  0  0  0
   43.3540   -0.6250   33.9685 C   0  0  0  0  0  0  0  0  0  0  0  0
   43.6168   -0.7646   32.5905 C   0  0  0  0  0  0  0  0  0  0  0  0
   44.4471    0.1473   31.9835 O   0  0  0  0  0  0  0  0  0  0  0  0
   43.9160    0.3751   34.7830 C   0  0  0  0  0  0  0  0  0  0  0  0
   43.3575    1.6588   34.8798 C   0  0  0  0  0  0  0  0  0  0  0  0
   43.9321    2.6561   35.6605 C   0  0  0  0  0  0  0  0  0  0  0  0
   45.0847    2.3927   36.3717 C   0  0  0  0  0  0  0  0  0  0  0  0
   45.6659    1.1418   36.3054 C   0  0  0  0  0  0  0  0  0  0  0  0
   45.0877    0.1485   35.5220 C   0  0  0  0  0  0  0  0  0  0  0  0
  1  2  2  0  0  0
  1  6  1  0  0  0
  1 11  1  0  0  0
  2  3  1  0  0  0
  3  4  2  0  0  0
  4  5  1  0  0  0
  4  7  1  0  0  0
  5  6  2  0  0  0
  5  8  1  0  0  0
 11 12  1  0  0  0
 11 13  2  0  0  0
  7  9  1  0  0  0
  8  9  2  0  0  0
  9 18  1  0  0  0
 18 19  2  0  0  0
 18 23  1  0  0  0
 19 20  1  0  0  0
 20 21  2  0  0  0
 21 22  1  0  0  0
 22 23  2  0  0  0
 22 25  1  0  0  0
 23 24  1  0  0  0
 25 26  2  0  0  0
 25 30  1  0  0  0
 26 27  1  0  0  0
 27 28  2  0  0  0
 28 29  1  0  0  0
 29 30  2  0  0  0
 12 14  1  0  0  0
 12 15  1  0  0  0
 13 16  1  0  0  0
 13 17  1  0  0  0
  7 10  1  0  0  0
M  CHG 1  13   1
M  CHG 1  24  -1
M  END
> <minimizedAffinity>
-9.55566

$$$$
1O3D_780_A_246


 30 33  0  0  0  0  0  0  0  0999 V2000
   44.0377   -2.4138   26.3762 C   0  0  0  0  0  0  0  0  0  0  0  0
   44.0947   -3.7122   26.9693 C   0  0  0  0  0  0  0  0  0  0  0  0
   43.8186   -3.9510   28.3187 C   0  0  0  0  0  0  0  0  0  0  0  0
   43.4728   -2.8614   29.0771 C   0  0  0  0  0  0  0  0  0  0  0  0
   43.3928   -1.6195   28.5765 C   0  0  0  0  0  0  0  0  0  0  0  0
   43.6657   -1.3335   27.2281 C   0  0  0  0  0  0  0  0  0  0  0  0
   43.1540   -2.7706   30.3124 N   0  0  0  0  0  0  0  0  0  0  0  0
   43.0382   -0.7357   29.4951 N   0  0  0  0  0  0  0  0  0  0  0  0
   42.9144   -1.5373   30.5426 C   0  0  0  0  0  0  0  0  0  0  0  0
   43.1030   -3.5093   30.9612 H   0  0  0  0  0  0  0  0  0  0  0  0
   44.3240   -2.2517   25.0067 C   0  0  0  0  0  0  0  0  0  0  0  0
   44.8272   -3.2374   24.3007 N   0  0  0  0  0  0  0  0  0  0  0  0
   44.0691   -1.0847   24.4441 N   0  0  0  0  0  0  0  0  0  0  0  0
   45.0140   -4.1041   24.7286 H   0  0  0  0  0  0  0  0  0  0  0  0
   45.0177   -3.1098   23.3432 H   0  0  0  0  0  0  0  0  0  0  0  0
   43.6917   -0.3512   24.9815 H   0  0  0  0  0  0  0  0  0  0  0  0
   44.2565   -0.9481   23.4873 H   0  0  0  0  0  0  0  0  0  0  0  0
   42.5216   -1.0391   31.8068 C   0  0  0  0  0  0  0  0  0  0  0  0
   41.2167   -1.2294   32.2913 C   0  0  0  0  0  0  0  0  0  0  0  0
   40.8185   -0.7428   33.5328 C   0  0  0  0  0  0  0  0  0  0  0  0
   41.7107   -0.0603   34.3185 C   0  0  0  0  0  0  0  0  0  0  0  0
   43.0300    0.1729   33.9127 C   0  0  0  0  0  0  0  0  0  0  0  0
   43.4072   -0.3275   32.6499 C   0  0  0  0  0  0  0  0  0  0  0  0
   44.6890   -0.1007   32.2086 O   0  0  0  0  0  0  0  0  0  0  0  0
   43.8946    0.8679   34.7780 C   0  0  0  0  0  0  0  0  0  0  0  0
   44.9385    0.2265   35.4621 C   0  0  0  0  0  0  0  0  0  0  0  0
   45.7726    0.9084   36.3415 C   0  0  0  0  0  0  0  0  0  0  0  0
   45.5856    2.2582   36.5578 C   0  0  0  0  0  0  0  0  0  0  0  0
   44.5708    2.9280   35.9033 C   0  0  0  0  0  0  0  0  0  0  0  0
   43.7387    2.2407   35.0258 C   0  0  0  0  0  0  0  0  0  0  0  0
  1  2  2  0  0  0
  1  6  1  0  0  0
  1 11  1  0  0  0
  2  3  1  0  0  0
  3  4  2  0  0  0
  4  5  1  0  0  0
  4  7  1  0  0  0
  5  6  2  0  0  0
  5  8  1  0  0  0
 11 12  1  0  0  0
 11 13  2  0  0  0
  7  9  1  0  0  0
  8  9  2  0  0  0
  9 18  1  0  0  0
 18 19  2  0  0  0
 18 23  1  0  0  0
 19 20  1  0  0  0
 20 21  2  0  0  0
 21 22  1  0  0  0
 22 23  2  0  0  0
 22 25  1  0  0  0
 23 24  1  0  0  0
 25 26  2  0  0  0
 25 30  1  0  0  0
 26 27  1  0  0  0
 27 28  2  0  0  0
 28 29  1  0  0  0
 29 30  2  0  0  0
 12 14  1  0  0  0
 12 15  1  0  0  0
 13 16  1  0  0  0
 13 17  1  0  0  0
  7 10  1  0  0  0
M  CHG 1  13   1
M  CHG 1  24  -1
M  END
> <minimizedAffinity>
-9.11539

$$$$
1O3D_780_A_246


 30 33  0  0  0  0  0  0  0  0999 V2000
   43.9725   -2.6047   26.3806 C   0  0  0  0  0  0  0  0  0  0  0  0
   43.7332   -3.8798   26.9787 C   0  0  0  0  0  0  0  0  0  0  0  0
   43.4563   -4.0485   28.3385 C   0  0  0  0  0  0  0  0  0  0  0  0
   43.4136   -2.9099   29.1025 C   0  0  0  0  0  0  0  0  0  0  0  0
   43.6202   -1.6844   28.5980 C   0  0  0  0  0  0  0  0  0  0  0  0
   43.9056   -1.4690   27.2391 C   0  0  0  0  0  0  0  0  0  0  0  0
   43.1713   -2.7482   30.3479 N   0  0  0  0  0  0  0  0  0  0  0  0
   43.5248   -0.7438   29.5236 N   0  0  0  0  0  0  0  0  0  0  0  0
   43.2475   -1.4944   30.5795 C   0  0  0  0  0  0  0  0  0  0  0  0
   42.9656   -3.4544   31.0023 H   0  0  0  0  0  0  0  0  0  0  0  0
   44.2400   -2.5129   25.0008 C   0  0  0  0  0  0  0  0  0  0  0  0
   44.5544   -3.5783   24.3014 N   0  0  0  0  0  0  0  0  0  0  0  0
   44.1617   -1.3287   24.4219 N   0  0  0  0  0  0  0  0  0  0  0  0
   44.6103   -4.4571   24.7415 H   0  0  0  0  0  0  0  0  0  0  0  0
   44.7342   -3.4984   23.3368 H   0  0  0  0  0  0  0  0  0  0  0  0
   43.9252   -0.5352   24.9544 H   0  0  0  0  0  0  0  0  0  0  0  0
   44.3399   -1.2394   23.4578 H   0  0  0  0  0  0  0  0  0  0  0  0
   43.0338   -0.9197   31.8541 C   0  0  0  0  0  0  0  0  0  0  0  0
   44.0716   -0.2708   32.5438 C   0  0  0  0  0  0  0  0  0  0  0  0
   43.8736    0.2972   33.7987 C   0  0  0  0  0  0  0  0  0  0  0  0
   42.6390    0.2340   34.3913 C   0  0  0  0  0  0  0  0  0  0  0  0
   41.5504   -0.3928   33.7736 C   0  0  0  0  0  0  0  0  0  0  0  0
   41.7781   -0.9628   32.5044 C   0  0  0  0  0  0  0  0  0  0  0  0
   40.7381   -1.6045   31.8754 O   0  0  0  0  0  0  0  0  0  0  0  0
   40.3086   -0.4059   34.4347 C   0  0  0  0  0  0  0  0  0  0  0  0
   39.9253   -1.4582   35.2802 C   0  0  0  0  0  0  0  0  0  0  0  0
   38.6846   -1.4853   35.9080 C   0  0  0  0  0  0  0  0  0  0  0  0
   37.7915   -0.4528   35.7082 C   0  0  0  0  0  0  0  0  0  0  0  0
   38.1298    0.6030   34.8849 C   0  0  0  0  0  0  0  0  0  0  0  0
   39.3716    0.6242   34.2586 C   0  0  0  0  0  0  0  0  0  0  0  0
  1  2  2  0  0  0
  1  6  1  0  0  0
  1 11  1  0  0  0
  2  3  1  0  0  0
  3  4  2  0  0  0
  4  5  1  0  0  0
  4  7  1  0  0  0
  5  6  2  0  0  0
  5  8  1  0  0  0
 11 12  1  0  0  0
 11 13  2  0  0  0
  7  9  1  0  0  0
  8  9  2  0  0  0
  9 18  1  0  0  0
 18 19  2  0  0  0
 18 23  1  0  0  0
 19 20  1  0  0  0
 20 21  2  0  0  0
 21 22  1  0  0  0
 22 23  2  0  0  0
 22 25  1  0  0  0
 23 24  1  0  0  0
 25 26  2  0  0  0
 25 30  1  0  0  0
 26 27  1  0  0  0
 27 28  2  0  0  0
 28 29  1  0  0  0
 29 30  2  0  0  0
 12 14  1  0  0  0
 12 15  1  0  0  0
 13 16  1  0  0  0
 13 17  1  0  0  0
  7 10  1  0  0  0
M  CHG 1  13   1
M  CHG 1  24  -1
M  END
> <minimizedAffinity>
-8.03694

$$$$
1O3D_780_A_246


 30 33  0  0  0  0  0  0  0  0999 V2000
   44.0479   -2.5231   26.4062 C   0  0  0  0  0  0  0  0  0  0  0  0
   43.8400   -3.8507   26.8911 C   0  0  0  0  0  0  0  0  0  0  0  0
   43.6005   -4.1464   28.2362 C   0  0  0  0  0  0  0  0  0  0  0  0
   43.5637   -3.0828   29.1018 C   0  0  0  0  0  0  0  0  0  0  0  0
   43.7420   -1.8136   28.7064 C   0  0  0  0  0  0  0  0  0  0  0  0
   43.9893   -1.4714   27.3662 C   0  0  0  0  0  0  0  0  0  0  0  0
   43.3517   -3.0386   30.3624 N   0  0  0  0  0  0  0  0  0  0  0  0
   43.6590   -0.9626   29.7161 N   0  0  0  0  0  0  0  0  0  0  0  0
   43.4184   -1.8101   30.7055 C   0  0  0  0  0  0  0  0  0  0  0  0
   43.1718   -3.8043   30.9544 H   0  0  0  0  0  0  0  0  0  0  0  0
   44.2783   -2.3023   25.0344 C   0  0  0  0  0  0  0  0  0  0  0  0
   44.6834   -3.2756   24.2523 N   0  0  0  0  0  0  0  0  0  0  0  0
   44.0719   -1.0921   24.5483 N   0  0  0  0  0  0  0  0  0  0  0  0
   44.8348   -4.1747   24.6235 H   0  0  0  0  0  0  0  0  0  0  0  0
   44.8358   -3.1064   23.2945 H   0  0  0  0  0  0  0  0  0  0  0  0
   43.7681   -0.3682   25.1424 H   0  0  0  0  0  0  0  0  0  0  0  0
   44.2217   -0.9137   23.5917 H   0  0  0  0  0  0  0  0  0  0  0  0
   43.2308   -1.3569   32.0322 C   0  0  0  0  0  0  0  0  0  0  0  0
   43.8564   -0.1884   32.4981 C   0  0  0  0  0  0  0  0  0  0  0  0
   43.6803    0.2665   33.8014 C   0  0  0  0  0  0  0  0  0  0  0  0
   42.8762   -0.4296   34.6663 C   0  0  0  0  0  0  0  0  0  0  0  0
   42.2150   -1.6027   34.2839 C   0  0  0  0  0  0  0  0  0  0  0  0
   42.4124   -2.0438   32.9595 C   0  0  0  0  0  0  0  0  0  0  0  0
   41.7955   -3.2030   32.5534 O   0  0  0  0  0  0  0  0  0  0  0  0
   41.3935   -2.2563   35.2205 C   0  0  0  0  0  0  0  0  0  0  0  0
   40.0275   -1.9614   35.3478 C   0  0  0  0  0  0  0  0  0  0  0  0
   39.2235   -2.5855   36.2955 C   0  0  0  0  0  0  0  0  0  0  0  0
   39.7672   -3.5289   37.1429 C   0  0  0  0  0  0  0  0  0  0  0  0
   41.1071   -3.8497   37.0499 C   0  0  0  0  0  0  0  0  0  0  0  0
   41.9068   -3.2214   36.1009 C   0  0  0  0  0  0  0  0  0  0  0  0
  1  2  2  0  0  0
  1  6  1  0  0  0
  1 11  1  0  0  0
  2  3  1  0  0  0
  3  4  2  0  0  0
  4  5  1  0  0  0
  4  7  1  0  0  0
  5  6  2  0  0  0
  5  8  1  0  0  0
 11 12  1  0  0  0
 11 13  2  0  0  0
  7  9  1  0  0  0
  8  9  2  0  0  0
  9 18  1  0  0  0
 18 19  2  0  0  0
 18 23  1  0  0  0
 19 20  1  0  0  0
 20 21  2  0  0  0
 21 22  1  0  0  0
 22 23  2  0  0  0
 22 25  1  0  0  0
 23 24  1  0  0  0
 25 26  2  0  0  0
 25 30  1  0  0  0
 26 27  1  0  0  0
 27 28  2  0  0  0
 28 29  1  0  0  0
 29 30  2  0  0  0
 12 14  1  0  0  0
 12 15  1  0  0  0
 13 16  1  0  0  0
 13 17  1  0  0  0
  7 10  1  0  0  0
M  CHG 1  13   1
M  CHG 1  24  -1
M  END
> <minimizedAffinity>
-7.75914

$$$$
1O3D_780_A_246


 30 33  0  0  0  0  0  0  0  0999 V2000
   44.5847    0.7328   36.5205 C   0  0  0  0  0  0  0  0  0  0  0  0
   45.2591    1.6006   35.6077 C   0  0  0  0  0  0  0  0  0  0  0  0
   45.1114    1.5172   34.2200 C   0  0  0  0  0  0  0  0  0  0  0  0
   44.2637    0.5466   33.7498 C   0  0  0  0  0  0  0  0  0  0  0  0
   43.5954   -0.2917   34.5559 C   0  0  0  0  0  0  0  0  0  0  0  0
   43.7171   -0.2463   35.9550 C   0  0  0  0  0  0  0  0  0  0  0  0
   43.9195    0.2451   32.5554 N   0  0  0  0  0  0  0  0  0  0  0  0
   42.8378   -1.1366   33.8755 N   0  0  0  0  0  0  0  0  0  0  0  0
   43.1034   -0.7336   32.6418 C   0  0  0  0  0  0  0  0  0  0  0  0
   44.2250    0.6833   31.7284 H   0  0  0  0  0  0  0  0  0  0  0  0
   44.7792    0.8811   37.9075 C   0  0  0  0  0  0  0  0  0  0  0  0
   45.6744    1.7178   38.3784 N   0  0  0  0  0  0  0  0  0  0  0  0
   44.0351    0.1622   38.7278 N   0  0  0  0  0  0  0  0  0  0  0  0
   46.2248    2.2497   37.7592 H   0  0  0  0  0  0  0  0  0  0  0  0
   45.7954    1.8134   39.3507 H   0  0  0  0  0  0  0  0  0  0  0  0
   43.3662   -0.4628   38.3656 H   0  0  0  0  0  0  0  0  0  0  0  0
   44.1492    0.2512   39.7016 H   0  0  0  0  0  0  0  0  0  0  0  0
   42.4951   -1.3464   31.5215 C   0  0  0  0  0  0  0  0  0  0  0  0
   41.1584   -1.7770   31.5631 C   0  0  0  0  0  0  0  0  0  0  0  0
   40.5497   -2.3822   30.4678 C   0  0  0  0  0  0  0  0  0  0  0  0
   41.2570   -2.5685   29.3084 C   0  0  0  0  0  0  0  0  0  0  0  0
   42.5925   -2.1687   29.1812 C   0  0  0  0  0  0  0  0  0  0  0  0
   43.1866   -1.5610   30.3061 C   0  0  0  0  0  0  0  0  0  0  0  0
   44.5028   -1.1732   30.2258 O   0  0  0  0  0  0  0  0  0  0  0  0
   43.2511   -2.3781   27.9558 C   0  0  0  0  0  0  0  0  0  0  0  0
   43.7429   -1.3153   27.1827 C   0  0  0  0  0  0  0  0  0  0  0  0
   44.3655   -1.5217   25.9564 C   0  0  0  0  0  0  0  0  0  0  0  0
   44.5168   -2.8042   25.4706 C   0  0  0  0  0  0  0  0  0  0  0  0
   44.0485   -3.8786   26.2007 C   0  0  0  0  0  0  0  0  0  0  0  0
   43.4253   -3.6662   27.4260 C   0  0  0  0  0  0  0  0  0  0  0  0
  1  2  2  0  0  0
  1  6  1  0  0  0
  1 11  1  0  0  0
  2  3  1  0  0  0
  3  4  2  0  0  0
  4  5  1  0  0  0
  4  7  1  0  0  0
  5  6  2  0  0  0
  5  8  1  0  0  0
 11 12  1  0  0  0
 11 13  2  0  0  0
  7  9  1  0  0  0
  8  9  2  0  0  0
  9 18  1  0  0  0
 18 19  2  0  0  0
 18 23  1  0  0  0
 19 20  1  0  0  0
 20 21  2  0  0  0
 21 22  1  0  0  0
 22 23  2  0  0  0
 22 25  1  0  0  0
 23 24  1  0  0  0
 25 26  2  0  0  0
 25 30  1  0  0  0
 26 27  1  0  0  0
 27 28  2  0  0  0
 28 29  1  0  0  0
 29 30  2  0  0  0
 12 14  1  0  0  0
 12 15  1  0  0  0
 13 16  1  0  0  0
 13 17  1  0  0  0
  7 10  1  0  0  0
M  CHG 1  13   1
M  CHG 1  24  -1
M  END
> <minimizedAffinity>
-7.71340

$$$$
1O3D_780_A_246


 30 33  0  0  0  0  0  0  0  0999 V2000
   44.0866   -2.4310   26.1948 C   0  0  0  0  0  0  0  0  0  0  0  0
   44.2701   -1.2684   27.0046 C   0  0  0  0  0  0  0  0  0  0  0  0
   44.1231   -1.2719   28.3948 C   0  0  0  0  0  0  0  0  0  0  0  0
   43.7928   -2.4705   28.9745 C   0  0  0  0  0  0  0  0  0  0  0  0
   43.6163   -3.5980   28.2696 C   0  0  0  0  0  0  0  0  0  0  0  0
   43.7498   -3.6393   26.8715 C   0  0  0  0  0  0  0  0  0  0  0  0
   43.6112   -2.7832   30.2013 N   0  0  0  0  0  0  0  0  0  0  0  0
   43.3077   -4.6250   29.0447 N   0  0  0  0  0  0  0  0  0  0  0  0
   43.3231   -4.0273   30.2269 C   0  0  0  0  0  0  0  0  0  0  0  0
   43.6802   -2.1808   30.9769 H   0  0  0  0  0  0  0  0  0  0  0  0
   44.2577   -2.3514   24.7991 C   0  0  0  0  0  0  0  0  0  0  0  0
   44.0426   -1.2279   24.1552 N   0  0  0  0  0  0  0  0  0  0  0  0
   44.6464   -3.4335   24.1499 N   0  0  0  0  0  0  0  0  0  0  0  0
   43.7530   -0.4261   24.6476 H   0  0  0  0  0  0  0  0  0  0  0  0
   44.1708   -1.1871   23.1800 H   0  0  0  0  0  0  0  0  0  0  0  0
   44.8054   -4.2717   24.6411 H   0  0  0  0  0  0  0  0  0  0  0  0
   44.7772   -3.4020   23.1746 H   0  0  0  0  0  0  0  0  0  0  0  0
   43.0581   -4.7449   31.4167 C   0  0  0  0  0  0  0  0  0  0  0  0
   43.5116   -6.0635   31.5884 C   0  0  0  0  0  0  0  0  0  0  0  0
   43.2560   -6.7797   32.7538 C   0  0  0  0  0  0  0  0  0  0  0  0
   42.5471   -6.1980   33.7728 C   0  0  0  0  0  0  0  0  0  0  0  0
   42.0594   -4.8889   33.6848 C   0  0  0  0  0  0  0  0  0  0  0  0
   42.3292   -4.1861   32.4928 C   0  0  0  0  0  0  0  0  0  0  0  0
   41.8490   -2.9049   32.3614 O   0  0  0  0  0  0  0  0  0  0  0  0
   41.3529   -4.3517   34.7763 C   0  0  0  0  0  0  0  0  0  0  0  0
   41.9911   -3.6229   35.7916 C   0  0  0  0  0  0  0  0  0  0  0  0
   41.2965   -3.1197   36.8863 C   0  0  0  0  0  0  0  0  0  0  0  0
   39.9371   -3.3302   36.9927 C   0  0  0  0  0  0  0  0  0  0  0  0
   39.2701   -4.0409   36.0146 C   0  0  0  0  0  0  0  0  0  0  0  0
   39.9700   -4.5431   34.9225 C   0  0  0  0  0  0  0  0  0  0  0  0
  1  2  2  0  0  0
  1  6  1  0  0  0
  1 11  1  0  0  0
  2  3  1  0  0  0
  3  4  2  0  0  0
  4  5  1  0  0  0
  4  7  1  0  0  0
  5  6  2  0  0  0
  5  8  1  0  0  0
 11 12  1  0  0  0
 11 13  2  0  0  0
  7  9  1  0  0  0
  8  9  2  0  0  0
  9 18  1  0  0  0
 18 19  2  0  0  0
 18 23  1  0  0  0
 19 20  1  0  0  0
 20 21  2  0  0  0
 21 22  1  0  0  0
 22 23  2  0  0  0
 22 25  1  0  0  0
 23 24  1  0  0  0
 25 26  2  0  0  0
 25 30  1  0  0  0
 26 27  1  0  0  0
 27 28  2  0  0  0
 28 29  1  0  0  0
 29 30  2  0  0  0
 12 14  1  0  0  0
 12 15  1  0  0  0
 13 16  1  0  0  0
 13 17  1  0  0  0
  7 10  1  0  0  0
M  CHG 1  13   1
M  CHG 1  24  -1
M  END
> <minimizedAffinity>
-7.55093

$$$$
1O3D_780_A_246


 30 33  0  0  0  0  0  0  0  0999 V2000
   43.5924   -2.8454   28.6858 C   0  0  0  0  0  0  0  0  0  0  0  0
   43.6165   -3.9599   29.5794 C   0  0  0  0  0  0  0  0  0  0  0  0
   43.2716   -3.8659   30.9309 C   0  0  0  0  0  0  0  0  0  0  0  0
   42.8900   -2.6282   31.3828 C   0  0  0  0  0  0  0  0  0  0  0  0
   42.8381   -1.5464   30.5915 C   0  0  0  0  0  0  0  0  0  0  0  0
   43.1798   -1.5942   29.2294 C   0  0  0  0  0  0  0  0  0  0  0  0
   42.5088   -2.2428   32.5413 N   0  0  0  0  0  0  0  0  0  0  0  0
   42.4390   -0.4693   31.2483 N   0  0  0  0  0  0  0  0  0  0  0  0
   42.2604   -0.9931   32.4519 C   0  0  0  0  0  0  0  0  0  0  0  0
   42.4234   -2.8020   33.3471 H   0  0  0  0  0  0  0  0  0  0  0  0
   43.9483   -3.0186   27.3341 C   0  0  0  0  0  0  0  0  0  0  0  0
   44.6069   -2.0873   26.6845 N   0  0  0  0  0  0  0  0  0  0  0  0
   43.6095   -4.1445   26.7333 N   0  0  0  0  0  0  0  0  0  0  0  0
   44.8553   -1.2510   27.1406 H   0  0  0  0  0  0  0  0  0  0  0  0
   44.8523   -2.2251   25.7411 H   0  0  0  0  0  0  0  0  0  0  0  0
   43.1156   -4.8374   27.2285 H   0  0  0  0  0  0  0  0  0  0  0  0
   43.8507   -4.2910   25.7901 H   0  0  0  0  0  0  0  0  0  0  0  0
   41.8049   -0.2064   33.5356 C   0  0  0  0  0  0  0  0  0  0  0  0
   40.4335   -0.0588   33.8028 C   0  0  0  0  0  0  0  0  0  0  0  0
   39.9735    0.7135   34.8651 C   0  0  0  0  0  0  0  0  0  0  0  0
   40.8680    1.3518   35.6846 C   0  0  0  0  0  0  0  0  0  0  0  0
   42.2510    1.2576   35.4901 C   0  0  0  0  0  0  0  0  0  0  0  0
   42.6909    0.4717   34.4054 C   0  0  0  0  0  0  0  0  0  0  0  0
   44.0415    0.3717   34.1706 O   0  0  0  0  0  0  0  0  0  0  0  0
   43.1100    1.9276   36.3803 C   0  0  0  0  0  0  0  0  0  0  0  0
   43.4803    3.2680   36.1922 C   0  0  0  0  0  0  0  0  0  0  0  0
   44.3546    3.9197   37.0553 C   0  0  0  0  0  0  0  0  0  0  0  0
   44.8814    3.2449   38.1373 C   0  0  0  0  0  0  0  0  0  0  0  0
   44.5415    1.9251   38.3598 C   0  0  0  0  0  0  0  0  0  0  0  0
   43.6676    1.2778   37.4926 C   0  0  0  0  0  0  0  0  0  0  0  0
  1  2  2  0  0  0
  1  6  1  0  0  0
  1 11  1  0  0  0
  2  3  1  0  0  0
  3  4  2  0  0  0
  4  5  1  0  0  0
  4  7  1  0  0  0
  5  6  2  0  0  0
  5  8  1  0  0  0
 11 12  1  0  0  0
 11 13  2  0  0  0
  7  9  1  0  0  0
  8  9  2  0  0  0
  9 18  1  0  0  0
 18 19  2  0  0  0
 18 23  1  0  0  0
 19 20  1  0  0  0
 20 21  2  0  0  0
 21 22  1  0  0  0
 22 23  2  0  0  0
 22 25  1  0  0  0
 23 24  1  0  0  0
 25 26  2  0  0  0
 25 30  1  0  0  0
 26 27  1  0  0  0
 27 28  2  0  0  0
 28 29  1  0  0  0
 29 30  2  0  0  0
 12 14  1  0  0  0
 12 15  1  0  0  0
 13 16  1  0  0  0
 13 17  1  0  0  0
  7 10  1  0  0  0
M  CHG 1  13   1
M  CHG 1  24  -1
M  END
> <minimizedAffinity>
-7.37963

$$$$
1O3D_780_A_246


 30 33  0  0  0  0  0  0  0  0999 V2000
   39.2262    1.7764   35.3200 C   0  0  0  0  0  0  0  0  0  0  0  0
   38.3090    1.7624   34.2248 C   0  0  0  0  0  0  0  0  0  0  0  0
   38.4918    0.9779   33.0822 C   0  0  0  0  0  0  0  0  0  0  0  0
   39.6149    0.1909   33.0508 C   0  0  0  0  0  0  0  0  0  0  0  0
   40.5079    0.1532   34.0510 C   0  0  0  0  0  0  0  0  0  0  0  0
   40.3662    0.9276   35.2149 C   0  0  0  0  0  0  0  0  0  0  0  0
   40.0346   -0.6309   32.1651 N   0  0  0  0  0  0  0  0  0  0  0  0
   41.5036   -0.6801   33.7965 N   0  0  0  0  0  0  0  0  0  0  0  0
   41.1300   -1.1198   32.6040 C   0  0  0  0  0  0  0  0  0  0  0  0
   39.5974   -0.8454   31.3095 H   0  0  0  0  0  0  0  0  0  0  0  0
   38.9717    2.5896   36.4415 C   0  0  0  0  0  0  0  0  0  0  0  0
   38.6200    2.0634   37.5915 N   0  0  0  0  0  0  0  0  0  0  0  0
   39.1006    3.8974   36.3129 N   0  0  0  0  0  0  0  0  0  0  0  0
   38.5264    1.0872   37.6780 H   0  0  0  0  0  0  0  0  0  0  0  0
   38.4499    2.6450   38.3674 H   0  0  0  0  0  0  0  0  0  0  0  0
   39.3648    4.2832   35.4465 H   0  0  0  0  0  0  0  0  0  0  0  0
   38.9325    4.4867   37.0834 H   0  0  0  0  0  0  0  0  0  0  0  0
   41.8964   -2.0783   31.9008 C   0  0  0  0  0  0  0  0  0  0  0  0
   42.2246   -3.3155   32.4798 C   0  0  0  0  0  0  0  0  0  0  0  0
   42.9790   -4.2657   31.7983 C   0  0  0  0  0  0  0  0  0  0  0  0
   43.4194   -4.0059   30.5264 C   0  0  0  0  0  0  0  0  0  0  0  0
   43.1369   -2.7995   29.8751 C   0  0  0  0  0  0  0  0  0  0  0  0
   42.3737   -1.8526   30.5883 C   0  0  0  0  0  0  0  0  0  0  0  0
   42.0933   -0.6479   29.9890 O   0  0  0  0  0  0  0  0  0  0  0  0
   43.6088   -2.6081   28.5636 C   0  0  0  0  0  0  0  0  0  0  0  0
   43.4166   -3.5648   27.5552 C   0  0  0  0  0  0  0  0  0  0  0  0
   43.9113   -3.3884   26.2674 C   0  0  0  0  0  0  0  0  0  0  0  0
   44.6117   -2.2423   25.9520 C   0  0  0  0  0  0  0  0  0  0  0  0
   44.8218   -1.2748   26.9147 C   0  0  0  0  0  0  0  0  0  0  0  0
   44.3259   -1.4570   28.2014 C   0  0  0  0  0  0  0  0  0  0  0  0
  1  2  2  0  0  0
  1  6  1  0  0  0
  1 11  1  0  0  0
  2  3  1  0  0  0
  3  4  2  0  0  0
  4  5  1  0  0  0
  4  7  1  0  0  0
  5  6  2  0  0  0
  5  8  1  0  0  0
 11 12  1  0  0  0
 11 13  2  0  0  0
  7  9  1  0  0  0
  8  9  2  0  0  0
  9 18  1  0  0  0
 18 19  2  0  0  0
 18 23  1  0  0  0
 19 20  1  0  0  0
 20 21  2  0  0  0
 21 22  1  0  0  0
 22 23  2  0  0  0
 22 25  1  0  0  0
 23 24  1  0  0  0
 25 26  2  0  0  0
 25 30  1  0  0  0
 26 27  1  0  0  0
 27 28  2  0  0  0
 28 29  1  0  0  0
 29 30  2  0  0  0
 12 14  1  0  0  0
 12 15  1  0  0  0
 13 16  1  0  0  0
 13 17  1  0  0  0
  7 10  1  0  0  0
M  CHG 1  13   1
M  CHG 1  24  -1
M  END
> <minimizedAffinity>
-6.98752

$$$$
1O3D_780_A_246


 30 33  0  0  0  0  0  0  0  0999 V2000
   43.0218    4.0833   37.1112 C   0  0  0  0  0  0  0  0  0  0  0  0
   44.4170    3.8441   36.9183 C   0  0  0  0  0  0  0  0  0  0  0  0
   44.9168    2.7239   36.2478 C   0  0  0  0  0  0  0  0  0  0  0  0
   43.9915    1.8369   35.7592 C   0  0  0  0  0  0  0  0  0  0  0  0
   42.6689    2.0105   35.9000 C   0  0  0  0  0  0  0  0  0  0  0  0
   42.1231    3.1186   36.5698 C   0  0  0  0  0  0  0  0  0  0  0  0
   44.1418    0.7512   35.1001 N   0  0  0  0  0  0  0  0  0  0  0  0
   41.9773    1.0287   35.3445 N   0  0  0  0  0  0  0  0  0  0  0  0
   42.9720    0.2904   34.8750 C   0  0  0  0  0  0  0  0  0  0  0  0
   44.9953    0.3481   34.8200 H   0  0  0  0  0  0  0  0  0  0  0  0
   42.5928    5.2387   37.7929 C   0  0  0  0  0  0  0  0  0  0  0  0
   43.4537    6.1441   38.1954 N   0  0  0  0  0  0  0  0  0  0  0  0
   41.3006    5.3956   38.0142 N   0  0  0  0  0  0  0  0  0  0  0  0
   44.4154    6.0187   38.0260 H   0  0  0  0  0  0  0  0  0  0  0  0
   43.1378    6.9486   38.6668 H   0  0  0  0  0  0  0  0  0  0  0  0
   40.6622    4.7113   37.7087 H   0  0  0  0  0  0  0  0  0  0  0  0
   40.9756    6.1969   38.4849 H   0  0  0  0  0  0  0  0  0  0  0  0
   42.7261   -0.9051   34.1603 C   0  0  0  0  0  0  0  0  0  0  0  0
   42.1712   -2.0306   34.7922 C   0  0  0  0  0  0  0  0  0  0  0  0
   41.9260   -3.2125   34.0998 C   0  0  0  0  0  0  0  0  0  0  0  0
   42.2246   -3.2978   32.7646 C   0  0  0  0  0  0  0  0  0  0  0  0
   42.7789   -2.2241   32.0579 C   0  0  0  0  0  0  0  0  0  0  0  0
   43.0203   -1.0394   32.7830 C   0  0  0  0  0  0  0  0  0  0  0  0
   43.5825    0.0300   32.1276 O   0  0  0  0  0  0  0  0  0  0  0  0
   43.0454   -2.3788   30.6852 C   0  0  0  0  0  0  0  0  0  0  0  0
   42.8076   -1.3516   29.7592 C   0  0  0  0  0  0  0  0  0  0  0  0
   43.0416   -1.5167   28.3983 C   0  0  0  0  0  0  0  0  0  0  0  0
   43.5260   -2.7191   27.9260 C   0  0  0  0  0  0  0  0  0  0  0  0
   43.7751   -3.7556   28.8038 C   0  0  0  0  0  0  0  0  0  0  0  0
   43.5380   -3.5854   30.1638 C   0  0  0  0  0  0  0  0  0  0  0  0
  1  2  2  0  0  0
  1  6  1  0  0  0
  1 11  1  0  0  0
  2  3  1  0  0  0
  3  4  2  0  0  0
  4  5  1  0  0  0
  4  7  1  0  0  0
  5  6  2  0  0  0
  5  8  1  0  0  0
 11 12  1  0  0  0
 11 13  2  0  0  0
  7  9  1  0  0  0
  8  9  2  0  0  0
  9 18  1  0  0  0
 18 19  2  0  0  0
 18 23  1  0  0  0
 19 20  1  0  0  0
 20 21  2  0  0  0
 21 22  1  0  0  0
 22 23  2  0  0  0
 22 25  1  0  0  0
 23 24  1  0  0  0
 25 26  2  0  0  0
 25 30  1  0  0  0
 26 27  1  0  0  0
 27 28  2  0  0  0
 28 29  1  0  0  0
 29 30  2  0  0  0
 12 14  1  0  0  0
 12 15  1  0  0  0
 13 16  1  0  0  0
 13 17  1  0  0  0
  7 10  1  0  0  0
M  CHG 1  13   1
M  CHG 1  24  -1
M  END
> <minimizedAffinity>
-6.93252

$$$$
1O3D_780_A_246


 30 33  0  0  0  0  0  0  0  0999 V2000
   41.8524    1.5035   35.4882 C   0  0  0  0  0  0  0  0  0  0  0  0
   40.5064    1.2209   35.1014 C   0  0  0  0  0  0  0  0  0  0  0  0
   40.1739    0.3122   34.0924 C   0  0  0  0  0  0  0  0  0  0  0  0
   41.2179   -0.3249   33.4711 C   0  0  0  0  0  0  0  0  0  0  0  0
   42.5014   -0.1094   33.7954 C   0  0  0  0  0  0  0  0  0  0  0  0
   42.8811    0.7974   34.7994 C   0  0  0  0  0  0  0  0  0  0  0  0
   41.2262   -1.2043   32.5423 N   0  0  0  0  0  0  0  0  0  0  0  0
   43.3278   -0.8393   33.0639 N   0  0  0  0  0  0  0  0  0  0  0  0
   42.4503   -1.4858   32.3108 C   0  0  0  0  0  0  0  0  0  0  0  0
   40.4400   -1.5901   32.0924 H   0  0  0  0  0  0  0  0  0  0  0  0
   42.1096    2.4283   36.5188 C   0  0  0  0  0  0  0  0  0  0  0  0
   41.1370    3.1234   37.0609 N   0  0  0  0  0  0  0  0  0  0  0  0
   43.3541    2.5780   36.9340 N   0  0  0  0  0  0  0  0  0  0  0  0
   40.2121    3.0052   36.7449 H   0  0  0  0  0  0  0  0  0  0  0  0
   41.3323    3.7628   37.7835 H   0  0  0  0  0  0  0  0  0  0  0  0
   44.0772    2.0524   36.5216 H   0  0  0  0  0  0  0  0  0  0  0  0
   43.5588    3.2151   37.6561 H   0  0  0  0  0  0  0  0  0  0  0  0
   42.8666   -2.4305   31.3439 C   0  0  0  0  0  0  0  0  0  0  0  0
   43.0334   -3.7858   31.6744 C   0  0  0  0  0  0  0  0  0  0  0  0
   43.4437   -4.7240   30.7321 C   0  0  0  0  0  0  0  0  0  0  0  0
   43.6933   -4.3339   29.4419 C   0  0  0  0  0  0  0  0  0  0  0  0
   43.5515   -3.0043   29.0279 C   0  0  0  0  0  0  0  0  0  0  0  0
   43.1377   -2.0731   30.0022 C   0  0  0  0  0  0  0  0  0  0  0  0
   43.0066   -0.7543   29.6379 O   0  0  0  0  0  0  0  0  0  0  0  0
   43.8104   -2.6794   27.6837 C   0  0  0  0  0  0  0  0  0  0  0  0
   43.9417   -1.3514   27.2497 C   0  0  0  0  0  0  0  0  0  0  0  0
   44.1660   -1.0304   25.9153 C   0  0  0  0  0  0  0  0  0  0  0  0
   44.2694   -2.0353   24.9755 C   0  0  0  0  0  0  0  0  0  0  0  0
   44.1480   -3.3558   25.3607 C   0  0  0  0  0  0  0  0  0  0  0  0
   43.9223   -3.6710   26.6966 C   0  0  0  0  0  0  0  0  0  0  0  0
  1  2  2  0  0  0
  1  6  1  0  0  0
  1 11  1  0  0  0
  2  3  1  0  0  0
  3  4  2  0  0  0
  4  5  1  0  0  0
  4  7  1  0  0  0
  5  6  2  0  0  0
  5  8  1  0  0  0
 11 12  1  0  0  0
 11 13  2  0  0  0
  7  9  1  0  0  0
  8  9  2  0  0  0
  9 18  1  0  0  0
 18 19  2  0  0  0
 18 23  1  0  0  0
 19 20  1  0  0  0
 20 21  2  0  0  0
 21 22  1  0  0  0
 22 23  2  0  0  0
 22 25  1  0  0  0
 23 24  1  0  0  0
 25 26  2  0  0  0
 25 30  1  0  0  0
 26 27  1  0  0  0
 27 28  2  0  0  0
 28 29  1  0  0  0
 29 30  2  0  0  0
 12 14  1  0  0  0
 12 15  1  0  0  0
 13 16  1  0  0  0
 13 17  1  0  0  0
  7 10  1  0  0  0
M  CHG 1  13   1
M  CHG 1  24  -1
M  END
> <minimizedAffinity>
-6.75435

$$$$
