5D2R_56W_A_523
  RCSB PDB12061717123D
Coordinates from PDB:5D2R:A:523 Model:1 without hydrogens
 26 25  0  0  0  0            999 V2000
   -0.0310   29.1000   -8.2170   C 0  0  0  0  0  0  0  0  0  0  0  0
   -0.8840   27.9560   -7.6690   C 0  0  0  0  0  0  0  0  0  0  0  0
   -0.0230   26.8260   -7.1100   C 0  0  0  0  0  0  0  0  0  0  0  0
   -0.6840   25.4670   -7.2260   C 0  0  0  0  0  0  0  0  0  0  0  0
   -1.9730   25.3880   -6.4550   C 0  0  0  0  0  0  0  0  0  0  0  0
    0.2720   24.2900   -6.9100   C 0  0  0  0  0  0  0  0  0  0  0  0
    1.1850   22.1080   -5.2450   C 0  0  0  0  0  0  0  0  0  0  0  0
    0.0780   21.1260   -5.5920   C 0  0  0  0  0  0  0  0  0  0  0  0
   -2.3420   26.1870   -5.6100   O 0  0  0  0  0  0  0  0  0  0  0  0
   -0.7560   23.9260   -4.3640   O 0  0  0  0  0  0  0  0  0  0  0  0
    0.3410   19.8440   -4.8050   C 0  0  0  0  0  0  0  0  0  0  0  0
   -0.8980   17.8680   -4.0880   C 0  0  0  0  0  0  0  0  0  0  0  0
   -2.5720   31.1840   -7.0340   O 0  0  0  0  0  0  0  0  0  0  0  0
   -1.3770   30.8870   -7.1280   C 0  0  0  0  0  0  0  0  0  0  0  0
   -0.5640   31.0020   -6.0860   O 0  0  0  0  0  0  0  0  0  0  0  0
   -0.7820   30.4350   -8.4130   C 0  0  0  0  0  0  0  0  0  0  0  0
   -1.8990   30.3330   -9.3730   N 0  0  0  0  0  0  0  0  0  0  0  0
   -2.7730   24.3890   -6.7590   O 0  0  0  0  0  0  0  0  0  0  0  0
    0.5950   23.8190   -5.1790   P 0  0  0  0  0  0  0  0  0  0  0  0
    1.7440   24.5740   -4.6550   O 0  0  0  0  0  0  0  0  0  0  0  0
    1.6890   19.2940   -5.1840   C 0  0  0  0  0  0  0  0  0  0  0  0
    1.9190   18.8220   -6.2900   O 0  0  0  0  0  0  0  0  0  0  0  0
    2.6700   19.3390   -4.2990   O 0  0  0  0  0  0  0  0  0  0  0  0
   -0.7470   18.8850   -4.9480   N 0  0  0  0  0  0  0  0  0  0  0  0
   -0.0910   17.6470   -3.1930   O 0  0  0  0  0  0  0  0  0  0  0  0
   -2.1360   17.0330   -4.2700   C 0  0  0  0  0  0  0  0  0  0  0  0
  1  2  1  0  0  0  0
  1 16  1  0  0  0  0
  2  3  1  0  0  0  0
  3  4  1  0  0  0  0
  4  5  1  0  0  0  0
  4  6  1  0  0  0  0
  5  9  2  0  0  0  0
  5 18  1  0  0  0  0
  6 19  1  0  0  0  0
  7  8  1  0  0  0  0
  7 19  1  0  0  0  0
  8 11  1  0  0  0  0
 10 19  2  0  0  0  0
 11 21  1  0  0  0  0
 11 24  1  0  0  0  0
 12 24  1  0  0  0  0
 12 25  2  0  0  0  0
 12 26  1  0  0  0  0
 13 14  2  0  0  0  0
 14 15  1  0  0  0  0
 14 16  1  0  0  0  0
 16 17  1  0  0  0  0
 19 20  1  0  0  0  0
 21 22  2  0  0  0  0
 21 23  1  0  0  0  0
A    1
C1
A    2
C2
A    3
C3
A    4
C4
A    5
C5
A    6
C6
A    7
C7
A    8
C8
A    9
O1
A   10
O2
A   11
C9
A   12
C10
A   13
O8
A   14
C13
A   15
O7
A   16
C
A   17
N
A   18
O
A   19
P
A   20
O6
A   21
C12
A   22
O5
A   23
O4
A   24
N1
A   25
O3
A   26
C11
M  END
>  <InstanceId>
5D2R_56W_A_523

>  <ChemCompId>
56W

>  <PdbId>
5D2R

>  <ChainId>
A

>  <ResidueNumber>
523

>  <InsertionCode>


>  <Model>
1

>  <AltIds>


>  <MissingHeavyAtoms>
0

>  <ObservedFormula>
C14 N2 O9 P

>  <Name>
(2R,6R)-2-{[(R)-[(3R)-3-(acetylamino)-3-carboxypropyl](hydroxy)phosphoryl]methyl}-6-aminoheptanedioic acid

>  <SystematicName>
(2R,6R)-2-[[[(3R)-3-acetamido-4-oxidanyl-4-oxidanylidene-butyl]-oxidanyl-phosphoryl]methyl]-6-azanyl-heptanedioic acid

>  <Synonyms>


>  <Type>
non-polymer

>  <Formula>
C14 H25 N2 O9 P

>  <MolecularWeight>
396.33

>  <ModifiedDate>
2016-01-15

>  <Parent>


>  <OneLetterCode>


>  <SubcomponentList>


>  <AmbiguousFlag>
N

>  <InChI>
InChI=1S/C14H25N2O9P/c1-8(17)16-11(14(22)23)5-6-26(24,25)7-9(12(18)19)3-2-4-10(15)13(20)21/h9-11H,2-7,15H2,1H3,(H,16,17)(H,18,19)(H,20,21)(H,22,23)(H,24,25)/t9-,10+,11+/m0/s1

>  <InChIKey>
AWMPEAXWUINOES-HBNTYKKESA-N

>  <SMILES>
CC(=O)N[C@H](CCP(=O)(C[C@H](CCC[C@H](C(=O)O)N)C(=O)O)O)C(=O)O

$$$$
