4B6S_2HN_A_200


 29 30  0  0  0  0  0  0  0  0999 V2000
   24.1798   47.8655  -13.3173 C   0  0  0  0  0  0  0  0  0  0  0  0
   24.2754   48.0871  -11.7996 C   0  0  0  0  0  0  0  0  0  0  0  0
   24.4379   46.8494  -11.1236 O   0  0  0  0  0  0  0  0  0  0  0  0
   22.8260   47.2810  -13.5803 C   0  0  0  0  0  0  0  0  0  0  0  0
   22.7952   46.3265  -14.3477 O   0  0  0  0  0  0  0  0  0  0  0  0
   21.5533   47.8878  -12.9306 C   0  0  0  0  0  0  0  0  0  0  0  0
   20.3803   47.1767  -13.3271 O   0  0  0  0  0  0  0  0  0  0  0  0
   21.7372   47.9868  -11.4166 C   0  0  0  0  0  0  0  0  0  0  0  0
   20.6568   48.7471  -10.9149 O   0  0  0  0  0  0  0  0  0  0  0  0
   23.0380   48.7957  -11.1867 C   0  0  0  0  0  0  0  0  0  0  0  0
   25.2065   46.3816  -11.4859 H   0  0  0  0  0  0  0  0  0  0  0  0
   20.4457   46.2550  -13.0321 H   0  0  0  0  0  0  0  0  0  0  0  0
   20.6379   49.6114  -11.3548 H   0  0  0  0  0  0  0  0  0  0  0  0
   25.5360   48.8942  -11.5899 C   0  0  0  0  0  0  0  0  0  0  0  0
   26.5889   48.3404  -11.9127 O   0  0  0  0  0  0  0  0  0  0  0  0
   25.4230   50.0227  -11.1031 O   0  0  0  0  0  0  0  0  0  0  0  0
   26.5717   47.4770  -12.2764 H   0  0  0  0  0  0  0  0  0  0  0  0
   24.2483   49.1413  -14.1490 C   0  0  0  0  0  0  0  0  0  0  0  0
   26.8697   48.9503  -15.3229 F   0  0  0  0  0  0  0  0  0  0  0  0
   25.8168   48.8499  -16.1548 C   0  0  0  0  0  0  0  0  0  0  0  0
   26.0609   48.6805  -17.5048 C   0  0  0  0  0  0  0  0  0  0  0  0
   27.3033   48.6243  -17.9709 F   0  0  0  0  0  0  0  0  0  0  0  0
   25.0330   48.5678  -18.4038 C   0  0  0  0  0  0  0  0  0  0  0  0
   25.2715   48.3906  -19.7000 F   0  0  0  0  0  0  0  0  0  0  0  0
   23.7489   48.6038  -17.9481 C   0  0  0  0  0  0  0  0  0  0  0  0
   22.7649   48.4883  -18.8376 F   0  0  0  0  0  0  0  0  0  0  0  0
   23.4957   48.7857  -16.6126 C   0  0  0  0  0  0  0  0  0  0  0  0
   22.2096   48.8166  -16.2660 F   0  0  0  0  0  0  0  0  0  0  0  0
   24.5149   48.9135  -15.6589 C   0  0  0  0  0  0  0  0  0  0  0  0
 19 20  1  0  0  0
 20 21  1  0  0  0
 20 29  2  0  0  0
 21 22  1  0  0  0
 21 23  2  0  0  0
 23 24  1  0  0  0
 23 25  1  0  0  0
 25 26  1  0  0  0
 25 27  2  0  0  0
 27 28  1  0  0  0
 27 29  1  0  0  0
 29 18  1  0  0  0
 18  1  1  0  0  0
  1  2  1  0  0  0
  1  4  1  0  0  0
  2  3  1  0  0  0
  2 14  1  0  0  0
  2 10  1  0  0  0
 14 15  1  0  0  0
 14 16  2  0  0  0
  4  5  2  0  0  0
  4  6  1  0  0  0
  6  7  1  0  0  0
  6  8  1  0  0  0
  8  9  1  0  0  0
  8 10  1  0  0  0
  3 11  1  0  0  0
 15 17  1  0  0  0
  7 12  1  0  0  0
  9 13  1  0  0  0
M  END
> <minimizedAffinity>
-12.67857

$$$$
4B6S_2HN_A_200


 29 30  0  0  0  0  0  0  0  0999 V2000
   24.1433   47.8968  -13.3659 C   0  0  0  0  0  0  0  0  0  0  0  0
   24.3370   48.1066  -11.8559 C   0  0  0  0  0  0  0  0  0  0  0  0
   24.5490   46.8643  -11.2024 O   0  0  0  0  0  0  0  0  0  0  0  0
   22.7779   47.3075  -13.5448 C   0  0  0  0  0  0  0  0  0  0  0  0
   22.7013   46.3591  -14.3164 O   0  0  0  0  0  0  0  0  0  0  0  0
   21.5477   47.9025  -12.8082 C   0  0  0  0  0  0  0  0  0  0  0  0
   20.3545   47.1887  -13.1331 O   0  0  0  0  0  0  0  0  0  0  0  0
   21.8297   47.9902  -11.3086 C   0  0  0  0  0  0  0  0  0  0  0  0
   20.7810   48.7409  -10.7310 O   0  0  0  0  0  0  0  0  0  0  0  0
   23.1391   48.8038  -11.1575 C   0  0  0  0  0  0  0  0  0  0  0  0
   25.2944   46.4034  -11.6180 H   0  0  0  0  0  0  0  0  0  0  0  0
   20.4433   46.2650  -12.8507 H   0  0  0  0  0  0  0  0  0  0  0  0
   20.7294   49.6086  -11.1615 H   0  0  0  0  0  0  0  0  0  0  0  0
   25.6049   48.9184  -11.7222 C   0  0  0  0  0  0  0  0  0  0  0  0
   26.6430   48.3564  -12.0772 O   0  0  0  0  0  0  0  0  0  0  0  0
   25.5125   50.0588  -11.2594 O   0  0  0  0  0  0  0  0  0  0  0  0
   26.6106   47.4842  -12.4180 H   0  0  0  0  0  0  0  0  0  0  0  0
   24.1514   49.1796  -14.1896 C   0  0  0  0  0  0  0  0  0  0  0  0
   22.1698   48.8419  -16.2501 F   0  0  0  0  0  0  0  0  0  0  0  0
   23.4605   48.8049  -16.6290 C   0  0  0  0  0  0  0  0  0  0  0  0
   23.7466   48.5927  -17.9646 C   0  0  0  0  0  0  0  0  0  0  0  0
   22.7726   48.4235  -18.8516 F   0  0  0  0  0  0  0  0  0  0  0  0
   25.0397   48.5479  -18.4157 C   0  0  0  0  0  0  0  0  0  0  0  0
   25.3108   48.3579  -19.7036 F   0  0  0  0  0  0  0  0  0  0  0  0
   26.0567   48.7372  -17.5281 C   0  0  0  0  0  0  0  0  0  0  0  0
   27.3056   48.6939  -17.9876 F   0  0  0  0  0  0  0  0  0  0  0  0
   25.7842   48.9343  -16.1985 C   0  0  0  0  0  0  0  0  0  0  0  0
   26.8442   49.1000  -15.4085 F   0  0  0  0  0  0  0  0  0  0  0  0
   24.4782   48.9798  -15.6916 C   0  0  0  0  0  0  0  0  0  0  0  0
 19 20  1  0  0  0
 20 21  1  0  0  0
 20 29  2  0  0  0
 21 22  1  0  0  0
 21 23  2  0  0  0
 23 24  1  0  0  0
 23 25  1  0  0  0
 25 26  1  0  0  0
 25 27  2  0  0  0
 27 28  1  0  0  0
 27 29  1  0  0  0
 29 18  1  0  0  0
 18  1  1  0  0  0
  1  2  1  0  0  0
  1  4  1  0  0  0
  2  3  1  0  0  0
  2 14  1  0  0  0
  2 10  1  0  0  0
 14 15  1  0  0  0
 14 16  2  0  0  0
  4  5  2  0  0  0
  4  6  1  0  0  0
  6  7  1  0  0  0
  6  8  1  0  0  0
  8  9  1  0  0  0
  8 10  1  0  0  0
  3 11  1  0  0  0
 15 17  1  0  0  0
  7 12  1  0  0  0
  9 13  1  0  0  0
M  END
> <minimizedAffinity>
-12.44841

$$$$
4B6S_2HN_A_200


 29 30  0  0  0  0  0  0  0  0999 V2000
   24.0690   49.1569  -14.1497 C   0  0  0  0  0  0  0  0  0  0  0  0
   22.9508   48.9596  -13.1142 C   0  0  0  0  0  0  0  0  0  0  0  0
   22.7342   50.1548  -12.3795 O   0  0  0  0  0  0  0  0  0  0  0  0
   25.3576   49.1940  -13.3868 C   0  0  0  0  0  0  0  0  0  0  0  0
   26.1414   50.0808  -13.7032 O   0  0  0  0  0  0  0  0  0  0  0  0
   25.6670   48.1412  -12.2888 C   0  0  0  0  0  0  0  0  0  0  0  0
   26.9495   48.3660  -11.7026 O   0  0  0  0  0  0  0  0  0  0  0  0
   24.5224   48.0907  -11.2772 C   0  0  0  0  0  0  0  0  0  0  0  0
   24.7504   46.9708  -10.4462 O   0  0  0  0  0  0  0  0  0  0  0  0
   23.2315   47.8265  -12.0914 C   0  0  0  0  0  0  0  0  0  0  0  0
   22.5555   50.8840  -12.9937 H   0  0  0  0  0  0  0  0  0  0  0  0
   26.9633   49.2390  -11.2801 H   0  0  0  0  0  0  0  0  0  0  0  0
   24.8139   46.1711  -10.9915 H   0  0  0  0  0  0  0  0  0  0  0  0
   21.7020   48.6823  -13.9192 C   0  0  0  0  0  0  0  0  0  0  0  0
   21.3175   49.5991  -14.6479 O   0  0  0  0  0  0  0  0  0  0  0  0
   21.1578   47.5836  -13.7777 O   0  0  0  0  0  0  0  0  0  0  0  0
   21.8015   50.4004  -14.6877 H   0  0  0  0  0  0  0  0  0  0  0  0
   24.2136   48.0161  -15.1507 C   0  0  0  0  0  0  0  0  0  0  0  0
   26.8637   48.2980  -16.2388 F   0  0  0  0  0  0  0  0  0  0  0  0
   25.8328   48.5963  -17.0507 C   0  0  0  0  0  0  0  0  0  0  0  0
   26.1117   49.0295  -18.3334 C   0  0  0  0  0  0  0  0  0  0  0  0
   27.3656   49.1544  -18.7529 F   0  0  0  0  0  0  0  0  0  0  0  0
   25.1075   49.3455  -19.2105 C   0  0  0  0  0  0  0  0  0  0  0  0
   25.3793   49.7483  -20.4483 F   0  0  0  0  0  0  0  0  0  0  0  0
   23.8119   49.2080  -18.8099 C   0  0  0  0  0  0  0  0  0  0  0  0
   22.8513   49.5164  -19.6787 F   0  0  0  0  0  0  0  0  0  0  0  0
   23.5245   48.7925  -17.5349 C   0  0  0  0  0  0  0  0  0  0  0  0
   22.2299   48.6982  -17.2346 F   0  0  0  0  0  0  0  0  0  0  0  0
   24.5187   48.4663  -16.6022 C   0  0  0  0  0  0  0  0  0  0  0  0
 19 20  1  0  0  0
 20 21  1  0  0  0
 20 29  2  0  0  0
 21 22  1  0  0  0
 21 23  2  0  0  0
 23 24  1  0  0  0
 23 25  1  0  0  0
 25 26  1  0  0  0
 25 27  2  0  0  0
 27 28  1  0  0  0
 27 29  1  0  0  0
 29 18  1  0  0  0
 18  1  1  0  0  0
  1  2  1  0  0  0
  1  4  1  0  0  0
  2  3  1  0  0  0
  2 14  1  0  0  0
  2 10  1  0  0  0
 14 15  1  0  0  0
 14 16  2  0  0  0
  4  5  2  0  0  0
  4  6  1  0  0  0
  6  7  1  0  0  0
  6  8  1  0  0  0
  8  9  1  0  0  0
  8 10  1  0  0  0
  3 11  1  0  0  0
 15 17  1  0  0  0
  7 12  1  0  0  0
  9 13  1  0  0  0
M  END
> <minimizedAffinity>
-10.64286

$$$$
4B6S_2HN_A_200


 29 30  0  0  0  0  0  0  0  0999 V2000
   24.0407   49.1736  -14.1166 C   0  0  0  0  0  0  0  0  0  0  0  0
   22.9229   48.9632  -13.0832 C   0  0  0  0  0  0  0  0  0  0  0  0
   22.7049   50.1497  -12.3350 O   0  0  0  0  0  0  0  0  0  0  0  0
   25.3293   49.2038  -13.3536 C   0  0  0  0  0  0  0  0  0  0  0  0
   26.1119   50.0951  -13.6601 O   0  0  0  0  0  0  0  0  0  0  0  0
   25.6404   48.1390  -12.2676 C   0  0  0  0  0  0  0  0  0  0  0  0
   26.9227   48.3589  -11.6792 O   0  0  0  0  0  0  0  0  0  0  0  0
   24.4960   48.0757  -11.2564 C   0  0  0  0  0  0  0  0  0  0  0  0
   24.7258   46.9467  -10.4381 O   0  0  0  0  0  0  0  0  0  0  0  0
   23.2054   47.8189  -12.0733 C   0  0  0  0  0  0  0  0  0  0  0  0
   22.5251   50.8855  -12.9409 H   0  0  0  0  0  0  0  0  0  0  0  0
   26.9355   49.2271  -11.2468 H   0  0  0  0  0  0  0  0  0  0  0  0
   24.7902   46.1533  -10.9924 H   0  0  0  0  0  0  0  0  0  0  0  0
   21.6743   48.6932  -13.8909 C   0  0  0  0  0  0  0  0  0  0  0  0
   21.2922   49.6153  -14.6143 O   0  0  0  0  0  0  0  0  0  0  0  0
   21.1279   47.5948  -13.7568 O   0  0  0  0  0  0  0  0  0  0  0  0
   21.7778   50.4159  -14.6486 H   0  0  0  0  0  0  0  0  0  0  0  0
   24.1865   48.0444  -15.1304 C   0  0  0  0  0  0  0  0  0  0  0  0
   22.2397   48.7016  -17.1464 F   0  0  0  0  0  0  0  0  0  0  0  0
   23.5365   48.7921  -17.4941 C   0  0  0  0  0  0  0  0  0  0  0  0
   23.8444   49.1740  -18.7864 C   0  0  0  0  0  0  0  0  0  0  0  0
   22.8849   49.4394  -19.6654 F   0  0  0  0  0  0  0  0  0  0  0  0
   25.1449   49.2889  -19.2024 C   0  0  0  0  0  0  0  0  0  0  0  0
   25.4374   49.6704  -20.4422 F   0  0  0  0  0  0  0  0  0  0  0  0
   26.1480   49.0400  -18.3136 C   0  0  0  0  0  0  0  0  0  0  0  0
   27.4045   49.1614  -18.7368 F   0  0  0  0  0  0  0  0  0  0  0  0
   25.8534   48.6468  -17.0332 C   0  0  0  0  0  0  0  0  0  0  0  0
   26.9008   48.4178  -16.2423 F   0  0  0  0  0  0  0  0  0  0  0  0
   24.5389   48.5085  -16.5668 C   0  0  0  0  0  0  0  0  0  0  0  0
 19 20  1  0  0  0
 20 21  1  0  0  0
 20 29  2  0  0  0
 21 22  1  0  0  0
 21 23  2  0  0  0
 23 24  1  0  0  0
 23 25  1  0  0  0
 25 26  1  0  0  0
 25 27  2  0  0  0
 27 28  1  0  0  0
 27 29  1  0  0  0
 29 18  1  0  0  0
 18  1  1  0  0  0
  1  2  1  0  0  0
  1  4  1  0  0  0
  2  3  1  0  0  0
  2 14  1  0  0  0
  2 10  1  0  0  0
 14 15  1  0  0  0
 14 16  2  0  0  0
  4  5  2  0  0  0
  4  6  1  0  0  0
  6  7  1  0  0  0
  6  8  1  0  0  0
  8  9  1  0  0  0
  8 10  1  0  0  0
  3 11  1  0  0  0
 15 17  1  0  0  0
  7 12  1  0  0  0
  9 13  1  0  0  0
M  END
> <minimizedAffinity>
-10.60753

$$$$
4B6S_2HN_A_200


 29 30  0  0  0  0  0  0  0  0999 V2000
   22.5495   48.6019  -14.3179 C   0  0  0  0  0  0  0  0  0  0  0  0
   22.2797   47.2214  -13.6989 C   0  0  0  0  0  0  0  0  0  0  0  0
   20.8877   46.9435  -13.6861 O   0  0  0  0  0  0  0  0  0  0  0  0
   22.1221   49.6173  -13.3030 C   0  0  0  0  0  0  0  0  0  0  0  0
   21.4587   50.5544  -13.7302 O   0  0  0  0  0  0  0  0  0  0  0  0
   22.5356   49.4811  -11.8129 C   0  0  0  0  0  0  0  0  0  0  0  0
   22.0241   50.5622  -11.0328 O   0  0  0  0  0  0  0  0  0  0  0  0
   22.1477   48.0990  -11.2881 C   0  0  0  0  0  0  0  0  0  0  0  0
   22.7469   47.9533  -10.0167 O   0  0  0  0  0  0  0  0  0  0  0  0
   22.8001   47.0701  -12.2445 C   0  0  0  0  0  0  0  0  0  0  0  0
   20.5323   47.0303  -14.5845 H   0  0  0  0  0  0  0  0  0  0  0  0
   21.0548   50.5553  -11.0670 H   0  0  0  0  0  0  0  0  0  0  0  0
   23.7058   48.0769  -10.0951 H   0  0  0  0  0  0  0  0  0  0  0  0
   22.9381   46.2283  -14.6288 C   0  0  0  0  0  0  0  0  0  0  0  0
   22.2041   45.7188  -15.4781 O   0  0  0  0  0  0  0  0  0  0  0  0
   24.1377   45.9911  -14.4621 O   0  0  0  0  0  0  0  0  0  0  0  0
   21.3014   45.9654  -15.5259 H   0  0  0  0  0  0  0  0  0  0  0  0
   24.0191   48.8928  -14.6006 C   0  0  0  0  0  0  0  0  0  0  0  0
   26.7226   49.0136  -15.5819 F   0  0  0  0  0  0  0  0  0  0  0  0
   25.7404   48.9411  -16.4989 C   0  0  0  0  0  0  0  0  0  0  0  0
   26.0894   48.9462  -17.8364 C   0  0  0  0  0  0  0  0  0  0  0  0
   27.3619   49.0270  -18.2082 F   0  0  0  0  0  0  0  0  0  0  0  0
   25.1376   48.8708  -18.8192 C   0  0  0  0  0  0  0  0  0  0  0  0
   25.4781   48.8616  -20.1046 F   0  0  0  0  0  0  0  0  0  0  0  0
   23.8259   48.7685  -18.4631 C   0  0  0  0  0  0  0  0  0  0  0  0
   22.9173   48.6922  -19.4334 F   0  0  0  0  0  0  0  0  0  0  0  0
   23.4678   48.7767  -17.1392 C   0  0  0  0  0  0  0  0  0  0  0  0
   22.1621   48.6818  -16.8919 F   0  0  0  0  0  0  0  0  0  0  0  0
   24.4061   48.8601  -16.1013 C   0  0  0  0  0  0  0  0  0  0  0  0
 19 20  1  0  0  0
 20 21  1  0  0  0
 20 29  2  0  0  0
 21 22  1  0  0  0
 21 23  2  0  0  0
 23 24  1  0  0  0
 23 25  1  0  0  0
 25 26  1  0  0  0
 25 27  2  0  0  0
 27 28  1  0  0  0
 27 29  1  0  0  0
 29 18  1  0  0  0
 18  1  1  0  0  0
  1  2  1  0  0  0
  1  4  1  0  0  0
  2  3  1  0  0  0
  2 14  1  0  0  0
  2 10  1  0  0  0
 14 15  1  0  0  0
 14 16  2  0  0  0
  4  5  2  0  0  0
  4  6  1  0  0  0
  6  7  1  0  0  0
  6  8  1  0  0  0
  8  9  1  0  0  0
  8 10  1  0  0  0
  3 11  1  0  0  0
 15 17  1  0  0  0
  7 12  1  0  0  0
  9 13  1  0  0  0
M  END
> <minimizedAffinity>
-9.75533

$$$$
4B6S_2HN_A_200


 29 30  0  0  0  0  0  0  0  0999 V2000
   22.5715   48.6072  -14.3194 C   0  0  0  0  0  0  0  0  0  0  0  0
   22.2950   47.2252  -13.7070 C   0  0  0  0  0  0  0  0  0  0  0  0
   20.9024   46.9497  -13.7047 O   0  0  0  0  0  0  0  0  0  0  0  0
   22.1390   49.6200  -13.3040 C   0  0  0  0  0  0  0  0  0  0  0  0
   21.4802   50.5597  -13.7325 O   0  0  0  0  0  0  0  0  0  0  0  0
   22.5420   49.4780  -11.8115 C   0  0  0  0  0  0  0  0  0  0  0  0
   22.0272   50.5573  -11.0313 O   0  0  0  0  0  0  0  0  0  0  0  0
   22.1481   48.0948  -11.2942 C   0  0  0  0  0  0  0  0  0  0  0  0
   22.7383   47.9436  -10.0192 O   0  0  0  0  0  0  0  0  0  0  0  0
   22.8052   47.0679  -12.2496 C   0  0  0  0  0  0  0  0  0  0  0  0
   20.5534   47.0402  -14.6052 H   0  0  0  0  0  0  0  0  0  0  0  0
   21.0581   50.5523  -11.0722 H   0  0  0  0  0  0  0  0  0  0  0  0
   23.6979   48.0658  -10.0906 H   0  0  0  0  0  0  0  0  0  0  0  0
   22.9579   46.2340  -14.6358 C   0  0  0  0  0  0  0  0  0  0  0  0
   22.2254   45.7167  -15.4815 O   0  0  0  0  0  0  0  0  0  0  0  0
   24.1597   46.0059  -14.4718 O   0  0  0  0  0  0  0  0  0  0  0  0
   21.3208   45.9566  -15.5275 H   0  0  0  0  0  0  0  0  0  0  0  0
   24.0435   48.8964  -14.5911 C   0  0  0  0  0  0  0  0  0  0  0  0
   22.1567   48.7515  -16.7603 F   0  0  0  0  0  0  0  0  0  0  0  0
   23.4615   48.8041  -17.0853 C   0  0  0  0  0  0  0  0  0  0  0  0
   23.8065   48.7685  -18.4234 C   0  0  0  0  0  0  0  0  0  0  0  0
   22.8744   48.6784  -19.3653 F   0  0  0  0  0  0  0  0  0  0  0  0
   25.1167   48.8223  -18.8209 C   0  0  0  0  0  0  0  0  0  0  0  0
   25.4441   48.8022  -20.1095 F   0  0  0  0  0  0  0  0  0  0  0  0
   26.0910   48.9336  -17.8741 C   0  0  0  0  0  0  0  0  0  0  0  0
   27.3574   48.9886  -18.2816 F   0  0  0  0  0  0  0  0  0  0  0  0
   25.7604   48.9555  -16.5433 C   0  0  0  0  0  0  0  0  0  0  0  0
   26.7822   49.0568  -15.6943 F   0  0  0  0  0  0  0  0  0  0  0  0
   24.4351   48.8949  -16.0909 C   0  0  0  0  0  0  0  0  0  0  0  0
 19 20  1  0  0  0
 20 21  1  0  0  0
 20 29  2  0  0  0
 21 22  1  0  0  0
 21 23  2  0  0  0
 23 24  1  0  0  0
 23 25  1  0  0  0
 25 26  1  0  0  0
 25 27  2  0  0  0
 27 28  1  0  0  0
 27 29  1  0  0  0
 29 18  1  0  0  0
 18  1  1  0  0  0
  1  2  1  0  0  0
  1  4  1  0  0  0
  2  3  1  0  0  0
  2 14  1  0  0  0
  2 10  1  0  0  0
 14 15  1  0  0  0
 14 16  2  0  0  0
  4  5  2  0  0  0
  4  6  1  0  0  0
  6  7  1  0  0  0
  6  8  1  0  0  0
  8  9  1  0  0  0
  8 10  1  0  0  0
  3 11  1  0  0  0
 15 17  1  0  0  0
  7 12  1  0  0  0
  9 13  1  0  0  0
M  END
> <minimizedAffinity>
-9.68152

$$$$
