1G48_F6B_A_555
  RCSB PDB12061702343D
Coordinates from PDB:1G48:A:555 Model:1 without hydrogens
 22 23  0  0  0  0            999 V2000
   -3.7940    3.5380   14.8550   C 0  0  0  0  0  0  0  0  0  0  0  0
   -4.2120    2.3990   15.5800   C 0  0  0  0  0  0  0  0  0  0  0  0
   -5.5880    2.2540   15.9480   C 0  0  0  0  0  0  0  0  0  0  0  0
   -6.4670    3.2680   15.5780   C 0  0  0  0  0  0  0  0  0  0  0  0
   -6.0260    4.3810   14.8680   C 0  0  0  0  0  0  0  0  0  0  0  0
   -4.7020    4.5370   14.4920   C 0  0  0  0  0  0  0  0  0  0  0  0
   -4.2770    5.7680   13.6970   C 0  0  0  0  0  0  0  0  0  0  0  0
   -5.1880    6.5530   13.4440   O 0  0  0  0  0  0  0  0  0  0  0  0
   -2.9710    6.0990   13.2190   N 0  0  0  0  0  0  0  0  0  0  0  0
   -2.7940    7.5340   12.9470   C 0  0  0  0  0  0  0  0  0  0  0  0
   -6.0930    0.7770   16.8530   S 0  0  0  0  0  0  0  0  0  0  0  0
   -5.6120   -0.6010   16.0100   N 0  0  0  0  0  0  0  0  0  0  0  0
   -7.5340    0.9560   16.9790   O 0  0  0  0  0  0  0  0  0  0  0  0
   -5.4420    0.9540   18.1540   O 0  0  0  0  0  0  0  0  0  0  0  0
   -1.6920    8.2620   13.4360   C 0  0  0  0  0  0  0  0  0  0  0  0
   -0.4240    8.1310   12.7780   C 0  0  0  0  0  0  0  0  0  0  0  0
    0.6970    8.8860   13.2940   C 0  0  0  0  0  0  0  0  0  0  0  0
    0.5280    9.7520   14.4460   C 0  0  0  0  0  0  0  0  0  0  0  0
   -0.7560    9.8670   15.0900   C 0  0  0  0  0  0  0  0  0  0  0  0
   -1.8630    9.1280   14.5920   C 0  0  0  0  0  0  0  0  0  0  0  0
   -0.2750    7.3300   11.7140   F 0  0  0  0  0  0  0  0  0  0  0  0
   -3.0470    9.2520   15.2070   F 0  0  0  0  0  0  0  0  0  0  0  0
  1  2  2  0  0  0  0
  1  6  1  0  0  0  0
  2  3  1  0  0  0  0
  3  4  2  0  0  0  0
  3 11  1  0  0  0  0
  4  5  1  0  0  0  0
  5  6  2  0  0  0  0
  6  7  1  0  0  0  0
  7  8  2  0  0  0  0
  7  9  1  0  0  0  0
  9 10  1  0  0  0  0
 10 15  1  0  0  0  0
 11 12  1  0  0  0  0
 11 13  2  0  0  0  0
 11 14  2  0  0  0  0
 15 16  2  0  0  0  0
 15 20  1  0  0  0  0
 16 17  1  0  0  0  0
 16 21  1  0  0  0  0
 17 18  2  0  0  0  0
 18 19  1  0  0  0  0
 19 20  2  0  0  0  0
 20 22  1  0  0  0  0
A    1
C01
A    2
C02
A    3
C03
A    4
C04
A    5
C05
A    6
C06
A    7
C07
A    8
O08
A    9
N09
A   10
C10
A   11
S11
A   12
NP2
A   13
O13
A   14
O14
A   15
C15
A   16
C16
A   17
C17
A   18
C18
A   19
C19
A   20
C20
A   21
F21
A   22
F22
M  END
>  <InstanceId>
1G48_F6B_A_555

>  <ChemCompId>
F6B

>  <PdbId>
1G48

>  <ChainId>
A

>  <ResidueNumber>
555

>  <InsertionCode>


>  <Model>
1

>  <AltIds>


>  <MissingHeavyAtoms>
0

>  <ObservedFormula>
C14 N2 O3 S F2

>  <Name>
N-(2,6-DIFLOURO-BENZYL)-4-SULFAMOYL-BENZAMIDE

>  <SystematicName>
N-[(2,6-difluorophenyl)methyl]-4-sulfamoyl-benzamide

>  <Synonyms>


>  <Type>
NON-POLYMER

>  <Formula>
C14 H12 F2 N2 O3 S

>  <MolecularWeight>
326.318

>  <ModifiedDate>
2011-06-04

>  <Parent>


>  <OneLetterCode>


>  <SubcomponentList>


>  <AmbiguousFlag>
N

>  <InChI>
InChI=1S/C14H12F2N2O3S/c15-12-2-1-3-13(16)11(12)8-18-14(19)9-4-6-10(7-5-9)22(17,20)21/h1-7H,8H2,(H,18,19)(H2,17,20,21)

>  <InChIKey>
ZFNCKGXGCCDDFN-UHFFFAOYSA-N

>  <SMILES>
c1cc(c(c(c1)F)CNC(=O)c2ccc(cc2)S(=O)(=O)N)F

$$$$
