4XAR_40F_A_601
  RCSB PDB12061716113D
Coordinates from PDB:4XAR:A:601 Model:1 without hydrogens
 13 14  0  0  0  0            999 V2000
   52.5050  -27.2410    7.2000   O 0  0  0  0  0  0  0  0  0  0  0  0
   52.1510  -24.7280    8.7850   C 0  0  0  0  0  0  0  0  0  0  0  0
   47.6410  -25.2330   11.1520   O 0  0  0  0  0  0  0  0  0  0  0  0
   52.3050  -25.5810   10.0520   C 0  0  0  0  0  0  0  0  0  0  0  0
   51.0090  -25.3680    7.9280   C 0  0  0  0  0  0  0  0  0  0  0  0
   51.0250  -26.3770   10.1620   C 0  0  0  0  0  0  0  0  0  0  0  0
   48.5540  -26.1310   10.8260   C 0  0  0  0  0  0  0  0  0  0  0  0
   49.7320  -25.5570   10.1540   C 0  0  0  0  0  0  0  0  0  0  0  0
   50.2220  -26.2460    8.8800   C 0  0  0  0  0  0  0  0  0  0  0  0
   48.3570  -27.2720   11.0890   O 0  0  0  0  0  0  0  0  0  0  0  0
   50.1790  -24.3460    7.2360   N 0  0  0  0  0  0  0  0  0  0  0  0
   51.6130  -26.2890    6.8840   C 0  0  0  0  0  0  0  0  0  0  0  0
   51.3370  -26.1830    5.7210   O 0  0  0  0  0  0  0  0  0  0  0  0
 13 12  2  0  0  0  0
 11  5  1  0  0  0  0
 12  5  1  0  0  0  0
 12  1  1  0  0  0  0
  5  9  1  0  0  0  0
  5  2  1  0  0  0  0
  9  8  1  0  0  0  0
  9  6  1  0  0  0  0
  2  4  1  0  0  0  0
  8  7  1  0  0  0  0
  8  6  1  0  0  0  0
  7 10  2  0  0  0  0
  7  3  1  0  0  0  0
  6  4  1  0  0  0  0
A    1
O1
A    2
C7
A    3
O2
A    4
C6
A    5
C1
A    6
C5
A    7
C4
A    8
C3
A    9
C2
A   10
O3
A   11
N
A   12
C
A   13
O
M  END
>  <InstanceId>
4XAR_40F_A_601

>  <ChemCompId>
40F

>  <PdbId>
4XAR

>  <ChainId>
A

>  <ResidueNumber>
601

>  <InsertionCode>


>  <Model>
1

>  <AltIds>


>  <MissingHeavyAtoms>
0

>  <ObservedFormula>
C8 N O4

>  <Name>
(1S,2S,5R,6S)-2-aminobicyclo[3.1.0]hexane-2,6-dicarboxylic acid

>  <SystematicName>
(1S,2S,5R,6S)-2-azanylbicyclo[3.1.0]hexane-2,6-dicarboxylic acid

>  <Synonyms>


>  <Type>
NON-POLYMER

>  <Formula>
C8 H11 N O4

>  <MolecularWeight>
185.177

>  <ModifiedDate>
2015-01-30

>  <Parent>


>  <OneLetterCode>


>  <SubcomponentList>


>  <AmbiguousFlag>
N

>  <InChI>
InChI=1S/C8H11NO4/c9-8(7(12)13)2-1-3-4(5(3)8)6(10)11/h3-5H,1-2,9H2,(H,10,11)(H,12,13)/t3-,4-,5-,8-/m0/s1

>  <InChIKey>
VTAARTQTOOYTES-RGDLXGNYSA-N

>  <SMILES>
C1C[C@]([C@H]2[C@@H]1[C@@H]2C(=O)O)(C(=O)O)N

$$$$
