5DGW_5B5_A_201


 46 49  0  0  0  0  0  0  0  0999 V2000
   17.3693   22.8533   16.5833 C   0  0  0  0  0  0  0  0  0  0  0  0
   18.2974   23.9790   16.7577 N   0  0  0  0  0  0  0  0  0  0  0  0
   17.9849   25.2568   16.9806 C   0  0  0  0  0  0  0  0  0  0  0  0
   16.8338   25.6219   17.2109 O   0  0  0  0  0  0  0  0  0  0  0  0
   19.2572   23.7666   16.7041 H   0  0  0  0  0  0  0  0  0  0  0  0
   19.0275   26.1359   16.9278 O   0  0  0  0  0  0  0  0  0  0  0  0
   20.1108   25.7098   16.0977 C   0  0  0  0  0  0  0  0  0  0  0  0
   20.0345   27.9766   15.0937 C   0  0  0  0  0  0  0  0  0  0  0  0
   21.2424   28.3751   15.7367 O   0  0  0  0  0  0  0  0  0  0  0  0
   21.6155   27.5872   16.8492 C   0  0  0  0  0  0  0  0  0  0  0  0
   20.9000   27.9541   18.0328 O   0  0  0  0  0  0  0  0  0  0  0  0
   21.1568   26.9328   18.9867 C   0  0  0  0  0  0  0  0  0  0  0  0
   21.4915   25.6644   18.2130 C   0  0  0  0  0  0  0  0  0  0  0  0
   21.4259   26.0989   16.7452 C   0  0  0  0  0  0  0  0  0  0  0  0
   19.9943   26.4830   14.7815 C   0  0  0  0  0  0  0  0  0  0  0  0
   22.8939   25.3353   18.5374 N   0  0  0  0  0  0  0  0  0  0  0  0
   23.0306   24.3289   18.4436 H   0  0  0  0  0  0  0  0  0  0  0  0
   23.2258   25.7393   19.9102 C   0  0  0  0  0  0  0  0  0  0  0  0
   23.3560   24.4834   20.7905 C   0  0  0  0  0  0  0  0  0  0  0  0
   18.0042   21.6147   17.2233 C   0  0  0  0  0  0  0  0  0  0  0  0
   18.6044   20.7737   16.2388 O   0  0  0  0  0  0  0  0  0  0  0  0
   17.9182   20.4293   15.6459 H   0  0  0  0  0  0  0  0  0  0  0  0
   17.0602   20.8261   18.1229 C   0  0  0  0  0  0  0  0  0  0  0  0
   16.7612   21.5496   19.3410 N   0  0  0  0  0  0  0  0  0  0  0  0
   15.1726   21.6235   19.7028 S   0  0  0  0  0  0  0  0  0  0  0  0
   14.5566   22.8110   19.0289 O   0  0  0  0  0  0  0  0  0  0  0  0
   15.0794   21.7483   21.1970 O   0  0  0  0  0  0  0  0  0  0  0  0
   12.6770   18.0515   18.4393 C   0  0  0  0  0  0  0  0  0  0  0  0
   13.5125   17.9471   19.5549 C   0  0  0  0  0  0  0  0  0  0  0  0
   14.2915   19.0376   19.9331 C   0  0  0  0  0  0  0  0  0  0  0  0
   14.2674   20.2110   19.1935 C   0  0  0  0  0  0  0  0  0  0  0  0
   13.3605   20.3382   18.1438 C   0  0  0  0  0  0  0  0  0  0  0  0
   12.5855   19.2470   17.7389 C   0  0  0  0  0  0  0  0  0  0  0  0
   11.9827   16.9522   18.0348 O   0  0  0  0  0  0  0  0  0  0  0  0
   10.9140   17.3451   17.1682 C   0  0  0  0  0  0  0  0  0  0  0  0
   17.5969   21.1974   20.4746 C   0  0  0  0  0  0  0  0  0  0  0  0
   18.6325   22.2813   20.7967 C   0  0  0  0  0  0  0  0  0  0  0  0
   20.0089   21.9764   20.1982 C   0  0  0  0  0  0  0  0  0  0  0  0
   18.1471   23.6423   20.2755 C   0  0  0  0  0  0  0  0  0  0  0  0
   17.1658   22.6721   15.0717 C   0  0  0  0  0  0  0  0  0  0  0  0
   15.2639   21.6764   13.7268 C   0  0  0  0  0  0  0  0  0  0  0  0
   13.9147   21.5638   13.3882 C   0  0  0  0  0  0  0  0  0  0  0  0
   12.9653   22.3022   14.0868 C   0  0  0  0  0  0  0  0  0  0  0  0
   13.3656   23.1712   15.0998 C   0  0  0  0  0  0  0  0  0  0  0  0
   14.7198   23.2901   15.4223 C   0  0  0  0  0  0  0  0  0  0  0  0
   15.6689   22.5458   14.7349 C   0  0  0  0  0  0  0  0  0  0  0  0
 43 44  2  0  0  0
 43 42  1  0  0  0
 44 45  1  0  0  0
 19 18  1  0  0  0
 42 41  2  0  0  0
 45 46  2  0  0  0
 34 28  1  0  0  0
 34 35  1  0  0  0
 33 28  2  0  0  0
 33 32  1  0  0  0
 18 16  1  0  0  0
 41 46  1  0  0  0
 28 29  1  0  0  0
 46 40  1  0  0  0
 32 31  2  0  0  0
 26 25  2  0  0  0
 29 30  2  0  0  0
 31 30  1  0  0  0
 31 25  1  0  0  0
 40  1  1  0  0  0
 16 13  1  0  0  0
 25 27  2  0  0  0
 25 24  1  0  0  0
 13 12  1  0  0  0
 13 14  1  0  0  0
  1  2  1  0  0  0
  1 20  1  0  0  0
 12 11  1  0  0  0
  4  3  2  0  0  0
 24 23  1  0  0  0
 24 36  1  0  0  0
 23 20  1  0  0  0
  2  3  1  0  0  0
  3  6  1  0  0  0
 20 21  1  0  0  0
 14  7  1  0  0  0
 14 10  1  0  0  0
  6  7  1  0  0  0
  7 15  1  0  0  0
 11 10  1  0  0  0
 36 37  1  0  0  0
 10  9  1  0  0  0
 38 37  1  0  0  0
 37 39  1  0  0  0
 15  8  1  0  0  0
  9  8  1  0  0  0
 21 22  1  0  0  0
  2  5  1  0  0  0
 16 17  1  0  0  0
M  END
> <minimizedAffinity>
-9.81733

$$$$
5DGW_5B5_A_201


 46 49  0  0  0  0  0  0  0  0999 V2000
   17.8709   24.2209   18.5787 C   0  0  0  0  0  0  0  0  0  0  0  0
   18.6459   25.1855   17.7863 N   0  0  0  0  0  0  0  0  0  0  0  0
   19.6092   24.9168   16.9030 C   0  0  0  0  0  0  0  0  0  0  0  0
   19.8683   23.7710   16.5406 O   0  0  0  0  0  0  0  0  0  0  0  0
   18.4303   26.1364   17.9223 H   0  0  0  0  0  0  0  0  0  0  0  0
   20.2957   25.9987   16.4331 O   0  0  0  0  0  0  0  0  0  0  0  0
   20.8849   25.8037   15.1451 C   0  0  0  0  0  0  0  0  0  0  0  0
   19.7254   27.8885   14.4660 C   0  0  0  0  0  0  0  0  0  0  0  0
   20.9395   28.6344   14.4388 O   0  0  0  0  0  0  0  0  0  0  0  0
   22.0110   28.0587   15.1586 C   0  0  0  0  0  0  0  0  0  0  0  0
   21.9178   28.3193   16.5625 O   0  0  0  0  0  0  0  0  0  0  0  0
   22.8750   27.4766   17.1889 C   0  0  0  0  0  0  0  0  0  0  0  0
   23.0955   26.2814   16.2710 C   0  0  0  0  0  0  0  0  0  0  0  0
   22.1922   26.5686   15.0673 C   0  0  0  0  0  0  0  0  0  0  0  0
   19.9268   26.4157   14.1197 C   0  0  0  0  0  0  0  0  0  0  0  0
   24.5010   26.3522   15.8239 N   0  0  0  0  0  0  0  0  0  0  0  0
   24.7467   25.4795   15.3565 H   0  0  0  0  0  0  0  0  0  0  0  0
   25.4062   26.5586   16.9623 C   0  0  0  0  0  0  0  0  0  0  0  0
   26.2015   25.2659   17.2182 C   0  0  0  0  0  0  0  0  0  0  0  0
   16.3946   24.3779   18.2009 C   0  0  0  0  0  0  0  0  0  0  0  0
   15.8128   25.5099   18.8466 O   0  0  0  0  0  0  0  0  0  0  0  0
   15.8156   25.3713   19.8067 H   0  0  0  0  0  0  0  0  0  0  0  0
   15.5584   23.1237   18.4244 C   0  0  0  0  0  0  0  0  0  0  0  0
   16.0037   22.0330   17.5825 N   0  0  0  0  0  0  0  0  0  0  0  0
   16.5800   20.7465   18.4029 S   0  0  0  0  0  0  0  0  0  0  0  0
   17.3690   21.2155   19.5868 O   0  0  0  0  0  0  0  0  0  0  0  0
   17.4527   19.9849   17.4463 O   0  0  0  0  0  0  0  0  0  0  0  0
   13.4503   17.9353   20.1016 C   0  0  0  0  0  0  0  0  0  0  0  0
   14.1300   17.5826   18.9322 C   0  0  0  0  0  0  0  0  0  0  0  0
   15.0785   18.4528   18.4011 C   0  0  0  0  0  0  0  0  0  0  0  0
   15.3286   19.6764   19.0050 C   0  0  0  0  0  0  0  0  0  0  0  0
   14.7186   19.9751   20.2212 C   0  0  0  0  0  0  0  0  0  0  0  0
   13.7497   19.1217   20.7581 C   0  0  0  0  0  0  0  0  0  0  0  0
   12.4696   17.1115   20.5639 O   0  0  0  0  0  0  0  0  0  0  0  0
   11.2096   17.4964   20.0054 C   0  0  0  0  0  0  0  0  0  0  0  0
   15.0835   21.6754   16.5182 C   0  0  0  0  0  0  0  0  0  0  0  0
   15.4342   22.3549   15.1892 C   0  0  0  0  0  0  0  0  0  0  0  0
   16.9204   22.7094   15.0839 C   0  0  0  0  0  0  0  0  0  0  0  0
   15.0500   21.4416   14.0154 C   0  0  0  0  0  0  0  0  0  0  0  0
   18.1189   24.5556   20.0571 C   0  0  0  0  0  0  0  0  0  0  0  0
   20.3078   25.4599   20.9563 C   0  0  0  0  0  0  0  0  0  0  0  0
   21.6639   25.3380   21.2624 C   0  0  0  0  0  0  0  0  0  0  0  0
   22.3114   24.1253   21.0511 C   0  0  0  0  0  0  0  0  0  0  0  0
   21.6138   23.0479   20.5091 C   0  0  0  0  0  0  0  0  0  0  0  0
   20.2601   23.1825   20.1906 C   0  0  0  0  0  0  0  0  0  0  0  0
   19.6078   24.3880   20.4111 C   0  0  0  0  0  0  0  0  0  0  0  0
 43 44  2  0  0  0
 43 42  1  0  0  0
 44 45  1  0  0  0
 19 18  1  0  0  0
 42 41  2  0  0  0
 45 46  2  0  0  0
 34 28  1  0  0  0
 34 35  1  0  0  0
 33 28  2  0  0  0
 33 32  1  0  0  0
 18 16  1  0  0  0
 41 46  1  0  0  0
 28 29  1  0  0  0
 46 40  1  0  0  0
 32 31  2  0  0  0
 26 25  2  0  0  0
 29 30  2  0  0  0
 31 30  1  0  0  0
 31 25  1  0  0  0
 40  1  1  0  0  0
 16 13  1  0  0  0
 25 27  2  0  0  0
 25 24  1  0  0  0
 13 12  1  0  0  0
 13 14  1  0  0  0
  1  2  1  0  0  0
  1 20  1  0  0  0
 12 11  1  0  0  0
  4  3  2  0  0  0
 24 23  1  0  0  0
 24 36  1  0  0  0
 23 20  1  0  0  0
  2  3  1  0  0  0
  3  6  1  0  0  0
 20 21  1  0  0  0
 14  7  1  0  0  0
 14 10  1  0  0  0
  6  7  1  0  0  0
  7 15  1  0  0  0
 11 10  1  0  0  0
 36 37  1  0  0  0
 10  9  1  0  0  0
 38 37  1  0  0  0
 37 39  1  0  0  0
 15  8  1  0  0  0
  9  8  1  0  0  0
 21 22  1  0  0  0
  2  5  1  0  0  0
 16 17  1  0  0  0
M  END
> <minimizedAffinity>
-9.48550

$$$$
5DGW_5B5_A_201


 46 49  0  0  0  0  0  0  0  0999 V2000
   13.9434   21.9464   16.0141 C   0  0  0  0  0  0  0  0  0  0  0  0
   13.4359   21.1647   17.1501 N   0  0  0  0  0  0  0  0  0  0  0  0
   13.7711   19.9181   17.4874 C   0  0  0  0  0  0  0  0  0  0  0  0
   14.6866   19.3110   16.9354 O   0  0  0  0  0  0  0  0  0  0  0  0
   12.7745   21.6108   17.7270 H   0  0  0  0  0  0  0  0  0  0  0  0
   13.0241   19.3559   18.4816 O   0  0  0  0  0  0  0  0  0  0  0  0
   13.5000   18.0818   18.9222 C   0  0  0  0  0  0  0  0  0  0  0  0
   12.4577   18.6172   21.1083 C   0  0  0  0  0  0  0  0  0  0  0  0
   11.4025   17.6798   20.9105 O   0  0  0  0  0  0  0  0  0  0  0  0
   11.1983   17.2837   19.5692 C   0  0  0  0  0  0  0  0  0  0  0  0
   10.4392   18.2477   18.8330 O   0  0  0  0  0  0  0  0  0  0  0  0
   10.5383   17.8735   17.4659 C   0  0  0  0  0  0  0  0  0  0  0  0
   11.8334   17.0885   17.3040 C   0  0  0  0  0  0  0  0  0  0  0  0
   12.4158   17.0408   18.7203 C   0  0  0  0  0  0  0  0  0  0  0  0
   13.7577   18.1985   20.4268 C   0  0  0  0  0  0  0  0  0  0  0  0
   11.4450   15.7179   16.9154 N   0  0  0  0  0  0  0  0  0  0  0  0
   12.2743   15.2116   16.6052 H   0  0  0  0  0  0  0  0  0  0  0  0
   10.4595   15.7385   15.8263 C   0  0  0  0  0  0  0  0  0  0  0  0
   11.0709   15.0790   14.5772 C   0  0  0  0  0  0  0  0  0  0  0  0
   14.4621   23.2825   16.5548 C   0  0  0  0  0  0  0  0  0  0  0  0
   14.8103   24.1702   15.4929 O   0  0  0  0  0  0  0  0  0  0  0  0
   15.5497   23.7966   14.9884 H   0  0  0  0  0  0  0  0  0  0  0  0
   15.6008   23.1477   17.5585 C   0  0  0  0  0  0  0  0  0  0  0  0
   16.4223   21.9893   17.2755 N   0  0  0  0  0  0  0  0  0  0  0  0
   17.5986   22.2552   16.1775 S   0  0  0  0  0  0  0  0  0  0  0  0
   17.0171   22.2222   14.7973 O   0  0  0  0  0  0  0  0  0  0  0  0
   18.6089   21.1583   16.3585 O   0  0  0  0  0  0  0  0  0  0  0  0
   19.7757   26.2213   16.5153 C   0  0  0  0  0  0  0  0  0  0  0  0
   20.0200   25.2196   17.4591 C   0  0  0  0  0  0  0  0  0  0  0  0
   19.3394   24.0083   17.3657 C   0  0  0  0  0  0  0  0  0  0  0  0
   18.4010   23.8027   16.3650 C   0  0  0  0  0  0  0  0  0  0  0  0
   18.2367   24.7679   15.3740 C   0  0  0  0  0  0  0  0  0  0  0  0
   18.8973   25.9970   15.4635 C   0  0  0  0  0  0  0  0  0  0  0  0
   20.3884   27.4279   16.6662 O   0  0  0  0  0  0  0  0  0  0  0  0
   20.7544   27.9497   15.3850 C   0  0  0  0  0  0  0  0  0  0  0  0
   16.8797   21.2702   18.4506 C   0  0  0  0  0  0  0  0  0  0  0  0
   16.5728   22.0211   19.7518 C   0  0  0  0  0  0  0  0  0  0  0  0
   15.7755   21.1726   20.7467 C   0  0  0  0  0  0  0  0  0  0  0  0
   17.8809   22.4782   20.4149 C   0  0  0  0  0  0  0  0  0  0  0  0
   12.7676   22.1420   15.0455 C   0  0  0  0  0  0  0  0  0  0  0  0
   13.3423   20.1096   13.6467 C   0  0  0  0  0  0  0  0  0  0  0  0
   13.0120   18.9117   13.0113 C   0  0  0  0  0  0  0  0  0  0  0  0
   11.7257   18.3976   13.1363 C   0  0  0  0  0  0  0  0  0  0  0  0
   10.7656   19.0925   13.8689 C   0  0  0  0  0  0  0  0  0  0  0  0
   11.0996   20.2991   14.4890 C   0  0  0  0  0  0  0  0  0  0  0  0
   12.3858   20.8092   14.3761 C   0  0  0  0  0  0  0  0  0  0  0  0
 43 44  2  0  0  0
 43 42  1  0  0  0
 44 45  1  0  0  0
 19 18  1  0  0  0
 42 41  2  0  0  0
 45 46  2  0  0  0
 34 28  1  0  0  0
 34 35  1  0  0  0
 33 28  2  0  0  0
 33 32  1  0  0  0
 18 16  1  0  0  0
 41 46  1  0  0  0
 28 29  1  0  0  0
 46 40  1  0  0  0
 32 31  2  0  0  0
 26 25  2  0  0  0
 29 30  2  0  0  0
 31 30  1  0  0  0
 31 25  1  0  0  0
 40  1  1  0  0  0
 16 13  1  0  0  0
 25 27  2  0  0  0
 25 24  1  0  0  0
 13 12  1  0  0  0
 13 14  1  0  0  0
  1  2  1  0  0  0
  1 20  1  0  0  0
 12 11  1  0  0  0
  4  3  2  0  0  0
 24 23  1  0  0  0
 24 36  1  0  0  0
 23 20  1  0  0  0
  2  3  1  0  0  0
  3  6  1  0  0  0
 20 21  1  0  0  0
 14  7  1  0  0  0
 14 10  1  0  0  0
  6  7  1  0  0  0
  7 15  1  0  0  0
 11 10  1  0  0  0
 36 37  1  0  0  0
 10  9  1  0  0  0
 38 37  1  0  0  0
 37 39  1  0  0  0
 15  8  1  0  0  0
  9  8  1  0  0  0
 21 22  1  0  0  0
  2  5  1  0  0  0
 16 17  1  0  0  0
M  END
> <minimizedAffinity>
-9.35872

$$$$
5DGW_5B5_A_201


 46 49  0  0  0  0  0  0  0  0999 V2000
   16.6161   21.6885   18.3595 C   0  0  0  0  0  0  0  0  0  0  0  0
   15.3299   20.9809   18.4229 N   0  0  0  0  0  0  0  0  0  0  0  0
   14.1363   21.4989   18.7182 C   0  0  0  0  0  0  0  0  0  0  0  0
   13.9566   22.7089   18.8408 O   0  0  0  0  0  0  0  0  0  0  0  0
   15.3512   20.0166   18.2253 H   0  0  0  0  0  0  0  0  0  0  0  0
   13.1270   20.5955   18.8843 O   0  0  0  0  0  0  0  0  0  0  0  0
   13.5076   19.2402   18.6345 C   0  0  0  0  0  0  0  0  0  0  0  0
   12.0032   18.6306   20.5099 C   0  0  0  0  0  0  0  0  0  0  0  0
   11.0276   18.0717   19.6339 O   0  0  0  0  0  0  0  0  0  0  0  0
   11.1286   18.4840   18.2858 C   0  0  0  0  0  0  0  0  0  0  0  0
   10.5403   19.7705   18.0709 O   0  0  0  0  0  0  0  0  0  0  0  0
   10.9425   20.1809   16.7714 C   0  0  0  0  0  0  0  0  0  0  0  0
   12.2497   19.4662   16.4553 C   0  0  0  0  0  0  0  0  0  0  0  0
   12.5058   18.6001   17.6929 C   0  0  0  0  0  0  0  0  0  0  0  0
   13.4259   18.5006   19.9725 C   0  0  0  0  0  0  0  0  0  0  0  0
   11.9712   18.5728   15.3131 N   0  0  0  0  0  0  0  0  0  0  0  0
   12.8164   18.0488   15.0857 H   0  0  0  0  0  0  0  0  0  0  0  0
   11.5505   19.3410   14.1337 C   0  0  0  0  0  0  0  0  0  0  0  0
   12.6449   19.2531   13.0550 C   0  0  0  0  0  0  0  0  0  0  0  0
   17.2333   21.4233   16.9827 C   0  0  0  0  0  0  0  0  0  0  0  0
   18.1046   20.2934   17.0153 O   0  0  0  0  0  0  0  0  0  0  0  0
   18.8566   20.4816   17.5983 H   0  0  0  0  0  0  0  0  0  0  0  0
   17.9218   22.6347   16.3658 C   0  0  0  0  0  0  0  0  0  0  0  0
   16.9621   23.5527   15.7887 N   0  0  0  0  0  0  0  0  0  0  0  0
   17.3102   25.1269   16.0349 S   0  0  0  0  0  0  0  0  0  0  0  0
   16.8443   25.5393   17.3976 O   0  0  0  0  0  0  0  0  0  0  0  0
   16.5873   25.8972   14.9668 O   0  0  0  0  0  0  0  0  0  0  0  0
   21.7021   26.2475   15.8373 C   0  0  0  0  0  0  0  0  0  0  0  0
   21.0029   25.9932   14.6541 C   0  0  0  0  0  0  0  0  0  0  0  0
   19.6592   25.6327   14.7151 C   0  0  0  0  0  0  0  0  0  0  0  0
   19.0219   25.4936   15.9394 C   0  0  0  0  0  0  0  0  0  0  0  0
   19.6991   25.8437   17.1054 C   0  0  0  0  0  0  0  0  0  0  0  0
   21.0534   26.1886   17.0637 C   0  0  0  0  0  0  0  0  0  0  0  0
   23.0343   26.5202   15.7661 O   0  0  0  0  0  0  0  0  0  0  0  0
   23.4511   27.2141   16.9461 C   0  0  0  0  0  0  0  0  0  0  0  0
   16.5837   23.2512   14.4200 C   0  0  0  0  0  0  0  0  0  0  0  0
   15.5430   22.1283   14.3350 C   0  0  0  0  0  0  0  0  0  0  0  0
   14.1585   22.5717   14.8167 C   0  0  0  0  0  0  0  0  0  0  0  0
   15.4345   21.6217   12.8889 C   0  0  0  0  0  0  0  0  0  0  0  0
   17.4898   21.1295   19.4923 C   0  0  0  0  0  0  0  0  0  0  0  0
   19.8501   21.7999   20.1228 C   0  0  0  0  0  0  0  0  0  0  0  0
   20.7975   22.7259   20.5616 C   0  0  0  0  0  0  0  0  0  0  0  0
   20.4158   24.0424   20.7977 C   0  0  0  0  0  0  0  0  0  0  0  0
   19.0874   24.4248   20.6239 C   0  0  0  0  0  0  0  0  0  0  0  0
   18.1416   23.4881   20.1995 C   0  0  0  0  0  0  0  0  0  0  0  0
   18.5214   22.1760   19.9517 C   0  0  0  0  0  0  0  0  0  0  0  0
 43 44  2  0  0  0
 43 42  1  0  0  0
 44 45  1  0  0  0
 19 18  1  0  0  0
 42 41  2  0  0  0
 45 46  2  0  0  0
 34 28  1  0  0  0
 34 35  1  0  0  0
 33 28  2  0  0  0
 33 32  1  0  0  0
 18 16  1  0  0  0
 41 46  1  0  0  0
 28 29  1  0  0  0
 46 40  1  0  0  0
 32 31  2  0  0  0
 26 25  2  0  0  0
 29 30  2  0  0  0
 31 30  1  0  0  0
 31 25  1  0  0  0
 40  1  1  0  0  0
 16 13  1  0  0  0
 25 27  2  0  0  0
 25 24  1  0  0  0
 13 12  1  0  0  0
 13 14  1  0  0  0
  1  2  1  0  0  0
  1 20  1  0  0  0
 12 11  1  0  0  0
  4  3  2  0  0  0
 24 23  1  0  0  0
 24 36  1  0  0  0
 23 20  1  0  0  0
  2  3  1  0  0  0
  3  6  1  0  0  0
 20 21  1  0  0  0
 14  7  1  0  0  0
 14 10  1  0  0  0
  6  7  1  0  0  0
  7 15  1  0  0  0
 11 10  1  0  0  0
 36 37  1  0  0  0
 10  9  1  0  0  0
 38 37  1  0  0  0
 37 39  1  0  0  0
 15  8  1  0  0  0
  9  8  1  0  0  0
 21 22  1  0  0  0
  2  5  1  0  0  0
 16 17  1  0  0  0
M  END
> <minimizedAffinity>
-9.24048

$$$$
5DGW_5B5_A_201


 46 49  0  0  0  0  0  0  0  0999 V2000
   15.3467   22.2885   18.9831 C   0  0  0  0  0  0  0  0  0  0  0  0
   14.2756   21.2859   19.0646 N   0  0  0  0  0  0  0  0  0  0  0  0
   14.0923   20.3753   20.0224 C   0  0  0  0  0  0  0  0  0  0  0  0
   14.7541   20.3681   21.0585 O   0  0  0  0  0  0  0  0  0  0  0  0
   13.6199   21.2861   18.3303 H   0  0  0  0  0  0  0  0  0  0  0  0
   13.1257   19.4447   19.7729 O   0  0  0  0  0  0  0  0  0  0  0  0
   13.6072   18.2552   19.1426 C   0  0  0  0  0  0  0  0  0  0  0  0
   12.4034   17.0083   20.9169 C   0  0  0  0  0  0  0  0  0  0  0  0
   11.3916   16.5684   20.0146 O   0  0  0  0  0  0  0  0  0  0  0  0
   11.2908   17.3155   18.8191 C   0  0  0  0  0  0  0  0  0  0  0  0
   10.5561   18.5294   19.0034 O   0  0  0  0  0  0  0  0  0  0  0  0
   10.7588   19.3006   17.8274 C   0  0  0  0  0  0  0  0  0  0  0  0
   12.0841   18.8600   17.2198 C   0  0  0  0  0  0  0  0  0  0  0  0
   12.5698   17.7505   18.1581 C   0  0  0  0  0  0  0  0  0  0  0  0
   13.7584   17.1990   20.2405 C   0  0  0  0  0  0  0  0  0  0  0  0
   11.7628   18.2543   15.9120 N   0  0  0  0  0  0  0  0  0  0  0  0
   12.4173   18.6047   15.2125 H   0  0  0  0  0  0  0  0  0  0  0  0
   10.3934   18.5888   15.4987 C   0  0  0  0  0  0  0  0  0  0  0  0
   10.2199   18.2586   14.0054 C   0  0  0  0  0  0  0  0  0  0  0  0
   15.0330   23.2198   17.8080 C   0  0  0  0  0  0  0  0  0  0  0  0
   14.4876   24.4585   18.2607 O   0  0  0  0  0  0  0  0  0  0  0  0
   13.6337   24.2975   18.6917 H   0  0  0  0  0  0  0  0  0  0  0  0
   14.1566   22.5902   16.7320 C   0  0  0  0  0  0  0  0  0  0  0  0
   14.5541   23.0186   15.4071 N   0  0  0  0  0  0  0  0  0  0  0  0
   16.0021   22.4440   14.9242 S   0  0  0  0  0  0  0  0  0  0  0  0
   16.0010   22.2589   13.4377 O   0  0  0  0  0  0  0  0  0  0  0  0
   16.1971   21.1304   15.6266 O   0  0  0  0  0  0  0  0  0  0  0  0
   19.4425   25.1535   16.1099 C   0  0  0  0  0  0  0  0  0  0  0  0
   18.2974   25.7084   15.5315 C   0  0  0  0  0  0  0  0  0  0  0  0
   17.2481   24.8753   15.1519 C   0  0  0  0  0  0  0  0  0  0  0  0
   17.3454   23.5010   15.3139 C   0  0  0  0  0  0  0  0  0  0  0  0
   18.4472   22.9682   15.9794 C   0  0  0  0  0  0  0  0  0  0  0  0
   19.5178   23.7878   16.3495 C   0  0  0  0  0  0  0  0  0  0  0  0
   20.4916   25.9710   16.4018 O   0  0  0  0  0  0  0  0  0  0  0  0
   20.3248   26.5259   17.7102 C   0  0  0  0  0  0  0  0  0  0  0  0
   13.5186   22.9000   14.3967 C   0  0  0  0  0  0  0  0  0  0  0  0
   12.6874   21.6217   14.5586 C   0  0  0  0  0  0  0  0  0  0  0  0
   11.1861   21.8703   14.3860 C   0  0  0  0  0  0  0  0  0  0  0  0
   13.1435   20.5666   13.5396 C   0  0  0  0  0  0  0  0  0  0  0  0
   16.6604   21.5224   18.7676 C   0  0  0  0  0  0  0  0  0  0  0  0
   18.8922   21.4552   19.9642 C   0  0  0  0  0  0  0  0  0  0  0  0
   19.9444   22.0588   20.6543 C   0  0  0  0  0  0  0  0  0  0  0  0
   19.9381   23.4355   20.8526 C   0  0  0  0  0  0  0  0  0  0  0  0
   18.8707   24.2015   20.3888 C   0  0  0  0  0  0  0  0  0  0  0  0
   17.8133   23.5877   19.7127 C   0  0  0  0  0  0  0  0  0  0  0  0
   17.8221   22.2155   19.5027 C   0  0  0  0  0  0  0  0  0  0  0  0
 43 44  2  0  0  0
 43 42  1  0  0  0
 44 45  1  0  0  0
 19 18  1  0  0  0
 42 41  2  0  0  0
 45 46  2  0  0  0
 34 28  1  0  0  0
 34 35  1  0  0  0
 33 28  2  0  0  0
 33 32  1  0  0  0
 18 16  1  0  0  0
 41 46  1  0  0  0
 28 29  1  0  0  0
 46 40  1  0  0  0
 32 31  2  0  0  0
 26 25  2  0  0  0
 29 30  2  0  0  0
 31 30  1  0  0  0
 31 25  1  0  0  0
 40  1  1  0  0  0
 16 13  1  0  0  0
 25 27  2  0  0  0
 25 24  1  0  0  0
 13 12  1  0  0  0
 13 14  1  0  0  0
  1  2  1  0  0  0
  1 20  1  0  0  0
 12 11  1  0  0  0
  4  3  2  0  0  0
 24 23  1  0  0  0
 24 36  1  0  0  0
 23 20  1  0  0  0
  2  3  1  0  0  0
  3  6  1  0  0  0
 20 21  1  0  0  0
 14  7  1  0  0  0
 14 10  1  0  0  0
  6  7  1  0  0  0
  7 15  1  0  0  0
 11 10  1  0  0  0
 36 37  1  0  0  0
 10  9  1  0  0  0
 38 37  1  0  0  0
 37 39  1  0  0  0
 15  8  1  0  0  0
  9  8  1  0  0  0
 21 22  1  0  0  0
  2  5  1  0  0  0
 16 17  1  0  0  0
M  END
> <minimizedAffinity>
-9.23360

$$$$
5DGW_5B5_A_201


 46 49  0  0  0  0  0  0  0  0999 V2000
   15.4117   22.9221   17.3467 C   0  0  0  0  0  0  0  0  0  0  0  0
   14.4895   22.0000   18.0236 N   0  0  0  0  0  0  0  0  0  0  0  0
   14.4466   20.6713   17.9094 C   0  0  0  0  0  0  0  0  0  0  0  0
   15.3050   20.0355   17.3010 O   0  0  0  0  0  0  0  0  0  0  0  0
   13.8293   22.4082   18.6293 H   0  0  0  0  0  0  0  0  0  0  0  0
   13.3806   20.0631   18.5062 O   0  0  0  0  0  0  0  0  0  0  0  0
   13.4355   18.6346   18.4869 C   0  0  0  0  0  0  0  0  0  0  0  0
   12.1001   18.7054   20.5758 C   0  0  0  0  0  0  0  0  0  0  0  0
   10.9224   18.2456   19.9179 O   0  0  0  0  0  0  0  0  0  0  0  0
   10.9266   18.3932   18.5123 C   0  0  0  0  0  0  0  0  0  0  0  0
   10.5945   19.7256   18.1101 O   0  0  0  0  0  0  0  0  0  0  0  0
   10.8966   19.8109   16.7243 C   0  0  0  0  0  0  0  0  0  0  0  0
   11.9736   18.7747   16.4312 C   0  0  0  0  0  0  0  0  0  0  0  0
   12.2068   18.0918   17.7828 C   0  0  0  0  0  0  0  0  0  0  0  0
   13.3808   18.1669   19.9436 C   0  0  0  0  0  0  0  0  0  0  0  0
   11.3669   17.7906   15.5126 N   0  0  0  0  0  0  0  0  0  0  0  0
   12.0498   17.0615   15.3064 H   0  0  0  0  0  0  0  0  0  0  0  0
   10.9517   18.4288   14.2563 C   0  0  0  0  0  0  0  0  0  0  0  0
   11.7278   17.7976   13.0866 C   0  0  0  0  0  0  0  0  0  0  0  0
   15.9620   23.8937   18.3955 C   0  0  0  0  0  0  0  0  0  0  0  0
   15.0417   24.9540   18.6518 O   0  0  0  0  0  0  0  0  0  0  0  0
   14.9288   25.4854   17.8482 H   0  0  0  0  0  0  0  0  0  0  0  0
   17.3512   24.4324   18.0762 C   0  0  0  0  0  0  0  0  0  0  0  0
   18.3794   23.7006   18.7861 N   0  0  0  0  0  0  0  0  0  0  0  0
   19.8530   24.3979   18.7358 S   0  0  0  0  0  0  0  0  0  0  0  0
   20.9130   23.3399   18.7680 O   0  0  0  0  0  0  0  0  0  0  0  0
   19.9474   25.2866   19.9432 O   0  0  0  0  0  0  0  0  0  0  0  0
   20.7224   26.8084   14.9918 C   0  0  0  0  0  0  0  0  0  0  0  0
   20.7654   27.4362   16.2399 C   0  0  0  0  0  0  0  0  0  0  0  0
   20.4820   26.7008   17.3879 C   0  0  0  0  0  0  0  0  0  0  0  0
   20.1274   25.3627   17.2978 C   0  0  0  0  0  0  0  0  0  0  0  0
   20.1828   24.7232   16.0615 C   0  0  0  0  0  0  0  0  0  0  0  0
   20.4463   25.4508   14.8969 C   0  0  0  0  0  0  0  0  0  0  0  0
   20.9229   27.5585   13.8732 O   0  0  0  0  0  0  0  0  0  0  0  0
   22.1977   28.2046   13.9445 C   0  0  0  0  0  0  0  0  0  0  0  0
   17.9966   23.2524   20.1127 C   0  0  0  0  0  0  0  0  0  0  0  0
   18.1382   21.7349   20.2807 C   0  0  0  0  0  0  0  0  0  0  0  0
   19.2020   21.3541   21.3145 C   0  0  0  0  0  0  0  0  0  0  0  0
   16.7911   21.1249   20.6964 C   0  0  0  0  0  0  0  0  0  0  0  0
   14.6006   23.6512   16.2652 C   0  0  0  0  0  0  0  0  0  0  0  0
   15.3844   22.2014   14.3412 C   0  0  0  0  0  0  0  0  0  0  0  0
   15.1526   21.3731   13.2422 C   0  0  0  0  0  0  0  0  0  0  0  0
   13.8481   21.0358   12.8971 C   0  0  0  0  0  0  0  0  0  0  0  0
   12.7789   21.5474   13.6294 C   0  0  0  0  0  0  0  0  0  0  0  0
   13.0185   22.3887   14.7188 C   0  0  0  0  0  0  0  0  0  0  0  0
   14.3198   22.7181   15.0732 C   0  0  0  0  0  0  0  0  0  0  0  0
 43 44  2  0  0  0
 43 42  1  0  0  0
 44 45  1  0  0  0
 19 18  1  0  0  0
 42 41  2  0  0  0
 45 46  2  0  0  0
 34 28  1  0  0  0
 34 35  1  0  0  0
 33 28  2  0  0  0
 33 32  1  0  0  0
 18 16  1  0  0  0
 41 46  1  0  0  0
 28 29  1  0  0  0
 46 40  1  0  0  0
 32 31  2  0  0  0
 26 25  2  0  0  0
 29 30  2  0  0  0
 31 30  1  0  0  0
 31 25  1  0  0  0
 40  1  1  0  0  0
 16 13  1  0  0  0
 25 27  2  0  0  0
 25 24  1  0  0  0
 13 12  1  0  0  0
 13 14  1  0  0  0
  1  2  1  0  0  0
  1 20  1  0  0  0
 12 11  1  0  0  0
  4  3  2  0  0  0
 24 23  1  0  0  0
 24 36  1  0  0  0
 23 20  1  0  0  0
  2  3  1  0  0  0
  3  6  1  0  0  0
 20 21  1  0  0  0
 14  7  1  0  0  0
 14 10  1  0  0  0
  6  7  1  0  0  0
  7 15  1  0  0  0
 11 10  1  0  0  0
 36 37  1  0  0  0
 10  9  1  0  0  0
 38 37  1  0  0  0
 37 39  1  0  0  0
 15  8  1  0  0  0
  9  8  1  0  0  0
 21 22  1  0  0  0
  2  5  1  0  0  0
 16 17  1  0  0  0
M  END
> <minimizedAffinity>
-9.16051

$$$$
5DGW_5B5_A_201


 46 49  0  0  0  0  0  0  0  0999 V2000
   18.3364   25.6657   16.9310 C   0  0  0  0  0  0  0  0  0  0  0  0
   19.3984   25.3333   17.8906 N   0  0  0  0  0  0  0  0  0  0  0  0
   20.3522   26.1436   18.3530 C   0  0  0  0  0  0  0  0  0  0  0  0
   20.3612   27.3502   18.1177 O   0  0  0  0  0  0  0  0  0  0  0  0
   19.4071   24.4093   18.2303 H   0  0  0  0  0  0  0  0  0  0  0  0
   21.3245   25.5430   19.0990 O   0  0  0  0  0  0  0  0  0  0  0  0
   21.1765   25.7251   20.5093 C   0  0  0  0  0  0  0  0  0  0  0  0
   20.3466   23.3886   20.5715 C   0  0  0  0  0  0  0  0  0  0  0  0
   21.5396   22.9103   21.1873 O   0  0  0  0  0  0  0  0  0  0  0  0
   22.6594   23.7640   21.0645 C   0  0  0  0  0  0  0  0  0  0  0  0
   23.2996   23.6320   19.7917 O   0  0  0  0  0  0  0  0  0  0  0  0
   24.2169   24.7126   19.6927 C   0  0  0  0  0  0  0  0  0  0  0  0
   23.6995   25.8293   20.5899 C   0  0  0  0  0  0  0  0  0  0  0  0
   22.4294   25.2426   21.2145 C   0  0  0  0  0  0  0  0  0  0  0  0
   20.0180   24.8290   20.9551 C   0  0  0  0  0  0  0  0  0  0  0  0
   24.7035   26.0055   21.6582 N   0  0  0  0  0  0  0  0  0  0  0  0
   25.3875   25.2510   21.6008 H   0  0  0  0  0  0  0  0  0  0  0  0
   24.0716   25.9811   22.9841 C   0  0  0  0  0  0  0  0  0  0  0  0
   24.8601   25.0315   23.9037 C   0  0  0  0  0  0  0  0  0  0  0  0
   17.0655   24.9246   17.3582 C   0  0  0  0  0  0  0  0  0  0  0  0
   16.1877   25.7811   18.0881 O   0  0  0  0  0  0  0  0  0  0  0  0
   16.6144   26.0513   18.9163 H   0  0  0  0  0  0  0  0  0  0  0  0
   17.3261   23.6269   18.1133 C   0  0  0  0  0  0  0  0  0  0  0  0
   16.7936   22.4837   17.4017 N   0  0  0  0  0  0  0  0  0  0  0  0
   17.2238   21.0427   18.0330 S   0  0  0  0  0  0  0  0  0  0  0  0
   18.3616   21.2303   18.9891 O   0  0  0  0  0  0  0  0  0  0  0  0
   17.6336   20.1745   16.8776 O   0  0  0  0  0  0  0  0  0  0  0  0
   14.0103   18.9134   20.4254 C   0  0  0  0  0  0  0  0  0  0  0  0
   14.3406   18.4477   19.1496 C   0  0  0  0  0  0  0  0  0  0  0  0
   15.3148   19.1111   18.4080 C   0  0  0  0  0  0  0  0  0  0  0  0
   15.9338   20.2454   18.9127 C   0  0  0  0  0  0  0  0  0  0  0  0
   15.6687   20.6429   20.2213 C   0  0  0  0  0  0  0  0  0  0  0  0
   14.6798   20.0002   20.9722 C   0  0  0  0  0  0  0  0  0  0  0  0
   13.0004   18.3033   21.1051 O   0  0  0  0  0  0  0  0  0  0  0  0
   11.8353   18.2277   20.2778 C   0  0  0  0  0  0  0  0  0  0  0  0
   15.3812   22.5757   17.0796 C   0  0  0  0  0  0  0  0  0  0  0  0
   15.1096   22.3888   15.5820 C   0  0  0  0  0  0  0  0  0  0  0  0
   16.3709   22.5577   14.7299 C   0  0  0  0  0  0  0  0  0  0  0  0
   14.5122   20.9969   15.3267 C   0  0  0  0  0  0  0  0  0  0  0  0
   18.8245   25.2085   15.5483 C   0  0  0  0  0  0  0  0  0  0  0  0
   21.2454   25.6711   14.9630 C   0  0  0  0  0  0  0  0  0  0  0  0
   22.2730   26.5038   14.5179 C   0  0  0  0  0  0  0  0  0  0  0  0
   21.9798   27.7995   14.1056 C   0  0  0  0  0  0  0  0  0  0  0  0
   20.6699   28.2703   14.1656 C   0  0  0  0  0  0  0  0  0  0  0  0
   19.6490   27.4356   14.6273 C   0  0  0  0  0  0  0  0  0  0  0  0
   19.9363   26.1380   15.0285 C   0  0  0  0  0  0  0  0  0  0  0  0
 43 44  2  0  0  0
 43 42  1  0  0  0
 44 45  1  0  0  0
 19 18  1  0  0  0
 42 41  2  0  0  0
 45 46  2  0  0  0
 34 28  1  0  0  0
 34 35  1  0  0  0
 33 28  2  0  0  0
 33 32  1  0  0  0
 18 16  1  0  0  0
 41 46  1  0  0  0
 28 29  1  0  0  0
 46 40  1  0  0  0
 32 31  2  0  0  0
 26 25  2  0  0  0
 29 30  2  0  0  0
 31 30  1  0  0  0
 31 25  1  0  0  0
 40  1  1  0  0  0
 16 13  1  0  0  0
 25 27  2  0  0  0
 25 24  1  0  0  0
 13 12  1  0  0  0
 13 14  1  0  0  0
  1  2  1  0  0  0
  1 20  1  0  0  0
 12 11  1  0  0  0
  4  3  2  0  0  0
 24 23  1  0  0  0
 24 36  1  0  0  0
 23 20  1  0  0  0
  2  3  1  0  0  0
  3  6  1  0  0  0
 20 21  1  0  0  0
 14  7  1  0  0  0
 14 10  1  0  0  0
  6  7  1  0  0  0
  7 15  1  0  0  0
 11 10  1  0  0  0
 36 37  1  0  0  0
 10  9  1  0  0  0
 38 37  1  0  0  0
 37 39  1  0  0  0
 15  8  1  0  0  0
  9  8  1  0  0  0
 21 22  1  0  0  0
  2  5  1  0  0  0
 16 17  1  0  0  0
M  END
> <minimizedAffinity>
-9.11505

$$$$
5DGW_5B5_A_201


 46 49  0  0  0  0  0  0  0  0999 V2000
   17.1050   23.6883   16.6244 C   0  0  0  0  0  0  0  0  0  0  0  0
   15.9357   22.8120   16.4697 N   0  0  0  0  0  0  0  0  0  0  0  0
   15.6651   21.9988   15.4471 C   0  0  0  0  0  0  0  0  0  0  0  0
   16.4730   21.7842   14.5457 O   0  0  0  0  0  0  0  0  0  0  0  0
   15.2784   22.8266   17.2025 H   0  0  0  0  0  0  0  0  0  0  0  0
   14.4266   21.4257   15.4624 O   0  0  0  0  0  0  0  0  0  0  0  0
   13.3966   22.2715   15.9797 C   0  0  0  0  0  0  0  0  0  0  0  0
   12.7659   22.6937   13.6184 C   0  0  0  0  0  0  0  0  0  0  0  0
   11.5834   21.9049   13.7230 O   0  0  0  0  0  0  0  0  0  0  0  0
   11.5630   20.9994   14.8080 C   0  0  0  0  0  0  0  0  0  0  0  0
   12.2984   19.8049   14.5260 O   0  0  0  0  0  0  0  0  0  0  0  0
   12.4301   19.1164   15.7620 C   0  0  0  0  0  0  0  0  0  0  0  0
   12.3410   20.1564   16.8711 C   0  0  0  0  0  0  0  0  0  0  0  0
   12.1143   21.4747   16.1240 C   0  0  0  0  0  0  0  0  0  0  0  0
   13.1501   23.3633   14.9351 C   0  0  0  0  0  0  0  0  0  0  0  0
   11.1201   19.8428   17.6402 N   0  0  0  0  0  0  0  0  0  0  0  0
   11.3411   19.8541   18.6359 H   0  0  0  0  0  0  0  0  0  0  0  0
   10.5959   18.5188   17.2796 C   0  0  0  0  0  0  0  0  0  0  0  0
   10.4270   17.6758   18.5562 C   0  0  0  0  0  0  0  0  0  0  0  0
   17.0676   24.2801   18.0369 C   0  0  0  0  0  0  0  0  0  0  0  0
   16.4231   25.5534   18.0475 O   0  0  0  0  0  0  0  0  0  0  0  0
   16.9419   26.1828   17.5224 H   0  0  0  0  0  0  0  0  0  0  0  0
   18.4277   24.3433   18.7213 C   0  0  0  0  0  0  0  0  0  0  0  0
   18.3997   23.6963   20.0165 N   0  0  0  0  0  0  0  0  0  0  0  0
   18.5553   22.0739   19.9577 S   0  0  0  0  0  0  0  0  0  0  0  0
   19.2384   21.5874   21.1990 O   0  0  0  0  0  0  0  0  0  0  0  0
   19.3783   21.7668   18.7390 O   0  0  0  0  0  0  0  0  0  0  0  0
   14.6649   19.7474   19.7692 C   0  0  0  0  0  0  0  0  0  0  0  0
   15.5137   19.7598   18.6588 C   0  0  0  0  0  0  0  0  0  0  0  0
   16.6998   20.4875   18.7101 C   0  0  0  0  0  0  0  0  0  0  0  0
   17.0269   21.2231   19.8398 C   0  0  0  0  0  0  0  0  0  0  0  0
   16.2242   21.1256   20.9742 C   0  0  0  0  0  0  0  0  0  0  0  0
   15.0205   20.4154   20.9334 C   0  0  0  0  0  0  0  0  0  0  0  0
   13.4719   19.0976   19.6754 O   0  0  0  0  0  0  0  0  0  0  0  0
   13.6931   17.6861   19.5976 C   0  0  0  0  0  0  0  0  0  0  0  0
   19.2377   24.3217   21.0234 C   0  0  0  0  0  0  0  0  0  0  0  0
   20.5229   24.9116   20.4304 C   0  0  0  0  0  0  0  0  0  0  0  0
   20.9002   26.2545   21.0627 C   0  0  0  0  0  0  0  0  0  0  0  0
   21.6860   23.9248   20.6126 C   0  0  0  0  0  0  0  0  0  0  0  0
   16.9926   24.7777   15.5475 C   0  0  0  0  0  0  0  0  0  0  0  0
   19.4829   24.4070   15.2672 C   0  0  0  0  0  0  0  0  0  0  0  0
   20.7614   24.8242   14.8943 C   0  0  0  0  0  0  0  0  0  0  0  0
   20.9368   26.0809   14.3245 C   0  0  0  0  0  0  0  0  0  0  0  0
   19.8437   26.9280   14.1550 C   0  0  0  0  0  0  0  0  0  0  0  0
   18.5693   26.5091   14.5453 C   0  0  0  0  0  0  0  0  0  0  0  0
   18.3888   25.2509   15.1036 C   0  0  0  0  0  0  0  0  0  0  0  0
 43 44  2  0  0  0
 43 42  1  0  0  0
 44 45  1  0  0  0
 19 18  1  0  0  0
 42 41  2  0  0  0
 45 46  2  0  0  0
 34 28  1  0  0  0
 34 35  1  0  0  0
 33 28  2  0  0  0
 33 32  1  0  0  0
 18 16  1  0  0  0
 41 46  1  0  0  0
 28 29  1  0  0  0
 46 40  1  0  0  0
 32 31  2  0  0  0
 26 25  2  0  0  0
 29 30  2  0  0  0
 31 30  1  0  0  0
 31 25  1  0  0  0
 40  1  1  0  0  0
 16 13  1  0  0  0
 25 27  2  0  0  0
 25 24  1  0  0  0
 13 12  1  0  0  0
 13 14  1  0  0  0
  1  2  1  0  0  0
  1 20  1  0  0  0
 12 11  1  0  0  0
  4  3  2  0  0  0
 24 23  1  0  0  0
 24 36  1  0  0  0
 23 20  1  0  0  0
  2  3  1  0  0  0
  3  6  1  0  0  0
 20 21  1  0  0  0
 14  7  1  0  0  0
 14 10  1  0  0  0
  6  7  1  0  0  0
  7 15  1  0  0  0
 11 10  1  0  0  0
 36 37  1  0  0  0
 10  9  1  0  0  0
 38 37  1  0  0  0
 37 39  1  0  0  0
 15  8  1  0  0  0
  9  8  1  0  0  0
 21 22  1  0  0  0
  2  5  1  0  0  0
 16 17  1  0  0  0
M  END
> <minimizedAffinity>
-9.01507

$$$$
5DGW_5B5_A_201


 46 49  0  0  0  0  0  0  0  0999 V2000
   13.6043   21.6704   15.5587 C   0  0  0  0  0  0  0  0  0  0  0  0
   13.1413   20.9703   16.7647 N   0  0  0  0  0  0  0  0  0  0  0  0
   13.7835   20.0171   17.4425 C   0  0  0  0  0  0  0  0  0  0  0  0
   14.9469   19.7052   17.1962 O   0  0  0  0  0  0  0  0  0  0  0  0
   12.2585   21.2340   17.1115 H   0  0  0  0  0  0  0  0  0  0  0  0
   13.0605   19.4034   18.4238 O   0  0  0  0  0  0  0  0  0  0  0  0
   13.6293   18.1775   18.8902 C   0  0  0  0  0  0  0  0  0  0  0  0
   12.7366   18.7878   21.1224 C   0  0  0  0  0  0  0  0  0  0  0  0
   11.7148   17.7963   21.0591 O   0  0  0  0  0  0  0  0  0  0  0  0
   11.4256   17.3179   19.7610 C   0  0  0  0  0  0  0  0  0  0  0  0
   10.5665   18.2058   19.0392 O   0  0  0  0  0  0  0  0  0  0  0  0
   10.5761   17.7609   17.6898 C   0  0  0  0  0  0  0  0  0  0  0  0
   11.8904   17.0249   17.4652 C   0  0  0  0  0  0  0  0  0  0  0  0
   12.5832   17.0810   18.8306 C   0  0  0  0  0  0  0  0  0  0  0  0
   13.9978   18.3885   20.3611 C   0  0  0  0  0  0  0  0  0  0  0  0
   11.5383   15.6194   17.1808 N   0  0  0  0  0  0  0  0  0  0  0  0
   11.9921   15.3308   16.3140 H   0  0  0  0  0  0  0  0  0  0  0  0
   10.0851   15.4587   17.0387 C   0  0  0  0  0  0  0  0  0  0  0  0
    9.6329   14.2176   17.8288 C   0  0  0  0  0  0  0  0  0  0  0  0
   14.2524   22.9874   15.9970 C   0  0  0  0  0  0  0  0  0  0  0  0
   13.7778   24.0830   15.2151 O   0  0  0  0  0  0  0  0  0  0  0  0
   14.0485   23.9622   14.2915 H   0  0  0  0  0  0  0  0  0  0  0  0
   15.7754   22.9507   16.0302 C   0  0  0  0  0  0  0  0  0  0  0  0
   16.2979   23.6673   17.1749 N   0  0  0  0  0  0  0  0  0  0  0  0
   16.9262   22.7085   18.3350 S   0  0  0  0  0  0  0  0  0  0  0  0
   17.3732   21.4126   17.7310 O   0  0  0  0  0  0  0  0  0  0  0  0
   15.8335   22.4813   19.3406 O   0  0  0  0  0  0  0  0  0  0  0  0
   20.5550   24.3462   20.5106 C   0  0  0  0  0  0  0  0  0  0  0  0
   19.2745   24.6651   20.9714 C   0  0  0  0  0  0  0  0  0  0  0  0
   18.1603   24.1767   20.2940 C   0  0  0  0  0  0  0  0  0  0  0  0
   18.3126   23.4055   19.1509 C   0  0  0  0  0  0  0  0  0  0  0  0
   19.5899   23.0129   18.7573 C   0  0  0  0  0  0  0  0  0  0  0  0
   20.7197   23.5100   19.4144 C   0  0  0  0  0  0  0  0  0  0  0  0
   21.6326   24.8964   21.1353 O   0  0  0  0  0  0  0  0  0  0  0  0
   22.7774   24.8261   20.2798 C   0  0  0  0  0  0  0  0  0  0  0  0
   17.1392   24.8035   16.8450 C   0  0  0  0  0  0  0  0  0  0  0  0
   17.7131   24.7135   15.4259 C   0  0  0  0  0  0  0  0  0  0  0  0
   17.2510   25.8667   14.5303 C   0  0  0  0  0  0  0  0  0  0  0  0
   19.2481   24.7022   15.4803 C   0  0  0  0  0  0  0  0  0  0  0  0
   12.3685   21.9092   14.6785 C   0  0  0  0  0  0  0  0  0  0  0  0
   12.7865   19.8065   13.3289 C   0  0  0  0  0  0  0  0  0  0  0  0
   12.3671   18.6197   12.7261 C   0  0  0  0  0  0  0  0  0  0  0  0
   11.0482   18.2023   12.8711 C   0  0  0  0  0  0  0  0  0  0  0  0
   10.1455   18.9822   13.5909 C   0  0  0  0  0  0  0  0  0  0  0  0
   10.5692   20.1769   14.1782 C   0  0  0  0  0  0  0  0  0  0  0  0
   11.8877   20.5907   14.0453 C   0  0  0  0  0  0  0  0  0  0  0  0
 43 44  2  0  0  0
 43 42  1  0  0  0
 44 45  1  0  0  0
 19 18  1  0  0  0
 42 41  2  0  0  0
 45 46  2  0  0  0
 34 28  1  0  0  0
 34 35  1  0  0  0
 33 28  2  0  0  0
 33 32  1  0  0  0
 18 16  1  0  0  0
 41 46  1  0  0  0
 28 29  1  0  0  0
 46 40  1  0  0  0
 32 31  2  0  0  0
 26 25  2  0  0  0
 29 30  2  0  0  0
 31 30  1  0  0  0
 31 25  1  0  0  0
 40  1  1  0  0  0
 16 13  1  0  0  0
 25 27  2  0  0  0
 25 24  1  0  0  0
 13 12  1  0  0  0
 13 14  1  0  0  0
  1  2  1  0  0  0
  1 20  1  0  0  0
 12 11  1  0  0  0
  4  3  2  0  0  0
 24 23  1  0  0  0
 24 36  1  0  0  0
 23 20  1  0  0  0
  2  3  1  0  0  0
  3  6  1  0  0  0
 20 21  1  0  0  0
 14  7  1  0  0  0
 14 10  1  0  0  0
  6  7  1  0  0  0
  7 15  1  0  0  0
 11 10  1  0  0  0
 36 37  1  0  0  0
 10  9  1  0  0  0
 38 37  1  0  0  0
 37 39  1  0  0  0
 15  8  1  0  0  0
  9  8  1  0  0  0
 21 22  1  0  0  0
  2  5  1  0  0  0
 16 17  1  0  0  0
M  END
> <minimizedAffinity>
-8.85050

$$$$
5DGW_5B5_A_201


 46 49  0  0  0  0  0  0  0  0999 V2000
   14.9963   22.5556   17.1714 C   0  0  0  0  0  0  0  0  0  0  0  0
   14.0832   21.5845   17.7899 N   0  0  0  0  0  0  0  0  0  0  0  0
   14.2886   20.2772   17.9603 C   0  0  0  0  0  0  0  0  0  0  0  0
   15.3731   19.7462   17.7297 O   0  0  0  0  0  0  0  0  0  0  0  0
   13.2239   21.9381   18.1150 H   0  0  0  0  0  0  0  0  0  0  0  0
   13.2111   19.5643   18.4000 O   0  0  0  0  0  0  0  0  0  0  0  0
   13.5281   18.2479   18.8590 C   0  0  0  0  0  0  0  0  0  0  0  0
   12.4071   18.8805   20.9792 C   0  0  0  0  0  0  0  0  0  0  0  0
   11.2781   18.0542   20.7069 O   0  0  0  0  0  0  0  0  0  0  0  0
   11.1215   17.6835   19.3520 C   0  0  0  0  0  0  0  0  0  0  0  0
   10.5113   18.7203   18.5775 O   0  0  0  0  0  0  0  0  0  0  0  0
   10.6595   18.3411   17.2162 C   0  0  0  0  0  0  0  0  0  0  0  0
   11.8773   17.4305   17.1301 C   0  0  0  0  0  0  0  0  0  0  0  0
   12.3603   17.3214   18.5800 C   0  0  0  0  0  0  0  0  0  0  0  0
   13.6995   18.3349   20.3779 C   0  0  0  0  0  0  0  0  0  0  0  0
   11.3794   16.1066   16.7059 N   0  0  0  0  0  0  0  0  0  0  0  0
   12.1640   15.5460   16.3734 H   0  0  0  0  0  0  0  0  0  0  0  0
   10.3908   16.2365   15.6272 C   0  0  0  0  0  0  0  0  0  0  0  0
   11.1057   16.1258   14.2686 C   0  0  0  0  0  0  0  0  0  0  0  0
   15.3557   23.6048   18.2282 C   0  0  0  0  0  0  0  0  0  0  0  0
   14.2595   24.4836   18.4785 O   0  0  0  0  0  0  0  0  0  0  0  0
   14.0612   24.9902   17.6754 H   0  0  0  0  0  0  0  0  0  0  0  0
   16.6300   24.3831   17.9239 C   0  0  0  0  0  0  0  0  0  0  0  0
   17.8027   23.6959   18.4233 N   0  0  0  0  0  0  0  0  0  0  0  0
   19.2171   24.3660   17.9646 S   0  0  0  0  0  0  0  0  0  0  0  0
   18.9742   25.7488   17.4423 O   0  0  0  0  0  0  0  0  0  0  0  0
   19.7820   23.4803   16.8908 O   0  0  0  0  0  0  0  0  0  0  0  0
   22.3179   24.8582   21.2397 C   0  0  0  0  0  0  0  0  0  0  0  0
   22.4034   23.7678   20.3694 C   0  0  0  0  0  0  0  0  0  0  0  0
   21.4423   23.6070   19.3747 C   0  0  0  0  0  0  0  0  0  0  0  0
   20.3871   24.5007   19.2633 C   0  0  0  0  0  0  0  0  0  0  0  0
   20.3652   25.6356   20.0709 C   0  0  0  0  0  0  0  0  0  0  0  0
   21.3111   25.8023   21.0871 C   0  0  0  0  0  0  0  0  0  0  0  0
   23.2182   24.9578   22.2564 O   0  0  0  0  0  0  0  0  0  0  0  0
   24.4568   25.4734   21.7589 C   0  0  0  0  0  0  0  0  0  0  0  0
   17.7522   23.3606   19.8348 C   0  0  0  0  0  0  0  0  0  0  0  0
   17.9072   21.8556   20.0841 C   0  0  0  0  0  0  0  0  0  0  0  0
   19.0719   21.5320   21.0244 C   0  0  0  0  0  0  0  0  0  0  0  0
   16.6093   21.2852   20.6753 C   0  0  0  0  0  0  0  0  0  0  0  0
   14.2484   23.1777   15.9828 C   0  0  0  0  0  0  0  0  0  0  0  0
   12.4477   21.8629   14.7801 C   0  0  0  0  0  0  0  0  0  0  0  0
   12.0227   20.8653   13.9016 C   0  0  0  0  0  0  0  0  0  0  0  0
   12.9637   20.1145   13.2048 C   0  0  0  0  0  0  0  0  0  0  0  0
   14.3236   20.3401   13.4070 C   0  0  0  0  0  0  0  0  0  0  0  0
   14.7413   21.3301   14.3000 C   0  0  0  0  0  0  0  0  0  0  0  0
   13.8048   22.0893   14.9884 C   0  0  0  0  0  0  0  0  0  0  0  0
 43 44  2  0  0  0
 43 42  1  0  0  0
 44 45  1  0  0  0
 19 18  1  0  0  0
 42 41  2  0  0  0
 45 46  2  0  0  0
 34 28  1  0  0  0
 34 35  1  0  0  0
 33 28  2  0  0  0
 33 32  1  0  0  0
 18 16  1  0  0  0
 41 46  1  0  0  0
 28 29  1  0  0  0
 46 40  1  0  0  0
 32 31  2  0  0  0
 26 25  2  0  0  0
 29 30  2  0  0  0
 31 30  1  0  0  0
 31 25  1  0  0  0
 40  1  1  0  0  0
 16 13  1  0  0  0
 25 27  2  0  0  0
 25 24  1  0  0  0
 13 12  1  0  0  0
 13 14  1  0  0  0
  1  2  1  0  0  0
  1 20  1  0  0  0
 12 11  1  0  0  0
  4  3  2  0  0  0
 24 23  1  0  0  0
 24 36  1  0  0  0
 23 20  1  0  0  0
  2  3  1  0  0  0
  3  6  1  0  0  0
 20 21  1  0  0  0
 14  7  1  0  0  0
 14 10  1  0  0  0
  6  7  1  0  0  0
  7 15  1  0  0  0
 11 10  1  0  0  0
 36 37  1  0  0  0
 10  9  1  0  0  0
 38 37  1  0  0  0
 37 39  1  0  0  0
 15  8  1  0  0  0
  9  8  1  0  0  0
 21 22  1  0  0  0
  2  5  1  0  0  0
 16 17  1  0  0  0
M  END
> <minimizedAffinity>
-8.83973

$$$$
