4R73_G6P_A_401
  RCSB PDB12061714353D
Coordinates from PDB:4R73:A:401 Model:1 without hydrogens
 16 16  0  0  0  0            999 V2000
   10.9640   25.0470   49.1500   C 0  0  0  0  0  0  0  0  0  0  0  0
   10.6790   23.9720   48.2500   C 0  0  0  0  0  0  0  0  0  0  0  0
   11.7440   22.9050   48.3600   C 0  0  0  0  0  0  0  0  0  0  0  0
   13.1310   23.4780   48.2180   C 0  0  0  0  0  0  0  0  0  0  0  0
   13.2680   24.5670   49.2560   C 0  0  0  0  0  0  0  0  0  0  0  0
   14.5400   25.3500   49.1190   C 0  0  0  0  0  0  0  0  0  0  0  0
   10.0340   26.0280   49.2270   O 0  0  0  0  0  0  0  0  0  0  0  0
    9.3630   23.4020   48.4800   O 0  0  0  0  0  0  0  0  0  0  0  0
   11.4470   22.0100   47.3310   O 0  0  0  0  0  0  0  0  0  0  0  0
   14.0440   22.4480   48.3910   O 0  0  0  0  0  0  0  0  0  0  0  0
   12.2360   25.4640   49.0820   O 0  0  0  0  0  0  0  0  0  0  0  0
   14.5500   26.3620   50.0680   O 0  0  0  0  0  0  0  0  0  0  0  0
   15.6360   27.5910   50.0820   P 0  0  0  0  0  0  0  0  0  0  0  0
   15.1080   28.5280   51.1150   O 0  0  0  0  0  0  0  0  0  0  0  0
   16.9430   27.0270   50.3770   O 0  0  0  0  0  0  0  0  0  0  0  0
   15.6480   28.1650   48.7680   O 0  0  0  0  0  0  0  0  0  0  0  0
  1  2  1  0  0  0  0
  1  7  1  0  0  0  0
  1 11  1  0  0  0  0
  2  3  1  0  0  0  0
  2  8  1  0  0  0  0
  3  4  1  0  0  0  0
  3  9  1  0  0  0  0
  4  5  1  0  0  0  0
  4 10  1  0  0  0  0
  5  6  1  0  0  0  0
  5 11  1  0  0  0  0
  6 12  1  0  0  0  0
 12 13  1  0  0  0  0
 13 14  1  0  0  0  0
 13 15  1  0  0  0  0
 13 16  2  0  0  0  0
A    1
C1
A    2
C2
A    3
C3
A    4
C4
A    5
C5
A    6
C6
A    7
O1
A    8
O2
A    9
O3
A   10
O4
A   11
O5
A   12
O6
A   13
P
A   14
O1P
A   15
O2P
A   16
O3P
M  END
>  <InstanceId>
4R73_G6P_A_401

>  <ChemCompId>
G6P

>  <PdbId>
4R73

>  <ChainId>
A

>  <ResidueNumber>
401

>  <InsertionCode>


>  <Model>
1

>  <AltIds>


>  <MissingHeavyAtoms>
0

>  <ObservedFormula>
C6 O9 P

>  <Name>
ALPHA-D-GLUCOSE-6-PHOSPHATE

>  <SystematicName>
[(2R,3S,4S,5R,6S)-3,4,5,6-tetrahydroxyoxan-2-yl]methyl dihydrogen phosphate

>  <Synonyms>


>  <Type>
D-SACCHARIDE

>  <Formula>
C6 H13 O9 P

>  <MolecularWeight>
260.136

>  <ModifiedDate>
2011-06-04

>  <Parent>


>  <OneLetterCode>


>  <SubcomponentList>


>  <AmbiguousFlag>
N

>  <InChI>
InChI=1S/C6H13O9P/c7-3-2(1-14-16(11,12)13)15-6(10)5(9)4(3)8/h2-10H,1H2,(H2,11,12,13)/t2-,3-,4+,5-,6+/m1/s1

>  <InChIKey>
NBSCHQHZLSJFNQ-DVKNGEFBSA-N

>  <SMILES>
C([C@@H]1[C@H]([C@@H]([C@H]([C@H](O1)O)O)O)O)OP(=O)(O)O

$$$$
