4QJX_WWO_A_304


 31 32  0  0  0  0  0  0  0  0999 V2000
   21.7221   -2.5857   -0.1675 F   0  0  0  0  0  0  0  0  0  0  0  0
   21.9653   -1.4086    0.4057 C   0  0  0  0  0  0  0  0  0  0  0  0
   21.6830   -0.2403   -0.3599 C   0  0  0  0  0  0  0  0  0  0  0  0
   21.9478    1.0020    0.2630 C   0  0  0  0  0  0  0  0  0  0  0  0
   21.7455    2.2131   -0.2848 F   0  0  0  0  0  0  0  0  0  0  0  0
   22.4475    1.0595    1.5692 C   0  0  0  0  0  0  0  0  0  0  0  0
   22.6676    2.2935    2.0846 F   0  0  0  0  0  0  0  0  0  0  0  0
   22.4813   -1.3774    1.7245 C   0  0  0  0  0  0  0  0  0  0  0  0
   22.7029   -0.1208    2.3094 C   0  0  0  0  0  0  0  0  0  0  0  0
   21.0340   -0.3583   -2.0780 S   0  0  0  0  0  0  0  0  0  0  0  0
   19.6244    0.1531   -2.3300 O   0  0  0  0  0  0  0  0  0  0  0  0
   22.1273    0.6511   -3.0691 N   0  0  0  0  0  0  0  0  0  0  0  0
   21.0447   -1.7422   -2.6844 O   0  0  0  0  0  0  0  0  0  0  0  0
   22.1496    1.5988   -2.6925 H   0  0  0  0  0  0  0  0  0  0  0  0
   21.7889    0.6754   -4.0310 H   0  0  0  0  0  0  0  0  0  0  0  0
   23.4451    0.0058    3.9588 S   0  0  0  0  0  0  0  0  0  0  0  0
   24.6144    0.9996    3.7765 O   0  0  0  0  0  0  0  0  0  0  0  0
   24.3266   -1.2860    4.0480 O   0  0  0  0  0  0  0  0  0  0  0  0
   22.5351    0.1776    5.5029 C   0  0  0  0  0  0  0  0  0  0  0  0
   23.3653   -0.4827    6.6160 C   0  0  0  0  0  0  0  0  0  0  0  0
   24.6756    0.0039    6.5841 O   0  0  0  0  0  0  0  0  0  0  0  0
   25.0760   -0.2016    5.7248 H   0  0  0  0  0  0  0  0  0  0  0  0
   22.7902   -2.6161    2.4241 N   0  0  0  0  0  0  0  0  0  0  0  0
   23.6765   -3.0447    2.4210 H   0  0  0  0  0  0  0  0  0  0  0  0
   21.6366   -3.1424    3.1256 C   0  0  0  0  0  0  0  0  0  0  0  0
   21.2401   -4.5636    2.9148 C   0  0  0  0  0  0  0  0  0  0  0  0
   20.3986   -5.2341    3.8160 C   0  0  0  0  0  0  0  0  0  0  0  0
   20.0073   -6.5714    3.5700 C   0  0  0  0  0  0  0  0  0  0  0  0
   20.4757   -7.2109    2.4130 C   0  0  0  0  0  0  0  0  0  0  0  0
   21.3259   -6.5463    1.5100 C   0  0  0  0  0  0  0  0  0  0  0  0
   21.7131   -5.2281    1.7640 C   0  0  0  0  0  0  0  0  0  0  0  0
 11 10  2  0  0  0
 10 12  1  0  0  0
 10  3  1  0  0  0
 10 13  2  0  0  0
 31 30  2  0  0  0
 31 26  1  0  0  0
  1  2  1  0  0  0
 30 29  1  0  0  0
 25 26  1  0  0  0
 25 23  1  0  0  0
  3  2  2  0  0  0
  3  4  1  0  0  0
  2  8  1  0  0  0
 26 27  2  0  0  0
  4  5  1  0  0  0
  4  6  2  0  0  0
  8 23  1  0  0  0
  8  9  2  0  0  0
 18 16  2  0  0  0
 29 28  2  0  0  0
  6  9  1  0  0  0
  6  7  1  0  0  0
  9 16  1  0  0  0
 17 16  2  0  0  0
 27 28  1  0  0  0
 16 19  1  0  0  0
 19 20  1  0  0  0
 21 20  1  0  0  0
 12 14  1  0  0  0
 12 15  1  0  0  0
 21 22  1  0  0  0
 23 24  1  0  0  0
M  END
> <minimizedAffinity>
-8.25442

$$$$
4QJX_WWO_A_304


 31 32  0  0  0  0  0  0  0  0999 V2000
   21.8085   -4.9482    1.0485 F   0  0  0  0  0  0  0  0  0  0  0  0
   21.8414   -4.1013    2.0756 C   0  0  0  0  0  0  0  0  0  0  0  0
   21.2987   -4.5556    3.3124 C   0  0  0  0  0  0  0  0  0  0  0  0
   21.3405   -3.6436    4.3933 C   0  0  0  0  0  0  0  0  0  0  0  0
   20.8881   -3.8801    5.6371 F   0  0  0  0  0  0  0  0  0  0  0  0
   21.9028   -2.3711    4.2392 C   0  0  0  0  0  0  0  0  0  0  0  0
   21.9014   -1.5672    5.3302 F   0  0  0  0  0  0  0  0  0  0  0  0
   22.4060   -2.8153    1.8911 C   0  0  0  0  0  0  0  0  0  0  0  0
   22.4484   -1.9556    2.9998 C   0  0  0  0  0  0  0  0  0  0  0  0
   20.5606   -6.2339    3.4723 S   0  0  0  0  0  0  0  0  0  0  0  0
   19.5190   -6.6411    2.4421 O   0  0  0  0  0  0  0  0  0  0  0  0
   21.9271   -7.3727    3.2930 N   0  0  0  0  0  0  0  0  0  0  0  0
   19.9101   -6.5350    4.8024 O   0  0  0  0  0  0  0  0  0  0  0  0
   22.3966   -7.2031    2.4035 H   0  0  0  0  0  0  0  0  0  0  0  0
   21.5767   -8.3304    3.3154 H   0  0  0  0  0  0  0  0  0  0  0  0
   23.0724   -0.2622    2.8249 S   0  0  0  0  0  0  0  0  0  0  0  0
   23.8762   -0.2855    1.5052 O   0  0  0  0  0  0  0  0  0  0  0  0
   24.3112   -0.2430    3.7832 O   0  0  0  0  0  0  0  0  0  0  0  0
   22.1160    1.2372    3.1061 C   0  0  0  0  0  0  0  0  0  0  0  0
   22.9078    2.1264    4.0792 C   0  0  0  0  0  0  0  0  0  0  0  0
   22.7876    1.6309    5.3811 O   0  0  0  0  0  0  0  0  0  0  0  0
   21.8531    1.6290    5.6413 H   0  0  0  0  0  0  0  0  0  0  0  0
   22.8960   -2.4068    0.5826 N   0  0  0  0  0  0  0  0  0  0  0  0
   23.7903   -2.0274    0.4226 H   0  0  0  0  0  0  0  0  0  0  0  0
   21.9096   -2.6257   -0.4561 C   0  0  0  0  0  0  0  0  0  0  0  0
   21.2913   -1.4515   -1.1346 C   0  0  0  0  0  0  0  0  0  0  0  0
   21.0027   -1.4632   -2.5081 C   0  0  0  0  0  0  0  0  0  0  0  0
   20.3799   -0.3487   -3.1179 C   0  0  0  0  0  0  0  0  0  0  0  0
   20.0588    0.7634   -2.3260 C   0  0  0  0  0  0  0  0  0  0  0  0
   20.3529    0.7839   -0.9501 C   0  0  0  0  0  0  0  0  0  0  0  0
   20.9744   -0.3181   -0.3571 C   0  0  0  0  0  0  0  0  0  0  0  0
 11 10  2  0  0  0
 10 12  1  0  0  0
 10  3  1  0  0  0
 10 13  2  0  0  0
 31 30  2  0  0  0
 31 26  1  0  0  0
  1  2  1  0  0  0
 30 29  1  0  0  0
 25 26  1  0  0  0
 25 23  1  0  0  0
  3  2  2  0  0  0
  3  4  1  0  0  0
  2  8  1  0  0  0
 26 27  2  0  0  0
  4  5  1  0  0  0
  4  6  2  0  0  0
  8 23  1  0  0  0
  8  9  2  0  0  0
 18 16  2  0  0  0
 29 28  2  0  0  0
  6  9  1  0  0  0
  6  7  1  0  0  0
  9 16  1  0  0  0
 17 16  2  0  0  0
 27 28  1  0  0  0
 16 19  1  0  0  0
 19 20  1  0  0  0
 21 20  1  0  0  0
 12 14  1  0  0  0
 12 15  1  0  0  0
 21 22  1  0  0  0
 23 24  1  0  0  0
M  END
> <minimizedAffinity>
-8.21610

$$$$
4QJX_WWO_A_304


 31 32  0  0  0  0  0  0  0  0999 V2000
   21.1404    0.0934    0.2977 F   0  0  0  0  0  0  0  0  0  0  0  0
   21.3794    0.4745    1.5510 C   0  0  0  0  0  0  0  0  0  0  0  0
   21.0251    1.8085    1.9053 C   0  0  0  0  0  0  0  0  0  0  0  0
   21.2863    2.1979    3.2401 C   0  0  0  0  0  0  0  0  0  0  0  0
   21.0218    3.4044    3.7713 F   0  0  0  0  0  0  0  0  0  0  0  0
   21.8509    1.3002    4.1537 C   0  0  0  0  0  0  0  0  0  0  0  0
   22.0622    1.7609    5.4106 F   0  0  0  0  0  0  0  0  0  0  0  0
   21.9616   -0.4492    2.4534 C   0  0  0  0  0  0  0  0  0  0  0  0
   22.1774   -0.0246    3.7738 C   0  0  0  0  0  0  0  0  0  0  0  0
   20.2919    2.9613    0.6721 S   0  0  0  0  0  0  0  0  0  0  0  0
   19.9641    2.3995   -0.7022 O   0  0  0  0  0  0  0  0  0  0  0  0
   18.7432    3.4982    1.3860 N   0  0  0  0  0  0  0  0  0  0  0  0
   21.0980    4.2067    0.3855 O   0  0  0  0  0  0  0  0  0  0  0  0
   18.1653    2.6844    1.5959 H   0  0  0  0  0  0  0  0  0  0  0  0
   18.2544    4.1007    0.7239 H   0  0  0  0  0  0  0  0  0  0  0  0
   22.9998   -1.1155    4.9658 S   0  0  0  0  0  0  0  0  0  0  0  0
   24.2425   -1.6390    4.2110 O   0  0  0  0  0  0  0  0  0  0  0  0
   22.1658   -2.4376    4.8664 O   0  0  0  0  0  0  0  0  0  0  0  0
   23.2683   -0.7454    6.7074 C   0  0  0  0  0  0  0  0  0  0  0  0
   22.5818   -1.8449    7.5348 C   0  0  0  0  0  0  0  0  0  0  0  0
   21.7008   -1.2677    8.4543 O   0  0  0  0  0  0  0  0  0  0  0  0
   22.1935   -0.6824    9.0505 H   0  0  0  0  0  0  0  0  0  0  0  0
   22.3411   -1.7802    2.0023 N   0  0  0  0  0  0  0  0  0  0  0  0
   23.2686   -2.1094    1.9746 H   0  0  0  0  0  0  0  0  0  0  0  0
   21.1900   -2.5626    1.5989 C   0  0  0  0  0  0  0  0  0  0  0  0
   21.0980   -3.9918    2.0114 C   0  0  0  0  0  0  0  0  0  0  0  0
   20.2463   -4.4053    3.0475 C   0  0  0  0  0  0  0  0  0  0  0  0
   20.1505   -5.7744    3.3916 C   0  0  0  0  0  0  0  0  0  0  0  0
   20.9208   -6.7058    2.6803 C   0  0  0  0  0  0  0  0  0  0  0  0
   21.7824   -6.2962    1.6459 C   0  0  0  0  0  0  0  0  0  0  0  0
   21.8762   -4.9415    1.3170 C   0  0  0  0  0  0  0  0  0  0  0  0
 11 10  2  0  0  0
 10 12  1  0  0  0
 10  3  1  0  0  0
 10 13  2  0  0  0
 31 30  2  0  0  0
 31 26  1  0  0  0
  1  2  1  0  0  0
 30 29  1  0  0  0
 25 26  1  0  0  0
 25 23  1  0  0  0
  3  2  2  0  0  0
  3  4  1  0  0  0
  2  8  1  0  0  0
 26 27  2  0  0  0
  4  5  1  0  0  0
  4  6  2  0  0  0
  8 23  1  0  0  0
  8  9  2  0  0  0
 18 16  2  0  0  0
 29 28  2  0  0  0
  6  9  1  0  0  0
  6  7  1  0  0  0
  9 16  1  0  0  0
 17 16  2  0  0  0
 27 28  1  0  0  0
 16 19  1  0  0  0
 19 20  1  0  0  0
 21 20  1  0  0  0
 12 14  1  0  0  0
 12 15  1  0  0  0
 21 22  1  0  0  0
 23 24  1  0  0  0
M  END
> <minimizedAffinity>
-8.06905

$$$$
4QJX_WWO_A_304


 31 32  0  0  0  0  0  0  0  0999 V2000
   22.8905   -2.5885    3.9109 F   0  0  0  0  0  0  0  0  0  0  0  0
   22.6560   -1.3310    3.5407 C   0  0  0  0  0  0  0  0  0  0  0  0
   22.8458   -0.3164    4.5231 C   0  0  0  0  0  0  0  0  0  0  0  0
   22.5915    1.0140    4.1142 C   0  0  0  0  0  0  0  0  0  0  0  0
   22.7165    2.1088    4.8844 F   0  0  0  0  0  0  0  0  0  0  0  0
   22.1890    1.2991    2.8043 C   0  0  0  0  0  0  0  0  0  0  0  0
   21.9715    2.6024    2.5028 F   0  0  0  0  0  0  0  0  0  0  0  0
   22.2390   -1.0697    2.2124 C   0  0  0  0  0  0  0  0  0  0  0  0
   22.0244    0.2684    1.8468 C   0  0  0  0  0  0  0  0  0  0  0  0
   23.3683   -0.7333    6.2379 S   0  0  0  0  0  0  0  0  0  0  0  0
   23.4883    0.4121    7.2306 O   0  0  0  0  0  0  0  0  0  0  0  0
   22.1000   -1.8239    6.8689 N   0  0  0  0  0  0  0  0  0  0  0  0
   24.6811   -1.4717    6.3571 O   0  0  0  0  0  0  0  0  0  0  0  0
   21.1926   -1.3621    6.8067 H   0  0  0  0  0  0  0  0  0  0  0  0
   22.3001   -2.0504    7.8431 H   0  0  0  0  0  0  0  0  0  0  0  0
   21.4037    0.6799    0.1936 S   0  0  0  0  0  0  0  0  0  0  0  0
   20.0860   -0.1180    0.0706 O   0  0  0  0  0  0  0  0  0  0  0  0
   22.2549   -0.2441   -0.7418 O   0  0  0  0  0  0  0  0  0  0  0  0
   21.3633    2.3301   -0.5256 C   0  0  0  0  0  0  0  0  0  0  0  0
   19.9150    2.8414   -0.4523 C   0  0  0  0  0  0  0  0  0  0  0  0
   19.4195    2.6816    0.8453 O   0  0  0  0  0  0  0  0  0  0  0  0
   19.4370    1.7417    1.0845 H   0  0  0  0  0  0  0  0  0  0  0  0
   22.0198   -2.1659    1.2801 N   0  0  0  0  0  0  0  0  0  0  0  0
   22.6244   -2.3849    0.5346 H   0  0  0  0  0  0  0  0  0  0  0  0
   20.8048   -2.8961    1.5809 C   0  0  0  0  0  0  0  0  0  0  0  0
   20.8994   -4.2344    2.2300 C   0  0  0  0  0  0  0  0  0  0  0  0
   20.2012   -4.5304    3.4110 C   0  0  0  0  0  0  0  0  0  0  0  0
   20.2790   -5.8219    3.9837 C   0  0  0  0  0  0  0  0  0  0  0  0
   21.0651   -6.7959    3.3508 C   0  0  0  0  0  0  0  0  0  0  0  0
   21.7737   -6.5025    2.1710 C   0  0  0  0  0  0  0  0  0  0  0  0
   21.6968   -5.2227    1.6158 C   0  0  0  0  0  0  0  0  0  0  0  0
 11 10  2  0  0  0
 10 12  1  0  0  0
 10  3  1  0  0  0
 10 13  2  0  0  0
 31 30  2  0  0  0
 31 26  1  0  0  0
  1  2  1  0  0  0
 30 29  1  0  0  0
 25 26  1  0  0  0
 25 23  1  0  0  0
  3  2  2  0  0  0
  3  4  1  0  0  0
  2  8  1  0  0  0
 26 27  2  0  0  0
  4  5  1  0  0  0
  4  6  2  0  0  0
  8 23  1  0  0  0
  8  9  2  0  0  0
 18 16  2  0  0  0
 29 28  2  0  0  0
  6  9  1  0  0  0
  6  7  1  0  0  0
  9 16  1  0  0  0
 17 16  2  0  0  0
 27 28  1  0  0  0
 16 19  1  0  0  0
 19 20  1  0  0  0
 21 20  1  0  0  0
 12 14  1  0  0  0
 12 15  1  0  0  0
 21 22  1  0  0  0
 23 24  1  0  0  0
M  END
> <minimizedAffinity>
-7.74313

$$$$
4QJX_WWO_A_304


 31 32  0  0  0  0  0  0  0  0999 V2000
   21.8905   -1.4512   -0.7942 F   0  0  0  0  0  0  0  0  0  0  0  0
   22.0509   -0.5904    0.2091 C   0  0  0  0  0  0  0  0  0  0  0  0
   21.8993    0.7946   -0.0899 C   0  0  0  0  0  0  0  0  0  0  0  0
   22.0738    1.6958    0.9866 C   0  0  0  0  0  0  0  0  0  0  0  0
   21.9679    3.0342    0.9143 F   0  0  0  0  0  0  0  0  0  0  0  0
   22.3658    1.2303    2.2740 C   0  0  0  0  0  0  0  0  0  0  0  0
   22.5127    2.1667    3.2427 F   0  0  0  0  0  0  0  0  0  0  0  0
   22.3567   -1.0860    1.5005 C   0  0  0  0  0  0  0  0  0  0  0  0
   22.4946   -0.1546    2.5415 C   0  0  0  0  0  0  0  0  0  0  0  0
   21.5231    1.3671   -1.7981 S   0  0  0  0  0  0  0  0  0  0  0  0
   22.4726    0.9369   -2.9051 O   0  0  0  0  0  0  0  0  0  0  0  0
   19.9274    0.6647   -2.1938 N   0  0  0  0  0  0  0  0  0  0  0  0
   21.3991    2.8630   -1.9709 O   0  0  0  0  0  0  0  0  0  0  0  0
   19.9669   -0.3492   -2.0895 H   0  0  0  0  0  0  0  0  0  0  0  0
   19.6822    0.8982   -3.1559 H   0  0  0  0  0  0  0  0  0  0  0  0
   22.9736   -0.6996    4.2031 S   0  0  0  0  0  0  0  0  0  0  0  0
   24.2328   -1.5654    3.9733 O   0  0  0  0  0  0  0  0  0  0  0  0
   21.9924   -1.8889    4.4797 O   0  0  0  0  0  0  0  0  0  0  0  0
   23.0257    0.3438    5.6696 C   0  0  0  0  0  0  0  0  0  0  0  0
   23.7799   -0.4236    6.7682 C   0  0  0  0  0  0  0  0  0  0  0  0
   23.1947   -1.6789    6.9586 O   0  0  0  0  0  0  0  0  0  0  0  0
   22.2694   -1.5669    7.2275 H   0  0  0  0  0  0  0  0  0  0  0  0
   22.5443   -2.5133    1.7163 N   0  0  0  0  0  0  0  0  0  0  0  0
   23.4025   -2.9247    1.9682 H   0  0  0  0  0  0  0  0  0  0  0  0
   21.3162   -3.2560    1.5156 C   0  0  0  0  0  0  0  0  0  0  0  0
   21.1149   -4.5429    2.2399 C   0  0  0  0  0  0  0  0  0  0  0  0
   21.7318   -5.7301    1.8160 C   0  0  0  0  0  0  0  0  0  0  0  0
   21.5538   -6.9291    2.5458 C   0  0  0  0  0  0  0  0  0  0  0  0
   20.7515   -6.9078    3.6959 C   0  0  0  0  0  0  0  0  0  0  0  0
   20.1241   -5.7222    4.1213 C   0  0  0  0  0  0  0  0  0  0  0  0
   20.2995   -4.5441    3.3910 C   0  0  0  0  0  0  0  0  0  0  0  0
 11 10  2  0  0  0
 10 12  1  0  0  0
 10  3  1  0  0  0
 10 13  2  0  0  0
 31 30  2  0  0  0
 31 26  1  0  0  0
  1  2  1  0  0  0
 30 29  1  0  0  0
 25 26  1  0  0  0
 25 23  1  0  0  0
  3  2  2  0  0  0
  3  4  1  0  0  0
  2  8  1  0  0  0
 26 27  2  0  0  0
  4  5  1  0  0  0
  4  6  2  0  0  0
  8 23  1  0  0  0
  8  9  2  0  0  0
 18 16  2  0  0  0
 29 28  2  0  0  0
  6  9  1  0  0  0
  6  7  1  0  0  0
  9 16  1  0  0  0
 17 16  2  0  0  0
 27 28  1  0  0  0
 16 19  1  0  0  0
 19 20  1  0  0  0
 21 20  1  0  0  0
 12 14  1  0  0  0
 12 15  1  0  0  0
 21 22  1  0  0  0
 23 24  1  0  0  0
M  END
> <minimizedAffinity>
-7.55031

$$$$
4QJX_WWO_A_304


 31 32  0  0  0  0  0  0  0  0999 V2000
   21.1140   -3.2945    0.9696 F   0  0  0  0  0  0  0  0  0  0  0  0
   21.7889   -2.5189    1.8158 C   0  0  0  0  0  0  0  0  0  0  0  0
   21.7097   -2.8427    3.2013 C   0  0  0  0  0  0  0  0  0  0  0  0
   22.4317   -2.0085    4.0870 C   0  0  0  0  0  0  0  0  0  0  0  0
   22.4910   -2.1478    5.4229 F   0  0  0  0  0  0  0  0  0  0  0  0
   23.1898   -0.9345    3.6062 C   0  0  0  0  0  0  0  0  0  0  0  0
   23.8501   -0.1926    4.5282 F   0  0  0  0  0  0  0  0  0  0  0  0
   22.5399   -1.4316    1.3052 C   0  0  0  0  0  0  0  0  0  0  0  0
   23.2603   -0.6486    2.2207 C   0  0  0  0  0  0  0  0  0  0  0  0
   20.6950   -4.2589    3.7944 S   0  0  0  0  0  0  0  0  0  0  0  0
   19.2252   -4.2778    3.4053 O   0  0  0  0  0  0  0  0  0  0  0  0
   21.4348   -5.7127    3.0627 N   0  0  0  0  0  0  0  0  0  0  0  0
   20.6897   -4.4747    5.2899 O   0  0  0  0  0  0  0  0  0  0  0  0
   21.4583   -5.6083    2.0483 H   0  0  0  0  0  0  0  0  0  0  0  0
   20.8828   -6.5348    3.3072 H   0  0  0  0  0  0  0  0  0  0  0  0
   24.1732    0.8137    1.6588 S   0  0  0  0  0  0  0  0  0  0  0  0
   23.1248    1.6451    0.8857 O   0  0  0  0  0  0  0  0  0  0  0  0
   24.9408    0.2866    0.3992 O   0  0  0  0  0  0  0  0  0  0  0  0
   25.3201    1.7765    2.6586 C   0  0  0  0  0  0  0  0  0  0  0  0
   26.3994    2.3453    1.7226 C   0  0  0  0  0  0  0  0  0  0  0  0
   27.5764    2.5781    2.4404 O   0  0  0  0  0  0  0  0  0  0  0  0
   27.4019    3.2169    3.1491 H   0  0  0  0  0  0  0  0  0  0  0  0
   22.5315   -1.1354   -0.1200 N   0  0  0  0  0  0  0  0  0  0  0  0
   23.3109   -1.2472   -0.7110 H   0  0  0  0  0  0  0  0  0  0  0  0
   21.2381   -0.6564   -0.5645 C   0  0  0  0  0  0  0  0  0  0  0  0
   21.0735   -0.2008   -1.9740 C   0  0  0  0  0  0  0  0  0  0  0  0
   19.8762   -0.4034   -2.6777 C   0  0  0  0  0  0  0  0  0  0  0  0
   19.7349    0.0744   -4.0020 C   0  0  0  0  0  0  0  0  0  0  0  0
   20.8108    0.7509   -4.5950 C   0  0  0  0  0  0  0  0  0  0  0  0
   22.0164    0.9500   -3.8972 C   0  0  0  0  0  0  0  0  0  0  0  0
   22.1501    0.4689   -2.5922 C   0  0  0  0  0  0  0  0  0  0  0  0
 11 10  2  0  0  0
 10 12  1  0  0  0
 10  3  1  0  0  0
 10 13  2  0  0  0
 31 30  2  0  0  0
 31 26  1  0  0  0
  1  2  1  0  0  0
 30 29  1  0  0  0
 25 26  1  0  0  0
 25 23  1  0  0  0
  3  2  2  0  0  0
  3  4  1  0  0  0
  2  8  1  0  0  0
 26 27  2  0  0  0
  4  5  1  0  0  0
  4  6  2  0  0  0
  8 23  1  0  0  0
  8  9  2  0  0  0
 18 16  2  0  0  0
 29 28  2  0  0  0
  6  9  1  0  0  0
  6  7  1  0  0  0
  9 16  1  0  0  0
 17 16  2  0  0  0
 27 28  1  0  0  0
 16 19  1  0  0  0
 19 20  1  0  0  0
 21 20  1  0  0  0
 12 14  1  0  0  0
 12 15  1  0  0  0
 21 22  1  0  0  0
 23 24  1  0  0  0
M  END
> <minimizedAffinity>
-7.16239

$$$$
4QJX_WWO_A_304


 31 32  0  0  0  0  0  0  0  0999 V2000
   19.9770    1.7389    0.0070 F   0  0  0  0  0  0  0  0  0  0  0  0
   20.6558    1.2590    1.0473 C   0  0  0  0  0  0  0  0  0  0  0  0
   20.8480    2.1306    2.1581 C   0  0  0  0  0  0  0  0  0  0  0  0
   21.5719    1.6059    3.2546 C   0  0  0  0  0  0  0  0  0  0  0  0
   21.8541    2.2614    4.3941 F   0  0  0  0  0  0  0  0  0  0  0  0
   22.0537    0.2919    3.2356 C   0  0  0  0  0  0  0  0  0  0  0  0
   22.7332   -0.1248    4.3316 F   0  0  0  0  0  0  0  0  0  0  0  0
   21.1424   -0.0705    0.9991 C   0  0  0  0  0  0  0  0  0  0  0  0
   21.8321   -0.5545    2.1217 C   0  0  0  0  0  0  0  0  0  0  0  0
   20.2055    3.8552    2.1410 S   0  0  0  0  0  0  0  0  0  0  0  0
   20.5266    4.7094    0.9248 O   0  0  0  0  0  0  0  0  0  0  0  0
   18.4254    3.6994    2.1989 N   0  0  0  0  0  0  0  0  0  0  0  0
   20.6094    4.7121    3.3182 O   0  0  0  0  0  0  0  0  0  0  0  0
   18.1088    3.1253    1.4176 H   0  0  0  0  0  0  0  0  0  0  0  0
   18.0009    4.6246    2.1349 H   0  0  0  0  0  0  0  0  0  0  0  0
   22.5639   -2.2133    2.1045 S   0  0  0  0  0  0  0  0  0  0  0  0
   23.6511   -2.1628    3.2015 O   0  0  0  0  0  0  0  0  0  0  0  0
   23.5443   -2.1526    0.8844 O   0  0  0  0  0  0  0  0  0  0  0  0
   21.6448   -3.7591    2.0155 C   0  0  0  0  0  0  0  0  0  0  0  0
   20.9751   -3.9891    3.3805 C   0  0  0  0  0  0  0  0  0  0  0  0
   19.8605   -4.8194    3.2292 O   0  0  0  0  0  0  0  0  0  0  0  0
   19.2238   -4.3999    2.6297 H   0  0  0  0  0  0  0  0  0  0  0  0
   20.9477   -0.8833   -0.1928 N   0  0  0  0  0  0  0  0  0  0  0  0
   20.3362   -1.6534   -0.2411 H   0  0  0  0  0  0  0  0  0  0  0  0
   21.7619   -0.4229   -1.2996 C   0  0  0  0  0  0  0  0  0  0  0  0
   21.1078   -0.0830   -2.5950 C   0  0  0  0  0  0  0  0  0  0  0  0
   19.7313   -0.2696   -2.7954 C   0  0  0  0  0  0  0  0  0  0  0  0
   19.1305    0.0984   -4.0225 C   0  0  0  0  0  0  0  0  0  0  0  0
   19.9347    0.6502   -5.0303 C   0  0  0  0  0  0  0  0  0  0  0  0
   21.3167    0.8322   -4.8379 C   0  0  0  0  0  0  0  0  0  0  0  0
   21.9032    0.4598   -3.6257 C   0  0  0  0  0  0  0  0  0  0  0  0
 11 10  2  0  0  0
 10 12  1  0  0  0
 10  3  1  0  0  0
 10 13  2  0  0  0
 31 30  2  0  0  0
 31 26  1  0  0  0
  1  2  1  0  0  0
 30 29  1  0  0  0
 25 26  1  0  0  0
 25 23  1  0  0  0
  3  2  2  0  0  0
  3  4  1  0  0  0
  2  8  1  0  0  0
 26 27  2  0  0  0
  4  5  1  0  0  0
  4  6  2  0  0  0
  8 23  1  0  0  0
  8  9  2  0  0  0
 18 16  2  0  0  0
 29 28  2  0  0  0
  6  9  1  0  0  0
  6  7  1  0  0  0
  9 16  1  0  0  0
 17 16  2  0  0  0
 27 28  1  0  0  0
 16 19  1  0  0  0
 19 20  1  0  0  0
 21 20  1  0  0  0
 12 14  1  0  0  0
 12 15  1  0  0  0
 21 22  1  0  0  0
 23 24  1  0  0  0
M  END
> <minimizedAffinity>
-7.00231

$$$$
4QJX_WWO_A_304


 31 32  0  0  0  0  0  0  0  0999 V2000
   23.2273   -0.3591   -0.9313 F   0  0  0  0  0  0  0  0  0  0  0  0
   23.7107    0.2042    0.1743 C   0  0  0  0  0  0  0  0  0  0  0  0
   24.7484    1.1676    0.0146 C   0  0  0  0  0  0  0  0  0  0  0  0
   25.2516    1.7560    1.1988 C   0  0  0  0  0  0  0  0  0  0  0  0
   26.2215    2.6849    1.2623 F   0  0  0  0  0  0  0  0  0  0  0  0
   24.7338    1.4067    2.4514 C   0  0  0  0  0  0  0  0  0  0  0  0
   25.2756    2.0241    3.5293 F   0  0  0  0  0  0  0  0  0  0  0  0
   23.1773   -0.1743    1.4308 C   0  0  0  0  0  0  0  0  0  0  0  0
   23.6909    0.4563    2.5748 C   0  0  0  0  0  0  0  0  0  0  0  0
   25.4080    1.5936   -1.6500 S   0  0  0  0  0  0  0  0  0  0  0  0
   24.4350    1.5591   -2.8179 O   0  0  0  0  0  0  0  0  0  0  0  0
   25.9831    3.2811   -1.5153 N   0  0  0  0  0  0  0  0  0  0  0  0
   26.5828    0.7657   -2.1162 O   0  0  0  0  0  0  0  0  0  0  0  0
   25.2172    3.8773   -1.2016 H   0  0  0  0  0  0  0  0  0  0  0  0
   26.3125    3.6017   -2.4259 H   0  0  0  0  0  0  0  0  0  0  0  0
   23.1257   -0.0359    4.2259 S   0  0  0  0  0  0  0  0  0  0  0  0
   21.6415    0.3927    4.2654 O   0  0  0  0  0  0  0  0  0  0  0  0
   23.6643    1.1163    5.1400 O   0  0  0  0  0  0  0  0  0  0  0  0
   23.4845   -1.6082    5.0266 C   0  0  0  0  0  0  0  0  0  0  0  0
   22.3413   -1.9087    6.0100 C   0  0  0  0  0  0  0  0  0  0  0  0
   22.1766   -0.8348    6.8901 O   0  0  0  0  0  0  0  0  0  0  0  0
   22.9968   -0.6970    7.3891 H   0  0  0  0  0  0  0  0  0  0  0  0
   22.1510   -1.2031    1.5156 N   0  0  0  0  0  0  0  0  0  0  0  0
   21.1942   -1.0173    1.6542 H   0  0  0  0  0  0  0  0  0  0  0  0
   22.7067   -2.5337    1.3714 C   0  0  0  0  0  0  0  0  0  0  0  0
   21.9444   -3.7035    1.8929 C   0  0  0  0  0  0  0  0  0  0  0  0
   21.0193   -3.5712    2.9400 C   0  0  0  0  0  0  0  0  0  0  0  0
   20.2814   -4.6920    3.3886 C   0  0  0  0  0  0  0  0  0  0  0  0
   20.4925   -5.9325    2.7692 C   0  0  0  0  0  0  0  0  0  0  0  0
   21.4245   -6.0727    1.7243 C   0  0  0  0  0  0  0  0  0  0  0  0
   22.1541   -4.9623    1.2919 C   0  0  0  0  0  0  0  0  0  0  0  0
 11 10  2  0  0  0
 10 12  1  0  0  0
 10  3  1  0  0  0
 10 13  2  0  0  0
 31 30  2  0  0  0
 31 26  1  0  0  0
  1  2  1  0  0  0
 30 29  1  0  0  0
 25 26  1  0  0  0
 25 23  1  0  0  0
  3  2  2  0  0  0
  3  4  1  0  0  0
  2  8  1  0  0  0
 26 27  2  0  0  0
  4  5  1  0  0  0
  4  6  2  0  0  0
  8 23  1  0  0  0
  8  9  2  0  0  0
 18 16  2  0  0  0
 29 28  2  0  0  0
  6  9  1  0  0  0
  6  7  1  0  0  0
  9 16  1  0  0  0
 17 16  2  0  0  0
 27 28  1  0  0  0
 16 19  1  0  0  0
 19 20  1  0  0  0
 21 20  1  0  0  0
 12 14  1  0  0  0
 12 15  1  0  0  0
 21 22  1  0  0  0
 23 24  1  0  0  0
M  END
> <minimizedAffinity>
-6.85644

$$$$
4QJX_WWO_A_304


 31 32  0  0  0  0  0  0  0  0999 V2000
   24.1226    0.9019   -1.6269 F   0  0  0  0  0  0  0  0  0  0  0  0
   24.3621    1.0747   -0.3284 C   0  0  0  0  0  0  0  0  0  0  0  0
   25.6854    1.4482    0.0460 C   0  0  0  0  0  0  0  0  0  0  0  0
   25.9235    1.6270    1.4291 C   0  0  0  0  0  0  0  0  0  0  0  0
   27.0955    1.9827    1.9837 F   0  0  0  0  0  0  0  0  0  0  0  0
   24.8960    1.4550    2.3639 C   0  0  0  0  0  0  0  0  0  0  0  0
   25.2167    1.6503    3.6660 F   0  0  0  0  0  0  0  0  0  0  0  0
   23.3081    0.8840    0.5985 C   0  0  0  0  0  0  0  0  0  0  0  0
   23.5868    1.0985    1.9573 C   0  0  0  0  0  0  0  0  0  0  0  0
   27.0113    1.6567   -1.2133 S   0  0  0  0  0  0  0  0  0  0  0  0
   27.6616    3.0266   -1.3242 O   0  0  0  0  0  0  0  0  0  0  0  0
   28.3029    0.5163   -0.7362 N   0  0  0  0  0  0  0  0  0  0  0  0
   26.6222    1.3104   -2.6316 O   0  0  0  0  0  0  0  0  0  0  0  0
   28.5965    0.7159    0.2201 H   0  0  0  0  0  0  0  0  0  0  0  0
   29.0989    0.6217   -1.3652 H   0  0  0  0  0  0  0  0  0  0  0  0
   22.3176    0.7887    3.2146 S   0  0  0  0  0  0  0  0  0  0  0  0
   21.0054    1.2789    2.5619 O   0  0  0  0  0  0  0  0  0  0  0  0
   22.4887    1.9999    4.1930 O   0  0  0  0  0  0  0  0  0  0  0  0
   22.1640   -0.7136    4.1952 C   0  0  0  0  0  0  0  0  0  0  0  0
   23.3983   -1.5872    3.9165 C   0  0  0  0  0  0  0  0  0  0  0  0
   24.2585   -1.5602    5.0184 O   0  0  0  0  0  0  0  0  0  0  0  0
   24.5454   -0.6482    5.1823 H   0  0  0  0  0  0  0  0  0  0  0  0
   21.9944    0.4542    0.1419 N   0  0  0  0  0  0  0  0  0  0  0  0
   21.1719    0.9839    0.2519 H   0  0  0  0  0  0  0  0  0  0  0  0
   22.0427   -0.8470   -0.4942 C   0  0  0  0  0  0  0  0  0  0  0  0
   21.9644   -2.0743    0.3478 C   0  0  0  0  0  0  0  0  0  0  0  0
   23.0138   -3.0053    0.3907 C   0  0  0  0  0  0  0  0  0  0  0  0
   22.9281   -4.1419    1.2290 C   0  0  0  0  0  0  0  0  0  0  0  0
   21.7783   -4.3191    2.0123 C   0  0  0  0  0  0  0  0  0  0  0  0
   20.7197   -3.3932    1.9674 C   0  0  0  0  0  0  0  0  0  0  0  0
   20.8094   -2.2771    1.1316 C   0  0  0  0  0  0  0  0  0  0  0  0
 11 10  2  0  0  0
 10 12  1  0  0  0
 10  3  1  0  0  0
 10 13  2  0  0  0
 31 30  2  0  0  0
 31 26  1  0  0  0
  1  2  1  0  0  0
 30 29  1  0  0  0
 25 26  1  0  0  0
 25 23  1  0  0  0
  3  2  2  0  0  0
  3  4  1  0  0  0
  2  8  1  0  0  0
 26 27  2  0  0  0
  4  5  1  0  0  0
  4  6  2  0  0  0
  8 23  1  0  0  0
  8  9  2  0  0  0
 18 16  2  0  0  0
 29 28  2  0  0  0
  6  9  1  0  0  0
  6  7  1  0  0  0
  9 16  1  0  0  0
 17 16  2  0  0  0
 27 28  1  0  0  0
 16 19  1  0  0  0
 19 20  1  0  0  0
 21 20  1  0  0  0
 12 14  1  0  0  0
 12 15  1  0  0  0
 21 22  1  0  0  0
 23 24  1  0  0  0
M  END
> <minimizedAffinity>
-6.77378

$$$$
4QJX_WWO_A_304


 31 32  0  0  0  0  0  0  0  0999 V2000
   21.5255   -1.1962    0.7165 F   0  0  0  0  0  0  0  0  0  0  0  0
   21.5005   -0.1649    1.5585 C   0  0  0  0  0  0  0  0  0  0  0  0
   22.0874   -0.3577    2.8427 C   0  0  0  0  0  0  0  0  0  0  0  0
   22.0518    0.7473    3.7256 C   0  0  0  0  0  0  0  0  0  0  0  0
   22.5534    0.7713    4.9727 F   0  0  0  0  0  0  0  0  0  0  0  0
   21.4780    1.9625    3.3339 C   0  0  0  0  0  0  0  0  0  0  0  0
   21.4922    2.9656    4.2450 F   0  0  0  0  0  0  0  0  0  0  0  0
   20.9043    1.0508    1.1422 C   0  0  0  0  0  0  0  0  0  0  0  0
   20.9166    2.1264    2.0439 C   0  0  0  0  0  0  0  0  0  0  0  0
   22.8249   -1.9741    3.3226 S   0  0  0  0  0  0  0  0  0  0  0  0
   23.3950   -2.8406    2.2108 O   0  0  0  0  0  0  0  0  0  0  0  0
   24.1895   -1.5709    4.4051 N   0  0  0  0  0  0  0  0  0  0  0  0
   21.9142   -2.9025    4.0918 O   0  0  0  0  0  0  0  0  0  0  0  0
   24.8320   -0.9426    3.9226 H   0  0  0  0  0  0  0  0  0  0  0  0
   24.6811   -2.4258    4.6653 H   0  0  0  0  0  0  0  0  0  0  0  0
   20.0956    3.6870    1.6221 S   0  0  0  0  0  0  0  0  0  0  0  0
   21.2398    4.7253    1.5934 O   0  0  0  0  0  0  0  0  0  0  0  0
   19.4815    4.1422    2.9893 O   0  0  0  0  0  0  0  0  0  0  0  0
   18.8462    3.8970    0.3427 C   0  0  0  0  0  0  0  0  0  0  0  0
   17.7887    4.8797    0.8725 C   0  0  0  0  0  0  0  0  0  0  0  0
   16.9455    4.2282    1.7776 O   0  0  0  0  0  0  0  0  0  0  0  0
   16.4992    3.4917    1.3311 H   0  0  0  0  0  0  0  0  0  0  0  0
   20.2813    1.1543   -0.1693 N   0  0  0  0  0  0  0  0  0  0  0  0
   19.3081    1.1717   -0.3176 H   0  0  0  0  0  0  0  0  0  0  0  0
   21.2653    1.2288   -1.2305 C   0  0  0  0  0  0  0  0  0  0  0  0
   20.8562    0.9141   -2.6287 C   0  0  0  0  0  0  0  0  0  0  0  0
   19.5186    1.0092   -3.0430 C   0  0  0  0  0  0  0  0  0  0  0  0
   19.1650    0.7420   -4.3867 C   0  0  0  0  0  0  0  0  0  0  0  0
   20.1734    0.3809   -5.2921 C   0  0  0  0  0  0  0  0  0  0  0  0
   21.5149    0.2762   -4.8806 C   0  0  0  0  0  0  0  0  0  0  0  0
   21.8546    0.5351   -3.5502 C   0  0  0  0  0  0  0  0  0  0  0  0
 11 10  2  0  0  0
 10 12  1  0  0  0
 10  3  1  0  0  0
 10 13  2  0  0  0
 31 30  2  0  0  0
 31 26  1  0  0  0
  1  2  1  0  0  0
 30 29  1  0  0  0
 25 26  1  0  0  0
 25 23  1  0  0  0
  3  2  2  0  0  0
  3  4  1  0  0  0
  2  8  1  0  0  0
 26 27  2  0  0  0
  4  5  1  0  0  0
  4  6  2  0  0  0
  8 23  1  0  0  0
  8  9  2  0  0  0
 18 16  2  0  0  0
 29 28  2  0  0  0
  6  9  1  0  0  0
  6  7  1  0  0  0
  9 16  1  0  0  0
 17 16  2  0  0  0
 27 28  1  0  0  0
 16 19  1  0  0  0
 19 20  1  0  0  0
 21 20  1  0  0  0
 12 14  1  0  0  0
 12 15  1  0  0  0
 21 22  1  0  0  0
 23 24  1  0  0  0
M  END
> <minimizedAffinity>
-6.56232

$$$$
