2PWR_G4G_B_501


 50 54  0  0  0  0  0  0  0  0999 V2000
   12.1995  -17.4344  -17.8834 C   0  0  0  0  0  0  0  0  0  0  0  0
   13.5167  -18.0210  -18.2809 N   0  0  0  0  0  0  0  0  0  0  0  0
   11.4188  -18.5497  -17.1758 C   0  0  0  0  0  0  0  0  0  0  0  0
   12.1241  -19.9089  -17.6019 C   0  0  0  0  0  0  0  0  0  0  0  0
   13.4754  -19.4760  -18.2694 C   0  0  0  0  0  0  0  0  0  0  0  0
   14.2321  -17.7041  -17.6265 H   0  0  0  0  0  0  0  0  0  0  0  0
   11.5948  -18.5091  -15.6934 N   0  0  0  0  0  0  0  0  0  0  0  0
   10.1851  -18.7854  -14.8030 S   0  0  0  0  0  0  0  0  0  0  0  0
    9.5409  -19.9641  -15.4204 O   0  0  0  0  0  0  0  0  0  0  0  0
   10.6721  -18.9351  -13.4131 O   0  0  0  0  0  0  0  0  0  0  0  0
    8.6705  -15.0004  -14.5460 C   0  0  0  0  0  0  0  0  0  0  0  0
    6.9420  -16.4810  -15.5376 C   0  0  0  0  0  0  0  0  0  0  0  0
    7.3604  -15.1914  -15.1141 C   0  0  0  0  0  0  0  0  0  0  0  0
    9.5808  -16.0849  -14.4779 C   0  0  0  0  0  0  0  0  0  0  0  0
    7.8756  -17.5405  -15.4814 C   0  0  0  0  0  0  0  0  0  0  0  0
    9.1732  -17.3808  -14.8944 C   0  0  0  0  0  0  0  0  0  0  0  0
    5.4125  -14.0618  -16.0354 N   0  0  0  0  0  0  0  0  0  0  0  0
    6.6156  -13.0643  -14.4531 O   0  0  0  0  0  0  0  0  0  0  0  0
    6.4515  -14.0405  -15.1765 C   0  0  0  0  0  0  0  0  0  0  0  0
    4.7980  -13.2941  -16.0837 H   0  0  0  0  0  0  0  0  0  0  0  0
    5.2683  -14.8450  -16.6143 H   0  0  0  0  0  0  0  0  0  0  0  0
   12.8275  -18.3205  -14.8672 C   0  0  0  0  0  0  0  0  0  0  0  0
   13.6476  -19.6144  -14.8260 C   0  0  0  0  0  0  0  0  0  0  0  0
   13.0058  -20.7991  -14.3149 C   0  0  0  0  0  0  0  0  0  0  0  0
   14.9773  -19.6596  -15.3151 C   0  0  0  0  0  0  0  0  0  0  0  0
   13.8441  -21.9573  -14.3531 C   0  0  0  0  0  0  0  0  0  0  0  0
   15.8365  -20.8136  -15.2834 C   0  0  0  0  0  0  0  0  0  0  0  0
   15.2039  -22.0012  -14.7524 C   0  0  0  0  0  0  0  0  0  0  0  0
   11.3241  -20.6162  -18.6352 N   0  0  0  0  0  0  0  0  0  0  0  0
   11.0327  -22.2646  -18.3429 S   0  0  0  0  0  0  0  0  0  0  0  0
   10.9779  -22.5446  -16.9136 O   0  0  0  0  0  0  0  0  0  0  0  0
   10.0501  -22.6838  -19.3037 O   0  0  0  0  0  0  0  0  0  0  0  0
   14.8290  -23.7989  -18.5629 C   0  0  0  0  0  0  0  0  0  0  0  0
   13.9695  -23.4581  -20.8604 C   0  0  0  0  0  0  0  0  0  0  0  0
   14.9866  -23.8424  -19.9581 C   0  0  0  0  0  0  0  0  0  0  0  0
   13.6266  -23.2546  -18.0446 C   0  0  0  0  0  0  0  0  0  0  0  0
   12.7565  -22.9510  -20.3265 C   0  0  0  0  0  0  0  0  0  0  0  0
   12.5939  -22.8869  -18.9214 C   0  0  0  0  0  0  0  0  0  0  0  0
   16.5406  -24.1659  -21.6573 O   0  0  0  0  0  0  0  0  0  0  0  0
   17.0610  -25.1550  -19.7070 N   0  0  0  0  0  0  0  0  0  0  0  0
   16.2767  -24.4277  -20.4929 C   0  0  0  0  0  0  0  0  0  0  0  0
   17.8985  -25.5327  -20.0609 H   0  0  0  0  0  0  0  0  0  0  0  0
   16.8054  -25.3167  -18.7701 H   0  0  0  0  0  0  0  0  0  0  0  0
   10.8597  -20.0700  -19.9270 C   0  0  0  0  0  0  0  0  0  0  0  0
    9.5769  -19.2886  -19.8996 C   0  0  0  0  0  0  0  0  0  0  0  0
    8.6209  -19.5116  -18.8882 C   0  0  0  0  0  0  0  0  0  0  0  0
    7.4634  -18.7305  -18.9499 C   0  0  0  0  0  0  0  0  0  0  0  0
    7.2422  -17.8087  -19.9959 C   0  0  0  0  0  0  0  0  0  0  0  0
    9.4121  -18.3139  -20.9048 C   0  0  0  0  0  0  0  0  0  0  0  0
    8.2092  -17.5886  -21.0084 C   0  0  0  0  0  0  0  0  0  0  0  0
 11 13  2  0  0  0
 11 14  1  0  0  0
 39 41  2  0  0  0
 17 19  1  0  0  0
 33 36  2  0  0  0
 33 35  1  0  0  0
 18 19  2  0  0  0
 40 41  1  0  0  0
 12 15  2  0  0  0
 12 13  1  0  0  0
 13 19  1  0  0  0
 34 35  2  0  0  0
 34 37  1  0  0  0
 35 41  1  0  0  0
 22  7  1  0  0  0
 22 23  1  0  0  0
  8  7  1  0  0  0
  8  9  2  0  0  0
  8 16  1  0  0  0
  8 10  2  0  0  0
 30 32  2  0  0  0
 30 38  1  0  0  0
 30 29  1  0  0  0
 30 31  2  0  0  0
 23 25  1  0  0  0
 23 24  2  0  0  0
 24 26  1  0  0  0
 25 27  2  0  0  0
 14 16  2  0  0  0
 36 38  1  0  0  0
 15 16  1  0  0  0
 37 38  2  0  0  0
  1  2  1  0  0  0
  1  3  1  0  0  0
  2  5  1  0  0  0
  3  4  1  0  0  0
  3  7  1  0  0  0
  4 29  1  0  0  0
  4  5  1  0  0  0
 26 28  2  0  0  0
 27 28  1  0  0  0
 29 44  1  0  0  0
 44 45  1  0  0  0
 45 49  1  0  0  0
 45 46  2  0  0  0
 46 47  1  0  0  0
 47 48  2  0  0  0
 48 50  1  0  0  0
 49 50  2  0  0  0
 17 20  1  0  0  0
 17 21  1  0  0  0
 40 42  1  0  0  0
 40 43  1  0  0  0
  2  6  1  0  0  0
M  END
> <minimizedAffinity>
-12.19036

$$$$
2PWR_G4G_B_501


 50 54  0  0  0  0  0  0  0  0999 V2000
   13.3799  -18.6472  -18.0937 C   0  0  0  0  0  0  0  0  0  0  0  0
   12.5088  -17.4321  -18.0492 N   0  0  0  0  0  0  0  0  0  0  0  0
   12.5629  -19.7945  -17.4854 C   0  0  0  0  0  0  0  0  0  0  0  0
   11.3934  -19.1029  -16.6604 C   0  0  0  0  0  0  0  0  0  0  0  0
   11.4092  -17.6008  -17.1106 C   0  0  0  0  0  0  0  0  0  0  0  0
   12.1276  -17.2629  -18.9800 H   0  0  0  0  0  0  0  0  0  0  0  0
   11.8417  -20.5873  -18.5252 N   0  0  0  0  0  0  0  0  0  0  0  0
   11.5997  -22.2142  -18.1369 S   0  0  0  0  0  0  0  0  0  0  0  0
   11.1769  -22.2338  -16.7204 O   0  0  0  0  0  0  0  0  0  0  0  0
   10.6121  -22.6711  -19.1406 O   0  0  0  0  0  0  0  0  0  0  0  0
   14.4049  -25.0639  -18.9713 C   0  0  0  0  0  0  0  0  0  0  0  0
   15.5670  -23.0022  -18.2216 C   0  0  0  0  0  0  0  0  0  0  0  0
   15.6196  -24.3409  -18.6934 C   0  0  0  0  0  0  0  0  0  0  0  0
   13.1492  -24.4174  -18.8500 C   0  0  0  0  0  0  0  0  0  0  0  0
   14.3050  -22.3724  -18.1318 C   0  0  0  0  0  0  0  0  0  0  0  0
   13.0826  -23.0799  -18.3751 C   0  0  0  0  0  0  0  0  0  0  0  0
   17.2340  -26.0065  -17.9595 N   0  0  0  0  0  0  0  0  0  0  0  0
   17.6665  -24.7752  -19.7602 O   0  0  0  0  0  0  0  0  0  0  0  0
   16.9000  -25.0432  -18.8416 C   0  0  0  0  0  0  0  0  0  0  0  0
   18.0908  -26.4826  -18.0515 H   0  0  0  0  0  0  0  0  0  0  0  0
   16.6210  -26.2339  -17.2234 H   0  0  0  0  0  0  0  0  0  0  0  0
   11.2474  -20.1625  -19.8307 C   0  0  0  0  0  0  0  0  0  0  0  0
    9.9652  -19.3561  -19.5982 C   0  0  0  0  0  0  0  0  0  0  0  0
    9.7623  -18.1742  -20.3973 C   0  0  0  0  0  0  0  0  0  0  0  0
    8.9882  -19.7795  -18.6625 C   0  0  0  0  0  0  0  0  0  0  0  0
    8.5213  -17.5161  -20.1281 C   0  0  0  0  0  0  0  0  0  0  0  0
    7.7755  -19.0712  -18.3481 C   0  0  0  0  0  0  0  0  0  0  0  0
    7.5761  -17.8727  -19.1332 C   0  0  0  0  0  0  0  0  0  0  0  0
   11.6864  -19.1339  -15.2040 N   0  0  0  0  0  0  0  0  0  0  0  0
   11.5882  -17.6405  -14.3992 S   0  0  0  0  0  0  0  0  0  0  0  0
   11.6605  -17.8150  -12.9540 O   0  0  0  0  0  0  0  0  0  0  0  0
   12.3802  -16.7128  -15.1585 O   0  0  0  0  0  0  0  0  0  0  0  0
    8.1256  -15.8224  -15.6320 C   0  0  0  0  0  0  0  0  0  0  0  0
    7.5851  -18.0911  -14.7988 C   0  0  0  0  0  0  0  0  0  0  0  0
    7.2042  -16.8396  -15.3327 C   0  0  0  0  0  0  0  0  0  0  0  0
    9.4858  -16.0340  -15.2920 C   0  0  0  0  0  0  0  0  0  0  0  0
    8.9559  -18.3027  -14.4992 C   0  0  0  0  0  0  0  0  0  0  0  0
    9.8907  -17.2773  -14.7812 C   0  0  0  0  0  0  0  0  0  0  0  0
    5.2748  -15.5418  -15.3150 O   0  0  0  0  0  0  0  0  0  0  0  0
    5.0906  -17.4845  -16.4308 N   0  0  0  0  0  0  0  0  0  0  0  0
    5.7566  -16.5959  -15.7038 C   0  0  0  0  0  0  0  0  0  0  0  0
    4.1496  -17.3200  -16.6687 H   0  0  0  0  0  0  0  0  0  0  0  0
    5.5378  -18.3082  -16.7323 H   0  0  0  0  0  0  0  0  0  0  0  0
   12.1585  -20.2919  -14.4173 C   0  0  0  0  0  0  0  0  0  0  0  0
   13.6064  -20.6605  -14.5740 C   0  0  0  0  0  0  0  0  0  0  0  0
   14.5633  -19.6848  -14.9186 C   0  0  0  0  0  0  0  0  0  0  0  0
   15.8834  -20.1292  -15.0359 C   0  0  0  0  0  0  0  0  0  0  0  0
   16.2290  -21.4879  -14.8704 C   0  0  0  0  0  0  0  0  0  0  0  0
   13.9441  -22.0060  -14.3224 C   0  0  0  0  0  0  0  0  0  0  0  0
   15.2613  -22.4629  -14.5219 C   0  0  0  0  0  0  0  0  0  0  0  0
 11 13  2  0  0  0
 11 14  1  0  0  0
 39 41  2  0  0  0
 17 19  1  0  0  0
 33 36  2  0  0  0
 33 35  1  0  0  0
 18 19  2  0  0  0
 40 41  1  0  0  0
 12 15  2  0  0  0
 12 13  1  0  0  0
 13 19  1  0  0  0
 34 35  2  0  0  0
 34 37  1  0  0  0
 35 41  1  0  0  0
 22  7  1  0  0  0
 22 23  1  0  0  0
  8  7  1  0  0  0
  8  9  2  0  0  0
  8 16  1  0  0  0
  8 10  2  0  0  0
 30 32  2  0  0  0
 30 38  1  0  0  0
 30 29  1  0  0  0
 30 31  2  0  0  0
 23 25  1  0  0  0
 23 24  2  0  0  0
 24 26  1  0  0  0
 25 27  2  0  0  0
 14 16  2  0  0  0
 36 38  1  0  0  0
 15 16  1  0  0  0
 37 38  2  0  0  0
  1  2  1  0  0  0
  1  3  1  0  0  0
  2  5  1  0  0  0
  3  4  1  0  0  0
  3  7  1  0  0  0
  4 29  1  0  0  0
  4  5  1  0  0  0
 26 28  2  0  0  0
 27 28  1  0  0  0
 29 44  1  0  0  0
 44 45  1  0  0  0
 45 49  1  0  0  0
 45 46  2  0  0  0
 46 47  1  0  0  0
 47 48  2  0  0  0
 48 50  1  0  0  0
 49 50  2  0  0  0
 17 20  1  0  0  0
 17 21  1  0  0  0
 40 42  1  0  0  0
 40 43  1  0  0  0
  2  6  1  0  0  0
M  END
> <minimizedAffinity>
-10.07371

$$$$
2PWR_G4G_B_501


 50 54  0  0  0  0  0  0  0  0999 V2000
   11.4735  -20.0915  -14.4434 C   0  0  0  0  0  0  0  0  0  0  0  0
   12.3349  -18.9223  -14.0854 N   0  0  0  0  0  0  0  0  0  0  0  0
   10.9560  -19.8355  -15.8648 C   0  0  0  0  0  0  0  0  0  0  0  0
   11.1519  -18.2794  -16.1229 C   0  0  0  0  0  0  0  0  0  0  0  0
   12.0756  -17.7851  -14.9561 C   0  0  0  0  0  0  0  0  0  0  0  0
   13.3145  -19.1922  -14.1749 H   0  0  0  0  0  0  0  0  0  0  0  0
   11.8161  -20.4776  -16.9031 N   0  0  0  0  0  0  0  0  0  0  0  0
   11.1103  -21.7924  -17.6963 S   0  0  0  0  0  0  0  0  0  0  0  0
   10.5311  -22.6425  -16.6345 O   0  0  0  0  0  0  0  0  0  0  0  0
   10.1647  -21.1628  -18.6454 O   0  0  0  0  0  0  0  0  0  0  0  0
   13.9098  -24.4775  -18.9766 C   0  0  0  0  0  0  0  0  0  0  0  0
   13.7971  -22.6100  -20.6084 C   0  0  0  0  0  0  0  0  0  0  0  0
   14.3414  -23.8579  -20.2035 C   0  0  0  0  0  0  0  0  0  0  0  0
   12.8808  -23.8832  -18.2037 C   0  0  0  0  0  0  0  0  0  0  0  0
   12.7563  -22.0499  -19.8337 C   0  0  0  0  0  0  0  0  0  0  0  0
   12.3309  -22.6330  -18.5956 C   0  0  0  0  0  0  0  0  0  0  0  0
   15.7787  -23.9831  -22.1625 N   0  0  0  0  0  0  0  0  0  0  0  0
   15.9577  -25.5227  -20.5676 O   0  0  0  0  0  0  0  0  0  0  0  0
   15.4018  -24.5109  -20.9805 C   0  0  0  0  0  0  0  0  0  0  0  0
   16.4891  -24.4146  -22.6901 H   0  0  0  0  0  0  0  0  0  0  0  0
   15.3435  -23.1663  -22.4980 H   0  0  0  0  0  0  0  0  0  0  0  0
   13.1800  -20.1106  -17.3960 C   0  0  0  0  0  0  0  0  0  0  0  0
   14.2504  -20.5670  -16.3989 C   0  0  0  0  0  0  0  0  0  0  0  0
   15.2659  -19.6160  -16.0232 C   0  0  0  0  0  0  0  0  0  0  0  0
   14.2205  -21.8643  -15.8284 C   0  0  0  0  0  0  0  0  0  0  0  0
   16.1932  -20.1291  -15.0627 C   0  0  0  0  0  0  0  0  0  0  0  0
   15.1994  -22.3949  -14.9167 C   0  0  0  0  0  0  0  0  0  0  0  0
   16.2328  -21.4510  -14.5514 C   0  0  0  0  0  0  0  0  0  0  0  0
    9.8582  -17.5583  -16.0020 N   0  0  0  0  0  0  0  0  0  0  0  0
    9.0209  -17.7841  -14.5407 S   0  0  0  0  0  0  0  0  0  0  0  0
    8.2339  -19.0106  -14.5685 O   0  0  0  0  0  0  0  0  0  0  0  0
    9.9238  -17.4072  -13.4885 O   0  0  0  0  0  0  0  0  0  0  0  0
    7.1941  -14.1151  -14.4148 C   0  0  0  0  0  0  0  0  0  0  0  0
    5.7016  -15.7125  -15.5787 C   0  0  0  0  0  0  0  0  0  0  0  0
    5.9869  -14.4291  -15.0610 C   0  0  0  0  0  0  0  0  0  0  0  0
    8.1232  -15.1630  -14.1925 C   0  0  0  0  0  0  0  0  0  0  0  0
    6.6580  -16.7421  -15.3824 C   0  0  0  0  0  0  0  0  0  0  0  0
    7.8709  -16.4404  -14.7170 C   0  0  0  0  0  0  0  0  0  0  0  0
    4.1931  -13.4676  -16.1856 O   0  0  0  0  0  0  0  0  0  0  0  0
    5.0453  -12.2115  -14.5276 N   0  0  0  0  0  0  0  0  0  0  0  0
    5.0076  -13.2972  -15.2902 C   0  0  0  0  0  0  0  0  0  0  0  0
    4.4057  -11.4791  -14.6819 H   0  0  0  0  0  0  0  0  0  0  0  0
    5.7128  -12.1385  -13.8076 H   0  0  0  0  0  0  0  0  0  0  0  0
    9.1803  -16.7682  -17.0502 C   0  0  0  0  0  0  0  0  0  0  0  0
    9.0730  -17.4083  -18.4051 C   0  0  0  0  0  0  0  0  0  0  0  0
   10.2294  -17.8069  -19.1054 C   0  0  0  0  0  0  0  0  0  0  0  0
   10.0215  -18.3962  -20.3557 C   0  0  0  0  0  0  0  0  0  0  0  0
    8.7296  -18.5354  -20.9076 C   0  0  0  0  0  0  0  0  0  0  0  0
    7.7700  -17.6148  -18.9022 C   0  0  0  0  0  0  0  0  0  0  0  0
    7.5713  -18.1339  -20.1964 C   0  0  0  0  0  0  0  0  0  0  0  0
 11 13  2  0  0  0
 11 14  1  0  0  0
 39 41  2  0  0  0
 17 19  1  0  0  0
 33 36  2  0  0  0
 33 35  1  0  0  0
 18 19  2  0  0  0
 40 41  1  0  0  0
 12 15  2  0  0  0
 12 13  1  0  0  0
 13 19  1  0  0  0
 34 35  2  0  0  0
 34 37  1  0  0  0
 35 41  1  0  0  0
 22  7  1  0  0  0
 22 23  1  0  0  0
  8  7  1  0  0  0
  8  9  2  0  0  0
  8 16  1  0  0  0
  8 10  2  0  0  0
 30 32  2  0  0  0
 30 38  1  0  0  0
 30 29  1  0  0  0
 30 31  2  0  0  0
 23 25  1  0  0  0
 23 24  2  0  0  0
 24 26  1  0  0  0
 25 27  2  0  0  0
 14 16  2  0  0  0
 36 38  1  0  0  0
 15 16  1  0  0  0
 37 38  2  0  0  0
  1  2  1  0  0  0
  1  3  1  0  0  0
  2  5  1  0  0  0
  3  4  1  0  0  0
  3  7  1  0  0  0
  4 29  1  0  0  0
  4  5  1  0  0  0
 26 28  2  0  0  0
 27 28  1  0  0  0
 29 44  1  0  0  0
 44 45  1  0  0  0
 45 49  1  0  0  0
 45 46  2  0  0  0
 46 47  1  0  0  0
 47 48  2  0  0  0
 48 50  1  0  0  0
 49 50  2  0  0  0
 17 20  1  0  0  0
 17 21  1  0  0  0
 40 42  1  0  0  0
 40 43  1  0  0  0
  2  6  1  0  0  0
M  END
> <minimizedAffinity>
-10.05271

$$$$
2PWR_G4G_B_501


 50 54  0  0  0  0  0  0  0  0999 V2000
   11.2370  -20.0889  -19.6016 C   0  0  0  0  0  0  0  0  0  0  0  0
    9.9848  -20.9062  -19.6346 N   0  0  0  0  0  0  0  0  0  0  0  0
   11.6427  -19.9683  -18.1269 C   0  0  0  0  0  0  0  0  0  0  0  0
   10.3400  -20.3257  -17.2892 C   0  0  0  0  0  0  0  0  0  0  0  0
    9.3461  -20.9527  -18.3275 C   0  0  0  0  0  0  0  0  0  0  0  0
   10.2162  -21.8563  -19.9249 H   0  0  0  0  0  0  0  0  0  0  0  0
   12.6230  -21.0199  -17.7230 N   0  0  0  0  0  0  0  0  0  0  0  0
   14.1240  -20.4337  -17.2136 S   0  0  0  0  0  0  0  0  0  0  0  0
   15.0062  -20.4960  -18.3982 O   0  0  0  0  0  0  0  0  0  0  0  0
   13.8117  -19.0900  -16.6766 O   0  0  0  0  0  0  0  0  0  0  0  0
   14.5067  -22.5972  -13.7698 C   0  0  0  0  0  0  0  0  0  0  0  0
   16.6556  -22.6921  -15.0094 C   0  0  0  0  0  0  0  0  0  0  0  0
   15.8625  -23.0686  -13.8929 C   0  0  0  0  0  0  0  0  0  0  0  0
   13.9289  -21.8172  -14.8028 C   0  0  0  0  0  0  0  0  0  0  0  0
   16.0495  -21.9342  -16.0368 C   0  0  0  0  0  0  0  0  0  0  0  0
   14.7127  -21.4303  -15.9231 C   0  0  0  0  0  0  0  0  0  0  0  0
   16.0109  -25.1586  -12.6564 N   0  0  0  0  0  0  0  0  0  0  0  0
   17.2598  -23.4251  -12.0390 O   0  0  0  0  0  0  0  0  0  0  0  0
   16.4202  -23.8829  -12.8063 C   0  0  0  0  0  0  0  0  0  0  0  0
   16.3798  -25.7119  -11.9304 H   0  0  0  0  0  0  0  0  0  0  0  0
   15.3431  -25.5370  -13.2729 H   0  0  0  0  0  0  0  0  0  0  0  0
   12.4733  -22.5061  -17.6412 C   0  0  0  0  0  0  0  0  0  0  0  0
   13.2491  -23.1856  -18.7747 C   0  0  0  0  0  0  0  0  0  0  0  0
   14.1362  -24.2664  -18.4260 C   0  0  0  0  0  0  0  0  0  0  0  0
   13.0690  -22.7980  -20.1262 C   0  0  0  0  0  0  0  0  0  0  0  0
   14.7830  -24.8544  -19.5581 C   0  0  0  0  0  0  0  0  0  0  0  0
   13.7782  -23.3485  -21.2510 C   0  0  0  0  0  0  0  0  0  0  0  0
   14.6854  -24.4205  -20.9045 C   0  0  0  0  0  0  0  0  0  0  0  0
    9.7044  -19.0944  -16.7525 N   0  0  0  0  0  0  0  0  0  0  0  0
    9.8263  -17.7127  -17.7341 S   0  0  0  0  0  0  0  0  0  0  0  0
   11.1030  -17.0376  -17.5374 O   0  0  0  0  0  0  0  0  0  0  0  0
    9.2681  -18.0658  -19.0101 O   0  0  0  0  0  0  0  0  0  0  0  0
    7.9109  -15.0355  -15.2890 C   0  0  0  0  0  0  0  0  0  0  0  0
    6.2301  -16.1514  -16.7256 C   0  0  0  0  0  0  0  0  0  0  0  0
    6.5840  -15.2473  -15.6990 C   0  0  0  0  0  0  0  0  0  0  0  0
    8.9245  -15.8381  -15.8712 C   0  0  0  0  0  0  0  0  0  0  0  0
    7.2606  -16.9203  -17.3260 C   0  0  0  0  0  0  0  0  0  0  0  0
    8.5995  -16.7269  -16.9080 C   0  0  0  0  0  0  0  0  0  0  0  0
    4.3613  -14.7457  -15.2355 O   0  0  0  0  0  0  0  0  0  0  0  0
    5.8516  -13.3101  -14.3574 N   0  0  0  0  0  0  0  0  0  0  0  0
    5.5156  -14.3804  -15.0669 C   0  0  0  0  0  0  0  0  0  0  0  0
    5.1520  -12.7507  -13.9490 H   0  0  0  0  0  0  0  0  0  0  0  0
    6.8005  -13.0757  -14.2396 H   0  0  0  0  0  0  0  0  0  0  0  0
    9.0858  -18.9216  -15.4221 C   0  0  0  0  0  0  0  0  0  0  0  0
   10.0274  -18.7346  -14.2666 C   0  0  0  0  0  0  0  0  0  0  0  0
    9.6437  -17.9765  -13.1421 C   0  0  0  0  0  0  0  0  0  0  0  0
   10.5904  -17.8663  -12.1196 C   0  0  0  0  0  0  0  0  0  0  0  0
   11.8765  -18.4377  -12.2310 C   0  0  0  0  0  0  0  0  0  0  0  0
   11.2758  -19.3830  -14.3606 C   0  0  0  0  0  0  0  0  0  0  0  0
   12.2544  -19.2004  -13.3642 C   0  0  0  0  0  0  0  0  0  0  0  0
 11 13  2  0  0  0
 11 14  1  0  0  0
 39 41  2  0  0  0
 17 19  1  0  0  0
 33 36  2  0  0  0
 33 35  1  0  0  0
 18 19  2  0  0  0
 40 41  1  0  0  0
 12 15  2  0  0  0
 12 13  1  0  0  0
 13 19  1  0  0  0
 34 35  2  0  0  0
 34 37  1  0  0  0
 35 41  1  0  0  0
 22  7  1  0  0  0
 22 23  1  0  0  0
  8  7  1  0  0  0
  8  9  2  0  0  0
  8 16  1  0  0  0
  8 10  2  0  0  0
 30 32  2  0  0  0
 30 38  1  0  0  0
 30 29  1  0  0  0
 30 31  2  0  0  0
 23 25  1  0  0  0
 23 24  2  0  0  0
 24 26  1  0  0  0
 25 27  2  0  0  0
 14 16  2  0  0  0
 36 38  1  0  0  0
 15 16  1  0  0  0
 37 38  2  0  0  0
  1  2  1  0  0  0
  1  3  1  0  0  0
  2  5  1  0  0  0
  3  4  1  0  0  0
  3  7  1  0  0  0
  4 29  1  0  0  0
  4  5  1  0  0  0
 26 28  2  0  0  0
 27 28  1  0  0  0
 29 44  1  0  0  0
 44 45  1  0  0  0
 45 49  1  0  0  0
 45 46  2  0  0  0
 46 47  1  0  0  0
 47 48  2  0  0  0
 48 50  1  0  0  0
 49 50  2  0  0  0
 17 20  1  0  0  0
 17 21  1  0  0  0
 40 42  1  0  0  0
 40 43  1  0  0  0
  2  6  1  0  0  0
M  END
> <minimizedAffinity>
-9.83051

$$$$
2PWR_G4G_B_501


 50 54  0  0  0  0  0  0  0  0999 V2000
    9.4445  -20.7218  -16.7442 C   0  0  0  0  0  0  0  0  0  0  0  0
    9.3379  -20.9190  -18.2229 N   0  0  0  0  0  0  0  0  0  0  0  0
   10.7216  -19.9068  -16.5017 C   0  0  0  0  0  0  0  0  0  0  0  0
   11.5876  -20.0555  -17.8262 C   0  0  0  0  0  0  0  0  0  0  0  0
   10.6122  -20.6786  -18.8842 C   0  0  0  0  0  0  0  0  0  0  0  0
    8.6436  -20.2710  -18.5950 H   0  0  0  0  0  0  0  0  0  0  0  0
   10.4489  -18.4408  -16.4197 N   0  0  0  0  0  0  0  0  0  0  0  0
   10.1456  -17.8609  -14.8615 S   0  0  0  0  0  0  0  0  0  0  0  0
    9.8366  -19.0503  -14.0398 O   0  0  0  0  0  0  0  0  0  0  0  0
   11.3747  -17.1088  -14.5220 O   0  0  0  0  0  0  0  0  0  0  0  0
    6.4467  -16.1722  -15.2528 C   0  0  0  0  0  0  0  0  0  0  0  0
    8.0824  -14.3840  -14.7143 C   0  0  0  0  0  0  0  0  0  0  0  0
    6.7475  -14.7899  -14.9805 C   0  0  0  0  0  0  0  0  0  0  0  0
    7.4703  -17.1502  -15.1797 C   0  0  0  0  0  0  0  0  0  0  0  0
    9.0803  -15.3805  -14.6234 C   0  0  0  0  0  0  0  0  0  0  0  0
    8.8104  -16.7567  -14.9183 C   0  0  0  0  0  0  0  0  0  0  0  0
    4.7332  -13.9196  -16.0314 N   0  0  0  0  0  0  0  0  0  0  0  0
    5.5675  -12.8989  -14.2403 O   0  0  0  0  0  0  0  0  0  0  0  0
    5.6574  -13.8098  -15.0559 C   0  0  0  0  0  0  0  0  0  0  0  0
    3.9987  -13.2666  -16.0893 H   0  0  0  0  0  0  0  0  0  0  0  0
    4.7929  -14.6526  -16.6858 H   0  0  0  0  0  0  0  0  0  0  0  0
   10.4571  -17.3911  -17.4854 C   0  0  0  0  0  0  0  0  0  0  0  0
    9.3257  -17.6380  -18.4890 C   0  0  0  0  0  0  0  0  0  0  0  0
    9.6832  -17.8034  -19.8752 C   0  0  0  0  0  0  0  0  0  0  0  0
    7.9769  -17.7463  -18.0666 C   0  0  0  0  0  0  0  0  0  0  0  0
    8.5600  -18.0642  -20.7214 C   0  0  0  0  0  0  0  0  0  0  0  0
    6.8459  -17.9381  -18.9356 C   0  0  0  0  0  0  0  0  0  0  0  0
    7.1970  -18.0846  -20.3312 C   0  0  0  0  0  0  0  0  0  0  0  0
   12.6992  -21.0206  -17.6233 N   0  0  0  0  0  0  0  0  0  0  0  0
   14.2433  -20.3381  -17.4298 S   0  0  0  0  0  0  0  0  0  0  0  0
   15.1126  -20.6755  -18.5499 O   0  0  0  0  0  0  0  0  0  0  0  0
   14.0438  -19.0134  -16.9105 O   0  0  0  0  0  0  0  0  0  0  0  0
   14.4271  -22.3891  -13.8837 C   0  0  0  0  0  0  0  0  0  0  0  0
   16.5536  -22.7188  -15.1098 C   0  0  0  0  0  0  0  0  0  0  0  0
   15.7235  -22.9208  -13.9843 C   0  0  0  0  0  0  0  0  0  0  0  0
   13.9749  -21.5346  -14.9210 C   0  0  0  0  0  0  0  0  0  0  0  0
   16.0721  -21.8921  -16.1578 C   0  0  0  0  0  0  0  0  0  0  0  0
   14.7732  -21.3373  -16.0586 C   0  0  0  0  0  0  0  0  0  0  0  0
   17.1241  -23.4208  -12.1968 O   0  0  0  0  0  0  0  0  0  0  0  0
   15.5758  -24.9877  -12.6446 N   0  0  0  0  0  0  0  0  0  0  0  0
   16.1886  -23.8317  -12.8677 C   0  0  0  0  0  0  0  0  0  0  0  0
   15.8832  -25.5754  -11.9170 H   0  0  0  0  0  0  0  0  0  0  0  0
   14.8139  -25.2576  -13.2067 H   0  0  0  0  0  0  0  0  0  0  0  0
   12.6184  -22.4944  -17.6855 C   0  0  0  0  0  0  0  0  0  0  0  0
   13.3268  -23.1546  -18.8341 C   0  0  0  0  0  0  0  0  0  0  0  0
   13.0855  -22.7420  -20.1600 C   0  0  0  0  0  0  0  0  0  0  0  0
   13.7976  -23.4169  -21.1557 C   0  0  0  0  0  0  0  0  0  0  0  0
   14.6686  -24.4860  -20.8534 C   0  0  0  0  0  0  0  0  0  0  0  0
   14.2551  -24.1633  -18.5051 C   0  0  0  0  0  0  0  0  0  0  0  0
   14.9075  -24.8938  -19.5173 C   0  0  0  0  0  0  0  0  0  0  0  0
 11 13  2  0  0  0
 11 14  1  0  0  0
 39 41  2  0  0  0
 17 19  1  0  0  0
 33 36  2  0  0  0
 33 35  1  0  0  0
 18 19  2  0  0  0
 40 41  1  0  0  0
 12 15  2  0  0  0
 12 13  1  0  0  0
 13 19  1  0  0  0
 34 35  2  0  0  0
 34 37  1  0  0  0
 35 41  1  0  0  0
 22  7  1  0  0  0
 22 23  1  0  0  0
  8  7  1  0  0  0
  8  9  2  0  0  0
  8 16  1  0  0  0
  8 10  2  0  0  0
 30 32  2  0  0  0
 30 38  1  0  0  0
 30 29  1  0  0  0
 30 31  2  0  0  0
 23 25  1  0  0  0
 23 24  2  0  0  0
 24 26  1  0  0  0
 25 27  2  0  0  0
 14 16  2  0  0  0
 36 38  1  0  0  0
 15 16  1  0  0  0
 37 38  2  0  0  0
  1  2  1  0  0  0
  1  3  1  0  0  0
  2  5  1  0  0  0
  3  4  1  0  0  0
  3  7  1  0  0  0
  4 29  1  0  0  0
  4  5  1  0  0  0
 26 28  2  0  0  0
 27 28  1  0  0  0
 29 44  1  0  0  0
 44 45  1  0  0  0
 45 49  1  0  0  0
 45 46  2  0  0  0
 46 47  1  0  0  0
 47 48  2  0  0  0
 48 50  1  0  0  0
 49 50  2  0  0  0
 17 20  1  0  0  0
 17 21  1  0  0  0
 40 42  1  0  0  0
 40 43  1  0  0  0
  2  6  1  0  0  0
M  END
> <minimizedAffinity>
-9.73252

$$$$
2PWR_G4G_B_501


 50 54  0  0  0  0  0  0  0  0999 V2000
   10.2903  -18.1025  -19.3888 C   0  0  0  0  0  0  0  0  0  0  0  0
    9.1705  -18.9737  -19.8624 N   0  0  0  0  0  0  0  0  0  0  0  0
   10.2995  -18.1946  -17.8574 C   0  0  0  0  0  0  0  0  0  0  0  0
    8.8687  -18.7536  -17.4489 C   0  0  0  0  0  0  0  0  0  0  0  0
    8.2318  -19.2631  -18.7882 C   0  0  0  0  0  0  0  0  0  0  0  0
    9.5571  -19.8510  -20.2106 H   0  0  0  0  0  0  0  0  0  0  0  0
   11.2431  -19.2399  -17.3602 N   0  0  0  0  0  0  0  0  0  0  0  0
   12.7588  -18.6613  -16.8870 S   0  0  0  0  0  0  0  0  0  0  0  0
   13.4712  -18.3223  -18.1372 O   0  0  0  0  0  0  0  0  0  0  0  0
   12.4371  -17.5436  -15.9711 O   0  0  0  0  0  0  0  0  0  0  0  0
   13.8505  -21.4447  -14.1036 C   0  0  0  0  0  0  0  0  0  0  0  0
   15.5977  -21.3566  -15.8651 C   0  0  0  0  0  0  0  0  0  0  0  0
   15.0914  -21.9175  -14.6625 C   0  0  0  0  0  0  0  0  0  0  0  0
   13.0863  -20.4698  -14.7927 C   0  0  0  0  0  0  0  0  0  0  0  0
   14.8061  -20.4037  -16.5453 C   0  0  0  0  0  0  0  0  0  0  0  0
   13.5836  -19.8977  -15.9946 C   0  0  0  0  0  0  0  0  0  0  0  0
   15.1877  -23.8144  -13.1420 N   0  0  0  0  0  0  0  0  0  0  0  0
   17.0681  -23.0068  -14.0125 O   0  0  0  0  0  0  0  0  0  0  0  0
   15.8473  -22.9357  -13.9233 C   0  0  0  0  0  0  0  0  0  0  0  0
   15.6868  -24.5005  -12.6427 H   0  0  0  0  0  0  0  0  0  0  0  0
   14.2068  -23.7698  -13.0707 H   0  0  0  0  0  0  0  0  0  0  0  0
   11.0455  -20.7089  -17.1587 C   0  0  0  0  0  0  0  0  0  0  0  0
   11.9065  -21.5053  -18.1450 C   0  0  0  0  0  0  0  0  0  0  0  0
   12.3105  -22.8343  -17.7610 C   0  0  0  0  0  0  0  0  0  0  0  0
   12.2576  -20.9745  -19.4116 C   0  0  0  0  0  0  0  0  0  0  0  0
   13.0788  -23.5036  -18.7647 C   0  0  0  0  0  0  0  0  0  0  0  0
   13.0910  -21.6286  -20.3856 C   0  0  0  0  0  0  0  0  0  0  0  0
   13.5164  -22.9554  -19.9969 C   0  0  0  0  0  0  0  0  0  0  0  0
    8.0040  -17.6610  -16.9325 N   0  0  0  0  0  0  0  0  0  0  0  0
    7.3941  -16.5877  -18.1002 S   0  0  0  0  0  0  0  0  0  0  0  0
    8.2712  -15.4355  -18.2659 O   0  0  0  0  0  0  0  0  0  0  0  0
    6.8829  -17.3959  -19.1725 O   0  0  0  0  0  0  0  0  0  0  0  0
    4.8313  -14.4168  -15.7479 C   0  0  0  0  0  0  0  0  0  0  0  0
    3.6556  -16.4418  -16.5546 C   0  0  0  0  0  0  0  0  0  0  0  0
    3.7003  -15.2485  -15.7994 C   0  0  0  0  0  0  0  0  0  0  0  0
    6.0078  -14.8500  -16.4103 C   0  0  0  0  0  0  0  0  0  0  0  0
    4.8293  -16.8431  -17.2438 C   0  0  0  0  0  0  0  0  0  0  0  0
    5.9802  -16.0206  -17.1845 C   0  0  0  0  0  0  0  0  0  0  0  0
    2.1753  -13.5874  -15.2319 O   0  0  0  0  0  0  0  0  0  0  0  0
    1.7169  -15.6156  -14.3780 N   0  0  0  0  0  0  0  0  0  0  0  0
    2.4532  -14.7689  -15.0869 C   0  0  0  0  0  0  0  0  0  0  0  0
    0.9072  -15.2973  -13.9172 H   0  0  0  0  0  0  0  0  0  0  0  0
    1.9804  -16.5620  -14.3129 H   0  0  0  0  0  0  0  0  0  0  0  0
    7.7168  -17.3491  -15.5173 C   0  0  0  0  0  0  0  0  0  0  0  0
    8.9038  -17.2403  -14.6029 C   0  0  0  0  0  0  0  0  0  0  0  0
    9.5306  -15.9972  -14.3835 C   0  0  0  0  0  0  0  0  0  0  0  0
   10.6239  -16.0022  -13.5126 C   0  0  0  0  0  0  0  0  0  0  0  0
   11.1046  -17.1939  -12.9281 C   0  0  0  0  0  0  0  0  0  0  0  0
    9.3166  -18.4271  -13.9635 C   0  0  0  0  0  0  0  0  0  0  0  0
   10.4677  -18.4401  -13.1519 C   0  0  0  0  0  0  0  0  0  0  0  0
 11 13  2  0  0  0
 11 14  1  0  0  0
 39 41  2  0  0  0
 17 19  1  0  0  0
 33 36  2  0  0  0
 33 35  1  0  0  0
 18 19  2  0  0  0
 40 41  1  0  0  0
 12 15  2  0  0  0
 12 13  1  0  0  0
 13 19  1  0  0  0
 34 35  2  0  0  0
 34 37  1  0  0  0
 35 41  1  0  0  0
 22  7  1  0  0  0
 22 23  1  0  0  0
  8  7  1  0  0  0
  8  9  2  0  0  0
  8 16  1  0  0  0
  8 10  2  0  0  0
 30 32  2  0  0  0
 30 38  1  0  0  0
 30 29  1  0  0  0
 30 31  2  0  0  0
 23 25  1  0  0  0
 23 24  2  0  0  0
 24 26  1  0  0  0
 25 27  2  0  0  0
 14 16  2  0  0  0
 36 38  1  0  0  0
 15 16  1  0  0  0
 37 38  2  0  0  0
  1  2  1  0  0  0
  1  3  1  0  0  0
  2  5  1  0  0  0
  3  4  1  0  0  0
  3  7  1  0  0  0
  4 29  1  0  0  0
  4  5  1  0  0  0
 26 28  2  0  0  0
 27 28  1  0  0  0
 29 44  1  0  0  0
 44 45  1  0  0  0
 45 49  1  0  0  0
 45 46  2  0  0  0
 46 47  1  0  0  0
 47 48  2  0  0  0
 48 50  1  0  0  0
 49 50  2  0  0  0
 17 20  1  0  0  0
 17 21  1  0  0  0
 40 42  1  0  0  0
 40 43  1  0  0  0
  2  6  1  0  0  0
M  END
> <minimizedAffinity>
-9.65096

$$$$
2PWR_G4G_B_501


 50 54  0  0  0  0  0  0  0  0999 V2000
   10.6761  -20.0240  -19.5964 C   0  0  0  0  0  0  0  0  0  0  0  0
    9.4054  -20.6947  -19.1812 N   0  0  0  0  0  0  0  0  0  0  0  0
   11.3701  -19.5638  -18.3078 C   0  0  0  0  0  0  0  0  0  0  0  0
   10.2431  -19.5611  -17.1869 C   0  0  0  0  0  0  0  0  0  0  0  0
    9.0358  -20.3362  -17.8197 C   0  0  0  0  0  0  0  0  0  0  0  0
    9.5305  -21.7055  -19.2359 H   0  0  0  0  0  0  0  0  0  0  0  0
   12.3607  -20.5649  -17.8114 N   0  0  0  0  0  0  0  0  0  0  0  0
   13.8539  -19.9195  -17.3531 S   0  0  0  0  0  0  0  0  0  0  0  0
   14.6562  -19.8357  -18.5920 O   0  0  0  0  0  0  0  0  0  0  0  0
   13.4967  -18.6427  -16.6946 O   0  0  0  0  0  0  0  0  0  0  0  0
   14.6743  -22.1517  -14.0318 C   0  0  0  0  0  0  0  0  0  0  0  0
   16.5780  -22.3522  -15.6126 C   0  0  0  0  0  0  0  0  0  0  0  0
   15.9604  -22.6986  -14.3813 C   0  0  0  0  0  0  0  0  0  0  0  0
   13.9802  -21.3246  -14.9503 C   0  0  0  0  0  0  0  0  0  0  0  0
   15.8558  -21.5456  -16.5209 C   0  0  0  0  0  0  0  0  0  0  0  0
   14.5887  -20.9672  -16.1836 C   0  0  0  0  0  0  0  0  0  0  0  0
   15.9843  -24.6107  -12.8772 N   0  0  0  0  0  0  0  0  0  0  0  0
   17.8019  -23.3445  -13.0743 O   0  0  0  0  0  0  0  0  0  0  0  0
   16.6416  -23.5596  -13.4069 C   0  0  0  0  0  0  0  0  0  0  0  0
   16.4335  -25.1933  -12.2229 H   0  0  0  0  0  0  0  0  0  0  0  0
   15.0550  -24.7958  -13.1446 H   0  0  0  0  0  0  0  0  0  0  0  0
   12.2271  -22.0397  -17.5995 C   0  0  0  0  0  0  0  0  0  0  0  0
   12.9884  -22.8079  -18.6852 C   0  0  0  0  0  0  0  0  0  0  0  0
   13.7598  -23.9553  -18.2789 C   0  0  0  0  0  0  0  0  0  0  0  0
   12.9029  -22.4335  -20.0497 C   0  0  0  0  0  0  0  0  0  0  0  0
   14.4008  -24.6208  -19.3706 C   0  0  0  0  0  0  0  0  0  0  0  0
   13.6089  -23.0671  -21.1319 C   0  0  0  0  0  0  0  0  0  0  0  0
   14.4012  -24.2076  -20.7270 C   0  0  0  0  0  0  0  0  0  0  0  0
    9.7840  -18.1763  -16.9047 N   0  0  0  0  0  0  0  0  0  0  0  0
    9.5119  -17.8077  -15.2684 S   0  0  0  0  0  0  0  0  0  0  0  0
    9.0674  -18.9832  -14.5304 O   0  0  0  0  0  0  0  0  0  0  0  0
   10.5773  -16.9333  -14.8625 O   0  0  0  0  0  0  0  0  0  0  0  0
    7.0002  -14.6532  -16.0138 C   0  0  0  0  0  0  0  0  0  0  0  0
    5.6378  -16.6557  -15.4964 C   0  0  0  0  0  0  0  0  0  0  0  0
    5.7612  -15.2848  -15.8155 C   0  0  0  0  0  0  0  0  0  0  0  0
    8.1778  -15.4104  -15.7888 C   0  0  0  0  0  0  0  0  0  0  0  0
    6.8254  -17.4102  -15.3120 C   0  0  0  0  0  0  0  0  0  0  0  0
    8.0798  -16.7790  -15.4927 C   0  0  0  0  0  0  0  0  0  0  0  0
    4.1843  -14.3266  -17.2305 O   0  0  0  0  0  0  0  0  0  0  0  0
    3.8339  -13.9520  -15.0419 N   0  0  0  0  0  0  0  0  0  0  0  0
    4.5150  -14.4606  -16.0614 C   0  0  0  0  0  0  0  0  0  0  0  0
    3.0245  -13.4170  -15.2087 H   0  0  0  0  0  0  0  0  0  0  0  0
    4.1383  -14.1097  -14.1190 H   0  0  0  0  0  0  0  0  0  0  0  0
    9.4353  -17.1369  -17.8951 C   0  0  0  0  0  0  0  0  0  0  0  0
    8.3713  -17.4953  -18.8933 C   0  0  0  0  0  0  0  0  0  0  0  0
    7.0720  -17.8370  -18.4673 C   0  0  0  0  0  0  0  0  0  0  0  0
    6.1546  -18.1502  -19.4744 C   0  0  0  0  0  0  0  0  0  0  0  0
    6.5239  -18.1740  -20.8368 C   0  0  0  0  0  0  0  0  0  0  0  0
    8.7371  -17.4317  -20.2534 C   0  0  0  0  0  0  0  0  0  0  0  0
    7.8321  -17.8272  -21.2575 C   0  0  0  0  0  0  0  0  0  0  0  0
 11 13  2  0  0  0
 11 14  1  0  0  0
 39 41  2  0  0  0
 17 19  1  0  0  0
 33 36  2  0  0  0
 33 35  1  0  0  0
 18 19  2  0  0  0
 40 41  1  0  0  0
 12 15  2  0  0  0
 12 13  1  0  0  0
 13 19  1  0  0  0
 34 35  2  0  0  0
 34 37  1  0  0  0
 35 41  1  0  0  0
 22  7  1  0  0  0
 22 23  1  0  0  0
  8  7  1  0  0  0
  8  9  2  0  0  0
  8 16  1  0  0  0
  8 10  2  0  0  0
 30 32  2  0  0  0
 30 38  1  0  0  0
 30 29  1  0  0  0
 30 31  2  0  0  0
 23 25  1  0  0  0
 23 24  2  0  0  0
 24 26  1  0  0  0
 25 27  2  0  0  0
 14 16  2  0  0  0
 36 38  1  0  0  0
 15 16  1  0  0  0
 37 38  2  0  0  0
  1  2  1  0  0  0
  1  3  1  0  0  0
  2  5  1  0  0  0
  3  4  1  0  0  0
  3  7  1  0  0  0
  4 29  1  0  0  0
  4  5  1  0  0  0
 26 28  2  0  0  0
 27 28  1  0  0  0
 29 44  1  0  0  0
 44 45  1  0  0  0
 45 49  1  0  0  0
 45 46  2  0  0  0
 46 47  1  0  0  0
 47 48  2  0  0  0
 48 50  1  0  0  0
 49 50  2  0  0  0
 17 20  1  0  0  0
 17 21  1  0  0  0
 40 42  1  0  0  0
 40 43  1  0  0  0
  2  6  1  0  0  0
M  END
> <minimizedAffinity>
-9.47496

$$$$
2PWR_G4G_B_501


 50 54  0  0  0  0  0  0  0  0999 V2000
   10.0456  -19.2447  -15.0714 C   0  0  0  0  0  0  0  0  0  0  0  0
   10.6972  -18.1962  -14.2269 N   0  0  0  0  0  0  0  0  0  0  0  0
    9.8066  -18.6120  -16.4485 C   0  0  0  0  0  0  0  0  0  0  0  0
    9.8977  -17.0410  -16.2246 C   0  0  0  0  0  0  0  0  0  0  0  0
   10.5110  -16.8677  -14.7918 C   0  0  0  0  0  0  0  0  0  0  0  0
   11.6961  -18.3934  -14.1650 H   0  0  0  0  0  0  0  0  0  0  0  0
   10.9191  -18.8987  -17.4025 N   0  0  0  0  0  0  0  0  0  0  0  0
   10.4636  -19.7495  -18.7899 S   0  0  0  0  0  0  0  0  0  0  0  0
    9.0330  -20.0771  -18.6124 O   0  0  0  0  0  0  0  0  0  0  0  0
   10.8114  -18.8289  -19.8957 O   0  0  0  0  0  0  0  0  0  0  0  0
   12.1529  -23.4279  -18.2401 C   0  0  0  0  0  0  0  0  0  0  0  0
   13.3040  -22.3005  -20.1288 C   0  0  0  0  0  0  0  0  0  0  0  0
   13.1414  -23.4337  -19.2881 C   0  0  0  0  0  0  0  0  0  0  0  0
   11.2816  -22.3198  -18.0909 C   0  0  0  0  0  0  0  0  0  0  0  0
   12.4078  -21.2185  -19.9757 C   0  0  0  0  0  0  0  0  0  0  0  0
   11.4364  -21.1783  -18.9228 C   0  0  0  0  0  0  0  0  0  0  0  0
   13.8818  -25.6315  -18.5525 N   0  0  0  0  0  0  0  0  0  0  0  0
   14.8627  -24.6695  -20.3013 O   0  0  0  0  0  0  0  0  0  0  0  0
   14.0170  -24.6049  -19.4159 C   0  0  0  0  0  0  0  0  0  0  0  0
   14.4648  -26.4208  -18.6311 H   0  0  0  0  0  0  0  0  0  0  0  0
   13.1999  -25.5918  -17.8435 H   0  0  0  0  0  0  0  0  0  0  0  0
   12.3617  -18.5053  -17.3576 C   0  0  0  0  0  0  0  0  0  0  0  0
   13.2145  -19.6579  -16.8168 C   0  0  0  0  0  0  0  0  0  0  0  0
   14.4223  -19.9901  -17.5294 C   0  0  0  0  0  0  0  0  0  0  0  0
   12.8555  -20.3466  -15.6310 C   0  0  0  0  0  0  0  0  0  0  0  0
   15.1619  -21.0536  -16.9233 C   0  0  0  0  0  0  0  0  0  0  0  0
   13.5692  -21.4626  -15.0687 C   0  0  0  0  0  0  0  0  0  0  0  0
   14.7720  -21.8137  -15.7915 C   0  0  0  0  0  0  0  0  0  0  0  0
    8.5423  -16.4321  -16.2049 N   0  0  0  0  0  0  0  0  0  0  0  0
    7.6527  -16.6568  -14.7747 S   0  0  0  0  0  0  0  0  0  0  0  0
    6.9477  -17.9323  -14.7876 O   0  0  0  0  0  0  0  0  0  0  0  0
    8.4789  -16.1820  -13.6993 O   0  0  0  0  0  0  0  0  0  0  0  0
    5.6604  -13.0826  -15.0406 C   0  0  0  0  0  0  0  0  0  0  0  0
    4.1751  -14.8891  -15.8557 C   0  0  0  0  0  0  0  0  0  0  0  0
    4.4304  -13.5340  -15.5474 C   0  0  0  0  0  0  0  0  0  0  0  0
    6.6523  -14.0500  -14.7389 C   0  0  0  0  0  0  0  0  0  0  0  0
    5.1917  -15.8412  -15.5841 C   0  0  0  0  0  0  0  0  0  0  0  0
    6.4292  -15.3989  -15.0572 C   0  0  0  0  0  0  0  0  0  0  0  0
    2.2287  -12.7881  -15.6022 O   0  0  0  0  0  0  0  0  0  0  0  0
    3.7403  -11.3128  -16.3714 N   0  0  0  0  0  0  0  0  0  0  0  0
    3.3840  -12.4865  -15.8643 C   0  0  0  0  0  0  0  0  0  0  0  0
    3.0549  -10.6361  -16.5752 H   0  0  0  0  0  0  0  0  0  0  0  0
    4.6900  -11.1190  -16.5438 H   0  0  0  0  0  0  0  0  0  0  0  0
    7.8545  -15.7592  -17.3260 C   0  0  0  0  0  0  0  0  0  0  0  0
    7.4226  -16.6354  -18.4674 C   0  0  0  0  0  0  0  0  0  0  0  0
    6.2566  -17.4209  -18.3692 C   0  0  0  0  0  0  0  0  0  0  0  0
    5.9397  -18.1978  -19.4872 C   0  0  0  0  0  0  0  0  0  0  0  0
    6.7696  -18.2331  -20.6287 C   0  0  0  0  0  0  0  0  0  0  0  0
    8.2191  -16.5927  -19.6299 C   0  0  0  0  0  0  0  0  0  0  0  0
    7.9396  -17.4388  -20.7207 C   0  0  0  0  0  0  0  0  0  0  0  0
 11 13  2  0  0  0
 11 14  1  0  0  0
 39 41  2  0  0  0
 17 19  1  0  0  0
 33 36  2  0  0  0
 33 35  1  0  0  0
 18 19  2  0  0  0
 40 41  1  0  0  0
 12 15  2  0  0  0
 12 13  1  0  0  0
 13 19  1  0  0  0
 34 35  2  0  0  0
 34 37  1  0  0  0
 35 41  1  0  0  0
 22  7  1  0  0  0
 22 23  1  0  0  0
  8  7  1  0  0  0
  8  9  2  0  0  0
  8 16  1  0  0  0
  8 10  2  0  0  0
 30 32  2  0  0  0
 30 38  1  0  0  0
 30 29  1  0  0  0
 30 31  2  0  0  0
 23 25  1  0  0  0
 23 24  2  0  0  0
 24 26  1  0  0  0
 25 27  2  0  0  0
 14 16  2  0  0  0
 36 38  1  0  0  0
 15 16  1  0  0  0
 37 38  2  0  0  0
  1  2  1  0  0  0
  1  3  1  0  0  0
  2  5  1  0  0  0
  3  4  1  0  0  0
  3  7  1  0  0  0
  4 29  1  0  0  0
  4  5  1  0  0  0
 26 28  2  0  0  0
 27 28  1  0  0  0
 29 44  1  0  0  0
 44 45  1  0  0  0
 45 49  1  0  0  0
 45 46  2  0  0  0
 46 47  1  0  0  0
 47 48  2  0  0  0
 48 50  1  0  0  0
 49 50  2  0  0  0
 17 20  1  0  0  0
 17 21  1  0  0  0
 40 42  1  0  0  0
 40 43  1  0  0  0
  2  6  1  0  0  0
M  END
> <minimizedAffinity>
-9.30508

$$$$
2PWR_G4G_B_501


 50 54  0  0  0  0  0  0  0  0999 V2000
    9.5810  -19.3132  -15.2141 C   0  0  0  0  0  0  0  0  0  0  0  0
    9.9582  -18.1230  -14.3906 N   0  0  0  0  0  0  0  0  0  0  0  0
    9.4233  -18.8156  -16.6568 C   0  0  0  0  0  0  0  0  0  0  0  0
    9.2497  -17.2389  -16.5541 C   0  0  0  0  0  0  0  0  0  0  0  0
    9.6470  -16.8795  -15.0804 C   0  0  0  0  0  0  0  0  0  0  0  0
   10.9597  -18.1551  -14.2001 H   0  0  0  0  0  0  0  0  0  0  0  0
   10.6761  -18.9828  -17.4520 N   0  0  0  0  0  0  0  0  0  0  0  0
   10.4814  -19.7928  -18.9224 S   0  0  0  0  0  0  0  0  0  0  0  0
    9.0413  -20.1125  -19.0209 O   0  0  0  0  0  0  0  0  0  0  0  0
   11.0307  -18.8465  -19.9195 O   0  0  0  0  0  0  0  0  0  0  0  0
   12.0562  -23.4785  -18.1338 C   0  0  0  0  0  0  0  0  0  0  0  0
   13.4746  -22.3571  -19.8349 C   0  0  0  0  0  0  0  0  0  0  0  0
   13.1866  -23.4892  -19.0270 C   0  0  0  0  0  0  0  0  0  0  0  0
   11.1775  -22.3664  -18.1126 C   0  0  0  0  0  0  0  0  0  0  0  0
   12.5706  -21.2710  -19.8134 C   0  0  0  0  0  0  0  0  0  0  0  0
   11.4567  -21.2260  -18.9129 C   0  0  0  0  0  0  0  0  0  0  0  0
   15.3292  -24.5475  -19.4831 N   0  0  0  0  0  0  0  0  0  0  0  0
   13.6744  -25.7482  -18.6082 O   0  0  0  0  0  0  0  0  0  0  0  0
   14.0661  -24.6643  -19.0265 C   0  0  0  0  0  0  0  0  0  0  0  0
   15.9259  -25.3306  -19.4864 H   0  0  0  0  0  0  0  0  0  0  0  0
   15.6549  -23.6791  -19.8134 H   0  0  0  0  0  0  0  0  0  0  0  0
   12.0665  -18.4993  -17.1856 C   0  0  0  0  0  0  0  0  0  0  0  0
   12.9237  -19.6282  -16.6034 C   0  0  0  0  0  0  0  0  0  0  0  0
   14.2098  -19.8726  -17.2058 C   0  0  0  0  0  0  0  0  0  0  0  0
   12.4901  -20.3789  -15.4818 C   0  0  0  0  0  0  0  0  0  0  0  0
   14.9435  -20.9207  -16.5665 C   0  0  0  0  0  0  0  0  0  0  0  0
   13.2050  -21.4790  -14.8905 C   0  0  0  0  0  0  0  0  0  0  0  0
   14.4882  -21.7421  -15.5042 C   0  0  0  0  0  0  0  0  0  0  0  0
    7.8267  -16.8524  -16.7381 N   0  0  0  0  0  0  0  0  0  0  0  0
    7.4209  -16.2367  -18.2690 S   0  0  0  0  0  0  0  0  0  0  0  0
    7.0686  -14.8245  -18.1924 O   0  0  0  0  0  0  0  0  0  0  0  0
    8.3568  -16.8038  -19.2001 O   0  0  0  0  0  0  0  0  0  0  0  0
    3.4797  -17.3685  -18.2666 C   0  0  0  0  0  0  0  0  0  0  0  0
    4.8210  -19.1429  -19.3557 C   0  0  0  0  0  0  0  0  0  0  0  0
    3.5928  -18.6224  -18.8897 C   0  0  0  0  0  0  0  0  0  0  0  0
    4.6698  -16.6406  -18.0129 C   0  0  0  0  0  0  0  0  0  0  0  0
    5.9991  -18.3852  -19.1288 C   0  0  0  0  0  0  0  0  0  0  0  0
    5.8983  -17.1276  -18.4862 C   0  0  0  0  0  0  0  0  0  0  0  0
    2.3825  -20.2811  -19.9811 O   0  0  0  0  0  0  0  0  0  0  0  0
    1.2028  -19.0858  -18.4869 N   0  0  0  0  0  0  0  0  0  0  0  0
    2.3112  -19.3846  -19.1532 C   0  0  0  0  0  0  0  0  0  0  0  0
    0.3728  -19.5852  -18.6629 H   0  0  0  0  0  0  0  0  0  0  0  0
    1.2106  -18.3648  -17.8166 H   0  0  0  0  0  0  0  0  0  0  0  0
    6.7687  -16.8417  -15.7070 C   0  0  0  0  0  0  0  0  0  0  0  0
    6.4435  -15.5077  -15.0973 C   0  0  0  0  0  0  0  0  0  0  0  0
    7.3660  -14.8600  -14.2511 C   0  0  0  0  0  0  0  0  0  0  0  0
    6.9694  -13.6216  -13.7385 C   0  0  0  0  0  0  0  0  0  0  0  0
    5.6961  -13.0763  -14.0109 C   0  0  0  0  0  0  0  0  0  0  0  0
    5.2012  -14.9412  -15.4486 C   0  0  0  0  0  0  0  0  0  0  0  0
    4.7745  -13.7327  -14.8643 C   0  0  0  0  0  0  0  0  0  0  0  0
 11 13  2  0  0  0
 11 14  1  0  0  0
 39 41  2  0  0  0
 17 19  1  0  0  0
 33 36  2  0  0  0
 33 35  1  0  0  0
 18 19  2  0  0  0
 40 41  1  0  0  0
 12 15  2  0  0  0
 12 13  1  0  0  0
 13 19  1  0  0  0
 34 35  2  0  0  0
 34 37  1  0  0  0
 35 41  1  0  0  0
 22  7  1  0  0  0
 22 23  1  0  0  0
  8  7  1  0  0  0
  8  9  2  0  0  0
  8 16  1  0  0  0
  8 10  2  0  0  0
 30 32  2  0  0  0
 30 38  1  0  0  0
 30 29  1  0  0  0
 30 31  2  0  0  0
 23 25  1  0  0  0
 23 24  2  0  0  0
 24 26  1  0  0  0
 25 27  2  0  0  0
 14 16  2  0  0  0
 36 38  1  0  0  0
 15 16  1  0  0  0
 37 38  2  0  0  0
  1  2  1  0  0  0
  1  3  1  0  0  0
  2  5  1  0  0  0
  3  4  1  0  0  0
  3  7  1  0  0  0
  4 29  1  0  0  0
  4  5  1  0  0  0
 26 28  2  0  0  0
 27 28  1  0  0  0
 29 44  1  0  0  0
 44 45  1  0  0  0
 45 49  1  0  0  0
 45 46  2  0  0  0
 46 47  1  0  0  0
 47 48  2  0  0  0
 48 50  1  0  0  0
 49 50  2  0  0  0
 17 20  1  0  0  0
 17 21  1  0  0  0
 40 42  1  0  0  0
 40 43  1  0  0  0
  2  6  1  0  0  0
M  END
> <minimizedAffinity>
-9.22606

$$$$
