1KAV_FEP_A_301


 34 35  0  0  0  0  0  0  0  0999 V2000
   34.1673    9.2787   90.1564 C   0  0  0  0  0  0  0  0  0  0  0  0
   33.5413   10.2972   89.4537 C   0  0  0  0  0  0  0  0  0  0  0  0
   32.2173   10.2124   89.0809 C   0  0  0  0  0  0  0  0  0  0  0  0
   31.4458   11.3751   89.1299 C   0  0  0  0  0  0  0  0  0  0  0  0
   30.3276   11.5277   88.3168 C   0  0  0  0  0  0  0  0  0  0  0  0
   29.9560   10.5195   87.4327 C   0  0  0  0  0  0  0  0  0  0  0  0
   30.7287    9.3499   87.3908 C   0  0  0  0  0  0  0  0  0  0  0  0
   31.8546    9.1872   88.2062 C   0  0  0  0  0  0  0  0  0  0  0  0
   28.8705   10.6109   86.7511 C   0  0  0  0  0  0  0  0  0  0  0  0
   28.5260    9.1476   86.3793 F   0  0  0  0  0  0  0  0  0  0  0  0
   28.0706   10.9766   87.4815 F   0  0  0  0  0  0  0  0  0  0  0  0
   28.5782   11.3668   85.0384 P   0  0  0  0  0  0  0  0  0  0  0  0
   28.7888   12.9306   85.1659 O   0  0  0  0  0  0  0  0  0  0  0  0
   27.1080   11.0167   84.5000 O   0  0  0  0  0  0  0  0  0  0  0  0
   29.6631   10.7401   84.0429 O   0  0  0  0  0  0  0  0  0  0  0  0
   26.4457   11.3943   85.0998 H   0  0  0  0  0  0  0  0  0  0  0  0
   30.5546   10.9486   84.3633 H   0  0  0  0  0  0  0  0  0  0  0  0
   33.8890    9.1602   91.5153 C   0  0  0  0  0  0  0  0  0  0  0  0
   34.2936   10.1360   92.4207 C   0  0  0  0  0  0  0  0  0  0  0  0
   33.3777   11.0471   92.9504 C   0  0  0  0  0  0  0  0  0  0  0  0
   32.0129   10.8205   92.7590 C   0  0  0  0  0  0  0  0  0  0  0  0
   31.0839   11.8301   93.0055 C   0  0  0  0  0  0  0  0  0  0  0  0
   31.5096   13.0856   93.4496 C   0  0  0  0  0  0  0  0  0  0  0  0
   32.8967   13.3192   93.6456 C   0  0  0  0  0  0  0  0  0  0  0  0
   33.8182   12.3029   93.3947 C   0  0  0  0  0  0  0  0  0  0  0  0
   30.6454   13.9672   93.7631 C   0  0  0  0  0  0  0  0  0  0  0  0
   29.4415   13.6275   92.8513 F   0  0  0  0  0  0  0  0  0  0  0  0
   30.3541   13.7443   94.8319 F   0  0  0  0  0  0  0  0  0  0  0  0
   30.6401   15.8628   93.4806 P   0  0  0  0  0  0  0  0  0  0  0  0
   29.1103   16.4060   93.5774 O   0  0  0  0  0  0  0  0  0  0  0  0
   31.2290   16.1969   92.0023 O   0  0  0  0  0  0  0  0  0  0  0  0
   31.5455   16.5872   94.6148 O   0  0  0  0  0  0  0  0  0  0  0  0
   30.6825   15.7604   91.3302 H   0  0  0  0  0  0  0  0  0  0  0  0
   31.1879   16.3832   95.4931 H   0  0  0  0  0  0  0  0  0  0  0  0
  2  1  1  0  0  0
  2  3  1  0  0  0
  1 18  1  0  0  0
 18 19  1  0  0  0
 19 20  1  0  0  0
  9  6  1  0  0  0
  9 10  1  0  0  0
  9 11  1  0  0  0
  9 12  1  0  0  0
  3  4  2  0  0  0
  3  8  1  0  0  0
  4  5  1  0  0  0
  5  6  2  0  0  0
  6  7  1  0  0  0
  7  8  2  0  0  0
 26 23  1  0  0  0
 26 27  1  0  0  0
 26 28  1  0  0  0
 26 29  1  0  0  0
 20 21  2  0  0  0
 20 25  1  0  0  0
 21 22  1  0  0  0
 22 23  2  0  0  0
 23 24  1  0  0  0
 24 25  2  0  0  0
 12 13  2  0  0  0
 12 14  1  0  0  0
 12 15  1  0  0  0
 29 30  2  0  0  0
 29 31  1  0  0  0
 29 32  1  0  0  0
 14 16  1  0  0  0
 15 17  1  0  0  0
 31 33  1  0  0  0
 32 34  1  0  0  0
M  END
> <minimizedAffinity>
-9.05642

$$$$
1KAV_FEP_A_301


 34 35  0  0  0  0  0  0  0  0999 V2000
   32.6256    9.5652   91.1409 C   0  0  0  0  0  0  0  0  0  0  0  0
   33.0024   10.3933   90.0944 C   0  0  0  0  0  0  0  0  0  0  0  0
   32.1731   10.6231   89.0180 C   0  0  0  0  0  0  0  0  0  0  0  0
   31.8603    9.5446   88.1883 C   0  0  0  0  0  0  0  0  0  0  0  0
   30.6838    9.5291   87.4464 C   0  0  0  0  0  0  0  0  0  0  0  0
   29.7903   10.5934   87.5193 C   0  0  0  0  0  0  0  0  0  0  0  0
   30.1106   11.6785   88.3480 C   0  0  0  0  0  0  0  0  0  0  0  0
   31.2927   11.7032   89.0970 C   0  0  0  0  0  0  0  0  0  0  0  0
   28.7517   10.6318   86.7636 C   0  0  0  0  0  0  0  0  0  0  0  0
   28.5005    9.1526   86.3804 F   0  0  0  0  0  0  0  0  0  0  0  0
   27.8872   10.9639   87.4341 F   0  0  0  0  0  0  0  0  0  0  0  0
   28.5451   11.3655   85.0289 P   0  0  0  0  0  0  0  0  0  0  0  0
   28.7798   12.9270   85.1414 O   0  0  0  0  0  0  0  0  0  0  0  0
   27.0921   11.0338   84.4350 O   0  0  0  0  0  0  0  0  0  0  0  0
   29.6582   10.7031   84.0892 O   0  0  0  0  0  0  0  0  0  0  0  0
   26.4128   11.4330   85.0008 H   0  0  0  0  0  0  0  0  0  0  0  0
   30.5395   10.9004   84.4434 H   0  0  0  0  0  0  0  0  0  0  0  0
   31.8854   10.1250   92.1786 C   0  0  0  0  0  0  0  0  0  0  0  0
   32.2637   11.3285   92.7651 C   0  0  0  0  0  0  0  0  0  0  0  0
   31.3633   12.3907   92.8679 C   0  0  0  0  0  0  0  0  0  0  0  0
   31.8567   13.6706   93.1311 C   0  0  0  0  0  0  0  0  0  0  0  0
   30.9987   14.6947   93.5284 C   0  0  0  0  0  0  0  0  0  0  0  0
   29.6290   14.4514   93.6678 C   0  0  0  0  0  0  0  0  0  0  0  0
   29.1239   13.1512   93.4006 C   0  0  0  0  0  0  0  0  0  0  0  0
   29.9910   12.1330   93.0051 C   0  0  0  0  0  0  0  0  0  0  0  0
   28.8437   15.4174   93.9372 C   0  0  0  0  0  0  0  0  0  0  0  0
   28.9330   15.5315   95.4784 F   0  0  0  0  0  0  0  0  0  0  0  0
   29.3220   16.3362   93.4858 F   0  0  0  0  0  0  0  0  0  0  0  0
   26.9374   15.5515   93.7913 P   0  0  0  0  0  0  0  0  0  0  0  0
   26.2555   14.7227   95.0131 O   0  0  0  0  0  0  0  0  0  0  0  0
   26.4507   14.9100   92.3786 O   0  0  0  0  0  0  0  0  0  0  0  0
   26.4906   17.1085   93.8763 O   0  0  0  0  0  0  0  0  0  0  0  0
   26.7215   13.9796   92.3356 H   0  0  0  0  0  0  0  0  0  0  0  0
   26.7844   17.4835   94.7212 H   0  0  0  0  0  0  0  0  0  0  0  0
  2  1  1  0  0  0
  2  3  1  0  0  0
  1 18  1  0  0  0
 18 19  1  0  0  0
 19 20  1  0  0  0
  9  6  1  0  0  0
  9 10  1  0  0  0
  9 11  1  0  0  0
  9 12  1  0  0  0
  3  4  2  0  0  0
  3  8  1  0  0  0
  4  5  1  0  0  0
  5  6  2  0  0  0
  6  7  1  0  0  0
  7  8  2  0  0  0
 26 23  1  0  0  0
 26 27  1  0  0  0
 26 28  1  0  0  0
 26 29  1  0  0  0
 20 21  2  0  0  0
 20 25  1  0  0  0
 21 22  1  0  0  0
 22 23  2  0  0  0
 23 24  1  0  0  0
 24 25  2  0  0  0
 12 13  2  0  0  0
 12 14  1  0  0  0
 12 15  1  0  0  0
 29 30  2  0  0  0
 29 31  1  0  0  0
 29 32  1  0  0  0
 14 16  1  0  0  0
 15 17  1  0  0  0
 31 33  1  0  0  0
 32 34  1  0  0  0
M  END
> <minimizedAffinity>
-9.04156

$$$$
1KAV_FEP_A_301


 34 35  0  0  0  0  0  0  0  0999 V2000
   34.1444    9.1401   90.2133 C   0  0  0  0  0  0  0  0  0  0  0  0
   33.6171    9.9980   89.2598 C   0  0  0  0  0  0  0  0  0  0  0  0
   32.2790    9.9807   88.9308 C   0  0  0  0  0  0  0  0  0  0  0  0
   31.5530   11.1650   89.0715 C   0  0  0  0  0  0  0  0  0  0  0  0
   30.4142   11.4022   88.3089 C   0  0  0  0  0  0  0  0  0  0  0  0
   29.9759   10.4590   87.3845 C   0  0  0  0  0  0  0  0  0  0  0  0
   30.7029    9.2673   87.2505 C   0  0  0  0  0  0  0  0  0  0  0  0
   31.8491    9.0197   88.0146 C   0  0  0  0  0  0  0  0  0  0  0  0
   28.8719   10.6266   86.7485 C   0  0  0  0  0  0  0  0  0  0  0  0
   28.4028    9.1905   86.4082 F   0  0  0  0  0  0  0  0  0  0  0  0
   28.1339   11.0574   87.5079 F   0  0  0  0  0  0  0  0  0  0  0  0
   28.5637   11.3885   85.0412 P   0  0  0  0  0  0  0  0  0  0  0  0
   28.7935   12.9496   85.1680 O   0  0  0  0  0  0  0  0  0  0  0  0
   27.0821   11.0557   84.5235 O   0  0  0  0  0  0  0  0  0  0  0  0
   29.6271   10.7512   84.0294 O   0  0  0  0  0  0  0  0  0  0  0  0
   26.4327   11.4397   85.1332 H   0  0  0  0  0  0  0  0  0  0  0  0
   30.5254   10.9492   84.3373 H   0  0  0  0  0  0  0  0  0  0  0  0
   34.3274    9.6341   91.5019 C   0  0  0  0  0  0  0  0  0  0  0  0
   33.4009    9.3805   92.5084 C   0  0  0  0  0  0  0  0  0  0  0  0
   32.2359   10.1421   92.6194 C   0  0  0  0  0  0  0  0  0  0  0  0
   32.3128   11.5241   92.4326 C   0  0  0  0  0  0  0  0  0  0  0  0
   31.2584   12.3521   92.8145 C   0  0  0  0  0  0  0  0  0  0  0  0
   30.1073   11.8061   93.3904 C   0  0  0  0  0  0  0  0  0  0  0  0
   30.0258   10.4012   93.5814 C   0  0  0  0  0  0  0  0  0  0  0  0
   31.0868    9.5816   93.1973 C   0  0  0  0  0  0  0  0  0  0  0  0
   29.1139   12.5614   93.6455 C   0  0  0  0  0  0  0  0  0  0  0  0
   28.5094   12.8410   92.2482 F   0  0  0  0  0  0  0  0  0  0  0  0
   28.3844   11.9227   94.2256 F   0  0  0  0  0  0  0  0  0  0  0  0
   29.0530   14.3604   94.3037 P   0  0  0  0  0  0  0  0  0  0  0  0
   29.7588   15.3435   93.2173 O   0  0  0  0  0  0  0  0  0  0  0  0
   29.8633   14.4558   95.7102 O   0  0  0  0  0  0  0  0  0  0  0  0
   27.5101   14.8112   94.5211 O   0  0  0  0  0  0  0  0  0  0  0  0
   30.7843   14.1848   95.5718 H   0  0  0  0  0  0  0  0  0  0  0  0
   27.0340   14.7516   93.6781 H   0  0  0  0  0  0  0  0  0  0  0  0
  2  1  1  0  0  0
  2  3  1  0  0  0
  1 18  1  0  0  0
 18 19  1  0  0  0
 19 20  1  0  0  0
  9  6  1  0  0  0
  9 10  1  0  0  0
  9 11  1  0  0  0
  9 12  1  0  0  0
  3  4  2  0  0  0
  3  8  1  0  0  0
  4  5  1  0  0  0
  5  6  2  0  0  0
  6  7  1  0  0  0
  7  8  2  0  0  0
 26 23  1  0  0  0
 26 27  1  0  0  0
 26 28  1  0  0  0
 26 29  1  0  0  0
 20 21  2  0  0  0
 20 25  1  0  0  0
 21 22  1  0  0  0
 22 23  2  0  0  0
 23 24  1  0  0  0
 24 25  2  0  0  0
 12 13  2  0  0  0
 12 14  1  0  0  0
 12 15  1  0  0  0
 29 30  2  0  0  0
 29 31  1  0  0  0
 29 32  1  0  0  0
 14 16  1  0  0  0
 15 17  1  0  0  0
 31 33  1  0  0  0
 32 34  1  0  0  0
M  END
> <minimizedAffinity>
-8.73993

$$$$
1KAV_FEP_A_301


 34 35  0  0  0  0  0  0  0  0999 V2000
   34.4774    9.0202   91.7062 C   0  0  0  0  0  0  0  0  0  0  0  0
   33.7141    8.9281   92.8603 C   0  0  0  0  0  0  0  0  0  0  0  0
   32.8203    9.9140   93.2181 C   0  0  0  0  0  0  0  0  0  0  0  0
   33.2222   11.2445   93.0843 C   0  0  0  0  0  0  0  0  0  0  0  0
   32.2891   12.2601   92.9035 C   0  0  0  0  0  0  0  0  0  0  0  0
   30.9298   11.9671   92.8500 C   0  0  0  0  0  0  0  0  0  0  0  0
   30.5286   10.6309   92.9919 C   0  0  0  0  0  0  0  0  0  0  0  0
   31.4604    9.6028   93.1755 C   0  0  0  0  0  0  0  0  0  0  0  0
   30.0574   12.9083   92.7826 C   0  0  0  0  0  0  0  0  0  0  0  0
   30.8972   14.2003   92.6294 F   0  0  0  0  0  0  0  0  0  0  0  0
   29.4953   12.7461   91.8003 F   0  0  0  0  0  0  0  0  0  0  0  0
   28.8691   13.5527   94.1104 P   0  0  0  0  0  0  0  0  0  0  0  0
   27.9331   12.3492   94.5362 O   0  0  0  0  0  0  0  0  0  0  0  0
   28.0131   14.7932   93.5608 O   0  0  0  0  0  0  0  0  0  0  0  0
   29.7521   14.0363   95.3544 O   0  0  0  0  0  0  0  0  0  0  0  0
   27.4755   14.5061   92.8062 H   0  0  0  0  0  0  0  0  0  0  0  0
   30.2723   13.2900   95.6912 H   0  0  0  0  0  0  0  0  0  0  0  0
   33.8513    8.7595   90.4903 C   0  0  0  0  0  0  0  0  0  0  0  0
   33.5787    9.7820   89.5871 C   0  0  0  0  0  0  0  0  0  0  0  0
   32.2990    9.9451   89.0531 C   0  0  0  0  0  0  0  0  0  0  0  0
   31.8440    9.0313   88.0998 C   0  0  0  0  0  0  0  0  0  0  0  0
   30.7139    9.3089   87.3324 C   0  0  0  0  0  0  0  0  0  0  0  0
   30.0201   10.5098   87.5095 C   0  0  0  0  0  0  0  0  0  0  0  0
   30.4799   11.4410   88.4783 C   0  0  0  0  0  0  0  0  0  0  0  0
   31.6124   11.1543   89.2399 C   0  0  0  0  0  0  0  0  0  0  0  0
   28.9358   10.7086   86.8716 C   0  0  0  0  0  0  0  0  0  0  0  0
   28.3841    9.2793   86.6504 F   0  0  0  0  0  0  0  0  0  0  0  0
   28.2503   11.2452   87.5920 F   0  0  0  0  0  0  0  0  0  0  0  0
   28.6372   11.3645   85.0956 P   0  0  0  0  0  0  0  0  0  0  0  0
   28.7896   12.9836   85.0989 O   0  0  0  0  0  0  0  0  0  0  0  0
   27.1339   10.9742   84.6142 O   0  0  0  0  0  0  0  0  0  0  0  0
   29.7284   10.7191   84.0837 O   0  0  0  0  0  0  0  0  0  0  0  0
   26.4878   11.3636   85.2240 H   0  0  0  0  0  0  0  0  0  0  0  0
   30.6219   10.9563   84.3776 H   0  0  0  0  0  0  0  0  0  0  0  0
  2  1  1  0  0  0
  2  3  1  0  0  0
  1 18  1  0  0  0
 18 19  1  0  0  0
 19 20  1  0  0  0
  9  6  1  0  0  0
  9 10  1  0  0  0
  9 11  1  0  0  0
  9 12  1  0  0  0
  3  4  2  0  0  0
  3  8  1  0  0  0
  4  5  1  0  0  0
  5  6  2  0  0  0
  6  7  1  0  0  0
  7  8  2  0  0  0
 26 23  1  0  0  0
 26 27  1  0  0  0
 26 28  1  0  0  0
 26 29  1  0  0  0
 20 21  2  0  0  0
 20 25  1  0  0  0
 21 22  1  0  0  0
 22 23  2  0  0  0
 23 24  1  0  0  0
 24 25  2  0  0  0
 12 13  2  0  0  0
 12 14  1  0  0  0
 12 15  1  0  0  0
 29 30  2  0  0  0
 29 31  1  0  0  0
 29 32  1  0  0  0
 14 16  1  0  0  0
 15 17  1  0  0  0
 31 33  1  0  0  0
 32 34  1  0  0  0
M  END
> <minimizedAffinity>
-8.72714

$$$$
1KAV_FEP_A_301


 34 35  0  0  0  0  0  0  0  0999 V2000
   32.2936    9.5034   91.0809 C   0  0  0  0  0  0  0  0  0  0  0  0
   32.3635   10.6246   90.2678 C   0  0  0  0  0  0  0  0  0  0  0  0
   31.8097   10.6398   89.0059 C   0  0  0  0  0  0  0  0  0  0  0  0
   31.7498    9.4362   88.3008 C   0  0  0  0  0  0  0  0  0  0  0  0
   30.7885    9.2294   87.3169 C   0  0  0  0  0  0  0  0  0  0  0  0
   29.8619   10.2232   87.0167 C   0  0  0  0  0  0  0  0  0  0  0  0
   29.9292   11.4337   87.7215 C   0  0  0  0  0  0  0  0  0  0  0  0
   30.8938   11.6510   88.7121 C   0  0  0  0  0  0  0  0  0  0  0  0
   29.0356   10.0781   86.0434 C   0  0  0  0  0  0  0  0  0  0  0  0
   29.5475   11.0548   84.9561 F   0  0  0  0  0  0  0  0  0  0  0  0
   29.1941    9.0157   85.6521 F   0  0  0  0  0  0  0  0  0  0  0  0
   27.2015   10.5416   85.9352 P   0  0  0  0  0  0  0  0  0  0  0  0
   26.9613   11.2071   84.5191 O   0  0  0  0  0  0  0  0  0  0  0  0
   26.7897   11.5350   87.1257 O   0  0  0  0  0  0  0  0  0  0  0  0
   26.3540    9.1903   86.0645 O   0  0  0  0  0  0  0  0  0  0  0  0
   27.3004   12.3564   87.0527 H   0  0  0  0  0  0  0  0  0  0  0  0
   26.5988    8.5852   85.3469 H   0  0  0  0  0  0  0  0  0  0  0  0
   33.4057    9.1946   91.8593 C   0  0  0  0  0  0  0  0  0  0  0  0
   34.6932    9.4965   91.4271 C   0  0  0  0  0  0  0  0  0  0  0  0
   35.5435   10.2869   92.2029 C   0  0  0  0  0  0  0  0  0  0  0  0
   34.9950   11.3202   92.9659 C   0  0  0  0  0  0  0  0  0  0  0  0
   35.8112   12.3065   93.5171 C   0  0  0  0  0  0  0  0  0  0  0  0
   37.1938   12.2719   93.3120 C   0  0  0  0  0  0  0  0  0  0  0  0
   37.7549   11.2224   92.5370 C   0  0  0  0  0  0  0  0  0  0  0  0
   36.9293   10.2412   91.9886 C   0  0  0  0  0  0  0  0  0  0  0  0
   37.9374   13.1226   93.9001 C   0  0  0  0  0  0  0  0  0  0  0  0
   36.9250   14.0369   94.6317 F   0  0  0  0  0  0  0  0  0  0  0  0
   38.5142   12.5398   94.6775 F   0  0  0  0  0  0  0  0  0  0  0  0
   39.0495   14.5103   93.1855 P   0  0  0  0  0  0  0  0  0  0  0  0
   39.9149   15.1679   94.3952 O   0  0  0  0  0  0  0  0  0  0  0  0
   38.1209   15.6621   92.5107 O   0  0  0  0  0  0  0  0  0  0  0  0
   40.0551   13.8880   92.0753 O   0  0  0  0  0  0  0  0  0  0  0  0
   37.5229   16.0289   93.1806 H   0  0  0  0  0  0  0  0  0  0  0  0
   40.6051   13.2023   92.4854 H   0  0  0  0  0  0  0  0  0  0  0  0
  2  1  1  0  0  0
  2  3  1  0  0  0
  1 18  1  0  0  0
 18 19  1  0  0  0
 19 20  1  0  0  0
  9  6  1  0  0  0
  9 10  1  0  0  0
  9 11  1  0  0  0
  9 12  1  0  0  0
  3  4  2  0  0  0
  3  8  1  0  0  0
  4  5  1  0  0  0
  5  6  2  0  0  0
  6  7  1  0  0  0
  7  8  2  0  0  0
 26 23  1  0  0  0
 26 27  1  0  0  0
 26 28  1  0  0  0
 26 29  1  0  0  0
 20 21  2  0  0  0
 20 25  1  0  0  0
 21 22  1  0  0  0
 22 23  2  0  0  0
 23 24  1  0  0  0
 24 25  2  0  0  0
 12 13  2  0  0  0
 12 14  1  0  0  0
 12 15  1  0  0  0
 29 30  2  0  0  0
 29 31  1  0  0  0
 29 32  1  0  0  0
 14 16  1  0  0  0
 15 17  1  0  0  0
 31 33  1  0  0  0
 32 34  1  0  0  0
M  END
> <minimizedAffinity>
-8.70521

$$$$
1KAV_FEP_A_301


 34 35  0  0  0  0  0  0  0  0999 V2000
   31.1245   10.2737   92.0779 C   0  0  0  0  0  0  0  0  0  0  0  0
   31.1538   11.0828   93.2038 C   0  0  0  0  0  0  0  0  0  0  0  0
   30.0451   11.7892   93.6171 C   0  0  0  0  0  0  0  0  0  0  0  0
   29.5593   12.7965   92.7811 C   0  0  0  0  0  0  0  0  0  0  0  0
   28.2232   13.1809   92.8241 C   0  0  0  0  0  0  0  0  0  0  0  0
   27.3401   12.5635   93.7045 C   0  0  0  0  0  0  0  0  0  0  0  0
   27.8324   11.5571   94.5480 C   0  0  0  0  0  0  0  0  0  0  0  0
   29.1755   11.1649   94.5126 C   0  0  0  0  0  0  0  0  0  0  0  0
   26.1297   12.9796   93.8201 C   0  0  0  0  0  0  0  0  0  0  0  0
   25.3492   12.1968   92.7356 F   0  0  0  0  0  0  0  0  0  0  0  0
   25.7660   12.6094   94.8388 F   0  0  0  0  0  0  0  0  0  0  0  0
   25.3985   14.6886   93.4527 P   0  0  0  0  0  0  0  0  0  0  0  0
   26.4379   15.4665   92.5470 O   0  0  0  0  0  0  0  0  0  0  0  0
   25.0942   15.4864   94.8110 O   0  0  0  0  0  0  0  0  0  0  0  0
   24.0273   14.4660   92.6582 O   0  0  0  0  0  0  0  0  0  0  0  0
   25.9220   15.6244   95.2973 H   0  0  0  0  0  0  0  0  0  0  0  0
   24.2050   13.9838   91.8355 H   0  0  0  0  0  0  0  0  0  0  0  0
   32.3126   10.0954   91.3745 C   0  0  0  0  0  0  0  0  0  0  0  0
   32.5986   10.8502   90.2414 C   0  0  0  0  0  0  0  0  0  0  0  0
   31.8430   10.7089   89.0758 C   0  0  0  0  0  0  0  0  0  0  0  0
   30.8831   11.6770   88.7723 C   0  0  0  0  0  0  0  0  0  0  0  0
   29.9167   11.4378   87.7966 C   0  0  0  0  0  0  0  0  0  0  0  0
   29.8979   10.2213   87.1077 C   0  0  0  0  0  0  0  0  0  0  0  0
   30.8728    9.2348   87.4136 C   0  0  0  0  0  0  0  0  0  0  0  0
   31.8344    9.4835   88.3925 C   0  0  0  0  0  0  0  0  0  0  0  0
   29.0716   10.0529   86.1532 C   0  0  0  0  0  0  0  0  0  0  0  0
   29.6089   10.9913   85.0455 F   0  0  0  0  0  0  0  0  0  0  0  0
   29.2117    8.9851   85.8113 F   0  0  0  0  0  0  0  0  0  0  0  0
   27.2222   10.5340   86.0066 P   0  0  0  0  0  0  0  0  0  0  0  0
   26.3159    9.1897   86.1345 O   0  0  0  0  0  0  0  0  0  0  0  0
   26.9493   11.2219   84.5587 O   0  0  0  0  0  0  0  0  0  0  0  0
   26.8302   11.5673   87.1939 O   0  0  0  0  0  0  0  0  0  0  0  0
   27.1860   10.5981   83.8546 H   0  0  0  0  0  0  0  0  0  0  0  0
   26.9957   11.1498   88.0536 H   0  0  0  0  0  0  0  0  0  0  0  0
  2  1  1  0  0  0
  2  3  1  0  0  0
  1 18  1  0  0  0
 18 19  1  0  0  0
 19 20  1  0  0  0
  9  6  1  0  0  0
  9 10  1  0  0  0
  9 11  1  0  0  0
  9 12  1  0  0  0
  3  4  2  0  0  0
  3  8  1  0  0  0
  4  5  1  0  0  0
  5  6  2  0  0  0
  6  7  1  0  0  0
  7  8  2  0  0  0
 26 23  1  0  0  0
 26 27  1  0  0  0
 26 28  1  0  0  0
 26 29  1  0  0  0
 20 21  2  0  0  0
 20 25  1  0  0  0
 21 22  1  0  0  0
 22 23  2  0  0  0
 23 24  1  0  0  0
 24 25  2  0  0  0
 12 13  2  0  0  0
 12 14  1  0  0  0
 12 15  1  0  0  0
 29 30  2  0  0  0
 29 31  1  0  0  0
 29 32  1  0  0  0
 14 16  1  0  0  0
 15 17  1  0  0  0
 31 33  1  0  0  0
 32 34  1  0  0  0
M  END
> <minimizedAffinity>
-8.42603

$$$$
1KAV_FEP_A_301


 34 35  0  0  0  0  0  0  0  0999 V2000
   32.4588   10.2850   92.4679 C   0  0  0  0  0  0  0  0  0  0  0  0
   33.7721    9.8520   92.3637 C   0  0  0  0  0  0  0  0  0  0  0  0
   34.8098   10.5373   92.9575 C   0  0  0  0  0  0  0  0  0  0  0  0
   36.0305   10.5941   92.2821 C   0  0  0  0  0  0  0  0  0  0  0  0
   36.9218   11.6396   92.4998 C   0  0  0  0  0  0  0  0  0  0  0  0
   36.6108   12.6555   93.3984 C   0  0  0  0  0  0  0  0  0  0  0  0
   35.3873   12.5920   94.0807 C   0  0  0  0  0  0  0  0  0  0  0  0
   34.4850   11.5431   93.8689 C   0  0  0  0  0  0  0  0  0  0  0  0
   37.4690   13.5700   93.6784 C   0  0  0  0  0  0  0  0  0  0  0  0
   37.4294   14.5210   92.4568 F   0  0  0  0  0  0  0  0  0  0  0  0
   37.0402   14.1408   94.5714 F   0  0  0  0  0  0  0  0  0  0  0  0
   39.3543   13.4538   93.8285 P   0  0  0  0  0  0  0  0  0  0  0  0
   39.6974   12.0282   94.4249 O   0  0  0  0  0  0  0  0  0  0  0  0
   39.9295   14.6297   94.7560 O   0  0  0  0  0  0  0  0  0  0  0  0
   39.9655   13.6016   92.3569 O   0  0  0  0  0  0  0  0  0  0  0  0
   39.5624   14.5453   95.6499 H   0  0  0  0  0  0  0  0  0  0  0  0
   39.6211   12.8930   91.7911 H   0  0  0  0  0  0  0  0  0  0  0  0
   31.9073   10.9555   91.3795 C   0  0  0  0  0  0  0  0  0  0  0  0
   32.5142   10.9183   90.1282 C   0  0  0  0  0  0  0  0  0  0  0  0
   31.7571   10.7386   88.9689 C   0  0  0  0  0  0  0  0  0  0  0  0
   30.7783   11.6823   88.6490 C   0  0  0  0  0  0  0  0  0  0  0  0
   29.8131   11.4048   87.6824 C   0  0  0  0  0  0  0  0  0  0  0  0
   29.8144   10.1740   87.0191 C   0  0  0  0  0  0  0  0  0  0  0  0
   30.8084    9.2123   87.3417 C   0  0  0  0  0  0  0  0  0  0  0  0
   31.7687    9.4992   88.3114 C   0  0  0  0  0  0  0  0  0  0  0  0
   28.9878    9.9704   86.0716 C   0  0  0  0  0  0  0  0  0  0  0  0
   29.5468   10.8371   84.9173 F   0  0  0  0  0  0  0  0  0  0  0  0
   29.1082    8.8832   85.7883 F   0  0  0  0  0  0  0  0  0  0  0  0
   27.1487   10.4786   85.8916 P   0  0  0  0  0  0  0  0  0  0  0  0
   26.9461   11.2279   84.4626 O   0  0  0  0  0  0  0  0  0  0  0  0
   26.7444   11.5018   87.0890 O   0  0  0  0  0  0  0  0  0  0  0  0
   26.2083    9.1582   85.9498 O   0  0  0  0  0  0  0  0  0  0  0  0
   27.3109   12.2882   87.0473 H   0  0  0  0  0  0  0  0  0  0  0  0
   26.4555    8.5533   85.2329 H   0  0  0  0  0  0  0  0  0  0  0  0
  2  1  1  0  0  0
  2  3  1  0  0  0
  1 18  1  0  0  0
 18 19  1  0  0  0
 19 20  1  0  0  0
  9  6  1  0  0  0
  9 10  1  0  0  0
  9 11  1  0  0  0
  9 12  1  0  0  0
  3  4  2  0  0  0
  3  8  1  0  0  0
  4  5  1  0  0  0
  5  6  2  0  0  0
  6  7  1  0  0  0
  7  8  2  0  0  0
 26 23  1  0  0  0
 26 27  1  0  0  0
 26 28  1  0  0  0
 26 29  1  0  0  0
 20 21  2  0  0  0
 20 25  1  0  0  0
 21 22  1  0  0  0
 22 23  2  0  0  0
 23 24  1  0  0  0
 24 25  2  0  0  0
 12 13  2  0  0  0
 12 14  1  0  0  0
 12 15  1  0  0  0
 29 30  2  0  0  0
 29 31  1  0  0  0
 29 32  1  0  0  0
 14 16  1  0  0  0
 15 17  1  0  0  0
 31 33  1  0  0  0
 32 34  1  0  0  0
M  END
> <minimizedAffinity>
-8.38542

$$$$
1KAV_FEP_A_301


 34 35  0  0  0  0  0  0  0  0999 V2000
   32.9535    9.1239   90.7666 C   0  0  0  0  0  0  0  0  0  0  0  0
   33.1991   10.1551   89.8726 C   0  0  0  0  0  0  0  0  0  0  0  0
   32.3266   10.4475   88.8467 C   0  0  0  0  0  0  0  0  0  0  0  0
   31.9416    9.4091   87.9964 C   0  0  0  0  0  0  0  0  0  0  0  0
   30.7309    9.4543   87.3129 C   0  0  0  0  0  0  0  0  0  0  0  0
   29.8749   10.5405   87.4665 C   0  0  0  0  0  0  0  0  0  0  0  0
   30.2675   11.5853   88.3156 C   0  0  0  0  0  0  0  0  0  0  0  0
   31.4844   11.5489   89.0062 C   0  0  0  0  0  0  0  0  0  0  0  0
   28.8029   10.6362   86.7644 C   0  0  0  0  0  0  0  0  0  0  0  0
   28.4426    9.1719   86.4119 F   0  0  0  0  0  0  0  0  0  0  0  0
   27.9960   11.0266   87.4741 F   0  0  0  0  0  0  0  0  0  0  0  0
   28.5521   11.3661   85.0339 P   0  0  0  0  0  0  0  0  0  0  0  0
   28.7726   12.9301   85.1403 O   0  0  0  0  0  0  0  0  0  0  0  0
   27.0905   11.0186   84.4710 O   0  0  0  0  0  0  0  0  0  0  0  0
   29.6521   10.7147   84.0714 O   0  0  0  0  0  0  0  0  0  0  0  0
   26.4190   11.4111   85.0506 H   0  0  0  0  0  0  0  0  0  0  0  0
   30.5384   10.9215   84.4068 H   0  0  0  0  0  0  0  0  0  0  0  0
   33.3980    9.2799   92.0767 C   0  0  0  0  0  0  0  0  0  0  0  0
   34.7271    9.0503   92.4181 C   0  0  0  0  0  0  0  0  0  0  0  0
   35.6103   10.1132   92.6173 C   0  0  0  0  0  0  0  0  0  0  0  0
   36.9817    9.8855   92.4825 C   0  0  0  0  0  0  0  0  0  0  0  0
   37.9060   10.8187   92.9492 C   0  0  0  0  0  0  0  0  0  0  0  0
   37.4687   11.9983   93.5593 C   0  0  0  0  0  0  0  0  0  0  0  0
   36.0749   12.2332   93.6977 C   0  0  0  0  0  0  0  0  0  0  0  0
   35.1584   11.2924   93.2288 C   0  0  0  0  0  0  0  0  0  0  0  0
   38.3197   12.8851   93.8936 C   0  0  0  0  0  0  0  0  0  0  0  0
   37.7696   13.4193   95.2384 F   0  0  0  0  0  0  0  0  0  0  0  0
   39.2796   12.3263   94.1007 F   0  0  0  0  0  0  0  0  0  0  0  0
   38.7258   14.5831   93.1029 P   0  0  0  0  0  0  0  0  0  0  0  0
   37.3352   15.3699   92.8000 O   0  0  0  0  0  0  0  0  0  0  0  0
   39.5234   14.3580   91.7039 O   0  0  0  0  0  0  0  0  0  0  0  0
   39.6330   15.4586   94.1235 O   0  0  0  0  0  0  0  0  0  0  0  0
   38.9747   13.8340   91.0996 H   0  0  0  0  0  0  0  0  0  0  0  0
   39.1506   15.5884   94.9550 H   0  0  0  0  0  0  0  0  0  0  0  0
  2  1  1  0  0  0
  2  3  1  0  0  0
  1 18  1  0  0  0
 18 19  1  0  0  0
 19 20  1  0  0  0
  9  6  1  0  0  0
  9 10  1  0  0  0
  9 11  1  0  0  0
  9 12  1  0  0  0
  3  4  2  0  0  0
  3  8  1  0  0  0
  4  5  1  0  0  0
  5  6  2  0  0  0
  6  7  1  0  0  0
  7  8  2  0  0  0
 26 23  1  0  0  0
 26 27  1  0  0  0
 26 28  1  0  0  0
 26 29  1  0  0  0
 20 21  2  0  0  0
 20 25  1  0  0  0
 21 22  1  0  0  0
 22 23  2  0  0  0
 23 24  1  0  0  0
 24 25  2  0  0  0
 12 13  2  0  0  0
 12 14  1  0  0  0
 12 15  1  0  0  0
 29 30  2  0  0  0
 29 31  1  0  0  0
 29 32  1  0  0  0
 14 16  1  0  0  0
 15 17  1  0  0  0
 31 33  1  0  0  0
 32 34  1  0  0  0
M  END
> <minimizedAffinity>
-8.35406

$$$$
1KAV_FEP_A_301


 34 35  0  0  0  0  0  0  0  0999 V2000
   31.4932   10.9610   91.4458 C   0  0  0  0  0  0  0  0  0  0  0  0
   32.2784   10.9945   90.3033 C   0  0  0  0  0  0  0  0  0  0  0  0
   31.7257   10.9305   89.0425 C   0  0  0  0  0  0  0  0  0  0  0  0
   31.7424    9.7016   88.3800 C   0  0  0  0  0  0  0  0  0  0  0  0
   30.7969    9.4002   87.4054 C   0  0  0  0  0  0  0  0  0  0  0  0
   29.8095   10.3223   87.0720 C   0  0  0  0  0  0  0  0  0  0  0  0
   29.7997   11.5586   87.7339 C   0  0  0  0  0  0  0  0  0  0  0  0
   30.7479   11.8710   88.7149 C   0  0  0  0  0  0  0  0  0  0  0  0
   28.9947   10.0914   86.1056 C   0  0  0  0  0  0  0  0  0  0  0  0
   29.5166   10.9728   84.9441 F   0  0  0  0  0  0  0  0  0  0  0  0
   29.1602    8.9998   85.8088 F   0  0  0  0  0  0  0  0  0  0  0  0
   27.1608   10.5376   85.9376 P   0  0  0  0  0  0  0  0  0  0  0  0
   26.9664   11.2288   84.5267 O   0  0  0  0  0  0  0  0  0  0  0  0
   26.6936   11.5027   87.1310 O   0  0  0  0  0  0  0  0  0  0  0  0
   26.3243    9.1753   86.0083 O   0  0  0  0  0  0  0  0  0  0  0  0
   27.1975   12.3307   87.0933 H   0  0  0  0  0  0  0  0  0  0  0  0
   26.6026    8.5873   85.2887 H   0  0  0  0  0  0  0  0  0  0  0  0
   31.8502   11.7918   92.5043 C   0  0  0  0  0  0  0  0  0  0  0  0
   30.9523   12.7165   93.0282 C   0  0  0  0  0  0  0  0  0  0  0  0
   29.6262   12.3627   93.2848 C   0  0  0  0  0  0  0  0  0  0  0  0
   28.6026   13.1110   92.6991 C   0  0  0  0  0  0  0  0  0  0  0  0
   27.2881   12.9886   93.1464 C   0  0  0  0  0  0  0  0  0  0  0  0
   26.9782   12.1114   94.1900 C   0  0  0  0  0  0  0  0  0  0  0  0
   28.0166   11.3488   94.7877 C   0  0  0  0  0  0  0  0  0  0  0  0
   29.3288   11.4796   94.3338 C   0  0  0  0  0  0  0  0  0  0  0  0
   25.7614   11.9375   94.5239 C   0  0  0  0  0  0  0  0  0  0  0  0
   25.4379   10.5272   93.9738 F   0  0  0  0  0  0  0  0  0  0  0  0
   25.7576   11.8867   95.6527 F   0  0  0  0  0  0  0  0  0  0  0  0
   24.1660   12.8093   93.9174 P   0  0  0  0  0  0  0  0  0  0  0  0
   24.3978   14.4185   93.9546 O   0  0  0  0  0  0  0  0  0  0  0  0
   22.9276   12.4289   94.9001 O   0  0  0  0  0  0  0  0  0  0  0  0
   23.8321   12.3445   92.3996 O   0  0  0  0  0  0  0  0  0  0  0  0
   23.1350   12.7099   95.8051 H   0  0  0  0  0  0  0  0  0  0  0  0
   24.5751   12.5747   91.8201 H   0  0  0  0  0  0  0  0  0  0  0  0
  2  1  1  0  0  0
  2  3  1  0  0  0
  1 18  1  0  0  0
 18 19  1  0  0  0
 19 20  1  0  0  0
  9  6  1  0  0  0
  9 10  1  0  0  0
  9 11  1  0  0  0
  9 12  1  0  0  0
  3  4  2  0  0  0
  3  8  1  0  0  0
  4  5  1  0  0  0
  5  6  2  0  0  0
  6  7  1  0  0  0
  7  8  2  0  0  0
 26 23  1  0  0  0
 26 27  1  0  0  0
 26 28  1  0  0  0
 26 29  1  0  0  0
 20 21  2  0  0  0
 20 25  1  0  0  0
 21 22  1  0  0  0
 22 23  2  0  0  0
 23 24  1  0  0  0
 24 25  2  0  0  0
 12 13  2  0  0  0
 12 14  1  0  0  0
 12 15  1  0  0  0
 29 30  2  0  0  0
 29 31  1  0  0  0
 29 32  1  0  0  0
 14 16  1  0  0  0
 15 17  1  0  0  0
 31 33  1  0  0  0
 32 34  1  0  0  0
M  END
> <minimizedAffinity>
-8.32106

$$$$
1KAV_FEP_A_301


 34 35  0  0  0  0  0  0  0  0999 V2000
   33.9764   10.1104   89.9994 C   0  0  0  0  0  0  0  0  0  0  0  0
   33.2244    9.4223   89.0591 C   0  0  0  0  0  0  0  0  0  0  0  0
   31.9210    9.7710   88.7783 C   0  0  0  0  0  0  0  0  0  0  0  0
   31.4930   11.0516   89.1337 C   0  0  0  0  0  0  0  0  0  0  0  0
   30.4450   11.6696   88.4594 C   0  0  0  0  0  0  0  0  0  0  0  0
   29.8014   11.0202   87.4105 C   0  0  0  0  0  0  0  0  0  0  0  0
   30.2287    9.7312   87.0604 C   0  0  0  0  0  0  0  0  0  0  0  0
   31.2814    9.1012   87.7342 C   0  0  0  0  0  0  0  0  0  0  0  0
   28.7704   11.5425   86.8486 C   0  0  0  0  0  0  0  0  0  0  0  0
   27.9196   12.0762   88.0274 F   0  0  0  0  0  0  0  0  0  0  0  0
   29.1548   12.4477   86.2657 F   0  0  0  0  0  0  0  0  0  0  0  0
   27.3605   10.7091   85.8957 P   0  0  0  0  0  0  0  0  0  0  0  0
   26.0049   11.3706   86.3762 O   0  0  0  0  0  0  0  0  0  0  0  0
   27.3582    9.1242   86.1445 O   0  0  0  0  0  0  0  0  0  0  0  0
   27.5960   10.9941   84.3387 O   0  0  0  0  0  0  0  0  0  0  0  0
   27.2158    8.9451   87.0871 H   0  0  0  0  0  0  0  0  0  0  0  0
   27.5984   11.9514   84.1820 H   0  0  0  0  0  0  0  0  0  0  0  0
   34.3261    9.4404   91.1686 C   0  0  0  0  0  0  0  0  0  0  0  0
   33.3968    9.2280   92.1819 C   0  0  0  0  0  0  0  0  0  0  0  0
   32.6459   10.2852   92.6997 C   0  0  0  0  0  0  0  0  0  0  0  0
   31.2532   10.1806   92.7132 C   0  0  0  0  0  0  0  0  0  0  0  0
   30.4588   11.3031   92.9413 C   0  0  0  0  0  0  0  0  0  0  0  0
   31.0498   12.5511   93.1607 C   0  0  0  0  0  0  0  0  0  0  0  0
   32.4657   12.6609   93.1480 C   0  0  0  0  0  0  0  0  0  0  0  0
   33.2514   11.5320   92.9173 C   0  0  0  0  0  0  0  0  0  0  0  0
   30.3174   13.5483   93.4632 C   0  0  0  0  0  0  0  0  0  0  0  0
   30.5436   13.7090   94.9861 F   0  0  0  0  0  0  0  0  0  0  0  0
   30.7793   14.4374   92.9409 F   0  0  0  0  0  0  0  0  0  0  0  0
   28.4100   13.7347   93.4775 P   0  0  0  0  0  0  0  0  0  0  0  0
   27.8059   12.8792   94.7217 O   0  0  0  0  0  0  0  0  0  0  0  0
   27.7937   13.1571   92.0880 O   0  0  0  0  0  0  0  0  0  0  0  0
   28.0146   15.2981   93.6518 O   0  0  0  0  0  0  0  0  0  0  0  0
   28.0344   12.2225   91.9914 H   0  0  0  0  0  0  0  0  0  0  0  0
   28.3856   15.6349   94.4823 H   0  0  0  0  0  0  0  0  0  0  0  0
  2  1  1  0  0  0
  2  3  1  0  0  0
  1 18  1  0  0  0
 18 19  1  0  0  0
 19 20  1  0  0  0
  9  6  1  0  0  0
  9 10  1  0  0  0
  9 11  1  0  0  0
  9 12  1  0  0  0
  3  4  2  0  0  0
  3  8  1  0  0  0
  4  5  1  0  0  0
  5  6  2  0  0  0
  6  7  1  0  0  0
  7  8  2  0  0  0
 26 23  1  0  0  0
 26 27  1  0  0  0
 26 28  1  0  0  0
 26 29  1  0  0  0
 20 21  2  0  0  0
 20 25  1  0  0  0
 21 22  1  0  0  0
 22 23  2  0  0  0
 23 24  1  0  0  0
 24 25  2  0  0  0
 12 13  2  0  0  0
 12 14  1  0  0  0
 12 15  1  0  0  0
 29 30  2  0  0  0
 29 31  1  0  0  0
 29 32  1  0  0  0
 14 16  1  0  0  0
 15 17  1  0  0  0
 31 33  1  0  0  0
 32 34  1  0  0  0
M  END
> <minimizedAffinity>
-8.05574

$$$$
