2NTA_521_A_301


 21 23  0  0  0  0  0  0  0  0999 V2000
   32.3248  -30.7341   -1.2156 C   0  0  0  0  0  0  0  0  0  0  0  0
   33.0226  -29.2803   -2.9793 C   0  0  0  0  0  0  0  0  0  0  0  0
   33.4198  -30.0559   -1.8215 C   0  0  0  0  0  0  0  0  0  0  0  0
   31.6547  -29.3940   -3.1696 C   0  0  0  0  0  0  0  0  0  0  0  0
   30.8611  -30.3787   -2.0461 S   0  0  0  0  0  0  0  0  0  0  0  0
   35.0368  -30.1232   -1.2433 Cl  0  0  0  0  0  0  0  0  0  0  0  0
   33.8541  -28.5185   -3.8643 N   0  0  0  0  0  0  0  0  0  0  0  0
   35.4297  -27.7095   -5.6077 N   0  0  0  0  0  0  0  0  0  0  0  0
   33.9670  -27.0337   -3.8175 C   0  0  0  0  0  0  0  0  0  0  0  0
   34.9355  -26.6025   -4.8908 C   0  0  0  0  0  0  0  0  0  0  0  0
   35.2474  -25.4505   -5.1111 O   0  0  0  0  0  0  0  0  0  0  0  0
   34.8274  -29.2103   -5.1053 S   0  0  0  0  0  0  0  0  0  0  0  0
   35.9127  -29.9751   -4.5142 O   0  0  0  0  0  0  0  0  0  0  0  0
   33.9885  -29.7536   -6.1583 O   0  0  0  0  0  0  0  0  0  0  0  0
   36.0760  -27.6178   -6.3446 H   0  0  0  0  0  0  0  0  0  0  0  0
   32.0406  -33.3566    2.2717 C   0  0  0  0  0  0  0  0  0  0  0  0
   33.0803  -32.3977    2.1680 C   0  0  0  0  0  0  0  0  0  0  0  0
   33.1666  -31.5566    1.0299 C   0  0  0  0  0  0  0  0  0  0  0  0
   32.2213  -31.6506   -0.0304 C   0  0  0  0  0  0  0  0  0  0  0  0
   31.1663  -32.6303    0.0901 C   0  0  0  0  0  0  0  0  0  0  0  0
   31.0800  -33.4735    1.2338 C   0  0  0  0  0  0  0  0  0  0  0  0
 16 21  2  0  0  0
 16 17  1  0  0  0
 17 18  2  0  0  0
 18 19  1  0  0  0
 19  1  1  0  0  0
 19 20  2  0  0  0
 20 21  1  0  0  0
  1  3  2  0  0  0
  1  5  1  0  0  0
  7 12  1  0  0  0
  7  9  1  0  0  0
  7  2  1  0  0  0
  8 12  1  0  0  0
  8 10  1  0  0  0
  2  3  1  0  0  0
  2  4  2  0  0  0
  3  6  1  0  0  0
  4  5  1  0  0  0
  9 10  1  0  0  0
 10 11  2  0  0  0
 12 14  2  0  0  0
 12 13  2  0  0  0
  8 15  1  0  0  0
M  END
> <minimizedAffinity>
-9.05164

$$$$
2NTA_521_A_301


 21 23  0  0  0  0  0  0  0  0999 V2000
   32.6680  -30.8928   -1.0949 C   0  0  0  0  0  0  0  0  0  0  0  0
   34.0029  -29.5317   -2.5358 C   0  0  0  0  0  0  0  0  0  0  0  0
   32.6841  -30.0591   -2.2484 C   0  0  0  0  0  0  0  0  0  0  0  0
   34.9100  -30.0119   -1.6048 C   0  0  0  0  0  0  0  0  0  0  0  0
   34.2479  -31.0327   -0.4296 S   0  0  0  0  0  0  0  0  0  0  0  0
   31.3042  -29.7219   -3.2156 Cl  0  0  0  0  0  0  0  0  0  0  0  0
   34.3873  -28.6225   -3.5753 N   0  0  0  0  0  0  0  0  0  0  0  0
   35.1977  -27.5234   -5.6518 N   0  0  0  0  0  0  0  0  0  0  0  0
   34.2684  -27.1417   -3.4628 C   0  0  0  0  0  0  0  0  0  0  0  0
   34.7766  -26.5312   -4.7454 C   0  0  0  0  0  0  0  0  0  0  0  0
   34.8156  -25.3391   -4.9696 O   0  0  0  0  0  0  0  0  0  0  0  0
   35.0294  -29.1141   -5.0958 S   0  0  0  0  0  0  0  0  0  0  0  0
   36.3524  -29.6872   -4.9122 O   0  0  0  0  0  0  0  0  0  0  0  0
   34.0062  -29.7786   -5.8827 O   0  0  0  0  0  0  0  0  0  0  0  0
   35.5621  -27.3087   -6.5408 H   0  0  0  0  0  0  0  0  0  0  0  0
   29.5083  -33.0758    0.9958 C   0  0  0  0  0  0  0  0  0  0  0  0
   30.8589  -33.1749    1.4165 C   0  0  0  0  0  0  0  0  0  0  0  0
   31.8764  -32.4676    0.7275 C   0  0  0  0  0  0  0  0  0  0  0  0
   31.5734  -31.6464   -0.3952 C   0  0  0  0  0  0  0  0  0  0  0  0
   30.1928  -31.5532   -0.8110 C   0  0  0  0  0  0  0  0  0  0  0  0
   29.1721  -32.2630   -0.1178 C   0  0  0  0  0  0  0  0  0  0  0  0
 16 21  2  0  0  0
 16 17  1  0  0  0
 17 18  2  0  0  0
 18 19  1  0  0  0
 19  1  1  0  0  0
 19 20  2  0  0  0
 20 21  1  0  0  0
  1  3  2  0  0  0
  1  5  1  0  0  0
  7 12  1  0  0  0
  7  9  1  0  0  0
  7  2  1  0  0  0
  8 12  1  0  0  0
  8 10  1  0  0  0
  2  3  1  0  0  0
  2  4  2  0  0  0
  3  6  1  0  0  0
  4  5  1  0  0  0
  9 10  1  0  0  0
 10 11  2  0  0  0
 12 14  2  0  0  0
 12 13  2  0  0  0
  8 15  1  0  0  0
M  END
> <minimizedAffinity>
-8.35377

$$$$
2NTA_521_A_301


 21 23  0  0  0  0  0  0  0  0999 V2000
   32.2915  -31.5403    0.2336 C   0  0  0  0  0  0  0  0  0  0  0  0
   31.2984  -32.9252    1.9090 C   0  0  0  0  0  0  0  0  0  0  0  0
   31.1290  -32.2573    0.6341 C   0  0  0  0  0  0  0  0  0  0  0  0
   32.5623  -32.6584    2.4106 C   0  0  0  0  0  0  0  0  0  0  0  0
   33.5232  -31.6735    1.4267 S   0  0  0  0  0  0  0  0  0  0  0  0
   29.6707  -32.3170   -0.2732 Cl  0  0  0  0  0  0  0  0  0  0  0  0
   30.3706  -33.7760    2.5948 N   0  0  0  0  0  0  0  0  0  0  0  0
   28.9556  -35.6443    3.4213 N   0  0  0  0  0  0  0  0  0  0  0  0
   29.4935  -33.3141    3.7070 C   0  0  0  0  0  0  0  0  0  0  0  0
   28.6585  -34.4848    4.1634 C   0  0  0  0  0  0  0  0  0  0  0  0
   27.8383  -34.4358    5.0565 O   0  0  0  0  0  0  0  0  0  0  0  0
   30.1481  -35.4455    2.2355 S   0  0  0  0  0  0  0  0  0  0  0  0
   29.5341  -35.5922    0.9264 O   0  0  0  0  0  0  0  0  0  0  0  0
   31.3236  -36.2043    2.6228 O   0  0  0  0  0  0  0  0  0  0  0  0
   28.5044  -36.5049    3.5799 H   0  0  0  0  0  0  0  0  0  0  0  0
   33.1869  -29.1088   -3.2886 C   0  0  0  0  0  0  0  0  0  0  0  0
   31.8465  -29.4094   -2.9364 C   0  0  0  0  0  0  0  0  0  0  0  0
   31.5678  -30.2040   -1.7956 C   0  0  0  0  0  0  0  0  0  0  0  0
   32.6156  -30.7174   -0.9802 C   0  0  0  0  0  0  0  0  0  0  0  0
   33.9760  -30.4011   -1.3499 C   0  0  0  0  0  0  0  0  0  0  0  0
   34.2546  -29.6023   -2.4948 C   0  0  0  0  0  0  0  0  0  0  0  0
 16 21  2  0  0  0
 16 17  1  0  0  0
 17 18  2  0  0  0
 18 19  1  0  0  0
 19  1  1  0  0  0
 19 20  2  0  0  0
 20 21  1  0  0  0
  1  3  2  0  0  0
  1  5  1  0  0  0
  7 12  1  0  0  0
  7  9  1  0  0  0
  7  2  1  0  0  0
  8 12  1  0  0  0
  8 10  1  0  0  0
  2  3  1  0  0  0
  2  4  2  0  0  0
  3  6  1  0  0  0
  4  5  1  0  0  0
  9 10  1  0  0  0
 10 11  2  0  0  0
 12 14  2  0  0  0
 12 13  2  0  0  0
  8 15  1  0  0  0
M  END
> <minimizedAffinity>
-7.04208

$$$$
2NTA_521_A_301


 21 23  0  0  0  0  0  0  0  0999 V2000
   33.6145  -30.0160   -1.8374 C   0  0  0  0  0  0  0  0  0  0  0  0
   32.2754  -31.1763   -0.2338 C   0  0  0  0  0  0  0  0  0  0  0  0
   32.2988  -30.4100   -1.4636 C   0  0  0  0  0  0  0  0  0  0  0  0
   33.5627  -31.2979    0.2642 C   0  0  0  0  0  0  0  0  0  0  0  0
   34.7595  -30.5554   -0.6728 S   0  0  0  0  0  0  0  0  0  0  0  0
   30.8823  -30.0112   -2.3512 Cl  0  0  0  0  0  0  0  0  0  0  0  0
   31.1480  -31.7807    0.4132 N   0  0  0  0  0  0  0  0  0  0  0  0
   29.1069  -32.3019    1.7317 N   0  0  0  0  0  0  0  0  0  0  0  0
   30.8094  -33.2272    0.3013 C   0  0  0  0  0  0  0  0  0  0  0  0
   29.5696  -33.4840    1.1217 C   0  0  0  0  0  0  0  0  0  0  0  0
   29.0371  -34.5681    1.2396 O   0  0  0  0  0  0  0  0  0  0  0  0
   30.0280  -30.9204    1.3988 S   0  0  0  0  0  0  0  0  0  0  0  0
   30.6786  -30.4863    2.6237 O   0  0  0  0  0  0  0  0  0  0  0  0
   29.2355  -30.0148    0.5866 O   0  0  0  0  0  0  0  0  0  0  0  0
   28.3088  -32.2804    2.3078 H   0  0  0  0  0  0  0  0  0  0  0  0
   35.1935  -27.8088   -5.2660 C   0  0  0  0  0  0  0  0  0  0  0  0
   35.7141  -29.0819   -4.9208 C   0  0  0  0  0  0  0  0  0  0  0  0
   35.1989  -29.7862   -3.8032 C   0  0  0  0  0  0  0  0  0  0  0  0
   34.1550  -29.2400   -3.0042 C   0  0  0  0  0  0  0  0  0  0  0  0
   33.6328  -27.9433   -3.3693 C   0  0  0  0  0  0  0  0  0  0  0  0
   34.1501  -27.2377   -4.4921 C   0  0  0  0  0  0  0  0  0  0  0  0
 16 21  2  0  0  0
 16 17  1  0  0  0
 17 18  2  0  0  0
 18 19  1  0  0  0
 19  1  1  0  0  0
 19 20  2  0  0  0
 20 21  1  0  0  0
  1  3  2  0  0  0
  1  5  1  0  0  0
  7 12  1  0  0  0
  7  9  1  0  0  0
  7  2  1  0  0  0
  8 12  1  0  0  0
  8 10  1  0  0  0
  2  3  1  0  0  0
  2  4  2  0  0  0
  3  6  1  0  0  0
  4  5  1  0  0  0
  9 10  1  0  0  0
 10 11  2  0  0  0
 12 14  2  0  0  0
 12 13  2  0  0  0
  8 15  1  0  0  0
M  END
> <minimizedAffinity>
-6.89300

$$$$
2NTA_521_A_301


 21 23  0  0  0  0  0  0  0  0999 V2000
   31.0519  -31.0039   -1.0741 C   0  0  0  0  0  0  0  0  0  0  0  0
   29.7788  -32.3468    0.4383 C   0  0  0  0  0  0  0  0  0  0  0  0
   31.0957  -31.8981    0.0326 C   0  0  0  0  0  0  0  0  0  0  0  0
   28.8202  -31.7906   -0.3934 C   0  0  0  0  0  0  0  0  0  0  0  0
   29.4302  -30.7720   -1.5983 S   0  0  0  0  0  0  0  0  0  0  0  0
   32.5439  -32.4140    0.8006 Cl  0  0  0  0  0  0  0  0  0  0  0  0
   29.4320  -33.2000    1.5368 N   0  0  0  0  0  0  0  0  0  0  0  0
   28.6540  -34.1929    3.6781 N   0  0  0  0  0  0  0  0  0  0  0  0
   29.6678  -34.6710    1.5462 C   0  0  0  0  0  0  0  0  0  0  0  0
   29.1816  -35.2158    2.8664 C   0  0  0  0  0  0  0  0  0  0  0  0
   29.2350  -36.3849    3.1877 O   0  0  0  0  0  0  0  0  0  0  0  0
   28.6896  -32.6465    2.9888 S   0  0  0  0  0  0  0  0  0  0  0  0
   29.6228  -31.8223    3.7386 O   0  0  0  0  0  0  0  0  0  0  0  0
   27.3268  -32.2203    2.7262 O   0  0  0  0  0  0  0  0  0  0  0  0
   28.2921  -34.3639    4.5775 H   0  0  0  0  0  0  0  0  0  0  0  0
   34.1192  -28.8222   -3.2992 C   0  0  0  0  0  0  0  0  0  0  0  0
   32.7456  -28.6676   -3.6159 C   0  0  0  0  0  0  0  0  0  0  0  0
   31.7597  -29.3847   -2.8919 C   0  0  0  0  0  0  0  0  0  0  0  0
   32.1179  -30.2715   -1.8374 C   0  0  0  0  0  0  0  0  0  0  0  0
   33.5208  -30.4170   -1.5245 C   0  0  0  0  0  0  0  0  0  0  0  0
   34.5097  -29.6958   -2.2513 C   0  0  0  0  0  0  0  0  0  0  0  0
 16 21  2  0  0  0
 16 17  1  0  0  0
 17 18  2  0  0  0
 18 19  1  0  0  0
 19  1  1  0  0  0
 19 20  2  0  0  0
 20 21  1  0  0  0
  1  3  2  0  0  0
  1  5  1  0  0  0
  7 12  1  0  0  0
  7  9  1  0  0  0
  7  2  1  0  0  0
  8 12  1  0  0  0
  8 10  1  0  0  0
  2  3  1  0  0  0
  2  4  2  0  0  0
  3  6  1  0  0  0
  4  5  1  0  0  0
  9 10  1  0  0  0
 10 11  2  0  0  0
 12 14  2  0  0  0
 12 13  2  0  0  0
  8 15  1  0  0  0
M  END
> <minimizedAffinity>
-6.77731

$$$$
2NTA_521_A_301


 21 23  0  0  0  0  0  0  0  0999 V2000
   31.0495  -31.0323   -0.9396 C   0  0  0  0  0  0  0  0  0  0  0  0
   29.7626  -32.2773    0.6432 C   0  0  0  0  0  0  0  0  0  0  0  0
   31.0786  -31.8171    0.2476 C   0  0  0  0  0  0  0  0  0  0  0  0
   28.8205  -31.8390   -0.2736 C   0  0  0  0  0  0  0  0  0  0  0  0
   29.4440  -30.9141   -1.5453 S   0  0  0  0  0  0  0  0  0  0  0  0
   32.5107  -32.2020    1.1159 Cl  0  0  0  0  0  0  0  0  0  0  0  0
   29.4005  -33.0373    1.8034 N   0  0  0  0  0  0  0  0  0  0  0  0
   29.0980  -34.7547    3.5741 N   0  0  0  0  0  0  0  0  0  0  0  0
   28.5027  -32.5274    2.8774 C   0  0  0  0  0  0  0  0  0  0  0  0
   28.3535  -33.6097    3.9178 C   0  0  0  0  0  0  0  0  0  0  0  0
   27.6813  -33.5073    4.9230 O   0  0  0  0  0  0  0  0  0  0  0  0
   29.9578  -34.6358    2.1201 S   0  0  0  0  0  0  0  0  0  0  0  0
   29.3804  -35.5605    1.1589 O   0  0  0  0  0  0  0  0  0  0  0  0
   31.3789  -34.6234    2.4169 O   0  0  0  0  0  0  0  0  0  0  0  0
   29.1171  -35.5627    4.1363 H   0  0  0  0  0  0  0  0  0  0  0  0
   34.1298  -28.9469   -3.2379 C   0  0  0  0  0  0  0  0  0  0  0  0
   32.7573  -28.7973   -3.5617 C   0  0  0  0  0  0  0  0  0  0  0  0
   31.7671  -29.4831   -2.8137 C   0  0  0  0  0  0  0  0  0  0  0  0
   32.1198  -30.3330   -1.7275 C   0  0  0  0  0  0  0  0  0  0  0  0
   33.5217  -30.4739   -1.4077 C   0  0  0  0  0  0  0  0  0  0  0  0
   34.5149  -29.7840   -2.1587 C   0  0  0  0  0  0  0  0  0  0  0  0
 16 21  2  0  0  0
 16 17  1  0  0  0
 17 18  2  0  0  0
 18 19  1  0  0  0
 19  1  1  0  0  0
 19 20  2  0  0  0
 20 21  1  0  0  0
  1  3  2  0  0  0
  1  5  1  0  0  0
  7 12  1  0  0  0
  7  9  1  0  0  0
  7  2  1  0  0  0
  8 12  1  0  0  0
  8 10  1  0  0  0
  2  3  1  0  0  0
  2  4  2  0  0  0
  3  6  1  0  0  0
  4  5  1  0  0  0
  9 10  1  0  0  0
 10 11  2  0  0  0
 12 14  2  0  0  0
 12 13  2  0  0  0
  8 15  1  0  0  0
M  END
> <minimizedAffinity>
-6.55422

$$$$
2NTA_521_A_301


 21 23  0  0  0  0  0  0  0  0999 V2000
   32.9198  -30.5403   -1.1243 C   0  0  0  0  0  0  0  0  0  0  0  0
   31.5762  -31.5380    0.5817 C   0  0  0  0  0  0  0  0  0  0  0  0
   31.6046  -30.9085   -0.7233 C   0  0  0  0  0  0  0  0  0  0  0  0
   32.8591  -31.5887    1.1029 C   0  0  0  0  0  0  0  0  0  0  0  0
   34.0577  -30.9363    0.1032 S   0  0  0  0  0  0  0  0  0  0  0  0
   30.1938  -30.6260   -1.6630 Cl  0  0  0  0  0  0  0  0  0  0  0  0
   30.4486  -32.0834    1.2789 N   0  0  0  0  0  0  0  0  0  0  0  0
   28.6658  -33.5167    2.2503 N   0  0  0  0  0  0  0  0  0  0  0  0
   29.5257  -31.2707    2.1199 C   0  0  0  0  0  0  0  0  0  0  0  0
   28.4667  -32.1895    2.6772 C   0  0  0  0  0  0  0  0  0  0  0  0
   27.5612  -31.8327    3.4021 O   0  0  0  0  0  0  0  0  0  0  0  0
   30.0111  -33.7488    1.2482 S   0  0  0  0  0  0  0  0  0  0  0  0
   29.5470  -34.1141   -0.0797 O   0  0  0  0  0  0  0  0  0  0  0  0
   30.9956  -34.5408    1.9633 O   0  0  0  0  0  0  0  0  0  0  0  0
   28.0684  -34.2534    2.5142 H   0  0  0  0  0  0  0  0  0  0  0  0
   34.5365  -28.6919   -4.7422 C   0  0  0  0  0  0  0  0  0  0  0  0
   35.3399  -29.5430   -3.9414 C   0  0  0  0  0  0  0  0  0  0  0  0
   34.8074  -30.1322   -2.7668 C   0  0  0  0  0  0  0  0  0  0  0  0
   33.4645  -29.8879   -2.3625 C   0  0  0  0  0  0  0  0  0  0  0  0
   32.6572  -29.0207   -3.1893 C   0  0  0  0  0  0  0  0  0  0  0  0
   33.1926  -28.4305   -4.3689 C   0  0  0  0  0  0  0  0  0  0  0  0
 16 21  2  0  0  0
 16 17  1  0  0  0
 17 18  2  0  0  0
 18 19  1  0  0  0
 19  1  1  0  0  0
 19 20  2  0  0  0
 20 21  1  0  0  0
  1  3  2  0  0  0
  1  5  1  0  0  0
  7 12  1  0  0  0
  7  9  1  0  0  0
  7  2  1  0  0  0
  8 12  1  0  0  0
  8 10  1  0  0  0
  2  3  1  0  0  0
  2  4  2  0  0  0
  3  6  1  0  0  0
  4  5  1  0  0  0
  9 10  1  0  0  0
 10 11  2  0  0  0
 12 14  2  0  0  0
 12 13  2  0  0  0
  8 15  1  0  0  0
M  END
> <minimizedAffinity>
-6.43234

$$$$
2NTA_521_A_301


 21 23  0  0  0  0  0  0  0  0999 V2000
   32.9096  -31.1791   -0.2001 C   0  0  0  0  0  0  0  0  0  0  0  0
   32.1648  -32.7016    1.4847 C   0  0  0  0  0  0  0  0  0  0  0  0
   31.9530  -32.1724    0.1524 C   0  0  0  0  0  0  0  0  0  0  0  0
   33.2474  -32.0664    2.0718 C   0  0  0  0  0  0  0  0  0  0  0  0
   33.9989  -30.9019    1.1019 S   0  0  0  0  0  0  0  0  0  0  0  0
   30.6702  -32.6839   -0.8705 Cl  0  0  0  0  0  0  0  0  0  0  0  0
   31.4395  -33.7431    2.1511 N   0  0  0  0  0  0  0  0  0  0  0  0
   30.5569  -35.4534    3.7234 N   0  0  0  0  0  0  0  0  0  0  0  0
   30.2803  -34.4584    1.5476 C   0  0  0  0  0  0  0  0  0  0  0  0
   29.7913  -35.4824    2.5417 C   0  0  0  0  0  0  0  0  0  0  0  0
   28.8572  -36.2332    2.3502 O   0  0  0  0  0  0  0  0  0  0  0  0
   31.8004  -34.3040    3.7389 S   0  0  0  0  0  0  0  0  0  0  0  0
   33.0776  -34.9975    3.7402 O   0  0  0  0  0  0  0  0  0  0  0  0
   31.4797  -33.2815    4.7185 O   0  0  0  0  0  0  0  0  0  0  0  0
   30.3824  -36.0555    4.4826 H   0  0  0  0  0  0  0  0  0  0  0  0
   33.5695  -28.8316   -3.8296 C   0  0  0  0  0  0  0  0  0  0  0  0
   34.6626  -29.3801   -3.1118 C   0  0  0  0  0  0  0  0  0  0  0  0
   34.4376  -30.1346   -1.9326 C   0  0  0  0  0  0  0  0  0  0  0  0
   33.1207  -30.3599   -1.4410 C   0  0  0  0  0  0  0  0  0  0  0  0
   32.0168  -29.7970   -2.1839 C   0  0  0  0  0  0  0  0  0  0  0  0
   32.2439  -29.0407   -3.3682 C   0  0  0  0  0  0  0  0  0  0  0  0
 16 21  2  0  0  0
 16 17  1  0  0  0
 17 18  2  0  0  0
 18 19  1  0  0  0
 19  1  1  0  0  0
 19 20  2  0  0  0
 20 21  1  0  0  0
  1  3  2  0  0  0
  1  5  1  0  0  0
  7 12  1  0  0  0
  7  9  1  0  0  0
  7  2  1  0  0  0
  8 12  1  0  0  0
  8 10  1  0  0  0
  2  3  1  0  0  0
  2  4  2  0  0  0
  3  6  1  0  0  0
  4  5  1  0  0  0
  9 10  1  0  0  0
 10 11  2  0  0  0
 12 14  2  0  0  0
 12 13  2  0  0  0
  8 15  1  0  0  0
M  END
> <minimizedAffinity>
-6.22434

$$$$
