4KAX_GTP_A_201


 41 43  0  0  0  0  0  0  0  0999 V2000
   -4.6316   10.2747   55.9275 C   0  0  0  0  0  0  0  0  0  0  0  0
   -5.5288    9.2387   56.2882 O   0  0  0  0  0  0  0  0  0  0  0  0
   -4.0977   10.8696   57.2203 C   0  0  0  0  0  0  0  0  0  0  0  0
   -4.7854   12.0577   57.5339 O   0  0  0  0  0  0  0  0  0  0  0  0
   -4.3995    9.8024   58.2514 C   0  0  0  0  0  0  0  0  0  0  0  0
   -4.5935   10.3237   59.5390 O   0  0  0  0  0  0  0  0  0  0  0  0
   -5.6697    9.1962   57.6961 C   0  0  0  0  0  0  0  0  0  0  0  0
   -5.7363   11.8750   57.5923 H   0  0  0  0  0  0  0  0  0  0  0  0
   -5.3124   10.9746   59.5194 H   0  0  0  0  0  0  0  0  0  0  0  0
   -5.8823    7.8207   58.1718 N   0  0  0  0  0  0  0  0  0  0  0  0
   -5.0863    6.7191   57.9899 C   0  0  0  0  0  0  0  0  0  0  0  0
   -5.6672    5.6637   58.5971 N   0  0  0  0  0  0  0  0  0  0  0  0
   -6.8334    6.0724   59.1590 C   0  0  0  0  0  0  0  0  0  0  0  0
   -7.8237    5.4226   59.8960 C   0  0  0  0  0  0  0  0  0  0  0  0
   -7.7446    4.2224   60.1449 O   0  0  0  0  0  0  0  0  0  0  0  0
   -8.9225    6.1382   60.3448 N   0  0  0  0  0  0  0  0  0  0  0  0
   -9.0351    7.4821   60.0625 C   0  0  0  0  0  0  0  0  0  0  0  0
  -10.0895    8.1703   60.4984 N   0  0  0  0  0  0  0  0  0  0  0  0
   -8.0504    8.1237   59.3369 N   0  0  0  0  0  0  0  0  0  0  0  0
   -6.9721    7.4301   58.8933 C   0  0  0  0  0  0  0  0  0  0  0  0
   -9.6240    5.6854   60.8664 H   0  0  0  0  0  0  0  0  0  0  0  0
  -10.7937    7.7168   61.0159 H   0  0  0  0  0  0  0  0  0  0  0  0
  -10.1645    9.1323   60.3030 H   0  0  0  0  0  0  0  0  0  0  0  0
   -3.4954    9.6840   55.0900 C   0  0  0  0  0  0  0  0  0  0  0  0
   -2.3705    9.4375   55.9164 O   0  0  0  0  0  0  0  0  0  0  0  0
   -1.0802    8.6638   55.3144 P   0  0  0  0  0  0  0  0  0  0  0  0
    0.0160    9.6475   55.0283 O   0  0  0  0  0  0  0  0  0  0  0  0
   -0.6548    7.5843   56.2828 O   0  0  0  0  0  0  0  0  0  0  0  0
    0.1177    7.1174   55.9276 H   0  0  0  0  0  0  0  0  0  0  0  0
   -1.7390    8.0678   53.9807 O   0  0  0  0  0  0  0  0  0  0  0  0
   -0.9640    7.4404   52.7068 P   0  0  0  0  0  0  0  0  0  0  0  0
   -1.7762    6.3001   52.2027 O   0  0  0  0  0  0  0  0  0  0  0  0
    0.4314    7.0708   53.1261 O   0  0  0  0  0  0  0  0  0  0  0  0
    0.9068    6.6929   52.3697 H   0  0  0  0  0  0  0  0  0  0  0  0
   -0.9479    8.6469   51.6213 O   0  0  0  0  0  0  0  0  0  0  0  0
    0.4431    9.2535   50.9937 P   0  0  0  0  0  0  0  0  0  0  0  0
    0.1612   10.3217   49.9779 O   0  0  0  0  0  0  0  0  0  0  0  0
    1.2092    9.8711   52.1524 O   0  0  0  0  0  0  0  0  0  0  0  0
    1.2499    8.1305   50.4084 O   0  0  0  0  0  0  0  0  0  0  0  0
    2.0431   10.2442   51.8264 H   0  0  0  0  0  0  0  0  0  0  0  0
    2.0730    8.4837   50.0360 H   0  0  0  0  0  0  0  0  0  0  0  0
 36 37  2  0  0  0
 36 38  1  0  0  0
 36 39  1  0  0  0
 36 35  1  0  0  0
 35 31  1  0  0  0
 31 32  2  0  0  0
 31 33  1  0  0  0
 31 30  1  0  0  0
 30 26  1  0  0  0
 26 27  2  0  0  0
 26 28  1  0  0  0
 26 25  1  0  0  0
 25 24  1  0  0  0
 24  1  1  0  0  0
  1  2  1  0  0  0
  1  3  1  0  0  0
  2  7  1  0  0  0
  3  4  1  0  0  0
  3  5  1  0  0  0
  5  6  1  0  0  0
  5  7  1  0  0  0
  7 10  1  0  0  0
 10 11  1  0  0  0
 10 20  1  0  0  0
 11 12  2  0  0  0
 12 13  1  0  0  0
 13 14  1  0  0  0
 13 20  2  0  0  0
 14 15  2  0  0  0
 14 16  1  0  0  0
 16 17  1  0  0  0
 17 18  1  0  0  0
 17 19  2  0  0  0
 19 20  1  0  0  0
 38 40  1  0  0  0
 39 41  1  0  0  0
 33 34  1  0  0  0
 28 29  1  0  0  0
  4  8  1  0  0  0
  6  9  1  0  0  0
 16 21  1  0  0  0
 18 22  1  0  0  0
 18 23  1  0  0  0
M  END
> <minimizedAffinity>
-12.36472

$$$$
4KAX_GTP_A_201


 41 43  0  0  0  0  0  0  0  0999 V2000
   -5.2411   10.9207   56.2828 C   0  0  0  0  0  0  0  0  0  0  0  0
   -6.0603    9.8231   56.6469 O   0  0  0  0  0  0  0  0  0  0  0  0
   -4.4012   11.2708   57.5003 C   0  0  0  0  0  0  0  0  0  0  0  0
   -4.9595   12.3695   58.1814 O   0  0  0  0  0  0  0  0  0  0  0  0
   -4.4857   10.0255   58.3578 C   0  0  0  0  0  0  0  0  0  0  0  0
   -4.3565   10.2940   59.7283 O   0  0  0  0  0  0  0  0  0  0  0  0
   -5.8686    9.5161   58.0154 C   0  0  0  0  0  0  0  0  0  0  0  0
   -5.8754   12.1659   58.4277 H   0  0  0  0  0  0  0  0  0  0  0  0
   -5.0397   10.9270   59.9996 H   0  0  0  0  0  0  0  0  0  0  0  0
   -6.0061    8.0731   58.2650 N   0  0  0  0  0  0  0  0  0  0  0  0
   -5.1979    7.0499   57.8404 C   0  0  0  0  0  0  0  0  0  0  0  0
   -5.7004    5.8855   58.3007 N   0  0  0  0  0  0  0  0  0  0  0  0
   -6.8288    6.1479   59.0082 C   0  0  0  0  0  0  0  0  0  0  0  0
   -7.7398    5.3452   59.6952 C   0  0  0  0  0  0  0  0  0  0  0  0
   -7.6092    4.1243   59.7301 O   0  0  0  0  0  0  0  0  0  0  0  0
   -8.8182    5.9314   60.3388 N   0  0  0  0  0  0  0  0  0  0  0  0
   -8.9887    7.2980   60.2979 C   0  0  0  0  0  0  0  0  0  0  0  0
  -10.0232    7.8612   60.9209 N   0  0  0  0  0  0  0  0  0  0  0  0
   -8.0822    8.0905   59.6213 N   0  0  0  0  0  0  0  0  0  0  0  0
   -7.0243    7.5243   58.9880 C   0  0  0  0  0  0  0  0  0  0  0  0
   -9.4638    5.3702   60.8262 H   0  0  0  0  0  0  0  0  0  0  0  0
  -10.6716    7.3000   61.4043 H   0  0  0  0  0  0  0  0  0  0  0  0
  -10.1390    8.8386   60.8978 H   0  0  0  0  0  0  0  0  0  0  0  0
   -4.3514   10.5131   55.1066 C   0  0  0  0  0  0  0  0  0  0  0  0
   -3.5354   11.6067   54.7228 O   0  0  0  0  0  0  0  0  0  0  0  0
   -1.9368   11.4016   54.5549 P   0  0  0  0  0  0  0  0  0  0  0  0
   -1.5955   11.2228   53.1049 O   0  0  0  0  0  0  0  0  0  0  0  0
   -1.2194   12.5755   55.1807 O   0  0  0  0  0  0  0  0  0  0  0  0
   -0.2614   12.4583   55.0833 H   0  0  0  0  0  0  0  0  0  0  0  0
   -1.7620   10.0525   55.4018 O   0  0  0  0  0  0  0  0  0  0  0  0
   -0.8058    8.7964   55.0482 P   0  0  0  0  0  0  0  0  0  0  0  0
   -0.6404    7.9929   56.2896 O   0  0  0  0  0  0  0  0  0  0  0  0
    0.4804    9.3178   54.4706 O   0  0  0  0  0  0  0  0  0  0  0  0
    1.0630    8.5730   54.2542 H   0  0  0  0  0  0  0  0  0  0  0  0
   -1.6469    7.9597   53.9407 O   0  0  0  0  0  0  0  0  0  0  0  0
   -0.9794    7.4318   52.5362 P   0  0  0  0  0  0  0  0  0  0  0  0
   -0.7267    8.5707   51.5920 O   0  0  0  0  0  0  0  0  0  0  0  0
    0.3520    6.7947   52.9007 O   0  0  0  0  0  0  0  0  0  0  0  0
   -1.8752    6.3931   51.9253 O   0  0  0  0  0  0  0  0  0  0  0  0
    0.7843    6.4667   52.0968 H   0  0  0  0  0  0  0  0  0  0  0  0
   -1.4853    6.0778   51.0949 H   0  0  0  0  0  0  0  0  0  0  0  0
 36 37  2  0  0  0
 36 38  1  0  0  0
 36 39  1  0  0  0
 36 35  1  0  0  0
 35 31  1  0  0  0
 31 32  2  0  0  0
 31 33  1  0  0  0
 31 30  1  0  0  0
 30 26  1  0  0  0
 26 27  2  0  0  0
 26 28  1  0  0  0
 26 25  1  0  0  0
 25 24  1  0  0  0
 24  1  1  0  0  0
  1  2  1  0  0  0
  1  3  1  0  0  0
  2  7  1  0  0  0
  3  4  1  0  0  0
  3  5  1  0  0  0
  5  6  1  0  0  0
  5  7  1  0  0  0
  7 10  1  0  0  0
 10 11  1  0  0  0
 10 20  1  0  0  0
 11 12  2  0  0  0
 12 13  1  0  0  0
 13 14  1  0  0  0
 13 20  2  0  0  0
 14 15  2  0  0  0
 14 16  1  0  0  0
 16 17  1  0  0  0
 17 18  1  0  0  0
 17 19  2  0  0  0
 19 20  1  0  0  0
 38 40  1  0  0  0
 39 41  1  0  0  0
 33 34  1  0  0  0
 28 29  1  0  0  0
  4  8  1  0  0  0
  6  9  1  0  0  0
 16 21  1  0  0  0
 18 22  1  0  0  0
 18 23  1  0  0  0
M  END
> <minimizedAffinity>
-11.34512

$$$$
4KAX_GTP_A_201


 41 43  0  0  0  0  0  0  0  0999 V2000
   -3.7201   10.4659   56.6616 C   0  0  0  0  0  0  0  0  0  0  0  0
   -4.6590   10.4461   57.7230 O   0  0  0  0  0  0  0  0  0  0  0  0
   -3.7506    9.0900   56.0163 C   0  0  0  0  0  0  0  0  0  0  0  0
   -2.6761    8.3071   56.4804 O   0  0  0  0  0  0  0  0  0  0  0  0
   -5.0657    8.5070   56.4894 C   0  0  0  0  0  0  0  0  0  0  0  0
   -5.0459    7.1071   56.5735 O   0  0  0  0  0  0  0  0  0  0  0  0
   -5.2073    9.1475   57.8528 C   0  0  0  0  0  0  0  0  0  0  0  0
   -2.7139    8.2472   57.4478 H   0  0  0  0  0  0  0  0  0  0  0  0
   -4.3306    6.8290   57.1668 H   0  0  0  0  0  0  0  0  0  0  0  0
   -6.6079    9.1996   58.2987 N   0  0  0  0  0  0  0  0  0  0  0  0
   -7.4662   10.2691   58.3022 C   0  0  0  0  0  0  0  0  0  0  0  0
   -8.6542    9.8655   58.7980 N   0  0  0  0  0  0  0  0  0  0  0  0
   -8.5662    8.5504   59.1230 C   0  0  0  0  0  0  0  0  0  0  0  0
   -9.4672    7.6324   59.6630 C   0  0  0  0  0  0  0  0  0  0  0  0
  -10.6106    7.9666   59.9622 O   0  0  0  0  0  0  0  0  0  0  0  0
   -9.0638    6.3240   59.8784 N   0  0  0  0  0  0  0  0  0  0  0  0
   -7.7804    5.9350   59.5623 C   0  0  0  0  0  0  0  0  0  0  0  0
   -7.3949    4.6757   59.7654 N   0  0  0  0  0  0  0  0  0  0  0  0
   -6.8923    6.8449   59.0231 N   0  0  0  0  0  0  0  0  0  0  0  0
   -7.2792    8.1277   58.8099 C   0  0  0  0  0  0  0  0  0  0  0  0
   -9.6955    5.6713   60.2580 H   0  0  0  0  0  0  0  0  0  0  0  0
   -8.0248    4.0239   60.1495 H   0  0  0  0  0  0  0  0  0  0  0  0
   -6.4801    4.3972   59.5312 H   0  0  0  0  0  0  0  0  0  0  0  0
   -4.1229   11.5474   55.6569 C   0  0  0  0  0  0  0  0  0  0  0  0
   -3.2934   11.4676   54.5103 O   0  0  0  0  0  0  0  0  0  0  0  0
   -2.0810   12.5250   54.3155 P   0  0  0  0  0  0  0  0  0  0  0  0
   -2.5890   13.7633   53.6376 O   0  0  0  0  0  0  0  0  0  0  0  0
   -1.4556   12.8134   55.6608 O   0  0  0  0  0  0  0  0  0  0  0  0
   -0.7288   13.4461   55.5506 H   0  0  0  0  0  0  0  0  0  0  0  0
   -1.1281   11.6497   53.3701 O   0  0  0  0  0  0  0  0  0  0  0  0
   -0.4050   10.2510   53.7413 P   0  0  0  0  0  0  0  0  0  0  0  0
   -0.5644   10.0364   55.2051 O   0  0  0  0  0  0  0  0  0  0  0  0
    1.0226   10.3080   53.2744 O   0  0  0  0  0  0  0  0  0  0  0  0
    1.4674    9.4738   53.4916 H   0  0  0  0  0  0  0  0  0  0  0  0
   -1.2473    9.1391   52.9116 O   0  0  0  0  0  0  0  0  0  0  0  0
   -0.6524    7.6447   52.5801 P   0  0  0  0  0  0  0  0  0  0  0  0
   -1.7402    6.7134   52.1309 O   0  0  0  0  0  0  0  0  0  0  0  0
    0.3439    7.8161   51.4447 O   0  0  0  0  0  0  0  0  0  0  0  0
    0.0623    7.1194   53.7917 O   0  0  0  0  0  0  0  0  0  0  0  0
    0.7228    6.9534   51.2141 H   0  0  0  0  0  0  0  0  0  0  0  0
    0.4158    6.2365   53.6011 H   0  0  0  0  0  0  0  0  0  0  0  0
 36 37  2  0  0  0
 36 38  1  0  0  0
 36 39  1  0  0  0
 36 35  1  0  0  0
 35 31  1  0  0  0
 31 32  2  0  0  0
 31 33  1  0  0  0
 31 30  1  0  0  0
 30 26  1  0  0  0
 26 27  2  0  0  0
 26 28  1  0  0  0
 26 25  1  0  0  0
 25 24  1  0  0  0
 24  1  1  0  0  0
  1  2  1  0  0  0
  1  3  1  0  0  0
  2  7  1  0  0  0
  3  4  1  0  0  0
  3  5  1  0  0  0
  5  6  1  0  0  0
  5  7  1  0  0  0
  7 10  1  0  0  0
 10 11  1  0  0  0
 10 20  1  0  0  0
 11 12  2  0  0  0
 12 13  1  0  0  0
 13 14  1  0  0  0
 13 20  2  0  0  0
 14 15  2  0  0  0
 14 16  1  0  0  0
 16 17  1  0  0  0
 17 18  1  0  0  0
 17 19  2  0  0  0
 19 20  1  0  0  0
 38 40  1  0  0  0
 39 41  1  0  0  0
 33 34  1  0  0  0
 28 29  1  0  0  0
  4  8  1  0  0  0
  6  9  1  0  0  0
 16 21  1  0  0  0
 18 22  1  0  0  0
 18 23  1  0  0  0
M  END
> <minimizedAffinity>
-10.38297

$$$$
4KAX_GTP_A_201


 41 43  0  0  0  0  0  0  0  0999 V2000
   -2.6766   12.4398   54.2818 C   0  0  0  0  0  0  0  0  0  0  0  0
   -4.0662   12.4322   54.5601 O   0  0  0  0  0  0  0  0  0  0  0  0
   -1.9770   12.9558   55.5286 C   0  0  0  0  0  0  0  0  0  0  0  0
   -1.6537   14.3184   55.3807 O   0  0  0  0  0  0  0  0  0  0  0  0
   -3.0166   12.7796   56.6156 C   0  0  0  0  0  0  0  0  0  0  0  0
   -2.8839   13.7099   57.6568 O   0  0  0  0  0  0  0  0  0  0  0  0
   -4.3005   12.9850   55.8420 C   0  0  0  0  0  0  0  0  0  0  0  0
   -2.4598   14.8231   55.1904 H   0  0  0  0  0  0  0  0  0  0  0  0
   -2.9349   14.6087   57.2957 H   0  0  0  0  0  0  0  0  0  0  0  0
   -5.4519   12.3469   56.4981 N   0  0  0  0  0  0  0  0  0  0  0  0
   -6.6653   12.8969   56.8232 C   0  0  0  0  0  0  0  0  0  0  0  0
   -7.4225   11.9494   57.4140 N   0  0  0  0  0  0  0  0  0  0  0  0
   -6.7055   10.7987   57.4817 C   0  0  0  0  0  0  0  0  0  0  0  0
   -6.9792    9.5248   57.9799 C   0  0  0  0  0  0  0  0  0  0  0  0
   -8.0596    9.2674   58.5046 O   0  0  0  0  0  0  0  0  0  0  0  0
   -6.0129    8.5349   57.8943 N   0  0  0  0  0  0  0  0  0  0  0  0
   -4.7900    8.8096   57.3221 C   0  0  0  0  0  0  0  0  0  0  0  0
   -3.8633    7.8560   57.2360 N   0  0  0  0  0  0  0  0  0  0  0  0
   -4.5239   10.0705   56.8252 N   0  0  0  0  0  0  0  0  0  0  0  0
   -5.4642   11.0452   56.9058 C   0  0  0  0  0  0  0  0  0  0  0  0
   -6.2007    7.6336   58.2430 H   0  0  0  0  0  0  0  0  0  0  0  0
   -4.0489    6.9559   57.5890 H   0  0  0  0  0  0  0  0  0  0  0  0
   -2.9930    8.0516   56.8194 H   0  0  0  0  0  0  0  0  0  0  0  0
   -2.2239   11.0154   53.9537 C   0  0  0  0  0  0  0  0  0  0  0  0
   -1.5686   10.4513   55.0769 O   0  0  0  0  0  0  0  0  0  0  0  0
   -0.7190    9.0813   54.9122 P   0  0  0  0  0  0  0  0  0  0  0  0
    0.7285    9.4037   54.6851 O   0  0  0  0  0  0  0  0  0  0  0  0
   -0.9376    8.2145   56.1310 O   0  0  0  0  0  0  0  0  0  0  0  0
   -0.4312    7.3924   56.0381 H   0  0  0  0  0  0  0  0  0  0  0  0
   -1.4337    8.4932   53.6041 O   0  0  0  0  0  0  0  0  0  0  0  0
   -0.8122    7.4422   52.5428 P   0  0  0  0  0  0  0  0  0  0  0  0
   -1.8125    6.3588   52.3436 O   0  0  0  0  0  0  0  0  0  0  0  0
    0.5197    6.9704   53.0557 O   0  0  0  0  0  0  0  0  0  0  0  0
    0.9029    6.3388   52.4271 H   0  0  0  0  0  0  0  0  0  0  0  0
   -0.6403    8.3103   51.1823 O   0  0  0  0  0  0  0  0  0  0  0  0
    0.7999    8.9463   50.7149 P   0  0  0  0  0  0  0  0  0  0  0  0
    0.6585    9.7419   49.4501 O   0  0  0  0  0  0  0  0  0  0  0  0
    1.2459    9.8775   51.8306 O   0  0  0  0  0  0  0  0  0  0  0  0
    1.8016    7.8380   50.5639 O   0  0  0  0  0  0  0  0  0  0  0  0
    2.0976   10.2782   51.5963 H   0  0  0  0  0  0  0  0  0  0  0  0
    2.6545    8.2085   50.2878 H   0  0  0  0  0  0  0  0  0  0  0  0
 36 37  2  0  0  0
 36 38  1  0  0  0
 36 39  1  0  0  0
 36 35  1  0  0  0
 35 31  1  0  0  0
 31 32  2  0  0  0
 31 33  1  0  0  0
 31 30  1  0  0  0
 30 26  1  0  0  0
 26 27  2  0  0  0
 26 28  1  0  0  0
 26 25  1  0  0  0
 25 24  1  0  0  0
 24  1  1  0  0  0
  1  2  1  0  0  0
  1  3  1  0  0  0
  2  7  1  0  0  0
  3  4  1  0  0  0
  3  5  1  0  0  0
  5  6  1  0  0  0
  5  7  1  0  0  0
  7 10  1  0  0  0
 10 11  1  0  0  0
 10 20  1  0  0  0
 11 12  2  0  0  0
 12 13  1  0  0  0
 13 14  1  0  0  0
 13 20  2  0  0  0
 14 15  2  0  0  0
 14 16  1  0  0  0
 16 17  1  0  0  0
 17 18  1  0  0  0
 17 19  2  0  0  0
 19 20  1  0  0  0
 38 40  1  0  0  0
 39 41  1  0  0  0
 33 34  1  0  0  0
 28 29  1  0  0  0
  4  8  1  0  0  0
  6  9  1  0  0  0
 16 21  1  0  0  0
 18 22  1  0  0  0
 18 23  1  0  0  0
M  END
> <minimizedAffinity>
-10.18185

$$$$
4KAX_GTP_A_201


 41 43  0  0  0  0  0  0  0  0999 V2000
   -4.6801   10.9628   56.1697 C   0  0  0  0  0  0  0  0  0  0  0  0
   -5.9847   10.4403   56.3523 O   0  0  0  0  0  0  0  0  0  0  0  0
   -4.3450   11.7657   57.4160 C   0  0  0  0  0  0  0  0  0  0  0  0
   -4.5443   13.1399   57.1819 O   0  0  0  0  0  0  0  0  0  0  0  0
   -5.3392   11.2597   58.4402 C   0  0  0  0  0  0  0  0  0  0  0  0
   -5.6632   12.2195   59.4102 O   0  0  0  0  0  0  0  0  0  0  0  0
   -6.5281   10.9234   57.5669 C   0  0  0  0  0  0  0  0  0  0  0  0
   -5.4594   13.2901   56.8973 H   0  0  0  0  0  0  0  0  0  0  0  0
   -6.0138   13.0128   58.9757 H   0  0  0  0  0  0  0  0  0  0  0  0
   -7.4118    9.9275   58.1919 N   0  0  0  0  0  0  0  0  0  0  0  0
   -8.7069   10.0786   58.6165 C   0  0  0  0  0  0  0  0  0  0  0  0
   -9.1309    8.9052   59.1297 N   0  0  0  0  0  0  0  0  0  0  0  0
   -8.1190    8.0039   59.0492 C   0  0  0  0  0  0  0  0  0  0  0  0
   -7.9947    6.6644   59.4185 C   0  0  0  0  0  0  0  0  0  0  0  0
   -8.9248    6.0641   59.9509 O   0  0  0  0  0  0  0  0  0  0  0  0
   -6.7986    6.0013   59.1939 N   0  0  0  0  0  0  0  0  0  0  0  0
   -5.7398    6.6629   58.6112 C   0  0  0  0  0  0  0  0  0  0  0  0
   -4.5918    6.0232   58.3913 N   0  0  0  0  0  0  0  0  0  0  0  0
   -5.8677    7.9876   58.2419 N   0  0  0  0  0  0  0  0  0  0  0  0
   -7.0350    8.6440   58.4591 C   0  0  0  0  0  0  0  0  0  0  0  0
   -6.7053    5.0556   59.4513 H   0  0  0  0  0  0  0  0  0  0  0  0
   -4.4964    5.0790   58.6530 H   0  0  0  0  0  0  0  0  0  0  0  0
   -3.8389    6.4950   57.9672 H   0  0  0  0  0  0  0  0  0  0  0  0
   -3.6975    9.8039   55.9883 C   0  0  0  0  0  0  0  0  0  0  0  0
   -3.0414    9.9246   54.7377 O   0  0  0  0  0  0  0  0  0  0  0  0
   -1.4795    9.5145   54.6023 P   0  0  0  0  0  0  0  0  0  0  0  0
   -0.6185   10.7357   54.7370 O   0  0  0  0  0  0  0  0  0  0  0  0
   -1.1549    8.4575   55.6326 O   0  0  0  0  0  0  0  0  0  0  0  0
   -0.2207    8.2078   55.5564 H   0  0  0  0  0  0  0  0  0  0  0  0
   -1.4968    8.9323   53.1094 O   0  0  0  0  0  0  0  0  0  0  0  0
   -0.7798    7.5816   52.5814 P   0  0  0  0  0  0  0  0  0  0  0  0
   -1.8497    6.5935   52.2766 O   0  0  0  0  0  0  0  0  0  0  0  0
    0.2097    7.1252   53.6168 O   0  0  0  0  0  0  0  0  0  0  0  0
    0.6468    6.3149   53.3113 H   0  0  0  0  0  0  0  0  0  0  0  0
   -0.0289    8.0408   51.2178 O   0  0  0  0  0  0  0  0  0  0  0  0
    0.5605    9.5582   51.0004 P   0  0  0  0  0  0  0  0  0  0  0  0
    1.4966    9.6157   49.8288 O   0  0  0  0  0  0  0  0  0  0  0  0
   -0.6357   10.4517   50.7145 O   0  0  0  0  0  0  0  0  0  0  0  0
    1.2277   10.0131   52.2663 O   0  0  0  0  0  0  0  0  0  0  0  0
   -0.3332   11.3633   50.5787 H   0  0  0  0  0  0  0  0  0  0  0  0
    1.5777   10.9093   52.1433 H   0  0  0  0  0  0  0  0  0  0  0  0
 36 37  2  0  0  0
 36 38  1  0  0  0
 36 39  1  0  0  0
 36 35  1  0  0  0
 35 31  1  0  0  0
 31 32  2  0  0  0
 31 33  1  0  0  0
 31 30  1  0  0  0
 30 26  1  0  0  0
 26 27  2  0  0  0
 26 28  1  0  0  0
 26 25  1  0  0  0
 25 24  1  0  0  0
 24  1  1  0  0  0
  1  2  1  0  0  0
  1  3  1  0  0  0
  2  7  1  0  0  0
  3  4  1  0  0  0
  3  5  1  0  0  0
  5  6  1  0  0  0
  5  7  1  0  0  0
  7 10  1  0  0  0
 10 11  1  0  0  0
 10 20  1  0  0  0
 11 12  2  0  0  0
 12 13  1  0  0  0
 13 14  1  0  0  0
 13 20  2  0  0  0
 14 15  2  0  0  0
 14 16  1  0  0  0
 16 17  1  0  0  0
 17 18  1  0  0  0
 17 19  2  0  0  0
 19 20  1  0  0  0
 38 40  1  0  0  0
 39 41  1  0  0  0
 33 34  1  0  0  0
 28 29  1  0  0  0
  4  8  1  0  0  0
  6  9  1  0  0  0
 16 21  1  0  0  0
 18 22  1  0  0  0
 18 23  1  0  0  0
M  END
> <minimizedAffinity>
-9.89940

$$$$
