4KAX_GTP_A_201
  RCSB PDB12061713183D
Coordinates from PDB:4KAX:A:201 Model:1 without hydrogens
 32 34  0  0  0  0            999 V2000
    0.4670    9.1120   50.8270   P 0  0  0  0  0  0  0  0  0  0  0  0
    0.8070    7.9570   49.9310   O 0  0  0  0  0  0  0  0  0  0  0  0
    0.0920   10.3060   49.9640   O 0  0  0  0  0  0  0  0  0  0  0  0
    1.6200    9.4840   51.7140   O 0  0  0  0  0  0  0  0  0  0  0  0
   -0.8430    8.7770   51.7590   O 0  0  0  0  0  0  0  0  0  0  0  0
   -0.8760    7.5390   52.8080   P 0  0  0  0  0  0  0  0  0  0  0  0
   -1.4030    6.3140   52.1480   O 0  0  0  0  0  0  0  0  0  0  0  0
    0.4590    7.3590   53.4750   O 0  0  0  0  0  0  0  0  0  0  0  0
   -1.9550    7.9970   53.9230   O 0  0  0  0  0  0  0  0  0  0  0  0
   -1.6510    8.4750   55.4220   P 0  0  0  0  0  0  0  0  0  0  0  0
   -0.8110    9.7170   55.4740   O 0  0  0  0  0  0  0  0  0  0  0  0
   -1.0990    7.3630   56.2840   O 0  0  0  0  0  0  0  0  0  0  0  0
   -3.1630    8.8130   55.8970   O 0  0  0  0  0  0  0  0  0  0  0  0
   -3.8640    9.8940   55.3060   C 0  0  0  0  0  0  0  0  0  0  0  0
   -4.9000   10.4380   56.2920   C 0  0  0  0  0  0  0  0  0  0  0  0
   -5.8030    9.4010   56.6350   O 0  0  0  0  0  0  0  0  0  0  0  0
   -4.2340   10.8910   57.5810   C 0  0  0  0  0  0  0  0  0  0  0  0
   -4.8450   12.0650   58.0620   O 0  0  0  0  0  0  0  0  0  0  0  0
   -4.4880    9.7410   58.5330   C 0  0  0  0  0  0  0  0  0  0  0  0
   -4.5500   10.1440   59.8750   O 0  0  0  0  0  0  0  0  0  0  0  0
   -5.8240    9.2300   58.0400   C 0  0  0  0  0  0  0  0  0  0  0  0
   -6.0490    7.8230   58.4050   N 0  0  0  0  0  0  0  0  0  0  0  0
   -5.1870    6.7620   58.2970   C 0  0  0  0  0  0  0  0  0  0  0  0
   -5.8100    5.6540   58.7490   N 0  0  0  0  0  0  0  0  0  0  0  0
   -7.0670    5.9890   59.1370   C 0  0  0  0  0  0  0  0  0  0  0  0
   -8.1320    5.2640   59.6720   C 0  0  0  0  0  0  0  0  0  0  0  0
   -8.0410    4.0550   59.8690   O 0  0  0  0  0  0  0  0  0  0  0  0
   -9.3180    5.9140   59.9750   N 0  0  0  0  0  0  0  0  0  0  0  0
   -9.4430    7.2670   59.7470   C 0  0  0  0  0  0  0  0  0  0  0  0
  -10.5820    7.8920   60.0430   N 0  0  0  0  0  0  0  0  0  0  0  0
   -8.3850    7.9830   59.2220   N 0  0  0  0  0  0  0  0  0  0  0  0
   -7.2210    7.3540   58.9220   C 0  0  0  0  0  0  0  0  0  0  0  0
  1  2  2  0  0  0  0
  1  3  1  0  0  0  0
  1  4  1  0  0  0  0
  1  5  1  0  0  0  0
  5  6  1  0  0  0  0
  6  7  2  0  0  0  0
  6  8  1  0  0  0  0
  6  9  1  0  0  0  0
  9 10  1  0  0  0  0
 10 11  2  0  0  0  0
 10 12  1  0  0  0  0
 10 13  1  0  0  0  0
 13 14  1  0  0  0  0
 14 15  1  0  0  0  0
 15 16  1  0  0  0  0
 15 17  1  0  0  0  0
 16 21  1  0  0  0  0
 17 18  1  0  0  0  0
 17 19  1  0  0  0  0
 19 20  1  0  0  0  0
 19 21  1  0  0  0  0
 21 22  1  0  0  0  0
 22 23  1  0  0  0  0
 22 32  1  0  0  0  0
 23 24  2  0  0  0  0
 24 25  1  0  0  0  0
 25 26  1  0  0  0  0
 25 32  2  0  0  0  0
 26 27  2  0  0  0  0
 26 28  1  0  0  0  0
 28 29  1  0  0  0  0
 29 30  1  0  0  0  0
 29 31  2  0  0  0  0
 31 32  1  0  0  0  0
A    1
PG
A    2
O1G
A    3
O2G
A    4
O3G
A    5
O3B
A    6
PB
A    7
O1B
A    8
O2B
A    9
O3A
A   10
PA
A   11
O1A
A   12
O2A
A   13
O5'
A   14
C5'
A   15
C4'
A   16
O4'
A   17
C3'
A   18
O3'
A   19
C2'
A   20
O2'
A   21
C1'
A   22
N9
A   23
C8
A   24
N7
A   25
C5
A   26
C6
A   27
O6
A   28
N1
A   29
C2
A   30
N2
A   31
N3
A   32
C4
M  END
>  <InstanceId>
4KAX_GTP_A_201

>  <ChemCompId>
GTP

>  <PdbId>
4KAX

>  <ChainId>
A

>  <ResidueNumber>
201

>  <InsertionCode>


>  <Model>
1

>  <AltIds>


>  <MissingHeavyAtoms>
0

>  <ObservedFormula>
C10 N5 O14 P3

>  <Name>
GUANOSINE-5'-TRIPHOSPHATE

>  <SystematicName>
[[(2R,3S,4R,5R)-5-(2-azanyl-6-oxidanylidene-1H-purin-9-yl)-3,4-bis(oxidanyl)oxolan-2-yl]methoxy-oxidanyl-phosphoryl] phosphono hydrogen phosphate

>  <Synonyms>


>  <Type>
NON-POLYMER

>  <Formula>
C10 H16 N5 O14 P3

>  <MolecularWeight>
523.18

>  <ModifiedDate>
2013-03-22

>  <Parent>
G

>  <OneLetterCode>
G

>  <SubcomponentList>


>  <AmbiguousFlag>
N

>  <InChI>
InChI=1S/C10H16N5O14P3/c11-10-13-7-4(8(18)14-10)12-2-15(7)9-6(17)5(16)3(27-9)1-26-31(22,23)29-32(24,25)28-30(19,20)21/h2-3,5-6,9,16-17H,1H2,(H,22,23)(H,24,25)(H2,19,20,21)(H3,11,13,14,18)/t3-,5-,6-,9-/m1/s1

>  <InChIKey>
XKMLYUALXHKNFT-UUOKFMHZSA-N

>  <SMILES>
c1nc2c(n1[C@H]3[C@@H]([C@@H]([C@H](O3)CO[P@](=O)(O)O[P@](=O)(O)OP(=O)(O)O)O)O)N=C(NC2=O)N

$$$$
