3DJX_C5P_A_125
  RCSB PDB12061708203D
Coordinates from PDB:3DJX:A:125 Model:1 without hydrogens
 21 22  0  0  0  0            999 V2000
   30.2780   44.4680    6.9150   O 0  0  0  0  0  0  0  0  0  0  0  0
   30.6270   44.0450    8.2880   P 0  0  0  0  0  0  0  0  0  0  0  0
   32.0470   44.4880    8.5460   O 0  0  0  0  0  0  0  0  0  0  0  0
   29.5690   44.4670    9.2930   O 0  0  0  0  0  0  0  0  0  0  0  0
   30.6200   42.4180    8.3830   O 0  0  0  0  0  0  0  0  0  0  0  0
   30.8370   41.7730    9.6460   C 0  0  0  0  0  0  0  0  0  0  0  0
   30.7870   40.2390    9.6050   C 0  0  0  0  0  0  0  0  0  0  0  0
   29.6540   39.7590    8.8570   O 0  0  0  0  0  0  0  0  0  0  0  0
   32.0360   39.6140    8.9990   C 0  0  0  0  0  0  0  0  0  0  0  0
   32.8850   39.0930   10.0230   O 0  0  0  0  0  0  0  0  0  0  0  0
   31.5320   38.4190    8.2310   C 0  0  0  0  0  0  0  0  0  0  0  0
   31.5570   37.2970    9.1000   O 0  0  0  0  0  0  0  0  0  0  0  0
   30.0790   38.7310    7.9430   C 0  0  0  0  0  0  0  0  0  0  0  0
   29.8790   39.1710    6.5640   N 0  0  0  0  0  0  0  0  0  0  0  0
   29.7560   38.2130    5.5380   C 0  0  0  0  0  0  0  0  0  0  0  0
   29.5500   38.5950    4.2640   N 0  0  0  0  0  0  0  0  0  0  0  0
   29.4510   39.9020    3.9270   C 0  0  0  0  0  0  0  0  0  0  0  0
   29.5610   40.8690    4.9160   C 0  0  0  0  0  0  0  0  0  0  0  0
   29.7730   40.4830    6.2350   C 0  0  0  0  0  0  0  0  0  0  0  0
   29.8730   37.0180    5.8190   O 0  0  0  0  0  0  0  0  0  0  0  0
   29.2410   40.2600    2.6340   N 0  0  0  0  0  0  0  0  0  0  0  0
  1  2  1  0  0  0  0
  2  3  2  0  0  0  0
  2  4  1  0  0  0  0
  2  5  1  0  0  0  0
  5  6  1  0  0  0  0
  6  7  1  0  0  0  0
  7  8  1  0  0  0  0
  7  9  1  0  0  0  0
  8 13  1  0  0  0  0
  9 10  1  0  0  0  0
  9 11  1  0  0  0  0
 11 12  1  0  0  0  0
 11 13  1  0  0  0  0
 13 14  1  0  0  0  0
 14 15  1  0  0  0  0
 14 19  1  0  0  0  0
 15 16  1  0  0  0  0
 15 20  2  0  0  0  0
 16 17  2  0  0  0  0
 17 18  1  0  0  0  0
 17 21  1  0  0  0  0
 18 19  2  0  0  0  0
A    1
O3P
A    2
P
A    3
O1P
A    4
O2P
A    5
O5'
A    6
C5'
A    7
C4'
A    8
O4'
A    9
C3'
A   10
O3'
A   11
C2'
A   12
O2'
A   13
C1'
A   14
N1
A   15
C2
A   16
N3
A   17
C4
A   18
C5
A   19
C6
A   20
O2
A   21
N4
M  END
>  <InstanceId>
3DJX_C5P_A_125

>  <ChemCompId>
C5P

>  <PdbId>
3DJX

>  <ChainId>
A

>  <ResidueNumber>
125

>  <InsertionCode>


>  <Model>
1

>  <AltIds>


>  <MissingHeavyAtoms>
0

>  <ObservedFormula>
C9 N3 O8 P

>  <Name>
CYTIDINE-5'-MONOPHOSPHATE

>  <SystematicName>
[(2R,3S,4R,5R)-5-(4-amino-2-oxo-pyrimidin-1-yl)-3,4-dihydroxy-oxolan-2-yl]methyl dihydrogen phosphate

>  <Synonyms>


>  <Type>
NON-POLYMER

>  <Formula>
C9 H14 N3 O8 P

>  <MolecularWeight>
323.197

>  <ModifiedDate>
2011-06-04

>  <Parent>


>  <OneLetterCode>


>  <SubcomponentList>


>  <AmbiguousFlag>
N

>  <InChI>
InChI=1S/C9H14N3O8P/c10-5-1-2-12(9(15)11-5)8-7(14)6(13)4(20-8)3-19-21(16,17)18/h1-2,4,6-8,13-14H,3H2,(H2,10,11,15)(H2,16,17,18)/t4-,6-,7-,8-/m1/s1

>  <InChIKey>
IERHLVCPSMICTF-XVFCMESISA-N

>  <SMILES>
C1=CN(C(=O)N=C1N)[C@H]2[C@@H]([C@@H]([C@H](O2)COP(=O)(O)O)O)O

$$$$
