4PFT_MAB_A_601
  RCSB PDB12061714133D
Coordinates from PDB:4PFT:A:601 Model:1 without hydrogens
 23 24  0  0  0  0            999 V2000
  123.7010  102.7260   11.4060   C 0  0  0  0  0  0  0  0  0  0  0  0
  125.0530  102.4110   11.9460   C 0  0  0  0  0  0  0  0  0  0  0  0
  124.6340  101.0740   12.4780   C 0  0  0  0  0  0  0  0  0  0  0  0
  123.4910  101.2310   13.4760   C 0  0  0  0  0  0  0  0  0  0  0  0
  122.3170  101.9960   12.8860   C 0  0  0  0  0  0  0  0  0  0  0  0
  121.1480  102.1940   13.8260   C 0  0  0  0  0  0  0  0  0  0  0  0
  125.4320  103.2300   13.0600   O 0  0  0  0  0  0  0  0  0  0  0  0
  125.7570  100.3940   13.0460   O 0  0  0  0  0  0  0  0  0  0  0  0
  123.0260   99.8930   13.8420   O 0  0  0  0  0  0  0  0  0  0  0  0
  122.7650  103.3120   12.3800   O 0  0  0  0  0  0  0  0  0  0  0  0
  120.0360  102.7660   13.1300   O 0  0  0  0  0  0  0  0  0  0  0  0
  123.2900   99.6360   15.2030   C 0  0  0  0  0  0  0  0  0  0  0  0
  122.4980   98.4410   15.6730   C 0  0  0  0  0  0  0  0  0  0  0  0
  122.8670   98.0690   17.0860   C 0  0  0  0  0  0  0  0  0  0  0  0
  124.3550   97.8870   17.2660   C 0  0  0  0  0  0  0  0  0  0  0  0
  125.0790   99.1400   16.7530   C 0  0  0  0  0  0  0  0  0  0  0  0
  126.5810   99.1050   16.8720   C 0  0  0  0  0  0  0  0  0  0  0  0
  122.7880   97.3460   14.7400   O 0  0  0  0  0  0  0  0  0  0  0  0
  122.1850   96.8290   17.4490   O 0  0  0  0  0  0  0  0  0  0  0  0
  124.6470   97.7060   18.6600   O 0  0  0  0  0  0  0  0  0  0  0  0
  124.7430   99.3860   15.3630   O 0  0  0  0  0  0  0  0  0  0  0  0
  127.1250   97.9720   16.1940   O 0  0  0  0  0  0  0  0  0  0  0  0
  123.5320  103.0340   10.1080   O 0  0  0  0  0  0  0  0  0  0  0  0
  1  2  1  0  0  0  0
  1 10  1  0  0  0  0
  1 23  1  0  0  0  0
  2  3  1  0  0  0  0
  2  7  1  0  0  0  0
  3  4  1  0  0  0  0
  3  8  1  0  0  0  0
  4  5  1  0  0  0  0
  4  9  1  0  0  0  0
  5  6  1  0  0  0  0
  5 10  1  0  0  0  0
  6 11  1  0  0  0  0
  9 12  1  0  0  0  0
 12 13  1  0  0  0  0
 12 21  1  0  0  0  0
 13 14  1  0  0  0  0
 13 18  1  0  0  0  0
 14 15  1  0  0  0  0
 14 19  1  0  0  0  0
 15 16  1  0  0  0  0
 15 20  1  0  0  0  0
 16 17  1  0  0  0  0
 16 21  1  0  0  0  0
 17 22  1  0  0  0  0
A    1
C1A
A    2
C2A
A    3
C3A
A    4
C4A
A    5
C5A
A    6
C6A
A    7
O2A
A    8
O3A
A    9
O4A
A   10
O5A
A   11
O6A
A   12
C1B
A   13
C2B
A   14
C3B
A   15
C4B
A   16
C5B
A   17
C6B
A   18
O2B
A   19
O3B
A   20
O4B
A   21
O5B
A   22
O6B
A   23
O1A
M  END
>  <InstanceId>
4PFT_MAB_A_601

>  <ChemCompId>
MAB

>  <PdbId>
4PFT

>  <ChainId>
A

>  <ResidueNumber>
601

>  <InsertionCode>


>  <Model>
1

>  <AltIds>


>  <MissingHeavyAtoms>
0

>  <ObservedFormula>
C12 O11

>  <Name>
MANNOBIOSE

>  <SystematicName>
(2R,3S,4R,5S,6R)-6-(hydroxymethyl)-5-[(2S,3S,4S,5S,6R)-3,4,5-trihydroxy-6-(hydroxymethyl)oxan-2-yl]oxy-oxane-2,3,4-triol

>  <Synonyms>


>  <Type>
SACCHARIDE

>  <Formula>
C12 H22 O11

>  <MolecularWeight>
342.296

>  <ModifiedDate>
2011-06-04

>  <Parent>


>  <OneLetterCode>


>  <SubcomponentList>


>  <AmbiguousFlag>
N

>  <InChI>
InChI=1S/C12H22O11/c13-1-3-5(15)6(16)9(19)12(22-3)23-10-4(2-14)21-11(20)8(18)7(10)17/h3-20H,1-2H2/t3-,4-,5-,6+,7-,8+,9+,10-,11-,12+/m1/s1

>  <InChIKey>
GUBGYTABKSRVRQ-PZPXDAEZSA-N

>  <SMILES>
C([C@@H]1[C@H]([C@@H]([C@@H]([C@@H](O1)O[C@@H]2[C@H](O[C@H]([C@H]([C@H]2O)O)O)CO)O)O)O)O

$$$$
