1HDQ_INF_A_1308


 20 20  0  0  0  0  0  0  0  0999 V2000
   -1.1410   31.6143   -5.7287 C   0  0  0  0  0  0  0  0  0  0  0  0
   -2.0949   30.5544   -5.3740 N   0  0  0  0  0  0  0  0  0  0  0  0
   -2.1228   29.9308   -4.1799 C   0  0  0  0  0  0  0  0  0  0  0  0
   -3.0910   29.0073   -4.0989 N   0  0  0  0  0  0  0  0  0  0  0  0
   -1.3578   30.1712   -3.2541 O   0  0  0  0  0  0  0  0  0  0  0  0
   -3.9456   28.7820   -5.1920 O   0  0  0  0  0  0  0  0  0  0  0  0
   -2.7554   30.2828   -6.0516 H   0  0  0  0  0  0  0  0  0  0  0  0
   -3.2039   28.4854   -3.2718 H   0  0  0  0  0  0  0  0  0  0  0  0
   -3.7014   29.3738   -5.9207 H   0  0  0  0  0  0  0  0  0  0  0  0
    0.0469   30.9784   -6.4912 C   0  0  0  0  0  0  0  0  0  0  0  0
    0.0394   29.8702   -6.9242 O   0  0  0  0  0  0  0  0  0  0  0  0
    1.1070   31.7972   -6.6086 O   0  0  0  0  0  0  0  0  0  0  0  0
    1.0715   32.6634   -6.2530 H   0  0  0  0  0  0  0  0  0  0  0  0
   -1.8255   32.7206   -6.5991 C   0  0  0  0  0  0  0  0  0  0  0  0
   -2.0122   32.4144   -8.0823 C   0  0  0  0  0  0  0  0  0  0  0  0
   -1.1893   33.0614   -9.0541 C   0  0  0  0  0  0  0  0  0  0  0  0
   -2.9950   31.4903   -8.5353 C   0  0  0  0  0  0  0  0  0  0  0  0
   -1.3420   32.7913  -10.4344 C   0  0  0  0  0  0  0  0  0  0  0  0
   -3.1499   31.2175   -9.9195 C   0  0  0  0  0  0  0  0  0  0  0  0
   -2.3224   31.8668  -10.8707 C   0  0  0  0  0  0  0  0  0  0  0  0
  2  1  1  0  0  0
  2  3  1  0  0  0
  1 10  1  0  0  0
  1 14  1  0  0  0
 10 11  2  0  0  0
 10 12  1  0  0  0
 14 15  1  0  0  0
 15 16  2  0  0  0
 15 17  1  0  0  0
 16 18  1  0  0  0
 17 19  2  0  0  0
 18 20  2  0  0  0
 19 20  1  0  0  0
  3  4  1  0  0  0
  3  5  2  0  0  0
  4  6  1  0  0  0
  2  7  1  0  0  0
 12 13  1  0  0  0
  4  8  1  0  0  0
  6  9  1  0  0  0
M  END
> <minimizedAffinity>
-7.49250

$$$$
1HDQ_INF_A_1308


 20 20  0  0  0  0  0  0  0  0999 V2000
   -2.4651   30.4898   -5.7918 C   0  0  0  0  0  0  0  0  0  0  0  0
   -3.5659   31.4624   -5.8316 N   0  0  0  0  0  0  0  0  0  0  0  0
   -3.9650   32.1963   -4.7744 C   0  0  0  0  0  0  0  0  0  0  0  0
   -4.9835   33.0172   -5.0670 N   0  0  0  0  0  0  0  0  0  0  0  0
   -3.4609   32.1377   -3.6597 O   0  0  0  0  0  0  0  0  0  0  0  0
   -5.5149   33.0477   -6.3680 O   0  0  0  0  0  0  0  0  0  0  0  0
   -4.0419   31.5856   -6.6845 H   0  0  0  0  0  0  0  0  0  0  0  0
   -5.3604   33.6002   -4.3690 H   0  0  0  0  0  0  0  0  0  0  0  0
   -5.0343   32.4185   -6.9284 H   0  0  0  0  0  0  0  0  0  0  0  0
   -2.8656   29.3247   -4.8543 C   0  0  0  0  0  0  0  0  0  0  0  0
   -2.2056   28.9567   -3.9353 O   0  0  0  0  0  0  0  0  0  0  0  0
   -4.0348   28.7493   -5.1857 O   0  0  0  0  0  0  0  0  0  0  0  0
   -4.5240   29.0701   -5.9177 H   0  0  0  0  0  0  0  0  0  0  0  0
   -2.1336   29.9548   -7.2250 C   0  0  0  0  0  0  0  0  0  0  0  0
   -1.8864   30.9979   -8.3109 C   0  0  0  0  0  0  0  0  0  0  0  0
   -2.6639   30.9794   -9.5090 C   0  0  0  0  0  0  0  0  0  0  0  0
   -0.8909   32.0043   -8.1658 C   0  0  0  0  0  0  0  0  0  0  0  0
   -2.4548   31.9380  -10.5283 C   0  0  0  0  0  0  0  0  0  0  0  0
   -0.6794   32.9671   -9.1869 C   0  0  0  0  0  0  0  0  0  0  0  0
   -1.4623   32.9359  -10.3689 C   0  0  0  0  0  0  0  0  0  0  0  0
  2  1  1  0  0  0
  2  3  1  0  0  0
  1 10  1  0  0  0
  1 14  1  0  0  0
 10 11  2  0  0  0
 10 12  1  0  0  0
 14 15  1  0  0  0
 15 16  2  0  0  0
 15 17  1  0  0  0
 16 18  1  0  0  0
 17 19  2  0  0  0
 18 20  2  0  0  0
 19 20  1  0  0  0
  3  4  1  0  0  0
  3  5  2  0  0  0
  4  6  1  0  0  0
  2  7  1  0  0  0
 12 13  1  0  0  0
  4  8  1  0  0  0
  6  9  1  0  0  0
M  END
> <minimizedAffinity>
-7.24027

$$$$
1HDQ_INF_A_1308


 20 20  0  0  0  0  0  0  0  0999 V2000
   -1.2667   30.8605   -7.1079 C   0  0  0  0  0  0  0  0  0  0  0  0
   -2.3041   30.2369   -6.2747 N   0  0  0  0  0  0  0  0  0  0  0  0
   -3.1469   30.9223   -5.4776 C   0  0  0  0  0  0  0  0  0  0  0  0
   -4.0073   30.1272   -4.8260 N   0  0  0  0  0  0  0  0  0  0  0  0
   -3.1461   32.1406   -5.3523 O   0  0  0  0  0  0  0  0  0  0  0  0
   -3.9667   28.7352   -5.0176 O   0  0  0  0  0  0  0  0  0  0  0  0
   -2.3886   29.2564   -6.3005 H   0  0  0  0  0  0  0  0  0  0  0  0
   -4.6692   30.5192   -4.2117 H   0  0  0  0  0  0  0  0  0  0  0  0
   -3.2631   28.5160   -5.6483 H   0  0  0  0  0  0  0  0  0  0  0  0
   -0.0387   31.1753   -6.2192 C   0  0  0  0  0  0  0  0  0  0  0  0
    0.9385   30.4982   -6.1752 O   0  0  0  0  0  0  0  0  0  0  0  0
   -0.1845   32.2897   -5.4810 O   0  0  0  0  0  0  0  0  0  0  0  0
   -0.9710   32.7950   -5.5456 H   0  0  0  0  0  0  0  0  0  0  0  0
   -0.8614   29.9263   -8.2966 C   0  0  0  0  0  0  0  0  0  0  0  0
   -1.5641   30.1623   -9.6304 C   0  0  0  0  0  0  0  0  0  0  0  0
   -0.8148   30.6014  -10.7644 C   0  0  0  0  0  0  0  0  0  0  0  0
   -2.9637   29.9552   -9.7832 C   0  0  0  0  0  0  0  0  0  0  0  0
   -1.4439   30.8239  -12.0119 C   0  0  0  0  0  0  0  0  0  0  0  0
   -3.5970   30.1776  -11.0338 C   0  0  0  0  0  0  0  0  0  0  0  0
   -2.8374   30.6109  -12.1501 C   0  0  0  0  0  0  0  0  0  0  0  0
  2  1  1  0  0  0
  2  3  1  0  0  0
  1 10  1  0  0  0
  1 14  1  0  0  0
 10 11  2  0  0  0
 10 12  1  0  0  0
 14 15  1  0  0  0
 15 16  2  0  0  0
 15 17  1  0  0  0
 16 18  1  0  0  0
 17 19  2  0  0  0
 18 20  2  0  0  0
 19 20  1  0  0  0
  3  4  1  0  0  0
  3  5  2  0  0  0
  4  6  1  0  0  0
  2  7  1  0  0  0
 12 13  1  0  0  0
  4  8  1  0  0  0
  6  9  1  0  0  0
M  END
> <minimizedAffinity>
-7.09820

$$$$
1HDQ_INF_A_1308


 20 20  0  0  0  0  0  0  0  0999 V2000
   -3.2867   31.5483   -5.7463 C   0  0  0  0  0  0  0  0  0  0  0  0
   -2.6479   30.7849   -4.6653 N   0  0  0  0  0  0  0  0  0  0  0  0
   -2.8400   29.4682   -4.4537 C   0  0  0  0  0  0  0  0  0  0  0  0
   -2.1388   29.0021   -3.4106 N   0  0  0  0  0  0  0  0  0  0  0  0
   -3.5686   28.7558   -5.1333 O   0  0  0  0  0  0  0  0  0  0  0  0
   -1.3109   29.8663   -2.6732 O   0  0  0  0  0  0  0  0  0  0  0  0
   -2.0413   31.2660   -4.0572 H   0  0  0  0  0  0  0  0  0  0  0  0
   -2.2039   28.0522   -3.1603 H   0  0  0  0  0  0  0  0  0  0  0  0
   -1.3607   30.7596   -3.0479 H   0  0  0  0  0  0  0  0  0  0  0  0
   -4.4288   32.4021   -5.1433 C   0  0  0  0  0  0  0  0  0  0  0  0
   -5.2086   33.0208   -5.7950 O   0  0  0  0  0  0  0  0  0  0  0  0
   -4.4511   32.3926   -3.7989 O   0  0  0  0  0  0  0  0  0  0  0  0
   -3.8182   31.8913   -3.3234 H   0  0  0  0  0  0  0  0  0  0  0  0
   -2.2484   32.4587   -6.4832 C   0  0  0  0  0  0  0  0  0  0  0  0
   -2.1689   32.3256   -8.0012 C   0  0  0  0  0  0  0  0  0  0  0  0
   -1.2173   33.0963   -8.7367 C   0  0  0  0  0  0  0  0  0  0  0  0
   -3.0254   31.4444   -8.7188 C   0  0  0  0  0  0  0  0  0  0  0  0
   -1.1230   32.9875  -10.1441 C   0  0  0  0  0  0  0  0  0  0  0  0
   -2.9325   31.3334  -10.1307 C   0  0  0  0  0  0  0  0  0  0  0  0
   -1.9801   32.1040  -10.8449 C   0  0  0  0  0  0  0  0  0  0  0  0
  2  1  1  0  0  0
  2  3  1  0  0  0
  1 10  1  0  0  0
  1 14  1  0  0  0
 10 11  2  0  0  0
 10 12  1  0  0  0
 14 15  1  0  0  0
 15 16  2  0  0  0
 15 17  1  0  0  0
 16 18  1  0  0  0
 17 19  2  0  0  0
 18 20  2  0  0  0
 19 20  1  0  0  0
  3  4  1  0  0  0
  3  5  2  0  0  0
  4  6  1  0  0  0
  2  7  1  0  0  0
 12 13  1  0  0  0
  4  8  1  0  0  0
  6  9  1  0  0  0
M  END
> <minimizedAffinity>
-6.93144

$$$$
1HDQ_INF_A_1308


 20 20  0  0  0  0  0  0  0  0999 V2000
   -1.8658   30.4805   -6.6313 C   0  0  0  0  0  0  0  0  0  0  0  0
   -1.9949   29.8343   -5.3179 N   0  0  0  0  0  0  0  0  0  0  0  0
   -3.0834   29.9336   -4.5301 C   0  0  0  0  0  0  0  0  0  0  0  0
   -2.9605   29.2466   -3.3856 N   0  0  0  0  0  0  0  0  0  0  0  0
   -4.0885   30.5735   -4.8136 O   0  0  0  0  0  0  0  0  0  0  0  0
   -1.7857   28.5221   -3.1192 O   0  0  0  0  0  0  0  0  0  0  0  0
   -1.2382   29.2948   -4.9930 H   0  0  0  0  0  0  0  0  0  0  0  0
   -3.6949   29.2494   -2.7299 H   0  0  0  0  0  0  0  0  0  0  0  0
   -1.1682   28.6236   -3.8604 H   0  0  0  0  0  0  0  0  0  0  0  0
   -0.4746   31.1543   -6.7186 C   0  0  0  0  0  0  0  0  0  0  0  0
   -0.3127   32.3201   -6.8925 O   0  0  0  0  0  0  0  0  0  0  0  0
    0.5473   30.2894   -6.5931 O   0  0  0  0  0  0  0  0  0  0  0  0
    0.3760   29.3783   -6.4571 H   0  0  0  0  0  0  0  0  0  0  0  0
   -2.0496   29.4441   -7.7898 C   0  0  0  0  0  0  0  0  0  0  0  0
   -2.0055   29.9873   -9.2151 C   0  0  0  0  0  0  0  0  0  0  0  0
   -3.2041   30.4462   -9.8419 C   0  0  0  0  0  0  0  0  0  0  0  0
   -0.7893   30.0528   -9.9512 C   0  0  0  0  0  0  0  0  0  0  0  0
   -3.1873   30.9567  -11.1612 C   0  0  0  0  0  0  0  0  0  0  0  0
   -0.7699   30.5647  -11.2748 C   0  0  0  0  0  0  0  0  0  0  0  0
   -1.9689   31.0187  -11.8809 C   0  0  0  0  0  0  0  0  0  0  0  0
  2  1  1  0  0  0
  2  3  1  0  0  0
  1 10  1  0  0  0
  1 14  1  0  0  0
 10 11  2  0  0  0
 10 12  1  0  0  0
 14 15  1  0  0  0
 15 16  2  0  0  0
 15 17  1  0  0  0
 16 18  1  0  0  0
 17 19  2  0  0  0
 18 20  2  0  0  0
 19 20  1  0  0  0
  3  4  1  0  0  0
  3  5  2  0  0  0
  4  6  1  0  0  0
  2  7  1  0  0  0
 12 13  1  0  0  0
  4  8  1  0  0  0
  6  9  1  0  0  0
M  END
> <minimizedAffinity>
-6.82292

$$$$
1HDQ_INF_A_1308


 20 20  0  0  0  0  0  0  0  0999 V2000
   -1.0495   31.6237   -5.5497 C   0  0  0  0  0  0  0  0  0  0  0  0
   -2.1848   30.7227   -5.3079 N   0  0  0  0  0  0  0  0  0  0  0  0
   -3.3487   31.1064   -4.7479 C   0  0  0  0  0  0  0  0  0  0  0  0
   -4.2302   30.1020   -4.6424 N   0  0  0  0  0  0  0  0  0  0  0  0
   -3.5957   32.2462   -4.3739 O   0  0  0  0  0  0  0  0  0  0  0  0
   -3.8934   28.8157   -5.0985 O   0  0  0  0  0  0  0  0  0  0  0  0
   -2.0890   29.7790   -5.5716 H   0  0  0  0  0  0  0  0  0  0  0  0
   -5.1157   30.2656   -4.2445 H   0  0  0  0  0  0  0  0  0  0  0  0
   -2.9930   28.8260   -5.4591 H   0  0  0  0  0  0  0  0  0  0  0  0
   -0.2580   31.7905   -4.2296 C   0  0  0  0  0  0  0  0  0  0  0  0
    0.0210   30.8884   -3.5058 O   0  0  0  0  0  0  0  0  0  0  0  0
    0.0772   33.0654   -3.9645 O   0  0  0  0  0  0  0  0  0  0  0  0
   -0.1621   33.7466   -4.5617 H   0  0  0  0  0  0  0  0  0  0  0  0
   -0.1217   31.0699   -6.6822 C   0  0  0  0  0  0  0  0  0  0  0  0
   -0.5198   31.3918   -8.1197 C   0  0  0  0  0  0  0  0  0  0  0  0
   -0.9779   32.7019   -8.4574 C   0  0  0  0  0  0  0  0  0  0  0  0
   -0.4478   30.4136   -9.1506 C   0  0  0  0  0  0  0  0  0  0  0  0
   -1.3496   33.0246   -9.7837 C   0  0  0  0  0  0  0  0  0  0  0  0
   -0.8199   30.7350  -10.4820 C   0  0  0  0  0  0  0  0  0  0  0  0
   -1.2700   32.0416  -10.8004 C   0  0  0  0  0  0  0  0  0  0  0  0
  2  1  1  0  0  0
  2  3  1  0  0  0
  1 10  1  0  0  0
  1 14  1  0  0  0
 10 11  2  0  0  0
 10 12  1  0  0  0
 14 15  1  0  0  0
 15 16  2  0  0  0
 15 17  1  0  0  0
 16 18  1  0  0  0
 17 19  2  0  0  0
 18 20  2  0  0  0
 19 20  1  0  0  0
  3  4  1  0  0  0
  3  5  2  0  0  0
  4  6  1  0  0  0
  2  7  1  0  0  0
 12 13  1  0  0  0
  4  8  1  0  0  0
  6  9  1  0  0  0
M  END
> <minimizedAffinity>
-6.81326

$$$$
1HDQ_INF_A_1308


 20 20  0  0  0  0  0  0  0  0999 V2000
   -2.0354   31.2552   -6.9946 C   0  0  0  0  0  0  0  0  0  0  0  0
   -3.0927   31.2499   -5.9741 N   0  0  0  0  0  0  0  0  0  0  0  0
   -3.9440   32.2725   -5.7620 C   0  0  0  0  0  0  0  0  0  0  0  0
   -4.8225   32.0219   -4.7809 N   0  0  0  0  0  0  0  0  0  0  0  0
   -3.9354   33.3237   -6.3905 O   0  0  0  0  0  0  0  0  0  0  0  0
   -4.7901   30.7921   -4.1008 O   0  0  0  0  0  0  0  0  0  0  0  0
   -3.1849   30.4485   -5.4097 H   0  0  0  0  0  0  0  0  0  0  0  0
   -5.4921   32.7008   -4.5362 H   0  0  0  0  0  0  0  0  0  0  0  0
   -4.0771   30.2420   -4.4613 H   0  0  0  0  0  0  0  0  0  0  0  0
   -0.6638   31.3818   -6.2877 C   0  0  0  0  0  0  0  0  0  0  0  0
   -0.4460   30.9842   -5.1877 O   0  0  0  0  0  0  0  0  0  0  0  0
    0.2669   32.0026   -7.0336 O   0  0  0  0  0  0  0  0  0  0  0  0
    0.0539   32.3005   -7.8961 H   0  0  0  0  0  0  0  0  0  0  0  0
   -2.0878   29.9569   -7.8672 C   0  0  0  0  0  0  0  0  0  0  0  0
   -2.0312   30.1401   -9.3811 C   0  0  0  0  0  0  0  0  0  0  0  0
   -3.2323   30.0861  -10.1522 C   0  0  0  0  0  0  0  0  0  0  0  0
   -0.8011   30.3672  -10.0596 C   0  0  0  0  0  0  0  0  0  0  0  0
   -3.2051   30.2563  -11.5565 C   0  0  0  0  0  0  0  0  0  0  0  0
   -0.7713   30.5383  -11.4682 C   0  0  0  0  0  0  0  0  0  0  0  0
   -1.9737   30.4845  -12.2182 C   0  0  0  0  0  0  0  0  0  0  0  0
  2  1  1  0  0  0
  2  3  1  0  0  0
  1 10  1  0  0  0
  1 14  1  0  0  0
 10 11  2  0  0  0
 10 12  1  0  0  0
 14 15  1  0  0  0
 15 16  2  0  0  0
 15 17  1  0  0  0
 16 18  1  0  0  0
 17 19  2  0  0  0
 18 20  2  0  0  0
 19 20  1  0  0  0
  3  4  1  0  0  0
  3  5  2  0  0  0
  4  6  1  0  0  0
  2  7  1  0  0  0
 12 13  1  0  0  0
  4  8  1  0  0  0
  6  9  1  0  0  0
M  END
> <minimizedAffinity>
-6.80721

$$$$
1HDQ_INF_A_1308


 20 20  0  0  0  0  0  0  0  0999 V2000
   -2.9365   32.0206   -7.0596 C   0  0  0  0  0  0  0  0  0  0  0  0
   -3.1789   30.7931   -6.2890 N   0  0  0  0  0  0  0  0  0  0  0  0
   -2.2510   30.1845   -5.5248 C   0  0  0  0  0  0  0  0  0  0  0  0
   -2.7193   29.0858   -4.9158 N   0  0  0  0  0  0  0  0  0  0  0  0
   -1.1003   30.5797   -5.3847 O   0  0  0  0  0  0  0  0  0  0  0  0
   -4.0533   28.6864   -5.1071 O   0  0  0  0  0  0  0  0  0  0  0  0
   -4.0759   30.3899   -6.3341 H   0  0  0  0  0  0  0  0  0  0  0  0
   -2.1273   28.5574   -4.3330 H   0  0  0  0  0  0  0  0  0  0  0  0
   -4.4952   29.3103   -5.7040 H   0  0  0  0  0  0  0  0  0  0  0  0
   -2.7780   33.2030   -6.0728 C   0  0  0  0  0  0  0  0  0  0  0  0
   -3.6926   33.8057   -5.6083 O   0  0  0  0  0  0  0  0  0  0  0  0
   -1.4962   33.5005   -5.7961 O   0  0  0  0  0  0  0  0  0  0  0  0
   -0.8050   33.0003   -6.1835 H   0  0  0  0  0  0  0  0  0  0  0  0
   -1.6634   31.8793   -7.9591 C   0  0  0  0  0  0  0  0  0  0  0  0
   -1.8823   31.4188   -9.3974 C   0  0  0  0  0  0  0  0  0  0  0  0
   -3.2089   31.2700   -9.9054 C   0  0  0  0  0  0  0  0  0  0  0  0
   -0.7901   31.1287  -10.2623 C   0  0  0  0  0  0  0  0  0  0  0  0
   -3.4366   30.8474  -11.2362 C   0  0  0  0  0  0  0  0  0  0  0  0
   -1.0160   30.7048  -11.5978 C   0  0  0  0  0  0  0  0  0  0  0  0
   -2.3398   30.5650  -12.0868 C   0  0  0  0  0  0  0  0  0  0  0  0
  2  1  1  0  0  0
  2  3  1  0  0  0
  1 10  1  0  0  0
  1 14  1  0  0  0
 10 11  2  0  0  0
 10 12  1  0  0  0
 14 15  1  0  0  0
 15 16  2  0  0  0
 15 17  1  0  0  0
 16 18  1  0  0  0
 17 19  2  0  0  0
 18 20  2  0  0  0
 19 20  1  0  0  0
  3  4  1  0  0  0
  3  5  2  0  0  0
  4  6  1  0  0  0
  2  7  1  0  0  0
 12 13  1  0  0  0
  4  8  1  0  0  0
  6  9  1  0  0  0
M  END
> <minimizedAffinity>
-6.75842

$$$$
1HDQ_INF_A_1308


 20 20  0  0  0  0  0  0  0  0999 V2000
   -1.4406   30.5955   -6.8395 C   0  0  0  0  0  0  0  0  0  0  0  0
   -0.7762   31.4801   -5.8724 N   0  0  0  0  0  0  0  0  0  0  0  0
    0.5509   31.4846   -5.6394 C   0  0  0  0  0  0  0  0  0  0  0  0
    0.9132   32.3884   -4.7180 N   0  0  0  0  0  0  0  0  0  0  0  0
    1.3562   30.7533   -6.2022 O   0  0  0  0  0  0  0  0  0  0  0  0
   -0.0556   33.2074   -4.1126 O   0  0  0  0  0  0  0  0  0  0  0  0
   -1.3360   32.1092   -5.3625 H   0  0  0  0  0  0  0  0  0  0  0  0
    1.8603   32.4786   -4.4646 H   0  0  0  0  0  0  0  0  0  0  0  0
   -0.9307   32.9925   -4.4715 H   0  0  0  0  0  0  0  0  0  0  0  0
   -2.1835   29.4805   -6.0637 C   0  0  0  0  0  0  0  0  0  0  0  0
   -2.0136   29.2508   -4.9088 O   0  0  0  0  0  0  0  0  0  0  0  0
   -3.0383   28.7767   -6.8265 O   0  0  0  0  0  0  0  0  0  0  0  0
   -3.1426   28.9905   -7.7328 H   0  0  0  0  0  0  0  0  0  0  0  0
   -2.4372   31.3957   -7.7432 C   0  0  0  0  0  0  0  0  0  0  0  0
   -2.3634   31.1405   -9.2458 C   0  0  0  0  0  0  0  0  0  0  0  0
   -1.1054   30.8599   -9.8615 C   0  0  0  0  0  0  0  0  0  0  0  0
   -3.5258   31.1731  -10.0660 C   0  0  0  0  0  0  0  0  0  0  0  0
   -1.0127   30.6170  -11.2522 C   0  0  0  0  0  0  0  0  0  0  0  0
   -3.4353   30.9296  -11.4613 C   0  0  0  0  0  0  0  0  0  0  0  0
   -2.1786   30.6498  -12.0559 C   0  0  0  0  0  0  0  0  0  0  0  0
  2  1  1  0  0  0
  2  3  1  0  0  0
  1 10  1  0  0  0
  1 14  1  0  0  0
 10 11  2  0  0  0
 10 12  1  0  0  0
 14 15  1  0  0  0
 15 16  2  0  0  0
 15 17  1  0  0  0
 16 18  1  0  0  0
 17 19  2  0  0  0
 18 20  2  0  0  0
 19 20  1  0  0  0
  3  4  1  0  0  0
  3  5  2  0  0  0
  4  6  1  0  0  0
  2  7  1  0  0  0
 12 13  1  0  0  0
  4  8  1  0  0  0
  6  9  1  0  0  0
M  END
> <minimizedAffinity>
-6.72468

$$$$
1HDQ_INF_A_1308


 20 20  0  0  0  0  0  0  0  0999 V2000
   -1.9049   31.1670  -11.8074 C   0  0  0  0  0  0  0  0  0  0  0  0
   -0.6958   30.3667  -11.5690 N   0  0  0  0  0  0  0  0  0  0  0  0
    0.1790   30.0134  -12.5309 C   0  0  0  0  0  0  0  0  0  0  0  0
    1.2052   29.2910  -12.0597 N   0  0  0  0  0  0  0  0  0  0  0  0
    0.0687   30.3145  -13.7130 O   0  0  0  0  0  0  0  0  0  0  0  0
    1.2833   28.9845  -10.6901 O   0  0  0  0  0  0  0  0  0  0  0  0
   -0.5134   30.0699  -10.6482 H   0  0  0  0  0  0  0  0  0  0  0  0
    1.9059   28.9742  -12.6744 H   0  0  0  0  0  0  0  0  0  0  0  0
    0.5210   29.3681  -10.2289 H   0  0  0  0  0  0  0  0  0  0  0  0
   -3.1416   30.2416  -11.7026 C   0  0  0  0  0  0  0  0  0  0  0  0
   -4.2065   30.5037  -12.1638 O   0  0  0  0  0  0  0  0  0  0  0  0
   -2.9040   29.1066  -11.0217 O   0  0  0  0  0  0  0  0  0  0  0  0
   -2.0501   28.9386  -10.6745 H   0  0  0  0  0  0  0  0  0  0  0  0
   -2.0110   32.3465  -10.7839 C   0  0  0  0  0  0  0  0  0  0  0  0
   -1.7367   32.0163   -9.3196 C   0  0  0  0  0  0  0  0  0  0  0  0
   -0.4112   32.1263   -8.7990 C   0  0  0  0  0  0  0  0  0  0  0  0
   -2.7755   31.5961   -8.4424 C   0  0  0  0  0  0  0  0  0  0  0  0
   -0.1333   31.8286   -7.4441 C   0  0  0  0  0  0  0  0  0  0  0  0
   -2.4991   31.2970   -7.0828 C   0  0  0  0  0  0  0  0  0  0  0  0
   -1.1777   31.4143   -6.5816 C   0  0  0  0  0  0  0  0  0  0  0  0
  2  1  1  0  0  0
  2  3  1  0  0  0
  1 10  1  0  0  0
  1 14  1  0  0  0
 10 11  2  0  0  0
 10 12  1  0  0  0
 14 15  1  0  0  0
 15 16  2  0  0  0
 15 17  1  0  0  0
 16 18  1  0  0  0
 17 19  2  0  0  0
 18 20  2  0  0  0
 19 20  1  0  0  0
  3  4  1  0  0  0
  3  5  2  0  0  0
  4  6  1  0  0  0
  2  7  1  0  0  0
 12 13  1  0  0  0
  4  8  1  0  0  0
  6  9  1  0  0  0
M  END
> <minimizedAffinity>
-6.59477

$$$$
