3EL1_DR7_A_100
  RCSB PDB12061708283D
Coordinates from PDB:3EL1:A:100 Model:1 without hydrogens
 51 53  0  0  0  0            999 V2000
   21.4750   24.0530    8.9880   C 0  0  0  0  0  0  0  0  0  0  0  0
   21.1020   25.3620    9.4340   O 0  0  0  0  0  0  0  0  0  0  0  0
   21.6540   25.9040   10.6610   C 0  0  0  0  0  0  0  0  0  0  0  0
   21.8660   25.1620   11.6120   O 0  0  0  0  0  0  0  0  0  0  0  0
   21.8790   27.2110   10.5900   N 0  0  0  0  0  0  0  0  0  0  0  0
   22.4320   28.1380   11.5540   C 0  0  0  0  0  0  0  0  0  0  0  0
   23.9300   28.2660   11.7700   C 0  0  0  0  0  0  0  0  0  0  0  0
   24.4310   29.2030   10.6690   C 0  0  0  0  0  0  0  0  0  0  0  0
   24.6550   26.9290   11.6700   C 0  0  0  0  0  0  0  0  0  0  0  0
   24.2500   28.9120   13.1160   C 0  0  0  0  0  0  0  0  0  0  0  0
   21.4950   29.1090   12.2540   C 0  0  0  0  0  0  0  0  0  0  0  0
   21.3450   30.2100   11.7620   O 0  0  0  0  0  0  0  0  0  0  0  0
   20.8200   28.6540   13.3250   N 0  0  0  0  0  0  0  0  0  0  0  0
   19.6970   29.3480   13.9410   C 0  0  0  0  0  0  0  0  0  0  0  0
   18.4470   28.4750   13.8000   C 0  0  0  0  0  0  0  0  0  0  0  0
   18.1730   28.1730   12.3410   C 0  0  0  0  0  0  0  0  0  0  0  0
   18.5630   26.9530   11.7940   C 0  0  0  0  0  0  0  0  0  0  0  0
   18.3150   26.6700   10.4520   C 0  0  0  0  0  0  0  0  0  0  0  0
   17.6650   27.6040    9.6530   C 0  0  0  0  0  0  0  0  0  0  0  0
   17.2720   28.8230   10.1950   C 0  0  0  0  0  0  0  0  0  0  0  0
   17.5190   29.1060   11.5380   C 0  0  0  0  0  0  0  0  0  0  0  0
   19.9610   29.6870   15.4110   C 0  0  0  0  0  0  0  0  0  0  0  0
   20.2070   28.4870   16.1560   O 0  0  0  0  0  0  0  0  0  0  0  0
   21.1580   30.5960   15.6350   C 0  0  0  0  0  0  0  0  0  0  0  0
   20.9710   31.9840   15.1870   N 0  0  0  0  0  0  0  0  0  0  0  0
   19.9490   32.6100   15.9460   N 0  0  0  0  0  0  0  0  0  0  0  0
   18.9190   33.2460   15.3720   C 0  0  0  0  0  0  0  0  0  0  0  0
   18.7720   33.3410   14.1660   O 0  0  0  0  0  0  0  0  0  0  0  0
   17.9580   33.9140   16.3200   C 0  0  0  0  0  0  0  0  0  0  0  0
   16.5160   33.9850   15.8090   C 0  0  0  0  0  0  0  0  0  0  0  0
   16.3870   34.8830   14.5860   C 0  0  0  0  0  0  0  0  0  0  0  0
   16.0200   32.5850   15.4520   C 0  0  0  0  0  0  0  0  0  0  0  0
   15.6310   34.5710   16.9140   C 0  0  0  0  0  0  0  0  0  0  0  0
   18.4860   35.2380   16.5560   N 0  0  0  0  0  0  0  0  0  0  0  0
   18.5690   35.8170   17.7480   C 0  0  0  0  0  0  0  0  0  0  0  0
   18.1830   35.3140   18.8020   O 0  0  0  0  0  0  0  0  0  0  0  0
   19.1720   37.1370   17.7390   O 0  0  0  0  0  0  0  0  0  0  0  0
   19.6090   37.7430   18.9590   C 0  0  0  0  0  0  0  0  0  0  0  0
   22.2880   32.6520   15.3510   C 0  0  0  0  0  0  0  0  0  0  0  0
   22.2310   34.1030   15.7800   C 0  0  0  0  0  0  0  0  0  0  0  0
   22.1840   35.1100   14.8210   C 0  0  0  0  0  0  0  0  0  0  0  0
   22.1480   36.4470   15.2070   C 0  0  0  0  0  0  0  0  0  0  0  0
   22.2600   34.4410   17.1290   C 0  0  0  0  0  0  0  0  0  0  0  0
   22.2210   35.7770   17.5170   C 0  0  0  0  0  0  0  0  0  0  0  0
   22.1610   36.7870   16.5570   C 0  0  0  0  0  0  0  0  0  0  0  0
   22.1340   38.2140   16.9910   C 0  0  0  0  0  0  0  0  0  0  0  0
   21.3560   39.1580   16.3270   C 0  0  0  0  0  0  0  0  0  0  0  0
   21.3680   40.4780   16.7660   C 0  0  0  0  0  0  0  0  0  0  0  0
   22.1510   40.8260   17.8610   C 0  0  0  0  0  0  0  0  0  0  0  0
   22.9130   39.8500   18.4980   C 0  0  0  0  0  0  0  0  0  0  0  0
   22.8900   38.5860   18.0540   N 0  0  0  0  0  0  0  0  0  0  0  0
  1  2  1  0  0  0  0
  2  3  1  0  0  0  0
  3  4  2  0  0  0  0
  3  5  1  0  0  0  0
  5  6  1  0  0  0  0
  6  7  1  0  0  0  0
  6 11  1  0  0  0  0
  7  8  1  0  0  0  0
  7  9  1  0  0  0  0
  7 10  1  0  0  0  0
 11 12  2  0  0  0  0
 11 13  1  0  0  0  0
 13 14  1  0  0  0  0
 14 15  1  0  0  0  0
 14 22  1  0  0  0  0
 15 16  1  0  0  0  0
 16 17  2  0  0  0  0
 16 21  1  0  0  0  0
 17 18  1  0  0  0  0
 18 19  2  0  0  0  0
 19 20  1  0  0  0  0
 20 21  2  0  0  0  0
 22 23  1  0  0  0  0
 22 24  1  0  0  0  0
 24 25  1  0  0  0  0
 25 26  1  0  0  0  0
 25 39  1  0  0  0  0
 26 27  1  0  0  0  0
 27 28  2  0  0  0  0
 27 29  1  0  0  0  0
 29 30  1  0  0  0  0
 29 34  1  0  0  0  0
 30 31  1  0  0  0  0
 30 32  1  0  0  0  0
 30 33  1  0  0  0  0
 34 35  1  0  0  0  0
 35 36  2  0  0  0  0
 35 37  1  0  0  0  0
 37 38  1  0  0  0  0
 39 40  1  0  0  0  0
 40 41  1  0  0  0  0
 40 43  2  0  0  0  0
 41 42  2  0  0  0  0
 42 45  1  0  0  0  0
 43 44  1  0  0  0  0
 44 45  2  0  0  0  0
 45 46  1  0  0  0  0
 46 47  1  0  0  0  0
 46 51  2  0  0  0  0
 47 48  2  0  0  0  0
 48 49  1  0  0  0  0
 49 50  2  0  0  0  0
 50 51  1  0  0  0  0
A    1
CAA
A    2
OBI
A    3
CBK
A    4
OAI
A    5
N
A    6
CA
A    7
CB
A    8
CAE
A    9
CG2
A   10
CG1
A   11
C
A   12
O
A   13
NBG
A   14
CBT
A   15
CBA
A   16
CBO
A   17
CAT
A   18
CAP
A   19
CAN
A   20
CAQ
A   21
CAU
A   22
CBS
A   23
OAM
A   24
CBC
A   25
NBW
A   26
NBH
A   27
CBN
A   28
OAL
A   29
CBV
A   30
CBY
A   31
CAH
A   32
CAF
A   33
CAG
A   34
NBF
A   35
CBL
A   36
OAJ
A   37
OBJ
A   38
CAB
A   39
CBB
A   40
CBP
A   41
CAW
A   42
CAY
A   43
CAX
A   44
CAZ
A   45
CBQ
A   46
CBR
A   47
CAV
A   48
CAR
A   49
CAO
A   50
CAS
A   51
NBD
M  END
>  <InstanceId>
3EL1_DR7_A_100

>  <ChemCompId>
DR7

>  <PdbId>
3EL1

>  <ChainId>
A

>  <ResidueNumber>
100

>  <InsertionCode>


>  <Model>
1

>  <AltIds>


>  <MissingHeavyAtoms>
0

>  <ObservedFormula>
C38 N6 O7

>  <Name>
(3S,8S,9S,12S)-3,12-BIS(1,1-DIMETHYLETHYL)-8-HYDROXY-4,11-DIOXO-9-(PHENYLMETHYL)-6-[[4-(2-PYRIDINYL)PHENYL]METHYL]-2,5,6,10,13-PENTAAZATETRADECANEDIOIC ACID DIMETHYL ESTER

>  <SystematicName>
methyl N-[(2S)-1-[[(2S,3S)-3-hydroxy-4-[[[(2S)-2-(methoxycarbonylamino)-3,3-dimethyl-butanoyl]amino]-[(4-pyridin-2-ylphenyl)methyl]amino]-1-phenyl-butan-2-yl]amino]-3,3-dimethyl-1-oxo-butan-2-yl]carbamate

>  <Synonyms>
ATAZANAVIR; METHYL [(1S,4S,5S,10S)-4-BENZYL-1,10-DI-TERT-BUTYL-5-HYDROXY-2,9,12-TRIOXO-7-(4-PYRIDIN-2-YLBENZYL)-13-OXA-3,7,8,11-TETRAAZATETRADEC-1-YL]CARBAMATE

>  <Type>
NON-POLYMER

>  <Formula>
C38 H52 N6 O7

>  <MolecularWeight>
704.855

>  <ModifiedDate>
2011-06-04

>  <Parent>


>  <OneLetterCode>


>  <SubcomponentList>


>  <AmbiguousFlag>
N

>  <InChI>
InChI=1S/C38H52N6O7/c1-37(2,3)31(41-35(48)50-7)33(46)40-29(22-25-14-10-9-11-15-25)30(45)24-44(43-34(47)32(38(4,5)6)42-36(49)51-8)23-26-17-19-27(20-18-26)28-16-12-13-21-39-28/h9-21,29-32,45H,22-24H2,1-8H3,(H,40,46)(H,41,48)(H,42,49)(H,43,47)/t29-,30-,31+,32+/m0/s1

>  <InChIKey>
AXRYRYVKAWYZBR-GASGPIRDSA-N

>  <SMILES>
CC(C)(C)[C@@H](C(=O)N[C@@H](Cc1ccccc1)[C@H](CN(Cc2ccc(cc2)c3ccccn3)NC(=O)[C@H](C(C)(C)C)NC(=O)OC)O)NC(=O)OC

$$$$
