3EL1_DR7_A_100


 56 58  0  0  0  0  0  0  0  0999 V2000
   19.3501   29.2296   13.4042 N   0  0  0  0  0  0  0  0  0  0  0  0
   20.5519   28.4999   13.2157 N   0  0  0  0  0  0  0  0  0  0  0  0
   21.3809   28.7388   12.1907 C   0  0  0  0  0  0  0  0  0  0  0  0
   21.1782   29.5909   11.3434 O   0  0  0  0  0  0  0  0  0  0  0  0
   20.7850   27.7934   13.8605 H   0  0  0  0  0  0  0  0  0  0  0  0
   22.5786   27.8303   12.0983 C   0  0  0  0  0  0  0  0  0  0  0  0
   22.4321   27.1020   10.8591 N   0  0  0  0  0  0  0  0  0  0  0  0
   22.0125   25.8457   10.7662 C   0  0  0  0  0  0  0  0  0  0  0  0
   21.7200   25.1298   11.7227 O   0  0  0  0  0  0  0  0  0  0  0  0
   22.6598   27.5707   10.0238 H   0  0  0  0  0  0  0  0  0  0  0  0
   21.9096   25.3408    9.4095 O   0  0  0  0  0  0  0  0  0  0  0  0
   23.0828   24.9498    8.6902 C   0  0  0  0  0  0  0  0  0  0  0  0
   23.9258   28.5571   12.1477 C   0  0  0  0  0  0  0  0  0  0  0  0
   23.9552   29.6328   13.2251 C   0  0  0  0  0  0  0  0  0  0  0  0
   25.0486   27.5562   12.4141 C   0  0  0  0  0  0  0  0  0  0  0  0
   24.1651   29.2415   10.7979 C   0  0  0  0  0  0  0  0  0  0  0  0
   19.2091   29.6196   14.8150 C   0  0  0  0  0  0  0  0  0  0  0  0
   20.4935   30.0880   15.4783 C   0  0  0  0  0  0  0  0  0  0  0  0
   20.4423   29.6435   16.8404 O   0  0  0  0  0  0  0  0  0  0  0  0
   19.6784   30.0453   17.2832 H   0  0  0  0  0  0  0  0  0  0  0  0
   20.7092   31.6035   15.4280 C   0  0  0  0  0  0  0  0  0  0  0  0
   18.7360   33.0913   15.2579 C   0  0  0  0  0  0  0  0  0  0  0  0
   18.7222   33.1338   14.0435 O   0  0  0  0  0  0  0  0  0  0  0  0
   19.5821   32.3395   15.9850 N   0  0  0  0  0  0  0  0  0  0  0  0
   19.4297   32.2830   16.9560 H   0  0  0  0  0  0  0  0  0  0  0  0
   17.8064   34.0268   16.0137 C   0  0  0  0  0  0  0  0  0  0  0  0
   18.7008   35.5822   17.7953 C   0  0  0  0  0  0  0  0  0  0  0  0
   18.6547   34.8768   18.7955 O   0  0  0  0  0  0  0  0  0  0  0  0
   18.3471   35.2539   16.5580 N   0  0  0  0  0  0  0  0  0  0  0  0
   18.4751   35.9706   15.8952 H   0  0  0  0  0  0  0  0  0  0  0  0
   18.2507   38.0388   17.9355 C   0  0  0  0  0  0  0  0  0  0  0  0
   19.1782   36.9480   17.8990 O   0  0  0  0  0  0  0  0  0  0  0  0
   16.3179   33.7263   16.0476 C   0  0  0  0  0  0  0  0  0  0  0  0
   15.7030   34.5377   14.9054 C   0  0  0  0  0  0  0  0  0  0  0  0
   15.6667   34.1279   17.3659 C   0  0  0  0  0  0  0  0  0  0  0  0
   16.0369   32.2500   15.7773 C   0  0  0  0  0  0  0  0  0  0  0  0
   21.9757   31.9985   16.1924 C   0  0  0  0  0  0  0  0  0  0  0  0
   22.2048   33.4933   16.1025 C   0  0  0  0  0  0  0  0  0  0  0  0
   22.1745   34.2761   17.2540 C   0  0  0  0  0  0  0  0  0  0  0  0
   22.3831   35.6520   17.1774 C   0  0  0  0  0  0  0  0  0  0  0  0
   22.6338   36.2499   15.9474 C   0  0  0  0  0  0  0  0  0  0  0  0
   22.6668   35.4722   14.7949 C   0  0  0  0  0  0  0  0  0  0  0  0
   22.4593   34.0953   14.8713 C   0  0  0  0  0  0  0  0  0  0  0  0
   18.1433   28.4279   13.0747 C   0  0  0  0  0  0  0  0  0  0  0  0
   18.0619   27.9347   11.6454 C   0  0  0  0  0  0  0  0  0  0  0  0
   18.2926   26.5928   11.3590 C   0  0  0  0  0  0  0  0  0  0  0  0
   18.2359   26.1347   10.0457 C   0  0  0  0  0  0  0  0  0  0  0  0
   17.7914   28.8211   10.6081 C   0  0  0  0  0  0  0  0  0  0  0  0
   17.7312   28.3644    9.2948 C   0  0  0  0  0  0  0  0  0  0  0  0
   17.9497   27.0172    9.0076 C   0  0  0  0  0  0  0  0  0  0  0  0
   17.8950   26.5482    7.5925 C   0  0  0  0  0  0  0  0  0  0  0  0
   18.5930   27.2066    6.5842 C   0  0  0  0  0  0  0  0  0  0  0  0
   18.5065   26.7344    5.2785 C   0  0  0  0  0  0  0  0  0  0  0  0
   17.7306   25.6127    5.0084 C   0  0  0  0  0  0  0  0  0  0  0  0
   17.0500   24.9824    6.0470 C   0  0  0  0  0  0  0  0  0  0  0  0
   17.1437   25.4585    7.2959 N   0  0  0  0  0  0  0  0  0  0  0  0
 31 32  1  0  0  0
 32 27  1  0  0  0
 27 28  2  0  0  0
 27 29  1  0  0  0
 29 26  1  0  0  0
 26 33  1  0  0  0
 26 22  1  0  0  0
 33 34  1  0  0  0
 33 35  1  0  0  0
 33 36  1  0  0  0
 22 23  2  0  0  0
 22 24  1  0  0  0
 24 21  1  0  0  0
 21 37  1  0  0  0
 21 18  1  0  0  0
 37 38  1  0  0  0
 38 39  2  0  0  0
 38 43  1  0  0  0
 39 40  1  0  0  0
 40 41  2  0  0  0
 41 42  1  0  0  0
 42 43  2  0  0  0
 18 19  1  0  0  0
 18 17  1  0  0  0
 17  1  1  0  0  0
  1  2  1  0  0  0
  1 44  1  0  0  0
  2  3  1  0  0  0
  3  4  2  0  0  0
  3  6  1  0  0  0
  6 13  1  0  0  0
  6  7  1  0  0  0
 13 14  1  0  0  0
 13 15  1  0  0  0
 13 16  1  0  0  0
  7  8  1  0  0  0
  8  9  2  0  0  0
  8 11  1  0  0  0
 11 12  1  0  0  0
 44 45  1  0  0  0
 45 46  1  0  0  0
 45 48  2  0  0  0
 46 47  2  0  0  0
 47 50  1  0  0  0
 48 49  1  0  0  0
 49 50  2  0  0  0
 50 51  1  0  0  0
 51 52  1  0  0  0
 51 56  2  0  0  0
 52 53  2  0  0  0
 53 54  1  0  0  0
 54 55  2  0  0  0
 55 56  1  0  0  0
 29 30  1  0  0  0
 24 25  1  0  0  0
 19 20  1  0  0  0
  2  5  1  0  0  0
  7 10  1  0  0  0
M  END
> <minimizedAffinity>
-9.96094

$$$$
3EL1_DR7_A_100


 56 58  0  0  0  0  0  0  0  0999 V2000
   19.9631   29.1975   13.8389 N   0  0  0  0  0  0  0  0  0  0  0  0
   21.0405   28.3805   13.4098 N   0  0  0  0  0  0  0  0  0  0  0  0
   21.7751   28.6744   12.3287 C   0  0  0  0  0  0  0  0  0  0  0  0
   21.5850   29.6544   11.6298 O   0  0  0  0  0  0  0  0  0  0  0  0
   21.2559   27.5693   13.9244 H   0  0  0  0  0  0  0  0  0  0  0  0
   22.8374   27.6682   11.9717 C   0  0  0  0  0  0  0  0  0  0  0  0
   22.4033   27.0497   10.7403 N   0  0  0  0  0  0  0  0  0  0  0  0
   21.9055   25.8224   10.6456 C   0  0  0  0  0  0  0  0  0  0  0  0
   21.7742   25.0427   11.5878 O   0  0  0  0  0  0  0  0  0  0  0  0
   22.4823   27.5759    9.9120 H   0  0  0  0  0  0  0  0  0  0  0  0
   21.5024   25.4344    9.3065 O   0  0  0  0  0  0  0  0  0  0  0  0
   22.4848   25.1912    8.2954 C   0  0  0  0  0  0  0  0  0  0  0  0
   24.2410   28.2614   11.8189 C   0  0  0  0  0  0  0  0  0  0  0  0
   24.5643   29.2561   12.9256 C   0  0  0  0  0  0  0  0  0  0  0  0
   25.2834   27.1448   11.8343 C   0  0  0  0  0  0  0  0  0  0  0  0
   24.3164   29.0083   10.4831 C   0  0  0  0  0  0  0  0  0  0  0  0
   20.1142   29.5300   15.2633 C   0  0  0  0  0  0  0  0  0  0  0  0
   20.3941   30.9959   15.5496 C   0  0  0  0  0  0  0  0  0  0  0  0
   21.4027   31.0338   16.5678 O   0  0  0  0  0  0  0  0  0  0  0  0
   21.0697   30.6003   17.3691 H   0  0  0  0  0  0  0  0  0  0  0  0
   19.1656   31.7934   15.9971 C   0  0  0  0  0  0  0  0  0  0  0  0
   20.2498   34.0080   15.7609 C   0  0  0  0  0  0  0  0  0  0  0  0
   20.5876   33.8534   14.6039 O   0  0  0  0  0  0  0  0  0  0  0  0
   19.5151   33.1280   16.4649 N   0  0  0  0  0  0  0  0  0  0  0  0
   19.1929   33.4037   17.3534 H   0  0  0  0  0  0  0  0  0  0  0  0
   20.7772   35.2274   16.4998 C   0  0  0  0  0  0  0  0  0  0  0  0
   19.0239   36.1072   18.0953 C   0  0  0  0  0  0  0  0  0  0  0  0
   18.9131   35.1802   18.8879 O   0  0  0  0  0  0  0  0  0  0  0  0
   19.8282   36.1768   17.0406 N   0  0  0  0  0  0  0  0  0  0  0  0
   19.7683   37.0218   16.5391 H   0  0  0  0  0  0  0  0  0  0  0  0
   16.7821   37.2147   18.1653 C   0  0  0  0  0  0  0  0  0  0  0  0
   18.2090   37.2959   18.2591 O   0  0  0  0  0  0  0  0  0  0  0  0
   22.2658   35.3391   16.7798 C   0  0  0  0  0  0  0  0  0  0  0  0
   22.6147   34.1392   17.6629 C   0  0  0  0  0  0  0  0  0  0  0  0
   22.6328   36.6287   17.5046 C   0  0  0  0  0  0  0  0  0  0  0  0
   23.0880   35.2315   15.4976 C   0  0  0  0  0  0  0  0  0  0  0  0
   18.1566   31.9259   14.8530 C   0  0  0  0  0  0  0  0  0  0  0  0
   17.0819   32.9330   15.2077 C   0  0  0  0  0  0  0  0  0  0  0  0
   17.0236   34.1565   14.5449 C   0  0  0  0  0  0  0  0  0  0  0  0
   16.0381   35.0876   14.8679 C   0  0  0  0  0  0  0  0  0  0  0  0
   15.0987   34.7935   15.8498 C   0  0  0  0  0  0  0  0  0  0  0  0
   15.1516   33.5724   16.5134 C   0  0  0  0  0  0  0  0  0  0  0  0
   16.1369   32.6401   16.1896 C   0  0  0  0  0  0  0  0  0  0  0  0
   18.6493   28.5155   13.7109 C   0  0  0  0  0  0  0  0  0  0  0  0
   18.3485   27.9370   12.3444 C   0  0  0  0  0  0  0  0  0  0  0  0
   18.3293   26.5577   12.1624 C   0  0  0  0  0  0  0  0  0  0  0  0
   18.0698   26.0181   10.9056 C   0  0  0  0  0  0  0  0  0  0  0  0
   18.1243   28.7757   11.2575 C   0  0  0  0  0  0  0  0  0  0  0  0
   17.8617   28.2382   10.0009 C   0  0  0  0  0  0  0  0  0  0  0  0
   17.8295   26.8556    9.8197 C   0  0  0  0  0  0  0  0  0  0  0  0
   17.5603   26.2974    8.4628 C   0  0  0  0  0  0  0  0  0  0  0  0
   16.7519   25.1779    8.2878 C   0  0  0  0  0  0  0  0  0  0  0  0
   16.5346   24.6913    7.0028 C   0  0  0  0  0  0  0  0  0  0  0  0
   17.1235   25.3354    5.9204 C   0  0  0  0  0  0  0  0  0  0  0  0
   17.9236   26.4538    6.1394 C   0  0  0  0  0  0  0  0  0  0  0  0
   18.1233   26.9012    7.3865 N   0  0  0  0  0  0  0  0  0  0  0  0
 31 32  1  0  0  0
 32 27  1  0  0  0
 27 28  2  0  0  0
 27 29  1  0  0  0
 29 26  1  0  0  0
 26 33  1  0  0  0
 26 22  1  0  0  0
 33 34  1  0  0  0
 33 35  1  0  0  0
 33 36  1  0  0  0
 22 23  2  0  0  0
 22 24  1  0  0  0
 24 21  1  0  0  0
 21 37  1  0  0  0
 21 18  1  0  0  0
 37 38  1  0  0  0
 38 39  2  0  0  0
 38 43  1  0  0  0
 39 40  1  0  0  0
 40 41  2  0  0  0
 41 42  1  0  0  0
 42 43  2  0  0  0
 18 19  1  0  0  0
 18 17  1  0  0  0
 17  1  1  0  0  0
  1  2  1  0  0  0
  1 44  1  0  0  0
  2  3  1  0  0  0
  3  4  2  0  0  0
  3  6  1  0  0  0
  6 13  1  0  0  0
  6  7  1  0  0  0
 13 14  1  0  0  0
 13 15  1  0  0  0
 13 16  1  0  0  0
  7  8  1  0  0  0
  8  9  2  0  0  0
  8 11  1  0  0  0
 11 12  1  0  0  0
 44 45  1  0  0  0
 45 46  1  0  0  0
 45 48  2  0  0  0
 46 47  2  0  0  0
 47 50  1  0  0  0
 48 49  1  0  0  0
 49 50  2  0  0  0
 50 51  1  0  0  0
 51 52  1  0  0  0
 51 56  2  0  0  0
 52 53  2  0  0  0
 53 54  1  0  0  0
 54 55  2  0  0  0
 55 56  1  0  0  0
 29 30  1  0  0  0
 24 25  1  0  0  0
 19 20  1  0  0  0
  2  5  1  0  0  0
  7 10  1  0  0  0
M  END
> <minimizedAffinity>
-9.75854

$$$$
3EL1_DR7_A_100


 56 58  0  0  0  0  0  0  0  0999 V2000
   19.2417   27.9515   12.4012 N   0  0  0  0  0  0  0  0  0  0  0  0
   20.5851   27.4960   12.4190 N   0  0  0  0  0  0  0  0  0  0  0  0
   21.5610   28.1190   11.7449 C   0  0  0  0  0  0  0  0  0  0  0  0
   21.3829   29.1165   11.0678 O   0  0  0  0  0  0  0  0  0  0  0  0
   20.8080   26.6941   12.9449 H   0  0  0  0  0  0  0  0  0  0  0  0
   22.9172   27.4677   11.8149 C   0  0  0  0  0  0  0  0  0  0  0  0
   23.0546   26.7007   10.5983 N   0  0  0  0  0  0  0  0  0  0  0  0
   22.5536   25.4855   10.4105 C   0  0  0  0  0  0  0  0  0  0  0  0
   21.9314   24.8436   11.2554 O   0  0  0  0  0  0  0  0  0  0  0  0
   23.5557   27.1082    9.8553 H   0  0  0  0  0  0  0  0  0  0  0  0
   22.7885   24.9314    9.0899 O   0  0  0  0  0  0  0  0  0  0  0  0
   23.6943   25.5708    8.1858 C   0  0  0  0  0  0  0  0  0  0  0  0
   24.0806   28.4509   11.9742 C   0  0  0  0  0  0  0  0  0  0  0  0
   24.3276   29.2541   10.7043 C   0  0  0  0  0  0  0  0  0  0  0  0
   23.7947   29.4149   13.1241 C   0  0  0  0  0  0  0  0  0  0  0  0
   25.3556   27.6584   12.2808 C   0  0  0  0  0  0  0  0  0  0  0  0
   18.9833   28.8151   13.5629 C   0  0  0  0  0  0  0  0  0  0  0  0
   18.5228   30.2224   13.2213 C   0  0  0  0  0  0  0  0  0  0  0  0
   18.6207   30.3561   11.7972 O   0  0  0  0  0  0  0  0  0  0  0  0
   19.5438   30.2371   11.5239 H   0  0  0  0  0  0  0  0  0  0  0  0
   19.3263   31.3299   13.9094 C   0  0  0  0  0  0  0  0  0  0  0  0
   17.9590   33.1540   14.8783 C   0  0  0  0  0  0  0  0  0  0  0  0
   17.8268   33.7699   13.8390 O   0  0  0  0  0  0  0  0  0  0  0  0
   18.5791   31.9652   14.9866 N   0  0  0  0  0  0  0  0  0  0  0  0
   18.5245   31.4941   15.8493 H   0  0  0  0  0  0  0  0  0  0  0  0
   17.4853   33.8149   16.1627 C   0  0  0  0  0  0  0  0  0  0  0  0
   19.5962   34.9668   16.9443 C   0  0  0  0  0  0  0  0  0  0  0  0
   20.0554   35.3967   15.8935 O   0  0  0  0  0  0  0  0  0  0  0  0
   18.4745   34.2759   17.1131 N   0  0  0  0  0  0  0  0  0  0  0  0
   18.2825   34.0352   18.0483 H   0  0  0  0  0  0  0  0  0  0  0  0
   19.7849   36.0945   19.1691 C   0  0  0  0  0  0  0  0  0  0  0  0
   20.3088   35.1927   18.1873 O   0  0  0  0  0  0  0  0  0  0  0  0
   16.0061   34.1077   16.3448 C   0  0  0  0  0  0  0  0  0  0  0  0
   15.2781   32.8080   15.9954 C   0  0  0  0  0  0  0  0  0  0  0  0
   15.5122   35.2281   15.4371 C   0  0  0  0  0  0  0  0  0  0  0  0
   15.6766   34.4535   17.7951 C   0  0  0  0  0  0  0  0  0  0  0  0
   20.6342   30.7772   14.4825 C   0  0  0  0  0  0  0  0  0  0  0  0
   21.5235   31.9071   14.9593 C   0  0  0  0  0  0  0  0  0  0  0  0
   21.9360   32.8959   14.0694 C   0  0  0  0  0  0  0  0  0  0  0  0
   22.7554   33.9371   14.5019 C   0  0  0  0  0  0  0  0  0  0  0  0
   23.1574   33.9993   15.8315 C   0  0  0  0  0  0  0  0  0  0  0  0
   22.7466   33.0153   16.7244 C   0  0  0  0  0  0  0  0  0  0  0  0
   21.9259   31.9740   16.2922 C   0  0  0  0  0  0  0  0  0  0  0  0
   18.2643   26.8361   12.4901 C   0  0  0  0  0  0  0  0  0  0  0  0
   17.9734   26.1224   11.1867 C   0  0  0  0  0  0  0  0  0  0  0  0
   17.8855   24.7341   11.1590 C   0  0  0  0  0  0  0  0  0  0  0  0
   17.6347   24.0695    9.9618 C   0  0  0  0  0  0  0  0  0  0  0  0
   17.8267   26.8429   10.0059 C   0  0  0  0  0  0  0  0  0  0  0  0
   17.5728   26.1805    8.8085 C   0  0  0  0  0  0  0  0  0  0  0  0
   17.4719   24.7897    8.7816 C   0  0  0  0  0  0  0  0  0  0  0  0
   17.2133   24.0957    7.4866 C   0  0  0  0  0  0  0  0  0  0  0  0
   16.6793   24.7748    6.3953 C   0  0  0  0  0  0  0  0  0  0  0  0
   16.4510   24.0829    5.2102 C   0  0  0  0  0  0  0  0  0  0  0  0
   16.7659   22.7306    5.1379 C   0  0  0  0  0  0  0  0  0  0  0  0
   17.3005   22.0897    6.2526 C   0  0  0  0  0  0  0  0  0  0  0  0
   17.5065   22.7752    7.3853 N   0  0  0  0  0  0  0  0  0  0  0  0
 31 32  1  0  0  0
 32 27  1  0  0  0
 27 28  2  0  0  0
 27 29  1  0  0  0
 29 26  1  0  0  0
 26 33  1  0  0  0
 26 22  1  0  0  0
 33 34  1  0  0  0
 33 35  1  0  0  0
 33 36  1  0  0  0
 22 23  2  0  0  0
 22 24  1  0  0  0
 24 21  1  0  0  0
 21 37  1  0  0  0
 21 18  1  0  0  0
 37 38  1  0  0  0
 38 39  2  0  0  0
 38 43  1  0  0  0
 39 40  1  0  0  0
 40 41  2  0  0  0
 41 42  1  0  0  0
 42 43  2  0  0  0
 18 19  1  0  0  0
 18 17  1  0  0  0
 17  1  1  0  0  0
  1  2  1  0  0  0
  1 44  1  0  0  0
  2  3  1  0  0  0
  3  4  2  0  0  0
  3  6  1  0  0  0
  6 13  1  0  0  0
  6  7  1  0  0  0
 13 14  1  0  0  0
 13 15  1  0  0  0
 13 16  1  0  0  0
  7  8  1  0  0  0
  8  9  2  0  0  0
  8 11  1  0  0  0
 11 12  1  0  0  0
 44 45  1  0  0  0
 45 46  1  0  0  0
 45 48  2  0  0  0
 46 47  2  0  0  0
 47 50  1  0  0  0
 48 49  1  0  0  0
 49 50  2  0  0  0
 50 51  1  0  0  0
 51 52  1  0  0  0
 51 56  2  0  0  0
 52 53  2  0  0  0
 53 54  1  0  0  0
 54 55  2  0  0  0
 55 56  1  0  0  0
 29 30  1  0  0  0
 24 25  1  0  0  0
 19 20  1  0  0  0
  2  5  1  0  0  0
  7 10  1  0  0  0
M  END
> <minimizedAffinity>
-9.69985

$$$$
3EL1_DR7_A_100


 56 58  0  0  0  0  0  0  0  0999 V2000
   18.2600   31.2227   15.5539 N   0  0  0  0  0  0  0  0  0  0  0  0
   17.5940   32.2849   16.2178 N   0  0  0  0  0  0  0  0  0  0  0  0
   17.9892   33.5599   16.1032 C   0  0  0  0  0  0  0  0  0  0  0  0
   18.9407   33.9135   15.4290 O   0  0  0  0  0  0  0  0  0  0  0  0
   16.8144   32.0779   16.7823 H   0  0  0  0  0  0  0  0  0  0  0  0
   17.2156   34.5563   16.9261 C   0  0  0  0  0  0  0  0  0  0  0  0
   18.0923   35.6904   17.1071 N   0  0  0  0  0  0  0  0  0  0  0  0
   18.8072   35.9258   18.2010 C   0  0  0  0  0  0  0  0  0  0  0  0
   18.7961   35.2254   19.2120 O   0  0  0  0  0  0  0  0  0  0  0  0
   18.1648   36.3348   16.3663 H   0  0  0  0  0  0  0  0  0  0  0  0
   19.6448   37.1090   18.1335 O   0  0  0  0  0  0  0  0  0  0  0  0
   19.1609   38.3683   18.6096 C   0  0  0  0  0  0  0  0  0  0  0  0
   15.8850   34.9895   16.3037 C   0  0  0  0  0  0  0  0  0  0  0  0
   15.9625   35.0644   14.7848 C   0  0  0  0  0  0  0  0  0  0  0  0
   14.7818   34.0089   16.6971 C   0  0  0  0  0  0  0  0  0  0  0  0
   15.5312   36.3870   16.8227 C   0  0  0  0  0  0  0  0  0  0  0  0
   19.6723   31.1761   15.9607 C   0  0  0  0  0  0  0  0  0  0  0  0
   20.5405   30.2343   15.1431 C   0  0  0  0  0  0  0  0  0  0  0  0
   20.5870   28.9908   15.8552 O   0  0  0  0  0  0  0  0  0  0  0  0
   20.9872   29.1325   16.7274 H   0  0  0  0  0  0  0  0  0  0  0  0
   21.9607   30.7493   14.8918 C   0  0  0  0  0  0  0  0  0  0  0  0
   22.5498   29.5513   12.8052 C   0  0  0  0  0  0  0  0  0  0  0  0
   21.7758   30.1612   12.0941 O   0  0  0  0  0  0  0  0  0  0  0  0
   22.7560   29.8132   14.1085 N   0  0  0  0  0  0  0  0  0  0  0  0
   23.4918   29.3421   14.5621 H   0  0  0  0  0  0  0  0  0  0  0  0
   23.2587   28.3433   12.2143 C   0  0  0  0  0  0  0  0  0  0  0  0
   21.5690   26.7105   11.2802 C   0  0  0  0  0  0  0  0  0  0  0  0
   21.0643   27.3584   10.3718 O   0  0  0  0  0  0  0  0  0  0  0  0
   22.5339   27.0952   12.1079 N   0  0  0  0  0  0  0  0  0  0  0  0
   22.8031   26.4119   12.7636 H   0  0  0  0  0  0  0  0  0  0  0  0
   20.9975   24.4090   10.4841 C   0  0  0  0  0  0  0  0  0  0  0  0
   21.1046   25.3625   11.5475 O   0  0  0  0  0  0  0  0  0  0  0  0
   24.6450   28.5147   11.6180 C   0  0  0  0  0  0  0  0  0  0  0  0
   25.4001   29.4368   12.5776 C   0  0  0  0  0  0  0  0  0  0  0  0
   24.6144   29.1405   10.2285 C   0  0  0  0  0  0  0  0  0  0  0  0
   25.3972   27.1874   11.5551 C   0  0  0  0  0  0  0  0  0  0  0  0
   21.9302   32.0945   14.1610 C   0  0  0  0  0  0  0  0  0  0  0  0
   22.2231   33.2274   15.1232 C   0  0  0  0  0  0  0  0  0  0  0  0
   22.2932   34.5387   14.6592 C   0  0  0  0  0  0  0  0  0  0  0  0
   22.5638   35.5850   15.5394 C   0  0  0  0  0  0  0  0  0  0  0  0
   22.7552   35.3242   16.8916 C   0  0  0  0  0  0  0  0  0  0  0  0
   22.6845   34.0166   17.3601 C   0  0  0  0  0  0  0  0  0  0  0  0
   22.4127   32.9697   16.4799 C   0  0  0  0  0  0  0  0  0  0  0  0
   18.2605   31.3895   14.0775 C   0  0  0  0  0  0  0  0  0  0  0  0
   18.1004   30.1124   13.2799 C   0  0  0  0  0  0  0  0  0  0  0  0
   17.7911   28.9214   13.9294 C   0  0  0  0  0  0  0  0  0  0  0  0
   17.6584   27.7399   13.2053 C   0  0  0  0  0  0  0  0  0  0  0  0
   18.2944   30.1125   11.9025 C   0  0  0  0  0  0  0  0  0  0  0  0
   18.1591   28.9329   11.1764 C   0  0  0  0  0  0  0  0  0  0  0  0
   17.8365   27.7408   11.8245 C   0  0  0  0  0  0  0  0  0  0  0  0
   17.7095   26.4834   11.0319 C   0  0  0  0  0  0  0  0  0  0  0  0
   17.6604   26.5062    9.6411 C   0  0  0  0  0  0  0  0  0  0  0  0
   17.5361   25.3075    8.9461 C   0  0  0  0  0  0  0  0  0  0  0  0
   17.4694   24.1123    9.6534 C   0  0  0  0  0  0  0  0  0  0  0  0
   17.5241   24.1340   11.0447 C   0  0  0  0  0  0  0  0  0  0  0  0
   17.6384   25.3011   11.6929 N   0  0  0  0  0  0  0  0  0  0  0  0
 31 32  1  0  0  0
 32 27  1  0  0  0
 27 28  2  0  0  0
 27 29  1  0  0  0
 29 26  1  0  0  0
 26 33  1  0  0  0
 26 22  1  0  0  0
 33 34  1  0  0  0
 33 35  1  0  0  0
 33 36  1  0  0  0
 22 23  2  0  0  0
 22 24  1  0  0  0
 24 21  1  0  0  0
 21 37  1  0  0  0
 21 18  1  0  0  0
 37 38  1  0  0  0
 38 39  2  0  0  0
 38 43  1  0  0  0
 39 40  1  0  0  0
 40 41  2  0  0  0
 41 42  1  0  0  0
 42 43  2  0  0  0
 18 19  1  0  0  0
 18 17  1  0  0  0
 17  1  1  0  0  0
  1  2  1  0  0  0
  1 44  1  0  0  0
  2  3  1  0  0  0
  3  4  2  0  0  0
  3  6  1  0  0  0
  6 13  1  0  0  0
  6  7  1  0  0  0
 13 14  1  0  0  0
 13 15  1  0  0  0
 13 16  1  0  0  0
  7  8  1  0  0  0
  8  9  2  0  0  0
  8 11  1  0  0  0
 11 12  1  0  0  0
 44 45  1  0  0  0
 45 46  1  0  0  0
 45 48  2  0  0  0
 46 47  2  0  0  0
 47 50  1  0  0  0
 48 49  1  0  0  0
 49 50  2  0  0  0
 50 51  1  0  0  0
 51 52  1  0  0  0
 51 56  2  0  0  0
 52 53  2  0  0  0
 53 54  1  0  0  0
 54 55  2  0  0  0
 55 56  1  0  0  0
 29 30  1  0  0  0
 24 25  1  0  0  0
 19 20  1  0  0  0
  2  5  1  0  0  0
  7 10  1  0  0  0
M  END
> <minimizedAffinity>
-9.31752

$$$$
3EL1_DR7_A_100


 56 58  0  0  0  0  0  0  0  0999 V2000
   21.7659   30.9337   13.9782 N   0  0  0  0  0  0  0  0  0  0  0  0
   22.3303   29.9887   13.0833 N   0  0  0  0  0  0  0  0  0  0  0  0
   22.3208   28.6724   13.3330 C   0  0  0  0  0  0  0  0  0  0  0  0
   21.8339   28.1792   14.3353 O   0  0  0  0  0  0  0  0  0  0  0  0
   22.7433   30.3112   12.2499 H   0  0  0  0  0  0  0  0  0  0  0  0
   23.0211   27.8127   12.3137 C   0  0  0  0  0  0  0  0  0  0  0  0
   22.0454   27.5406   11.2835 N   0  0  0  0  0  0  0  0  0  0  0  0
   21.6610   26.3262   10.9085 C   0  0  0  0  0  0  0  0  0  0  0  0
   22.1042   25.2754   11.3692 O   0  0  0  0  0  0  0  0  0  0  0  0
   21.6362   28.3108   10.8267 H   0  0  0  0  0  0  0  0  0  0  0  0
   20.6383   26.3061    9.8791 O   0  0  0  0  0  0  0  0  0  0  0  0
   20.2027   25.0662    9.3138 C   0  0  0  0  0  0  0  0  0  0  0  0
   24.2826   28.4438   11.7172 C   0  0  0  0  0  0  0  0  0  0  0  0
   23.9742   29.2779   10.4811 C   0  0  0  0  0  0  0  0  0  0  0  0
   24.9637   29.3308   12.7578 C   0  0  0  0  0  0  0  0  0  0  0  0
   25.2413   27.3246   11.2980 C   0  0  0  0  0  0  0  0  0  0  0  0
   21.2213   32.0774   13.2314 C   0  0  0  0  0  0  0  0  0  0  0  0
   19.8278   31.8633   12.6644 C   0  0  0  0  0  0  0  0  0  0  0  0
   19.5453   32.9896   11.8234 O   0  0  0  0  0  0  0  0  0  0  0  0
   19.5630   33.8016   12.3537 H   0  0  0  0  0  0  0  0  0  0  0  0
   18.7345   31.7133   13.7264 C   0  0  0  0  0  0  0  0  0  0  0  0
   18.1370   33.1719   15.6373 C   0  0  0  0  0  0  0  0  0  0  0  0
   18.3423   32.3360   16.4951 O   0  0  0  0  0  0  0  0  0  0  0  0
   18.3681   32.9901   14.3246 N   0  0  0  0  0  0  0  0  0  0  0  0
   18.2841   33.7701   13.7298 H   0  0  0  0  0  0  0  0  0  0  0  0
   17.4776   34.4757   16.0570 C   0  0  0  0  0  0  0  0  0  0  0  0
   18.5955   35.8084   17.8922 C   0  0  0  0  0  0  0  0  0  0  0  0
   18.2230   35.2180   18.8984 O   0  0  0  0  0  0  0  0  0  0  0  0
   18.3015   35.5185   16.6298 N   0  0  0  0  0  0  0  0  0  0  0  0
   18.7166   36.1178   15.9682 H   0  0  0  0  0  0  0  0  0  0  0  0
   18.9462   38.1869   18.5827 C   0  0  0  0  0  0  0  0  0  0  0  0
   19.4519   36.9725   18.0160 O   0  0  0  0  0  0  0  0  0  0  0  0
   16.0125   34.7057   15.7288 C   0  0  0  0  0  0  0  0  0  0  0  0
   15.9918   35.3329   14.3333 C   0  0  0  0  0  0  0  0  0  0  0  0
   15.3280   35.6415   16.7182 C   0  0  0  0  0  0  0  0  0  0  0  0
   15.2389   33.3909   15.6626 C   0  0  0  0  0  0  0  0  0  0  0  0
   17.4776   31.0764   13.1272 C   0  0  0  0  0  0  0  0  0  0  0  0
   17.7361   29.6269   12.7708 C   0  0  0  0  0  0  0  0  0  0  0  0
   18.1602   28.7310   13.7492 C   0  0  0  0  0  0  0  0  0  0  0  0
   18.4011   27.3965   13.4271 C   0  0  0  0  0  0  0  0  0  0  0  0
   18.2080   26.9498   12.1246 C   0  0  0  0  0  0  0  0  0  0  0  0
   17.7829   27.8402   11.1445 C   0  0  0  0  0  0  0  0  0  0  0  0
   17.5407   29.1752   11.4667 C   0  0  0  0  0  0  0  0  0  0  0  0
   22.7711   31.4946   14.9176 C   0  0  0  0  0  0  0  0  0  0  0  0
   22.5969   32.9602   15.2557 C   0  0  0  0  0  0  0  0  0  0  0  0
   23.0863   33.9356   14.3926 C   0  0  0  0  0  0  0  0  0  0  0  0
   22.9447   35.2850   14.7041 C   0  0  0  0  0  0  0  0  0  0  0  0
   21.9799   33.3414   16.4427 C   0  0  0  0  0  0  0  0  0  0  0  0
   21.8347   34.6900   16.7546 C   0  0  0  0  0  0  0  0  0  0  0  0
   22.3135   35.6690   15.8841 C   0  0  0  0  0  0  0  0  0  0  0  0
   22.1614   37.1093   16.2415 C   0  0  0  0  0  0  0  0  0  0  0  0
   22.6835   37.6203   17.4262 C   0  0  0  0  0  0  0  0  0  0  0  0
   22.5115   38.9695   17.7180 C   0  0  0  0  0  0  0  0  0  0  0  0
   21.8278   39.7804   16.8190 C   0  0  0  0  0  0  0  0  0  0  0  0
   21.3231   39.2294   15.6440 C   0  0  0  0  0  0  0  0  0  0  0  0
   21.4961   37.9258   15.3868 N   0  0  0  0  0  0  0  0  0  0  0  0
 31 32  1  0  0  0
 32 27  1  0  0  0
 27 28  2  0  0  0
 27 29  1  0  0  0
 29 26  1  0  0  0
 26 33  1  0  0  0
 26 22  1  0  0  0
 33 34  1  0  0  0
 33 35  1  0  0  0
 33 36  1  0  0  0
 22 23  2  0  0  0
 22 24  1  0  0  0
 24 21  1  0  0  0
 21 37  1  0  0  0
 21 18  1  0  0  0
 37 38  1  0  0  0
 38 39  2  0  0  0
 38 43  1  0  0  0
 39 40  1  0  0  0
 40 41  2  0  0  0
 41 42  1  0  0  0
 42 43  2  0  0  0
 18 19  1  0  0  0
 18 17  1  0  0  0
 17  1  1  0  0  0
  1  2  1  0  0  0
  1 44  1  0  0  0
  2  3  1  0  0  0
  3  4  2  0  0  0
  3  6  1  0  0  0
  6 13  1  0  0  0
  6  7  1  0  0  0
 13 14  1  0  0  0
 13 15  1  0  0  0
 13 16  1  0  0  0
  7  8  1  0  0  0
  8  9  2  0  0  0
  8 11  1  0  0  0
 11 12  1  0  0  0
 44 45  1  0  0  0
 45 46  1  0  0  0
 45 48  2  0  0  0
 46 47  2  0  0  0
 47 50  1  0  0  0
 48 49  1  0  0  0
 49 50  2  0  0  0
 50 51  1  0  0  0
 51 52  1  0  0  0
 51 56  2  0  0  0
 52 53  2  0  0  0
 53 54  1  0  0  0
 54 55  2  0  0  0
 55 56  1  0  0  0
 29 30  1  0  0  0
 24 25  1  0  0  0
 19 20  1  0  0  0
  2  5  1  0  0  0
  7 10  1  0  0  0
M  END
> <minimizedAffinity>
-9.04171

$$$$
3EL1_DR7_A_100


 56 58  0  0  0  0  0  0  0  0999 V2000
   21.0788   36.2473   17.8092 N   0  0  0  0  0  0  0  0  0  0  0  0
   20.0640   35.7834   16.9332 N   0  0  0  0  0  0  0  0  0  0  0  0
   18.8833   35.3346   17.3798 C   0  0  0  0  0  0  0  0  0  0  0  0
   18.5822   35.2864   18.5596 O   0  0  0  0  0  0  0  0  0  0  0  0
   20.2333   35.7915   15.9634 H   0  0  0  0  0  0  0  0  0  0  0  0
   17.9435   34.8160   16.3232 C   0  0  0  0  0  0  0  0  0  0  0  0
   18.0860   33.3782   16.3337 N   0  0  0  0  0  0  0  0  0  0  0  0
   18.5401   32.6565   15.3159 C   0  0  0  0  0  0  0  0  0  0  0  0
   18.8726   33.1135   14.2234 O   0  0  0  0  0  0  0  0  0  0  0  0
   17.8279   32.8994   17.1542 H   0  0  0  0  0  0  0  0  0  0  0  0
   18.6301   31.2317   15.5768 O   0  0  0  0  0  0  0  0  0  0  0  0
   18.3992   30.2864   14.5282 C   0  0  0  0  0  0  0  0  0  0  0  0
   16.4807   35.2206   16.5278 C   0  0  0  0  0  0  0  0  0  0  0  0
   15.7969   34.3724   17.5917 C   0  0  0  0  0  0  0  0  0  0  0  0
   16.3985   36.6904   16.9356 C   0  0  0  0  0  0  0  0  0  0  0  0
   15.7250   35.0159   15.2107 C   0  0  0  0  0  0  0  0  0  0  0  0
   21.5722   37.5592   17.3648 C   0  0  0  0  0  0  0  0  0  0  0  0
   20.9657   38.7481   18.0913 C   0  0  0  0  0  0  0  0  0  0  0  0
   19.8682   38.2450   18.8646 O   0  0  0  0  0  0  0  0  0  0  0  0
   19.2090   37.8509   18.2721 H   0  0  0  0  0  0  0  0  0  0  0  0
   20.4858   39.8705   17.1663 C   0  0  0  0  0  0  0  0  0  0  0  0
   18.2793   40.9916   17.0662 C   0  0  0  0  0  0  0  0  0  0  0  0
   18.0051   40.6168   15.9432 O   0  0  0  0  0  0  0  0  0  0  0  0
   19.3828   40.6270   17.7436 N   0  0  0  0  0  0  0  0  0  0  0  0
   19.4493   40.8882   18.6905 H   0  0  0  0  0  0  0  0  0  0  0  0
   17.3702   42.0233   17.7143 C   0  0  0  0  0  0  0  0  0  0  0  0
   15.3370   40.9708   18.7874 C   0  0  0  0  0  0  0  0  0  0  0  0
   14.7131   40.5705   17.8125 O   0  0  0  0  0  0  0  0  0  0  0  0
   16.5038   41.6051   18.7954 N   0  0  0  0  0  0  0  0  0  0  0  0
   16.8377   41.8301   19.6938 H   0  0  0  0  0  0  0  0  0  0  0  0
   15.5794   40.1240   21.1287 C   0  0  0  0  0  0  0  0  0  0  0  0
   14.7971   40.7720   20.1190 O   0  0  0  0  0  0  0  0  0  0  0  0
   17.5025   43.4832   17.3164 C   0  0  0  0  0  0  0  0  0  0  0  0
   16.3416   43.7608   16.3591 C   0  0  0  0  0  0  0  0  0  0  0  0
   18.8227   43.7849   16.6171 C   0  0  0  0  0  0  0  0  0  0  0  0
   17.3481   44.4094   18.5204 C   0  0  0  0  0  0  0  0  0  0  0  0
   21.6283   40.8391   16.8482 C   0  0  0  0  0  0  0  0  0  0  0  0
   21.9622   40.7983   15.3712 C   0  0  0  0  0  0  0  0  0  0  0  0
   21.3629   39.8512   14.5444 C   0  0  0  0  0  0  0  0  0  0  0  0
   21.6672   39.8078   13.1850 C   0  0  0  0  0  0  0  0  0  0  0  0
   22.5661   40.7204   12.6442 C   0  0  0  0  0  0  0  0  0  0  0  0
   23.1659   41.6692   13.4653 C   0  0  0  0  0  0  0  0  0  0  0  0
   22.8608   41.7136   14.8253 C   0  0  0  0  0  0  0  0  0  0  0  0
   22.2610   35.3477   17.8331 C   0  0  0  0  0  0  0  0  0  0  0  0
   22.2727   34.2628   16.7769 C   0  0  0  0  0  0  0  0  0  0  0  0
   22.4307   34.5996   15.4362 C   0  0  0  0  0  0  0  0  0  0  0  0
   22.4261   33.6096   14.4575 C   0  0  0  0  0  0  0  0  0  0  0  0
   22.0917   32.9303   17.1329 C   0  0  0  0  0  0  0  0  0  0  0  0
   22.0899   31.9388   16.1562 C   0  0  0  0  0  0  0  0  0  0  0  0
   22.2609   32.2738   14.8132 C   0  0  0  0  0  0  0  0  0  0  0  0
   22.2421   31.1992   13.7786 C   0  0  0  0  0  0  0  0  0  0  0  0
   23.1173   30.1186   13.8412 C   0  0  0  0  0  0  0  0  0  0  0  0
   23.0651   29.1441   12.8498 C   0  0  0  0  0  0  0  0  0  0  0  0
   22.1374   29.2658   11.8214 C   0  0  0  0  0  0  0  0  0  0  0  0
   21.2787   30.3617   11.7975 C   0  0  0  0  0  0  0  0  0  0  0  0
   21.3510   31.2909   12.7601 N   0  0  0  0  0  0  0  0  0  0  0  0
 31 32  1  0  0  0
 32 27  1  0  0  0
 27 28  2  0  0  0
 27 29  1  0  0  0
 29 26  1  0  0  0
 26 33  1  0  0  0
 26 22  1  0  0  0
 33 34  1  0  0  0
 33 35  1  0  0  0
 33 36  1  0  0  0
 22 23  2  0  0  0
 22 24  1  0  0  0
 24 21  1  0  0  0
 21 37  1  0  0  0
 21 18  1  0  0  0
 37 38  1  0  0  0
 38 39  2  0  0  0
 38 43  1  0  0  0
 39 40  1  0  0  0
 40 41  2  0  0  0
 41 42  1  0  0  0
 42 43  2  0  0  0
 18 19  1  0  0  0
 18 17  1  0  0  0
 17  1  1  0  0  0
  1  2  1  0  0  0
  1 44  1  0  0  0
  2  3  1  0  0  0
  3  4  2  0  0  0
  3  6  1  0  0  0
  6 13  1  0  0  0
  6  7  1  0  0  0
 13 14  1  0  0  0
 13 15  1  0  0  0
 13 16  1  0  0  0
  7  8  1  0  0  0
  8  9  2  0  0  0
  8 11  1  0  0  0
 11 12  1  0  0  0
 44 45  1  0  0  0
 45 46  1  0  0  0
 45 48  2  0  0  0
 46 47  2  0  0  0
 47 50  1  0  0  0
 48 49  1  0  0  0
 49 50  2  0  0  0
 50 51  1  0  0  0
 51 52  1  0  0  0
 51 56  2  0  0  0
 52 53  2  0  0  0
 53 54  1  0  0  0
 54 55  2  0  0  0
 55 56  1  0  0  0
 29 30  1  0  0  0
 24 25  1  0  0  0
 19 20  1  0  0  0
  2  5  1  0  0  0
  7 10  1  0  0  0
M  END
> <minimizedAffinity>
-8.78302

$$$$
3EL1_DR7_A_100


 56 58  0  0  0  0  0  0  0  0999 V2000
   19.7703   40.5441   16.8411 N   0  0  0  0  0  0  0  0  0  0  0  0
   18.7186   41.1846   17.5456 N   0  0  0  0  0  0  0  0  0  0  0  0
   17.4755   41.2696   17.0534 C   0  0  0  0  0  0  0  0  0  0  0  0
   17.1443   40.8112   15.9739 O   0  0  0  0  0  0  0  0  0  0  0  0
   18.9089   41.5803   18.4267 H   0  0  0  0  0  0  0  0  0  0  0  0
   16.4940   42.0404   17.8967 C   0  0  0  0  0  0  0  0  0  0  0  0
   16.6557   41.5495   19.2459 N   0  0  0  0  0  0  0  0  0  0  0  0
   15.6828   41.0224   19.9798 C   0  0  0  0  0  0  0  0  0  0  0  0
   14.5127   40.9081   19.6181 O   0  0  0  0  0  0  0  0  0  0  0  0
   17.5514   41.6102   19.6500 H   0  0  0  0  0  0  0  0  0  0  0  0
   16.0961   40.5636   21.2931 O   0  0  0  0  0  0  0  0  0  0  0  0
   15.1997   39.8076   22.1125 C   0  0  0  0  0  0  0  0  0  0  0  0
   16.6756   43.5602   17.8439 C   0  0  0  0  0  0  0  0  0  0  0  0
   17.4524   44.0847   19.0439 C   0  0  0  0  0  0  0  0  0  0  0  0
   17.4125   43.9530   16.5647 C   0  0  0  0  0  0  0  0  0  0  0  0
   15.2934   44.2213   17.8572 C   0  0  0  0  0  0  0  0  0  0  0  0
   20.3662   39.4862   17.6705 C   0  0  0  0  0  0  0  0  0  0  0  0
   19.4817   38.2690   17.8837 C   0  0  0  0  0  0  0  0  0  0  0  0
   19.0822   38.2833   19.2605 O   0  0  0  0  0  0  0  0  0  0  0  0
   19.8679   38.2214   19.8259 H   0  0  0  0  0  0  0  0  0  0  0  0
   20.1565   36.9362   17.5462 C   0  0  0  0  0  0  0  0  0  0  0  0
   18.4145   35.1763   17.6094 C   0  0  0  0  0  0  0  0  0  0  0  0
   18.2392   35.2241   18.8110 O   0  0  0  0  0  0  0  0  0  0  0  0
   19.2355   35.9936   16.9255 N   0  0  0  0  0  0  0  0  0  0  0  0
   19.2124   35.9519   15.9421 H   0  0  0  0  0  0  0  0  0  0  0  0
   17.7433   34.0528   16.8362 C   0  0  0  0  0  0  0  0  0  0  0  0
   19.2998   32.4283   15.6821 C   0  0  0  0  0  0  0  0  0  0  0  0
   19.6661   33.0748   14.7085 O   0  0  0  0  0  0  0  0  0  0  0  0
   18.4663   32.8143   16.6414 N   0  0  0  0  0  0  0  0  0  0  0  0
   18.3137   32.1402   17.3424 H   0  0  0  0  0  0  0  0  0  0  0  0
   20.6836   30.4877   14.9227 C   0  0  0  0  0  0  0  0  0  0  0  0
   19.7843   31.0742   15.8709 O   0  0  0  0  0  0  0  0  0  0  0  0
   16.2894   34.2018   16.4227 C   0  0  0  0  0  0  0  0  0  0  0  0
   15.5403   34.6371   17.6838 C   0  0  0  0  0  0  0  0  0  0  0  0
   15.6910   32.9020   15.8977 C   0  0  0  0  0  0  0  0  0  0  0  0
   16.1137   35.2963   15.3726 C   0  0  0  0  0  0  0  0  0  0  0  0
   21.3440   37.1510   16.6037 C   0  0  0  0  0  0  0  0  0  0  0  0
   21.9599   35.8224   16.2157 C   0  0  0  0  0  0  0  0  0  0  0  0
   22.1330   34.8255   17.1727 C   0  0  0  0  0  0  0  0  0  0  0  0
   22.7005   33.6018   16.8221 C   0  0  0  0  0  0  0  0  0  0  0  0
   23.0879   33.3661   15.5077 C   0  0  0  0  0  0  0  0  0  0  0  0
   22.9155   34.3578   14.5480 C   0  0  0  0  0  0  0  0  0  0  0  0
   22.3468   35.5819   14.8983 C   0  0  0  0  0  0  0  0  0  0  0  0
   20.8765   41.4770   16.5040 C   0  0  0  0  0  0  0  0  0  0  0  0
   21.5945   41.1892   15.2024 C   0  0  0  0  0  0  0  0  0  0  0  0
   21.1723   40.1391   14.3932 C   0  0  0  0  0  0  0  0  0  0  0  0
   21.8373   39.8577   13.2030 C   0  0  0  0  0  0  0  0  0  0  0  0
   22.6981   41.9466   14.8236 C   0  0  0  0  0  0  0  0  0  0  0  0
   23.3624   41.6687   13.6326 C   0  0  0  0  0  0  0  0  0  0  0  0
   22.9324   40.6244   12.8142 C   0  0  0  0  0  0  0  0  0  0  0  0
   23.6652   40.3322   11.5481 C   0  0  0  0  0  0  0  0  0  0  0  0
   22.9891   40.1583   10.3439 C   0  0  0  0  0  0  0  0  0  0  0  0
   23.7162   39.8822    9.1905 C   0  0  0  0  0  0  0  0  0  0  0  0
   25.1018   39.7914    9.2626 C   0  0  0  0  0  0  0  0  0  0  0  0
   25.7390   39.9742   10.4871 C   0  0  0  0  0  0  0  0  0  0  0  0
   25.0175   40.2337   11.5860 N   0  0  0  0  0  0  0  0  0  0  0  0
 31 32  1  0  0  0
 32 27  1  0  0  0
 27 28  2  0  0  0
 27 29  1  0  0  0
 29 26  1  0  0  0
 26 33  1  0  0  0
 26 22  1  0  0  0
 33 34  1  0  0  0
 33 35  1  0  0  0
 33 36  1  0  0  0
 22 23  2  0  0  0
 22 24  1  0  0  0
 24 21  1  0  0  0
 21 37  1  0  0  0
 21 18  1  0  0  0
 37 38  1  0  0  0
 38 39  2  0  0  0
 38 43  1  0  0  0
 39 40  1  0  0  0
 40 41  2  0  0  0
 41 42  1  0  0  0
 42 43  2  0  0  0
 18 19  1  0  0  0
 18 17  1  0  0  0
 17  1  1  0  0  0
  1  2  1  0  0  0
  1 44  1  0  0  0
  2  3  1  0  0  0
  3  4  2  0  0  0
  3  6  1  0  0  0
  6 13  1  0  0  0
  6  7  1  0  0  0
 13 14  1  0  0  0
 13 15  1  0  0  0
 13 16  1  0  0  0
  7  8  1  0  0  0
  8  9  2  0  0  0
  8 11  1  0  0  0
 11 12  1  0  0  0
 44 45  1  0  0  0
 45 46  1  0  0  0
 45 48  2  0  0  0
 46 47  2  0  0  0
 47 50  1  0  0  0
 48 49  1  0  0  0
 49 50  2  0  0  0
 50 51  1  0  0  0
 51 52  1  0  0  0
 51 56  2  0  0  0
 52 53  2  0  0  0
 53 54  1  0  0  0
 54 55  2  0  0  0
 55 56  1  0  0  0
 29 30  1  0  0  0
 24 25  1  0  0  0
 19 20  1  0  0  0
  2  5  1  0  0  0
  7 10  1  0  0  0
M  END
> <minimizedAffinity>
-8.73750

$$$$
3EL1_DR7_A_100


 56 58  0  0  0  0  0  0  0  0999 V2000
   18.6403   30.3687   13.6044 N   0  0  0  0  0  0  0  0  0  0  0  0
   20.0546   30.4766   13.6292 N   0  0  0  0  0  0  0  0  0  0  0  0
   20.7756   30.6893   12.5202 C   0  0  0  0  0  0  0  0  0  0  0  0
   20.2871   30.8070   11.4100 O   0  0  0  0  0  0  0  0  0  0  0  0
   20.5225   30.3922   14.4912 H   0  0  0  0  0  0  0  0  0  0  0  0
   22.2695   30.7108   12.7106 C   0  0  0  0  0  0  0  0  0  0  0  0
   22.4942   31.2165   14.0452 N   0  0  0  0  0  0  0  0  0  0  0  0
   22.1973   32.4466   14.4472 C   0  0  0  0  0  0  0  0  0  0  0  0
   21.7181   33.3237   13.7303 O   0  0  0  0  0  0  0  0  0  0  0  0
   22.8963   30.6051   14.7038 H   0  0  0  0  0  0  0  0  0  0  0  0
   22.4792   32.7109   15.8460 O   0  0  0  0  0  0  0  0  0  0  0  0
   22.6068   31.6317   16.7765 C   0  0  0  0  0  0  0  0  0  0  0  0
   22.9483   29.3512   12.5210 C   0  0  0  0  0  0  0  0  0  0  0  0
   22.0235   28.1960   12.8802 C   0  0  0  0  0  0  0  0  0  0  0  0
   23.4013   29.1925   11.0708 C   0  0  0  0  0  0  0  0  0  0  0  0
   24.1682   29.2775   13.4452 C   0  0  0  0  0  0  0  0  0  0  0  0
   18.0577   31.0673   14.7597 C   0  0  0  0  0  0  0  0  0  0  0  0
   19.0473   31.8779   15.5800 C   0  0  0  0  0  0  0  0  0  0  0  0
   19.3813   31.0857   16.7273 O   0  0  0  0  0  0  0  0  0  0  0  0
   18.5809   30.9189   17.2492 H   0  0  0  0  0  0  0  0  0  0  0  0
   18.5228   33.2474   16.0218 C   0  0  0  0  0  0  0  0  0  0  0  0
   19.7177   35.0943   17.1606 C   0  0  0  0  0  0  0  0  0  0  0  0
   19.0550   35.0563   18.1785 O   0  0  0  0  0  0  0  0  0  0  0  0
   19.5873   34.2356   16.1333 N   0  0  0  0  0  0  0  0  0  0  0  0
   20.2543   34.2777   15.4104 H   0  0  0  0  0  0  0  0  0  0  0  0
   20.6894   36.2503   16.9864 C   0  0  0  0  0  0  0  0  0  0  0  0
   19.6256   38.4704   17.5633 C   0  0  0  0  0  0  0  0  0  0  0  0
   19.4703   38.3712   18.7741 O   0  0  0  0  0  0  0  0  0  0  0  0
   20.1583   37.5739   16.7408 N   0  0  0  0  0  0  0  0  0  0  0  0
   20.1990   37.8598   15.7996 H   0  0  0  0  0  0  0  0  0  0  0  0
   17.8197   40.0747   16.9136 C   0  0  0  0  0  0  0  0  0  0  0  0
   19.1944   39.6741   16.8784 O   0  0  0  0  0  0  0  0  0  0  0  0
   22.1715   36.0159   17.2223 C   0  0  0  0  0  0  0  0  0  0  0  0
   22.7284   37.3481   17.7287 C   0  0  0  0  0  0  0  0  0  0  0  0
   22.9108   35.6036   15.9547 C   0  0  0  0  0  0  0  0  0  0  0  0
   22.4085   34.9670   18.3063 C   0  0  0  0  0  0  0  0  0  0  0  0
   17.4721   33.7706   15.0386 C   0  0  0  0  0  0  0  0  0  0  0  0
   16.4285   34.5933   15.7659 C   0  0  0  0  0  0  0  0  0  0  0  0
   16.4772   35.9844   15.7192 C   0  0  0  0  0  0  0  0  0  0  0  0
   15.5208   36.7467   16.3875 C   0  0  0  0  0  0  0  0  0  0  0  0
   14.5036   36.1190   17.0978 C   0  0  0  0  0  0  0  0  0  0  0  0
   14.4496   34.7301   17.1460 C   0  0  0  0  0  0  0  0  0  0  0  0
   15.4058   33.9671   16.4765 C   0  0  0  0  0  0  0  0  0  0  0  0
   18.1781   28.9597   13.6975 C   0  0  0  0  0  0  0  0  0  0  0  0
   17.9700   28.2559   12.3731 C   0  0  0  0  0  0  0  0  0  0  0  0
   18.3458   26.9242   12.2272 C   0  0  0  0  0  0  0  0  0  0  0  0
   18.1730   26.2747   11.0081 C   0  0  0  0  0  0  0  0  0  0  0  0
   17.4361   28.9412   11.2868 C   0  0  0  0  0  0  0  0  0  0  0  0
   17.2597   28.2927   10.0680 C   0  0  0  0  0  0  0  0  0  0  0  0
   17.6243   26.9542    9.9239 C   0  0  0  0  0  0  0  0  0  0  0  0
   17.4409   26.2794    8.6062 C   0  0  0  0  0  0  0  0  0  0  0  0
   16.6407   25.1479    8.4774 C   0  0  0  0  0  0  0  0  0  0  0  0
   16.5049   24.5507    7.2284 C   0  0  0  0  0  0  0  0  0  0  0  0
   17.1653   25.0987    6.1344 C   0  0  0  0  0  0  0  0  0  0  0  0
   17.9546   26.2329    6.3065 C   0  0  0  0  0  0  0  0  0  0  0  0
   18.0751   26.7877    7.5202 N   0  0  0  0  0  0  0  0  0  0  0  0
 31 32  1  0  0  0
 32 27  1  0  0  0
 27 28  2  0  0  0
 27 29  1  0  0  0
 29 26  1  0  0  0
 26 33  1  0  0  0
 26 22  1  0  0  0
 33 34  1  0  0  0
 33 35  1  0  0  0
 33 36  1  0  0  0
 22 23  2  0  0  0
 22 24  1  0  0  0
 24 21  1  0  0  0
 21 37  1  0  0  0
 21 18  1  0  0  0
 37 38  1  0  0  0
 38 39  2  0  0  0
 38 43  1  0  0  0
 39 40  1  0  0  0
 40 41  2  0  0  0
 41 42  1  0  0  0
 42 43  2  0  0  0
 18 19  1  0  0  0
 18 17  1  0  0  0
 17  1  1  0  0  0
  1  2  1  0  0  0
  1 44  1  0  0  0
  2  3  1  0  0  0
  3  4  2  0  0  0
  3  6  1  0  0  0
  6 13  1  0  0  0
  6  7  1  0  0  0
 13 14  1  0  0  0
 13 15  1  0  0  0
 13 16  1  0  0  0
  7  8  1  0  0  0
  8  9  2  0  0  0
  8 11  1  0  0  0
 11 12  1  0  0  0
 44 45  1  0  0  0
 45 46  1  0  0  0
 45 48  2  0  0  0
 46 47  2  0  0  0
 47 50  1  0  0  0
 48 49  1  0  0  0
 49 50  2  0  0  0
 50 51  1  0  0  0
 51 52  1  0  0  0
 51 56  2  0  0  0
 52 53  2  0  0  0
 53 54  1  0  0  0
 54 55  2  0  0  0
 55 56  1  0  0  0
 29 30  1  0  0  0
 24 25  1  0  0  0
 19 20  1  0  0  0
  2  5  1  0  0  0
  7 10  1  0  0  0
M  END
> <minimizedAffinity>
-8.65698

$$$$
3EL1_DR7_A_100


 56 58  0  0  0  0  0  0  0  0999 V2000
   20.2903   40.0498   16.9064 N   0  0  0  0  0  0  0  0  0  0  0  0
   19.3481   40.7061   17.7393 N   0  0  0  0  0  0  0  0  0  0  0  0
   18.0838   40.9261   17.3545 C   0  0  0  0  0  0  0  0  0  0  0  0
   17.6393   40.5869   16.2717 O   0  0  0  0  0  0  0  0  0  0  0  0
   19.6331   41.0105   18.6312 H   0  0  0  0  0  0  0  0  0  0  0  0
   17.2320   41.6949   18.3301 C   0  0  0  0  0  0  0  0  0  0  0  0
   16.8072   42.8881   17.6348 N   0  0  0  0  0  0  0  0  0  0  0  0
   17.5840   43.9365   17.3892 C   0  0  0  0  0  0  0  0  0  0  0  0
   18.7570   44.0407   17.7446 O   0  0  0  0  0  0  0  0  0  0  0  0
   15.8750   42.9264   17.3206 H   0  0  0  0  0  0  0  0  0  0  0  0
   16.9438   45.0018   16.6399 O   0  0  0  0  0  0  0  0  0  0  0  0
   16.0892   44.6980   15.5337 C   0  0  0  0  0  0  0  0  0  0  0  0
   16.0261   40.9160   18.8635 C   0  0  0  0  0  0  0  0  0  0  0  0
   14.9140   40.8064   17.8291 C   0  0  0  0  0  0  0  0  0  0  0  0
   16.4564   39.5110   19.2812 C   0  0  0  0  0  0  0  0  0  0  0  0
   15.4611   41.6568   20.0799 C   0  0  0  0  0  0  0  0  0  0  0  0
   20.8502   38.8790   17.5979 C   0  0  0  0  0  0  0  0  0  0  0  0
   19.8555   37.7624   17.8685 C   0  0  0  0  0  0  0  0  0  0  0  0
   19.5862   37.7798   19.2766 O   0  0  0  0  0  0  0  0  0  0  0  0
   20.4076   37.6135   19.7649 H   0  0  0  0  0  0  0  0  0  0  0  0
   20.3407   36.3734   17.4435 C   0  0  0  0  0  0  0  0  0  0  0  0
   18.3448   34.9067   17.4073 C   0  0  0  0  0  0  0  0  0  0  0  0
   18.1492   34.9408   18.6062 O   0  0  0  0  0  0  0  0  0  0  0  0
   19.2999   35.6080   16.7703 N   0  0  0  0  0  0  0  0  0  0  0  0
   19.2951   35.6037   15.7858 H   0  0  0  0  0  0  0  0  0  0  0  0
   17.5263   33.9289   16.5798 C   0  0  0  0  0  0  0  0  0  0  0  0
   18.9674   32.4209   15.1505 C   0  0  0  0  0  0  0  0  0  0  0  0
   19.4176   33.2063   14.3256 O   0  0  0  0  0  0  0  0  0  0  0  0
   18.1432   32.6900   16.1566 N   0  0  0  0  0  0  0  0  0  0  0  0
   17.9113   31.9105   16.7114 H   0  0  0  0  0  0  0  0  0  0  0  0
   18.5442   30.1099   14.2918 C   0  0  0  0  0  0  0  0  0  0  0  0
   19.3253   31.0171   15.0782 O   0  0  0  0  0  0  0  0  0  0  0  0
   16.0508   34.2056   16.3490 C   0  0  0  0  0  0  0  0  0  0  0  0
   15.9839   35.1027   15.1113 C   0  0  0  0  0  0  0  0  0  0  0  0
   15.3938   34.9140   17.5278 C   0  0  0  0  0  0  0  0  0  0  0  0
   15.2808   32.9237   16.0402 C   0  0  0  0  0  0  0  0  0  0  0  0
   21.5488   36.4814   16.5090 C   0  0  0  0  0  0  0  0  0  0  0  0
   21.9944   35.1058   16.0572 C   0  0  0  0  0  0  0  0  0  0  0  0
   22.3947   34.8979   14.7395 C   0  0  0  0  0  0  0  0  0  0  0  0
   22.8042   33.6343   14.3176 C   0  0  0  0  0  0  0  0  0  0  0  0
   22.8251   32.5739   15.2167 C   0  0  0  0  0  0  0  0  0  0  0  0
   22.4280   32.7768   16.5340 C   0  0  0  0  0  0  0  0  0  0  0  0
   22.0192   34.0413   16.9567 C   0  0  0  0  0  0  0  0  0  0  0  0
   21.4457   40.9189   16.5641 C   0  0  0  0  0  0  0  0  0  0  0  0
   21.8491   40.9178   15.1047 C   0  0  0  0  0  0  0  0  0  0  0  0
   21.4132   39.8984   14.2639 C   0  0  0  0  0  0  0  0  0  0  0  0
   21.7930   39.8812   12.9248 C   0  0  0  0  0  0  0  0  0  0  0  0
   22.6828   41.9117   14.6029 C   0  0  0  0  0  0  0  0  0  0  0  0
   23.0612   41.8980   13.2636 C   0  0  0  0  0  0  0  0  0  0  0  0
   22.6146   40.8838   12.4167 C   0  0  0  0  0  0  0  0  0  0  0  0
   23.0417   40.8774   10.9874 C   0  0  0  0  0  0  0  0  0  0  0  0
   23.0017   42.0344   10.2147 C   0  0  0  0  0  0  0  0  0  0  0  0
   23.4054   41.9771    8.8847 C   0  0  0  0  0  0  0  0  0  0  0  0
   23.8456   40.7687    8.3565 C   0  0  0  0  0  0  0  0  0  0  0  0
   23.8719   39.6351    9.1647 C   0  0  0  0  0  0  0  0  0  0  0  0
   23.4729   39.7129   10.4415 N   0  0  0  0  0  0  0  0  0  0  0  0
 31 32  1  0  0  0
 32 27  1  0  0  0
 27 28  2  0  0  0
 27 29  1  0  0  0
 29 26  1  0  0  0
 26 33  1  0  0  0
 26 22  1  0  0  0
 33 34  1  0  0  0
 33 35  1  0  0  0
 33 36  1  0  0  0
 22 23  2  0  0  0
 22 24  1  0  0  0
 24 21  1  0  0  0
 21 37  1  0  0  0
 21 18  1  0  0  0
 37 38  1  0  0  0
 38 39  2  0  0  0
 38 43  1  0  0  0
 39 40  1  0  0  0
 40 41  2  0  0  0
 41 42  1  0  0  0
 42 43  2  0  0  0
 18 19  1  0  0  0
 18 17  1  0  0  0
 17  1  1  0  0  0
  1  2  1  0  0  0
  1 44  1  0  0  0
  2  3  1  0  0  0
  3  4  2  0  0  0
  3  6  1  0  0  0
  6 13  1  0  0  0
  6  7  1  0  0  0
 13 14  1  0  0  0
 13 15  1  0  0  0
 13 16  1  0  0  0
  7  8  1  0  0  0
  8  9  2  0  0  0
  8 11  1  0  0  0
 11 12  1  0  0  0
 44 45  1  0  0  0
 45 46  1  0  0  0
 45 48  2  0  0  0
 46 47  2  0  0  0
 47 50  1  0  0  0
 48 49  1  0  0  0
 49 50  2  0  0  0
 50 51  1  0  0  0
 51 52  1  0  0  0
 51 56  2  0  0  0
 52 53  2  0  0  0
 53 54  1  0  0  0
 54 55  2  0  0  0
 55 56  1  0  0  0
 29 30  1  0  0  0
 24 25  1  0  0  0
 19 20  1  0  0  0
  2  5  1  0  0  0
  7 10  1  0  0  0
M  END
> <minimizedAffinity>
-8.49935

$$$$
3EL1_DR7_A_100


 56 58  0  0  0  0  0  0  0  0999 V2000
   18.5659   31.8621   14.6037 N   0  0  0  0  0  0  0  0  0  0  0  0
   19.9462   31.5437   14.5277 N   0  0  0  0  0  0  0  0  0  0  0  0
   20.6884   31.8302   13.4499 C   0  0  0  0  0  0  0  0  0  0  0  0
   20.2496   32.3812   12.4554 O   0  0  0  0  0  0  0  0  0  0  0  0
   20.3735   31.0965   15.2937 H   0  0  0  0  0  0  0  0  0  0  0  0
   22.1197   31.3646   13.5040 C   0  0  0  0  0  0  0  0  0  0  0  0
   22.5934   31.6846   14.8309 N   0  0  0  0  0  0  0  0  0  0  0  0
   22.5673   32.8975   15.3705 C   0  0  0  0  0  0  0  0  0  0  0  0
   22.1624   33.9107   14.8026 O   0  0  0  0  0  0  0  0  0  0  0  0
   22.9619   30.9507   15.3740 H   0  0  0  0  0  0  0  0  0  0  0  0
   23.0628   32.9647   16.7329 O   0  0  0  0  0  0  0  0  0  0  0  0
   22.6911   34.0505   17.5870 C   0  0  0  0  0  0  0  0  0  0  0  0
   22.3095   29.8753   13.2016 C   0  0  0  0  0  0  0  0  0  0  0  0
   21.7011   28.9911   14.2819 C   0  0  0  0  0  0  0  0  0  0  0  0
   21.6692   29.5304   11.8583 C   0  0  0  0  0  0  0  0  0  0  0  0
   23.8104   29.5731   13.1414 C   0  0  0  0  0  0  0  0  0  0  0  0
   18.2882   32.6270   15.8285 C   0  0  0  0  0  0  0  0  0  0  0  0
   18.5116   34.1254   15.7088 C   0  0  0  0  0  0  0  0  0  0  0  0
   19.2858   34.3351   14.5204 O   0  0  0  0  0  0  0  0  0  0  0  0
   20.1389   33.8816   14.6061 H   0  0  0  0  0  0  0  0  0  0  0  0
   19.2186   34.7525   16.9140 C   0  0  0  0  0  0  0  0  0  0  0  0
   20.1815   36.9463   17.5434 C   0  0  0  0  0  0  0  0  0  0  0  0
   20.3066   36.6880   18.7243 O   0  0  0  0  0  0  0  0  0  0  0  0
   19.7533   36.0738   16.6132 N   0  0  0  0  0  0  0  0  0  0  0  0
   19.8046   36.3458   15.6685 H   0  0  0  0  0  0  0  0  0  0  0  0
   20.4246   38.3793   17.0984 C   0  0  0  0  0  0  0  0  0  0  0  0
   18.3627   39.8356   17.2434 C   0  0  0  0  0  0  0  0  0  0  0  0
   18.2346   39.9757   18.4533 O   0  0  0  0  0  0  0  0  0  0  0  0
   19.3058   39.1531   16.6043 N   0  0  0  0  0  0  0  0  0  0  0  0
   19.2308   39.1778   15.6230 H   0  0  0  0  0  0  0  0  0  0  0  0
   16.0849   40.7667   16.7940 C   0  0  0  0  0  0  0  0  0  0  0  0
   17.4069   40.4508   16.3423 O   0  0  0  0  0  0  0  0  0  0  0  0
   21.7905   39.0046   17.3229 C   0  0  0  0  0  0  0  0  0  0  0  0
   22.0660   39.8594   16.0841 C   0  0  0  0  0  0  0  0  0  0  0  0
   22.8943   37.9653   17.4804 C   0  0  0  0  0  0  0  0  0  0  0  0
   21.7923   39.9281   18.5388 C   0  0  0  0  0  0  0  0  0  0  0  0
   18.2625   34.8722   18.1039 C   0  0  0  0  0  0  0  0  0  0  0  0
   16.8808   35.2800   17.6351 C   0  0  0  0  0  0  0  0  0  0  0  0
   15.8526   34.3418   17.5892 C   0  0  0  0  0  0  0  0  0  0  0  0
   14.5797   34.7106   17.1573 C   0  0  0  0  0  0  0  0  0  0  0  0
   14.3274   36.0246   16.7792 C   0  0  0  0  0  0  0  0  0  0  0  0
   15.3505   36.9656   16.8250 C   0  0  0  0  0  0  0  0  0  0  0  0
   16.6238   36.5971   17.2581 C   0  0  0  0  0  0  0  0  0  0  0  0
   17.7081   30.6508   14.6698 C   0  0  0  0  0  0  0  0  0  0  0  0
   17.8911   29.6631   13.5368 C   0  0  0  0  0  0  0  0  0  0  0  0
   17.7787   30.0901   12.2174 C   0  0  0  0  0  0  0  0  0  0  0  0
   17.9294   29.1851   11.1705 C   0  0  0  0  0  0  0  0  0  0  0  0
   18.1377   28.3206   13.8049 C   0  0  0  0  0  0  0  0  0  0  0  0
   18.2917   27.4147   12.7595 C   0  0  0  0  0  0  0  0  0  0  0  0
   18.1918   27.8439   11.4362 C   0  0  0  0  0  0  0  0  0  0  0  0
   18.3458   26.8563   10.3288 C   0  0  0  0  0  0  0  0  0  0  0  0
   18.1724   27.2274    8.9986 C   0  0  0  0  0  0  0  0  0  0  0  0
   18.3214   26.2691    8.0012 C   0  0  0  0  0  0  0  0  0  0  0  0
   18.6458   24.9634    8.3522 C   0  0  0  0  0  0  0  0  0  0  0  0
   18.8126   24.6348    9.6951 C   0  0  0  0  0  0  0  0  0  0  0  0
   18.6585   25.5733   10.6389 N   0  0  0  0  0  0  0  0  0  0  0  0
 31 32  1  0  0  0
 32 27  1  0  0  0
 27 28  2  0  0  0
 27 29  1  0  0  0
 29 26  1  0  0  0
 26 33  1  0  0  0
 26 22  1  0  0  0
 33 34  1  0  0  0
 33 35  1  0  0  0
 33 36  1  0  0  0
 22 23  2  0  0  0
 22 24  1  0  0  0
 24 21  1  0  0  0
 21 37  1  0  0  0
 21 18  1  0  0  0
 37 38  1  0  0  0
 38 39  2  0  0  0
 38 43  1  0  0  0
 39 40  1  0  0  0
 40 41  2  0  0  0
 41 42  1  0  0  0
 42 43  2  0  0  0
 18 19  1  0  0  0
 18 17  1  0  0  0
 17  1  1  0  0  0
  1  2  1  0  0  0
  1 44  1  0  0  0
  2  3  1  0  0  0
  3  4  2  0  0  0
  3  6  1  0  0  0
  6 13  1  0  0  0
  6  7  1  0  0  0
 13 14  1  0  0  0
 13 15  1  0  0  0
 13 16  1  0  0  0
  7  8  1  0  0  0
  8  9  2  0  0  0
  8 11  1  0  0  0
 11 12  1  0  0  0
 44 45  1  0  0  0
 45 46  1  0  0  0
 45 48  2  0  0  0
 46 47  2  0  0  0
 47 50  1  0  0  0
 48 49  1  0  0  0
 49 50  2  0  0  0
 50 51  1  0  0  0
 51 52  1  0  0  0
 51 56  2  0  0  0
 52 53  2  0  0  0
 53 54  1  0  0  0
 54 55  2  0  0  0
 55 56  1  0  0  0
 29 30  1  0  0  0
 24 25  1  0  0  0
 19 20  1  0  0  0
  2  5  1  0  0  0
  7 10  1  0  0  0
M  END
> <minimizedAffinity>
-8.34898

$$$$
