3ZLN_H0Y_A_1197


 32 36  0  0  0  0  0  0  0  0999 V2000
  -17.1221  -10.6059   13.0951 C   0  0  0  0  0  0  0  0  0  0  0  0
  -15.9829  -10.4999   12.3091 C   0  0  0  0  0  0  0  0  0  0  0  0
  -15.8378  -11.3254   11.1880 C   0  0  0  0  0  0  0  0  0  0  0  0
  -16.8281  -12.2505   10.8550 C   0  0  0  0  0  0  0  0  0  0  0  0
  -16.6640  -13.1406    9.6352 C   0  0  0  0  0  0  0  0  0  0  0  0
  -18.0291  -13.4452    9.0403 C   0  0  0  0  0  0  0  0  0  0  0  0
  -18.8596  -14.2159   10.0594 C   0  0  0  0  0  0  0  0  0  0  0  0
  -18.1147  -11.5246   12.7540 C   0  0  0  0  0  0  0  0  0  0  0  0
  -17.9678  -12.3463   11.6405 C   0  0  0  0  0  0  0  0  0  0  0  0
  -19.0405  -13.3342   11.2701 C   0  0  0  0  0  0  0  0  0  0  0  0
  -20.0808  -13.4901   11.9701 N   0  0  0  0  0  0  0  0  0  0  0  0
  -16.2529   -8.4739   15.8521 C   0  0  0  0  0  0  0  0  0  0  0  0
  -16.1851   -9.2942   14.7931 N   0  0  0  0  0  0  0  0  0  0  0  0
  -17.4905   -8.0729   16.3441 C   0  0  0  0  0  0  0  0  0  0  0  0
  -18.6413   -8.5418   15.7254 C   0  0  0  0  0  0  0  0  0  0  0  0
  -18.5402   -9.3921   14.6345 C   0  0  0  0  0  0  0  0  0  0  0  0
  -17.2797   -9.7710   14.1923 C   0  0  0  0  0  0  0  0  0  0  0  0
  -13.9475   -8.7252   16.4260 O   0  0  0  0  0  0  0  0  0  0  0  0
  -14.9815   -8.0128   16.5171 C   0  0  0  0  0  0  0  0  0  0  0  0
  -14.9921   -6.9533   17.1806 O   0  0  0  0  0  0  0  0  0  0  0  0
  -13.9656   -9.5151   15.9223 H   0  0  0  0  0  0  0  0  0  0  0  0
  -21.0123  -14.3771   11.6480 N   0  0  0  0  0  0  0  0  0  0  0  0
  -21.3156  -14.4749   10.7165 H   0  0  0  0  0  0  0  0  0  0  0  0
  -21.5386  -15.1490   12.6382 C   0  0  0  0  0  0  0  0  0  0  0  0
  -21.9725  -16.8260   12.3896 S   0  0  0  0  0  0  0  0  0  0  0  0
  -22.4484  -16.7511   14.0138 C   0  0  0  0  0  0  0  0  0  0  0  0
  -22.9695  -17.8640   14.6524 C   0  0  0  0  0  0  0  0  0  0  0  0
  -23.3559  -17.7791   15.9852 C   0  0  0  0  0  0  0  0  0  0  0  0
  -21.7838  -14.6162   13.8540 N   0  0  0  0  0  0  0  0  0  0  0  0
  -22.3063  -15.5499   14.6973 C   0  0  0  0  0  0  0  0  0  0  0  0
  -22.6866  -15.4698   16.0372 C   0  0  0  0  0  0  0  0  0  0  0  0
  -23.2143  -16.5804   16.6800 C   0  0  0  0  0  0  0  0  0  0  0  0
 18 19  1  0  0  0
 19 20  2  0  0  0
 19 12  1  0  0  0
 12 13  2  0  0  0
 12 14  1  0  0  0
 13 17  1  0  0  0
 14 15  2  0  0  0
 15 16  1  0  0  0
 16 17  2  0  0  0
 17  1  1  0  0  0
  1  2  1  0  0  0
  1  8  2  0  0  0
  2  3  2  0  0  0
  3  4  1  0  0  0
  4  5  1  0  0  0
  4  9  2  0  0  0
  5  6  1  0  0  0
  6  7  1  0  0  0
  7 10  1  0  0  0
  8  9  1  0  0  0
  9 10  1  0  0  0
 10 11  2  0  0  0
 11 22  1  0  0  0
 22 24  1  0  0  0
 24 25  1  0  0  0
 24 29  2  0  0  0
 25 26  1  0  0  0
 26 27  1  0  0  0
 26 30  2  0  0  0
 27 28  2  0  0  0
 28 32  1  0  0  0
 29 30  1  0  0  0
 30 31  1  0  0  0
 31 32  2  0  0  0
 18 21  1  0  0  0
 22 23  1  0  0  0
M  END
> <minimizedAffinity>
-10.87191

$$$$
3ZLN_H0Y_A_1197


 32 36  0  0  0  0  0  0  0  0999 V2000
  -17.1817  -10.6410   13.0672 C   0  0  0  0  0  0  0  0  0  0  0  0
  -16.0255  -10.6210   12.2994 C   0  0  0  0  0  0  0  0  0  0  0  0
  -15.9068  -11.4878   11.2067 C   0  0  0  0  0  0  0  0  0  0  0  0
  -16.9401  -12.3684   10.8838 C   0  0  0  0  0  0  0  0  0  0  0  0
  -16.8042  -13.3037    9.6949 C   0  0  0  0  0  0  0  0  0  0  0  0
  -18.1737  -13.5530    9.0845 C   0  0  0  0  0  0  0  0  0  0  0  0
  -19.0617  -14.2456   10.1111 C   0  0  0  0  0  0  0  0  0  0  0  0
  -18.2169  -11.5153   12.7360 C   0  0  0  0  0  0  0  0  0  0  0  0
  -18.0962  -12.3782   11.6508 C   0  0  0  0  0  0  0  0  0  0  0  0
  -19.2147  -13.3181   11.2909 C   0  0  0  0  0  0  0  0  0  0  0  0
  -20.2734  -13.3959   11.9762 N   0  0  0  0  0  0  0  0  0  0  0  0
  -16.2654   -8.2628   15.5982 C   0  0  0  0  0  0  0  0  0  0  0  0
  -16.2210   -9.1322   14.5779 N   0  0  0  0  0  0  0  0  0  0  0  0
  -17.4780   -7.9753   16.2158 C   0  0  0  0  0  0  0  0  0  0  0  0
  -18.6274   -8.6076   15.7620 C   0  0  0  0  0  0  0  0  0  0  0  0
  -18.5503   -9.5050   14.7075 C   0  0  0  0  0  0  0  0  0  0  0  0
  -17.3121   -9.7649   14.1355 C   0  0  0  0  0  0  0  0  0  0  0  0
  -14.5392   -6.6157   15.4766 O   0  0  0  0  0  0  0  0  0  0  0  0
  -14.9908   -7.6218   16.0839 C   0  0  0  0  0  0  0  0  0  0  0  0
  -14.3868   -8.1286   17.0540 O   0  0  0  0  0  0  0  0  0  0  0  0
  -15.0113   -6.2547   14.7521 H   0  0  0  0  0  0  0  0  0  0  0  0
  -21.2462  -14.2411   11.6641 N   0  0  0  0  0  0  0  0  0  0  0  0
  -21.7302  -14.1608   10.8106 H   0  0  0  0  0  0  0  0  0  0  0  0
  -21.5585  -15.2229   12.5540 C   0  0  0  0  0  0  0  0  0  0  0  0
  -21.7579  -14.9097   14.2642 S   0  0  0  0  0  0  0  0  0  0  0  0
  -22.0563  -16.5754   14.3456 C   0  0  0  0  0  0  0  0  0  0  0  0
  -22.3526  -17.1847   15.5533 C   0  0  0  0  0  0  0  0  0  0  0  0
  -22.5916  -18.5536   15.5973 C   0  0  0  0  0  0  0  0  0  0  0  0
  -21.6842  -16.5003   12.1363 N   0  0  0  0  0  0  0  0  0  0  0  0
  -21.9989  -17.3227   13.1758 C   0  0  0  0  0  0  0  0  0  0  0  0
  -22.2478  -18.6947   13.2212 C   0  0  0  0  0  0  0  0  0  0  0  0
  -22.5397  -19.3110   14.4296 C   0  0  0  0  0  0  0  0  0  0  0  0
 18 19  1  0  0  0
 19 20  2  0  0  0
 19 12  1  0  0  0
 12 13  2  0  0  0
 12 14  1  0  0  0
 13 17  1  0  0  0
 14 15  2  0  0  0
 15 16  1  0  0  0
 16 17  2  0  0  0
 17  1  1  0  0  0
  1  2  1  0  0  0
  1  8  2  0  0  0
  2  3  2  0  0  0
  3  4  1  0  0  0
  4  5  1  0  0  0
  4  9  2  0  0  0
  5  6  1  0  0  0
  6  7  1  0  0  0
  7 10  1  0  0  0
  8  9  1  0  0  0
  9 10  1  0  0  0
 10 11  2  0  0  0
 11 22  1  0  0  0
 22 24  1  0  0  0
 24 25  1  0  0  0
 24 29  2  0  0  0
 25 26  1  0  0  0
 26 27  1  0  0  0
 26 30  2  0  0  0
 27 28  2  0  0  0
 28 32  1  0  0  0
 29 30  1  0  0  0
 30 31  1  0  0  0
 31 32  2  0  0  0
 18 21  1  0  0  0
 22 23  1  0  0  0
M  END
> <minimizedAffinity>
-10.26240

$$$$
3ZLN_H0Y_A_1197


 32 36  0  0  0  0  0  0  0  0999 V2000
  -21.4631  -16.7504   11.4586 C   0  0  0  0  0  0  0  0  0  0  0  0
  -21.1336  -17.6825   10.4843 C   0  0  0  0  0  0  0  0  0  0  0  0
  -21.7418  -18.9432   10.5006 C   0  0  0  0  0  0  0  0  0  0  0  0
  -22.6752  -19.2682   11.4856 C   0  0  0  0  0  0  0  0  0  0  0  0
  -23.3324  -20.6375   11.4943 C   0  0  0  0  0  0  0  0  0  0  0  0
  -24.7392  -20.5231   12.0585 C   0  0  0  0  0  0  0  0  0  0  0  0
  -24.6628  -20.0442   13.5031 C   0  0  0  0  0  0  0  0  0  0  0  0
  -22.4041  -17.0747   12.4360 C   0  0  0  0  0  0  0  0  0  0  0  0
  -23.0058  -18.3294   12.4522 C   0  0  0  0  0  0  0  0  0  0  0  0
  -24.0240  -18.6776   13.5040 C   0  0  0  0  0  0  0  0  0  0  0  0
  -24.3347  -17.8756   14.4296 N   0  0  0  0  0  0  0  0  0  0  0  0
  -19.6152  -13.9267   10.2286 C   0  0  0  0  0  0  0  0  0  0  0  0
  -20.1983  -15.1295   10.3386 N   0  0  0  0  0  0  0  0  0  0  0  0
  -19.7306  -12.9999   11.2592 C   0  0  0  0  0  0  0  0  0  0  0  0
  -20.4491  -13.3472   12.3951 C   0  0  0  0  0  0  0  0  0  0  0  0
  -21.0380  -14.5997   12.4823 C   0  0  0  0  0  0  0  0  0  0  0  0
  -20.8806  -15.4912   11.4296 C   0  0  0  0  0  0  0  0  0  0  0  0
  -19.3227  -13.8074    7.8605 O   0  0  0  0  0  0  0  0  0  0  0  0
  -18.8155  -13.5991    8.9938 C   0  0  0  0  0  0  0  0  0  0  0  0
  -17.6495  -13.1668    9.1216 O   0  0  0  0  0  0  0  0  0  0  0  0
  -20.1991  -14.1318    7.7919 H   0  0  0  0  0  0  0  0  0  0  0  0
  -25.2182  -18.1974   15.3644 N   0  0  0  0  0  0  0  0  0  0  0  0
  -25.9454  -18.8333   15.1743 H   0  0  0  0  0  0  0  0  0  0  0  0
  -25.0942  -17.6261   16.5939 C   0  0  0  0  0  0  0  0  0  0  0  0
  -23.9340  -16.3589   16.9264 S   0  0  0  0  0  0  0  0  0  0  0  0
  -24.5717  -16.4411   18.4938 C   0  0  0  0  0  0  0  0  0  0  0  0
  -24.1031  -15.6069   19.4949 C   0  0  0  0  0  0  0  0  0  0  0  0
  -24.6393  -15.6933   20.7748 C   0  0  0  0  0  0  0  0  0  0  0  0
  -25.8520  -18.0618   17.6224 N   0  0  0  0  0  0  0  0  0  0  0  0
  -25.5769  -17.3627   18.7589 C   0  0  0  0  0  0  0  0  0  0  0  0
  -26.1194  -17.4413   20.0418 C   0  0  0  0  0  0  0  0  0  0  0  0
  -25.6496  -16.6116   21.0498 C   0  0  0  0  0  0  0  0  0  0  0  0
 18 19  1  0  0  0
 19 20  2  0  0  0
 19 12  1  0  0  0
 12 13  2  0  0  0
 12 14  1  0  0  0
 13 17  1  0  0  0
 14 15  2  0  0  0
 15 16  1  0  0  0
 16 17  2  0  0  0
 17  1  1  0  0  0
  1  2  1  0  0  0
  1  8  2  0  0  0
  2  3  2  0  0  0
  3  4  1  0  0  0
  4  5  1  0  0  0
  4  9  2  0  0  0
  5  6  1  0  0  0
  6  7  1  0  0  0
  7 10  1  0  0  0
  8  9  1  0  0  0
  9 10  1  0  0  0
 10 11  2  0  0  0
 11 22  1  0  0  0
 22 24  1  0  0  0
 24 25  1  0  0  0
 24 29  2  0  0  0
 25 26  1  0  0  0
 26 27  1  0  0  0
 26 30  2  0  0  0
 27 28  2  0  0  0
 28 32  1  0  0  0
 29 30  1  0  0  0
 30 31  1  0  0  0
 31 32  2  0  0  0
 18 21  1  0  0  0
 22 23  1  0  0  0
M  END
> <minimizedAffinity>
-10.16935

$$$$
3ZLN_H0Y_A_1197


 32 36  0  0  0  0  0  0  0  0999 V2000
  -23.2140  -17.6831   15.1800 C   0  0  0  0  0  0  0  0  0  0  0  0
  -23.2815  -19.0630   15.0453 C   0  0  0  0  0  0  0  0  0  0  0  0
  -22.7692  -19.6705   13.8929 C   0  0  0  0  0  0  0  0  0  0  0  0
  -22.1915  -18.9012   12.8821 C   0  0  0  0  0  0  0  0  0  0  0  0
  -21.6356  -19.5686   11.6362 C   0  0  0  0  0  0  0  0  0  0  0  0
  -20.4591  -18.7632   11.1094 C   0  0  0  0  0  0  0  0  0  0  0  0
  -20.9418  -17.3750   10.7069 C   0  0  0  0  0  0  0  0  0  0  0  0
  -22.6270  -16.9177   14.1724 C   0  0  0  0  0  0  0  0  0  0  0  0
  -22.1204  -17.5230   13.0262 C   0  0  0  0  0  0  0  0  0  0  0  0
  -21.4832  -16.6978   11.9414 C   0  0  0  0  0  0  0  0  0  0  0  0
  -21.4254  -15.4371   12.0028 N   0  0  0  0  0  0  0  0  0  0  0  0
  -25.1300  -17.2198   18.1826 C   0  0  0  0  0  0  0  0  0  0  0  0
  -24.6199  -17.7292   17.0516 N   0  0  0  0  0  0  0  0  0  0  0  0
  -24.6837  -15.9905   18.6560 C   0  0  0  0  0  0  0  0  0  0  0  0
  -23.7142  -15.3069   17.9350 C   0  0  0  0  0  0  0  0  0  0  0  0
  -23.2080  -15.8566   16.7667 C   0  0  0  0  0  0  0  0  0  0  0  0
  -23.6982  -17.0810   16.3327 C   0  0  0  0  0  0  0  0  0  0  0  0
  -27.0447  -18.6463   18.2627 O   0  0  0  0  0  0  0  0  0  0  0  0
  -26.2050  -17.9766   18.9195 C   0  0  0  0  0  0  0  0  0  0  0  0
  -26.2653  -17.8889   20.1651 O   0  0  0  0  0  0  0  0  0  0  0  0
  -26.9774  -18.6962   17.3295 H   0  0  0  0  0  0  0  0  0  0  0  0
  -20.8801  -14.7154   11.0333 N   0  0  0  0  0  0  0  0  0  0  0  0
  -21.2119  -14.7796   10.1086 H   0  0  0  0  0  0  0  0  0  0  0  0
  -19.8499  -13.8834   11.3491 C   0  0  0  0  0  0  0  0  0  0  0  0
  -18.5817  -13.4870   10.2103 S   0  0  0  0  0  0  0  0  0  0  0  0
  -17.9716  -12.5652   11.4941 C   0  0  0  0  0  0  0  0  0  0  0  0
  -16.8087  -11.8275   11.3479 C   0  0  0  0  0  0  0  0  0  0  0  0
  -16.3248  -11.0801   12.4157 C   0  0  0  0  0  0  0  0  0  0  0  0
  -19.7556  -13.3640   12.5914 N   0  0  0  0  0  0  0  0  0  0  0  0
  -18.6602  -12.5614   12.7007 C   0  0  0  0  0  0  0  0  0  0  0  0
  -18.1773  -11.8036   13.7679 C   0  0  0  0  0  0  0  0  0  0  0  0
  -17.0097  -11.0671   13.6283 C   0  0  0  0  0  0  0  0  0  0  0  0
 18 19  1  0  0  0
 19 20  2  0  0  0
 19 12  1  0  0  0
 12 13  2  0  0  0
 12 14  1  0  0  0
 13 17  1  0  0  0
 14 15  2  0  0  0
 15 16  1  0  0  0
 16 17  2  0  0  0
 17  1  1  0  0  0
  1  2  1  0  0  0
  1  8  2  0  0  0
  2  3  2  0  0  0
  3  4  1  0  0  0
  4  5  1  0  0  0
  4  9  2  0  0  0
  5  6  1  0  0  0
  6  7  1  0  0  0
  7 10  1  0  0  0
  8  9  1  0  0  0
  9 10  1  0  0  0
 10 11  2  0  0  0
 11 22  1  0  0  0
 22 24  1  0  0  0
 24 25  1  0  0  0
 24 29  2  0  0  0
 25 26  1  0  0  0
 26 27  1  0  0  0
 26 30  2  0  0  0
 27 28  2  0  0  0
 28 32  1  0  0  0
 29 30  1  0  0  0
 30 31  1  0  0  0
 31 32  2  0  0  0
 18 21  1  0  0  0
 22 23  1  0  0  0
M  END
> <minimizedAffinity>
-9.64156

$$$$
3ZLN_H0Y_A_1197


 32 36  0  0  0  0  0  0  0  0999 V2000
  -17.1389  -11.3156   13.1449 C   0  0  0  0  0  0  0  0  0  0  0  0
  -16.4035  -11.4361   11.9739 C   0  0  0  0  0  0  0  0  0  0  0  0
  -16.8809  -12.2486   10.9388 C   0  0  0  0  0  0  0  0  0  0  0  0
  -18.0880  -12.9352   11.0748 C   0  0  0  0  0  0  0  0  0  0  0  0
  -18.6002  -13.8125    9.9457 C   0  0  0  0  0  0  0  0  0  0  0  0
  -20.1202  -13.8077    9.9469 C   0  0  0  0  0  0  0  0  0  0  0  0
  -20.6226  -14.4072   11.2547 C   0  0  0  0  0  0  0  0  0  0  0  0
  -18.3502  -11.9952   13.2740 C   0  0  0  0  0  0  0  0  0  0  0  0
  -18.8221  -12.8046   12.2450 C   0  0  0  0  0  0  0  0  0  0  0  0
  -20.1308  -13.5342   12.3825 C   0  0  0  0  0  0  0  0  0  0  0  0
  -20.8213  -13.4815   13.4393 N   0  0  0  0  0  0  0  0  0  0  0  0
  -17.2049   -8.9216   15.8218 C   0  0  0  0  0  0  0  0  0  0  0  0
  -17.5665   -9.7367   14.8199 N   0  0  0  0  0  0  0  0  0  0  0  0
  -15.8749   -8.8599   16.2238 C   0  0  0  0  0  0  0  0  0  0  0  0
  -14.9392   -9.6470   15.5665 C   0  0  0  0  0  0  0  0  0  0  0  0
  -15.3419  -10.4775   14.5314 C   0  0  0  0  0  0  0  0  0  0  0  0
  -16.6803  -10.4907   14.1623 C   0  0  0  0  0  0  0  0  0  0  0  0
  -19.4456   -8.1490   16.1224 O   0  0  0  0  0  0  0  0  0  0  0  0
  -18.2445   -8.0578   16.4887 C   0  0  0  0  0  0  0  0  0  0  0  0
  -17.8851   -7.2388   17.3621 O   0  0  0  0  0  0  0  0  0  0  0  0
  -19.6891   -8.7713   15.4656 H   0  0  0  0  0  0  0  0  0  0  0  0
  -21.9638  -14.1435   13.5602 N   0  0  0  0  0  0  0  0  0  0  0  0
  -22.8268  -13.6910   13.4193 H   0  0  0  0  0  0  0  0  0  0  0  0
  -21.9131  -15.4648   13.8841 C   0  0  0  0  0  0  0  0  0  0  0  0
  -21.6766  -16.0192   15.5270 S   0  0  0  0  0  0  0  0  0  0  0  0
  -21.7551  -17.5580   14.8224 C   0  0  0  0  0  0  0  0  0  0  0  0
  -21.6446  -18.6998   15.5982 C   0  0  0  0  0  0  0  0  0  0  0  0
  -21.7093  -19.9525   14.9985 C   0  0  0  0  0  0  0  0  0  0  0  0
  -22.0044  -16.4028   12.9176 N   0  0  0  0  0  0  0  0  0  0  0  0
  -21.9332  -17.6556   13.4480 C   0  0  0  0  0  0  0  0  0  0  0  0
  -22.0067  -18.9138   12.8499 C   0  0  0  0  0  0  0  0  0  0  0  0
  -21.8910  -20.0609   13.6220 C   0  0  0  0  0  0  0  0  0  0  0  0
 18 19  1  0  0  0
 19 20  2  0  0  0
 19 12  1  0  0  0
 12 13  2  0  0  0
 12 14  1  0  0  0
 13 17  1  0  0  0
 14 15  2  0  0  0
 15 16  1  0  0  0
 16 17  2  0  0  0
 17  1  1  0  0  0
  1  2  1  0  0  0
  1  8  2  0  0  0
  2  3  2  0  0  0
  3  4  1  0  0  0
  4  5  1  0  0  0
  4  9  2  0  0  0
  5  6  1  0  0  0
  6  7  1  0  0  0
  7 10  1  0  0  0
  8  9  1  0  0  0
  9 10  1  0  0  0
 10 11  2  0  0  0
 11 22  1  0  0  0
 22 24  1  0  0  0
 24 25  1  0  0  0
 24 29  2  0  0  0
 25 26  1  0  0  0
 26 27  1  0  0  0
 26 30  2  0  0  0
 27 28  2  0  0  0
 28 32  1  0  0  0
 29 30  1  0  0  0
 30 31  1  0  0  0
 31 32  2  0  0  0
 18 21  1  0  0  0
 22 23  1  0  0  0
M  END
> <minimizedAffinity>
-9.62955

$$$$
3ZLN_H0Y_A_1197


 32 36  0  0  0  0  0  0  0  0999 V2000
  -22.1470  -17.8022   13.1791 C   0  0  0  0  0  0  0  0  0  0  0  0
  -22.0921  -19.1708   12.9539 C   0  0  0  0  0  0  0  0  0  0  0  0
  -21.5387  -19.6532   11.7620 C   0  0  0  0  0  0  0  0  0  0  0  0
  -21.0419  -18.7706   10.8021 C   0  0  0  0  0  0  0  0  0  0  0  0
  -20.4406  -19.3025    9.5127 C   0  0  0  0  0  0  0  0  0  0  0  0
  -19.3459  -18.3618    9.0359 C   0  0  0  0  0  0  0  0  0  0  0  0
  -19.9547  -16.9993    8.7277 C   0  0  0  0  0  0  0  0  0  0  0  0
  -21.6404  -16.9229   12.2221 C   0  0  0  0  0  0  0  0  0  0  0  0
  -21.0929  -17.4040   11.0366 C   0  0  0  0  0  0  0  0  0  0  0  0
  -20.5425  -16.4556   10.0062 C   0  0  0  0  0  0  0  0  0  0  0  0
  -20.5971  -15.2016   10.1505 N   0  0  0  0  0  0  0  0  0  0  0  0
  -24.3311  -17.5076   16.0153 C   0  0  0  0  0  0  0  0  0  0  0  0
  -23.7689  -17.9054   14.8644 N   0  0  0  0  0  0  0  0  0  0  0  0
  -23.7589  -16.4740   16.7492 C   0  0  0  0  0  0  0  0  0  0  0  0
  -22.6092  -15.8651   16.2647 C   0  0  0  0  0  0  0  0  0  0  0  0
  -22.0524  -16.2952   15.0696 C   0  0  0  0  0  0  0  0  0  0  0  0
  -22.6719  -17.3227   14.3709 C   0  0  0  0  0  0  0  0  0  0  0  0
  -26.2070  -17.6914   17.4834 O   0  0  0  0  0  0  0  0  0  0  0  0
  -25.5978  -18.1711   16.4915 C   0  0  0  0  0  0  0  0  0  0  0  0
  -25.9937  -19.2085   15.9172 O   0  0  0  0  0  0  0  0  0  0  0  0
  -25.8897  -16.9124   17.8962 H   0  0  0  0  0  0  0  0  0  0  0  0
  -20.1279  -14.3720    9.2287 N   0  0  0  0  0  0  0  0  0  0  0  0
  -20.5565  -14.3047    8.3450 H   0  0  0  0  0  0  0  0  0  0  0  0
  -19.0383  -13.6156    9.5355 C   0  0  0  0  0  0  0  0  0  0  0  0
  -18.6961  -13.0823   11.1667 S   0  0  0  0  0  0  0  0  0  0  0  0
  -17.3539  -12.3420   10.4451 C   0  0  0  0  0  0  0  0  0  0  0  0
  -16.4479  -11.6208   11.2047 C   0  0  0  0  0  0  0  0  0  0  0  0
  -15.3548  -11.0195   10.5912 C   0  0  0  0  0  0  0  0  0  0  0  0
  -18.1970  -13.2132    8.5596 N   0  0  0  0  0  0  0  0  0  0  0  0
  -17.1763  -12.4714    9.0733 C   0  0  0  0  0  0  0  0  0  0  0  0
  -16.0738  -11.8744    8.4614 C   0  0  0  0  0  0  0  0  0  0  0  0
  -15.1662  -11.1461    9.2171 C   0  0  0  0  0  0  0  0  0  0  0  0
 18 19  1  0  0  0
 19 20  2  0  0  0
 19 12  1  0  0  0
 12 13  2  0  0  0
 12 14  1  0  0  0
 13 17  1  0  0  0
 14 15  2  0  0  0
 15 16  1  0  0  0
 16 17  2  0  0  0
 17  1  1  0  0  0
  1  2  1  0  0  0
  1  8  2  0  0  0
  2  3  2  0  0  0
  3  4  1  0  0  0
  4  5  1  0  0  0
  4  9  2  0  0  0
  5  6  1  0  0  0
  6  7  1  0  0  0
  7 10  1  0  0  0
  8  9  1  0  0  0
  9 10  1  0  0  0
 10 11  2  0  0  0
 11 22  1  0  0  0
 22 24  1  0  0  0
 24 25  1  0  0  0
 24 29  2  0  0  0
 25 26  1  0  0  0
 26 27  1  0  0  0
 26 30  2  0  0  0
 27 28  2  0  0  0
 28 32  1  0  0  0
 29 30  1  0  0  0
 30 31  1  0  0  0
 31 32  2  0  0  0
 18 21  1  0  0  0
 22 23  1  0  0  0
M  END
> <minimizedAffinity>
-9.31868

$$$$
3ZLN_H0Y_A_1197


 32 36  0  0  0  0  0  0  0  0999 V2000
  -21.0204  -14.8716   12.2668 C   0  0  0  0  0  0  0  0  0  0  0  0
  -20.9453  -14.0970   13.4162 C   0  0  0  0  0  0  0  0  0  0  0  0
  -21.6104  -14.5143   14.5751 C   0  0  0  0  0  0  0  0  0  0  0  0
  -22.3451  -15.7006   14.5835 C   0  0  0  0  0  0  0  0  0  0  0  0
  -23.0615  -16.1474   15.8461 C   0  0  0  0  0  0  0  0  0  0  0  0
  -23.1020  -17.6660   15.8979 C   0  0  0  0  0  0  0  0  0  0  0  0
  -23.9021  -18.1871   14.7103 C   0  0  0  0  0  0  0  0  0  0  0  0
  -21.7473  -16.0621   12.2813 C   0  0  0  0  0  0  0  0  0  0  0  0
  -22.4100  -16.4741   13.4335 C   0  0  0  0  0  0  0  0  0  0  0  0
  -23.1905  -17.7605   13.4504 C   0  0  0  0  0  0  0  0  0  0  0  0
  -23.3144  -18.4844   12.4222 N   0  0  0  0  0  0  0  0  0  0  0  0
  -20.0786  -14.6875    8.8055 C   0  0  0  0  0  0  0  0  0  0  0  0
  -20.6799  -15.0262    9.9556 N   0  0  0  0  0  0  0  0  0  0  0  0
  -19.0848  -13.7145    8.7995 C   0  0  0  0  0  0  0  0  0  0  0  0
  -18.7282  -13.1138    9.9991 C   0  0  0  0  0  0  0  0  0  0  0  0
  -19.3647  -13.4872   11.1733 C   0  0  0  0  0  0  0  0  0  0  0  0
  -20.3411  -14.4731   11.1243 C   0  0  0  0  0  0  0  0  0  0  0  0
  -21.3084  -14.8418    6.7631 O   0  0  0  0  0  0  0  0  0  0  0  0
  -20.4703  -15.3861    7.5288 C   0  0  0  0  0  0  0  0  0  0  0  0
  -19.9861  -16.5111    7.2781 O   0  0  0  0  0  0  0  0  0  0  0  0
  -21.6563  -13.9976    6.9737 H   0  0  0  0  0  0  0  0  0  0  0  0
  -24.0206  -19.6065   12.4398 N   0  0  0  0  0  0  0  0  0  0  0  0
  -24.3672  -19.9716   13.2858 H   0  0  0  0  0  0  0  0  0  0  0  0
  -24.2540  -20.2409   11.2581 C   0  0  0  0  0  0  0  0  0  0  0  0
  -22.9706  -20.6344   10.1355 S   0  0  0  0  0  0  0  0  0  0  0  0
  -24.2340  -21.2671    9.2006 C   0  0  0  0  0  0  0  0  0  0  0  0
  -23.9812  -21.8608    7.9753 C   0  0  0  0  0  0  0  0  0  0  0  0
  -25.0336  -22.3711    7.2236 C   0  0  0  0  0  0  0  0  0  0  0  0
  -25.5162  -20.5524   10.8947 N   0  0  0  0  0  0  0  0  0  0  0  0
  -25.5329  -21.1803    9.6858 C   0  0  0  0  0  0  0  0  0  0  0  0
  -26.5862  -21.7011    8.9337 C   0  0  0  0  0  0  0  0  0  0  0  0
  -26.3389  -22.2919    7.7029 C   0  0  0  0  0  0  0  0  0  0  0  0
 18 19  1  0  0  0
 19 20  2  0  0  0
 19 12  1  0  0  0
 12 13  2  0  0  0
 12 14  1  0  0  0
 13 17  1  0  0  0
 14 15  2  0  0  0
 15 16  1  0  0  0
 16 17  2  0  0  0
 17  1  1  0  0  0
  1  2  1  0  0  0
  1  8  2  0  0  0
  2  3  2  0  0  0
  3  4  1  0  0  0
  4  5  1  0  0  0
  4  9  2  0  0  0
  5  6  1  0  0  0
  6  7  1  0  0  0
  7 10  1  0  0  0
  8  9  1  0  0  0
  9 10  1  0  0  0
 10 11  2  0  0  0
 11 22  1  0  0  0
 22 24  1  0  0  0
 24 25  1  0  0  0
 24 29  2  0  0  0
 25 26  1  0  0  0
 26 27  1  0  0  0
 26 30  2  0  0  0
 27 28  2  0  0  0
 28 32  1  0  0  0
 29 30  1  0  0  0
 30 31  1  0  0  0
 31 32  2  0  0  0
 18 21  1  0  0  0
 22 23  1  0  0  0
M  END
> <minimizedAffinity>
-9.22354

$$$$
3ZLN_H0Y_A_1197


 32 36  0  0  0  0  0  0  0  0999 V2000
  -21.7219  -15.3476   13.4211 C   0  0  0  0  0  0  0  0  0  0  0  0
  -21.1808  -14.1764   13.9333 C   0  0  0  0  0  0  0  0  0  0  0  0
  -20.2875  -13.4303   13.1557 C   0  0  0  0  0  0  0  0  0  0  0  0
  -19.9392  -13.8535   11.8724 C   0  0  0  0  0  0  0  0  0  0  0  0
  -18.9712  -13.0365   11.0342 C   0  0  0  0  0  0  0  0  0  0  0  0
  -19.3193  -13.1882    9.5624 C   0  0  0  0  0  0  0  0  0  0  0  0
  -19.1555  -14.6477    9.1562 C   0  0  0  0  0  0  0  0  0  0  0  0
  -21.3796  -15.7627   12.1342 C   0  0  0  0  0  0  0  0  0  0  0  0
  -20.4894  -15.0211   11.3634 C   0  0  0  0  0  0  0  0  0  0  0  0
  -20.1235  -15.4666    9.9735 C   0  0  0  0  0  0  0  0  0  0  0  0
  -20.5648  -16.5402    9.4744 N   0  0  0  0  0  0  0  0  0  0  0  0
  -24.4491  -17.5491   14.2068 C   0  0  0  0  0  0  0  0  0  0  0  0
  -23.5460  -16.8101   13.5456 N   0  0  0  0  0  0  0  0  0  0  0  0
  -24.4339  -17.5878   15.5970 C   0  0  0  0  0  0  0  0  0  0  0  0
  -23.4778  -16.8462   16.2774 C   0  0  0  0  0  0  0  0  0  0  0  0
  -22.5591  -16.0882   15.5670 C   0  0  0  0  0  0  0  0  0  0  0  0
  -22.6273  -16.0754   14.1803 C   0  0  0  0  0  0  0  0  0  0  0  0
  -26.6865  -17.9162   13.4538 O   0  0  0  0  0  0  0  0  0  0  0  0
  -25.4922  -18.3142   13.4335 C   0  0  0  0  0  0  0  0  0  0  0  0
  -25.1567  -19.3520   12.8226 O   0  0  0  0  0  0  0  0  0  0  0  0
  -26.9121  -17.1349   13.9192 H   0  0  0  0  0  0  0  0  0  0  0  0
  -20.2218  -16.9361    8.2563 N   0  0  0  0  0  0  0  0  0  0  0  0
  -20.5418  -16.4538    7.4599 H   0  0  0  0  0  0  0  0  0  0  0  0
  -19.4160  -18.0267    8.1350 C   0  0  0  0  0  0  0  0  0  0  0  0
  -19.2947  -19.2466    9.3838 S   0  0  0  0  0  0  0  0  0  0  0  0
  -18.1884  -19.9621    8.3187 C   0  0  0  0  0  0  0  0  0  0  0  0
  -17.5664  -21.1572    8.6393 C   0  0  0  0  0  0  0  0  0  0  0  0
  -16.6599  -21.7252    7.7513 C   0  0  0  0  0  0  0  0  0  0  0  0
  -18.6403  -18.1769    7.0406 N   0  0  0  0  0  0  0  0  0  0  0  0
  -17.9148  -19.3277    7.1134 C   0  0  0  0  0  0  0  0  0  0  0  0
  -17.0114  -19.9043    6.2202 C   0  0  0  0  0  0  0  0  0  0  0  0
  -16.3814  -21.0986    6.5391 C   0  0  0  0  0  0  0  0  0  0  0  0
 18 19  1  0  0  0
 19 20  2  0  0  0
 19 12  1  0  0  0
 12 13  2  0  0  0
 12 14  1  0  0  0
 13 17  1  0  0  0
 14 15  2  0  0  0
 15 16  1  0  0  0
 16 17  2  0  0  0
 17  1  1  0  0  0
  1  2  1  0  0  0
  1  8  2  0  0  0
  2  3  2  0  0  0
  3  4  1  0  0  0
  4  5  1  0  0  0
  4  9  2  0  0  0
  5  6  1  0  0  0
  6  7  1  0  0  0
  7 10  1  0  0  0
  8  9  1  0  0  0
  9 10  1  0  0  0
 10 11  2  0  0  0
 11 22  1  0  0  0
 22 24  1  0  0  0
 24 25  1  0  0  0
 24 29  2  0  0  0
 25 26  1  0  0  0
 26 27  1  0  0  0
 26 30  2  0  0  0
 27 28  2  0  0  0
 28 32  1  0  0  0
 29 30  1  0  0  0
 30 31  1  0  0  0
 31 32  2  0  0  0
 18 21  1  0  0  0
 22 23  1  0  0  0
M  END
> <minimizedAffinity>
-9.22046

$$$$
3ZLN_H0Y_A_1197


 32 36  0  0  0  0  0  0  0  0999 V2000
  -22.1044  -15.7430   13.4742 C   0  0  0  0  0  0  0  0  0  0  0  0
  -21.6172  -14.6081   14.1077 C   0  0  0  0  0  0  0  0  0  0  0  0
  -20.7055  -13.7819   13.4401 C   0  0  0  0  0  0  0  0  0  0  0  0
  -20.2853  -14.0894   12.1455 C   0  0  0  0  0  0  0  0  0  0  0  0
  -19.2979  -13.1860   11.4272 C   0  0  0  0  0  0  0  0  0  0  0  0
  -19.5704  -13.2212    9.9323 C   0  0  0  0  0  0  0  0  0  0  0  0
  -19.3519  -14.6381    9.4160 C   0  0  0  0  0  0  0  0  0  0  0  0
  -21.6901  -16.0423   12.1763 C   0  0  0  0  0  0  0  0  0  0  0  0
  -20.7818  -15.2212   11.5150 C   0  0  0  0  0  0  0  0  0  0  0  0
  -20.3383  -15.5417   10.1133 C   0  0  0  0  0  0  0  0  0  0  0  0
  -20.7288  -16.5785    9.5058 N   0  0  0  0  0  0  0  0  0  0  0  0
  -24.1712  -17.0397   16.1101 C   0  0  0  0  0  0  0  0  0  0  0  0
  -23.2852  -16.3121   15.4141 N   0  0  0  0  0  0  0  0  0  0  0  0
  -24.8750  -18.0639   15.4854 C   0  0  0  0  0  0  0  0  0  0  0  0
  -24.6365  -18.3179   14.1417 C   0  0  0  0  0  0  0  0  0  0  0  0
  -23.7115  -17.5515   13.4486 C   0  0  0  0  0  0  0  0  0  0  0  0
  -23.0276  -16.5497   14.1243 C   0  0  0  0  0  0  0  0  0  0  0  0
  -23.7187  -15.8318   18.1211 O   0  0  0  0  0  0  0  0  0  0  0  0
  -24.3781  -16.7552   17.5756 C   0  0  0  0  0  0  0  0  0  0  0  0
  -25.1694  -17.4701   18.2280 O   0  0  0  0  0  0  0  0  0  0  0  0
  -23.1320  -15.3100   17.6097 H   0  0  0  0  0  0  0  0  0  0  0  0
  -20.3177  -16.8644    8.2781 N   0  0  0  0  0  0  0  0  0  0  0  0
  -20.4863  -16.2444    7.5321 H   0  0  0  0  0  0  0  0  0  0  0  0
  -19.6565  -18.0370    8.0753 C   0  0  0  0  0  0  0  0  0  0  0  0
  -20.0905  -19.5142    8.9072 S   0  0  0  0  0  0  0  0  0  0  0  0
  -18.8003  -20.1704    8.0269 C   0  0  0  0  0  0  0  0  0  0  0  0
  -18.4653  -21.5084    8.1500 C   0  0  0  0  0  0  0  0  0  0  0  0
  -17.4010  -22.0252    7.4198 C   0  0  0  0  0  0  0  0  0  0  0  0
  -18.5978  -18.0815    7.2391 N   0  0  0  0  0  0  0  0  0  0  0  0
  -18.0812  -19.3405    7.1757 C   0  0  0  0  0  0  0  0  0  0  0  0
  -17.0193  -19.8635    6.4374 C   0  0  0  0  0  0  0  0  0  0  0  0
  -16.6762  -21.2021    6.5614 C   0  0  0  0  0  0  0  0  0  0  0  0
 18 19  1  0  0  0
 19 20  2  0  0  0
 19 12  1  0  0  0
 12 13  2  0  0  0
 12 14  1  0  0  0
 13 17  1  0  0  0
 14 15  2  0  0  0
 15 16  1  0  0  0
 16 17  2  0  0  0
 17  1  1  0  0  0
  1  2  1  0  0  0
  1  8  2  0  0  0
  2  3  2  0  0  0
  3  4  1  0  0  0
  4  5  1  0  0  0
  4  9  2  0  0  0
  5  6  1  0  0  0
  6  7  1  0  0  0
  7 10  1  0  0  0
  8  9  1  0  0  0
  9 10  1  0  0  0
 10 11  2  0  0  0
 11 22  1  0  0  0
 22 24  1  0  0  0
 24 25  1  0  0  0
 24 29  2  0  0  0
 25 26  1  0  0  0
 26 27  1  0  0  0
 26 30  2  0  0  0
 27 28  2  0  0  0
 28 32  1  0  0  0
 29 30  1  0  0  0
 30 31  1  0  0  0
 31 32  2  0  0  0
 18 21  1  0  0  0
 22 23  1  0  0  0
M  END
> <minimizedAffinity>
-9.09069

$$$$
3ZLN_H0Y_A_1197


 32 36  0  0  0  0  0  0  0  0999 V2000
  -17.3645  -11.1496   13.5369 C   0  0  0  0  0  0  0  0  0  0  0  0
  -18.5687  -11.6938   13.9617 C   0  0  0  0  0  0  0  0  0  0  0  0
  -19.2938  -12.5246   13.0993 C   0  0  0  0  0  0  0  0  0  0  0  0
  -18.8153  -12.8098   11.8199 C   0  0  0  0  0  0  0  0  0  0  0  0
  -19.6070  -13.7144   10.8915 C   0  0  0  0  0  0  0  0  0  0  0  0
  -18.6520  -14.4759    9.9867 C   0  0  0  0  0  0  0  0  0  0  0  0
  -17.8881  -13.4851    9.1167 C   0  0  0  0  0  0  0  0  0  0  0  0
  -16.8839  -11.4446   12.2611 C   0  0  0  0  0  0  0  0  0  0  0  0
  -17.6072  -12.2687   11.4041 C   0  0  0  0  0  0  0  0  0  0  0  0
  -17.0867  -12.5904   10.0295 C   0  0  0  0  0  0  0  0  0  0  0  0
  -16.0122  -12.0957    9.5854 N   0  0  0  0  0  0  0  0  0  0  0  0
  -16.6349   -8.5695   15.9270 C   0  0  0  0  0  0  0  0  0  0  0  0
  -17.2695   -9.3808   15.0679 N   0  0  0  0  0  0  0  0  0  0  0  0
  -15.2745   -8.7344   16.1649 C   0  0  0  0  0  0  0  0  0  0  0  0
  -14.5944   -9.7419   15.4945 C   0  0  0  0  0  0  0  0  0  0  0  0
  -15.2763  -10.5630   14.6089 C   0  0  0  0  0  0  0  0  0  0  0  0
  -16.6316  -10.3464   14.3991 C   0  0  0  0  0  0  0  0  0  0  0  0
  -16.8209   -6.3753   16.8536 O   0  0  0  0  0  0  0  0  0  0  0  0
  -17.4008   -7.4660   16.6104 C   0  0  0  0  0  0  0  0  0  0  0  0
  -18.5834   -7.6725   16.9591 O   0  0  0  0  0  0  0  0  0  0  0  0
  -15.9337   -6.2456   16.5815 H   0  0  0  0  0  0  0  0  0  0  0  0
  -15.5703  -12.3683    8.3653 N   0  0  0  0  0  0  0  0  0  0  0  0
  -15.9653  -13.0991    7.8370 H   0  0  0  0  0  0  0  0  0  0  0  0
  -14.5565  -11.6119    7.8620 C   0  0  0  0  0  0  0  0  0  0  0  0
  -14.0452  -10.1134    8.6073 S   0  0  0  0  0  0  0  0  0  0  0  0
  -12.9371  -10.0700    7.3265 C   0  0  0  0  0  0  0  0  0  0  0  0
  -12.0300   -9.0303    7.2081 C   0  0  0  0  0  0  0  0  0  0  0  0
  -11.1313   -9.0136    6.1475 C   0  0  0  0  0  0  0  0  0  0  0  0
  -13.9329  -11.9861    6.7248 N   0  0  0  0  0  0  0  0  0  0  0  0
  -12.9533  -11.0992    6.3933 C   0  0  0  0  0  0  0  0  0  0  0  0
  -12.0445  -11.0847    5.3349 C   0  0  0  0  0  0  0  0  0  0  0  0
  -11.1374  -10.0424    5.2088 C   0  0  0  0  0  0  0  0  0  0  0  0
 18 19  1  0  0  0
 19 20  2  0  0  0
 19 12  1  0  0  0
 12 13  2  0  0  0
 12 14  1  0  0  0
 13 17  1  0  0  0
 14 15  2  0  0  0
 15 16  1  0  0  0
 16 17  2  0  0  0
 17  1  1  0  0  0
  1  2  1  0  0  0
  1  8  2  0  0  0
  2  3  2  0  0  0
  3  4  1  0  0  0
  4  5  1  0  0  0
  4  9  2  0  0  0
  5  6  1  0  0  0
  6  7  1  0  0  0
  7 10  1  0  0  0
  8  9  1  0  0  0
  9 10  1  0  0  0
 10 11  2  0  0  0
 11 22  1  0  0  0
 22 24  1  0  0  0
 24 25  1  0  0  0
 24 29  2  0  0  0
 25 26  1  0  0  0
 26 27  1  0  0  0
 26 30  2  0  0  0
 27 28  2  0  0  0
 28 32  1  0  0  0
 29 30  1  0  0  0
 30 31  1  0  0  0
 31 32  2  0  0  0
 18 21  1  0  0  0
 22 23  1  0  0  0
M  END
> <minimizedAffinity>
-8.96673

$$$$
