5D3H_57G_A_201


 34 35  0  0  0  0  0  0  0  0999 V2000
    4.2387   56.8067   20.8796 C   0  0  0  0  0  0  0  0  0  0  0  0
    4.3128   55.8587   21.8145 N   0  0  0  0  0  0  0  0  0  0  0  0
    3.4737   56.7068   19.9350 O   0  0  0  0  0  0  0  0  0  0  0  0
    5.0694   55.9093   22.4423 H   0  0  0  0  0  0  0  0  0  0  0  0
    3.4339   54.8202   21.9831 C   0  0  0  0  0  0  0  0  0  0  0  0
    3.3161   53.6807   21.1613 C   0  0  0  0  0  0  0  0  0  0  0  0
    1.6818   53.9470   23.4055 C   0  0  0  0  0  0  0  0  0  0  0  0
    1.5739   52.8230   22.5853 C   0  0  0  0  0  0  0  0  0  0  0  0
    2.6034   54.9437   23.0982 C   0  0  0  0  0  0  0  0  0  0  0  0
    2.3854   52.6625   21.4565 C   0  0  0  0  0  0  0  0  0  0  0  0
    2.6979   56.0598   23.8791 O   0  0  0  0  0  0  0  0  0  0  0  0
    3.3200   56.7279   23.6680 H   0  0  0  0  0  0  0  0  0  0  0  0
    0.8983   50.7817   20.5143 O   0  0  0  0  0  0  0  0  0  0  0  0
    2.5500   51.6655   19.1637 O   0  0  0  0  0  0  0  0  0  0  0  0
    2.2468   51.3375   20.5194 S   0  0  0  0  0  0  0  0  0  0  0  0
    3.2165   50.2768   21.0220 N   0  0  0  0  0  0  0  0  0  0  0  0
    4.6063   50.3072   20.5559 C   0  0  0  0  0  0  0  0  0  0  0  0
    4.9845   49.0751   19.7714 C   0  0  0  0  0  0  0  0  0  0  0  0
    3.5573   49.5261   23.2596 C   0  0  0  0  0  0  0  0  0  0  0  0
    2.7757   49.2873   21.9975 C   0  0  0  0  0  0  0  0  0  0  0  0
    5.0091   58.0880   20.9374 C   0  0  0  0  0  0  0  0  0  0  0  0
    4.6206   59.3215   21.6998 C   0  0  0  0  0  0  0  0  0  0  0  0
    5.6381   60.2213   21.3932 C   0  0  0  0  0  0  0  0  0  0  0  0
    6.6042   59.5494   20.4755 C   0  0  0  0  0  0  0  0  0  0  0  0
    7.8816   60.0225   19.8255 C   0  0  0  0  0  0  0  0  0  0  0  0
    6.1394   58.3119   20.2579 N   0  0  0  0  0  0  0  0  0  0  0  0
    6.5746   57.6510   19.6721 H   0  0  0  0  0  0  0  0  0  0  0  0
    3.7556   59.3427   24.0636 C   0  0  0  0  0  0  0  0  0  0  0  0
    3.4107   59.5377   22.5903 C   0  0  0  0  0  0  0  0  0  0  0  0
    5.7510   61.6332   21.8916 C   0  0  0  0  0  0  0  0  0  0  0  0
    5.8951   61.8925   23.0737 O   0  0  0  0  0  0  0  0  0  0  0  0
    5.6704   62.7138   20.8562 C   0  0  0  0  0  0  0  0  0  0  0  0
    6.9145   63.2898   20.4933 O   0  0  0  0  0  0  0  0  0  0  0  0
    7.4800   62.6115   20.0920 H   0  0  0  0  0  0  0  0  0  0  0  0
 25 24  1  0  0  0
 18 17  1  0  0  0
 14 15  2  0  0  0
 24 26  1  0  0  0
 24 23  2  0  0  0
 26 21  1  0  0  0
 17 16  1  0  0  0
 32 33  1  0  0  0
 32 30  1  0  0  0
  3  1  2  0  0  0
 23 30  1  0  0  0
 23 22  1  0  0  0
 21  1  1  0  0  0
 21 22  2  0  0  0
 16 15  1  0  0  0
 16 20  1  0  0  0
 30 31  2  0  0  0
 15 13  2  0  0  0
 15 10  1  0  0  0
  1  2  1  0  0  0
 22 29  1  0  0  0
  6 10  2  0  0  0
  6  5  1  0  0  0
 20 19  1  0  0  0
 10  8  1  0  0  0
  2  5  1  0  0  0
 29 28  1  0  0  0
  5  9  2  0  0  0
  8  7  2  0  0  0
  9  7  1  0  0  0
  9 11  1  0  0  0
 26 27  1  0  0  0
  2  4  1  0  0  0
 11 12  1  0  0  0
 33 34  1  0  0  0
M  END
> <minimizedAffinity>
-7.09023

$$$$
5D3H_57G_A_201


 34 35  0  0  0  0  0  0  0  0999 V2000
    4.3721   56.8335   20.8457 C   0  0  0  0  0  0  0  0  0  0  0  0
    4.4255   55.9007   21.7970 N   0  0  0  0  0  0  0  0  0  0  0  0
    3.6705   56.6923   19.8582 O   0  0  0  0  0  0  0  0  0  0  0  0
    5.1400   55.9886   22.4686 H   0  0  0  0  0  0  0  0  0  0  0  0
    3.5784   54.8308   21.9274 C   0  0  0  0  0  0  0  0  0  0  0  0
    3.5675   53.6688   21.1291 C   0  0  0  0  0  0  0  0  0  0  0  0
    1.7610   53.9186   23.2393 C   0  0  0  0  0  0  0  0  0  0  0  0
    1.7593   52.7725   22.4429 C   0  0  0  0  0  0  0  0  0  0  0  0
    2.6627   54.9454   22.9748 C   0  0  0  0  0  0  0  0  0  0  0  0
    2.6585   52.6199   21.3815 C   0  0  0  0  0  0  0  0  0  0  0  0
    2.6544   56.0821   23.7312 O   0  0  0  0  0  0  0  0  0  0  0  0
    3.2635   56.7704   23.5492 H   0  0  0  0  0  0  0  0  0  0  0  0
    3.9587   50.9187   19.9489 O   0  0  0  0  0  0  0  0  0  0  0  0
    2.2147   50.1570   21.2573 O   0  0  0  0  0  0  0  0  0  0  0  0
    2.6428   51.2691   20.4714 S   0  0  0  0  0  0  0  0  0  0  0  0
    1.6864   51.4740   19.3048 N   0  0  0  0  0  0  0  0  0  0  0  0
    1.5398   52.8165   18.7340 C   0  0  0  0  0  0  0  0  0  0  0  0
    0.1272   53.1110   18.2931 C   0  0  0  0  0  0  0  0  0  0  0  0
    1.7563   49.8852   17.5278 C   0  0  0  0  0  0  0  0  0  0  0  0
    0.9775   50.3359   18.7324 C   0  0  0  0  0  0  0  0  0  0  0  0
    5.0880   58.1447   20.9311 C   0  0  0  0  0  0  0  0  0  0  0  0
    4.6617   59.3355   21.7397 C   0  0  0  0  0  0  0  0  0  0  0  0
    5.6338   60.2878   21.4443 C   0  0  0  0  0  0  0  0  0  0  0  0
    6.6099   59.6877   20.4883 C   0  0  0  0  0  0  0  0  0  0  0  0
    7.8533   60.2360   19.8314 C   0  0  0  0  0  0  0  0  0  0  0  0
    6.1945   58.4387   20.2391 N   0  0  0  0  0  0  0  0  0  0  0  0
    6.6462   57.8161   19.6246 H   0  0  0  0  0  0  0  0  0  0  0  0
    3.8424   59.2461   24.1182 C   0  0  0  0  0  0  0  0  0  0  0  0
    3.4610   59.4708   22.6581 C   0  0  0  0  0  0  0  0  0  0  0  0
    5.6957   61.6869   21.9860 C   0  0  0  0  0  0  0  0  0  0  0  0
    5.8605   61.9149   23.1718 O   0  0  0  0  0  0  0  0  0  0  0  0
    5.5369   62.7949   20.9894 C   0  0  0  0  0  0  0  0  0  0  0  0
    6.7471   63.4111   20.5808 O   0  0  0  0  0  0  0  0  0  0  0  0
    7.3062   62.7587   20.1306 H   0  0  0  0  0  0  0  0  0  0  0  0
 25 24  1  0  0  0
 18 17  1  0  0  0
 14 15  2  0  0  0
 24 26  1  0  0  0
 24 23  2  0  0  0
 26 21  1  0  0  0
 17 16  1  0  0  0
 32 33  1  0  0  0
 32 30  1  0  0  0
  3  1  2  0  0  0
 23 30  1  0  0  0
 23 22  1  0  0  0
 21  1  1  0  0  0
 21 22  2  0  0  0
 16 15  1  0  0  0
 16 20  1  0  0  0
 30 31  2  0  0  0
 15 13  2  0  0  0
 15 10  1  0  0  0
  1  2  1  0  0  0
 22 29  1  0  0  0
  6 10  2  0  0  0
  6  5  1  0  0  0
 20 19  1  0  0  0
 10  8  1  0  0  0
  2  5  1  0  0  0
 29 28  1  0  0  0
  5  9  2  0  0  0
  8  7  2  0  0  0
  9  7  1  0  0  0
  9 11  1  0  0  0
 26 27  1  0  0  0
  2  4  1  0  0  0
 11 12  1  0  0  0
 33 34  1  0  0  0
M  END
> <minimizedAffinity>
-7.05010

$$$$
5D3H_57G_A_201


 34 35  0  0  0  0  0  0  0  0999 V2000
    4.1903   58.3199   23.9435 C   0  0  0  0  0  0  0  0  0  0  0  0
    4.9411   57.5924   23.1158 N   0  0  0  0  0  0  0  0  0  0  0  0
    3.0154   58.5421   23.7035 O   0  0  0  0  0  0  0  0  0  0  0  0
    5.9135   57.6033   23.2693 H   0  0  0  0  0  0  0  0  0  0  0  0
    4.4855   56.8306   22.0711 C   0  0  0  0  0  0  0  0  0  0  0  0
    3.9911   55.5126   22.1486 C   0  0  0  0  0  0  0  0  0  0  0  0
    4.0650   56.8236   19.6880 C   0  0  0  0  0  0  0  0  0  0  0  0
    3.5772   55.5190   19.7763 C   0  0  0  0  0  0  0  0  0  0  0  0
    4.5242   57.4710   20.8314 C   0  0  0  0  0  0  0  0  0  0  0  0
    3.5244   54.8407   20.9992 C   0  0  0  0  0  0  0  0  0  0  0  0
    5.0283   58.7374   20.7511 O   0  0  0  0  0  0  0  0  0  0  0  0
    5.3362   59.1690   21.5237 H   0  0  0  0  0  0  0  0  0  0  0  0
    3.9018   52.3198   20.6261 O   0  0  0  0  0  0  0  0  0  0  0  0
    2.6254   52.9906   22.4301 O   0  0  0  0  0  0  0  0  0  0  0  0
    2.9427   53.3213   21.0782 S   0  0  0  0  0  0  0  0  0  0  0  0
    1.6900   53.2296   20.2179 N   0  0  0  0  0  0  0  0  0  0  0  0
    1.6784   52.3101   19.0760 C   0  0  0  0  0  0  0  0  0  0  0  0
    0.8788   51.0589   19.3439 C   0  0  0  0  0  0  0  0  0  0  0  0
    0.0697   54.7372   19.3298 C   0  0  0  0  0  0  0  0  0  0  0  0
    0.5051   54.0034   20.5678 C   0  0  0  0  0  0  0  0  0  0  0  0
    4.6813   58.8551   25.2517 C   0  0  0  0  0  0  0  0  0  0  0  0
    5.1173   60.2656   25.5240 C   0  0  0  0  0  0  0  0  0  0  0  0
    5.5101   60.2271   26.8594 C   0  0  0  0  0  0  0  0  0  0  0  0
    5.3173   58.8384   27.3702 C   0  0  0  0  0  0  0  0  0  0  0  0
    5.5641   58.2118   28.7211 C   0  0  0  0  0  0  0  0  0  0  0  0
    4.8437   58.1098   26.3506 N   0  0  0  0  0  0  0  0  0  0  0  0
    4.6409   57.1479   26.4034 H   0  0  0  0  0  0  0  0  0  0  0  0
    3.7370   62.0546   24.4147 C   0  0  0  0  0  0  0  0  0  0  0  0
    5.1284   61.4492   24.5741 C   0  0  0  0  0  0  0  0  0  0  0  0
    6.0442   61.3808   27.6584 C   0  0  0  0  0  0  0  0  0  0  0  0
    7.1619   61.3690   28.1443 O   0  0  0  0  0  0  0  0  0  0  0  0
    5.1253   62.5517   27.8345 C   0  0  0  0  0  0  0  0  0  0  0  0
    5.5436   63.7438   27.1902 O   0  0  0  0  0  0  0  0  0  0  0  0
    5.5721   63.6002   26.2313 H   0  0  0  0  0  0  0  0  0  0  0  0
 25 24  1  0  0  0
 18 17  1  0  0  0
 14 15  2  0  0  0
 24 26  1  0  0  0
 24 23  2  0  0  0
 26 21  1  0  0  0
 17 16  1  0  0  0
 32 33  1  0  0  0
 32 30  1  0  0  0
  3  1  2  0  0  0
 23 30  1  0  0  0
 23 22  1  0  0  0
 21  1  1  0  0  0
 21 22  2  0  0  0
 16 15  1  0  0  0
 16 20  1  0  0  0
 30 31  2  0  0  0
 15 13  2  0  0  0
 15 10  1  0  0  0
  1  2  1  0  0  0
 22 29  1  0  0  0
  6 10  2  0  0  0
  6  5  1  0  0  0
 20 19  1  0  0  0
 10  8  1  0  0  0
  2  5  1  0  0  0
 29 28  1  0  0  0
  5  9  2  0  0  0
  8  7  2  0  0  0
  9  7  1  0  0  0
  9 11  1  0  0  0
 26 27  1  0  0  0
  2  4  1  0  0  0
 11 12  1  0  0  0
 33 34  1  0  0  0
M  END
> <minimizedAffinity>
-6.98532

$$$$
5D3H_57G_A_201


 34 35  0  0  0  0  0  0  0  0999 V2000
    3.7562   55.4190   20.8792 C   0  0  0  0  0  0  0  0  0  0  0  0
    2.4459   55.2747   20.6780 N   0  0  0  0  0  0  0  0  0  0  0  0
    4.5289   54.4903   20.7131 O   0  0  0  0  0  0  0  0  0  0  0  0
    1.8623   55.9983   21.0021 H   0  0  0  0  0  0  0  0  0  0  0  0
    1.8355   54.2130   20.0621 C   0  0  0  0  0  0  0  0  0  0  0  0
    1.5037   52.9779   20.6556 C   0  0  0  0  0  0  0  0  0  0  0  0
    0.8731   53.4443   17.9791 C   0  0  0  0  0  0  0  0  0  0  0  0
    0.5489   52.2255   18.5768 C   0  0  0  0  0  0  0  0  0  0  0  0
    1.5212   54.4289   18.7193 C   0  0  0  0  0  0  0  0  0  0  0  0
    0.8494   51.9681   19.9192 C   0  0  0  0  0  0  0  0  0  0  0  0
    1.8667   55.6143   18.1364 O   0  0  0  0  0  0  0  0  0  0  0  0
    2.3029   56.2739   18.6390 H   0  0  0  0  0  0  0  0  0  0  0  0
   -0.4596   50.6800   21.7259 O   0  0  0  0  0  0  0  0  0  0  0  0
   -0.2140   49.7164   19.6415 O   0  0  0  0  0  0  0  0  0  0  0  0
    0.4531   50.5408   20.5968 S   0  0  0  0  0  0  0  0  0  0  0  0
    1.7255   49.8527   21.0717 N   0  0  0  0  0  0  0  0  0  0  0  0
    2.7762   49.5501   20.0950 C   0  0  0  0  0  0  0  0  0  0  0  0
    4.0802   50.2409   20.4095 C   0  0  0  0  0  0  0  0  0  0  0  0
    1.8786   48.0623   22.6396 C   0  0  0  0  0  0  0  0  0  0  0  0
    1.9119   49.5578   22.4872 C   0  0  0  0  0  0  0  0  0  0  0  0
    4.3993   56.7201   21.2429 C   0  0  0  0  0  0  0  0  0  0  0  0
    4.1309   57.5252   22.4813 C   0  0  0  0  0  0  0  0  0  0  0  0
    4.9432   58.6444   22.3179 C   0  0  0  0  0  0  0  0  0  0  0  0
    5.6733   58.5150   21.0230 C   0  0  0  0  0  0  0  0  0  0  0  0
    6.6767   59.4058   20.3317 C   0  0  0  0  0  0  0  0  0  0  0  0
    5.2751   57.3646   20.4637 N   0  0  0  0  0  0  0  0  0  0  0  0
    5.5874   57.0353   19.5901 H   0  0  0  0  0  0  0  0  0  0  0  0
    3.9129   56.4113   24.7280 C   0  0  0  0  0  0  0  0  0  0  0  0
    3.1990   57.1996   23.6341 C   0  0  0  0  0  0  0  0  0  0  0  0
    5.0667   59.7954   23.2742 C   0  0  0  0  0  0  0  0  0  0  0  0
    5.3891   59.6373   24.4389 O   0  0  0  0  0  0  0  0  0  0  0  0
    4.7654   61.1558   22.7221 C   0  0  0  0  0  0  0  0  0  0  0  0
    5.8326   62.0861   22.8054 O   0  0  0  0  0  0  0  0  0  0  0  0
    6.5799   61.7692   22.2744 H   0  0  0  0  0  0  0  0  0  0  0  0
 25 24  1  0  0  0
 18 17  1  0  0  0
 14 15  2  0  0  0
 24 26  1  0  0  0
 24 23  2  0  0  0
 26 21  1  0  0  0
 17 16  1  0  0  0
 32 33  1  0  0  0
 32 30  1  0  0  0
  3  1  2  0  0  0
 23 30  1  0  0  0
 23 22  1  0  0  0
 21  1  1  0  0  0
 21 22  2  0  0  0
 16 15  1  0  0  0
 16 20  1  0  0  0
 30 31  2  0  0  0
 15 13  2  0  0  0
 15 10  1  0  0  0
  1  2  1  0  0  0
 22 29  1  0  0  0
  6 10  2  0  0  0
  6  5  1  0  0  0
 20 19  1  0  0  0
 10  8  1  0  0  0
  2  5  1  0  0  0
 29 28  1  0  0  0
  5  9  2  0  0  0
  8  7  2  0  0  0
  9  7  1  0  0  0
  9 11  1  0  0  0
 26 27  1  0  0  0
  2  4  1  0  0  0
 11 12  1  0  0  0
 33 34  1  0  0  0
M  END
> <minimizedAffinity>
-6.84809

$$$$
5D3H_57G_A_201


 34 35  0  0  0  0  0  0  0  0999 V2000
    4.2479   58.1736   23.8137 C   0  0  0  0  0  0  0  0  0  0  0  0
    4.6721   57.0212   23.2941 N   0  0  0  0  0  0  0  0  0  0  0  0
    3.3862   58.8381   23.2629 O   0  0  0  0  0  0  0  0  0  0  0  0
    5.4874   56.6296   23.6831 H   0  0  0  0  0  0  0  0  0  0  0  0
    4.0793   56.3307   22.2689 C   0  0  0  0  0  0  0  0  0  0  0  0
    3.1077   55.3167   22.3936 C   0  0  0  0  0  0  0  0  0  0  0  0
    3.9631   56.1140   19.8616 C   0  0  0  0  0  0  0  0  0  0  0  0
    3.0016   55.1115   19.9966 C   0  0  0  0  0  0  0  0  0  0  0  0
    4.5038   56.7134   20.9954 C   0  0  0  0  0  0  0  0  0  0  0  0
    2.5514   54.6966   21.2551 C   0  0  0  0  0  0  0  0  0  0  0  0
    5.4644   57.6762   20.8746 O   0  0  0  0  0  0  0  0  0  0  0  0
    5.8253   58.0767   21.6410 H   0  0  0  0  0  0  0  0  0  0  0  0
    0.9968   53.3017   22.7631 O   0  0  0  0  0  0  0  0  0  0  0  0
    0.2500   53.9030   20.6621 O   0  0  0  0  0  0  0  0  0  0  0  0
    1.4219   53.5304   21.3868 S   0  0  0  0  0  0  0  0  0  0  0  0
    1.9863   52.2341   20.8220 N   0  0  0  0  0  0  0  0  0  0  0  0
    1.6206   51.8343   19.4596 C   0  0  0  0  0  0  0  0  0  0  0  0
    0.5804   50.7418   19.4327 C   0  0  0  0  0  0  0  0  0  0  0  0
    4.0194   50.9955   20.6820 C   0  0  0  0  0  0  0  0  0  0  0  0
    2.9225   51.4407   21.6090 C   0  0  0  0  0  0  0  0  0  0  0  0
    4.7182   58.7116   25.1283 C   0  0  0  0  0  0  0  0  0  0  0  0
    5.1518   60.1222   25.4040 C   0  0  0  0  0  0  0  0  0  0  0  0
    5.5227   60.0868   26.7457 C   0  0  0  0  0  0  0  0  0  0  0  0
    5.3196   58.6997   27.2570 C   0  0  0  0  0  0  0  0  0  0  0  0
    5.5435   58.0764   28.6133 C   0  0  0  0  0  0  0  0  0  0  0  0
    4.8616   57.9690   26.2317 N   0  0  0  0  0  0  0  0  0  0  0  0
    4.6566   57.0075   26.2837 H   0  0  0  0  0  0  0  0  0  0  0  0
    3.8354   62.0227   24.4084 C   0  0  0  0  0  0  0  0  0  0  0  0
    5.1801   61.3033   24.4512 C   0  0  0  0  0  0  0  0  0  0  0  0
    6.0455   61.2419   27.5502 C   0  0  0  0  0  0  0  0  0  0  0  0
    7.1540   61.2286   28.0566 O   0  0  0  0  0  0  0  0  0  0  0  0
    5.1269   62.4160   27.7050 C   0  0  0  0  0  0  0  0  0  0  0  0
    5.6089   63.6305   27.1538 O   0  0  0  0  0  0  0  0  0  0  0  0
    5.7149   63.5307   26.1948 H   0  0  0  0  0  0  0  0  0  0  0  0
 25 24  1  0  0  0
 18 17  1  0  0  0
 14 15  2  0  0  0
 24 26  1  0  0  0
 24 23  2  0  0  0
 26 21  1  0  0  0
 17 16  1  0  0  0
 32 33  1  0  0  0
 32 30  1  0  0  0
  3  1  2  0  0  0
 23 30  1  0  0  0
 23 22  1  0  0  0
 21  1  1  0  0  0
 21 22  2  0  0  0
 16 15  1  0  0  0
 16 20  1  0  0  0
 30 31  2  0  0  0
 15 13  2  0  0  0
 15 10  1  0  0  0
  1  2  1  0  0  0
 22 29  1  0  0  0
  6 10  2  0  0  0
  6  5  1  0  0  0
 20 19  1  0  0  0
 10  8  1  0  0  0
  2  5  1  0  0  0
 29 28  1  0  0  0
  5  9  2  0  0  0
  8  7  2  0  0  0
  9  7  1  0  0  0
  9 11  1  0  0  0
 26 27  1  0  0  0
  2  4  1  0  0  0
 11 12  1  0  0  0
 33 34  1  0  0  0
M  END
> <minimizedAffinity>
-6.62093

$$$$
5D3H_57G_A_201


 34 35  0  0  0  0  0  0  0  0999 V2000
    4.0702   57.0339   23.0705 C   0  0  0  0  0  0  0  0  0  0  0  0
    3.8798   58.1676   22.3947 N   0  0  0  0  0  0  0  0  0  0  0  0
    4.7945   56.9945   24.0509 O   0  0  0  0  0  0  0  0  0  0  0  0
    3.4378   58.0956   21.5180 H   0  0  0  0  0  0  0  0  0  0  0  0
    4.2421   59.4239   22.8066 C   0  0  0  0  0  0  0  0  0  0  0  0
    3.7620   60.1031   23.9450 C   0  0  0  0  0  0  0  0  0  0  0  0
    5.6692   61.3138   22.3094 C   0  0  0  0  0  0  0  0  0  0  0  0
    5.1874   61.9769   23.4390 C   0  0  0  0  0  0  0  0  0  0  0  0
    5.1903   60.0459   21.9927 C   0  0  0  0  0  0  0  0  0  0  0  0
    4.2345   61.3898   24.2790 C   0  0  0  0  0  0  0  0  0  0  0  0
    5.6355   59.4001   20.8751 O   0  0  0  0  0  0  0  0  0  0  0  0
    5.3100   58.5466   20.6663 H   0  0  0  0  0  0  0  0  0  0  0  0
    3.6546   63.6270   25.4169 O   0  0  0  0  0  0  0  0  0  0  0  0
    2.3569   61.7768   25.8923 O   0  0  0  0  0  0  0  0  0  0  0  0
    3.6937   62.1802   25.5966 S   0  0  0  0  0  0  0  0  0  0  0  0
    4.6028   61.8527   26.7732 N   0  0  0  0  0  0  0  0  0  0  0  0
    4.5539   60.5082   27.3557 C   0  0  0  0  0  0  0  0  0  0  0  0
    5.8747   59.7847   27.2623 C   0  0  0  0  0  0  0  0  0  0  0  0
    5.1060   63.2320   28.6524 C   0  0  0  0  0  0  0  0  0  0  0  0
    5.5463   62.8484   27.2668 C   0  0  0  0  0  0  0  0  0  0  0  0
    3.3714   55.7508   22.7479 C   0  0  0  0  0  0  0  0  0  0  0  0
    3.4032   55.0318   21.4305 C   0  0  0  0  0  0  0  0  0  0  0  0
    2.5739   53.9339   21.6447 C   0  0  0  0  0  0  0  0  0  0  0  0
    2.0603   53.9940   23.0445 C   0  0  0  0  0  0  0  0  0  0  0  0
    1.1407   53.0880   23.8266 C   0  0  0  0  0  0  0  0  0  0  0  0
    2.5719   55.1002   23.6007 N   0  0  0  0  0  0  0  0  0  0  0  0
    2.3834   55.3967   24.5203 H   0  0  0  0  0  0  0  0  0  0  0  0
    3.2743   56.1901   19.1993 C   0  0  0  0  0  0  0  0  0  0  0  0
    4.1569   55.4092   20.1683 C   0  0  0  0  0  0  0  0  0  0  0  0
    2.2412   52.8671   20.6418 C   0  0  0  0  0  0  0  0  0  0  0  0
    1.4172   53.0415   19.7609 O   0  0  0  0  0  0  0  0  0  0  0  0
    2.9734   51.5671   20.7840 C   0  0  0  0  0  0  0  0  0  0  0  0
    4.3481   51.6130   20.4386 O   0  0  0  0  0  0  0  0  0  0  0  0
    4.8119   52.2190   21.0373 H   0  0  0  0  0  0  0  0  0  0  0  0
 25 24  1  0  0  0
 18 17  1  0  0  0
 14 15  2  0  0  0
 24 26  1  0  0  0
 24 23  2  0  0  0
 26 21  1  0  0  0
 17 16  1  0  0  0
 32 33  1  0  0  0
 32 30  1  0  0  0
  3  1  2  0  0  0
 23 30  1  0  0  0
 23 22  1  0  0  0
 21  1  1  0  0  0
 21 22  2  0  0  0
 16 15  1  0  0  0
 16 20  1  0  0  0
 30 31  2  0  0  0
 15 13  2  0  0  0
 15 10  1  0  0  0
  1  2  1  0  0  0
 22 29  1  0  0  0
  6 10  2  0  0  0
  6  5  1  0  0  0
 20 19  1  0  0  0
 10  8  1  0  0  0
  2  5  1  0  0  0
 29 28  1  0  0  0
  5  9  2  0  0  0
  8  7  2  0  0  0
  9  7  1  0  0  0
  9 11  1  0  0  0
 26 27  1  0  0  0
  2  4  1  0  0  0
 11 12  1  0  0  0
 33 34  1  0  0  0
M  END
> <minimizedAffinity>
-6.53912

$$$$
5D3H_57G_A_201


 34 35  0  0  0  0  0  0  0  0999 V2000
    4.0467   57.1295   24.2016 C   0  0  0  0  0  0  0  0  0  0  0  0
    2.8091   56.6430   24.1035 N   0  0  0  0  0  0  0  0  0  0  0  0
    5.0140   56.3905   24.2768 O   0  0  0  0  0  0  0  0  0  0  0  0
    2.0683   57.2789   24.2305 H   0  0  0  0  0  0  0  0  0  0  0  0
    2.4717   55.3403   23.8423 C   0  0  0  0  0  0  0  0  0  0  0  0
    2.7875   54.6104   22.6782 C   0  0  0  0  0  0  0  0  0  0  0  0
    1.3728   53.3819   24.7441 C   0  0  0  0  0  0  0  0  0  0  0  0
    1.6912   52.6687   23.5875 C   0  0  0  0  0  0  0  0  0  0  0  0
    1.7559   54.7146   24.8644 C   0  0  0  0  0  0  0  0  0  0  0  0
    2.4045   53.2598   22.5386 C   0  0  0  0  0  0  0  0  0  0  0  0
    1.4259   55.4287   25.9804 O   0  0  0  0  0  0  0  0  0  0  0  0
    1.6861   56.3256   26.0567 H   0  0  0  0  0  0  0  0  0  0  0  0
    4.0143   52.8361   20.5725 O   0  0  0  0  0  0  0  0  0  0  0  0
    2.9499   51.0283   21.5380 O   0  0  0  0  0  0  0  0  0  0  0  0
    2.7717   52.4042   21.2021 S   0  0  0  0  0  0  0  0  0  0  0  0
    1.6344   52.5466   20.2000 N   0  0  0  0  0  0  0  0  0  0  0  0
    0.5276   51.5859   20.2405 C   0  0  0  0  0  0  0  0  0  0  0  0
    0.5457   50.6271   19.0756 C   0  0  0  0  0  0  0  0  0  0  0  0
    0.4033   54.4842   19.5542 C   0  0  0  0  0  0  0  0  0  0  0  0
    1.6253   53.6596   19.2584 C   0  0  0  0  0  0  0  0  0  0  0  0
    4.3684   58.5899   24.1515 C   0  0  0  0  0  0  0  0  0  0  0  0
    4.4893   59.4282   22.9120 C   0  0  0  0  0  0  0  0  0  0  0  0
    4.8342   60.6833   23.4067 C   0  0  0  0  0  0  0  0  0  0  0  0
    4.9190   60.5995   24.8941 C   0  0  0  0  0  0  0  0  0  0  0  0
    5.2441   61.6275   25.9504 C   0  0  0  0  0  0  0  0  0  0  0  0
    4.6447   59.3319   25.2297 N   0  0  0  0  0  0  0  0  0  0  0  0
    4.6463   58.9897   26.1529 H   0  0  0  0  0  0  0  0  0  0  0  0
    5.4704   58.2049   20.9429 C   0  0  0  0  0  0  0  0  0  0  0  0
    4.2853   59.0102   21.4673 C   0  0  0  0  0  0  0  0  0  0  0  0
    5.0863   61.9178   22.5899 C   0  0  0  0  0  0  0  0  0  0  0  0
    4.4188   62.9289   22.7225 O   0  0  0  0  0  0  0  0  0  0  0  0
    6.2027   61.8407   21.5929 C   0  0  0  0  0  0  0  0  0  0  0  0
    6.4632   63.0451   20.8909 O   0  0  0  0  0  0  0  0  0  0  0  0
    6.7448   63.7301   21.5173 H   0  0  0  0  0  0  0  0  0  0  0  0
 25 24  1  0  0  0
 18 17  1  0  0  0
 14 15  2  0  0  0
 24 26  1  0  0  0
 24 23  2  0  0  0
 26 21  1  0  0  0
 17 16  1  0  0  0
 32 33  1  0  0  0
 32 30  1  0  0  0
  3  1  2  0  0  0
 23 30  1  0  0  0
 23 22  1  0  0  0
 21  1  1  0  0  0
 21 22  2  0  0  0
 16 15  1  0  0  0
 16 20  1  0  0  0
 30 31  2  0  0  0
 15 13  2  0  0  0
 15 10  1  0  0  0
  1  2  1  0  0  0
 22 29  1  0  0  0
  6 10  2  0  0  0
  6  5  1  0  0  0
 20 19  1  0  0  0
 10  8  1  0  0  0
  2  5  1  0  0  0
 29 28  1  0  0  0
  5  9  2  0  0  0
  8  7  2  0  0  0
  9  7  1  0  0  0
  9 11  1  0  0  0
 26 27  1  0  0  0
  2  4  1  0  0  0
 11 12  1  0  0  0
 33 34  1  0  0  0
M  END
> <minimizedAffinity>
-6.23695

$$$$
5D3H_57G_A_201


 34 35  0  0  0  0  0  0  0  0999 V2000
    4.0106   56.9370   24.0423 C   0  0  0  0  0  0  0  0  0  0  0  0
    5.1996   57.4551   24.3520 N   0  0  0  0  0  0  0  0  0  0  0  0
    3.0372   57.1132   24.7556 O   0  0  0  0  0  0  0  0  0  0  0  0
    5.9754   57.1284   23.8415 H   0  0  0  0  0  0  0  0  0  0  0  0
    5.4426   58.4002   25.3148 C   0  0  0  0  0  0  0  0  0  0  0  0
    4.9927   59.7363   25.3095 C   0  0  0  0  0  0  0  0  0  0  0  0
    6.5034   58.7902   27.4545 C   0  0  0  0  0  0  0  0  0  0  0  0
    6.0525   60.1108   27.4392 C   0  0  0  0  0  0  0  0  0  0  0  0
    6.2049   57.9432   26.3912 C   0  0  0  0  0  0  0  0  0  0  0  0
    5.2886   60.6090   26.3778 C   0  0  0  0  0  0  0  0  0  0  0  0
    6.6641   56.6573   26.3841 O   0  0  0  0  0  0  0  0  0  0  0  0
    6.4604   56.0911   25.6659 H   0  0  0  0  0  0  0  0  0  0  0  0
    5.8056   63.1029   26.7651 O   0  0  0  0  0  0  0  0  0  0  0  0
    4.3359   62.5282   25.0788 O   0  0  0  0  0  0  0  0  0  0  0  0
    4.7665   62.1519   26.3867 S   0  0  0  0  0  0  0  0  0  0  0  0
    3.6065   62.2722   27.3654 N   0  0  0  0  0  0  0  0  0  0  0  0
    3.7088   63.2259   28.4742 C   0  0  0  0  0  0  0  0  0  0  0  0
    2.8455   64.4469   28.2738 C   0  0  0  0  0  0  0  0  0  0  0  0
    2.1836   60.6589   28.3948 C   0  0  0  0  0  0  0  0  0  0  0  0
    2.3931   61.4907   27.1599 C   0  0  0  0  0  0  0  0  0  0  0  0
    3.7426   56.1747   22.7830 C   0  0  0  0  0  0  0  0  0  0  0  0
    3.7579   56.7329   21.3895 C   0  0  0  0  0  0  0  0  0  0  0  0
    3.4125   55.6377   20.6020 C   0  0  0  0  0  0  0  0  0  0  0  0
    3.1955   54.4618   21.4947 C   0  0  0  0  0  0  0  0  0  0  0  0
    2.8134   53.0296   21.2097 C   0  0  0  0  0  0  0  0  0  0  0  0
    3.3977   54.8826   22.7504 N   0  0  0  0  0  0  0  0  0  0  0  0
    3.3043   54.3131   23.5480 H   0  0  0  0  0  0  0  0  0  0  0  0
    5.5739   58.4238   20.9662 C   0  0  0  0  0  0  0  0  0  0  0  0
    4.0733   58.1492   20.9445 C   0  0  0  0  0  0  0  0  0  0  0  0
    3.2733   55.6314   19.1069 C   0  0  0  0  0  0  0  0  0  0  0  0
    4.2305   55.7797   18.3673 O   0  0  0  0  0  0  0  0  0  0  0  0
    1.8883   55.4388   18.5674 C   0  0  0  0  0  0  0  0  0  0  0  0
    1.5794   54.1132   18.1692 O   0  0  0  0  0  0  0  0  0  0  0  0
    1.6230   53.5257   18.9398 H   0  0  0  0  0  0  0  0  0  0  0  0
 25 24  1  0  0  0
 18 17  1  0  0  0
 14 15  2  0  0  0
 24 26  1  0  0  0
 24 23  2  0  0  0
 26 21  1  0  0  0
 17 16  1  0  0  0
 32 33  1  0  0  0
 32 30  1  0  0  0
  3  1  2  0  0  0
 23 30  1  0  0  0
 23 22  1  0  0  0
 21  1  1  0  0  0
 21 22  2  0  0  0
 16 15  1  0  0  0
 16 20  1  0  0  0
 30 31  2  0  0  0
 15 13  2  0  0  0
 15 10  1  0  0  0
  1  2  1  0  0  0
 22 29  1  0  0  0
  6 10  2  0  0  0
  6  5  1  0  0  0
 20 19  1  0  0  0
 10  8  1  0  0  0
  2  5  1  0  0  0
 29 28  1  0  0  0
  5  9  2  0  0  0
  8  7  2  0  0  0
  9  7  1  0  0  0
  9 11  1  0  0  0
 26 27  1  0  0  0
  2  4  1  0  0  0
 11 12  1  0  0  0
 33 34  1  0  0  0
M  END
> <minimizedAffinity>
-6.07195

$$$$
5D3H_57G_A_201


 34 35  0  0  0  0  0  0  0  0999 V2000
    3.9124   55.1270   20.9457 C   0  0  0  0  0  0  0  0  0  0  0  0
    2.6291   54.9039   20.6603 N   0  0  0  0  0  0  0  0  0  0  0  0
    4.7644   54.2796   20.7382 O   0  0  0  0  0  0  0  0  0  0  0  0
    1.9743   55.5470   21.0165 H   0  0  0  0  0  0  0  0  0  0  0  0
    2.1363   53.8626   19.9172 C   0  0  0  0  0  0  0  0  0  0  0  0
    2.3039   52.4888   20.1857 C   0  0  0  0  0  0  0  0  0  0  0  0
    0.8093   53.2972   17.9742 C   0  0  0  0  0  0  0  0  0  0  0  0
    0.9813   51.9399   18.2496 C   0  0  0  0  0  0  0  0  0  0  0  0
    1.3926   54.2521   18.8019 C   0  0  0  0  0  0  0  0  0  0  0  0
    1.7220   51.5077   19.3556 C   0  0  0  0  0  0  0  0  0  0  0  0
    1.2526   55.5819   18.5257 O   0  0  0  0  0  0  0  0  0  0  0  0
    1.6473   56.2209   19.0860 H   0  0  0  0  0  0  0  0  0  0  0  0
    1.1469   49.0724   18.7430 O   0  0  0  0  0  0  0  0  0  0  0  0
    3.2716   49.5452   19.5147 O   0  0  0  0  0  0  0  0  0  0  0  0
    1.9016   49.9179   19.6611 S   0  0  0  0  0  0  0  0  0  0  0  0
    1.4404   49.6363   21.0845 N   0  0  0  0  0  0  0  0  0  0  0  0
    0.0896   50.0404   21.4864 C   0  0  0  0  0  0  0  0  0  0  0  0
    0.0798   50.8624   22.7516 C   0  0  0  0  0  0  0  0  0  0  0  0
    1.8483   47.4925   22.0460 C   0  0  0  0  0  0  0  0  0  0  0  0
    2.3136   48.9217   22.0076 C   0  0  0  0  0  0  0  0  0  0  0  0
    4.4305   56.4324   21.4616 C   0  0  0  0  0  0  0  0  0  0  0  0
    4.2846   56.9518   22.8626 C   0  0  0  0  0  0  0  0  0  0  0  0
    4.8970   58.2012   22.8063 C   0  0  0  0  0  0  0  0  0  0  0  0
    5.3922   58.4240   21.4164 C   0  0  0  0  0  0  0  0  0  0  0  0
    6.1260   59.5761   20.7743 C   0  0  0  0  0  0  0  0  0  0  0  0
    5.0572   57.3398   20.7043 N   0  0  0  0  0  0  0  0  0  0  0  0
    5.2480   57.2253   19.7453 H   0  0  0  0  0  0  0  0  0  0  0  0
    2.3906   57.0412   24.5182 C   0  0  0  0  0  0  0  0  0  0  0  0
    3.6281   56.2790   24.0541 C   0  0  0  0  0  0  0  0  0  0  0  0
    5.0358   59.1708   23.9444 C   0  0  0  0  0  0  0  0  0  0  0  0
    5.5955   58.8715   24.9848 O   0  0  0  0  0  0  0  0  0  0  0  0
    4.4420   60.5312   23.7370 C   0  0  0  0  0  0  0  0  0  0  0  0
    5.3653   61.6053   23.8092 O   0  0  0  0  0  0  0  0  0  0  0  0
    6.0207   61.5164   23.0997 H   0  0  0  0  0  0  0  0  0  0  0  0
 25 24  1  0  0  0
 18 17  1  0  0  0
 14 15  2  0  0  0
 24 26  1  0  0  0
 24 23  2  0  0  0
 26 21  1  0  0  0
 17 16  1  0  0  0
 32 33  1  0  0  0
 32 30  1  0  0  0
  3  1  2  0  0  0
 23 30  1  0  0  0
 23 22  1  0  0  0
 21  1  1  0  0  0
 21 22  2  0  0  0
 16 15  1  0  0  0
 16 20  1  0  0  0
 30 31  2  0  0  0
 15 13  2  0  0  0
 15 10  1  0  0  0
  1  2  1  0  0  0
 22 29  1  0  0  0
  6 10  2  0  0  0
  6  5  1  0  0  0
 20 19  1  0  0  0
 10  8  1  0  0  0
  2  5  1  0  0  0
 29 28  1  0  0  0
  5  9  2  0  0  0
  8  7  2  0  0  0
  9  7  1  0  0  0
  9 11  1  0  0  0
 26 27  1  0  0  0
  2  4  1  0  0  0
 11 12  1  0  0  0
 33 34  1  0  0  0
M  END
> <minimizedAffinity>
-6.03276

$$$$
5D3H_57G_A_201


 34 35  0  0  0  0  0  0  0  0999 V2000
    4.0934   56.6937   23.6255 C   0  0  0  0  0  0  0  0  0  0  0  0
    2.9081   56.1518   23.9072 N   0  0  0  0  0  0  0  0  0  0  0  0
    4.9732   56.0466   23.0827 O   0  0  0  0  0  0  0  0  0  0  0  0
    2.3140   56.6631   24.5029 H   0  0  0  0  0  0  0  0  0  0  0  0
    2.4394   54.9494   23.4449 C   0  0  0  0  0  0  0  0  0  0  0  0
    2.3743   54.5375   22.0982 C   0  0  0  0  0  0  0  0  0  0  0  0
    1.5318   52.8098   24.1190 C   0  0  0  0  0  0  0  0  0  0  0  0
    1.4722   52.4122   22.7825 C   0  0  0  0  0  0  0  0  0  0  0  0
    2.0063   54.0770   24.4449 C   0  0  0  0  0  0  0  0  0  0  0  0
    1.8935   53.2577   21.7500 C   0  0  0  0  0  0  0  0  0  0  0  0
    2.0434   54.4854   25.7473 O   0  0  0  0  0  0  0  0  0  0  0  0
    2.3638   55.3395   25.9616 H   0  0  0  0  0  0  0  0  0  0  0  0
    0.4673   52.7807   19.6583 O   0  0  0  0  0  0  0  0  0  0  0  0
    2.5901   53.6449   19.3745 O   0  0  0  0  0  0  0  0  0  0  0  0
    1.8222   52.7678   20.1982 S   0  0  0  0  0  0  0  0  0  0  0  0
    2.3783   51.3537   20.1036 N   0  0  0  0  0  0  0  0  0  0  0  0
    3.7355   51.0902   20.5918 C   0  0  0  0  0  0  0  0  0  0  0  0
    3.8160   49.8509   21.4485 C   0  0  0  0  0  0  0  0  0  0  0  0
    1.9745   50.0141   18.1725 C   0  0  0  0  0  0  0  0  0  0  0  0
    1.5449   50.2736   19.5898 C   0  0  0  0  0  0  0  0  0  0  0  0
    4.4250   58.1322   23.8698 C   0  0  0  0  0  0  0  0  0  0  0  0
    4.5847   59.1948   22.8215 C   0  0  0  0  0  0  0  0  0  0  0  0
    4.9234   60.3253   23.5605 C   0  0  0  0  0  0  0  0  0  0  0  0
    4.9670   59.9520   25.0046 C   0  0  0  0  0  0  0  0  0  0  0  0
    5.2691   60.7504   26.2493 C   0  0  0  0  0  0  0  0  0  0  0  0
    4.6761   58.6464   25.0790 N   0  0  0  0  0  0  0  0  0  0  0  0
    4.6505   58.1307   25.9173 H   0  0  0  0  0  0  0  0  0  0  0  0
    5.6612   58.4757   20.6628 C   0  0  0  0  0  0  0  0  0  0  0  0
    4.4178   59.0689   21.3182 C   0  0  0  0  0  0  0  0  0  0  0  0
    5.2050   61.6926   23.0073 C   0  0  0  0  0  0  0  0  0  0  0  0
    4.5410   62.6660   23.3187 O   0  0  0  0  0  0  0  0  0  0  0  0
    6.3467   61.7988   22.0422 C   0  0  0  0  0  0  0  0  0  0  0  0
    6.0395   62.4491   20.8199 O   0  0  0  0  0  0  0  0  0  0  0  0
    5.7862   63.3684   20.9976 H   0  0  0  0  0  0  0  0  0  0  0  0
 25 24  1  0  0  0
 18 17  1  0  0  0
 14 15  2  0  0  0
 24 26  1  0  0  0
 24 23  2  0  0  0
 26 21  1  0  0  0
 17 16  1  0  0  0
 32 33  1  0  0  0
 32 30  1  0  0  0
  3  1  2  0  0  0
 23 30  1  0  0  0
 23 22  1  0  0  0
 21  1  1  0  0  0
 21 22  2  0  0  0
 16 15  1  0  0  0
 16 20  1  0  0  0
 30 31  2  0  0  0
 15 13  2  0  0  0
 15 10  1  0  0  0
  1  2  1  0  0  0
 22 29  1  0  0  0
  6 10  2  0  0  0
  6  5  1  0  0  0
 20 19  1  0  0  0
 10  8  1  0  0  0
  2  5  1  0  0  0
 29 28  1  0  0  0
  5  9  2  0  0  0
  8  7  2  0  0  0
  9  7  1  0  0  0
  9 11  1  0  0  0
 26 27  1  0  0  0
  2  4  1  0  0  0
 11 12  1  0  0  0
 33 34  1  0  0  0
M  END
> <minimizedAffinity>
-6.00759

$$$$
