3N0N_P9B_A_263


 29 30  0  0  0  0  0  0  0  0999 V2000
   -3.2251    3.1970   12.4230 N   0  0  0  0  0  0  0  0  0  0  0  0
   -3.8579    3.5447   11.2100 C   0  0  0  0  0  0  0  0  0  0  0  0
   -5.0316    3.2883   10.9513 O   0  0  0  0  0  0  0  0  0  0  0  0
   -3.0204    4.1164   10.2215 N   0  0  0  0  0  0  0  0  0  0  0  0
   -2.2520    3.3225   12.5042 H   0  0  0  0  0  0  0  0  0  0  0  0
   -3.3867    4.2390    9.3160 H   0  0  0  0  0  0  0  0  0  0  0  0
   -1.6793    4.5231   10.4644 C   0  0  0  0  0  0  0  0  0  0  0  0
   -1.4446    5.7739   11.0068 C   0  0  0  0  0  0  0  0  0  0  0  0
   -2.4231    6.5846   11.4081 F   0  0  0  0  0  0  0  0  0  0  0  0
   -0.1470    6.2197   11.1717 C   0  0  0  0  0  0  0  0  0  0  0  0
   -0.0237    7.4106   11.7330 F   0  0  0  0  0  0  0  0  0  0  0  0
    0.9388    5.4278   10.7748 C   0  0  0  0  0  0  0  0  0  0  0  0
    2.2073    5.8223   10.9081 F   0  0  0  0  0  0  0  0  0  0  0  0
    0.6619    4.1808   10.2053 C   0  0  0  0  0  0  0  0  0  0  0  0
    1.6622    3.4129    9.8102 F   0  0  0  0  0  0  0  0  0  0  0  0
   -0.6477    3.7516   10.0247 C   0  0  0  0  0  0  0  0  0  0  0  0
   -0.9472    2.5757    9.4841 F   0  0  0  0  0  0  0  0  0  0  0  0
   -5.2364    1.6092   15.7729 C   0  0  0  0  0  0  0  0  0  0  0  0
   -4.5868    0.7261   14.7774 C   0  0  0  0  0  0  0  0  0  0  0  0
   -3.9364    1.2346   13.7147 C   0  0  0  0  0  0  0  0  0  0  0  0
   -3.9365    2.6774   13.5203 C   0  0  0  0  0  0  0  0  0  0  0  0
   -4.5191    3.5271   14.4181 C   0  0  0  0  0  0  0  0  0  0  0  0
   -5.2085    2.9683   15.5992 C   0  0  0  0  0  0  0  0  0  0  0  0
   -7.5667    1.1130   16.9936 N   0  0  0  0  0  0  0  0  0  0  0  0
   -5.7248   -0.4724   17.2013 O   0  0  0  0  0  0  0  0  0  0  0  0
   -6.0277    0.9308   17.1900 S   0  0  0  0  0  0  0  0  0  0  0  0
   -5.5720    1.6342   18.3404 O   0  0  0  0  0  0  0  0  0  0  0  0
   -7.8668    0.6001   16.1645 H   0  0  0  0  0  0  0  0  0  0  0  0
   -7.7796    2.1036   16.8761 H   0  0  0  0  0  0  0  0  0  0  0  0
 23 18  2  0  0  0
 19 18  1  0  0  0
 18 26  1  0  0  0
 24 26  1  0  0  0
 26 25  2  0  0  0
 27 26  2  0  0  0
 20 19  2  0  0  0
 21 20  1  0  0  0
  1 21  1  0  0  0
 21 22  2  0  0  0
 22 23  1  0  0  0
  2  1  1  0  0  0
  4  2  1  0  0  0
  3  2  2  0  0  0
  4  7  1  0  0  0
 16  7  2  0  0  0
  7  8  1  0  0  0
  8 10  2  0  0  0
  8  9  1  0  0  0
 12 10  1  0  0  0
 10 11  1  0  0  0
 14 12  2  0  0  0
 12 13  1  0  0  0
 15 14  1  0  0  0
 16 14  1  0  0  0
 17 16  1  0  0  0
 24 28  1  0  0  0
 24 29  1  0  0  0
  1  5  1  0  0  0
  4  6  1  0  0  0
M  END
> <minimizedAffinity>
-7.92560

$$$$
3N0N_P9B_A_263


 29 30  0  0  0  0  0  0  0  0999 V2000
   -3.3954    4.3989   13.0752 N   0  0  0  0  0  0  0  0  0  0  0  0
   -2.9057    5.7145   13.2244 C   0  0  0  0  0  0  0  0  0  0  0  0
   -3.1451    6.4287   14.1954 O   0  0  0  0  0  0  0  0  0  0  0  0
   -2.1999    6.2374   12.1137 N   0  0  0  0  0  0  0  0  0  0  0  0
   -3.2663    3.9387   12.2145 H   0  0  0  0  0  0  0  0  0  0  0  0
   -1.9685    7.1943   12.1185 H   0  0  0  0  0  0  0  0  0  0  0  0
   -1.8069    5.4568   10.9916 C   0  0  0  0  0  0  0  0  0  0  0  0
   -0.6486    4.7045   11.0694 C   0  0  0  0  0  0  0  0  0  0  0  0
    0.0709    4.5957   12.1857 F   0  0  0  0  0  0  0  0  0  0  0  0
   -0.2060    4.0065    9.9617 C   0  0  0  0  0  0  0  0  0  0  0  0
    0.8879    3.2867   10.1452 F   0  0  0  0  0  0  0  0  0  0  0  0
   -0.9053    4.0685    8.7490 C   0  0  0  0  0  0  0  0  0  0  0  0
   -0.5092    3.4173    7.6529 F   0  0  0  0  0  0  0  0  0  0  0  0
   -2.0567    4.8610    8.7007 C   0  0  0  0  0  0  0  0  0  0  0  0
   -2.7343    4.9502    7.5697 F   0  0  0  0  0  0  0  0  0  0  0  0
   -2.4807    5.5756    9.8148 C   0  0  0  0  0  0  0  0  0  0  0  0
   -3.5666    6.3407    9.8035 F   0  0  0  0  0  0  0  0  0  0  0  0
   -5.4512    2.2881   16.0930 C   0  0  0  0  0  0  0  0  0  0  0  0
   -6.1524    3.2563   15.2191 C   0  0  0  0  0  0  0  0  0  0  0  0
   -5.4973    3.9212   14.2498 C   0  0  0  0  0  0  0  0  0  0  0  0
   -4.0616    3.7221   14.1137 C   0  0  0  0  0  0  0  0  0  0  0  0
   -3.3782    2.8340   14.8958 C   0  0  0  0  0  0  0  0  0  0  0  0
   -4.1045    2.0840   15.9410 C   0  0  0  0  0  0  0  0  0  0  0  0
   -5.6372   -0.0105   17.4526 N   0  0  0  0  0  0  0  0  0  0  0  0
   -6.1902    2.0973   18.5484 O   0  0  0  0  0  0  0  0  0  0  0  0
   -6.3350    1.3802   17.3133 S   0  0  0  0  0  0  0  0  0  0  0  0
   -7.6826    1.2351   16.8786 O   0  0  0  0  0  0  0  0  0  0  0  0
   -4.6751    0.1216   17.7646 H   0  0  0  0  0  0  0  0  0  0  0  0
   -5.6397   -0.4842   16.5493 H   0  0  0  0  0  0  0  0  0  0  0  0
 23 18  2  0  0  0
 19 18  1  0  0  0
 18 26  1  0  0  0
 24 26  1  0  0  0
 26 25  2  0  0  0
 27 26  2  0  0  0
 20 19  2  0  0  0
 21 20  1  0  0  0
  1 21  1  0  0  0
 21 22  2  0  0  0
 22 23  1  0  0  0
  2  1  1  0  0  0
  4  2  1  0  0  0
  3  2  2  0  0  0
  4  7  1  0  0  0
 16  7  2  0  0  0
  7  8  1  0  0  0
  8 10  2  0  0  0
  8  9  1  0  0  0
 12 10  1  0  0  0
 10 11  1  0  0  0
 14 12  2  0  0  0
 12 13  1  0  0  0
 15 14  1  0  0  0
 16 14  1  0  0  0
 17 16  1  0  0  0
 24 28  1  0  0  0
 24 29  1  0  0  0
  1  5  1  0  0  0
  4  6  1  0  0  0
M  END
> <minimizedAffinity>
-7.85871

$$$$
3N0N_P9B_A_263


 29 30  0  0  0  0  0  0  0  0999 V2000
   -3.2780    3.2916   12.4835 N   0  0  0  0  0  0  0  0  0  0  0  0
   -3.8988    3.6784   11.2761 C   0  0  0  0  0  0  0  0  0  0  0  0
   -5.0701    3.4314   10.9980 O   0  0  0  0  0  0  0  0  0  0  0  0
   -3.0514    4.2806   10.3146 N   0  0  0  0  0  0  0  0  0  0  0  0
   -2.3057    3.4136   12.5781 H   0  0  0  0  0  0  0  0  0  0  0  0
   -3.4088    4.4324    9.4099 H   0  0  0  0  0  0  0  0  0  0  0  0
   -1.7125    4.6782   10.5833 C   0  0  0  0  0  0  0  0  0  0  0  0
   -0.6741    3.8616   10.1728 C   0  0  0  0  0  0  0  0  0  0  0  0
   -0.8622    2.7609    9.4456 F   0  0  0  0  0  0  0  0  0  0  0  0
    0.6285    4.1890   10.4984 C   0  0  0  0  0  0  0  0  0  0  0  0
    1.5534    3.3688   10.0291 F   0  0  0  0  0  0  0  0  0  0  0  0
    0.9114    5.3300   11.2611 C   0  0  0  0  0  0  0  0  0  0  0  0
    2.1533    5.6790   11.6050 F   0  0  0  0  0  0  0  0  0  0  0  0
   -0.1660    6.1165   11.6813 C   0  0  0  0  0  0  0  0  0  0  0  0
    0.0644    7.1939   12.4109 F   0  0  0  0  0  0  0  0  0  0  0  0
   -1.4736    5.7660   11.3660 C   0  0  0  0  0  0  0  0  0  0  0  0
   -2.5205    6.4871   11.7514 F   0  0  0  0  0  0  0  0  0  0  0  0
   -5.3229    1.6063   15.7648 C   0  0  0  0  0  0  0  0  0  0  0  0
   -4.6058    0.7556   14.7875 C   0  0  0  0  0  0  0  0  0  0  0  0
   -3.9450    1.2955   13.7470 C   0  0  0  0  0  0  0  0  0  0  0  0
   -4.0004    2.7378   13.5567 C   0  0  0  0  0  0  0  0  0  0  0  0
   -4.6460    3.5584   14.4383 C   0  0  0  0  0  0  0  0  0  0  0  0
   -5.3473    2.9661   15.5958 C   0  0  0  0  0  0  0  0  0  0  0  0
   -5.6849    1.6977   18.4157 N   0  0  0  0  0  0  0  0  0  0  0  0
   -7.5379    1.0742   16.9574 O   0  0  0  0  0  0  0  0  0  0  0  0
   -6.1281    0.8891   17.1547 S   0  0  0  0  0  0  0  0  0  0  0  0
   -5.7277   -0.4732   17.2539 O   0  0  0  0  0  0  0  0  0  0  0  0
   -5.9833    2.6683   18.3195 H   0  0  0  0  0  0  0  0  0  0  0  0
   -4.6693    1.6614   18.5033 H   0  0  0  0  0  0  0  0  0  0  0  0
 23 18  2  0  0  0
 19 18  1  0  0  0
 18 26  1  0  0  0
 24 26  1  0  0  0
 26 25  2  0  0  0
 27 26  2  0  0  0
 20 19  2  0  0  0
 21 20  1  0  0  0
  1 21  1  0  0  0
 21 22  2  0  0  0
 22 23  1  0  0  0
  2  1  1  0  0  0
  4  2  1  0  0  0
  3  2  2  0  0  0
  4  7  1  0  0  0
 16  7  2  0  0  0
  7  8  1  0  0  0
  8 10  2  0  0  0
  8  9  1  0  0  0
 12 10  1  0  0  0
 10 11  1  0  0  0
 14 12  2  0  0  0
 12 13  1  0  0  0
 15 14  1  0  0  0
 16 14  1  0  0  0
 17 16  1  0  0  0
 24 28  1  0  0  0
 24 29  1  0  0  0
  1  5  1  0  0  0
  4  6  1  0  0  0
M  END
> <minimizedAffinity>
-7.85057

$$$$
3N0N_P9B_A_263


 29 30  0  0  0  0  0  0  0  0999 V2000
   -2.4732    3.4682   12.2444 N   0  0  0  0  0  0  0  0  0  0  0  0
   -3.6081    3.3636   11.4114 C   0  0  0  0  0  0  0  0  0  0  0  0
   -3.6182    3.6801   10.2240 O   0  0  0  0  0  0  0  0  0  0  0  0
   -4.8091    2.9768   12.0545 N   0  0  0  0  0  0  0  0  0  0  0  0
   -2.5781    3.3165   13.2114 H   0  0  0  0  0  0  0  0  0  0  0  0
   -5.6487    3.0316   11.5433 H   0  0  0  0  0  0  0  0  0  0  0  0
   -4.8695    2.5133   13.3977 C   0  0  0  0  0  0  0  0  0  0  0  0
   -4.4374    1.2312   13.6860 C   0  0  0  0  0  0  0  0  0  0  0  0
   -3.8710    0.4366   12.7786 F   0  0  0  0  0  0  0  0  0  0  0  0
   -4.5664    0.7339   14.9690 C   0  0  0  0  0  0  0  0  0  0  0  0
   -4.0901   -0.4855   15.1548 F   0  0  0  0  0  0  0  0  0  0  0  0
   -5.1518    1.5059   15.9813 C   0  0  0  0  0  0  0  0  0  0  0  0
   -5.3035    1.0624   17.2314 F   0  0  0  0  0  0  0  0  0  0  0  0
   -5.6016    2.7871   15.6460 C   0  0  0  0  0  0  0  0  0  0  0  0
   -6.1682    3.5380   16.5742 F   0  0  0  0  0  0  0  0  0  0  0  0
   -5.4861    3.2689   14.3474 C   0  0  0  0  0  0  0  0  0  0  0  0
   -5.9056    4.4784   13.9930 F   0  0  0  0  0  0  0  0  0  0  0  0
    1.4047    4.3826   10.8607 C   0  0  0  0  0  0  0  0  0  0  0  0
    0.6558    5.3235   11.7248 C   0  0  0  0  0  0  0  0  0  0  0  0
   -0.5772    5.0258   12.1741 C   0  0  0  0  0  0  0  0  0  0  0  0
   -1.1972    3.7818   11.7408 C   0  0  0  0  0  0  0  0  0  0  0  0
   -0.5383    2.8840   10.9487 C   0  0  0  0  0  0  0  0  0  0  0  0
    0.8263    3.2000   10.4794 C   0  0  0  0  0  0  0  0  0  0  0  0
    3.4889    3.6200    9.3636 N   0  0  0  0  0  0  0  0  0  0  0  0
    2.9660    5.9907    9.6005 O   0  0  0  0  0  0  0  0  0  0  0  0
    3.0404    4.7590   10.3342 S   0  0  0  0  0  0  0  0  0  0  0  0
    3.8813    4.8142   11.4813 O   0  0  0  0  0  0  0  0  0  0  0  0
    2.8713    3.6022    8.5519 H   0  0  0  0  0  0  0  0  0  0  0  0
    3.4412    2.7230    9.8469 H   0  0  0  0  0  0  0  0  0  0  0  0
 23 18  2  0  0  0
 19 18  1  0  0  0
 18 26  1  0  0  0
 24 26  1  0  0  0
 26 25  2  0  0  0
 27 26  2  0  0  0
 20 19  2  0  0  0
 21 20  1  0  0  0
  1 21  1  0  0  0
 21 22  2  0  0  0
 22 23  1  0  0  0
  2  1  1  0  0  0
  4  2  1  0  0  0
  3  2  2  0  0  0
  4  7  1  0  0  0
 16  7  2  0  0  0
  7  8  1  0  0  0
  8 10  2  0  0  0
  8  9  1  0  0  0
 12 10  1  0  0  0
 10 11  1  0  0  0
 14 12  2  0  0  0
 12 13  1  0  0  0
 15 14  1  0  0  0
 16 14  1  0  0  0
 17 16  1  0  0  0
 24 28  1  0  0  0
 24 29  1  0  0  0
  1  5  1  0  0  0
  4  6  1  0  0  0
M  END
> <minimizedAffinity>
-7.78873

$$$$
3N0N_P9B_A_263


 29 30  0  0  0  0  0  0  0  0999 V2000
   -3.4489    4.5848   13.2771 N   0  0  0  0  0  0  0  0  0  0  0  0
   -3.0088    5.9126   13.4669 C   0  0  0  0  0  0  0  0  0  0  0  0
   -3.2662    6.5840   14.4635 O   0  0  0  0  0  0  0  0  0  0  0  0
   -2.3344    6.4995   12.3687 N   0  0  0  0  0  0  0  0  0  0  0  0
   -3.3106    4.1592   12.4002 H   0  0  0  0  0  0  0  0  0  0  0  0
   -2.1400    7.4640   12.4041 H   0  0  0  0  0  0  0  0  0  0  0  0
   -1.9225    5.7730   11.2175 C   0  0  0  0  0  0  0  0  0  0  0  0
   -2.7620    5.7226   10.1191 C   0  0  0  0  0  0  0  0  0  0  0  0
   -3.9028    6.4074   10.0474 F   0  0  0  0  0  0  0  0  0  0  0  0
   -2.4168    4.9532    9.0242 C   0  0  0  0  0  0  0  0  0  0  0  0
   -3.2632    4.9994    8.0094 F   0  0  0  0  0  0  0  0  0  0  0  0
   -1.2337    4.2024    9.0202 C   0  0  0  0  0  0  0  0  0  0  0  0
   -0.8658    3.4397    7.9881 F   0  0  0  0  0  0  0  0  0  0  0  0
   -0.4237    4.2567   10.1591 C   0  0  0  0  0  0  0  0  0  0  0  0
    0.6941    3.5526   10.1930 F   0  0  0  0  0  0  0  0  0  0  0  0
   -0.7913    5.0172   11.2629 C   0  0  0  0  0  0  0  0  0  0  0  0
   -0.0486    5.0888   12.3620 F   0  0  0  0  0  0  0  0  0  0  0  0
   -5.3993    2.3007   16.2383 C   0  0  0  0  0  0  0  0  0  0  0  0
   -6.1276    3.3240   15.4538 C   0  0  0  0  0  0  0  0  0  0  0  0
   -5.5065    4.0445   14.5021 C   0  0  0  0  0  0  0  0  0  0  0  0
   -4.0785    3.8481   14.2976 C   0  0  0  0  0  0  0  0  0  0  0  0
   -3.3710    2.9106   14.9961 C   0  0  0  0  0  0  0  0  0  0  0  0
   -4.0609    2.1007   16.0211 C   0  0  0  0  0  0  0  0  0  0  0  0
   -6.3300    2.1688   18.7448 N   0  0  0  0  0  0  0  0  0  0  0  0
   -7.5677    1.1055   16.9318 O   0  0  0  0  0  0  0  0  0  0  0  0
   -6.2407    1.3232   17.4344 S   0  0  0  0  0  0  0  0  0  0  0  0
   -5.4950    0.1294   17.6458 O   0  0  0  0  0  0  0  0  0  0  0  0
   -6.8682    3.0167   18.5663 H   0  0  0  0  0  0  0  0  0  0  0  0
   -5.3905    2.4208   19.0516 H   0  0  0  0  0  0  0  0  0  0  0  0
 23 18  2  0  0  0
 19 18  1  0  0  0
 18 26  1  0  0  0
 24 26  1  0  0  0
 26 25  2  0  0  0
 27 26  2  0  0  0
 20 19  2  0  0  0
 21 20  1  0  0  0
  1 21  1  0  0  0
 21 22  2  0  0  0
 22 23  1  0  0  0
  2  1  1  0  0  0
  4  2  1  0  0  0
  3  2  2  0  0  0
  4  7  1  0  0  0
 16  7  2  0  0  0
  7  8  1  0  0  0
  8 10  2  0  0  0
  8  9  1  0  0  0
 12 10  1  0  0  0
 10 11  1  0  0  0
 14 12  2  0  0  0
 12 13  1  0  0  0
 15 14  1  0  0  0
 16 14  1  0  0  0
 17 16  1  0  0  0
 24 28  1  0  0  0
 24 29  1  0  0  0
  1  5  1  0  0  0
  4  6  1  0  0  0
M  END
> <minimizedAffinity>
-7.67223

$$$$
3N0N_P9B_A_263


 29 30  0  0  0  0  0  0  0  0999 V2000
   -1.8376    3.9431   11.9996 N   0  0  0  0  0  0  0  0  0  0  0  0
   -2.9780    4.7106   11.6782 C   0  0  0  0  0  0  0  0  0  0  0  0
   -2.9522    5.7099   10.9634 O   0  0  0  0  0  0  0  0  0  0  0  0
   -4.1759    4.3360   12.3338 N   0  0  0  0  0  0  0  0  0  0  0  0
   -1.9178    3.2347   12.6786 H   0  0  0  0  0  0  0  0  0  0  0  0
   -4.9567    4.9299   12.2507 H   0  0  0  0  0  0  0  0  0  0  0  0
   -4.3137    3.1495   13.1058 C   0  0  0  0  0  0  0  0  0  0  0  0
   -4.2346    3.2322   14.4844 C   0  0  0  0  0  0  0  0  0  0  0  0
   -4.1336    4.3901   15.1360 F   0  0  0  0  0  0  0  0  0  0  0  0
   -4.2819    2.0802   15.2465 C   0  0  0  0  0  0  0  0  0  0  0  0
   -4.2379    2.2641   16.5552 F   0  0  0  0  0  0  0  0  0  0  0  0
   -4.3869    0.8223   14.6382 C   0  0  0  0  0  0  0  0  0  0  0  0
   -4.4275   -0.3158   15.3350 F   0  0  0  0  0  0  0  0  0  0  0  0
   -4.4368    0.7762   13.2412 C   0  0  0  0  0  0  0  0  0  0  0  0
   -4.5253   -0.3945   12.6347 F   0  0  0  0  0  0  0  0  0  0  0  0
   -4.3671    1.9397   12.4841 C   0  0  0  0  0  0  0  0  0  0  0  0
   -4.4078    1.9329   11.1563 F   0  0  0  0  0  0  0  0  0  0  0  0
    1.9604    4.5038   10.2535 C   0  0  0  0  0  0  0  0  0  0  0  0
    1.5604    5.2395   11.4748 C   0  0  0  0  0  0  0  0  0  0  0  0
    0.3522    5.0517   12.0367 C   0  0  0  0  0  0  0  0  0  0  0  0
   -0.5904    4.1550   11.3833 C   0  0  0  0  0  0  0  0  0  0  0  0
   -0.2587    3.4530   10.2587 C   0  0  0  0  0  0  0  0  0  0  0  0
    1.0786    3.6393    9.6591 C   0  0  0  0  0  0  0  0  0  0  0  0
    3.8923    3.4249    8.7466 N   0  0  0  0  0  0  0  0  0  0  0  0
    3.4909    5.8296    8.6686 O   0  0  0  0  0  0  0  0  0  0  0  0
    3.5669    4.7133    9.5680 S   0  0  0  0  0  0  0  0  0  0  0  0
    4.4927    4.8871   10.6350 O   0  0  0  0  0  0  0  0  0  0  0  0
    3.2157    3.3241    7.9901 H   0  0  0  0  0  0  0  0  0  0  0  0
    3.8424    2.6102    9.3582 H   0  0  0  0  0  0  0  0  0  0  0  0
 23 18  2  0  0  0
 19 18  1  0  0  0
 18 26  1  0  0  0
 24 26  1  0  0  0
 26 25  2  0  0  0
 27 26  2  0  0  0
 20 19  2  0  0  0
 21 20  1  0  0  0
  1 21  1  0  0  0
 21 22  2  0  0  0
 22 23  1  0  0  0
  2  1  1  0  0  0
  4  2  1  0  0  0
  3  2  2  0  0  0
  4  7  1  0  0  0
 16  7  2  0  0  0
  7  8  1  0  0  0
  8 10  2  0  0  0
  8  9  1  0  0  0
 12 10  1  0  0  0
 10 11  1  0  0  0
 14 12  2  0  0  0
 12 13  1  0  0  0
 15 14  1  0  0  0
 16 14  1  0  0  0
 17 16  1  0  0  0
 24 28  1  0  0  0
 24 29  1  0  0  0
  1  5  1  0  0  0
  4  6  1  0  0  0
M  END
> <minimizedAffinity>
-7.63887

$$$$
3N0N_P9B_A_263


 29 30  0  0  0  0  0  0  0  0999 V2000
   -1.5840    4.0374   12.1081 N   0  0  0  0  0  0  0  0  0  0  0  0
   -2.7740    4.6779   11.7001 C   0  0  0  0  0  0  0  0  0  0  0  0
   -2.8066    5.6454   10.9430 O   0  0  0  0  0  0  0  0  0  0  0  0
   -3.9628    4.2163   12.3158 N   0  0  0  0  0  0  0  0  0  0  0  0
   -1.6311    3.3526   12.8138 H   0  0  0  0  0  0  0  0  0  0  0  0
   -4.7910    4.7284   12.1700 H   0  0  0  0  0  0  0  0  0  0  0  0
   -4.0267    3.0541   13.1331 C   0  0  0  0  0  0  0  0  0  0  0  0
   -4.1767    1.8174   12.5316 C   0  0  0  0  0  0  0  0  0  0  0  0
   -4.1653    1.6487   11.2099 F   0  0  0  0  0  0  0  0  0  0  0  0
   -4.3251    0.6865   13.3119 C   0  0  0  0  0  0  0  0  0  0  0  0
   -4.4230   -0.4522   12.6468 F   0  0  0  0  0  0  0  0  0  0  0  0
   -4.3480    0.7782   14.7099 C   0  0  0  0  0  0  0  0  0  0  0  0
   -4.4972   -0.2867   15.5012 F   0  0  0  0  0  0  0  0  0  0  0  0
   -4.2210    2.0483   15.2817 C   0  0  0  0  0  0  0  0  0  0  0  0
   -4.2491    2.1720   16.5970 F   0  0  0  0  0  0  0  0  0  0  0  0
   -4.0937    3.1813   14.4867 C   0  0  0  0  0  0  0  0  0  0  0  0
   -3.9748    4.4026   14.9955 F   0  0  0  0  0  0  0  0  0  0  0  0
    2.2272    4.9033   10.5228 C   0  0  0  0  0  0  0  0  0  0  0  0
    1.6408    5.7258   11.6056 C   0  0  0  0  0  0  0  0  0  0  0  0
    0.4292    5.4419   12.1177 C   0  0  0  0  0  0  0  0  0  0  0  0
   -0.3329    4.3435   11.5413 C   0  0  0  0  0  0  0  0  0  0  0  0
    0.1741    3.5569   10.5454 C   0  0  0  0  0  0  0  0  0  0  0  0
    1.5163    3.8528   10.0038 C   0  0  0  0  0  0  0  0  0  0  0  0
    4.0427    4.3811    8.6259 N   0  0  0  0  0  0  0  0  0  0  0  0
    3.8514    6.6357    9.5365 O   0  0  0  0  0  0  0  0  0  0  0  0
    3.8389    5.2493    9.9085 S   0  0  0  0  0  0  0  0  0  0  0  0
    4.7870    4.9074   10.9136 O   0  0  0  0  0  0  0  0  0  0  0  0
    3.3523    4.6455    7.9232 H   0  0  0  0  0  0  0  0  0  0  0  0
    3.9281    3.3951    8.8610 H   0  0  0  0  0  0  0  0  0  0  0  0
 23 18  2  0  0  0
 19 18  1  0  0  0
 18 26  1  0  0  0
 24 26  1  0  0  0
 26 25  2  0  0  0
 27 26  2  0  0  0
 20 19  2  0  0  0
 21 20  1  0  0  0
  1 21  1  0  0  0
 21 22  2  0  0  0
 22 23  1  0  0  0
  2  1  1  0  0  0
  4  2  1  0  0  0
  3  2  2  0  0  0
  4  7  1  0  0  0
 16  7  2  0  0  0
  7  8  1  0  0  0
  8 10  2  0  0  0
  8  9  1  0  0  0
 12 10  1  0  0  0
 10 11  1  0  0  0
 14 12  2  0  0  0
 12 13  1  0  0  0
 15 14  1  0  0  0
 16 14  1  0  0  0
 17 16  1  0  0  0
 24 28  1  0  0  0
 24 29  1  0  0  0
  1  5  1  0  0  0
  4  6  1  0  0  0
M  END
> <minimizedAffinity>
-7.52496

$$$$
3N0N_P9B_A_263


 29 30  0  0  0  0  0  0  0  0999 V2000
   -3.6024    4.7636   13.2385 N   0  0  0  0  0  0  0  0  0  0  0  0
   -3.9408    4.7676   11.8680 C   0  0  0  0  0  0  0  0  0  0  0  0
   -4.7371    3.9836   11.3566 O   0  0  0  0  0  0  0  0  0  0  0  0
   -3.2087    5.6681   11.0566 N   0  0  0  0  0  0  0  0  0  0  0  0
   -2.8639    5.3369   13.5471 H   0  0  0  0  0  0  0  0  0  0  0  0
   -3.3098    5.6010   10.0796 H   0  0  0  0  0  0  0  0  0  0  0  0
   -2.3354    6.6639   11.5748 C   0  0  0  0  0  0  0  0  0  0  0  0
   -1.0147    6.3357   11.8233 C   0  0  0  0  0  0  0  0  0  0  0  0
   -0.4906    5.1521   11.5067 F   0  0  0  0  0  0  0  0  0  0  0  0
   -0.1727    7.2645   12.4048 C   0  0  0  0  0  0  0  0  0  0  0  0
    1.0793    6.8715   12.5670 F   0  0  0  0  0  0  0  0  0  0  0  0
   -0.6461    8.5323   12.7683 C   0  0  0  0  0  0  0  0  0  0  0  0
    0.1298    9.4565   13.3395 F   0  0  0  0  0  0  0  0  0  0  0  0
   -1.9936    8.8186   12.5267 C   0  0  0  0  0  0  0  0  0  0  0  0
   -2.4755   10.0011   12.8669 F   0  0  0  0  0  0  0  0  0  0  0  0
   -2.8364    7.8693   11.9608 C   0  0  0  0  0  0  0  0  0  0  0  0
   -4.1214    8.1055   11.7209 F   0  0  0  0  0  0  0  0  0  0  0  0
   -5.5669    2.4385   16.1579 C   0  0  0  0  0  0  0  0  0  0  0  0
   -4.1890    2.1180   15.7204 C   0  0  0  0  0  0  0  0  0  0  0  0
   -3.5596    2.8671   14.7965 C   0  0  0  0  0  0  0  0  0  0  0  0
   -4.2837    3.9690   14.1791 C   0  0  0  0  0  0  0  0  0  0  0  0
   -5.5538    4.3012   14.5583 C   0  0  0  0  0  0  0  0  0  0  0  0
   -6.2330    3.4947   15.5931 C   0  0  0  0  0  0  0  0  0  0  0  0
   -5.5081    0.1869   17.6049 N   0  0  0  0  0  0  0  0  0  0  0  0
   -6.2899    2.2627   18.6193 O   0  0  0  0  0  0  0  0  0  0  0  0
   -6.3517    1.4876   17.4126 S   0  0  0  0  0  0  0  0  0  0  0  0
   -7.6741    1.1809   16.9846 O   0  0  0  0  0  0  0  0  0  0  0  0
   -4.5670    0.4342   17.9110 H   0  0  0  0  0  0  0  0  0  0  0  0
   -5.4560   -0.3184   16.7204 H   0  0  0  0  0  0  0  0  0  0  0  0
 23 18  2  0  0  0
 19 18  1  0  0  0
 18 26  1  0  0  0
 24 26  1  0  0  0
 26 25  2  0  0  0
 27 26  2  0  0  0
 20 19  2  0  0  0
 21 20  1  0  0  0
  1 21  1  0  0  0
 21 22  2  0  0  0
 22 23  1  0  0  0
  2  1  1  0  0  0
  4  2  1  0  0  0
  3  2  2  0  0  0
  4  7  1  0  0  0
 16  7  2  0  0  0
  7  8  1  0  0  0
  8 10  2  0  0  0
  8  9  1  0  0  0
 12 10  1  0  0  0
 10 11  1  0  0  0
 14 12  2  0  0  0
 12 13  1  0  0  0
 15 14  1  0  0  0
 16 14  1  0  0  0
 17 16  1  0  0  0
 24 28  1  0  0  0
 24 29  1  0  0  0
  1  5  1  0  0  0
  4  6  1  0  0  0
M  END
> <minimizedAffinity>
-7.46269

$$$$
3N0N_P9B_A_263


 29 30  0  0  0  0  0  0  0  0999 V2000
   -4.6536    5.2609   13.0493 N   0  0  0  0  0  0  0  0  0  0  0  0
   -3.7576    6.3326   13.2532 C   0  0  0  0  0  0  0  0  0  0  0  0
   -3.2963    6.6409   14.3498 O   0  0  0  0  0  0  0  0  0  0  0  0
   -3.4965    7.1398   12.1194 N   0  0  0  0  0  0  0  0  0  0  0  0
   -5.0768    5.1570   12.1665 H   0  0  0  0  0  0  0  0  0  0  0  0
   -2.9954    7.9771   12.2502 H   0  0  0  0  0  0  0  0  0  0  0  0
   -3.9179    6.8080   10.8022 C   0  0  0  0  0  0  0  0  0  0  0  0
   -3.0669    6.0831    9.9873 C   0  0  0  0  0  0  0  0  0  0  0  0
   -1.9032    5.5912   10.4106 F   0  0  0  0  0  0  0  0  0  0  0  0
   -3.4237    5.8238    8.6776 C   0  0  0  0  0  0  0  0  0  0  0  0
   -2.5636    5.0916    7.9901 F   0  0  0  0  0  0  0  0  0  0  0  0
   -4.6310    6.3061    8.1547 C   0  0  0  0  0  0  0  0  0  0  0  0
   -5.0110    6.0863    6.8939 F   0  0  0  0  0  0  0  0  0  0  0  0
   -5.4529    7.0583    9.0002 C   0  0  0  0  0  0  0  0  0  0  0  0
   -6.5938    7.5373    8.5363 F   0  0  0  0  0  0  0  0  0  0  0  0
   -5.0741    7.3310   10.3094 C   0  0  0  0  0  0  0  0  0  0  0  0
   -5.8277    8.0446   11.1385 F   0  0  0  0  0  0  0  0  0  0  0  0
   -5.6915    2.4485   16.0160 C   0  0  0  0  0  0  0  0  0  0  0  0
   -6.4471    3.7122   15.8577 C   0  0  0  0  0  0  0  0  0  0  0  0
   -6.1213    4.6037   14.9038 C   0  0  0  0  0  0  0  0  0  0  0  0
   -4.9630    4.3360   14.0637 C   0  0  0  0  0  0  0  0  0  0  0  0
   -4.2427    3.1798   14.1735 C   0  0  0  0  0  0  0  0  0  0  0  0
   -4.6192    2.1893   15.2028 C   0  0  0  0  0  0  0  0  0  0  0  0
   -5.3766   -0.0478   16.9302 N   0  0  0  0  0  0  0  0  0  0  0  0
   -5.7526    1.7819   18.4987 O   0  0  0  0  0  0  0  0  0  0  0  0
   -6.1700    1.2649   17.2262 S   0  0  0  0  0  0  0  0  0  0  0  0
   -7.5729    1.0505   17.1166 O   0  0  0  0  0  0  0  0  0  0  0  0
   -4.3764    0.1329   17.0154 H   0  0  0  0  0  0  0  0  0  0  0  0
   -5.5854   -0.3652   15.9836 H   0  0  0  0  0  0  0  0  0  0  0  0
 23 18  2  0  0  0
 19 18  1  0  0  0
 18 26  1  0  0  0
 24 26  1  0  0  0
 26 25  2  0  0  0
 27 26  2  0  0  0
 20 19  2  0  0  0
 21 20  1  0  0  0
  1 21  1  0  0  0
 21 22  2  0  0  0
 22 23  1  0  0  0
  2  1  1  0  0  0
  4  2  1  0  0  0
  3  2  2  0  0  0
  4  7  1  0  0  0
 16  7  2  0  0  0
  7  8  1  0  0  0
  8 10  2  0  0  0
  8  9  1  0  0  0
 12 10  1  0  0  0
 10 11  1  0  0  0
 14 12  2  0  0  0
 12 13  1  0  0  0
 15 14  1  0  0  0
 16 14  1  0  0  0
 17 16  1  0  0  0
 24 28  1  0  0  0
 24 29  1  0  0  0
  1  5  1  0  0  0
  4  6  1  0  0  0
M  END
> <minimizedAffinity>
-7.44788

$$$$
3N0N_P9B_A_263


 29 30  0  0  0  0  0  0  0  0999 V2000
   -3.6007    4.8507   13.3339 N   0  0  0  0  0  0  0  0  0  0  0  0
   -3.9531    4.7782   11.9689 C   0  0  0  0  0  0  0  0  0  0  0  0
   -4.7003    3.9233   11.4985 O   0  0  0  0  0  0  0  0  0  0  0  0
   -3.2919    5.6930   11.1138 N   0  0  0  0  0  0  0  0  0  0  0  0
   -2.8991    5.4837   13.6104 H   0  0  0  0  0  0  0  0  0  0  0  0
   -3.3986    5.5811   10.1415 H   0  0  0  0  0  0  0  0  0  0  0  0
   -2.4820    6.7645   11.5817 C   0  0  0  0  0  0  0  0  0  0  0  0
   -3.0238    8.0355   11.6504 C   0  0  0  0  0  0  0  0  0  0  0  0
   -4.3057    8.2914   11.3918 F   0  0  0  0  0  0  0  0  0  0  0  0
   -2.2288    9.1031   12.0221 C   0  0  0  0  0  0  0  0  0  0  0  0
   -2.8454   10.2705   12.0959 F   0  0  0  0  0  0  0  0  0  0  0  0
   -0.8699    8.9185   12.3102 C   0  0  0  0  0  0  0  0  0  0  0  0
   -0.0641    9.9221   12.6650 F   0  0  0  0  0  0  0  0  0  0  0  0
   -0.3513    7.6240   12.2036 C   0  0  0  0  0  0  0  0  0  0  0  0
    0.9287    7.4163   12.4580 F   0  0  0  0  0  0  0  0  0  0  0  0
   -1.1552    6.5614   11.8082 C   0  0  0  0  0  0  0  0  0  0  0  0
   -0.6954    5.3205   11.6928 F   0  0  0  0  0  0  0  0  0  0  0  0
   -5.5235    2.3907   16.1693 C   0  0  0  0  0  0  0  0  0  0  0  0
   -6.2181    3.5477   15.5596 C   0  0  0  0  0  0  0  0  0  0  0  0
   -5.6069    4.3254   14.6473 C   0  0  0  0  0  0  0  0  0  0  0  0
   -4.2169    4.0498   14.3133 C   0  0  0  0  0  0  0  0  0  0  0  0
   -3.5419    2.9891   14.8488 C   0  0  0  0  0  0  0  0  0  0  0  0
   -4.2238    2.1196   15.8293 C   0  0  0  0  0  0  0  0  0  0  0  0
   -5.5898   -0.0134   17.3452 N   0  0  0  0  0  0  0  0  0  0  0  0
   -6.2485    1.9715   18.6005 O   0  0  0  0  0  0  0  0  0  0  0  0
   -6.3581    1.3465   17.3128 S   0  0  0  0  0  0  0  0  0  0  0  0
   -7.6970    1.1670   16.8646 O   0  0  0  0  0  0  0  0  0  0  0  0
   -4.6353    0.1430   17.6691 H   0  0  0  0  0  0  0  0  0  0  0  0
   -5.5693   -0.4147   16.4077 H   0  0  0  0  0  0  0  0  0  0  0  0
 23 18  2  0  0  0
 19 18  1  0  0  0
 18 26  1  0  0  0
 24 26  1  0  0  0
 26 25  2  0  0  0
 27 26  2  0  0  0
 20 19  2  0  0  0
 21 20  1  0  0  0
  1 21  1  0  0  0
 21 22  2  0  0  0
 22 23  1  0  0  0
  2  1  1  0  0  0
  4  2  1  0  0  0
  3  2  2  0  0  0
  4  7  1  0  0  0
 16  7  2  0  0  0
  7  8  1  0  0  0
  8 10  2  0  0  0
  8  9  1  0  0  0
 12 10  1  0  0  0
 10 11  1  0  0  0
 14 12  2  0  0  0
 12 13  1  0  0  0
 15 14  1  0  0  0
 16 14  1  0  0  0
 17 16  1  0  0  0
 24 28  1  0  0  0
 24 29  1  0  0  0
  1  5  1  0  0  0
  4  6  1  0  0  0
M  END
> <minimizedAffinity>
-7.44386

$$$$
