4G0Q_C5P_A_801


 27 28  0  0  0  0  0  0  0  0999 V2000
   28.7517   32.1391   38.7497 C   0  0  0  0  0  0  0  0  0  0  0  0
   29.6360   32.8848   39.6126 O   0  0  0  0  0  0  0  0  0  0  0  0
   27.8719   31.1764   39.6240 C   0  0  0  0  0  0  0  0  0  0  0  0
   27.7135   29.8532   39.2887 O   0  0  0  0  0  0  0  0  0  0  0  0
   28.1130   31.7047   41.0866 C   0  0  0  0  0  0  0  0  0  0  0  0
   27.8362   30.8870   42.1582 O   0  0  0  0  0  0  0  0  0  0  0  0
   29.4639   32.5428   40.9948 C   0  0  0  0  0  0  0  0  0  0  0  0
   28.5642   29.3945   39.3721 H   0  0  0  0  0  0  0  0  0  0  0  0
   28.4387   30.1269   42.1490 H   0  0  0  0  0  0  0  0  0  0  0  0
   29.8109   33.6993   41.8777 N   0  0  0  0  0  0  0  0  0  0  0  0
   29.1109   34.9505   41.9640 C   0  0  0  0  0  0  0  0  0  0  0  0
   29.6235   36.0204   42.7589 N   0  0  0  0  0  0  0  0  0  0  0  0
   30.7886   35.9137   43.3396 C   0  0  0  0  0  0  0  0  0  0  0  0
   31.6079   34.7405   43.1817 C   0  0  0  0  0  0  0  0  0  0  0  0
   31.0960   33.6860   42.4797 C   0  0  0  0  0  0  0  0  0  0  0  0
   27.9846   34.9917   41.4819 O   0  0  0  0  0  0  0  0  0  0  0  0
   31.2775   36.9516   44.2246 N   0  0  0  0  0  0  0  0  0  0  0  0
   30.7490   37.7708   44.3617 H   0  0  0  0  0  0  0  0  0  0  0  0
   32.1381   36.8375   44.6889 H   0  0  0  0  0  0  0  0  0  0  0  0
   28.0967   33.0033   37.6050 C   0  0  0  0  0  0  0  0  0  0  0  0
   27.6299   34.2509   38.1459 O   0  0  0  0  0  0  0  0  0  0  0  0
   25.8047   36.0510   38.6771 O   0  0  0  0  0  0  0  0  0  0  0  0
   26.0678   34.4977   38.5343 P   0  0  0  0  0  0  0  0  0  0  0  0
   25.1376   34.1612   37.2875 O   0  0  0  0  0  0  0  0  0  0  0  0
   25.6464   33.7989   39.7700 O   0  0  0  0  0  0  0  0  0  0  0  0
   24.8748   36.2015   38.9085 H   0  0  0  0  0  0  0  0  0  0  0  0
   24.7108   33.9862   39.9443 H   0  0  0  0  0  0  0  0  0  0  0  0
 22 23  1  0  0  0
 23 24  2  0  0  0
 23 25  1  0  0  0
 23 21  1  0  0  0
 21 20  1  0  0  0
 20  1  1  0  0  0
  1  2  1  0  0  0
  1  3  1  0  0  0
  2  7  1  0  0  0
  3  4  1  0  0  0
  3  5  1  0  0  0
  5  6  1  0  0  0
  5  7  1  0  0  0
  7 10  1  0  0  0
 10 11  1  0  0  0
 10 15  1  0  0  0
 11 12  1  0  0  0
 11 16  2  0  0  0
 12 13  2  0  0  0
 13 14  1  0  0  0
 13 17  1  0  0  0
 14 15  2  0  0  0
 22 26  1  0  0  0
 25 27  1  0  0  0
  4  8  1  0  0  0
  6  9  1  0  0  0
 17 18  1  0  0  0
 17 19  1  0  0  0
M  END
> <minimizedAffinity>
-6.26610

$$$$
4G0Q_C5P_A_801


 27 28  0  0  0  0  0  0  0  0999 V2000
   28.9343   28.8368   38.5780 C   0  0  0  0  0  0  0  0  0  0  0  0
   28.3546   29.7159   39.5649 O   0  0  0  0  0  0  0  0  0  0  0  0
   29.1344   29.6298   37.2378 C   0  0  0  0  0  0  0  0  0  0  0  0
   28.7319   29.1067   36.0324 O   0  0  0  0  0  0  0  0  0  0  0  0
   28.9261   31.1268   37.6761 C   0  0  0  0  0  0  0  0  0  0  0  0
   28.6300   32.0775   36.7263 O   0  0  0  0  0  0  0  0  0  0  0  0
   28.1308   31.0367   39.0528 C   0  0  0  0  0  0  0  0  0  0  0  0
   27.7648   29.0327   36.0188 H   0  0  0  0  0  0  0  0  0  0  0  0
   27.7601   31.8892   36.3406 H   0  0  0  0  0  0  0  0  0  0  0  0
   28.2048   32.0531   40.1477 N   0  0  0  0  0  0  0  0  0  0  0  0
   28.0055   33.4694   40.0158 C   0  0  0  0  0  0  0  0  0  0  0  0
   28.2295   34.3442   41.1221 N   0  0  0  0  0  0  0  0  0  0  0  0
   28.7161   33.8823   42.2427 C   0  0  0  0  0  0  0  0  0  0  0  0
   29.0702   32.4957   42.3991 C   0  0  0  0  0  0  0  0  0  0  0  0
   28.7957   31.6399   41.3701 C   0  0  0  0  0  0  0  0  0  0  0  0
   27.4692   33.8616   38.9857 O   0  0  0  0  0  0  0  0  0  0  0  0
   28.8589   34.7396   43.4020 N   0  0  0  0  0  0  0  0  0  0  0  0
   28.6281   35.6946   43.3395 H   0  0  0  0  0  0  0  0  0  0  0  0
   29.1868   34.3671   44.2523 H   0  0  0  0  0  0  0  0  0  0  0  0
   30.0818   27.9130   39.1401 C   0  0  0  0  0  0  0  0  0  0  0  0
   29.6278   26.5497   39.1870 O   0  0  0  0  0  0  0  0  0  0  0  0
   29.7302   24.0231   38.5088 O   0  0  0  0  0  0  0  0  0  0  0  0
   29.9044   25.5010   37.9723 P   0  0  0  0  0  0  0  0  0  0  0  0
   28.7156   25.5663   36.9161 O   0  0  0  0  0  0  0  0  0  0  0  0
   31.2375   25.6567   37.3464 O   0  0  0  0  0  0  0  0  0  0  0  0
   29.8944   23.3958   37.7874 H   0  0  0  0  0  0  0  0  0  0  0  0
   31.3383   25.0059   36.6342 H   0  0  0  0  0  0  0  0  0  0  0  0
 22 23  1  0  0  0
 23 24  2  0  0  0
 23 25  1  0  0  0
 23 21  1  0  0  0
 21 20  1  0  0  0
 20  1  1  0  0  0
  1  2  1  0  0  0
  1  3  1  0  0  0
  2  7  1  0  0  0
  3  4  1  0  0  0
  3  5  1  0  0  0
  5  6  1  0  0  0
  5  7  1  0  0  0
  7 10  1  0  0  0
 10 11  1  0  0  0
 10 15  1  0  0  0
 11 12  1  0  0  0
 11 16  2  0  0  0
 12 13  2  0  0  0
 13 14  1  0  0  0
 13 17  1  0  0  0
 14 15  2  0  0  0
 22 26  1  0  0  0
 25 27  1  0  0  0
  4  8  1  0  0  0
  6  9  1  0  0  0
 17 18  1  0  0  0
 17 19  1  0  0  0
M  END
> <minimizedAffinity>
-5.85477

$$$$
4G0Q_C5P_A_801


 27 28  0  0  0  0  0  0  0  0999 V2000
   29.6612   32.2316   40.0769 C   0  0  0  0  0  0  0  0  0  0  0  0
   30.1837   31.1286   39.3068 O   0  0  0  0  0  0  0  0  0  0  0  0
   28.1664   31.9331   40.4532 C   0  0  0  0  0  0  0  0  0  0  0  0
   27.1835   32.8766   40.2738 O   0  0  0  0  0  0  0  0  0  0  0  0
   28.0116   30.4053   40.1090 C   0  0  0  0  0  0  0  0  0  0  0  0
   26.7553   29.8744   39.9261 O   0  0  0  0  0  0  0  0  0  0  0  0
   29.2103   30.0942   39.1080 C   0  0  0  0  0  0  0  0  0  0  0  0
   27.0675   33.0465   39.3258 H   0  0  0  0  0  0  0  0  0  0  0  0
   26.3488   30.2694   39.1390 H   0  0  0  0  0  0  0  0  0  0  0  0
   29.8716   28.7609   38.9587 N   0  0  0  0  0  0  0  0  0  0  0  0
   29.2165   27.4859   38.8681 C   0  0  0  0  0  0  0  0  0  0  0  0
   29.9740   26.2754   38.8541 N   0  0  0  0  0  0  0  0  0  0  0  0
   31.2685   26.3031   39.0253 C   0  0  0  0  0  0  0  0  0  0  0  0
   31.9742   27.5356   39.2612 C   0  0  0  0  0  0  0  0  0  0  0  0
   31.2676   28.7037   39.2080 C   0  0  0  0  0  0  0  0  0  0  0  0
   28.0155   27.4944   38.6230 O   0  0  0  0  0  0  0  0  0  0  0  0
   32.0599   25.0940   38.9189 N   0  0  0  0  0  0  0  0  0  0  0  0
   31.6181   24.2291   38.7578 H   0  0  0  0  0  0  0  0  0  0  0  0
   33.0394   25.1374   39.0076 H   0  0  0  0  0  0  0  0  0  0  0  0
   30.6636   32.7864   41.1603 C   0  0  0  0  0  0  0  0  0  0  0  0
   30.4813   34.2047   41.3086 O   0  0  0  0  0  0  0  0  0  0  0  0
   28.1541   35.3162   41.7589 O   0  0  0  0  0  0  0  0  0  0  0  0
   29.4990   34.8393   42.4418 P   0  0  0  0  0  0  0  0  0  0  0  0
   28.9476   33.6868   43.3908 O   0  0  0  0  0  0  0  0  0  0  0  0
   30.1078   35.9601   43.1941 O   0  0  0  0  0  0  0  0  0  0  0  0
   27.5666   35.6948   42.4315 H   0  0  0  0  0  0  0  0  0  0  0  0
   29.4744   36.2913   43.8499 H   0  0  0  0  0  0  0  0  0  0  0  0
 22 23  1  0  0  0
 23 24  2  0  0  0
 23 25  1  0  0  0
 23 21  1  0  0  0
 21 20  1  0  0  0
 20  1  1  0  0  0
  1  2  1  0  0  0
  1  3  1  0  0  0
  2  7  1  0  0  0
  3  4  1  0  0  0
  3  5  1  0  0  0
  5  6  1  0  0  0
  5  7  1  0  0  0
  7 10  1  0  0  0
 10 11  1  0  0  0
 10 15  1  0  0  0
 11 12  1  0  0  0
 11 16  2  0  0  0
 12 13  2  0  0  0
 13 14  1  0  0  0
 13 17  1  0  0  0
 14 15  2  0  0  0
 22 26  1  0  0  0
 25 27  1  0  0  0
  4  8  1  0  0  0
  6  9  1  0  0  0
 17 18  1  0  0  0
 17 19  1  0  0  0
M  END
> <minimizedAffinity>
-5.76381

$$$$
4G0Q_C5P_A_801


 27 28  0  0  0  0  0  0  0  0999 V2000
   29.9241   33.7645   42.8952 C   0  0  0  0  0  0  0  0  0  0  0  0
   29.3676   34.3000   41.6761 O   0  0  0  0  0  0  0  0  0  0  0  0
   29.3661   32.3145   43.1213 C   0  0  0  0  0  0  0  0  0  0  0  0
   28.8654   31.9248   44.3403 O   0  0  0  0  0  0  0  0  0  0  0  0
   28.7111   31.9654   41.7337 C   0  0  0  0  0  0  0  0  0  0  0  0
   27.7802   30.9548   41.6572 O   0  0  0  0  0  0  0  0  0  0  0  0
   28.4817   33.3754   41.0301 C   0  0  0  0  0  0  0  0  0  0  0  0
   28.0584   32.4270   44.5339 H   0  0  0  0  0  0  0  0  0  0  0  0
   26.9902   31.2040   42.1618 H   0  0  0  0  0  0  0  0  0  0  0  0
   28.4651   33.5971   39.5509 N   0  0  0  0  0  0  0  0  0  0  0  0
   27.3211   33.9271   38.7477 C   0  0  0  0  0  0  0  0  0  0  0  0
   27.4215   33.9881   37.3245 N   0  0  0  0  0  0  0  0  0  0  0  0
   28.5300   33.6461   36.7243 C   0  0  0  0  0  0  0  0  0  0  0  0
   29.6732   33.1718   37.4597 C   0  0  0  0  0  0  0  0  0  0  0  0
   29.6090   33.1753   38.8244 C   0  0  0  0  0  0  0  0  0  0  0  0
   26.3234   34.3251   39.3383 O   0  0  0  0  0  0  0  0  0  0  0  0
   28.6766   33.7935   35.2904 N   0  0  0  0  0  0  0  0  0  0  0  0
   27.9200   34.1149   34.7486 H   0  0  0  0  0  0  0  0  0  0  0  0
   29.5328   33.5722   34.8578 H   0  0  0  0  0  0  0  0  0  0  0  0
   31.4594   34.0697   43.0850 C   0  0  0  0  0  0  0  0  0  0  0  0
   31.6234   35.3061   43.8001 O   0  0  0  0  0  0  0  0  0  0  0  0
   31.3192   36.5383   41.5102 O   0  0  0  0  0  0  0  0  0  0  0  0
   31.6333   36.7495   43.0462 P   0  0  0  0  0  0  0  0  0  0  0  0
   30.3629   37.6014   43.4858 O   0  0  0  0  0  0  0  0  0  0  0  0
   32.9048   37.4921   43.2037 O   0  0  0  0  0  0  0  0  0  0  0  0
   31.3244   37.3965   41.0582 H   0  0  0  0  0  0  0  0  0  0  0  0
   32.8453   38.3384   42.7335 H   0  0  0  0  0  0  0  0  0  0  0  0
 22 23  1  0  0  0
 23 24  2  0  0  0
 23 25  1  0  0  0
 23 21  1  0  0  0
 21 20  1  0  0  0
 20  1  1  0  0  0
  1  2  1  0  0  0
  1  3  1  0  0  0
  2  7  1  0  0  0
  3  4  1  0  0  0
  3  5  1  0  0  0
  5  6  1  0  0  0
  5  7  1  0  0  0
  7 10  1  0  0  0
 10 11  1  0  0  0
 10 15  1  0  0  0
 11 12  1  0  0  0
 11 16  2  0  0  0
 12 13  2  0  0  0
 13 14  1  0  0  0
 13 17  1  0  0  0
 14 15  2  0  0  0
 22 26  1  0  0  0
 25 27  1  0  0  0
  4  8  1  0  0  0
  6  9  1  0  0  0
 17 18  1  0  0  0
 17 19  1  0  0  0
M  END
> <minimizedAffinity>
-5.74714

$$$$
4G0Q_C5P_A_801


 27 28  0  0  0  0  0  0  0  0999 V2000
   29.8843   30.8391   39.1155 C   0  0  0  0  0  0  0  0  0  0  0  0
   30.4250   31.7531   40.0927 O   0  0  0  0  0  0  0  0  0  0  0  0
   28.5297   30.2547   39.6528 C   0  0  0  0  0  0  0  0  0  0  0  0
   28.2675   28.9064   39.6098 O   0  0  0  0  0  0  0  0  0  0  0  0
   28.1983   31.1907   40.8736 C   0  0  0  0  0  0  0  0  0  0  0  0
   27.3113   30.7639   41.8353 O   0  0  0  0  0  0  0  0  0  0  0  0
   29.5894   31.8664   41.2528 C   0  0  0  0  0  0  0  0  0  0  0  0
   28.8769   28.4394   40.2027 H   0  0  0  0  0  0  0  0  0  0  0  0
   27.6833   29.9991   42.3017 H   0  0  0  0  0  0  0  0  0  0  0  0
   29.7379   33.2126   41.8879 N   0  0  0  0  0  0  0  0  0  0  0  0
   28.9924   34.3974   41.5666 C   0  0  0  0  0  0  0  0  0  0  0  0
   29.3221   35.6518   42.1642 N   0  0  0  0  0  0  0  0  0  0  0  0
   30.3705   35.7619   42.9354 C   0  0  0  0  0  0  0  0  0  0  0  0
   31.2434   34.6456   43.1893 C   0  0  0  0  0  0  0  0  0  0  0  0
   30.8976   33.4270   42.6774 C   0  0  0  0  0  0  0  0  0  0  0  0
   27.9671   34.2484   40.9114 O   0  0  0  0  0  0  0  0  0  0  0  0
   30.6621   37.0035   43.6230 N   0  0  0  0  0  0  0  0  0  0  0  0
   30.0908   37.7922   43.4785 H   0  0  0  0  0  0  0  0  0  0  0  0
   31.4315   37.0584   44.2347 H   0  0  0  0  0  0  0  0  0  0  0  0
   30.0014   31.3504   37.6286 C   0  0  0  0  0  0  0  0  0  0  0  0
   28.7444   31.9057   37.2061 O   0  0  0  0  0  0  0  0  0  0  0  0
   29.5409   34.1821   38.2249 O   0  0  0  0  0  0  0  0  0  0  0  0
   28.3351   33.4531   37.5059 P   0  0  0  0  0  0  0  0  0  0  0  0
   28.2736   34.2732   36.1433 O   0  0  0  0  0  0  0  0  0  0  0  0
   27.1041   33.5945   38.3169 O   0  0  0  0  0  0  0  0  0  0  0  0
   29.3002   35.1044   38.4049 H   0  0  0  0  0  0  0  0  0  0  0  0
   26.9167   34.5356   38.4588 H   0  0  0  0  0  0  0  0  0  0  0  0
 22 23  1  0  0  0
 23 24  2  0  0  0
 23 25  1  0  0  0
 23 21  1  0  0  0
 21 20  1  0  0  0
 20  1  1  0  0  0
  1  2  1  0  0  0
  1  3  1  0  0  0
  2  7  1  0  0  0
  3  4  1  0  0  0
  3  5  1  0  0  0
  5  6  1  0  0  0
  5  7  1  0  0  0
  7 10  1  0  0  0
 10 11  1  0  0  0
 10 15  1  0  0  0
 11 12  1  0  0  0
 11 16  2  0  0  0
 12 13  2  0  0  0
 13 14  1  0  0  0
 13 17  1  0  0  0
 14 15  2  0  0  0
 22 26  1  0  0  0
 25 27  1  0  0  0
  4  8  1  0  0  0
  6  9  1  0  0  0
 17 18  1  0  0  0
 17 19  1  0  0  0
M  END
> <minimizedAffinity>
-5.60574

$$$$
4G0Q_C5P_A_801


 27 28  0  0  0  0  0  0  0  0999 V2000
   29.2597   31.1078   40.5208 C   0  0  0  0  0  0  0  0  0  0  0  0
   29.6906   31.8270   41.6954 O   0  0  0  0  0  0  0  0  0  0  0  0
   28.1533   31.9432   39.7838 C   0  0  0  0  0  0  0  0  0  0  0  0
   26.9811   31.3614   39.3644 O   0  0  0  0  0  0  0  0  0  0  0  0
   28.2534   33.3534   40.4750 C   0  0  0  0  0  0  0  0  0  0  0  0
   27.1964   34.2299   40.3856 O   0  0  0  0  0  0  0  0  0  0  0  0
   29.0010   33.0746   41.8531 C   0  0  0  0  0  0  0  0  0  0  0  0
   26.4657   31.0797   40.1364 H   0  0  0  0  0  0  0  0  0  0  0  0
   26.4313   33.8628   40.8554 H   0  0  0  0  0  0  0  0  0  0  0  0
   29.8542   34.0681   42.5759 N   0  0  0  0  0  0  0  0  0  0  0  0
   29.5401   35.4480   42.8212 C   0  0  0  0  0  0  0  0  0  0  0  0
   30.5013   36.3209   43.4158 N   0  0  0  0  0  0  0  0  0  0  0  0
   31.7160   35.9036   43.6535 C   0  0  0  0  0  0  0  0  0  0  0  0
   32.1407   34.5731   43.3044 C   0  0  0  0  0  0  0  0  0  0  0  0
   31.2096   33.7107   42.7985 C   0  0  0  0  0  0  0  0  0  0  0  0
   28.3722   35.7877   42.6691 O   0  0  0  0  0  0  0  0  0  0  0  0
   32.6719   36.7472   44.3420 N   0  0  0  0  0  0  0  0  0  0  0  0
   32.4232   37.6643   44.5995 H   0  0  0  0  0  0  0  0  0  0  0  0
   33.5700   36.4033   44.5524 H   0  0  0  0  0  0  0  0  0  0  0  0
   30.4381   30.4472   39.7077 C   0  0  0  0  0  0  0  0  0  0  0  0
   30.1670   29.0493   39.5097 O   0  0  0  0  0  0  0  0  0  0  0  0
   27.6698   28.3893   39.0822 O   0  0  0  0  0  0  0  0  0  0  0  0
   29.0933   28.5218   38.4049 P   0  0  0  0  0  0  0  0  0  0  0  0
   28.8004   29.6683   37.3405 O   0  0  0  0  0  0  0  0  0  0  0  0
   29.4736   27.2370   37.7744 O   0  0  0  0  0  0  0  0  0  0  0  0
   27.0277   28.0752   38.4264 H   0  0  0  0  0  0  0  0  0  0  0  0
   28.7959   26.9800   37.1298 H   0  0  0  0  0  0  0  0  0  0  0  0
 22 23  1  0  0  0
 23 24  2  0  0  0
 23 25  1  0  0  0
 23 21  1  0  0  0
 21 20  1  0  0  0
 20  1  1  0  0  0
  1  2  1  0  0  0
  1  3  1  0  0  0
  2  7  1  0  0  0
  3  4  1  0  0  0
  3  5  1  0  0  0
  5  6  1  0  0  0
  5  7  1  0  0  0
  7 10  1  0  0  0
 10 11  1  0  0  0
 10 15  1  0  0  0
 11 12  1  0  0  0
 11 16  2  0  0  0
 12 13  2  0  0  0
 13 14  1  0  0  0
 13 17  1  0  0  0
 14 15  2  0  0  0
 22 26  1  0  0  0
 25 27  1  0  0  0
  4  8  1  0  0  0
  6  9  1  0  0  0
 17 18  1  0  0  0
 17 19  1  0  0  0
M  END
> <minimizedAffinity>
-5.58482

$$$$
4G0Q_C5P_A_801


 27 28  0  0  0  0  0  0  0  0999 V2000
   29.0080   31.4908   40.7159 C   0  0  0  0  0  0  0  0  0  0  0  0
   28.5585   30.3169   40.0071 O   0  0  0  0  0  0  0  0  0  0  0  0
   30.5765   31.5473   40.6736 C   0  0  0  0  0  0  0  0  0  0  0  0
   31.3127   31.7860   41.8093 O   0  0  0  0  0  0  0  0  0  0  0  0
   30.9414   30.4746   39.5816 C   0  0  0  0  0  0  0  0  0  0  0  0
   32.2136   29.9516   39.5419 O   0  0  0  0  0  0  0  0  0  0  0  0
   29.6485   29.5510   39.4759 C   0  0  0  0  0  0  0  0  0  0  0  0
   31.2068   31.0441   42.4251 H   0  0  0  0  0  0  0  0  0  0  0  0
   32.3773   29.4379   40.3482 H   0  0  0  0  0  0  0  0  0  0  0  0
   29.2298   28.8084   38.2468 N   0  0  0  0  0  0  0  0  0  0  0  0
   29.1787   27.3823   38.0843 C   0  0  0  0  0  0  0  0  0  0  0  0
   28.8799   26.8027   36.8138 N   0  0  0  0  0  0  0  0  0  0  0  0
   28.7477   27.5582   35.7567 C   0  0  0  0  0  0  0  0  0  0  0  0
   28.9239   28.9856   35.8202 C   0  0  0  0  0  0  0  0  0  0  0  0
   29.1421   29.5548   37.0429 C   0  0  0  0  0  0  0  0  0  0  0  0
   29.2209   26.7047   39.1050 O   0  0  0  0  0  0  0  0  0  0  0  0
   28.3516   26.9935   34.4825 N   0  0  0  0  0  0  0  0  0  0  0  0
   28.2199   26.0218   34.3943 H   0  0  0  0  0  0  0  0  0  0  0  0
   28.2141   27.5814   33.7049 H   0  0  0  0  0  0  0  0  0  0  0  0
   28.1526   32.7821   40.4212 C   0  0  0  0  0  0  0  0  0  0  0  0
   28.9140   33.9550   40.7550 O   0  0  0  0  0  0  0  0  0  0  0  0
   28.1395   33.6249   43.2340 O   0  0  0  0  0  0  0  0  0  0  0  0
   28.9016   34.6010   42.2498 P   0  0  0  0  0  0  0  0  0  0  0  0
   30.3649   34.5553   42.8742 O   0  0  0  0  0  0  0  0  0  0  0  0
   28.2949   35.9506   42.3076 O   0  0  0  0  0  0  0  0  0  0  0  0
   28.1303   34.0069   44.1255 H   0  0  0  0  0  0  0  0  0  0  0  0
   28.3186   36.2770   43.2207 H   0  0  0  0  0  0  0  0  0  0  0  0
 22 23  1  0  0  0
 23 24  2  0  0  0
 23 25  1  0  0  0
 23 21  1  0  0  0
 21 20  1  0  0  0
 20  1  1  0  0  0
  1  2  1  0  0  0
  1  3  1  0  0  0
  2  7  1  0  0  0
  3  4  1  0  0  0
  3  5  1  0  0  0
  5  6  1  0  0  0
  5  7  1  0  0  0
  7 10  1  0  0  0
 10 11  1  0  0  0
 10 15  1  0  0  0
 11 12  1  0  0  0
 11 16  2  0  0  0
 12 13  2  0  0  0
 13 14  1  0  0  0
 13 17  1  0  0  0
 14 15  2  0  0  0
 22 26  1  0  0  0
 25 27  1  0  0  0
  4  8  1  0  0  0
  6  9  1  0  0  0
 17 18  1  0  0  0
 17 19  1  0  0  0
M  END
> <minimizedAffinity>
-5.44801

$$$$
4G0Q_C5P_A_801


 27 28  0  0  0  0  0  0  0  0999 V2000
   30.1105   31.7461   39.8266 C   0  0  0  0  0  0  0  0  0  0  0  0
   30.2061   30.4753   39.1495 O   0  0  0  0  0  0  0  0  0  0  0  0
   29.4365   32.7902   38.8671 C   0  0  0  0  0  0  0  0  0  0  0  0
   29.9734   34.0420   38.6849 O   0  0  0  0  0  0  0  0  0  0  0  0
   28.8568   31.8903   37.7136 C   0  0  0  0  0  0  0  0  0  0  0  0
   28.5469   32.4589   36.4994 O   0  0  0  0  0  0  0  0  0  0  0  0
   29.6695   30.5251   37.8204 C   0  0  0  0  0  0  0  0  0  0  0  0
   30.8322   33.9640   38.2407 H   0  0  0  0  0  0  0  0  0  0  0  0
   29.3587   32.7788   36.0756 H   0  0  0  0  0  0  0  0  0  0  0  0
   29.1454   29.1867   37.4061 N   0  0  0  0  0  0  0  0  0  0  0  0
   28.3610   28.2892   38.2075 C   0  0  0  0  0  0  0  0  0  0  0  0
   28.0311   26.9840   37.7312 N   0  0  0  0  0  0  0  0  0  0  0  0
   28.5221   26.5483   36.6020 C   0  0  0  0  0  0  0  0  0  0  0  0
   29.4277   27.3430   35.8141 C   0  0  0  0  0  0  0  0  0  0  0  0
   29.6944   28.6175   36.2276 C   0  0  0  0  0  0  0  0  0  0  0  0
   27.8449   28.7532   39.2180 O   0  0  0  0  0  0  0  0  0  0  0  0
   28.1210   25.2653   36.0613 N   0  0  0  0  0  0  0  0  0  0  0  0
   27.5029   24.6895   36.5669 H   0  0  0  0  0  0  0  0  0  0  0  0
   28.4665   24.9693   35.1882 H   0  0  0  0  0  0  0  0  0  0  0  0
   29.6581   31.6352   41.3330 C   0  0  0  0  0  0  0  0  0  0  0  0
   28.6975   32.6634   41.6280 O   0  0  0  0  0  0  0  0  0  0  0  0
   28.0245   34.3532   43.5110 O   0  0  0  0  0  0  0  0  0  0  0  0
   29.1067   34.0368   42.4013 P   0  0  0  0  0  0  0  0  0  0  0  0
   30.3883   33.7874   43.3114 O   0  0  0  0  0  0  0  0  0  0  0  0
   29.2606   35.2016   41.5000 O   0  0  0  0  0  0  0  0  0  0  0  0
   28.2654   35.1710   43.9737 H   0  0  0  0  0  0  0  0  0  0  0  0
   29.5034   35.9833   42.0205 H   0  0  0  0  0  0  0  0  0  0  0  0
 22 23  1  0  0  0
 23 24  2  0  0  0
 23 25  1  0  0  0
 23 21  1  0  0  0
 21 20  1  0  0  0
 20  1  1  0  0  0
  1  2  1  0  0  0
  1  3  1  0  0  0
  2  7  1  0  0  0
  3  4  1  0  0  0
  3  5  1  0  0  0
  5  6  1  0  0  0
  5  7  1  0  0  0
  7 10  1  0  0  0
 10 11  1  0  0  0
 10 15  1  0  0  0
 11 12  1  0  0  0
 11 16  2  0  0  0
 12 13  2  0  0  0
 13 14  1  0  0  0
 13 17  1  0  0  0
 14 15  2  0  0  0
 22 26  1  0  0  0
 25 27  1  0  0  0
  4  8  1  0  0  0
  6  9  1  0  0  0
 17 18  1  0  0  0
 17 19  1  0  0  0
M  END
> <minimizedAffinity>
-5.35629

$$$$
4G0Q_C5P_A_801


 27 28  0  0  0  0  0  0  0  0999 V2000
   29.7397   34.4677   41.3453 C   0  0  0  0  0  0  0  0  0  0  0  0
   29.3684   33.3586   40.4999 O   0  0  0  0  0  0  0  0  0  0  0  0
   29.5381   34.0586   42.8477 C   0  0  0  0  0  0  0  0  0  0  0  0
   28.8815   34.8830   43.7296 O   0  0  0  0  0  0  0  0  0  0  0  0
   29.3430   32.4991   42.7682 C   0  0  0  0  0  0  0  0  0  0  0  0
   28.7503   31.8346   43.8174 O   0  0  0  0  0  0  0  0  0  0  0  0
   28.9302   32.2211   41.2556 C   0  0  0  0  0  0  0  0  0  0  0  0
   27.9501   34.9585   43.4694 H   0  0  0  0  0  0  0  0  0  0  0  0
   27.8265   32.1189   43.8997 H   0  0  0  0  0  0  0  0  0  0  0  0
   29.2073   30.9506   40.5163 N   0  0  0  0  0  0  0  0  0  0  0  0
   30.4779   30.5172   40.0056 C   0  0  0  0  0  0  0  0  0  0  0  0
   30.5796   29.3380   39.2066 N   0  0  0  0  0  0  0  0  0  0  0  0
   29.5051   28.6905   38.8432 C   0  0  0  0  0  0  0  0  0  0  0  0
   28.1883   29.1477   39.2031 C   0  0  0  0  0  0  0  0  0  0  0  0
   28.0850   30.2351   40.0237 C   0  0  0  0  0  0  0  0  0  0  0  0
   31.4734   31.0916   40.4317 O   0  0  0  0  0  0  0  0  0  0  0  0
   29.5989   27.4420   38.1138 N   0  0  0  0  0  0  0  0  0  0  0  0
   30.4799   27.0924   37.8476 H   0  0  0  0  0  0  0  0  0  0  0  0
   28.7817   26.9434   37.8843 H   0  0  0  0  0  0  0  0  0  0  0  0
   31.0540   35.2086   40.8872 C   0  0  0  0  0  0  0  0  0  0  0  0
   31.7995   35.6320   42.0412 O   0  0  0  0  0  0  0  0  0  0  0  0
   30.4775   37.4398   43.3972 O   0  0  0  0  0  0  0  0  0  0  0  0
   31.7933   37.1757   42.5596 P   0  0  0  0  0  0  0  0  0  0  0  0
   32.8980   37.3751   43.6879 O   0  0  0  0  0  0  0  0  0  0  0  0
   31.9035   38.1688   41.4666 O   0  0  0  0  0  0  0  0  0  0  0  0
   30.4708   38.3588   43.7075 H   0  0  0  0  0  0  0  0  0  0  0  0
   31.8940   39.0637   41.8407 H   0  0  0  0  0  0  0  0  0  0  0  0
 22 23  1  0  0  0
 23 24  2  0  0  0
 23 25  1  0  0  0
 23 21  1  0  0  0
 21 20  1  0  0  0
 20  1  1  0  0  0
  1  2  1  0  0  0
  1  3  1  0  0  0
  2  7  1  0  0  0
  3  4  1  0  0  0
  3  5  1  0  0  0
  5  6  1  0  0  0
  5  7  1  0  0  0
  7 10  1  0  0  0
 10 11  1  0  0  0
 10 15  1  0  0  0
 11 12  1  0  0  0
 11 16  2  0  0  0
 12 13  2  0  0  0
 13 14  1  0  0  0
 13 17  1  0  0  0
 14 15  2  0  0  0
 22 26  1  0  0  0
 25 27  1  0  0  0
  4  8  1  0  0  0
  6  9  1  0  0  0
 17 18  1  0  0  0
 17 19  1  0  0  0
M  END
> <minimizedAffinity>
-5.29813

$$$$
4G0Q_C5P_A_801


 27 28  0  0  0  0  0  0  0  0999 V2000
   30.1638   31.5024   41.3144 C   0  0  0  0  0  0  0  0  0  0  0  0
   31.1801   32.3783   41.8461 O   0  0  0  0  0  0  0  0  0  0  0  0
   28.7595   31.9647   41.8427 C   0  0  0  0  0  0  0  0  0  0  0  0
   27.8646   31.0655   42.3711 O   0  0  0  0  0  0  0  0  0  0  0  0
   29.0572   33.3877   42.4452 C   0  0  0  0  0  0  0  0  0  0  0  0
   28.1776   33.9406   43.3475 O   0  0  0  0  0  0  0  0  0  0  0  0
   30.6309   33.4013   42.6880 C   0  0  0  0  0  0  0  0  0  0  0  0
   28.2216   30.7010   43.1961 H   0  0  0  0  0  0  0  0  0  0  0  0
   28.1700   33.4091   44.1589 H   0  0  0  0  0  0  0  0  0  0  0  0
   31.4863   34.6282   42.6640 N   0  0  0  0  0  0  0  0  0  0  0  0
   32.4682   35.0062   43.6418 C   0  0  0  0  0  0  0  0  0  0  0  0
   33.1281   36.2702   43.5627 N   0  0  0  0  0  0  0  0  0  0  0  0
   32.7766   37.1444   42.6583 C   0  0  0  0  0  0  0  0  0  0  0  0
   31.7039   36.8865   41.7334 C   0  0  0  0  0  0  0  0  0  0  0  0
   31.1136   35.6546   41.7575 C   0  0  0  0  0  0  0  0  0  0  0  0
   32.8378   34.1369   44.4231 O   0  0  0  0  0  0  0  0  0  0  0  0
   33.5001   38.3906   42.5062 N   0  0  0  0  0  0  0  0  0  0  0  0
   34.2410   38.6073   43.1172 H   0  0  0  0  0  0  0  0  0  0  0  0
   33.2507   39.0205   41.7919 H   0  0  0  0  0  0  0  0  0  0  0  0
   30.3663   31.1372   39.7940 C   0  0  0  0  0  0  0  0  0  0  0  0
   30.1009   29.7388   39.5915 O   0  0  0  0  0  0  0  0  0  0  0  0
   28.6754   27.6343   38.9642 O   0  0  0  0  0  0  0  0  0  0  0  0
   28.7502   29.2105   38.8512 P   0  0  0  0  0  0  0  0  0  0  0  0
   27.4683   29.6214   39.7003 O   0  0  0  0  0  0  0  0  0  0  0  0
   28.6534   29.6196   37.4312 O   0  0  0  0  0  0  0  0  0  0  0  0
   27.8717   27.3164   38.5240 H   0  0  0  0  0  0  0  0  0  0  0  0
   27.8306   29.2747   37.0507 H   0  0  0  0  0  0  0  0  0  0  0  0
 22 23  1  0  0  0
 23 24  2  0  0  0
 23 25  1  0  0  0
 23 21  1  0  0  0
 21 20  1  0  0  0
 20  1  1  0  0  0
  1  2  1  0  0  0
  1  3  1  0  0  0
  2  7  1  0  0  0
  3  4  1  0  0  0
  3  5  1  0  0  0
  5  6  1  0  0  0
  5  7  1  0  0  0
  7 10  1  0  0  0
 10 11  1  0  0  0
 10 15  1  0  0  0
 11 12  1  0  0  0
 11 16  2  0  0  0
 12 13  2  0  0  0
 13 14  1  0  0  0
 13 17  1  0  0  0
 14 15  2  0  0  0
 22 26  1  0  0  0
 25 27  1  0  0  0
  4  8  1  0  0  0
  6  9  1  0  0  0
 17 18  1  0  0  0
 17 19  1  0  0  0
M  END
> <minimizedAffinity>
-5.28368

$$$$
