3DP4_AMQ_A_374


 17 17  0  0  0  0  0  0  0  0999 V2000
   21.4294   20.0406   15.4435 C   0  0  0  0  0  0  0  0  0  0  0  0
   22.7186   19.2459   15.5474 C   0  0  0  0  0  0  0  0  0  0  0  0
   24.0487   19.7294   15.3699 C   0  0  0  0  0  0  0  0  0  0  0  0
   22.9663   17.9340   15.8233 C   0  0  0  0  0  0  0  0  0  0  0  0
   22.1243   16.7396   16.1323 C   0  0  0  0  0  0  0  0  0  0  0  0
   24.1900   21.0137   15.0797 O   0  0  0  0  0  0  0  0  0  0  0  0
   25.0446   18.8980   15.5026 N   0  0  0  0  0  0  0  0  0  0  0  0
   24.3264   17.6842   15.8073 O   0  0  0  0  0  0  0  0  0  0  0  0
   23.4342   21.5614   14.9974 H   0  0  0  0  0  0  0  0  0  0  0  0
   20.6085   20.9917   13.2917 N   0  0  0  0  0  0  0  0  0  0  0  0
   20.6428   19.7459   14.1344 C   0  0  0  0  0  0  0  0  0  0  0  0
   20.0939   20.8058   12.4308 H   0  0  0  0  0  0  0  0  0  0  0  0
   21.5617   21.2743   13.0637 H   0  0  0  0  0  0  0  0  0  0  0  0
   19.1777   19.2502   14.4237 C   0  0  0  0  0  0  0  0  0  0  0  0
   19.0418   18.1547   14.9888 O   0  0  0  0  0  0  0  0  0  0  0  0
   18.2312   19.9864   14.0742 O   0  0  0  0  0  0  0  0  0  0  0  0
   18.4052   20.8038   13.6505 H   0  0  0  0  0  0  0  0  0  0  0  0
 10 11  1  0  0  0
 11 14  1  0  0  0
 11  1  1  0  0  0
 14 15  2  0  0  0
 14 16  1  0  0  0
  1  2  1  0  0  0
  2  3  1  0  0  0
  2  4  2  0  0  0
  3  6  1  0  0  0
  3  7  2  0  0  0
  4  5  1  0  0  0
  4  8  1  0  0  0
  7  8  1  0  0  0
 10 12  1  0  0  0
 10 13  1  0  0  0
 16 17  1  0  0  0
  6  9  1  0  0  0
M  END
> <minimizedAffinity>
-8.12856

$$$$
3DP4_AMQ_A_374


 17 17  0  0  0  0  0  0  0  0999 V2000
   21.3462   19.9077   15.6438 C   0  0  0  0  0  0  0  0  0  0  0  0
   22.8550   20.0364   15.5376 C   0  0  0  0  0  0  0  0  0  0  0  0
   23.8075   18.9797   15.4352 C   0  0  0  0  0  0  0  0  0  0  0  0
   23.6821   21.1196   15.5081 C   0  0  0  0  0  0  0  0  0  0  0  0
   23.4909   22.5999   15.5654 C   0  0  0  0  0  0  0  0  0  0  0  0
   23.3372   17.7417   15.4333 O   0  0  0  0  0  0  0  0  0  0  0  0
   25.0738   19.2786   15.3473 N   0  0  0  0  0  0  0  0  0  0  0  0
   25.0010   20.7189   15.3964 O   0  0  0  0  0  0  0  0  0  0  0  0
   22.4148   17.5908   15.4994 H   0  0  0  0  0  0  0  0  0  0  0  0
   20.7384   20.8953   13.4384 N   0  0  0  0  0  0  0  0  0  0  0  0
   20.6649   19.6442   14.2706 C   0  0  0  0  0  0  0  0  0  0  0  0
   20.2932   20.7298   12.5357 H   0  0  0  0  0  0  0  0  0  0  0  0
   21.7153   21.1507   13.2940 H   0  0  0  0  0  0  0  0  0  0  0  0
   19.1667   19.1908   14.4312 C   0  0  0  0  0  0  0  0  0  0  0  0
   18.9519   18.0915   14.9635 O   0  0  0  0  0  0  0  0  0  0  0  0
   18.2746   19.9619   14.0193 O   0  0  0  0  0  0  0  0  0  0  0  0
   18.5073   20.7798   13.6259 H   0  0  0  0  0  0  0  0  0  0  0  0
 10 11  1  0  0  0
 11 14  1  0  0  0
 11  1  1  0  0  0
 14 15  2  0  0  0
 14 16  1  0  0  0
  1  2  1  0  0  0
  2  3  1  0  0  0
  2  4  2  0  0  0
  3  6  1  0  0  0
  3  7  2  0  0  0
  4  5  1  0  0  0
  4  8  1  0  0  0
  7  8  1  0  0  0
 10 12  1  0  0  0
 10 13  1  0  0  0
 16 17  1  0  0  0
  6  9  1  0  0  0
M  END
> <minimizedAffinity>
-8.01498

$$$$
3DP4_AMQ_A_374


 17 17  0  0  0  0  0  0  0  0999 V2000
   21.4109   20.0707   15.4730 C   0  0  0  0  0  0  0  0  0  0  0  0
   22.7074   19.2941   15.6152 C   0  0  0  0  0  0  0  0  0  0  0  0
   22.8558   17.8925   15.8346 C   0  0  0  0  0  0  0  0  0  0  0  0
   24.0147   19.6787   15.5753 C   0  0  0  0  0  0  0  0  0  0  0  0
   24.7318   20.9750   15.3845 C   0  0  0  0  0  0  0  0  0  0  0  0
   21.7462   17.1758   15.9286 O   0  0  0  0  0  0  0  0  0  0  0  0
   24.0567   17.3926   15.9276 N   0  0  0  0  0  0  0  0  0  0  0  0
   24.8460   18.5882   15.7553 O   0  0  0  0  0  0  0  0  0  0  0  0
   20.9108   17.5935   15.8532 H   0  0  0  0  0  0  0  0  0  0  0  0
   20.6245   20.9850   13.2925 N   0  0  0  0  0  0  0  0  0  0  0  0
   20.6572   19.7498   14.1507 C   0  0  0  0  0  0  0  0  0  0  0  0
   20.1314   20.7819   12.4230 H   0  0  0  0  0  0  0  0  0  0  0  0
   21.5785   21.2781   13.0819 H   0  0  0  0  0  0  0  0  0  0  0  0
   19.1930   19.2373   14.4141 C   0  0  0  0  0  0  0  0  0  0  0  0
   18.2552   19.9599   14.0451 O   0  0  0  0  0  0  0  0  0  0  0  0
   19.0526   18.1303   14.9752 O   0  0  0  0  0  0  0  0  0  0  0  0
   19.8062   17.6345   15.2286 H   0  0  0  0  0  0  0  0  0  0  0  0
 10 11  1  0  0  0
 11 14  1  0  0  0
 11  1  1  0  0  0
 14 15  2  0  0  0
 14 16  1  0  0  0
  1  2  1  0  0  0
  2  3  1  0  0  0
  2  4  2  0  0  0
  3  6  1  0  0  0
  3  7  2  0  0  0
  4  5  1  0  0  0
  4  8  1  0  0  0
  7  8  1  0  0  0
 10 12  1  0  0  0
 10 13  1  0  0  0
 16 17  1  0  0  0
  6  9  1  0  0  0
M  END
> <minimizedAffinity>
-7.91178

$$$$
3DP4_AMQ_A_374


 17 17  0  0  0  0  0  0  0  0999 V2000
   22.0430   20.7847   15.3699 C   0  0  0  0  0  0  0  0  0  0  0  0
   20.8954   19.8689   14.9842 C   0  0  0  0  0  0  0  0  0  0  0  0
   19.9954   20.0252   13.8889 C   0  0  0  0  0  0  0  0  0  0  0  0
   20.4240   18.7117   15.5294 C   0  0  0  0  0  0  0  0  0  0  0  0
   20.8018   17.8604   16.6972 C   0  0  0  0  0  0  0  0  0  0  0  0
   20.1671   21.0850   13.1135 O   0  0  0  0  0  0  0  0  0  0  0  0
   19.0644   19.1307   13.7052 N   0  0  0  0  0  0  0  0  0  0  0  0
   19.3434   18.2408   14.8063 O   0  0  0  0  0  0  0  0  0  0  0  0
   20.8556   21.6934   13.2973 H   0  0  0  0  0  0  0  0  0  0  0  0
   23.6954   21.0857   17.2105 N   0  0  0  0  0  0  0  0  0  0  0  0
   23.1048   20.0792   16.2609 C   0  0  0  0  0  0  0  0  0  0  0  0
   24.3931   20.6298   17.7985 H   0  0  0  0  0  0  0  0  0  0  0  0
   22.9568   21.4733   17.7976 H   0  0  0  0  0  0  0  0  0  0  0  0
   24.2445   19.4112   15.4060 C   0  0  0  0  0  0  0  0  0  0  0  0
   24.0758   18.2392   15.0375 O   0  0  0  0  0  0  0  0  0  0  0  0
   25.2545   20.0962   15.1402 O   0  0  0  0  0  0  0  0  0  0  0  0
   25.3177   20.9779   15.4511 H   0  0  0  0  0  0  0  0  0  0  0  0
 10 11  1  0  0  0
 11 14  1  0  0  0
 11  1  1  0  0  0
 14 15  2  0  0  0
 14 16  1  0  0  0
  1  2  1  0  0  0
  2  3  1  0  0  0
  2  4  2  0  0  0
  3  6  1  0  0  0
  3  7  2  0  0  0
  4  5  1  0  0  0
  4  8  1  0  0  0
  7  8  1  0  0  0
 10 12  1  0  0  0
 10 13  1  0  0  0
 16 17  1  0  0  0
  6  9  1  0  0  0
M  END
> <minimizedAffinity>
-7.87217

$$$$
3DP4_AMQ_A_374


 17 17  0  0  0  0  0  0  0  0999 V2000
   21.7599   20.4517   15.5293 C   0  0  0  0  0  0  0  0  0  0  0  0
   23.2450   20.1413   15.4799 C   0  0  0  0  0  0  0  0  0  0  0  0
   24.3083   21.0472   15.1913 C   0  0  0  0  0  0  0  0  0  0  0  0
   23.9478   18.9911   15.6844 C   0  0  0  0  0  0  0  0  0  0  0  0
   23.5946   17.5819   16.0315 C   0  0  0  0  0  0  0  0  0  0  0  0
   23.9774   22.3034   14.9338 O   0  0  0  0  0  0  0  0  0  0  0  0
   25.5343   20.6028   15.1976 N   0  0  0  0  0  0  0  0  0  0  0  0
   25.3031   19.2174   15.5279 O   0  0  0  0  0  0  0  0  0  0  0  0
   23.0770   22.5623   14.9444 H   0  0  0  0  0  0  0  0  0  0  0  0
   20.2385   20.6598   13.5670 N   0  0  0  0  0  0  0  0  0  0  0  0
   20.9449   19.6738   14.4569 C   0  0  0  0  0  0  0  0  0  0  0  0
   19.7015   20.1565   12.8607 H   0  0  0  0  0  0  0  0  0  0  0  0
   20.9261   21.2579   13.1089 H   0  0  0  0  0  0  0  0  0  0  0  0
   19.9025   18.6897   15.1055 C   0  0  0  0  0  0  0  0  0  0  0  0
   20.1488   18.2570   16.2413 O   0  0  0  0  0  0  0  0  0  0  0  0
   18.8820   18.4004   14.4459 O   0  0  0  0  0  0  0  0  0  0  0  0
   18.7580   18.7637   13.5912 H   0  0  0  0  0  0  0  0  0  0  0  0
 10 11  1  0  0  0
 11 14  1  0  0  0
 11  1  1  0  0  0
 14 15  2  0  0  0
 14 16  1  0  0  0
  1  2  1  0  0  0
  2  3  1  0  0  0
  2  4  2  0  0  0
  3  6  1  0  0  0
  3  7  2  0  0  0
  4  5  1  0  0  0
  4  8  1  0  0  0
  7  8  1  0  0  0
 10 12  1  0  0  0
 10 13  1  0  0  0
 16 17  1  0  0  0
  6  9  1  0  0  0
M  END
> <minimizedAffinity>
-7.70749

$$$$
3DP4_AMQ_A_374


 17 17  0  0  0  0  0  0  0  0999 V2000
   21.7005   19.4616   16.1197 C   0  0  0  0  0  0  0  0  0  0  0  0
   23.0640   19.9793   15.6989 C   0  0  0  0  0  0  0  0  0  0  0  0
   23.3728   21.2643   15.1624 C   0  0  0  0  0  0  0  0  0  0  0  0
   24.3034   19.4115   15.7114 C   0  0  0  0  0  0  0  0  0  0  0  0
   24.8571   18.0867   16.1231 C   0  0  0  0  0  0  0  0  0  0  0  0
   22.3663   22.1108   15.0067 O   0  0  0  0  0  0  0  0  0  0  0  0
   24.6107   21.5399   14.8588 N   0  0  0  0  0  0  0  0  0  0  0  0
   25.2469   20.2974   15.2240 O   0  0  0  0  0  0  0  0  0  0  0  0
   21.4970   21.8537   15.2437 H   0  0  0  0  0  0  0  0  0  0  0  0
   22.0361   18.0537   14.0914 N   0  0  0  0  0  0  0  0  0  0  0  0
   20.9934   18.6450   15.0005 C   0  0  0  0  0  0  0  0  0  0  0  0
   21.5794   17.5164   13.3544 H   0  0  0  0  0  0  0  0  0  0  0  0
   22.6482   17.4405   14.6297 H   0  0  0  0  0  0  0  0  0  0  0  0
   19.9906   19.5272   14.1687 C   0  0  0  0  0  0  0  0  0  0  0  0
   18.8094   19.1543   14.1085 O   0  0  0  0  0  0  0  0  0  0  0  0
   20.4347   20.5565   13.6180 O   0  0  0  0  0  0  0  0  0  0  0  0
   21.3405   20.7803   13.7042 H   0  0  0  0  0  0  0  0  0  0  0  0
 10 11  1  0  0  0
 11 14  1  0  0  0
 11  1  1  0  0  0
 14 15  2  0  0  0
 14 16  1  0  0  0
  1  2  1  0  0  0
  2  3  1  0  0  0
  2  4  2  0  0  0
  3  6  1  0  0  0
  3  7  2  0  0  0
  4  5  1  0  0  0
  4  8  1  0  0  0
  7  8  1  0  0  0
 10 12  1  0  0  0
 10 13  1  0  0  0
 16 17  1  0  0  0
  6  9  1  0  0  0
M  END
> <minimizedAffinity>
-7.62951

$$$$
3DP4_AMQ_A_374


 17 17  0  0  0  0  0  0  0  0999 V2000
   21.9950   20.4934   15.6623 C   0  0  0  0  0  0  0  0  0  0  0  0
   22.3022   19.0070   15.6438 C   0  0  0  0  0  0  0  0  0  0  0  0
   21.3910   17.9390   15.3918 C   0  0  0  0  0  0  0  0  0  0  0  0
   23.4548   18.3073   15.8449 C   0  0  0  0  0  0  0  0  0  0  0  0
   24.8700   18.6659   16.1609 C   0  0  0  0  0  0  0  0  0  0  0  0
   20.1313   18.2661   15.1466 O   0  0  0  0  0  0  0  0  0  0  0  0
   21.8352   16.7131   15.4119 N   0  0  0  0  0  0  0  0  0  0  0  0
   23.2255   16.9494   15.7175 O   0  0  0  0  0  0  0  0  0  0  0  0
   19.8727   19.1667   15.1460 H   0  0  0  0  0  0  0  0  0  0  0  0
   23.5556   21.4502   17.3528 N   0  0  0  0  0  0  0  0  0  0  0  0
   23.2622   21.3689   15.8795 C   0  0  0  0  0  0  0  0  0  0  0  0
   24.3860   22.0232   17.5029 H   0  0  0  0  0  0  0  0  0  0  0  0
   23.7188   20.5124   17.7192 H   0  0  0  0  0  0  0  0  0  0  0  0
   23.0912   22.8149   15.2832 C   0  0  0  0  0  0  0  0  0  0  0  0
   23.4669   23.7717   15.9769 O   0  0  0  0  0  0  0  0  0  0  0  0
   22.5916   22.9226   14.1435 O   0  0  0  0  0  0  0  0  0  0  0  0
   22.3286   22.1562   13.6729 H   0  0  0  0  0  0  0  0  0  0  0  0
 10 11  1  0  0  0
 11 14  1  0  0  0
 11  1  1  0  0  0
 14 15  2  0  0  0
 14 16  1  0  0  0
  1  2  1  0  0  0
  2  3  1  0  0  0
  2  4  2  0  0  0
  3  6  1  0  0  0
  3  7  2  0  0  0
  4  5  1  0  0  0
  4  8  1  0  0  0
  7  8  1  0  0  0
 10 12  1  0  0  0
 10 13  1  0  0  0
 16 17  1  0  0  0
  6  9  1  0  0  0
M  END
> <minimizedAffinity>
-7.59245

$$$$
3DP4_AMQ_A_374


 17 17  0  0  0  0  0  0  0  0999 V2000
   21.5917   19.5243   16.0403 C   0  0  0  0  0  0  0  0  0  0  0  0
   23.0045   19.9579   15.6935 C   0  0  0  0  0  0  0  0  0  0  0  0
   24.1699   19.1378   15.6320 C   0  0  0  0  0  0  0  0  0  0  0  0
   23.5355   21.1687   15.3608 C   0  0  0  0  0  0  0  0  0  0  0  0
   22.9966   22.5519   15.1953 C   0  0  0  0  0  0  0  0  0  0  0  0
   24.0175   17.8515   15.9078 O   0  0  0  0  0  0  0  0  0  0  0  0
   25.3092   19.6844   15.3100 N   0  0  0  0  0  0  0  0  0  0  0  0
   24.8935   21.0538   15.1259 O   0  0  0  0  0  0  0  0  0  0  0  0
   23.1715   17.5176   16.1330 H   0  0  0  0  0  0  0  0  0  0  0  0
   21.9427   18.0804   14.0401 N   0  0  0  0  0  0  0  0  0  0  0  0
   20.8944   18.7568   14.8809 C   0  0  0  0  0  0  0  0  0  0  0  0
   21.4925   17.5747   13.2772 H   0  0  0  0  0  0  0  0  0  0  0  0
   22.4709   17.4257   14.6169 H   0  0  0  0  0  0  0  0  0  0  0  0
   20.0166   19.7078   13.9860 C   0  0  0  0  0  0  0  0  0  0  0  0
   18.8727   19.3288   13.6933 O   0  0  0  0  0  0  0  0  0  0  0  0
   20.5149   20.7938   13.6223 O   0  0  0  0  0  0  0  0  0  0  0  0
   21.3874   21.0186   13.8799 H   0  0  0  0  0  0  0  0  0  0  0  0
 10 11  1  0  0  0
 11 14  1  0  0  0
 11  1  1  0  0  0
 14 15  2  0  0  0
 14 16  1  0  0  0
  1  2  1  0  0  0
  2  3  1  0  0  0
  2  4  2  0  0  0
  3  6  1  0  0  0
  3  7  2  0  0  0
  4  5  1  0  0  0
  4  8  1  0  0  0
  7  8  1  0  0  0
 10 12  1  0  0  0
 10 13  1  0  0  0
 16 17  1  0  0  0
  6  9  1  0  0  0
M  END
> <minimizedAffinity>
-7.57042

$$$$
3DP4_AMQ_A_374


 17 17  0  0  0  0  0  0  0  0999 V2000
   22.9075   20.1581   16.5182 C   0  0  0  0  0  0  0  0  0  0  0  0
   21.9336   19.3936   15.6399 C   0  0  0  0  0  0  0  0  0  0  0  0
   21.0428   19.9323   14.6648 C   0  0  0  0  0  0  0  0  0  0  0  0
   21.6469   18.0653   15.5307 C   0  0  0  0  0  0  0  0  0  0  0  0
   22.1348   16.8187   16.1933 C   0  0  0  0  0  0  0  0  0  0  0  0
   21.0546   21.2460   14.4974 O   0  0  0  0  0  0  0  0  0  0  0  0
   20.2748   19.1189   13.9947 N   0  0  0  0  0  0  0  0  0  0  0  0
   20.6730   17.8574   14.5710 O   0  0  0  0  0  0  0  0  0  0  0  0
   21.6303   21.7785   15.0102 H   0  0  0  0  0  0  0  0  0  0  0  0
   25.3511   20.6278   16.3885 N   0  0  0  0  0  0  0  0  0  0  0  0
   24.0317   20.8597   15.7038 C   0  0  0  0  0  0  0  0  0  0  0  0
   26.0936   21.0854   15.8597 H   0  0  0  0  0  0  0  0  0  0  0  0
   25.5369   19.6261   16.4384 H   0  0  0  0  0  0  0  0  0  0  0  0
   23.7709   22.4032   15.5444 C   0  0  0  0  0  0  0  0  0  0  0  0
   23.6143   22.8449   14.3963 O   0  0  0  0  0  0  0  0  0  0  0  0
   23.7309   23.1000   16.5803 O   0  0  0  0  0  0  0  0  0  0  0  0
   23.8579   22.7009   17.4185 H   0  0  0  0  0  0  0  0  0  0  0  0
 10 11  1  0  0  0
 11 14  1  0  0  0
 11  1  1  0  0  0
 14 15  2  0  0  0
 14 16  1  0  0  0
  1  2  1  0  0  0
  2  3  1  0  0  0
  2  4  2  0  0  0
  3  6  1  0  0  0
  3  7  2  0  0  0
  4  5  1  0  0  0
  4  8  1  0  0  0
  7  8  1  0  0  0
 10 12  1  0  0  0
 10 13  1  0  0  0
 16 17  1  0  0  0
  6  9  1  0  0  0
M  END
> <minimizedAffinity>
-7.47845

$$$$
3DP4_AMQ_A_374


 17 17  0  0  0  0  0  0  0  0999 V2000
   22.5573   20.4513   16.3311 C   0  0  0  0  0  0  0  0  0  0  0  0
   21.9708   19.2646   15.5881 C   0  0  0  0  0  0  0  0  0  0  0  0
   22.5085   17.9462   15.5035 C   0  0  0  0  0  0  0  0  0  0  0  0
   20.8399   19.1197   14.8408 C   0  0  0  0  0  0  0  0  0  0  0  0
   19.7188   20.0179   14.4314 C   0  0  0  0  0  0  0  0  0  0  0  0
   23.6481   17.7176   16.1381 O   0  0  0  0  0  0  0  0  0  0  0  0
   21.8614   17.0442   14.8191 N   0  0  0  0  0  0  0  0  0  0  0  0
   20.7352   17.8247   14.3670 O   0  0  0  0  0  0  0  0  0  0  0  0
   24.0660   18.4081   16.6140 H   0  0  0  0  0  0  0  0  0  0  0  0
   25.0327   20.7318   16.3818 N   0  0  0  0  0  0  0  0  0  0  0  0
   23.7878   21.0683   15.6069 C   0  0  0  0  0  0  0  0  0  0  0  0
   25.8444   21.1335   15.9124 H   0  0  0  0  0  0  0  0  0  0  0  0
   25.1371   19.7185   16.4340 H   0  0  0  0  0  0  0  0  0  0  0  0
   23.6583   22.6282   15.4458 C   0  0  0  0  0  0  0  0  0  0  0  0
   23.5762   23.0831   14.2951 O   0  0  0  0  0  0  0  0  0  0  0  0
   23.6404   23.3241   16.4829 O   0  0  0  0  0  0  0  0  0  0  0  0
   23.7068   22.9146   17.3231 H   0  0  0  0  0  0  0  0  0  0  0  0
 10 11  1  0  0  0
 11 14  1  0  0  0
 11  1  1  0  0  0
 14 15  2  0  0  0
 14 16  1  0  0  0
  1  2  1  0  0  0
  2  3  1  0  0  0
  2  4  2  0  0  0
  3  6  1  0  0  0
  3  7  2  0  0  0
  4  5  1  0  0  0
  4  8  1  0  0  0
  7  8  1  0  0  0
 10 12  1  0  0  0
 10 13  1  0  0  0
 16 17  1  0  0  0
  6  9  1  0  0  0
M  END
> <minimizedAffinity>
-7.41118

$$$$
