4NRA_2LW_A_2006


 18 20  0  0  0  0  0  0  0  0999 V2000
   67.7993   40.3502   -1.6161 C   0  0  0  0  0  0  0  0  0  0  0  0
   66.3076   40.6002   -1.3523 C   0  0  0  0  0  0  0  0  0  0  0  0
   65.7043   39.4231   -0.7237 C   0  0  0  0  0  0  0  0  0  0  0  0
   64.3936   39.1590   -0.5982 N   0  0  0  0  0  0  0  0  0  0  0  0
   64.1980   38.0043    0.0481 C   0  0  0  0  0  0  0  0  0  0  0  0
   63.0346   37.3948    0.3683 C   0  0  0  0  0  0  0  0  0  0  0  0
   63.0506   36.1634    1.0441 C   0  0  0  0  0  0  0  0  0  0  0  0
   64.3004   35.6051    1.3694 C   0  0  0  0  0  0  0  0  0  0  0  0
   64.3111   34.0939    2.1822 Cl  0  0  0  0  0  0  0  0  0  0  0  0
   65.4762   36.3032    1.0240 C   0  0  0  0  0  0  0  0  0  0  0  0
   65.4281   37.4725    0.3625 C   0  0  0  0  0  0  0  0  0  0  0  0
   66.3646   38.3450   -0.1202 C   0  0  0  0  0  0  0  0  0  0  0  0
   67.7661   38.3264   -0.0549 C   0  0  0  0  0  0  0  0  0  0  0  0
   68.3266   39.7200   -0.4325 N   0  0  0  0  0  0  0  0  0  0  0  0
   69.1432   40.4056    0.2986 C   0  0  0  0  0  0  0  0  0  0  0  0
   69.7195   41.4409   -0.0081 O   0  0  0  0  0  0  0  0  0  0  0  0
   69.7374   39.5491    1.4911 C   0  0  0  0  0  0  0  0  0  0  0  0
   63.6728   39.7379   -0.9367 H   0  0  0  0  0  0  0  0  0  0  0  0
  6  5  2  0  0  0
  6  7  1  0  0  0
  4  5  1  0  0  0
  4  3  1  0  0  0
  5 11  1  0  0  0
  2  3  1  0  0  0
  2  1  1  0  0  0
  7  8  2  0  0  0
  3 12  2  0  0  0
 16 15  2  0  0  0
 15 17  1  0  0  0
 15 14  1  0  0  0
 11 12  1  0  0  0
 11 10  2  0  0  0
  8 10  1  0  0  0
  8  9  1  0  0  0
 12 13  1  0  0  0
 14  1  1  0  0  0
 14 13  1  0  0  0
  4 18  1  0  0  0
M  END
> <minimizedAffinity>
-6.95306

$$$$
4NRA_2LW_A_2006


 18 20  0  0  0  0  0  0  0  0999 V2000
   70.0236   40.0859   -1.0170 C   0  0  0  0  0  0  0  0  0  0  0  0
   68.7069   40.8586   -1.1794 C   0  0  0  0  0  0  0  0  0  0  0  0
   67.5733   39.9975   -0.8359 C   0  0  0  0  0  0  0  0  0  0  0  0
   66.2784   40.2203   -1.1137 N   0  0  0  0  0  0  0  0  0  0  0  0
   65.5099   39.2362   -0.6338 C   0  0  0  0  0  0  0  0  0  0  0  0
   64.1678   39.0918   -0.7073 C   0  0  0  0  0  0  0  0  0  0  0  0
   63.5519   37.9621   -0.1435 C   0  0  0  0  0  0  0  0  0  0  0  0
   64.3720   37.0102    0.4898 C   0  0  0  0  0  0  0  0  0  0  0  0
   63.6130   35.6265    1.1635 Cl  0  0  0  0  0  0  0  0  0  0  0  0
   65.7635   37.2321    0.5490 C   0  0  0  0  0  0  0  0  0  0  0  0
   66.3249   38.3156   -0.0149 C   0  0  0  0  0  0  0  0  0  0  0  0
   67.6052   38.7798   -0.1439 C   0  0  0  0  0  0  0  0  0  0  0  0
   68.8256   38.2682    0.3226 C   0  0  0  0  0  0  0  0  0  0  0  0
   69.9228   39.3565    0.2215 N   0  0  0  0  0  0  0  0  0  0  0  0
   70.6730   39.7362    1.2036 C   0  0  0  0  0  0  0  0  0  0  0  0
   71.6380   40.4871    1.1498 O   0  0  0  0  0  0  0  0  0  0  0  0
   70.5499   38.7720    2.4542 C   0  0  0  0  0  0  0  0  0  0  0  0
   65.9399   41.0034   -1.6051 H   0  0  0  0  0  0  0  0  0  0  0  0
  6  5  2  0  0  0
  6  7  1  0  0  0
  4  5  1  0  0  0
  4  3  1  0  0  0
  5 11  1  0  0  0
  2  3  1  0  0  0
  2  1  1  0  0  0
  7  8  2  0  0  0
  3 12  2  0  0  0
 16 15  2  0  0  0
 15 17  1  0  0  0
 15 14  1  0  0  0
 11 12  1  0  0  0
 11 10  2  0  0  0
  8 10  1  0  0  0
  8  9  1  0  0  0
 12 13  1  0  0  0
 14  1  1  0  0  0
 14 13  1  0  0  0
  4 18  1  0  0  0
M  END
> <minimizedAffinity>
-6.42538

$$$$
4NRA_2LW_A_2006


 18 20  0  0  0  0  0  0  0  0999 V2000
   72.3459   38.6707    1.1979 C   0  0  0  0  0  0  0  0  0  0  0  0
   71.5217   39.9435    1.4390 C   0  0  0  0  0  0  0  0  0  0  0  0
   70.1675   39.7732    0.9081 C   0  0  0  0  0  0  0  0  0  0  0  0
   69.2617   40.7394    0.6849 N   0  0  0  0  0  0  0  0  0  0  0  0
   68.1198   40.2252    0.2150 C   0  0  0  0  0  0  0  0  0  0  0  0
   66.9788   40.8622   -0.1314 C   0  0  0  0  0  0  0  0  0  0  0  0
   65.8871   40.1278   -0.6235 C   0  0  0  0  0  0  0  0  0  0  0  0
   66.0267   38.7322   -0.7350 C   0  0  0  0  0  0  0  0  0  0  0  0
   64.6933   37.8444   -1.3501 Cl  0  0  0  0  0  0  0  0  0  0  0  0
   67.2375   38.1283   -0.3369 C   0  0  0  0  0  0  0  0  0  0  0  0
   68.2704   38.8606    0.1148 C   0  0  0  0  0  0  0  0  0  0  0  0
   69.5404   38.5769    0.5366 C   0  0  0  0  0  0  0  0  0  0  0  0
   70.2168   37.3556    0.6769 C   0  0  0  0  0  0  0  0  0  0  0  0
   71.4926   37.5585    1.5311 N   0  0  0  0  0  0  0  0  0  0  0  0
   71.7838   36.8756    2.5896 C   0  0  0  0  0  0  0  0  0  0  0  0
   72.8326   36.8997    3.2200 O   0  0  0  0  0  0  0  0  0  0  0  0
   70.8410   35.6147    2.7627 C   0  0  0  0  0  0  0  0  0  0  0  0
   69.4175   41.6981    0.8457 H   0  0  0  0  0  0  0  0  0  0  0  0
  6  5  2  0  0  0
  6  7  1  0  0  0
  4  5  1  0  0  0
  4  3  1  0  0  0
  5 11  1  0  0  0
  2  3  1  0  0  0
  2  1  1  0  0  0
  7  8  2  0  0  0
  3 12  2  0  0  0
 16 15  2  0  0  0
 15 17  1  0  0  0
 15 14  1  0  0  0
 11 12  1  0  0  0
 11 10  2  0  0  0
  8 10  1  0  0  0
  8  9  1  0  0  0
 12 13  1  0  0  0
 14  1  1  0  0  0
 14 13  1  0  0  0
  4 18  1  0  0  0
M  END
> <minimizedAffinity>
-6.39528

$$$$
4NRA_2LW_A_2006


 18 20  0  0  0  0  0  0  0  0999 V2000
   71.1558   40.0974    0.4332 C   0  0  0  0  0  0  0  0  0  0  0  0
   70.7377   38.8437   -0.3483 C   0  0  0  0  0  0  0  0  0  0  0  0
   69.2783   38.7802   -0.4527 C   0  0  0  0  0  0  0  0  0  0  0  0
   68.5414   37.7164   -0.8117 N   0  0  0  0  0  0  0  0  0  0  0  0
   67.2383   38.0183   -0.8207 C   0  0  0  0  0  0  0  0  0  0  0  0
   66.1838   37.2280   -1.1226 C   0  0  0  0  0  0  0  0  0  0  0  0
   64.8788   37.7434   -1.0547 C   0  0  0  0  0  0  0  0  0  0  0  0
   64.7190   39.0876   -0.6711 C   0  0  0  0  0  0  0  0  0  0  0  0
   63.1208   39.7050   -0.5771 Cl  0  0  0  0  0  0  0  0  0  0  0  0
   65.8630   39.8628   -0.3893 C   0  0  0  0  0  0  0  0  0  0  0  0
   67.0983   39.3358   -0.4473 C   0  0  0  0  0  0  0  0  0  0  0  0
   68.3596   39.8099   -0.2114 C   0  0  0  0  0  0  0  0  0  0  0  0
   68.8138   41.0845    0.1600 C   0  0  0  0  0  0  0  0  0  0  0  0
   70.3437   41.1803   -0.0608 N   0  0  0  0  0  0  0  0  0  0  0  0
   70.9290   42.0997   -0.7562 C   0  0  0  0  0  0  0  0  0  0  0  0
   72.1324   42.3016   -0.8515 O   0  0  0  0  0  0  0  0  0  0  0  0
   69.9448   43.2847   -1.1247 C   0  0  0  0  0  0  0  0  0  0  0  0
   68.9109   36.8324   -1.0380 H   0  0  0  0  0  0  0  0  0  0  0  0
  6  5  2  0  0  0
  6  7  1  0  0  0
  4  5  1  0  0  0
  4  3  1  0  0  0
  5 11  1  0  0  0
  2  3  1  0  0  0
  2  1  1  0  0  0
  7  8  2  0  0  0
  3 12  2  0  0  0
 16 15  2  0  0  0
 15 17  1  0  0  0
 15 14  1  0  0  0
 11 12  1  0  0  0
 11 10  2  0  0  0
  8 10  1  0  0  0
  8  9  1  0  0  0
 12 13  1  0  0  0
 14  1  1  0  0  0
 14 13  1  0  0  0
  4 18  1  0  0  0
M  END
> <minimizedAffinity>
-6.30031

$$$$
4NRA_2LW_A_2006


 18 20  0  0  0  0  0  0  0  0999 V2000
   70.8023   37.2937    3.4575 C   0  0  0  0  0  0  0  0  0  0  0  0
   69.9900   36.7109    2.2922 C   0  0  0  0  0  0  0  0  0  0  0  0
   69.4782   37.7914    1.4466 C   0  0  0  0  0  0  0  0  0  0  0  0
   68.5165   37.6983    0.5137 N   0  0  0  0  0  0  0  0  0  0  0  0
   68.3142   38.8777   -0.0840 C   0  0  0  0  0  0  0  0  0  0  0  0
   67.4395   39.1959   -1.0645 C   0  0  0  0  0  0  0  0  0  0  0  0
   67.3758   40.5135   -1.5473 C   0  0  0  0  0  0  0  0  0  0  0  0
   68.2435   41.4662   -0.9826 C   0  0  0  0  0  0  0  0  0  0  0  0
   68.1492   43.0763   -1.5683 Cl  0  0  0  0  0  0  0  0  0  0  0  0
   69.1462   41.0632    0.0233 C   0  0  0  0  0  0  0  0  0  0  0  0
   69.1716   39.7976    0.4759 C   0  0  0  0  0  0  0  0  0  0  0  0
   69.8899   39.1303    1.4299 C   0  0  0  0  0  0  0  0  0  0  0  0
   70.9198   39.5597    2.2805 C   0  0  0  0  0  0  0  0  0  0  0  0
   71.6317   38.3327    2.9020 N   0  0  0  0  0  0  0  0  0  0  0  0
   72.9061   38.1204    2.8528 C   0  0  0  0  0  0  0  0  0  0  0  0
   73.5335   37.2471    3.4373 O   0  0  0  0  0  0  0  0  0  0  0  0
   73.7017   39.3895    2.3380 C   0  0  0  0  0  0  0  0  0  0  0  0
   68.0260   36.8723    0.2985 H   0  0  0  0  0  0  0  0  0  0  0  0
  6  5  2  0  0  0
  6  7  1  0  0  0
  4  5  1  0  0  0
  4  3  1  0  0  0
  5 11  1  0  0  0
  2  3  1  0  0  0
  2  1  1  0  0  0
  7  8  2  0  0  0
  3 12  2  0  0  0
 16 15  2  0  0  0
 15 17  1  0  0  0
 15 14  1  0  0  0
 11 12  1  0  0  0
 11 10  2  0  0  0
  8 10  1  0  0  0
  8  9  1  0  0  0
 12 13  1  0  0  0
 14  1  1  0  0  0
 14 13  1  0  0  0
  4 18  1  0  0  0
M  END
> <minimizedAffinity>
-6.18108

$$$$
4NRA_2LW_A_2006


 18 20  0  0  0  0  0  0  0  0999 V2000
   72.9992   37.2712    1.4821 C   0  0  0  0  0  0  0  0  0  0  0  0
   72.4849   38.6359    1.9623 C   0  0  0  0  0  0  0  0  0  0  0  0
   71.1554   38.8959    1.4060 C   0  0  0  0  0  0  0  0  0  0  0  0
   70.5125   40.0745    1.3714 N   0  0  0  0  0  0  0  0  0  0  0  0
   69.3058   39.9447    0.8091 C   0  0  0  0  0  0  0  0  0  0  0  0
   68.3632   40.8887    0.5897 C   0  0  0  0  0  0  0  0  0  0  0  0
   67.1548   40.5412   -0.0367 C   0  0  0  0  0  0  0  0  0  0  0  0
   66.9694   39.1987   -0.4146 C   0  0  0  0  0  0  0  0  0  0  0  0
   65.4964   38.7857   -1.1918 Cl  0  0  0  0  0  0  0  0  0  0  0  0
   67.9849   38.2600   -0.1380 C   0  0  0  0  0  0  0  0  0  0  0  0
   69.1377   38.6270    0.4482 C   0  0  0  0  0  0  0  0  0  0  0  0
   70.2844   37.9748    0.8098 C   0  0  0  0  0  0  0  0  0  0  0  0
   70.6490   36.6233    0.7135 C   0  0  0  0  0  0  0  0  0  0  0  0
   71.8946   36.3528    1.5932 N   0  0  0  0  0  0  0  0  0  0  0  0
   71.9671   35.4349    2.5008 C   0  0  0  0  0  0  0  0  0  0  0  0
   72.9612   35.0899    3.1260 O   0  0  0  0  0  0  0  0  0  0  0  0
   70.7485   34.4260    2.4260 C   0  0  0  0  0  0  0  0  0  0  0  0
   70.8802   40.9210    1.7142 H   0  0  0  0  0  0  0  0  0  0  0  0
  6  5  2  0  0  0
  6  7  1  0  0  0
  4  5  1  0  0  0
  4  3  1  0  0  0
  5 11  1  0  0  0
  2  3  1  0  0  0
  2  1  1  0  0  0
  7  8  2  0  0  0
  3 12  2  0  0  0
 16 15  2  0  0  0
 15 17  1  0  0  0
 15 14  1  0  0  0
 11 12  1  0  0  0
 11 10  2  0  0  0
  8 10  1  0  0  0
  8  9  1  0  0  0
 12 13  1  0  0  0
 14  1  1  0  0  0
 14 13  1  0  0  0
  4 18  1  0  0  0
M  END
> <minimizedAffinity>
-5.88725

$$$$
4NRA_2LW_A_2006


 18 20  0  0  0  0  0  0  0  0999 V2000
   67.0281   40.6957    0.0032 C   0  0  0  0  0  0  0  0  0  0  0  0
   68.1471   41.1621   -0.9390 C   0  0  0  0  0  0  0  0  0  0  0  0
   69.2281   40.1744   -0.9627 C   0  0  0  0  0  0  0  0  0  0  0  0
   70.4713   40.3513   -1.4391 N   0  0  0  0  0  0  0  0  0  0  0  0
   71.1927   39.2311   -1.3210 C   0  0  0  0  0  0  0  0  0  0  0  0
   72.4765   39.0041   -1.6786 C   0  0  0  0  0  0  0  0  0  0  0  0
   73.0559   37.7448   -1.4509 C   0  0  0  0  0  0  0  0  0  0  0  0
   72.2607   36.7509   -0.8515 C   0  0  0  0  0  0  0  0  0  0  0  0
   72.9805   35.2200   -0.5641 Cl  0  0  0  0  0  0  0  0  0  0  0  0
   70.9220   37.0477   -0.5215 C   0  0  0  0  0  0  0  0  0  0  0  0
   70.4012   38.2681   -0.7370 C   0  0  0  0  0  0  0  0  0  0  0  0
   69.1850   38.8505   -0.5068 C   0  0  0  0  0  0  0  0  0  0  0  0
   67.9983   38.3309    0.0322 C   0  0  0  0  0  0  0  0  0  0  0  0
   66.8226   39.2947   -0.2637 N   0  0  0  0  0  0  0  0  0  0  0  0
   65.7179   38.9499   -0.8401 C   0  0  0  0  0  0  0  0  0  0  0  0
   64.7104   39.6315   -0.9757 O   0  0  0  0  0  0  0  0  0  0  0  0
   65.5728   37.3771   -0.9568 C   0  0  0  0  0  0  0  0  0  0  0  0
   70.8069   41.1931   -1.8238 H   0  0  0  0  0  0  0  0  0  0  0  0
  6  5  2  0  0  0
  6  7  1  0  0  0
  4  5  1  0  0  0
  4  3  1  0  0  0
  5 11  1  0  0  0
  2  3  1  0  0  0
  2  1  1  0  0  0
  7  8  2  0  0  0
  3 12  2  0  0  0
 16 15  2  0  0  0
 15 17  1  0  0  0
 15 14  1  0  0  0
 11 12  1  0  0  0
 11 10  2  0  0  0
  8 10  1  0  0  0
  8  9  1  0  0  0
 12 13  1  0  0  0
 14  1  1  0  0  0
 14 13  1  0  0  0
  4 18  1  0  0  0
M  END
> <minimizedAffinity>
-5.87693

$$$$
4NRA_2LW_A_2006


 18 20  0  0  0  0  0  0  0  0999 V2000
   72.3803   36.4458    3.2966 C   0  0  0  0  0  0  0  0  0  0  0  0
   71.9808   36.0565    1.8661 C   0  0  0  0  0  0  0  0  0  0  0  0
   70.9916   37.0027    1.3456 C   0  0  0  0  0  0  0  0  0  0  0  0
   70.2135   36.8414    0.2630 N   0  0  0  0  0  0  0  0  0  0  0  0
   69.4397   37.9145    0.0658 C   0  0  0  0  0  0  0  0  0  0  0  0
   68.5271   38.1385   -0.9061 C   0  0  0  0  0  0  0  0  0  0  0  0
   67.8019   39.3415   -0.9235 C   0  0  0  0  0  0  0  0  0  0  0  0
   68.0619   40.2838    0.0883 C   0  0  0  0  0  0  0  0  0  0  0  0
   67.1616   41.7445    0.0676 Cl  0  0  0  0  0  0  0  0  0  0  0  0
   69.0418   39.9957    1.0608 C   0  0  0  0  0  0  0  0  0  0  0  0
   69.7076   38.8278    1.0602 C   0  0  0  0  0  0  0  0  0  0  0  0
   70.6637   38.2639    1.8597 C   0  0  0  0  0  0  0  0  0  0  0  0
   71.3293   38.7560    2.9926 C   0  0  0  0  0  0  0  0  0  0  0  0
   72.5658   37.8747    3.2977 N   0  0  0  0  0  0  0  0  0  0  0  0
   73.7706   38.3227    3.4363 C   0  0  0  0  0  0  0  0  0  0  0  0
   74.7542   37.6967    3.8085 O   0  0  0  0  0  0  0  0  0  0  0  0
   73.8096   39.9024    3.5450 C   0  0  0  0  0  0  0  0  0  0  0  0
   70.2127   36.0402   -0.3092 H   0  0  0  0  0  0  0  0  0  0  0  0
  6  5  2  0  0  0
  6  7  1  0  0  0
  4  5  1  0  0  0
  4  3  1  0  0  0
  5 11  1  0  0  0
  2  3  1  0  0  0
  2  1  1  0  0  0
  7  8  2  0  0  0
  3 12  2  0  0  0
 16 15  2  0  0  0
 15 17  1  0  0  0
 15 14  1  0  0  0
 11 12  1  0  0  0
 11 10  2  0  0  0
  8 10  1  0  0  0
  8  9  1  0  0  0
 12 13  1  0  0  0
 14  1  1  0  0  0
 14 13  1  0  0  0
  4 18  1  0  0  0
M  END
> <minimizedAffinity>
-5.86789

$$$$
4NRA_2LW_A_2006


 18 20  0  0  0  0  0  0  0  0999 V2000
   67.5204   38.6089   -1.2727 C   0  0  0  0  0  0  0  0  0  0  0  0
   67.4773   37.6829   -0.0487 C   0  0  0  0  0  0  0  0  0  0  0  0
   68.6357   37.9332    0.8117 C   0  0  0  0  0  0  0  0  0  0  0  0
   69.0855   37.1503    1.8059 N   0  0  0  0  0  0  0  0  0  0  0  0
   70.1543   37.6952    2.3974 C   0  0  0  0  0  0  0  0  0  0  0  0
   70.8908   37.2213    3.4273 C   0  0  0  0  0  0  0  0  0  0  0  0
   71.9968   37.9514    3.8932 C   0  0  0  0  0  0  0  0  0  0  0  0
   72.2971   39.1711    3.2593 C   0  0  0  0  0  0  0  0  0  0  0  0
   73.6580   40.0496    3.8254 Cl  0  0  0  0  0  0  0  0  0  0  0  0
   71.4756   39.6178    2.2035 C   0  0  0  0  0  0  0  0  0  0  0  0
   70.4335   38.8879    1.7695 C   0  0  0  0  0  0  0  0  0  0  0  0
   69.4991   39.0359    0.7815 C   0  0  0  0  0  0  0  0  0  0  0  0
   69.2843   40.0719   -0.1402 C   0  0  0  0  0  0  0  0  0  0  0  0
   67.8861   39.9155   -0.7876 N   0  0  0  0  0  0  0  0  0  0  0  0
   66.9832   40.8404   -0.8174 C   0  0  0  0  0  0  0  0  0  0  0  0
   65.9225   40.8191   -1.4278 O   0  0  0  0  0  0  0  0  0  0  0  0
   67.5580   42.2481   -0.3743 C   0  0  0  0  0  0  0  0  0  0  0  0
   68.6823   36.2903    2.0648 H   0  0  0  0  0  0  0  0  0  0  0  0
  6  5  2  0  0  0
  6  7  1  0  0  0
  4  5  1  0  0  0
  4  3  1  0  0  0
  5 11  1  0  0  0
  2  3  1  0  0  0
  2  1  1  0  0  0
  7  8  2  0  0  0
  3 12  2  0  0  0
 16 15  2  0  0  0
 15 17  1  0  0  0
 15 14  1  0  0  0
 11 12  1  0  0  0
 11 10  2  0  0  0
  8 10  1  0  0  0
  8  9  1  0  0  0
 12 13  1  0  0  0
 14  1  1  0  0  0
 14 13  1  0  0  0
  4 18  1  0  0  0
M  END
> <minimizedAffinity>
-5.67111

$$$$
4NRA_2LW_A_2006


 18 20  0  0  0  0  0  0  0  0999 V2000
   68.6529   40.6052   -0.2008 C   0  0  0  0  0  0  0  0  0  0  0  0
   70.1052   40.4373   -0.6699 C   0  0  0  0  0  0  0  0  0  0  0  0
   70.6778   39.2140   -0.1038 C   0  0  0  0  0  0  0  0  0  0  0  0
   71.9774   38.8783   -0.0585 N   0  0  0  0  0  0  0  0  0  0  0  0
   72.1420   37.6789    0.5105 C   0  0  0  0  0  0  0  0  0  0  0  0
   73.2858   36.9963    0.7411 C   0  0  0  0  0  0  0  0  0  0  0  0
   73.2392   35.7425    1.3729 C   0  0  0  0  0  0  0  0  0  0  0  0
   71.9799   35.2367    1.7441 C   0  0  0  0  0  0  0  0  0  0  0  0
   71.9333   33.7110    2.5279 Cl  0  0  0  0  0  0  0  0  0  0  0  0
   70.8237   35.9912    1.4558 C   0  0  0  0  0  0  0  0  0  0  0  0
   70.9026   37.1960    0.8647 C   0  0  0  0  0  0  0  0  0  0  0  0
   69.9928   38.1472    0.4922 C   0  0  0  0  0  0  0  0  0  0  0  0
   68.5926   38.1714    0.5785 C   0  0  0  0  0  0  0  0  0  0  0  0
   68.0326   39.3093   -0.3104 N   0  0  0  0  0  0  0  0  0  0  0  0
   67.1313   39.1515   -1.2238 C   0  0  0  0  0  0  0  0  0  0  0  0
   66.5586   40.0284   -1.8571 O   0  0  0  0  0  0  0  0  0  0  0  0
   66.4497   37.7239   -1.1474 C   0  0  0  0  0  0  0  0  0  0  0  0
   72.7110   39.4399   -0.3985 H   0  0  0  0  0  0  0  0  0  0  0  0
  6  5  2  0  0  0
  6  7  1  0  0  0
  4  5  1  0  0  0
  4  3  1  0  0  0
  5 11  1  0  0  0
  2  3  1  0  0  0
  2  1  1  0  0  0
  7  8  2  0  0  0
  3 12  2  0  0  0
 16 15  2  0  0  0
 15 17  1  0  0  0
 15 14  1  0  0  0
 11 12  1  0  0  0
 11 10  2  0  0  0
  8 10  1  0  0  0
  8  9  1  0  0  0
 12 13  1  0  0  0
 14  1  1  0  0  0
 14 13  1  0  0  0
  4 18  1  0  0  0
M  END
> <minimizedAffinity>
-5.45948

$$$$
