1X8D_RNS_A_1105
  RCSB PDB12061704363D
Coordinates from PDB:1X8D:A:1105 Model:1 without hydrogens
 11 10  0  0  0  0            999 V2000
   11.2370   31.7770   10.2980   C 0  0  0  0  0  0  0  0  0  0  0  0
   12.1450   31.8480    9.0710   C 0  0  0  0  0  0  0  0  0  0  0  0
   11.3990   31.2440    7.8730   C 0  0  0  0  0  0  0  0  0  0  0  0
   10.0740   31.9830    7.6650   C 0  0  0  0  0  0  0  0  0  0  0  0
    9.2610   31.9360    8.9670   C 0  0  0  0  0  0  0  0  0  0  0  0
    7.9470   32.6880    8.8920   C 0  0  0  0  0  0  0  0  0  0  0  0
   11.8730   32.3340   11.3890   O 0  0  0  0  0  0  0  0  0  0  0  0
   12.4920   33.2080    8.8100   O 0  0  0  0  0  0  0  0  0  0  0  0
   12.1910   31.3340    6.6960   O 0  0  0  0  0  0  0  0  0  0  0  0
    9.3550   31.3560    6.6090   O 0  0  0  0  0  0  0  0  0  0  0  0
   10.0260   32.5060   10.0530   O 0  0  0  0  0  0  0  0  0  0  0  0
  1  2  1  0  0  0  0
  1  7  2  0  0  0  0
  2  3  1  0  0  0  0
  2  8  1  0  0  0  0
  3  4  1  0  0  0  0
  3  9  1  0  0  0  0
  4  5  1  0  0  0  0
  4 10  1  0  0  0  0
  5  6  1  0  0  0  0
  5 11  1  0  0  0  0
A    1
C1
A    2
C2
A    3
C3
A    4
C4
A    5
C5
A    6
C6
A    7
O1
A    8
O2
A    9
O3
A   10
O4
A   11
O5
M  END
>  <InstanceId>
1X8D_RNS_A_1105

>  <ChemCompId>
RNS

>  <PdbId>
1X8D

>  <ChainId>
A

>  <ResidueNumber>
1105

>  <InsertionCode>


>  <Model>
1

>  <AltIds>


>  <MissingHeavyAtoms>
0

>  <ObservedFormula>
C6 O5

>  <Name>
L-RHAMNOSE

>  <SystematicName>
(2R,3R,4S,5S)-2,3,4,5-tetrahydroxyhexanal

>  <Synonyms>


>  <Type>
L-SACCHARIDE

>  <Formula>
C6 H12 O5

>  <MolecularWeight>
164.156

>  <ModifiedDate>
2011-06-04

>  <Parent>


>  <OneLetterCode>


>  <SubcomponentList>


>  <AmbiguousFlag>
N

>  <InChI>
InChI=1S/C6H12O5/c1-3(8)5(10)6(11)4(9)2-7/h2-6,8-11H,1H3/t3-,4-,5-,6-/m0/s1

>  <InChIKey>
PNNNRSAQSRJVSB-BXKVDMCESA-N

>  <SMILES>
C[C@@H]([C@@H]([C@H]([C@H](C=O)O)O)O)O

$$$$
