1ZOG_K37_A_501


 16 17  0  0  0  0  0  0  0  0999 V2000
   23.0909    6.8646   17.8105 C   0  0  0  0  0  0  0  0  0  0  0  0
   22.4665    7.9845   17.2580 C   0  0  0  0  0  0  0  0  0  0  0  0
   21.6180    8.7943   18.0196 C   0  0  0  0  0  0  0  0  0  0  0  0
   22.8779    6.5401   19.1517 C   0  0  0  0  0  0  0  0  0  0  0  0
   21.6842    7.2290   21.1565 N   0  0  0  0  0  0  0  0  0  0  0  0
   22.0543    7.3650   19.8982 C   0  0  0  0  0  0  0  0  0  0  0  0
   21.4327    8.4551   19.3540 C   0  0  0  0  0  0  0  0  0  0  0  0
   20.6567    8.9964   20.2793 N   0  0  0  0  0  0  0  0  0  0  0  0
   20.8350    8.2417   21.3676 C   0  0  0  0  0  0  0  0  0  0  0  0
   23.6492    4.9886   19.9149 Br  0  0  0  0  0  0  0  0  0  0  0  0
   24.2965    5.7911   16.8036 Br  0  0  0  0  0  0  0  0  0  0  0  0
   22.7362    8.4057   15.4264 Br  0  0  0  0  0  0  0  0  0  0  0  0
   20.7757   10.3159   17.2561 Br  0  0  0  0  0  0  0  0  0  0  0  0
   21.9687    6.5376   21.7970 H   0  0  0  0  0  0  0  0  0  0  0  0
   20.1427    8.5531   22.9632 S   0  0  0  0  0  0  0  0  0  0  0  0
   20.1945    7.0307   23.9451 C   0  0  0  0  0  0  0  0  0  0  0  0
  1  2  2  0  0  0
  1  4  1  0  0  0
  1 11  1  0  0  0
  2  3  1  0  0  0
  2 12  1  0  0  0
  3  7  2  0  0  0
  3 13  1  0  0  0
  4  6  2  0  0  0
  4 10  1  0  0  0
  5  6  1  0  0  0
  5  9  1  0  0  0
  6  7  1  0  0  0
  7  8  1  0  0  0
  8  9  2  0  0  0
  9 15  1  0  0  0
 15 16  1  0  0  0
  5 14  1  0  0  0
M  END
> <minimizedAffinity>
-7.55958

$$$$
1ZOG_K37_A_501


 16 17  0  0  0  0  0  0  0  0999 V2000
   23.0653    7.3666   17.1010 C   0  0  0  0  0  0  0  0  0  0  0  0
   23.5506    6.2482   17.7816 C   0  0  0  0  0  0  0  0  0  0  0  0
   23.2238    6.0130   19.1208 C   0  0  0  0  0  0  0  0  0  0  0  0
   22.2298    8.2722   17.7577 C   0  0  0  0  0  0  0  0  0  0  0  0
   21.1644    8.7436   19.8935 N   0  0  0  0  0  0  0  0  0  0  0  0
   21.8966    8.0126   19.0759 C   0  0  0  0  0  0  0  0  0  0  0  0
   22.3817    6.9236   19.7464 C   0  0  0  0  0  0  0  0  0  0  0  0
   21.9582    6.9838   20.9988 N   0  0  0  0  0  0  0  0  0  0  0  0
   21.2120    8.0907   21.0608 C   0  0  0  0  0  0  0  0  0  0  0  0
   21.6125    9.8373   16.8893 Br  0  0  0  0  0  0  0  0  0  0  0  0
   23.4504    7.6653   15.2620 Br  0  0  0  0  0  0  0  0  0  0  0  0
   24.7095    5.0346   16.8934 Br  0  0  0  0  0  0  0  0  0  0  0  0
   23.8896    4.4869   20.0347 Br  0  0  0  0  0  0  0  0  0  0  0  0
   20.6893    9.5816   19.6907 H   0  0  0  0  0  0  0  0  0  0  0  0
   20.2810    8.6295   22.4626 S   0  0  0  0  0  0  0  0  0  0  0  0
   20.1936    7.2854   23.6751 C   0  0  0  0  0  0  0  0  0  0  0  0
  1  2  2  0  0  0
  1  4  1  0  0  0
  1 11  1  0  0  0
  2  3  1  0  0  0
  2 12  1  0  0  0
  3  7  2  0  0  0
  3 13  1  0  0  0
  4  6  2  0  0  0
  4 10  1  0  0  0
  5  6  1  0  0  0
  5  9  1  0  0  0
  6  7  1  0  0  0
  7  8  1  0  0  0
  8  9  2  0  0  0
  9 15  1  0  0  0
 15 16  1  0  0  0
  5 14  1  0  0  0
M  END
> <minimizedAffinity>
-7.49725

$$$$
1ZOG_K37_A_501


 16 17  0  0  0  0  0  0  0  0999 V2000
   22.6642    7.2215   18.6424 C   0  0  0  0  0  0  0  0  0  0  0  0
   22.8212    7.6377   17.3190 C   0  0  0  0  0  0  0  0  0  0  0  0
   23.5775    6.8944   16.4073 C   0  0  0  0  0  0  0  0  0  0  0  0
   23.2634    6.0368   19.0749 C   0  0  0  0  0  0  0  0  0  0  0  0
   24.6655    4.1856   18.3497 N   0  0  0  0  0  0  0  0  0  0  0  0
   23.9889    5.3004   18.1543 C   0  0  0  0  0  0  0  0  0  0  0  0
   24.1530    5.7142   16.8610 C   0  0  0  0  0  0  0  0  0  0  0  0
   24.9513    4.8552   16.2476 N   0  0  0  0  0  0  0  0  0  0  0  0
   25.2397    3.9303   17.1681 C   0  0  0  0  0  0  0  0  0  0  0  0
   23.1331    5.4793   20.8796 Br  0  0  0  0  0  0  0  0  0  0  0  0
   21.5867    8.1895   19.8759 Br  0  0  0  0  0  0  0  0  0  0  0  0
   22.0286    9.2638   16.7426 Br  0  0  0  0  0  0  0  0  0  0  0  0
   23.7820    7.4711   14.6093 Br  0  0  0  0  0  0  0  0  0  0  0  0
   24.7330    3.6591   19.1788 H   0  0  0  0  0  0  0  0  0  0  0  0
   26.1776    2.4584   16.8924 S   0  0  0  0  0  0  0  0  0  0  0  0
   25.0591    1.0327   16.8660 C   0  0  0  0  0  0  0  0  0  0  0  0
  1  2  2  0  0  0
  1  4  1  0  0  0
  1 11  1  0  0  0
  2  3  1  0  0  0
  2 12  1  0  0  0
  3  7  2  0  0  0
  3 13  1  0  0  0
  4  6  2  0  0  0
  4 10  1  0  0  0
  5  6  1  0  0  0
  5  9  1  0  0  0
  6  7  1  0  0  0
  7  8  1  0  0  0
  8  9  2  0  0  0
  9 15  1  0  0  0
 15 16  1  0  0  0
  5 14  1  0  0  0
M  END
> <minimizedAffinity>
-7.48659

$$$$
1ZOG_K37_A_501


 16 17  0  0  0  0  0  0  0  0999 V2000
   22.7488    7.7175   17.3504 C   0  0  0  0  0  0  0  0  0  0  0  0
   22.5441    7.3213   18.6734 C   0  0  0  0  0  0  0  0  0  0  0  0
   23.1074    6.1442   19.1759 C   0  0  0  0  0  0  0  0  0  0  0  0
   23.5363    6.9348   16.5036 C   0  0  0  0  0  0  0  0  0  0  0  0
   24.8434    4.8855   16.4017 N   0  0  0  0  0  0  0  0  0  0  0  0
   24.1062    5.7852   17.0229 C   0  0  0  0  0  0  0  0  0  0  0  0
   23.8957    5.3905   18.3154 C   0  0  0  0  0  0  0  0  0  0  0  0
   24.4971    4.2258   18.4978 N   0  0  0  0  0  0  0  0  0  0  0  0
   25.0748    3.9455   17.3258 C   0  0  0  0  0  0  0  0  0  0  0  0
   23.7756    7.4022   14.6846 Br  0  0  0  0  0  0  0  0  0  0  0  0
   22.0408    9.3478   16.6718 Br  0  0  0  0  0  0  0  0  0  0  0  0
   21.4491    8.3735   19.8131 Br  0  0  0  0  0  0  0  0  0  0  0  0
   22.8222    5.6173   20.9783 Br  0  0  0  0  0  0  0  0  0  0  0  0
   25.1538    4.9016   15.4675 H   0  0  0  0  0  0  0  0  0  0  0  0
   26.1258    2.5632   16.9986 S   0  0  0  0  0  0  0  0  0  0  0  0
   25.1132    1.0705   16.8226 C   0  0  0  0  0  0  0  0  0  0  0  0
  1  2  2  0  0  0
  1  4  1  0  0  0
  1 11  1  0  0  0
  2  3  1  0  0  0
  2 12  1  0  0  0
  3  7  2  0  0  0
  3 13  1  0  0  0
  4  6  2  0  0  0
  4 10  1  0  0  0
  5  6  1  0  0  0
  5  9  1  0  0  0
  6  7  1  0  0  0
  7  8  1  0  0  0
  8  9  2  0  0  0
  9 15  1  0  0  0
 15 16  1  0  0  0
  5 14  1  0  0  0
M  END
> <minimizedAffinity>
-7.41338

$$$$
1ZOG_K37_A_501


 16 17  0  0  0  0  0  0  0  0999 V2000
   21.6370    8.6579   17.8998 C   0  0  0  0  0  0  0  0  0  0  0  0
   21.5380    8.1789   19.2075 C   0  0  0  0  0  0  0  0  0  0  0  0
   22.2597    7.0574   19.6281 C   0  0  0  0  0  0  0  0  0  0  0  0
   22.4760    8.0174   16.9858 C   0  0  0  0  0  0  0  0  0  0  0  0
   24.0143    6.1499   16.7312 N   0  0  0  0  0  0  0  0  0  0  0  0
   23.2015    6.9231   17.4243 C   0  0  0  0  0  0  0  0  0  0  0  0
   23.0954    6.4463   18.7018 C   0  0  0  0  0  0  0  0  0  0  0  0
   23.8396    5.3565   18.8021 N   0  0  0  0  0  0  0  0  0  0  0  0
   24.3962    5.2035   17.5969 C   0  0  0  0  0  0  0  0  0  0  0  0
   22.5795    8.5942   15.1855 Br  0  0  0  0  0  0  0  0  0  0  0  0
   20.7099   10.2192   17.3319 Br  0  0  0  0  0  0  0  0  0  0  0  0
   20.3742    9.0356   20.4389 Br  0  0  0  0  0  0  0  0  0  0  0  0
   22.1171    6.4167   21.4105 Br  0  0  0  0  0  0  0  0  0  0  0  0
   24.2804    6.2470   15.7883 H   0  0  0  0  0  0  0  0  0  0  0  0
   25.5907    3.9765   17.1610 S   0  0  0  0  0  0  0  0  0  0  0  0
   25.6816    2.7356   18.4787 C   0  0  0  0  0  0  0  0  0  0  0  0
  1  2  2  0  0  0
  1  4  1  0  0  0
  1 11  1  0  0  0
  2  3  1  0  0  0
  2 12  1  0  0  0
  3  7  2  0  0  0
  3 13  1  0  0  0
  4  6  2  0  0  0
  4 10  1  0  0  0
  5  6  1  0  0  0
  5  9  1  0  0  0
  6  7  1  0  0  0
  7  8  1  0  0  0
  8  9  2  0  0  0
  9 15  1  0  0  0
 15 16  1  0  0  0
  5 14  1  0  0  0
M  END
> <minimizedAffinity>
-7.17110

$$$$
1ZOG_K37_A_501


 16 17  0  0  0  0  0  0  0  0999 V2000
   21.7739    7.9875   19.1907 C   0  0  0  0  0  0  0  0  0  0  0  0
   21.8535    8.4612   17.8798 C   0  0  0  0  0  0  0  0  0  0  0  0
   22.6342    7.8126   16.9179 C   0  0  0  0  0  0  0  0  0  0  0  0
   22.4777    6.8393   19.5595 C   0  0  0  0  0  0  0  0  0  0  0  0
   23.9944    5.1314   18.7220 N   0  0  0  0  0  0  0  0  0  0  0  0
   23.2270    6.1955   18.5899 C   0  0  0  0  0  0  0  0  0  0  0  0
   23.3148    6.6663   17.3087 C   0  0  0  0  0  0  0  0  0  0  0  0
   24.1564    5.8952   16.6390 N   0  0  0  0  0  0  0  0  0  0  0  0
   24.5467    4.9641   17.5145 C   0  0  0  0  0  0  0  0  0  0  0  0
   22.4520    6.2099   21.3450 Br  0  0  0  0  0  0  0  0  0  0  0  0
   20.6664    8.8231   20.4925 Br  0  0  0  0  0  0  0  0  0  0  0  0
   20.9178   10.0390   17.3900 Br  0  0  0  0  0  0  0  0  0  0  0  0
   22.7327    8.4668   15.1374 Br  0  0  0  0  0  0  0  0  0  0  0  0
   24.1306    4.5829   19.5282 H   0  0  0  0  0  0  0  0  0  0  0  0
   25.5865    3.5815   17.1546 S   0  0  0  0  0  0  0  0  0  0  0  0
   24.5946    2.0650   17.1787 C   0  0  0  0  0  0  0  0  0  0  0  0
  1  2  2  0  0  0
  1  4  1  0  0  0
  1 11  1  0  0  0
  2  3  1  0  0  0
  2 12  1  0  0  0
  3  7  2  0  0  0
  3 13  1  0  0  0
  4  6  2  0  0  0
  4 10  1  0  0  0
  5  6  1  0  0  0
  5  9  1  0  0  0
  6  7  1  0  0  0
  7  8  1  0  0  0
  8  9  2  0  0  0
  9 15  1  0  0  0
 15 16  1  0  0  0
  5 14  1  0  0  0
M  END
> <minimizedAffinity>
-7.01257

$$$$
1ZOG_K37_A_501


 16 17  0  0  0  0  0  0  0  0999 V2000
   21.9758    7.7561   19.0947 C   0  0  0  0  0  0  0  0  0  0  0  0
   22.3588    7.9648   17.7684 C   0  0  0  0  0  0  0  0  0  0  0  0
   23.2078    7.0718   17.1071 C   0  0  0  0  0  0  0  0  0  0  0  0
   22.4370    6.6326   19.7835 C   0  0  0  0  0  0  0  0  0  0  0  0
   23.8356    4.6537   19.5674 N   0  0  0  0  0  0  0  0  0  0  0  0
   23.2574    5.7459   19.1075 C   0  0  0  0  0  0  0  0  0  0  0  0
   23.6426    5.9566   17.8121 C   0  0  0  0  0  0  0  0  0  0  0  0
   24.4804    4.9926   17.4654 N   0  0  0  0  0  0  0  0  0  0  0  0
   24.5728    4.2079   18.5432 C   0  0  0  0  0  0  0  0  0  0  0  0
   21.9979    6.3555   21.6042 Br  0  0  0  0  0  0  0  0  0  0  0  0
   20.7716    8.9287   19.9861 Br  0  0  0  0  0  0  0  0  0  0  0  0
   21.7524    9.5088   16.8446 Br  0  0  0  0  0  0  0  0  0  0  0  0
   23.7202    7.3668   15.3021 Br  0  0  0  0  0  0  0  0  0  0  0  0
   23.7453    4.2555   20.4632 H   0  0  0  0  0  0  0  0  0  0  0  0
   25.4634    2.6846   18.6364 S   0  0  0  0  0  0  0  0  0  0  0  0
   25.6432    1.9940   16.9705 C   0  0  0  0  0  0  0  0  0  0  0  0
  1  2  2  0  0  0
  1  4  1  0  0  0
  1 11  1  0  0  0
  2  3  1  0  0  0
  2 12  1  0  0  0
  3  7  2  0  0  0
  3 13  1  0  0  0
  4  6  2  0  0  0
  4 10  1  0  0  0
  5  6  1  0  0  0
  5  9  1  0  0  0
  6  7  1  0  0  0
  7  8  1  0  0  0
  8  9  2  0  0  0
  9 15  1  0  0  0
 15 16  1  0  0  0
  5 14  1  0  0  0
M  END
> <minimizedAffinity>
-6.95552

$$$$
1ZOG_K37_A_501


 16 17  0  0  0  0  0  0  0  0999 V2000
   21.4686    8.7077   18.0654 C   0  0  0  0  0  0  0  0  0  0  0  0
   22.3420    8.0641   17.1867 C   0  0  0  0  0  0  0  0  0  0  0  0
   23.0529    6.9233   17.5726 C   0  0  0  0  0  0  0  0  0  0  0  0
   21.2869    8.2077   19.3564 C   0  0  0  0  0  0  0  0  0  0  0  0
   21.9921    6.4475   20.8806 N   0  0  0  0  0  0  0  0  0  0  0  0
   21.9796    7.0643   19.7151 C   0  0  0  0  0  0  0  0  0  0  0  0
   22.8446    6.4407   18.8585 C   0  0  0  0  0  0  0  0  0  0  0  0
   23.4121    5.4326   19.5013 N   0  0  0  0  0  0  0  0  0  0  0  0
   22.8702    5.4500   20.7228 C   0  0  0  0  0  0  0  0  0  0  0  0
   20.1673    9.0957   20.5984 Br  0  0  0  0  0  0  0  0  0  0  0  0
   20.4481   10.2226   17.5333 Br  0  0  0  0  0  0  0  0  0  0  0  0
   22.6080    8.7639   15.4418 Br  0  0  0  0  0  0  0  0  0  0  0  0
   24.2370    6.0564   16.3669 Br  0  0  0  0  0  0  0  0  0  0  0  0
   21.4720    6.6708   21.6861 H   0  0  0  0  0  0  0  0  0  0  0  0
   23.1566    4.2577   21.9950 S   0  0  0  0  0  0  0  0  0  0  0  0
   21.5782    3.8188   22.7697 C   0  0  0  0  0  0  0  0  0  0  0  0
  1  2  2  0  0  0
  1  4  1  0  0  0
  1 11  1  0  0  0
  2  3  1  0  0  0
  2 12  1  0  0  0
  3  7  2  0  0  0
  3 13  1  0  0  0
  4  6  2  0  0  0
  4 10  1  0  0  0
  5  6  1  0  0  0
  5  9  1  0  0  0
  6  7  1  0  0  0
  7  8  1  0  0  0
  8  9  2  0  0  0
  9 15  1  0  0  0
 15 16  1  0  0  0
  5 14  1  0  0  0
M  END
> <minimizedAffinity>
-6.75181

$$$$
1ZOG_K37_A_501


 16 17  0  0  0  0  0  0  0  0999 V2000
   22.3548    8.0713   17.1041 C   0  0  0  0  0  0  0  0  0  0  0  0
   21.4965    8.7231   17.9917 C   0  0  0  0  0  0  0  0  0  0  0  0
   21.3161    8.2628   19.2998 C   0  0  0  0  0  0  0  0  0  0  0  0
   23.0587    6.9399   17.5212 C   0  0  0  0  0  0  0  0  0  0  0  0
   23.4133    5.4553   19.4156 N   0  0  0  0  0  0  0  0  0  0  0  0
   22.8872    6.5109   18.8261 C   0  0  0  0  0  0  0  0  0  0  0  0
   22.0372    7.1421   19.6920 C   0  0  0  0  0  0  0  0  0  0  0  0
   22.0232    6.4648   20.8289 N   0  0  0  0  0  0  0  0  0  0  0  0
   22.8748    5.4522   20.6408 C   0  0  0  0  0  0  0  0  0  0  0  0
   24.1744    5.9880   16.3238 Br  0  0  0  0  0  0  0  0  0  0  0  0
   22.6578    8.7231   15.3425 Br  0  0  0  0  0  0  0  0  0  0  0  0
   20.5195   10.2442   17.4116 Br  0  0  0  0  0  0  0  0  0  0  0  0
   20.1464    9.1597   20.4977 Br  0  0  0  0  0  0  0  0  0  0  0  0
   24.0577    4.8133   19.0390 H   0  0  0  0  0  0  0  0  0  0  0  0
   23.3600    4.2722   21.8633 S   0  0  0  0  0  0  0  0  0  0  0  0
   22.0462    3.0393   22.0591 C   0  0  0  0  0  0  0  0  0  0  0  0
  1  2  2  0  0  0
  1  4  1  0  0  0
  1 11  1  0  0  0
  2  3  1  0  0  0
  2 12  1  0  0  0
  3  7  2  0  0  0
  3 13  1  0  0  0
  4  6  2  0  0  0
  4 10  1  0  0  0
  5  6  1  0  0  0
  5  9  1  0  0  0
  6  7  1  0  0  0
  7  8  1  0  0  0
  8  9  2  0  0  0
  9 15  1  0  0  0
 15 16  1  0  0  0
  5 14  1  0  0  0
M  END
> <minimizedAffinity>
-6.72902

$$$$
1ZOG_K37_A_501


 16 17  0  0  0  0  0  0  0  0999 V2000
   21.7913    8.2166   18.5289 C   0  0  0  0  0  0  0  0  0  0  0  0
   22.4897    7.1457   19.0899 C   0  0  0  0  0  0  0  0  0  0  0  0
   22.3278    6.7956   20.4340 C   0  0  0  0  0  0  0  0  0  0  0  0
   20.9045    8.9564   19.3137 C   0  0  0  0  0  0  0  0  0  0  0  0
   19.9923    9.1560   21.5601 N   0  0  0  0  0  0  0  0  0  0  0  0
   20.7376    8.5824   20.6359 C   0  0  0  0  0  0  0  0  0  0  0  0
   21.4309    7.5411   21.1889 C   0  0  0  0  0  0  0  0  0  0  0  0
   21.1243    7.4734   22.4745 N   0  0  0  0  0  0  0  0  0  0  0  0
   20.2410    8.4563   22.6735 C   0  0  0  0  0  0  0  0  0  0  0  0
   19.9960   10.4596   18.6067 Br  0  0  0  0  0  0  0  0  0  0  0  0
   21.9544    8.6642   16.6870 Br  0  0  0  0  0  0  0  0  0  0  0  0
   23.7161    6.1605   18.0267 Br  0  0  0  0  0  0  0  0  0  0  0  0
   23.2831    5.3356   21.1845 Br  0  0  0  0  0  0  0  0  0  0  0  0
   19.3883    9.9263   21.4548 H   0  0  0  0  0  0  0  0  0  0  0  0
   19.3819    8.7806   24.1832 S   0  0  0  0  0  0  0  0  0  0  0  0
   19.4294    7.3007   25.2281 C   0  0  0  0  0  0  0  0  0  0  0  0
  1  2  2  0  0  0
  1  4  1  0  0  0
  1 11  1  0  0  0
  2  3  1  0  0  0
  2 12  1  0  0  0
  3  7  2  0  0  0
  3 13  1  0  0  0
  4  6  2  0  0  0
  4 10  1  0  0  0
  5  6  1  0  0  0
  5  9  1  0  0  0
  6  7  1  0  0  0
  7  8  1  0  0  0
  8  9  2  0  0  0
  9 15  1  0  0  0
 15 16  1  0  0  0
  5 14  1  0  0  0
M  END
> <minimizedAffinity>
-6.72671

$$$$
