3GA5_RGG_A_400


 23 23  0  0  0  0  0  0  0  0999 V2000
   -0.5240   -4.2728    2.0942 C   0  0  0  0  0  0  0  0  0  0  0  0
    0.2990   -4.7344    3.2947 C   0  0  0  0  0  0  0  0  0  0  0  0
    0.3994   -6.1681    3.2384 O   0  0  0  0  0  0  0  0  0  0  0  0
   -0.3347   -4.3552    4.6237 C   0  0  0  0  0  0  0  0  0  0  0  0
    0.5907   -4.6213    5.6958 O   0  0  0  0  0  0  0  0  0  0  0  0
   -0.7382   -2.8830    4.6265 C   0  0  0  0  0  0  0  0  0  0  0  0
    0.4339   -2.0589    4.5735 O   0  0  0  0  0  0  0  0  0  0  0  0
   -1.6332   -2.5820    3.4283 C   0  0  0  0  0  0  0  0  0  0  0  0
   -0.9314   -2.8992    2.2171 O   0  0  0  0  0  0  0  0  0  0  0  0
   -0.4879   -6.5566    3.2892 H   0  0  0  0  0  0  0  0  0  0  0  0
    1.3922   -4.0896    5.5705 H   0  0  0  0  0  0  0  0  0  0  0  0
    0.9253   -2.2476    3.7588 H   0  0  0  0  0  0  0  0  0  0  0  0
   -2.0092   -1.0990    3.4147 C   0  0  0  0  0  0  0  0  0  0  0  0
   -2.0755   -0.5754    4.7518 O   0  0  0  0  0  0  0  0  0  0  0  0
   -2.7523   -1.0558    5.2539 H   0  0  0  0  0  0  0  0  0  0  0  0
    0.2744   -4.4313    0.9201 O   0  0  0  0  0  0  0  0  0  0  0  0
   -0.4211   -4.3050   -0.3054 C   0  0  0  0  0  0  0  0  0  0  0  0
    0.4314   -4.8591   -1.4445 C   0  0  0  0  0  0  0  0  0  0  0  0
    1.8273   -4.6332   -1.1914 O   0  0  0  0  0  0  0  0  0  0  0  0
    1.9881   -3.6817   -1.0924 H   0  0  0  0  0  0  0  0  0  0  0  0
   -0.8869   -4.8652   -3.4439 O   0  0  0  0  0  0  0  0  0  0  0  0
    0.0421   -4.0741   -2.6878 C   0  0  0  0  0  0  0  0  0  0  0  0
   -1.1483   -4.3813   -4.2429 H   0  0  0  0  0  0  0  0  0  0  0  0
 21 22  1  0  0  0
 22 18  1  0  0  0
 18 19  1  0  0  0
 18 17  1  0  0  0
 17 16  1  0  0  0
 16  1  1  0  0  0
  1  2  1  0  0  0
  1  9  1  0  0  0
  2  3  1  0  0  0
  2  4  1  0  0  0
  4  5  1  0  0  0
  4  6  1  0  0  0
  6  7  1  0  0  0
  6  8  1  0  0  0
  8  9  1  0  0  0
  8 13  1  0  0  0
 13 14  1  0  0  0
 21 23  1  0  0  0
 19 20  1  0  0  0
  3 10  1  0  0  0
  5 11  1  0  0  0
  7 12  1  0  0  0
 14 15  1  0  0  0
M  END
> <minimizedAffinity>
-10.02780

$$$$
