1V2L_BEN_T_1


 12 12  0  0  0  0  0  0  0  0999 V2000
   52.3165   66.3436  -29.4298 C   0  0  0  0  0  0  0  0  0  0  0  0
   53.2709   66.9198  -28.4756 C   0  0  0  0  0  0  0  0  0  0  0  0
   53.8485   68.2334  -28.7118 C   0  0  0  0  0  0  0  0  0  0  0  0
   53.4794   68.9868  -29.9008 C   0  0  0  0  0  0  0  0  0  0  0  0
   52.5407   68.4310  -30.8500 C   0  0  0  0  0  0  0  0  0  0  0  0
   51.9594   67.1147  -30.6186 C   0  0  0  0  0  0  0  0  0  0  0  0
   51.7020   64.9576  -29.1813 C   0  0  0  0  0  0  0  0  0  0  0  0
   50.4773   64.6991  -29.6062 N   0  0  0  0  0  0  0  0  0  0  0  0
   52.3990   64.0442  -28.5370 N   0  0  0  0  0  0  0  0  0  0  0  0
   49.9668   65.3903  -30.0866 H   0  0  0  0  0  0  0  0  0  0  0  0
   53.3103   64.2492  -28.2257 H   0  0  0  0  0  0  0  0  0  0  0  0
   52.0087   63.1566  -28.3667 H   0  0  0  0  0  0  0  0  0  0  0  0
  1  2  2  0  0  0
  1  6  1  0  0  0
  1  7  1  0  0  0
  2  3  1  0  0  0
  3  4  2  0  0  0
  4  5  1  0  0  0
  5  6  2  0  0  0
  7  8  2  0  0  0
  7  9  1  0  0  0
  8 10  1  0  0  0
  9 11  1  0  0  0
  9 12  1  0  0  0
M  END
> <minimizedAffinity>
-5.81141

$$$$
1V2L_BEN_T_1


 12 12  0  0  0  0  0  0  0  0999 V2000
   52.3049   66.3387  -29.4307 C   0  0  0  0  0  0  0  0  0  0  0  0
   51.9423   67.1063  -30.6276 C   0  0  0  0  0  0  0  0  0  0  0  0
   52.5199   68.4196  -30.8650 C   0  0  0  0  0  0  0  0  0  0  0  0
   53.4662   68.9806  -29.9125 C   0  0  0  0  0  0  0  0  0  0  0  0
   53.8321   68.2358  -28.7283 C   0  0  0  0  0  0  0  0  0  0  0  0
   53.2557   66.9194  -28.4850 C   0  0  0  0  0  0  0  0  0  0  0  0
   51.6989   64.9496  -29.1788 C   0  0  0  0  0  0  0  0  0  0  0  0
   50.4704   64.6873  -29.5900 N   0  0  0  0  0  0  0  0  0  0  0  0
   52.4070   64.0373  -28.5449 N   0  0  0  0  0  0  0  0  0  0  0  0
   49.9515   65.3777  -30.0627 H   0  0  0  0  0  0  0  0  0  0  0  0
   53.3209   64.2452  -28.2437 H   0  0  0  0  0  0  0  0  0  0  0  0
   52.0222   63.1477  -28.3725 H   0  0  0  0  0  0  0  0  0  0  0  0
  1  2  2  0  0  0
  1  6  1  0  0  0
  1  7  1  0  0  0
  2  3  1  0  0  0
  3  4  2  0  0  0
  4  5  1  0  0  0
  5  6  2  0  0  0
  7  8  2  0  0  0
  7  9  1  0  0  0
  8 10  1  0  0  0
  9 11  1  0  0  0
  9 12  1  0  0  0
M  END
> <minimizedAffinity>
-5.80744

$$$$
1V2L_BEN_T_1


 12 12  0  0  0  0  0  0  0  0999 V2000
   53.2175   67.3536  -28.9958 C   0  0  0  0  0  0  0  0  0  0  0  0
   53.8177   68.6905  -28.9198 C   0  0  0  0  0  0  0  0  0  0  0  0
   53.5521   69.6785  -29.9533 C   0  0  0  0  0  0  0  0  0  0  0  0
   52.6841   69.3443  -31.0725 C   0  0  0  0  0  0  0  0  0  0  0  0
   52.0865   68.0306  -31.1608 C   0  0  0  0  0  0  0  0  0  0  0  0
   52.3499   67.0364  -30.1281 C   0  0  0  0  0  0  0  0  0  0  0  0
   53.4936   66.3089  -27.9037 C   0  0  0  0  0  0  0  0  0  0  0  0
   54.1845   66.6514  -26.8301 N   0  0  0  0  0  0  0  0  0  0  0  0
   53.0477   65.0785  -28.0543 N   0  0  0  0  0  0  0  0  0  0  0  0
   54.5122   67.5743  -26.7294 H   0  0  0  0  0  0  0  0  0  0  0  0
   52.5342   64.8360  -28.8586 H   0  0  0  0  0  0  0  0  0  0  0  0
   53.2279   64.4015  -27.3627 H   0  0  0  0  0  0  0  0  0  0  0  0
  1  2  2  0  0  0
  1  6  1  0  0  0
  1  7  1  0  0  0
  2  3  1  0  0  0
  3  4  2  0  0  0
  4  5  1  0  0  0
  5  6  2  0  0  0
  7  8  2  0  0  0
  7  9  1  0  0  0
  8 10  1  0  0  0
  9 11  1  0  0  0
  9 12  1  0  0  0
M  END
> <minimizedAffinity>
-5.70009

$$$$
1V2L_BEN_T_1


 12 12  0  0  0  0  0  0  0  0999 V2000
   53.2302   67.3650  -28.9822 C   0  0  0  0  0  0  0  0  0  0  0  0
   52.3609   67.0396  -30.1187 C   0  0  0  0  0  0  0  0  0  0  0  0
   52.0964   68.0280  -31.1522 C   0  0  0  0  0  0  0  0  0  0  0  0
   52.6972   69.3504  -31.0641 C   0  0  0  0  0  0  0  0  0  0  0  0
   53.5553   69.6852  -29.9495 C   0  0  0  0  0  0  0  0  0  0  0  0
   53.8231   68.6988  -28.9106 C   0  0  0  0  0  0  0  0  0  0  0  0
   53.5142   66.3219  -27.8906 C   0  0  0  0  0  0  0  0  0  0  0  0
   54.2255   66.6621  -26.8296 N   0  0  0  0  0  0  0  0  0  0  0  0
   53.0545   65.0952  -28.0291 N   0  0  0  0  0  0  0  0  0  0  0  0
   54.5633   67.5823  -26.7379 H   0  0  0  0  0  0  0  0  0  0  0  0
   52.5259   64.8545  -28.8240 H   0  0  0  0  0  0  0  0  0  0  0  0
   53.2396   64.4192  -27.3378 H   0  0  0  0  0  0  0  0  0  0  0  0
  1  2  2  0  0  0
  1  6  1  0  0  0
  1  7  1  0  0  0
  2  3  1  0  0  0
  3  4  2  0  0  0
  4  5  1  0  0  0
  5  6  2  0  0  0
  7  8  2  0  0  0
  7  9  1  0  0  0
  8 10  1  0  0  0
  9 11  1  0  0  0
  9 12  1  0  0  0
M  END
> <minimizedAffinity>
-5.69820

$$$$
1V2L_BEN_T_1


 12 12  0  0  0  0  0  0  0  0999 V2000
   52.6835   67.8151  -29.7587 C   0  0  0  0  0  0  0  0  0  0  0  0
   52.0382   66.5584  -30.1557 C   0  0  0  0  0  0  0  0  0  0  0  0
   52.1489   65.3751  -29.3175 C   0  0  0  0  0  0  0  0  0  0  0  0
   52.9027   65.4330  -28.0741 C   0  0  0  0  0  0  0  0  0  0  0  0
   53.5445   66.6644  -27.6708 C   0  0  0  0  0  0  0  0  0  0  0  0
   53.4374   67.8530  -28.5074 C   0  0  0  0  0  0  0  0  0  0  0  0
   52.5656   69.0677  -30.6405 C   0  0  0  0  0  0  0  0  0  0  0  0
   53.5712   69.9236  -30.6991 N   0  0  0  0  0  0  0  0  0  0  0  0
   51.4579   69.2811  -31.3207 N   0  0  0  0  0  0  0  0  0  0  0  0
   54.3937   69.7526  -30.1858 H   0  0  0  0  0  0  0  0  0  0  0  0
   50.7162   68.6359  -31.2686 H   0  0  0  0  0  0  0  0  0  0  0  0
   51.3719   70.0859  -31.8813 H   0  0  0  0  0  0  0  0  0  0  0  0
  1  2  2  0  0  0
  1  6  1  0  0  0
  1  7  1  0  0  0
  2  3  1  0  0  0
  3  4  2  0  0  0
  4  5  1  0  0  0
  5  6  2  0  0  0
  7  8  2  0  0  0
  7  9  1  0  0  0
  8 10  1  0  0  0
  9 11  1  0  0  0
  9 12  1  0  0  0
M  END
> <minimizedAffinity>
-5.33958

$$$$
1V2L_BEN_T_1


 12 12  0  0  0  0  0  0  0  0999 V2000
   52.6642   67.9073  -29.8173 C   0  0  0  0  0  0  0  0  0  0  0  0
   53.4192   67.9757  -28.5608 C   0  0  0  0  0  0  0  0  0  0  0  0
   53.5549   66.7994  -27.7165 C   0  0  0  0  0  0  0  0  0  0  0  0
   52.9408   65.5423  -28.1170 C   0  0  0  0  0  0  0  0  0  0  0  0
   52.1934   65.4606  -29.3521 C   0  0  0  0  0  0  0  0  0  0  0  0
   52.0535   66.6366  -30.2016 C   0  0  0  0  0  0  0  0  0  0  0  0
   52.5218   69.1474  -30.7129 C   0  0  0  0  0  0  0  0  0  0  0  0
   53.5446   69.9725  -30.8555 N   0  0  0  0  0  0  0  0  0  0  0  0
   51.3769   69.3814  -31.3210 N   0  0  0  0  0  0  0  0  0  0  0  0
   54.3950   69.7864  -30.3957 H   0  0  0  0  0  0  0  0  0  0  0  0
   50.6226   68.7591  -31.2066 H   0  0  0  0  0  0  0  0  0  0  0  0
   51.2755   70.1785  -31.8897 H   0  0  0  0  0  0  0  0  0  0  0  0
  1  2  2  0  0  0
  1  6  1  0  0  0
  1  7  1  0  0  0
  2  3  1  0  0  0
  3  4  2  0  0  0
  4  5  1  0  0  0
  5  6  2  0  0  0
  7  8  2  0  0  0
  7  9  1  0  0  0
  8 10  1  0  0  0
  9 11  1  0  0  0
  9 12  1  0  0  0
M  END
> <minimizedAffinity>
-5.33489

$$$$
1V2L_BEN_T_1


 12 12  0  0  0  0  0  0  0  0999 V2000
   52.5736   67.2324  -29.9121 C   0  0  0  0  0  0  0  0  0  0  0  0
   52.0754   65.8592  -29.7724 C   0  0  0  0  0  0  0  0  0  0  0  0
   52.3465   65.0951  -28.5651 C   0  0  0  0  0  0  0  0  0  0  0  0
   53.1157   65.6927  -27.4839 C   0  0  0  0  0  0  0  0  0  0  0  0
   53.6135   67.0446  -27.6082 C   0  0  0  0  0  0  0  0  0  0  0  0
   53.3453   67.8146  -28.8162 C   0  0  0  0  0  0  0  0  0  0  0  0
   52.2860   68.0433  -31.1849 C   0  0  0  0  0  0  0  0  0  0  0  0
   51.4839   69.0922  -31.1252 N   0  0  0  0  0  0  0  0  0  0  0  0
   52.8338   67.6774  -32.3257 N   0  0  0  0  0  0  0  0  0  0  0  0
   51.0807   69.3554  -30.2665 H   0  0  0  0  0  0  0  0  0  0  0  0
   53.4295   66.8942  -32.3569 H   0  0  0  0  0  0  0  0  0  0  0  0
   52.6474   68.1872  -33.1471 H   0  0  0  0  0  0  0  0  0  0  0  0
  1  2  2  0  0  0
  1  6  1  0  0  0
  1  7  1  0  0  0
  2  3  1  0  0  0
  3  4  2  0  0  0
  4  5  1  0  0  0
  5  6  2  0  0  0
  7  8  2  0  0  0
  7  9  1  0  0  0
  8 10  1  0  0  0
  9 11  1  0  0  0
  9 12  1  0  0  0
M  END
> <minimizedAffinity>
-5.26516

$$$$
1V2L_BEN_T_1


 12 12  0  0  0  0  0  0  0  0999 V2000
   53.1924   67.8604  -28.9252 C   0  0  0  0  0  0  0  0  0  0  0  0
   52.4224   67.2745  -30.0284 C   0  0  0  0  0  0  0  0  0  0  0  0
   51.9819   65.8899  -29.9670 C   0  0  0  0  0  0  0  0  0  0  0  0
   52.3032   65.0756  -28.8045 C   0  0  0  0  0  0  0  0  0  0  0  0
   53.0619   65.6397  -27.7104 C   0  0  0  0  0  0  0  0  0  0  0  0
   53.5065   67.0265  -27.7670 C   0  0  0  0  0  0  0  0  0  0  0  0
   53.6563   69.3238  -28.9856 C   0  0  0  0  0  0  0  0  0  0  0  0
   53.9353   69.8740  -30.1547 N   0  0  0  0  0  0  0  0  0  0  0  0
   53.7819   70.0120  -27.8694 N   0  0  0  0  0  0  0  0  0  0  0  0
   53.8373   69.3491  -30.9817 H   0  0  0  0  0  0  0  0  0  0  0  0
   53.5709   69.5906  -27.0050 H   0  0  0  0  0  0  0  0  0  0  0  0
   54.0867   70.9476  -27.8996 H   0  0  0  0  0  0  0  0  0  0  0  0
  1  2  2  0  0  0
  1  6  1  0  0  0
  1  7  1  0  0  0
  2  3  1  0  0  0
  3  4  2  0  0  0
  4  5  1  0  0  0
  5  6  2  0  0  0
  7  8  2  0  0  0
  7  9  1  0  0  0
  8 10  1  0  0  0
  9 11  1  0  0  0
  9 12  1  0  0  0
M  END
> <minimizedAffinity>
-5.11774

$$$$
1V2L_BEN_T_1


 12 12  0  0  0  0  0  0  0  0999 V2000
   52.4636   68.6426  -30.1966 C   0  0  0  0  0  0  0  0  0  0  0  0
   53.2671   68.7250  -28.9715 C   0  0  0  0  0  0  0  0  0  0  0  0
   53.5580   67.5285  -28.1979 C   0  0  0  0  0  0  0  0  0  0  0  0
   53.0523   66.2371  -28.6386 C   0  0  0  0  0  0  0  0  0  0  0  0
   52.2586   66.1410  -29.8434 C   0  0  0  0  0  0  0  0  0  0  0  0
   51.9634   67.3371  -30.6221 C   0  0  0  0  0  0  0  0  0  0  0  0
   52.1574   69.9044  -31.0178 C   0  0  0  0  0  0  0  0  0  0  0  0
   50.9506   70.0753  -31.5293 N   0  0  0  0  0  0  0  0  0  0  0  0
   53.1052   70.7982  -31.2129 N   0  0  0  0  0  0  0  0  0  0  0  0
   50.2509   69.3999  -31.3763 H   0  0  0  0  0  0  0  0  0  0  0  0
   54.0000   70.6592  -30.8265 H   0  0  0  0  0  0  0  0  0  0  0  0
   52.9188   71.6052  -31.7452 H   0  0  0  0  0  0  0  0  0  0  0  0
  1  2  2  0  0  0
  1  6  1  0  0  0
  1  7  1  0  0  0
  2  3  1  0  0  0
  3  4  2  0  0  0
  4  5  1  0  0  0
  5  6  2  0  0  0
  7  8  2  0  0  0
  7  9  1  0  0  0
  8 10  1  0  0  0
  9 11  1  0  0  0
  9 12  1  0  0  0
M  END
> <minimizedAffinity>
-5.01285

$$$$
1V2L_BEN_T_1


 12 12  0  0  0  0  0  0  0  0999 V2000
   52.2856   69.1093  -30.4015 C   0  0  0  0  0  0  0  0  0  0  0  0
   51.9957   67.7630  -30.9082 C   0  0  0  0  0  0  0  0  0  0  0  0
   52.4444   66.5875  -30.1787 C   0  0  0  0  0  0  0  0  0  0  0  0
   53.1852   66.7422  -28.9358 C   0  0  0  0  0  0  0  0  0  0  0  0
   53.4787   68.0628  -28.4251 C   0  0  0  0  0  0  0  0  0  0  0  0
   53.0321   69.2442  -29.1525 C   0  0  0  0  0  0  0  0  0  0  0  0
   51.8101   70.3528  -31.1681 C   0  0  0  0  0  0  0  0  0  0  0  0
   50.6356   70.3384  -31.7743 N   0  0  0  0  0  0  0  0  0  0  0  0
   52.5839   71.4175  -31.2225 N   0  0  0  0  0  0  0  0  0  0  0  0
   50.0666   69.5365  -31.7262 H   0  0  0  0  0  0  0  0  0  0  0  0
   53.4566   71.4156  -30.7667 H   0  0  0  0  0  0  0  0  0  0  0  0
   52.2896   72.2151  -31.7189 H   0  0  0  0  0  0  0  0  0  0  0  0
  1  2  2  0  0  0
  1  6  1  0  0  0
  1  7  1  0  0  0
  2  3  1  0  0  0
  3  4  2  0  0  0
  4  5  1  0  0  0
  5  6  2  0  0  0
  7  8  2  0  0  0
  7  9  1  0  0  0
  8 10  1  0  0  0
  9 11  1  0  0  0
  9 12  1  0  0  0
M  END
> <minimizedAffinity>
-4.93484

$$$$
