1HPS_RUN_B_400
  RCSB PDB12061702453D
Coordinates from PDB:1HPS:B:400 Model:1 without hydrogens
 47 50  0  0  0  0            999 V2000
   -7.7930   17.1890   22.4770   C 0  0  0  0  0  0  0  0  0  0  0  0
   -7.8030   18.3960   22.1770   O 0  0  0  0  0  0  0  0  0  0  0  0
   -7.6940   16.1280   21.3860   C 0  0  0  0  0  0  0  0  0  0  0  0
   -6.5780   16.4880   20.4110   C 0  0  0  0  0  0  0  0  0  0  0  0
   -9.0400   16.1410   20.6690   C 0  0  0  0  0  0  0  0  0  0  0  0
   -7.9670   17.8950   24.6830   N 0  0  0  0  0  0  0  0  0  0  0  0
   -8.0280   17.2320   25.8340   C 0  0  0  0  0  0  0  0  0  0  0  0
   -7.9880   15.9030   25.7660   N 0  0  0  0  0  0  0  0  0  0  0  0
   -7.8960   15.6560   24.4730   C 0  0  0  0  0  0  0  0  0  0  0  0
   -7.8820   16.8800   23.8270   C 0  0  0  0  0  0  0  0  0  0  0  0
   -8.1210   18.0950   27.1080   C 0  0  0  0  0  0  0  0  0  0  0  0
   -8.9090   17.4250   28.1990   C 0  0  0  0  0  0  0  0  0  0  0  0
  -10.4200   17.3680   28.0950   C 0  0  0  0  0  0  0  0  0  0  0  0
  -10.9520   18.3750   28.9430   O 0  0  0  0  0  0  0  0  0  0  0  0
  -10.9490   15.9810   28.5710   C 0  0  0  0  0  0  0  0  0  0  0  0
  -11.0340   16.0070   30.0190   N 0  0  0  0  0  0  0  0  0  0  0  0
  -10.2110   15.2730   30.7500   C 0  0  0  0  0  0  0  0  0  0  0  0
   -9.3790   14.5270   30.2240   O 0  0  0  0  0  0  0  0  0  0  0  0
  -10.4230   15.4430   32.2530   C 0  0  0  0  0  0  0  0  0  0  0  0
  -11.3190   14.3780   32.6270   N 0  0  0  0  0  0  0  0  0  0  0  0
  -12.4970   14.6570   33.1870   C 0  0  0  0  0  0  0  0  0  0  0  0
  -12.7940   15.8340   33.3850   O 0  0  0  0  0  0  0  0  0  0  0  0
   -9.0690   15.3820   33.0050   C 0  0  0  0  0  0  0  0  0  0  0  0
   -9.2320   15.4490   34.5170   C 0  0  0  0  0  0  0  0  0  0  0  0
   -8.2850   16.6300   32.6380   C 0  0  0  0  0  0  0  0  0  0  0  0
   -6.7480   18.4180   27.7230   C 0  0  0  0  0  0  0  0  0  0  0  0
   -5.6400   18.6420   26.7080   C 0  0  0  0  0  0  0  0  0  0  0  0
   -4.6230   17.6810   26.5980   C 0  0  0  0  0  0  0  0  0  0  0  0
   -3.6490   17.8310   25.6130   C 0  0  0  0  0  0  0  0  0  0  0  0
   -3.6930   18.9330   24.7510   C 0  0  0  0  0  0  0  0  0  0  0  0
   -4.7040   19.8920   24.8720   C 0  0  0  0  0  0  0  0  0  0  0  0
   -5.6780   19.7480   25.8530   C 0  0  0  0  0  0  0  0  0  0  0  0
  -12.3350   15.6500   28.0040   C 0  0  0  0  0  0  0  0  0  0  0  0
  -12.8270   14.2790   28.4010   C 0  0  0  0  0  0  0  0  0  0  0  0
  -12.2480   13.1460   27.8290   C 0  0  0  0  0  0  0  0  0  0  0  0
  -12.6870   11.8780   28.2140   C 0  0  0  0  0  0  0  0  0  0  0  0
  -13.6990   11.7460   29.1660   C 0  0  0  0  0  0  0  0  0  0  0  0
  -14.2750   12.8770   29.7340   C 0  0  0  0  0  0  0  0  0  0  0  0
  -13.8460   14.1510   29.3580   C 0  0  0  0  0  0  0  0  0  0  0  0
  -13.4230   13.6870   33.5640   O 0  0  0  0  0  0  0  0  0  0  0  0
  -12.8350   12.4060   33.8000   C 0  0  0  0  0  0  0  0  0  0  0  0
  -13.7670   11.2300   33.8450   C 0  0  0  0  0  0  0  0  0  0  0  0
  -14.7550   11.1890   34.8220   C 0  0  0  0  0  0  0  0  0  0  0  0
  -15.5890   10.0820   34.8940   C 0  0  0  0  0  0  0  0  0  0  0  0
  -15.4310    9.0330   33.9910   C 0  0  0  0  0  0  0  0  0  0  0  0
  -14.4460    9.0860   33.0160   C 0  0  0  0  0  0  0  0  0  0  0  0
  -13.6060   10.1860   32.9380   C 0  0  0  0  0  0  0  0  0  0  0  0
  1  2  2  0  0  0  0
  1  3  1  0  0  0  0
  1 10  1  0  0  0  0
  3  4  1  0  0  0  0
  3  5  1  0  0  0  0
  6  7  1  0  0  0  0
  6 10  1  0  0  0  0
  7  8  2  0  0  0  0
  7 11  1  0  0  0  0
  8  9  1  0  0  0  0
  9 10  2  0  0  0  0
 11 12  1  0  0  0  0
 11 26  1  0  0  0  0
 12 13  1  0  0  0  0
 13 14  1  0  0  0  0
 13 15  1  0  0  0  0
 15 16  1  0  0  0  0
 15 33  1  0  0  0  0
 16 17  1  0  0  0  0
 17 18  2  0  0  0  0
 17 19  1  0  0  0  0
 19 20  1  0  0  0  0
 19 23  1  0  0  0  0
 20 21  1  0  0  0  0
 21 22  2  0  0  0  0
 21 40  1  0  0  0  0
 23 24  1  0  0  0  0
 23 25  1  0  0  0  0
 26 27  1  0  0  0  0
 27 28  2  0  0  0  0
 27 32  1  0  0  0  0
 28 29  1  0  0  0  0
 29 30  2  0  0  0  0
 30 31  1  0  0  0  0
 31 32  2  0  0  0  0
 33 34  1  0  0  0  0
 34 35  2  0  0  0  0
 34 39  1  0  0  0  0
 35 36  1  0  0  0  0
 36 37  2  0  0  0  0
 37 38  1  0  0  0  0
 38 39  2  0  0  0  0
 40 41  1  0  0  0  0
 41 42  1  0  0  0  0
 42 43  2  0  0  0  0
 42 47  1  0  0  0  0
 43 44  1  0  0  0  0
 44 45  2  0  0  0  0
 45 46  1  0  0  0  0
 46 47  2  0  0  0  0
A    1
C1'
A    2
O1'
A    3
C2D
A    4
C3'
A    5
C4D
A    6
N1'
A    7
C2'
A    8
N3'
A    9
C4'
A   10
C5'
A   11
C1
A   12
C2
A   13
C3
A   14
O3
A   15
C4
A   16
N5
A   17
C6
A   18
O6
A   19
C7
A   20
N8
A   21
C9
A   22
O9
A   23
C10
A   24
C11
A   25
C12
A   26
CA
A   27
C1A
A   28
C2A
A   29
C3A
A   30
C4A
A   31
C5A
A   32
C6A
A   33
CB
A   34
C1B
A   35
C2B
A   36
C3B
A   37
C4B
A   38
C5B
A   39
C6B
A   40
OC
A   41
CC
A   42
C1C
A   43
C2C
A   44
C3C
A   45
C4C
A   46
C5C
A   47
C6C
M  END
>  <InstanceId>
1HPS_RUN_B_400

>  <ChemCompId>
RUN

>  <PdbId>
1HPS

>  <ChainId>
B

>  <ResidueNumber>
400

>  <InsertionCode>


>  <Model>
1

>  <AltIds>


>  <MissingHeavyAtoms>
0

>  <ObservedFormula>
C38 N4 O5

>  <Name>
2-[(1R,3S,4S)-1-BENZYL-4-[N-(BENZYLOXYCARBONYL)-L-VALYL]AMINO-3-PHENYLPENTYL]-4(5)-(2-METHYLPROPIONYL)IMIDAZOLE

>  <SystematicName>
phenylmethyl N-[(2S)-1-[[(2S,3S,5R)-3-hydroxy-5-[4-(2-methylpropanoyl)-3H-imidazol-2-yl]-1,6-diphenyl-hexan-2-yl]amino]-3-methyl-1-oxo-butan-2-yl]carbamate

>  <Synonyms>
SB206343

>  <Type>
NON-POLYMER

>  <Formula>
C38 H46 N4 O5

>  <MolecularWeight>
638.796

>  <ModifiedDate>
2011-06-04

>  <Parent>


>  <OneLetterCode>


>  <SubcomponentList>


>  <AmbiguousFlag>
N

>  <InChI>
InChI=1S/C38H46N4O5/c1-25(2)34(42-38(46)47-24-29-18-12-7-13-19-29)37(45)41-31(21-28-16-10-6-11-17-28)33(43)22-30(20-27-14-8-5-9-15-27)36-39-23-32(40-36)35(44)26(3)4/h5-19,23,25-26,30-31,33-34,43H,20-22,24H2,1-4H3,(H,39,40)(H,41,45)(H,42,46)/t30-,31+,33+,34+/m1/s1

>  <InChIKey>
RQAVEWKEUKIFLD-LVPKLHHISA-N

>  <SMILES>
CC(C)[C@@H](C(=O)N[C@@H](Cc1ccccc1)[C@H](C[C@@H](Cc2ccccc2)c3[nH]c(cn3)C(=O)C(C)C)O)NC(=O)OCc4ccccc4

$$$$
