1HPS_RUN_B_400


 51 54  0  0  0  0  0  0  0  0999 V2000
   -8.4635   17.2371   26.6391 C   0  0  0  0  0  0  0  0  0  0  0  0
   -8.3626   17.4738   25.2114 N   0  0  0  0  0  0  0  0  0  0  0  0
   -8.0039   16.4960   24.3956 C   0  0  0  0  0  0  0  0  0  0  0  0
   -7.7148   15.3753   24.8267 O   0  0  0  0  0  0  0  0  0  0  0  0
   -8.5622   18.3667   24.8478 H   0  0  0  0  0  0  0  0  0  0  0  0
   -7.9760   16.9141   22.9268 C   0  0  0  0  0  0  0  0  0  0  0  0
   -6.5796   17.0806   22.6120 N   0  0  0  0  0  0  0  0  0  0  0  0
   -6.0928   18.2917   22.3373 C   0  0  0  0  0  0  0  0  0  0  0  0
   -6.8591   19.2537   22.3483 O   0  0  0  0  0  0  0  0  0  0  0  0
   -5.9828   16.2977   22.5996 H   0  0  0  0  0  0  0  0  0  0  0  0
   -4.7549   18.5375   22.0371 O   0  0  0  0  0  0  0  0  0  0  0  0
   -3.8909   18.4193   23.1694 C   0  0  0  0  0  0  0  0  0  0  0  0
   -2.8694   17.3200   23.1310 C   0  0  0  0  0  0  0  0  0  0  0  0
   -2.3256   16.9465   21.9074 C   0  0  0  0  0  0  0  0  0  0  0  0
   -1.4147   15.9003   21.8635 C   0  0  0  0  0  0  0  0  0  0  0  0
   -1.0545   15.2428   23.0377 C   0  0  0  0  0  0  0  0  0  0  0  0
   -1.5982   15.6268   24.2545 C   0  0  0  0  0  0  0  0  0  0  0  0
   -2.5113   16.6685   24.3082 C   0  0  0  0  0  0  0  0  0  0  0  0
   -8.6689   15.8462   22.0426 C   0  0  0  0  0  0  0  0  0  0  0  0
   -8.8078   16.2838   20.5912 C   0  0  0  0  0  0  0  0  0  0  0  0
  -10.0938   15.6906   22.5448 C   0  0  0  0  0  0  0  0  0  0  0  0
   -9.9696   17.0388   26.9889 C   0  0  0  0  0  0  0  0  0  0  0  0
  -10.7573   17.6571   25.9821 O   0  0  0  0  0  0  0  0  0  0  0  0
  -10.5649   17.2476   25.1241 H   0  0  0  0  0  0  0  0  0  0  0  0
  -10.3206   15.5645   27.0119 C   0  0  0  0  0  0  0  0  0  0  0  0
  -10.4644   14.8628   28.3336 C   0  0  0  0  0  0  0  0  0  0  0  0
  -12.3312   13.7041   29.3904 N   0  0  0  0  0  0  0  0  0  0  0  0
  -11.5614   13.7800   28.3089 C   0  0  0  0  0  0  0  0  0  0  0  0
  -11.8266   12.9286   27.3203 N   0  0  0  0  0  0  0  0  0  0  0  0
  -12.8488   12.2277   27.7734 C   0  0  0  0  0  0  0  0  0  0  0  0
  -13.1457   12.7139   29.0348 C   0  0  0  0  0  0  0  0  0  0  0  0
  -12.3058   14.2322   30.2209 H   0  0  0  0  0  0  0  0  0  0  0  0
  -14.1273   12.3380   29.9409 C   0  0  0  0  0  0  0  0  0  0  0  0
  -14.8107   13.2511   30.4371 O   0  0  0  0  0  0  0  0  0  0  0  0
  -14.3800   10.8876   30.3388 C   0  0  0  0  0  0  0  0  0  0  0  0
  -15.4815   10.8220   31.3914 C   0  0  0  0  0  0  0  0  0  0  0  0
  -13.0658   10.3812   30.9239 C   0  0  0  0  0  0  0  0  0  0  0  0
  -10.7297   15.9710   29.3677 C   0  0  0  0  0  0  0  0  0  0  0  0
   -9.7356   16.0123   30.5158 C   0  0  0  0  0  0  0  0  0  0  0  0
   -8.9232   17.1474   30.6628 C   0  0  0  0  0  0  0  0  0  0  0  0
   -8.0692   17.2352   31.7601 C   0  0  0  0  0  0  0  0  0  0  0  0
   -8.0284   16.1959   32.6969 C   0  0  0  0  0  0  0  0  0  0  0  0
   -8.8339   15.0632   32.5396 C   0  0  0  0  0  0  0  0  0  0  0  0
   -9.6874   14.9697   31.4466 C   0  0  0  0  0  0  0  0  0  0  0  0
   -7.8356   18.4247   27.3790 C   0  0  0  0  0  0  0  0  0  0  0  0
   -6.3439   18.2862   27.5661 C   0  0  0  0  0  0  0  0  0  0  0  0
   -5.8491   17.4603   28.5756 C   0  0  0  0  0  0  0  0  0  0  0  0
   -4.4697   17.3140   28.7331 C   0  0  0  0  0  0  0  0  0  0  0  0
   -3.5920   17.9904   27.8845 C   0  0  0  0  0  0  0  0  0  0  0  0
   -4.0879   18.8137   26.8796 C   0  0  0  0  0  0  0  0  0  0  0  0
   -5.4648   18.9694   26.7111 C   0  0  0  0  0  0  0  0  0  0  0  0
 33 34  2  0  0  0
 33 35  1  0  0  0
 33 31  1  0  0  0
 35 36  1  0  0  0
 35 37  1  0  0  0
 27 28  1  0  0  0
 27 31  1  0  0  0
 28 29  2  0  0  0
 28 26  1  0  0  0
 29 30  1  0  0  0
 30 31  2  0  0  0
 26 25  1  0  0  0
 26 38  1  0  0  0
 25 22  1  0  0  0
 22 23  1  0  0  0
 22  1  1  0  0  0
  1  2  1  0  0  0
  1 45  1  0  0  0
  2  3  1  0  0  0
  3  4  2  0  0  0
  3  6  1  0  0  0
  6  7  1  0  0  0
  6 19  1  0  0  0
  7  8  1  0  0  0
  8  9  2  0  0  0
  8 11  1  0  0  0
 19 20  1  0  0  0
 19 21  1  0  0  0
 38 39  1  0  0  0
 39 40  2  0  0  0
 39 44  1  0  0  0
 40 41  1  0  0  0
 41 42  2  0  0  0
 42 43  1  0  0  0
 43 44  2  0  0  0
 45 46  1  0  0  0
 46 47  2  0  0  0
 46 51  1  0  0  0
 47 48  1  0  0  0
 48 49  2  0  0  0
 49 50  1  0  0  0
 50 51  2  0  0  0
 11 12  1  0  0  0
 12 13  1  0  0  0
 13 14  2  0  0  0
 13 18  1  0  0  0
 14 15  1  0  0  0
 15 16  2  0  0  0
 16 17  1  0  0  0
 17 18  2  0  0  0
 27 32  1  0  0  0
 23 24  1  0  0  0
  2  5  1  0  0  0
  7 10  1  0  0  0
M  END
> <minimizedAffinity>
-10.49800

$$$$
1HPS_RUN_B_400


 51 54  0  0  0  0  0  0  0  0999 V2000
  -10.0757   16.6685   26.9040 C   0  0  0  0  0  0  0  0  0  0  0  0
  -11.0963   15.8449   27.5242 N   0  0  0  0  0  0  0  0  0  0  0  0
  -10.9128   14.5415   27.6584 C   0  0  0  0  0  0  0  0  0  0  0  0
   -9.8925   13.9909   27.2326 O   0  0  0  0  0  0  0  0  0  0  0  0
  -11.9297   16.2579   27.8468 H   0  0  0  0  0  0  0  0  0  0  0  0
  -12.0745   13.8364   28.3556 C   0  0  0  0  0  0  0  0  0  0  0  0
  -12.3322   14.6197   29.5375 N   0  0  0  0  0  0  0  0  0  0  0  0
  -12.5320   14.0185   30.7112 C   0  0  0  0  0  0  0  0  0  0  0  0
  -12.5021   12.7899   30.7593 O   0  0  0  0  0  0  0  0  0  0  0  0
  -12.3608   15.6020   29.4783 H   0  0  0  0  0  0  0  0  0  0  0  0
  -12.7733   14.7037   31.8998 O   0  0  0  0  0  0  0  0  0  0  0  0
  -13.6519   14.0066   32.7856 C   0  0  0  0  0  0  0  0  0  0  0  0
  -13.0146   13.2357   33.9050 C   0  0  0  0  0  0  0  0  0  0  0  0
  -13.2559   11.8705   34.0071 C   0  0  0  0  0  0  0  0  0  0  0  0
  -12.7045   11.1639   35.0667 C   0  0  0  0  0  0  0  0  0  0  0  0
  -11.9178   11.8243   36.0079 C   0  0  0  0  0  0  0  0  0  0  0  0
  -11.6780   13.1856   35.8940 C   0  0  0  0  0  0  0  0  0  0  0  0
  -12.2269   13.9007   34.8409 C   0  0  0  0  0  0  0  0  0  0  0  0
  -13.3022   13.7467   27.4137 C   0  0  0  0  0  0  0  0  0  0  0  0
  -14.4683   14.6050   27.8836 C   0  0  0  0  0  0  0  0  0  0  0  0
  -13.8175   12.3190   27.4680 C   0  0  0  0  0  0  0  0  0  0  0  0
   -9.8268   17.9013   27.8252 C   0  0  0  0  0  0  0  0  0  0  0  0
  -11.0698   18.3273   28.3635 O   0  0  0  0  0  0  0  0  0  0  0  0
  -11.4618   17.6068   28.8814 H   0  0  0  0  0  0  0  0  0  0  0  0
   -8.9242   17.5260   28.9835 C   0  0  0  0  0  0  0  0  0  0  0  0
   -7.5516   18.1325   29.0733 C   0  0  0  0  0  0  0  0  0  0  0  0
   -6.5291   18.9599   27.0204 N   0  0  0  0  0  0  0  0  0  0  0  0
   -6.7195   17.8975   27.7970 C   0  0  0  0  0  0  0  0  0  0  0  0
   -6.1632   16.7547   27.4006 N   0  0  0  0  0  0  0  0  0  0  0  0
   -5.5568   17.0736   26.2729 C   0  0  0  0  0  0  0  0  0  0  0  0
   -5.7872   18.4211   26.0563 C   0  0  0  0  0  0  0  0  0  0  0  0
   -6.8476   19.8852   27.1284 H   0  0  0  0  0  0  0  0  0  0  0  0
   -5.3730   19.2554   25.0276 C   0  0  0  0  0  0  0  0  0  0  0  0
   -5.2962   20.4693   25.2876 O   0  0  0  0  0  0  0  0  0  0  0  0
   -5.0275   18.7463   23.6322 C   0  0  0  0  0  0  0  0  0  0  0  0
   -3.8334   19.5168   23.0789 C   0  0  0  0  0  0  0  0  0  0  0  0
   -6.2620   19.0084   22.7758 C   0  0  0  0  0  0  0  0  0  0  0  0
   -6.9102   17.5285   30.3349 C   0  0  0  0  0  0  0  0  0  0  0  0
   -7.8675   16.7403   31.2126 C   0  0  0  0  0  0  0  0  0  0  0  0
   -8.3651   15.5171   30.7371 C   0  0  0  0  0  0  0  0  0  0  0  0
   -9.1749   14.7437   31.5663 C   0  0  0  0  0  0  0  0  0  0  0  0
   -9.4841   15.1933   32.8553 C   0  0  0  0  0  0  0  0  0  0  0  0
   -8.9925   16.4177   33.3197 C   0  0  0  0  0  0  0  0  0  0  0  0
   -8.1847   17.1938   32.4969 C   0  0  0  0  0  0  0  0  0  0  0  0
  -10.5507   17.0648   25.5007 C   0  0  0  0  0  0  0  0  0  0  0  0
   -9.8578   16.2974   24.4006 C   0  0  0  0  0  0  0  0  0  0  0  0
   -8.4920   16.4824   24.1852 C   0  0  0  0  0  0  0  0  0  0  0  0
   -7.8469   15.7551   23.1834 C   0  0  0  0  0  0  0  0  0  0  0  0
   -8.5653   14.8481   22.4029 C   0  0  0  0  0  0  0  0  0  0  0  0
   -9.9268   14.6661   22.6192 C   0  0  0  0  0  0  0  0  0  0  0  0
  -10.5846   15.3871   23.6172 C   0  0  0  0  0  0  0  0  0  0  0  0
 33 34  2  0  0  0
 33 35  1  0  0  0
 33 31  1  0  0  0
 35 36  1  0  0  0
 35 37  1  0  0  0
 27 28  1  0  0  0
 27 31  1  0  0  0
 28 29  2  0  0  0
 28 26  1  0  0  0
 29 30  1  0  0  0
 30 31  2  0  0  0
 26 25  1  0  0  0
 26 38  1  0  0  0
 25 22  1  0  0  0
 22 23  1  0  0  0
 22  1  1  0  0  0
  1  2  1  0  0  0
  1 45  1  0  0  0
  2  3  1  0  0  0
  3  4  2  0  0  0
  3  6  1  0  0  0
  6  7  1  0  0  0
  6 19  1  0  0  0
  7  8  1  0  0  0
  8  9  2  0  0  0
  8 11  1  0  0  0
 19 20  1  0  0  0
 19 21  1  0  0  0
 38 39  1  0  0  0
 39 40  2  0  0  0
 39 44  1  0  0  0
 40 41  1  0  0  0
 41 42  2  0  0  0
 42 43  1  0  0  0
 43 44  2  0  0  0
 45 46  1  0  0  0
 46 47  2  0  0  0
 46 51  1  0  0  0
 47 48  1  0  0  0
 48 49  2  0  0  0
 49 50  1  0  0  0
 50 51  2  0  0  0
 11 12  1  0  0  0
 12 13  1  0  0  0
 13 14  2  0  0  0
 13 18  1  0  0  0
 14 15  1  0  0  0
 15 16  2  0  0  0
 16 17  1  0  0  0
 17 18  2  0  0  0
 27 32  1  0  0  0
 23 24  1  0  0  0
  2  5  1  0  0  0
  7 10  1  0  0  0
M  END
> <minimizedAffinity>
-10.20539

$$$$
1HPS_RUN_B_400


 51 54  0  0  0  0  0  0  0  0999 V2000
   -8.3155   17.6937   27.1863 C   0  0  0  0  0  0  0  0  0  0  0  0
   -8.3654   17.7070   25.7365 N   0  0  0  0  0  0  0  0  0  0  0  0
   -7.8791   16.6915   25.0418 C   0  0  0  0  0  0  0  0  0  0  0  0
   -7.3437   15.7298   25.6021 O   0  0  0  0  0  0  0  0  0  0  0  0
   -8.7633   18.4756   25.2672 H   0  0  0  0  0  0  0  0  0  0  0  0
   -8.0391   16.8603   23.5323 C   0  0  0  0  0  0  0  0  0  0  0  0
   -6.6944   16.9434   23.0207 N   0  0  0  0  0  0  0  0  0  0  0  0
   -6.2833   18.0433   22.3880 C   0  0  0  0  0  0  0  0  0  0  0  0
   -7.0752   18.9732   22.2429 O   0  0  0  0  0  0  0  0  0  0  0  0
   -6.0770   16.1857   23.1387 H   0  0  0  0  0  0  0  0  0  0  0  0
   -4.9977   18.2067   21.8771 O   0  0  0  0  0  0  0  0  0  0  0  0
   -3.9957   18.3095   22.8910 C   0  0  0  0  0  0  0  0  0  0  0  0
   -2.8992   17.2844   22.8671 C   0  0  0  0  0  0  0  0  0  0  0  0
   -2.4082   16.8500   21.6414 C   0  0  0  0  0  0  0  0  0  0  0  0
   -1.4261   15.8697   21.6156 C   0  0  0  0  0  0  0  0  0  0  0  0
   -0.9436   15.3379   22.8093 C   0  0  0  0  0  0  0  0  0  0  0  0
   -1.4357   15.7822   24.0275 C   0  0  0  0  0  0  0  0  0  0  0  0
   -2.4190   16.7587   24.0636 C   0  0  0  0  0  0  0  0  0  0  0  0
   -8.8386   15.6754   22.9328 C   0  0  0  0  0  0  0  0  0  0  0  0
   -9.1297   15.8525   21.4492 C   0  0  0  0  0  0  0  0  0  0  0  0
  -10.2020   15.6582   23.6020 C   0  0  0  0  0  0  0  0  0  0  0  0
   -9.7761   17.8077   27.7192 C   0  0  0  0  0  0  0  0  0  0  0  0
  -10.3714   18.9755   27.1734 O   0  0  0  0  0  0  0  0  0  0  0  0
  -10.3812   18.9112   26.2055 H   0  0  0  0  0  0  0  0  0  0  0  0
  -10.5993   16.6159   27.2731 C   0  0  0  0  0  0  0  0  0  0  0  0
  -11.4422   15.8850   28.2809 C   0  0  0  0  0  0  0  0  0  0  0  0
  -11.2315   15.8268   30.7091 N   0  0  0  0  0  0  0  0  0  0  0  0
  -10.6526   15.5172   29.5528 C   0  0  0  0  0  0  0  0  0  0  0  0
   -9.4676   14.9137   29.6154 N   0  0  0  0  0  0  0  0  0  0  0  0
   -9.2328   14.8134   30.9101 C   0  0  0  0  0  0  0  0  0  0  0  0
  -10.3179   15.3721   31.5628 C   0  0  0  0  0  0  0  0  0  0  0  0
  -12.0938   16.2684   30.8844 H   0  0  0  0  0  0  0  0  0  0  0  0
  -10.5814   15.5177   32.9175 C   0  0  0  0  0  0  0  0  0  0  0  0
  -11.6838   16.0049   33.2243 O   0  0  0  0  0  0  0  0  0  0  0  0
   -9.5896   15.1184   34.0050 C   0  0  0  0  0  0  0  0  0  0  0  0
  -10.2066   14.0529   34.9050 C   0  0  0  0  0  0  0  0  0  0  0  0
   -9.3172   16.3870   34.8065 C   0  0  0  0  0  0  0  0  0  0  0  0
  -12.0068   14.6590   27.5421 C   0  0  0  0  0  0  0  0  0  0  0  0
  -12.7753   13.6903   28.4247 C   0  0  0  0  0  0  0  0  0  0  0  0
  -13.9479   14.1372   29.0533 C   0  0  0  0  0  0  0  0  0  0  0  0
  -14.7080   13.2354   29.7953 C   0  0  0  0  0  0  0  0  0  0  0  0
  -14.2951   11.9026   29.9078 C   0  0  0  0  0  0  0  0  0  0  0  0
  -13.1205   11.4660   29.2864 C   0  0  0  0  0  0  0  0  0  0  0  0
  -12.3580   12.3610   28.5454 C   0  0  0  0  0  0  0  0  0  0  0  0
   -7.4222   18.8480   27.6571 C   0  0  0  0  0  0  0  0  0  0  0  0
   -5.9510   18.5103   27.6276 C   0  0  0  0  0  0  0  0  0  0  0  0
   -5.4335   17.6003   28.5496 C   0  0  0  0  0  0  0  0  0  0  0  0
   -4.0777   17.2704   28.5067 C   0  0  0  0  0  0  0  0  0  0  0  0
   -3.2461   17.8481   27.5463 C   0  0  0  0  0  0  0  0  0  0  0  0
   -3.7642   18.7556   26.6289 C   0  0  0  0  0  0  0  0  0  0  0  0
   -5.1179   19.0948   26.6606 C   0  0  0  0  0  0  0  0  0  0  0  0
 33 34  2  0  0  0
 33 35  1  0  0  0
 33 31  1  0  0  0
 35 36  1  0  0  0
 35 37  1  0  0  0
 27 28  1  0  0  0
 27 31  1  0  0  0
 28 29  2  0  0  0
 28 26  1  0  0  0
 29 30  1  0  0  0
 30 31  2  0  0  0
 26 25  1  0  0  0
 26 38  1  0  0  0
 25 22  1  0  0  0
 22 23  1  0  0  0
 22  1  1  0  0  0
  1  2  1  0  0  0
  1 45  1  0  0  0
  2  3  1  0  0  0
  3  4  2  0  0  0
  3  6  1  0  0  0
  6  7  1  0  0  0
  6 19  1  0  0  0
  7  8  1  0  0  0
  8  9  2  0  0  0
  8 11  1  0  0  0
 19 20  1  0  0  0
 19 21  1  0  0  0
 38 39  1  0  0  0
 39 40  2  0  0  0
 39 44  1  0  0  0
 40 41  1  0  0  0
 41 42  2  0  0  0
 42 43  1  0  0  0
 43 44  2  0  0  0
 45 46  1  0  0  0
 46 47  2  0  0  0
 46 51  1  0  0  0
 47 48  1  0  0  0
 48 49  2  0  0  0
 49 50  1  0  0  0
 50 51  2  0  0  0
 11 12  1  0  0  0
 12 13  1  0  0  0
 13 14  2  0  0  0
 13 18  1  0  0  0
 14 15  1  0  0  0
 15 16  2  0  0  0
 16 17  1  0  0  0
 17 18  2  0  0  0
 27 32  1  0  0  0
 23 24  1  0  0  0
  2  5  1  0  0  0
  7 10  1  0  0  0
M  END
> <minimizedAffinity>
-10.16322

$$$$
1HPS_RUN_B_400


 51 54  0  0  0  0  0  0  0  0999 V2000
  -10.4585   15.0343   26.9541 C   0  0  0  0  0  0  0  0  0  0  0  0
   -9.7277   15.3510   25.7416 N   0  0  0  0  0  0  0  0  0  0  0  0
  -10.2549   16.1577   24.8350 C   0  0  0  0  0  0  0  0  0  0  0  0
  -11.3866   16.6310   24.9790 O   0  0  0  0  0  0  0  0  0  0  0  0
   -8.8349   14.9638   25.5925 H   0  0  0  0  0  0  0  0  0  0  0  0
   -9.3386   16.4020   23.6377 C   0  0  0  0  0  0  0  0  0  0  0  0
   -8.0008   16.3097   24.1657 N   0  0  0  0  0  0  0  0  0  0  0  0
   -7.0814   17.2148   23.8274 C   0  0  0  0  0  0  0  0  0  0  0  0
   -7.3960   18.1166   23.0524 O   0  0  0  0  0  0  0  0  0  0  0  0
   -7.7648   15.5760   24.7782 H   0  0  0  0  0  0  0  0  0  0  0  0
   -5.7726   17.2030   24.3043 O   0  0  0  0  0  0  0  0  0  0  0  0
   -4.9588   18.2371   23.7469 C   0  0  0  0  0  0  0  0  0  0  0  0
   -3.4873   17.9594   23.6417 C   0  0  0  0  0  0  0  0  0  0  0  0
   -2.9613   16.8509   24.2951 C   0  0  0  0  0  0  0  0  0  0  0  0
   -1.5945   16.6172   24.2366 C   0  0  0  0  0  0  0  0  0  0  0  0
   -0.7705   17.4872   23.5261 C   0  0  0  0  0  0  0  0  0  0  0  0
   -1.3057   18.5873   22.8725 C   0  0  0  0  0  0  0  0  0  0  0  0
   -2.6692   18.8310   22.9277 C   0  0  0  0  0  0  0  0  0  0  0  0
   -9.6163   15.3665   22.5183 C   0  0  0  0  0  0  0  0  0  0  0  0
   -8.4761   14.3740   22.3386 C   0  0  0  0  0  0  0  0  0  0  0  0
   -9.6906   16.1228   21.2033 C   0  0  0  0  0  0  0  0  0  0  0  0
   -9.4307   14.9268   28.1212 C   0  0  0  0  0  0  0  0  0  0  0  0
   -8.1194   15.0225   27.5850 O   0  0  0  0  0  0  0  0  0  0  0  0
   -8.0152   15.8760   27.1360 H   0  0  0  0  0  0  0  0  0  0  0  0
   -9.6159   16.0694   29.0998 C   0  0  0  0  0  0  0  0  0  0  0  0
   -8.4386   16.5495   29.9019 C   0  0  0  0  0  0  0  0  0  0  0  0
   -9.8922   16.0450   31.7932 N   0  0  0  0  0  0  0  0  0  0  0  0
   -8.7153   16.5375   31.4184 C   0  0  0  0  0  0  0  0  0  0  0  0
   -7.9003   16.9517   32.3863 N   0  0  0  0  0  0  0  0  0  0  0  0
   -8.5823   16.7225   33.4925 C   0  0  0  0  0  0  0  0  0  0  0  0
   -9.7927   16.1679   33.1143 C   0  0  0  0  0  0  0  0  0  0  0  0
  -10.6299   15.6895   31.2467 H   0  0  0  0  0  0  0  0  0  0  0  0
  -10.8683   15.7376   33.8784 C   0  0  0  0  0  0  0  0  0  0  0  0
  -11.0911   16.3597   34.9320 O   0  0  0  0  0  0  0  0  0  0  0  0
  -11.7514   14.5592   33.4816 C   0  0  0  0  0  0  0  0  0  0  0  0
  -13.1102   15.0646   33.0084 C   0  0  0  0  0  0  0  0  0  0  0  0
  -11.9159   13.7186   34.7435 C   0  0  0  0  0  0  0  0  0  0  0  0
   -8.1058   17.9497   29.3575 C   0  0  0  0  0  0  0  0  0  0  0  0
   -6.7476   18.0578   28.6854 C   0  0  0  0  0  0  0  0  0  0  0  0
   -6.5892   18.9691   27.6297 C   0  0  0  0  0  0  0  0  0  0  0  0
   -5.3282   19.1401   27.0622 C   0  0  0  0  0  0  0  0  0  0  0  0
   -4.2403   18.4038   27.5456 C   0  0  0  0  0  0  0  0  0  0  0  0
   -4.4069   17.4904   28.5917 C   0  0  0  0  0  0  0  0  0  0  0  0
   -5.6625   17.3152   29.1615 C   0  0  0  0  0  0  0  0  0  0  0  0
  -11.2387   13.7329   26.7310 C   0  0  0  0  0  0  0  0  0  0  0  0
  -12.3902   13.5588   27.6917 C   0  0  0  0  0  0  0  0  0  0  0  0
  -12.6377   12.3054   28.2519 C   0  0  0  0  0  0  0  0  0  0  0  0
  -13.6878   12.1502   29.1584 C   0  0  0  0  0  0  0  0  0  0  0  0
  -14.4844   13.2435   29.5018 C   0  0  0  0  0  0  0  0  0  0  0  0
  -14.2361   14.4916   28.9414 C   0  0  0  0  0  0  0  0  0  0  0  0
  -13.1896   14.6610   28.0333 C   0  0  0  0  0  0  0  0  0  0  0  0
 33 34  2  0  0  0
 33 35  1  0  0  0
 33 31  1  0  0  0
 35 36  1  0  0  0
 35 37  1  0  0  0
 27 28  1  0  0  0
 27 31  1  0  0  0
 28 29  2  0  0  0
 28 26  1  0  0  0
 29 30  1  0  0  0
 30 31  2  0  0  0
 26 25  1  0  0  0
 26 38  1  0  0  0
 25 22  1  0  0  0
 22 23  1  0  0  0
 22  1  1  0  0  0
  1  2  1  0  0  0
  1 45  1  0  0  0
  2  3  1  0  0  0
  3  4  2  0  0  0
  3  6  1  0  0  0
  6  7  1  0  0  0
  6 19  1  0  0  0
  7  8  1  0  0  0
  8  9  2  0  0  0
  8 11  1  0  0  0
 19 20  1  0  0  0
 19 21  1  0  0  0
 38 39  1  0  0  0
 39 40  2  0  0  0
 39 44  1  0  0  0
 40 41  1  0  0  0
 41 42  2  0  0  0
 42 43  1  0  0  0
 43 44  2  0  0  0
 45 46  1  0  0  0
 46 47  2  0  0  0
 46 51  1  0  0  0
 47 48  1  0  0  0
 48 49  2  0  0  0
 49 50  1  0  0  0
 50 51  2  0  0  0
 11 12  1  0  0  0
 12 13  1  0  0  0
 13 14  2  0  0  0
 13 18  1  0  0  0
 14 15  1  0  0  0
 15 16  2  0  0  0
 16 17  1  0  0  0
 17 18  2  0  0  0
 27 32  1  0  0  0
 23 24  1  0  0  0
  2  5  1  0  0  0
  7 10  1  0  0  0
M  END
> <minimizedAffinity>
-10.15830

$$$$
1HPS_RUN_B_400


 51 54  0  0  0  0  0  0  0  0999 V2000
  -10.1773   15.9189   30.4945 C   0  0  0  0  0  0  0  0  0  0  0  0
  -10.8285   14.8050   29.8312 N   0  0  0  0  0  0  0  0  0  0  0  0
  -11.8860   14.2275   30.3777 C   0  0  0  0  0  0  0  0  0  0  0  0
  -12.3224   14.5951   31.4730 O   0  0  0  0  0  0  0  0  0  0  0  0
  -10.4818   14.4773   28.9701 H   0  0  0  0  0  0  0  0  0  0  0  0
  -12.4588   13.0919   29.5320 C   0  0  0  0  0  0  0  0  0  0  0  0
  -13.3288   12.3651   30.4219 N   0  0  0  0  0  0  0  0  0  0  0  0
  -13.1224   11.0675   30.6515 C   0  0  0  0  0  0  0  0  0  0  0  0
  -12.1866   10.5076   30.0827 O   0  0  0  0  0  0  0  0  0  0  0  0
  -14.0780   12.8281   30.8619 H   0  0  0  0  0  0  0  0  0  0  0  0
  -13.9087   10.2990   31.5068 O   0  0  0  0  0  0  0  0  0  0  0  0
  -13.1854    9.2441   32.1442 C   0  0  0  0  0  0  0  0  0  0  0  0
  -13.4486    7.8494   31.6550 C   0  0  0  0  0  0  0  0  0  0  0  0
  -12.4159    7.1390   31.0540 C   0  0  0  0  0  0  0  0  0  0  0  0
  -12.6684    5.8667   30.5605 C   0  0  0  0  0  0  0  0  0  0  0  0
  -13.9436    5.3174   30.6748 C   0  0  0  0  0  0  0  0  0  0  0  0
  -14.9659    6.0319   31.2814 C   0  0  0  0  0  0  0  0  0  0  0  0
  -14.7243    7.3048   31.7746 C   0  0  0  0  0  0  0  0  0  0  0  0
  -13.2003   13.6552   28.2929 C   0  0  0  0  0  0  0  0  0  0  0  0
  -14.5363   14.2936   28.6464 C   0  0  0  0  0  0  0  0  0  0  0  0
  -13.5505   12.4806   27.3959 C   0  0  0  0  0  0  0  0  0  0  0  0
   -9.8774   17.0093   29.4215 C   0  0  0  0  0  0  0  0  0  0  0  0
  -10.7548   18.1064   29.6280 O   0  0  0  0  0  0  0  0  0  0  0  0
  -10.6112   18.4728   30.5146 H   0  0  0  0  0  0  0  0  0  0  0  0
   -8.4570   17.5185   29.5636 C   0  0  0  0  0  0  0  0  0  0  0  0
   -7.6513   17.8063   28.3273 C   0  0  0  0  0  0  0  0  0  0  0  0
   -8.1461   17.2723   26.0005 N   0  0  0  0  0  0  0  0  0  0  0  0
   -7.9004   16.7750   27.2090 C   0  0  0  0  0  0  0  0  0  0  0  0
   -7.8813   15.4485   27.3216 N   0  0  0  0  0  0  0  0  0  0  0  0
   -8.1358   15.0245   26.0982 C   0  0  0  0  0  0  0  0  0  0  0  0
   -8.2922   16.1477   25.3047 C   0  0  0  0  0  0  0  0  0  0  0  0
   -8.2037   18.2093   25.7039 H   0  0  0  0  0  0  0  0  0  0  0  0
   -8.5640   16.2663   23.9490 C   0  0  0  0  0  0  0  0  0  0  0  0
   -8.1924   17.3151   23.3931 O   0  0  0  0  0  0  0  0  0  0  0  0
   -9.2873   15.1884   23.1486 C   0  0  0  0  0  0  0  0  0  0  0  0
   -8.9149   15.2986   21.6738 C   0  0  0  0  0  0  0  0  0  0  0  0
  -10.7764   15.4604   23.3342 C   0  0  0  0  0  0  0  0  0  0  0  0
   -6.1841   17.8584   28.7882 C   0  0  0  0  0  0  0  0  0  0  0  0
   -5.1820   18.1056   27.6734 C   0  0  0  0  0  0  0  0  0  0  0  0
   -4.2476   17.1024   27.3730 C   0  0  0  0  0  0  0  0  0  0  0  0
   -3.3799   17.2809   26.2975 C   0  0  0  0  0  0  0  0  0  0  0  0
   -3.4468   18.4526   25.5347 C   0  0  0  0  0  0  0  0  0  0  0  0
   -4.3742   19.4526   25.8451 C   0  0  0  0  0  0  0  0  0  0  0  0
   -5.2420   19.2804   26.9171 C   0  0  0  0  0  0  0  0  0  0  0  0
   -8.9088   15.4045   31.1860 C   0  0  0  0  0  0  0  0  0  0  0  0
   -8.9405   15.5726   32.6860 C   0  0  0  0  0  0  0  0  0  0  0  0
   -8.4286   16.7362   33.2606 C   0  0  0  0  0  0  0  0  0  0  0  0
   -8.4797   16.9015   34.6459 C   0  0  0  0  0  0  0  0  0  0  0  0
   -9.0402   15.9080   35.4499 C   0  0  0  0  0  0  0  0  0  0  0  0
   -9.5489   14.7487   34.8747 C   0  0  0  0  0  0  0  0  0  0  0  0
   -9.5040   14.5701   33.4910 C   0  0  0  0  0  0  0  0  0  0  0  0
 33 34  2  0  0  0
 33 35  1  0  0  0
 33 31  1  0  0  0
 35 36  1  0  0  0
 35 37  1  0  0  0
 27 28  1  0  0  0
 27 31  1  0  0  0
 28 29  2  0  0  0
 28 26  1  0  0  0
 29 30  1  0  0  0
 30 31  2  0  0  0
 26 25  1  0  0  0
 26 38  1  0  0  0
 25 22  1  0  0  0
 22 23  1  0  0  0
 22  1  1  0  0  0
  1  2  1  0  0  0
  1 45  1  0  0  0
  2  3  1  0  0  0
  3  4  2  0  0  0
  3  6  1  0  0  0
  6  7  1  0  0  0
  6 19  1  0  0  0
  7  8  1  0  0  0
  8  9  2  0  0  0
  8 11  1  0  0  0
 19 20  1  0  0  0
 19 21  1  0  0  0
 38 39  1  0  0  0
 39 40  2  0  0  0
 39 44  1  0  0  0
 40 41  1  0  0  0
 41 42  2  0  0  0
 42 43  1  0  0  0
 43 44  2  0  0  0
 45 46  1  0  0  0
 46 47  2  0  0  0
 46 51  1  0  0  0
 47 48  1  0  0  0
 48 49  2  0  0  0
 49 50  1  0  0  0
 50 51  2  0  0  0
 11 12  1  0  0  0
 12 13  1  0  0  0
 13 14  2  0  0  0
 13 18  1  0  0  0
 14 15  1  0  0  0
 15 16  2  0  0  0
 16 17  1  0  0  0
 17 18  2  0  0  0
 27 32  1  0  0  0
 23 24  1  0  0  0
  2  5  1  0  0  0
  7 10  1  0  0  0
M  END
> <minimizedAffinity>
-10.08462

$$$$
1HPS_RUN_B_400


 51 54  0  0  0  0  0  0  0  0999 V2000
  -10.2887   16.0542   29.0730 C   0  0  0  0  0  0  0  0  0  0  0  0
  -10.6542   16.1397   30.4743 N   0  0  0  0  0  0  0  0  0  0  0  0
  -10.1605   15.2770   31.3475 C   0  0  0  0  0  0  0  0  0  0  0  0
   -9.4094   14.3636   30.9913 O   0  0  0  0  0  0  0  0  0  0  0  0
  -11.2728   16.8432   30.7770 H   0  0  0  0  0  0  0  0  0  0  0  0
  -10.6294   15.5307   32.7788 C   0  0  0  0  0  0  0  0  0  0  0  0
  -11.5349   14.4488   33.0729 N   0  0  0  0  0  0  0  0  0  0  0  0
  -12.8340   14.6908   33.2542 C   0  0  0  0  0  0  0  0  0  0  0  0
  -13.2363   15.8504   33.1758 O   0  0  0  0  0  0  0  0  0  0  0  0
  -11.1934   13.5279   33.1402 H   0  0  0  0  0  0  0  0  0  0  0  0
  -13.7742   13.7001   33.5280 O   0  0  0  0  0  0  0  0  0  0  0  0
  -13.1900   12.4747   33.9748 C   0  0  0  0  0  0  0  0  0  0  0  0
  -13.3791   11.2730   33.0951 C   0  0  0  0  0  0  0  0  0  0  0  0
  -13.0590   10.0153   33.5930 C   0  0  0  0  0  0  0  0  0  0  0  0
  -13.1901    8.9077   32.7669 C   0  0  0  0  0  0  0  0  0  0  0  0
  -13.6413    9.0663   31.4584 C   0  0  0  0  0  0  0  0  0  0  0  0
  -13.9638   10.3248   30.9728 C   0  0  0  0  0  0  0  0  0  0  0  0
  -13.8331   11.4375   31.7892 C   0  0  0  0  0  0  0  0  0  0  0  0
   -9.4205   15.5836   33.7474 C   0  0  0  0  0  0  0  0  0  0  0  0
   -9.8145   15.9969   35.1585 C   0  0  0  0  0  0  0  0  0  0  0  0
   -8.4915   16.6821   33.2605 C   0  0  0  0  0  0  0  0  0  0  0  0
   -9.2676   17.1929   28.7716 C   0  0  0  0  0  0  0  0  0  0  0  0
   -9.2281   18.0764   29.8825 O   0  0  0  0  0  0  0  0  0  0  0  0
   -8.9492   17.5890   30.6734 H   0  0  0  0  0  0  0  0  0  0  0  0
   -7.8760   16.6229   28.5828 C   0  0  0  0  0  0  0  0  0  0  0  0
   -7.3418   16.4314   27.1906 C   0  0  0  0  0  0  0  0  0  0  0  0
   -5.4743   17.2188   25.8353 N   0  0  0  0  0  0  0  0  0  0  0  0
   -5.8723   16.8777   27.0574 C   0  0  0  0  0  0  0  0  0  0  0  0
   -4.9702   16.9708   28.0321 N   0  0  0  0  0  0  0  0  0  0  0  0
   -3.8857   17.4041   27.4178 C   0  0  0  0  0  0  0  0  0  0  0  0
   -4.2099   17.5525   26.0804 C   0  0  0  0  0  0  0  0  0  0  0  0
   -5.9747   17.2233   24.9875 H   0  0  0  0  0  0  0  0  0  0  0  0
   -3.4433   17.9824   25.0065 C   0  0  0  0  0  0  0  0  0  0  0  0
   -2.7511   17.1228   24.4329 O   0  0  0  0  0  0  0  0  0  0  0  0
   -3.4193   19.4305   24.5289 C   0  0  0  0  0  0  0  0  0  0  0  0
   -4.5548   20.2117   25.1816 C   0  0  0  0  0  0  0  0  0  0  0  0
   -3.6228   19.3745   23.0185 C   0  0  0  0  0  0  0  0  0  0  0  0
   -8.2971   17.2070   26.2667 C   0  0  0  0  0  0  0  0  0  0  0  0
   -8.8795   16.3850   25.1295 C   0  0  0  0  0  0  0  0  0  0  0  0
  -10.2750   16.2953   25.0093 C   0  0  0  0  0  0  0  0  0  0  0  0
  -10.8218   15.6167   23.9221 C   0  0  0  0  0  0  0  0  0  0  0  0
   -9.9791   15.0328   22.9691 C   0  0  0  0  0  0  0  0  0  0  0  0
   -8.5891   15.1180   23.0998 C   0  0  0  0  0  0  0  0  0  0  0  0
   -8.0379   15.7931   24.1824 C   0  0  0  0  0  0  0  0  0  0  0  0
  -11.5628   16.1624   28.2261 C   0  0  0  0  0  0  0  0  0  0  0  0
  -12.3343   14.8672   28.1460 C   0  0  0  0  0  0  0  0  0  0  0  0
  -13.6949   14.8546   28.4539 C   0  0  0  0  0  0  0  0  0  0  0  0
  -14.4131   13.6615   28.3567 C   0  0  0  0  0  0  0  0  0  0  0  0
  -13.7725   12.4889   27.9534 C   0  0  0  0  0  0  0  0  0  0  0  0
  -12.4161   12.5041   27.6478 C   0  0  0  0  0  0  0  0  0  0  0  0
  -11.6857   13.6900   27.7410 C   0  0  0  0  0  0  0  0  0  0  0  0
 33 34  2  0  0  0
 33 35  1  0  0  0
 33 31  1  0  0  0
 35 36  1  0  0  0
 35 37  1  0  0  0
 27 28  1  0  0  0
 27 31  1  0  0  0
 28 29  2  0  0  0
 28 26  1  0  0  0
 29 30  1  0  0  0
 30 31  2  0  0  0
 26 25  1  0  0  0
 26 38  1  0  0  0
 25 22  1  0  0  0
 22 23  1  0  0  0
 22  1  1  0  0  0
  1  2  1  0  0  0
  1 45  1  0  0  0
  2  3  1  0  0  0
  3  4  2  0  0  0
  3  6  1  0  0  0
  6  7  1  0  0  0
  6 19  1  0  0  0
  7  8  1  0  0  0
  8  9  2  0  0  0
  8 11  1  0  0  0
 19 20  1  0  0  0
 19 21  1  0  0  0
 38 39  1  0  0  0
 39 40  2  0  0  0
 39 44  1  0  0  0
 40 41  1  0  0  0
 41 42  2  0  0  0
 42 43  1  0  0  0
 43 44  2  0  0  0
 45 46  1  0  0  0
 46 47  2  0  0  0
 46 51  1  0  0  0
 47 48  1  0  0  0
 48 49  2  0  0  0
 49 50  1  0  0  0
 50 51  2  0  0  0
 11 12  1  0  0  0
 12 13  1  0  0  0
 13 14  2  0  0  0
 13 18  1  0  0  0
 14 15  1  0  0  0
 15 16  2  0  0  0
 16 17  1  0  0  0
 17 18  2  0  0  0
 27 32  1  0  0  0
 23 24  1  0  0  0
  2  5  1  0  0  0
  7 10  1  0  0  0
M  END
> <minimizedAffinity>
-10.06132

$$$$
1HPS_RUN_B_400


 51 54  0  0  0  0  0  0  0  0999 V2000
  -10.1821   15.7927   30.3698 C   0  0  0  0  0  0  0  0  0  0  0  0
  -10.8438   14.6852   29.7063 N   0  0  0  0  0  0  0  0  0  0  0  0
  -11.8885   14.0982   30.2670 C   0  0  0  0  0  0  0  0  0  0  0  0
  -12.3036   14.4512   31.3754 O   0  0  0  0  0  0  0  0  0  0  0  0
  -10.5138   14.3689   28.8344 H   0  0  0  0  0  0  0  0  0  0  0  0
  -12.4755   12.9713   29.4193 C   0  0  0  0  0  0  0  0  0  0  0  0
  -13.3732   12.2688   30.3011 N   0  0  0  0  0  0  0  0  0  0  0  0
  -13.1432   10.9934   30.6166 C   0  0  0  0  0  0  0  0  0  0  0  0
  -12.1614   10.4321   30.1332 O   0  0  0  0  0  0  0  0  0  0  0  0
  -14.1588   12.7319   30.6720 H   0  0  0  0  0  0  0  0  0  0  0  0
  -13.9544   10.2499   31.4709 O   0  0  0  0  0  0  0  0  0  0  0  0
  -14.4738   11.0122   32.5625 C   0  0  0  0  0  0  0  0  0  0  0  0
  -13.5832   11.1755   33.7599 C   0  0  0  0  0  0  0  0  0  0  0  0
  -13.1790   12.4527   34.1310 C   0  0  0  0  0  0  0  0  0  0  0  0
  -12.3195   12.6028   35.2103 C   0  0  0  0  0  0  0  0  0  0  0  0
  -11.8771   11.4808   35.9077 C   0  0  0  0  0  0  0  0  0  0  0  0
  -12.2909   10.2111   35.5333 C   0  0  0  0  0  0  0  0  0  0  0  0
  -13.1467   10.0506   34.4546 C   0  0  0  0  0  0  0  0  0  0  0  0
  -13.1878   13.5447   28.1678 C   0  0  0  0  0  0  0  0  0  0  0  0
  -14.4652   14.2981   28.5111 C   0  0  0  0  0  0  0  0  0  0  0  0
  -13.6403   12.3688   27.3197 C   0  0  0  0  0  0  0  0  0  0  0  0
   -9.8490   16.8693   29.2927 C   0  0  0  0  0  0  0  0  0  0  0  0
  -10.6133   18.0355   29.5613 O   0  0  0  0  0  0  0  0  0  0  0  0
  -10.3878   18.3742   30.4418 H   0  0  0  0  0  0  0  0  0  0  0  0
   -8.3835   17.2505   29.3574 C   0  0  0  0  0  0  0  0  0  0  0  0
   -7.7007   17.7617   28.1194 C   0  0  0  0  0  0  0  0  0  0  0  0
   -8.1463   17.3973   25.7502 N   0  0  0  0  0  0  0  0  0  0  0  0
   -7.8789   16.8154   26.9156 C   0  0  0  0  0  0  0  0  0  0  0  0
   -7.7796   15.4877   26.9167 N   0  0  0  0  0  0  0  0  0  0  0  0
   -7.9995   15.1540   25.6591 C   0  0  0  0  0  0  0  0  0  0  0  0
   -8.2188   16.3287   24.9609 C   0  0  0  0  0  0  0  0  0  0  0  0
   -8.2589   18.3508   25.5327 H   0  0  0  0  0  0  0  0  0  0  0  0
   -8.4882   16.5449   23.6168 C   0  0  0  0  0  0  0  0  0  0  0  0
   -7.9822   17.5567   23.0999 O   0  0  0  0  0  0  0  0  0  0  0  0
   -9.3631   15.6139   22.7840 C   0  0  0  0  0  0  0  0  0  0  0  0
   -9.4927   16.1549   21.3640 C   0  0  0  0  0  0  0  0  0  0  0  0
  -10.7270   15.6028   23.4664 C   0  0  0  0  0  0  0  0  0  0  0  0
   -6.2279   17.9725   28.5120 C   0  0  0  0  0  0  0  0  0  0  0  0
   -5.2900   18.2027   27.3392 C   0  0  0  0  0  0  0  0  0  0  0  0
   -5.3462   19.4313   26.6630 C   0  0  0  0  0  0  0  0  0  0  0  0
   -4.4337   19.6881   25.6418 C   0  0  0  0  0  0  0  0  0  0  0  0
   -3.4787   18.7231   25.3012 C   0  0  0  0  0  0  0  0  0  0  0  0
   -3.4341   17.4970   25.9729 C   0  0  0  0  0  0  0  0  0  0  0  0
   -4.3421   17.2350   26.9920 C   0  0  0  0  0  0  0  0  0  0  0  0
   -8.9320   15.2618   31.0822 C   0  0  0  0  0  0  0  0  0  0  0  0
   -8.9367   15.5291   32.5680 C   0  0  0  0  0  0  0  0  0  0  0  0
   -8.4484   16.7429   33.0521 C   0  0  0  0  0  0  0  0  0  0  0  0
   -8.4749   16.9991   34.4242 C   0  0  0  0  0  0  0  0  0  0  0  0
   -8.9876   16.0458   35.3052 C   0  0  0  0  0  0  0  0  0  0  0  0
   -9.4730   14.8364   34.8201 C   0  0  0  0  0  0  0  0  0  0  0  0
   -9.4522   14.5668   33.4507 C   0  0  0  0  0  0  0  0  0  0  0  0
 33 34  2  0  0  0
 33 35  1  0  0  0
 33 31  1  0  0  0
 35 36  1  0  0  0
 35 37  1  0  0  0
 27 28  1  0  0  0
 27 31  1  0  0  0
 28 29  2  0  0  0
 28 26  1  0  0  0
 29 30  1  0  0  0
 30 31  2  0  0  0
 26 25  1  0  0  0
 26 38  1  0  0  0
 25 22  1  0  0  0
 22 23  1  0  0  0
 22  1  1  0  0  0
  1  2  1  0  0  0
  1 45  1  0  0  0
  2  3  1  0  0  0
  3  4  2  0  0  0
  3  6  1  0  0  0
  6  7  1  0  0  0
  6 19  1  0  0  0
  7  8  1  0  0  0
  8  9  2  0  0  0
  8 11  1  0  0  0
 19 20  1  0  0  0
 19 21  1  0  0  0
 38 39  1  0  0  0
 39 40  2  0  0  0
 39 44  1  0  0  0
 40 41  1  0  0  0
 41 42  2  0  0  0
 42 43  1  0  0  0
 43 44  2  0  0  0
 45 46  1  0  0  0
 46 47  2  0  0  0
 46 51  1  0  0  0
 47 48  1  0  0  0
 48 49  2  0  0  0
 49 50  1  0  0  0
 50 51  2  0  0  0
 11 12  1  0  0  0
 12 13  1  0  0  0
 13 14  2  0  0  0
 13 18  1  0  0  0
 14 15  1  0  0  0
 15 16  2  0  0  0
 16 17  1  0  0  0
 17 18  2  0  0  0
 27 32  1  0  0  0
 23 24  1  0  0  0
  2  5  1  0  0  0
  7 10  1  0  0  0
M  END
> <minimizedAffinity>
-9.99707

$$$$
1HPS_RUN_B_400


 51 54  0  0  0  0  0  0  0  0999 V2000
   -7.4499   17.3798   27.6993 C   0  0  0  0  0  0  0  0  0  0  0  0
   -6.5291   18.0178   26.7775 N   0  0  0  0  0  0  0  0  0  0  0  0
   -5.2927   17.5651   26.6475 C   0  0  0  0  0  0  0  0  0  0  0  0
   -4.8826   16.6178   27.3257 O   0  0  0  0  0  0  0  0  0  0  0  0
   -6.8257   18.7916   26.2460 H   0  0  0  0  0  0  0  0  0  0  0  0
   -4.4719   18.3369   25.6162 C   0  0  0  0  0  0  0  0  0  0  0  0
   -4.0959   17.3572   24.6285 N   0  0  0  0  0  0  0  0  0  0  0  0
   -2.8351   17.2861   24.1992 C   0  0  0  0  0  0  0  0  0  0  0  0
   -2.0097   18.0764   24.6541 O   0  0  0  0  0  0  0  0  0  0  0  0
   -4.7720   16.7382   24.2693 H   0  0  0  0  0  0  0  0  0  0  0  0
   -2.3897   16.3604   23.2583 O   0  0  0  0  0  0  0  0  0  0  0  0
   -1.9120   16.9640   22.0541 C   0  0  0  0  0  0  0  0  0  0  0  0
   -2.6602   16.6447   20.7925 C   0  0  0  0  0  0  0  0  0  0  0  0
   -2.0240   15.9108   19.7980 C   0  0  0  0  0  0  0  0  0  0  0  0
   -2.6978   15.6528   18.6124 C   0  0  0  0  0  0  0  0  0  0  0  0
   -3.9962   16.1253   18.4340 C   0  0  0  0  0  0  0  0  0  0  0  0
   -4.6245   16.8516   19.4346 C   0  0  0  0  0  0  0  0  0  0  0  0
   -3.9587   17.1171   20.6212 C   0  0  0  0  0  0  0  0  0  0  0  0
   -5.3015   19.5032   25.0213 C   0  0  0  0  0  0  0  0  0  0  0  0
   -5.5239   19.3624   23.5220 C   0  0  0  0  0  0  0  0  0  0  0  0
   -4.4845   20.7737   25.1804 C   0  0  0  0  0  0  0  0  0  0  0  0
   -8.8979   17.6101   27.1696 C   0  0  0  0  0  0  0  0  0  0  0  0
   -9.2702   18.9556   27.4289 O   0  0  0  0  0  0  0  0  0  0  0  0
   -8.6573   19.5541   26.9739 H   0  0  0  0  0  0  0  0  0  0  0  0
   -8.9564   17.3935   25.6707 C   0  0  0  0  0  0  0  0  0  0  0  0
   -9.6565   16.1781   25.1296 C   0  0  0  0  0  0  0  0  0  0  0  0
  -11.5966   15.6121   26.4934 N   0  0  0  0  0  0  0  0  0  0  0  0
  -10.3205   15.3385   26.2389 C   0  0  0  0  0  0  0  0  0  0  0  0
   -9.7593   14.3656   26.9538 N   0  0  0  0  0  0  0  0  0  0  0  0
  -10.7304   13.9581   27.7489 C   0  0  0  0  0  0  0  0  0  0  0  0
  -11.8438   14.7258   27.4544 C   0  0  0  0  0  0  0  0  0  0  0  0
  -12.1913   16.2822   26.0854 H   0  0  0  0  0  0  0  0  0  0  0  0
  -13.1241   14.7045   27.9894 C   0  0  0  0  0  0  0  0  0  0  0  0
  -13.8378   15.7001   27.7737 O   0  0  0  0  0  0  0  0  0  0  0  0
  -13.6619   13.5389   28.8127 C   0  0  0  0  0  0  0  0  0  0  0  0
  -13.9382   12.3452   27.9047 C   0  0  0  0  0  0  0  0  0  0  0  0
  -14.9625   14.0344   29.4363 C   0  0  0  0  0  0  0  0  0  0  0  0
   -8.5908   15.4011   24.3369 C   0  0  0  0  0  0  0  0  0  0  0  0
   -8.4674   15.8101   22.8790 C   0  0  0  0  0  0  0  0  0  0  0  0
   -9.1649   15.0712   21.9108 C   0  0  0  0  0  0  0  0  0  0  0  0
   -9.1294   15.4873   20.5815 C   0  0  0  0  0  0  0  0  0  0  0  0
   -8.4007   16.6288   20.2274 C   0  0  0  0  0  0  0  0  0  0  0  0
   -7.7002   17.3554   21.1958 C   0  0  0  0  0  0  0  0  0  0  0  0
   -7.7314   16.9448   22.5233 C   0  0  0  0  0  0  0  0  0  0  0  0
   -7.2308   17.9691   29.0982 C   0  0  0  0  0  0  0  0  0  0  0  0
   -7.7750   17.0953   30.2025 C   0  0  0  0  0  0  0  0  0  0  0  0
   -7.7929   17.5715   31.5136 C   0  0  0  0  0  0  0  0  0  0  0  0
   -8.3180   16.7724   32.5306 C   0  0  0  0  0  0  0  0  0  0  0  0
   -8.8222   15.5048   32.2360 C   0  0  0  0  0  0  0  0  0  0  0  0
   -8.8025   15.0321   30.9285 C   0  0  0  0  0  0  0  0  0  0  0  0
   -8.2800   15.8204   29.9018 C   0  0  0  0  0  0  0  0  0  0  0  0
 33 34  2  0  0  0
 33 35  1  0  0  0
 33 31  1  0  0  0
 35 36  1  0  0  0
 35 37  1  0  0  0
 27 28  1  0  0  0
 27 31  1  0  0  0
 28 29  2  0  0  0
 28 26  1  0  0  0
 29 30  1  0  0  0
 30 31  2  0  0  0
 26 25  1  0  0  0
 26 38  1  0  0  0
 25 22  1  0  0  0
 22 23  1  0  0  0
 22  1  1  0  0  0
  1  2  1  0  0  0
  1 45  1  0  0  0
  2  3  1  0  0  0
  3  4  2  0  0  0
  3  6  1  0  0  0
  6  7  1  0  0  0
  6 19  1  0  0  0
  7  8  1  0  0  0
  8  9  2  0  0  0
  8 11  1  0  0  0
 19 20  1  0  0  0
 19 21  1  0  0  0
 38 39  1  0  0  0
 39 40  2  0  0  0
 39 44  1  0  0  0
 40 41  1  0  0  0
 41 42  2  0  0  0
 42 43  1  0  0  0
 43 44  2  0  0  0
 45 46  1  0  0  0
 46 47  2  0  0  0
 46 51  1  0  0  0
 47 48  1  0  0  0
 48 49  2  0  0  0
 49 50  1  0  0  0
 50 51  2  0  0  0
 11 12  1  0  0  0
 12 13  1  0  0  0
 13 14  2  0  0  0
 13 18  1  0  0  0
 14 15  1  0  0  0
 15 16  2  0  0  0
 16 17  1  0  0  0
 17 18  2  0  0  0
 27 32  1  0  0  0
 23 24  1  0  0  0
  2  5  1  0  0  0
  7 10  1  0  0  0
M  END
> <minimizedAffinity>
-9.97392

$$$$
1HPS_RUN_B_400


 51 54  0  0  0  0  0  0  0  0999 V2000
   -9.5696   15.0673   27.6472 C   0  0  0  0  0  0  0  0  0  0  0  0
  -10.6993   14.1616   27.7367 N   0  0  0  0  0  0  0  0  0  0  0  0
  -11.1745   13.8007   28.9176 C   0  0  0  0  0  0  0  0  0  0  0  0
  -10.6529   14.1941   29.9657 O   0  0  0  0  0  0  0  0  0  0  0  0
  -11.1144   13.8137   26.9146 H   0  0  0  0  0  0  0  0  0  0  0  0
  -12.3793   12.8666   28.8242 C   0  0  0  0  0  0  0  0  0  0  0  0
  -12.9197   12.8188   30.1593 N   0  0  0  0  0  0  0  0  0  0  0  0
  -13.0121   11.6554   30.8052 C   0  0  0  0  0  0  0  0  0  0  0  0
  -12.6384   10.6313   30.2357 O   0  0  0  0  0  0  0  0  0  0  0  0
  -13.2218   13.6477   30.5962 H   0  0  0  0  0  0  0  0  0  0  0  0
  -13.5094   11.5273   32.1001 O   0  0  0  0  0  0  0  0  0  0  0  0
  -13.4796   10.1838   32.5864 C   0  0  0  0  0  0  0  0  0  0  0  0
  -12.9176    9.9730   33.9624 C   0  0  0  0  0  0  0  0  0  0  0  0
  -12.7643    8.6756   34.4372 C   0  0  0  0  0  0  0  0  0  0  0  0
  -12.2873    8.4792   35.7257 C   0  0  0  0  0  0  0  0  0  0  0  0
  -11.9660    9.5759   36.5224 C   0  0  0  0  0  0  0  0  0  0  0  0
  -12.1169   10.8665   36.0374 C   0  0  0  0  0  0  0  0  0  0  0  0
  -12.5956   11.0730   34.7529 C   0  0  0  0  0  0  0  0  0  0  0  0
  -13.3980   13.3932   27.7814 C   0  0  0  0  0  0  0  0  0  0  0  0
  -14.5537   14.1518   28.4186 C   0  0  0  0  0  0  0  0  0  0  0  0
  -14.0380   12.1866   27.1170 C   0  0  0  0  0  0  0  0  0  0  0  0
  -10.1159   16.4851   27.2984 C   0  0  0  0  0  0  0  0  0  0  0  0
  -11.5351   16.4443   27.3154 O   0  0  0  0  0  0  0  0  0  0  0  0
  -11.8406   16.1852   28.1988 H   0  0  0  0  0  0  0  0  0  0  0  0
   -9.6688   17.4969   28.3345 C   0  0  0  0  0  0  0  0  0  0  0  0
   -8.2937   17.3808   28.9311 C   0  0  0  0  0  0  0  0  0  0  0  0
   -9.3450   16.4743   30.9354 N   0  0  0  0  0  0  0  0  0  0  0  0
   -8.3297   17.1894   30.4603 C   0  0  0  0  0  0  0  0  0  0  0  0
   -7.4500   17.6490   31.3476 N   0  0  0  0  0  0  0  0  0  0  0  0
   -7.9109   17.2119   32.5042 C   0  0  0  0  0  0  0  0  0  0  0  0
   -9.0646   16.4960   32.2358 C   0  0  0  0  0  0  0  0  0  0  0  0
  -10.0939   16.0484   30.4588 H   0  0  0  0  0  0  0  0  0  0  0  0
   -9.9310   15.8248   33.0871 C   0  0  0  0  0  0  0  0  0  0  0  0
  -11.1419   15.8753   32.8073 O   0  0  0  0  0  0  0  0  0  0  0  0
   -9.4594   15.0589   34.3186 C   0  0  0  0  0  0  0  0  0  0  0  0
  -10.5829   14.1682   34.8383 C   0  0  0  0  0  0  0  0  0  0  0  0
   -9.1074   16.1179   35.3582 C   0  0  0  0  0  0  0  0  0  0  0  0
   -7.5417   18.6510   28.4966 C   0  0  0  0  0  0  0  0  0  0  0  0
   -6.1310   18.4054   27.9889 C   0  0  0  0  0  0  0  0  0  0  0  0
   -5.3994   17.3341   28.5247 C   0  0  0  0  0  0  0  0  0  0  0  0
   -4.1383   17.0454   28.0074 C   0  0  0  0  0  0  0  0  0  0  0  0
   -3.6164   17.8235   26.9674 C   0  0  0  0  0  0  0  0  0  0  0  0
   -4.3469   18.8955   26.4442 C   0  0  0  0  0  0  0  0  0  0  0  0
   -5.6051   19.1887   26.9566 C   0  0  0  0  0  0  0  0  0  0  0  0
   -8.5945   14.5326   26.5911 C   0  0  0  0  0  0  0  0  0  0  0  0
   -8.4735   15.4325   25.3850 C   0  0  0  0  0  0  0  0  0  0  0  0
   -7.4640   16.3943   25.3404 C   0  0  0  0  0  0  0  0  0  0  0  0
   -7.3379   17.2102   24.2147 C   0  0  0  0  0  0  0  0  0  0  0  0
   -8.2170   17.0632   23.1407 C   0  0  0  0  0  0  0  0  0  0  0  0
   -9.2229   16.1043   23.1880 C   0  0  0  0  0  0  0  0  0  0  0  0
   -9.3607   15.2820   24.3076 C   0  0  0  0  0  0  0  0  0  0  0  0
 33 34  2  0  0  0
 33 35  1  0  0  0
 33 31  1  0  0  0
 35 36  1  0  0  0
 35 37  1  0  0  0
 27 28  1  0  0  0
 27 31  1  0  0  0
 28 29  2  0  0  0
 28 26  1  0  0  0
 29 30  1  0  0  0
 30 31  2  0  0  0
 26 25  1  0  0  0
 26 38  1  0  0  0
 25 22  1  0  0  0
 22 23  1  0  0  0
 22  1  1  0  0  0
  1  2  1  0  0  0
  1 45  1  0  0  0
  2  3  1  0  0  0
  3  4  2  0  0  0
  3  6  1  0  0  0
  6  7  1  0  0  0
  6 19  1  0  0  0
  7  8  1  0  0  0
  8  9  2  0  0  0
  8 11  1  0  0  0
 19 20  1  0  0  0
 19 21  1  0  0  0
 38 39  1  0  0  0
 39 40  2  0  0  0
 39 44  1  0  0  0
 40 41  1  0  0  0
 41 42  2  0  0  0
 42 43  1  0  0  0
 43 44  2  0  0  0
 45 46  1  0  0  0
 46 47  2  0  0  0
 46 51  1  0  0  0
 47 48  1  0  0  0
 48 49  2  0  0  0
 49 50  1  0  0  0
 50 51  2  0  0  0
 11 12  1  0  0  0
 12 13  1  0  0  0
 13 14  2  0  0  0
 13 18  1  0  0  0
 14 15  1  0  0  0
 15 16  2  0  0  0
 16 17  1  0  0  0
 17 18  2  0  0  0
 27 32  1  0  0  0
 23 24  1  0  0  0
  2  5  1  0  0  0
  7 10  1  0  0  0
M  END
> <minimizedAffinity>
-9.75329

$$$$
1HPS_RUN_B_400


 51 54  0  0  0  0  0  0  0  0999 V2000
  -10.9897   15.7430   28.9453 C   0  0  0  0  0  0  0  0  0  0  0  0
  -11.1501   15.8343   30.3842 N   0  0  0  0  0  0  0  0  0  0  0  0
  -10.3338   15.1757   31.1907 C   0  0  0  0  0  0  0  0  0  0  0  0
   -9.4434   14.4454   30.7444 O   0  0  0  0  0  0  0  0  0  0  0  0
  -11.8700   16.3891   30.7626 H   0  0  0  0  0  0  0  0  0  0  0  0
  -10.6302   15.4073   32.6711 C   0  0  0  0  0  0  0  0  0  0  0  0
  -11.5464   14.3571   33.0377 N   0  0  0  0  0  0  0  0  0  0  0  0
  -12.8427   14.6243   33.2031 C   0  0  0  0  0  0  0  0  0  0  0  0
  -13.2331   15.7802   33.0472 O   0  0  0  0  0  0  0  0  0  0  0  0
  -11.2145   13.4393   33.1665 H   0  0  0  0  0  0  0  0  0  0  0  0
  -13.7928   13.6641   33.5434 O   0  0  0  0  0  0  0  0  0  0  0  0
  -13.2451   12.3513   33.6812 C   0  0  0  0  0  0  0  0  0  0  0  0
  -13.1620   11.7939   35.0725 C   0  0  0  0  0  0  0  0  0  0  0  0
  -11.9140   11.4903   35.6044 C   0  0  0  0  0  0  0  0  0  0  0  0
  -11.8373   10.9329   36.8731 C   0  0  0  0  0  0  0  0  0  0  0  0
  -13.0026   10.6886   37.5964 C   0  0  0  0  0  0  0  0  0  0  0  0
  -14.2427   11.0005   37.0594 C   0  0  0  0  0  0  0  0  0  0  0  0
  -14.3299   11.5546   35.7917 C   0  0  0  0  0  0  0  0  0  0  0  0
   -9.3208   15.3798   33.5001 C   0  0  0  0  0  0  0  0  0  0  0  0
   -9.5746   15.3681   35.0010 C   0  0  0  0  0  0  0  0  0  0  0  0
   -8.5842   16.6815   33.2356 C   0  0  0  0  0  0  0  0  0  0  0  0
  -10.4370   17.1085   28.4351 C   0  0  0  0  0  0  0  0  0  0  0  0
  -10.7014   18.1024   29.4141 O   0  0  0  0  0  0  0  0  0  0  0  0
  -10.2623   17.8626   30.2451 H   0  0  0  0  0  0  0  0  0  0  0  0
   -8.9355   17.0356   28.2422 C   0  0  0  0  0  0  0  0  0  0  0  0
   -8.3836   16.6862   26.8881 C   0  0  0  0  0  0  0  0  0  0  0  0
   -6.8282   18.2925   25.9159 N   0  0  0  0  0  0  0  0  0  0  0  0
   -6.9494   17.2132   26.6830 C   0  0  0  0  0  0  0  0  0  0  0  0
   -5.8292   16.7139   27.2010 N   0  0  0  0  0  0  0  0  0  0  0  0
   -4.8860   17.5164   26.7452 C   0  0  0  0  0  0  0  0  0  0  0  0
   -5.5112   18.4742   25.9658 C   0  0  0  0  0  0  0  0  0  0  0  0
   -7.5189   18.8113   25.4437 H   0  0  0  0  0  0  0  0  0  0  0  0
   -4.9880   19.5504   25.2629 C   0  0  0  0  0  0  0  0  0  0  0  0
   -4.4009   20.4218   25.9284 O   0  0  0  0  0  0  0  0  0  0  0  0
   -5.1136   19.6953   23.7499 C   0  0  0  0  0  0  0  0  0  0  0  0
   -3.7561   19.4714   23.0921 C   0  0  0  0  0  0  0  0  0  0  0  0
   -5.5840   21.1255   23.5062 C   0  0  0  0  0  0  0  0  0  0  0  0
   -9.3886   17.2516   25.8693 C   0  0  0  0  0  0  0  0  0  0  0  0
   -9.4338   16.5039   24.5475 C   0  0  0  0  0  0  0  0  0  0  0  0
   -8.5363   16.8735   23.5337 C   0  0  0  0  0  0  0  0  0  0  0  0
   -8.5088   16.1403   22.3491 C   0  0  0  0  0  0  0  0  0  0  0  0
   -9.3730   15.0519   22.1825 C   0  0  0  0  0  0  0  0  0  0  0  0
  -10.2715   14.6946   23.1932 C   0  0  0  0  0  0  0  0  0  0  0  0
  -10.3039   15.4225   24.3768 C   0  0  0  0  0  0  0  0  0  0  0  0
  -12.3441   15.3830   28.3225 C   0  0  0  0  0  0  0  0  0  0  0  0
  -12.8957   14.0685   28.8197 C   0  0  0  0  0  0  0  0  0  0  0  0
  -12.2571   12.8775   28.4737 C   0  0  0  0  0  0  0  0  0  0  0  0
  -12.7537   11.6641   28.9531 C   0  0  0  0  0  0  0  0  0  0  0  0
  -13.8821   11.6441   29.7741 C   0  0  0  0  0  0  0  0  0  0  0  0
  -14.5172   12.8327   30.1168 C   0  0  0  0  0  0  0  0  0  0  0  0
  -14.0317   14.0531   29.6442 C   0  0  0  0  0  0  0  0  0  0  0  0
 33 34  2  0  0  0
 33 35  1  0  0  0
 33 31  1  0  0  0
 35 36  1  0  0  0
 35 37  1  0  0  0
 27 28  1  0  0  0
 27 31  1  0  0  0
 28 29  2  0  0  0
 28 26  1  0  0  0
 29 30  1  0  0  0
 30 31  2  0  0  0
 26 25  1  0  0  0
 26 38  1  0  0  0
 25 22  1  0  0  0
 22 23  1  0  0  0
 22  1  1  0  0  0
  1  2  1  0  0  0
  1 45  1  0  0  0
  2  3  1  0  0  0
  3  4  2  0  0  0
  3  6  1  0  0  0
  6  7  1  0  0  0
  6 19  1  0  0  0
  7  8  1  0  0  0
  8  9  2  0  0  0
  8 11  1  0  0  0
 19 20  1  0  0  0
 19 21  1  0  0  0
 38 39  1  0  0  0
 39 40  2  0  0  0
 39 44  1  0  0  0
 40 41  1  0  0  0
 41 42  2  0  0  0
 42 43  1  0  0  0
 43 44  2  0  0  0
 45 46  1  0  0  0
 46 47  2  0  0  0
 46 51  1  0  0  0
 47 48  1  0  0  0
 48 49  2  0  0  0
 49 50  1  0  0  0
 50 51  2  0  0  0
 11 12  1  0  0  0
 12 13  1  0  0  0
 13 14  2  0  0  0
 13 18  1  0  0  0
 14 15  1  0  0  0
 15 16  2  0  0  0
 16 17  1  0  0  0
 17 18  2  0  0  0
 27 32  1  0  0  0
 23 24  1  0  0  0
  2  5  1  0  0  0
  7 10  1  0  0  0
M  END
> <minimizedAffinity>
-9.67430

$$$$
