4Q4S_S98_A_406


 22 24  0  0  0  0  0  0  0  0999 V2000
  -19.0263   18.5012  -18.0928 N   0  0  0  0  0  0  0  0  0  0  0  0
  -18.3308   18.1741  -19.2410 C   0  0  0  0  0  0  0  0  0  0  0  0
  -17.0552   17.8013  -18.8132 C   0  0  0  0  0  0  0  0  0  0  0  0
  -16.9722   17.9145  -17.4248 N   0  0  0  0  0  0  0  0  0  0  0  0
  -18.1702   18.3374  -17.0582 C   0  0  0  0  0  0  0  0  0  0  0  0
  -16.0801   17.4621  -19.7564 C   0  0  0  0  0  0  0  0  0  0  0  0
  -16.3793   17.5579  -21.1237 C   0  0  0  0  0  0  0  0  0  0  0  0
  -17.6630   17.9559  -21.5378 C   0  0  0  0  0  0  0  0  0  0  0  0
  -17.9150   18.1554  -22.9728 C   0  0  0  0  0  0  0  0  0  0  0  0
  -18.9992   18.4943  -23.4371 O   0  0  0  0  0  0  0  0  0  0  0  0
  -16.8260   17.9394  -23.7836 N   0  0  0  0  0  0  0  0  0  0  0  0
  -15.6015   17.5348  -23.3241 C   0  0  0  0  0  0  0  0  0  0  0  0
  -14.6353   17.3513  -24.2240 N   0  0  0  0  0  0  0  0  0  0  0  0
  -15.3515   17.3281  -22.0334 N   0  0  0  0  0  0  0  0  0  0  0  0
  -18.6405   18.2325  -20.5864 C   0  0  0  0  0  0  0  0  0  0  0  0
  -19.9638   18.7965  -18.0382 H   0  0  0  0  0  0  0  0  0  0  0  0
  -16.9330   18.0841  -24.7515 H   0  0  0  0  0  0  0  0  0  0  0  0
  -14.8172   17.5034  -25.1795 H   0  0  0  0  0  0  0  0  0  0  0  0
  -13.7399   17.0636  -23.9331 H   0  0  0  0  0  0  0  0  0  0  0  0
  -18.5035   18.6060  -15.7987 N   0  0  0  0  0  0  0  0  0  0  0  0
  -17.5436   18.9983  -14.7845 C   0  0  0  0  0  0  0  0  0  0  0  0
  -19.4511   18.5347  -15.5415 H   0  0  0  0  0  0  0  0  0  0  0  0
  1  2  1  0  0  0
  1  5  1  0  0  0
  2  3  2  0  0  0
  2 15  1  0  0  0
  3  4  1  0  0  0
  3  6  1  0  0  0
  4  5  2  0  0  0
  5 20  1  0  0  0
 20 21  1  0  0  0
  6  7  2  0  0  0
  7  8  1  0  0  0
  7 14  1  0  0  0
  8  9  1  0  0  0
  8 15  2  0  0  0
  9 10  2  0  0  0
  9 11  1  0  0  0
 11 12  1  0  0  0
 12 13  1  0  0  0
 12 14  2  0  0  0
  1 16  1  0  0  0
 20 22  1  0  0  0
 11 17  1  0  0  0
 13 18  1  0  0  0
 13 19  1  0  0  0
M  END
> <minimizedAffinity>
-9.70827

$$$$
4Q4S_S98_A_406


 22 24  0  0  0  0  0  0  0  0999 V2000
  -17.3354   18.2129  -16.3276 N   0  0  0  0  0  0  0  0  0  0  0  0
  -17.1582   17.9573  -17.6738 C   0  0  0  0  0  0  0  0  0  0  0  0
  -15.7961   17.6931  -17.8290 C   0  0  0  0  0  0  0  0  0  0  0  0
  -15.1517   17.8013  -16.5959 N   0  0  0  0  0  0  0  0  0  0  0  0
  -16.1168   18.1153  -15.7482 C   0  0  0  0  0  0  0  0  0  0  0  0
  -15.2793   17.4479  -19.1050 C   0  0  0  0  0  0  0  0  0  0  0  0
  -16.1265   17.5291  -20.2203 C   0  0  0  0  0  0  0  0  0  0  0  0
  -17.4921   17.8175  -20.0482 C   0  0  0  0  0  0  0  0  0  0  0  0
  -18.3326   18.0066  -21.2400 C   0  0  0  0  0  0  0  0  0  0  0  0
  -19.5339   18.2539  -21.1986 O   0  0  0  0  0  0  0  0  0  0  0  0
  -17.6668   17.8929  -22.4374 N   0  0  0  0  0  0  0  0  0  0  0  0
  -16.3354   17.5924  -22.5440 C   0  0  0  0  0  0  0  0  0  0  0  0
  -15.8204   17.5012  -23.7702 N   0  0  0  0  0  0  0  0  0  0  0  0
  -15.5562   17.3972  -21.4829 N   0  0  0  0  0  0  0  0  0  0  0  0
  -18.0030   18.0000  -18.7664 C   0  0  0  0  0  0  0  0  0  0  0  0
  -18.1846   18.4252  -15.8769 H   0  0  0  0  0  0  0  0  0  0  0  0
  -18.1774   18.0360  -23.2669 H   0  0  0  0  0  0  0  0  0  0  0  0
  -16.3943   17.6450  -24.5570 H   0  0  0  0  0  0  0  0  0  0  0  0
  -14.8662   17.2899  -23.8888 H   0  0  0  0  0  0  0  0  0  0  0  0
  -15.9150   18.3431  -14.4533 N   0  0  0  0  0  0  0  0  0  0  0  0
  -15.9022   17.2955  -13.4501 C   0  0  0  0  0  0  0  0  0  0  0  0
  -15.7667   19.2713  -14.1605 H   0  0  0  0  0  0  0  0  0  0  0  0
  1  2  1  0  0  0
  1  5  1  0  0  0
  2  3  2  0  0  0
  2 15  1  0  0  0
  3  4  1  0  0  0
  3  6  1  0  0  0
  4  5  2  0  0  0
  5 20  1  0  0  0
 20 21  1  0  0  0
  6  7  2  0  0  0
  7  8  1  0  0  0
  7 14  1  0  0  0
  8  9  1  0  0  0
  8 15  2  0  0  0
  9 10  2  0  0  0
  9 11  1  0  0  0
 11 12  1  0  0  0
 12 13  1  0  0  0
 12 14  2  0  0  0
  1 16  1  0  0  0
 20 22  1  0  0  0
 11 17  1  0  0  0
 13 18  1  0  0  0
 13 19  1  0  0  0
M  END
> <minimizedAffinity>
-7.76969

$$$$
4Q4S_S98_A_406


 22 24  0  0  0  0  0  0  0  0999 V2000
  -15.6444   17.3282  -20.9396 N   0  0  0  0  0  0  0  0  0  0  0  0
  -16.1363   17.5136  -19.6618 C   0  0  0  0  0  0  0  0  0  0  0  0
  -17.4621   17.9194  -19.8258 C   0  0  0  0  0  0  0  0  0  0  0  0
  -17.7672   17.9938  -21.1855 N   0  0  0  0  0  0  0  0  0  0  0  0
  -16.6484   17.6358  -21.7926 C   0  0  0  0  0  0  0  0  0  0  0  0
  -18.2303   18.2455  -18.7037 C   0  0  0  0  0  0  0  0  0  0  0  0
  -17.6403   18.2173  -17.4313 C   0  0  0  0  0  0  0  0  0  0  0  0
  -16.2971   17.8268  -17.2859 C   0  0  0  0  0  0  0  0  0  0  0  0
  -15.6733   17.9136  -15.9570 C   0  0  0  0  0  0  0  0  0  0  0  0
  -14.5125   17.5914  -15.7231 O   0  0  0  0  0  0  0  0  0  0  0  0
  -16.4940   18.3994  -14.9669 N   0  0  0  0  0  0  0  0  0  0  0  0
  -17.8030   18.7485  -15.1644 C   0  0  0  0  0  0  0  0  0  0  0  0
  -18.4875   19.1947  -14.1112 N   0  0  0  0  0  0  0  0  0  0  0  0
  -18.3979   18.6614  -16.3516 N   0  0  0  0  0  0  0  0  0  0  0  0
  -15.5633   17.4477  -18.4062 C   0  0  0  0  0  0  0  0  0  0  0  0
  -14.7382   17.0299  -21.1824 H   0  0  0  0  0  0  0  0  0  0  0  0
  -16.1183   18.5024  -14.0627 H   0  0  0  0  0  0  0  0  0  0  0  0
  -18.0501   19.2602  -13.2316 H   0  0  0  0  0  0  0  0  0  0  0  0
  -19.4304   19.4588  -14.2129 H   0  0  0  0  0  0  0  0  0  0  0  0
  -16.5046   17.6048  -23.1146 N   0  0  0  0  0  0  0  0  0  0  0  0
  -15.2147   17.5788  -23.7777 C   0  0  0  0  0  0  0  0  0  0  0  0
  -17.3159   17.5992  -23.6722 H   0  0  0  0  0  0  0  0  0  0  0  0
  1  2  1  0  0  0
  1  5  1  0  0  0
  2  3  2  0  0  0
  2 15  1  0  0  0
  3  4  1  0  0  0
  3  6  1  0  0  0
  4  5  2  0  0  0
  5 20  1  0  0  0
 20 21  1  0  0  0
  6  7  2  0  0  0
  7  8  1  0  0  0
  7 14  1  0  0  0
  8  9  1  0  0  0
  8 15  2  0  0  0
  9 10  2  0  0  0
  9 11  1  0  0  0
 11 12  1  0  0  0
 12 13  1  0  0  0
 12 14  2  0  0  0
  1 16  1  0  0  0
 20 22  1  0  0  0
 11 17  1  0  0  0
 13 18  1  0  0  0
 13 19  1  0  0  0
M  END
> <minimizedAffinity>
-7.22066

$$$$
4Q4S_S98_A_406


 22 24  0  0  0  0  0  0  0  0999 V2000
  -16.8681   17.5694  -19.0628 N   0  0  0  0  0  0  0  0  0  0  0  0
  -15.9271   17.8824  -18.1008 C   0  0  0  0  0  0  0  0  0  0  0  0
  -16.6471   18.4237  -17.0341 C   0  0  0  0  0  0  0  0  0  0  0  0
  -18.0062   18.4528  -17.3498 N   0  0  0  0  0  0  0  0  0  0  0  0
  -18.0713   17.9373  -18.5657 C   0  0  0  0  0  0  0  0  0  0  0  0
  -15.9660   18.8981  -15.9087 C   0  0  0  0  0  0  0  0  0  0  0  0
  -14.5634   18.8779  -15.8913 C   0  0  0  0  0  0  0  0  0  0  0  0
  -13.8527   18.3488  -16.9834 C   0  0  0  0  0  0  0  0  0  0  0  0
  -12.3851   18.4422  -16.9867 C   0  0  0  0  0  0  0  0  0  0  0  0
  -11.6732   18.0064  -17.8863 O   0  0  0  0  0  0  0  0  0  0  0  0
  -11.8464   19.0734  -15.8906 N   0  0  0  0  0  0  0  0  0  0  0  0
  -12.5892   19.5545  -14.8461 C   0  0  0  0  0  0  0  0  0  0  0  0
  -11.9348   20.1348  -13.8402 N   0  0  0  0  0  0  0  0  0  0  0  0
  -13.9166   19.4658  -14.8083 N   0  0  0  0  0  0  0  0  0  0  0  0
  -14.5467   17.8257  -18.0706 C   0  0  0  0  0  0  0  0  0  0  0  0
  -16.6962   17.1581  -19.9405 H   0  0  0  0  0  0  0  0  0  0  0  0
  -10.8690   19.1859  -15.8547 H   0  0  0  0  0  0  0  0  0  0  0  0
  -10.9529   20.2018  -13.8653 H   0  0  0  0  0  0  0  0  0  0  0  0
  -12.4334   20.4962  -13.0721 H   0  0  0  0  0  0  0  0  0  0  0  0
  -19.2028   17.8139  -19.2542 N   0  0  0  0  0  0  0  0  0  0  0  0
  -19.2518   17.7208  -20.7009 C   0  0  0  0  0  0  0  0  0  0  0  0
  -20.0513   17.7841  -18.7558 H   0  0  0  0  0  0  0  0  0  0  0  0
  1  2  1  0  0  0
  1  5  1  0  0  0
  2  3  2  0  0  0
  2 15  1  0  0  0
  3  4  1  0  0  0
  3  6  1  0  0  0
  4  5  2  0  0  0
  5 20  1  0  0  0
 20 21  1  0  0  0
  6  7  2  0  0  0
  7  8  1  0  0  0
  7 14  1  0  0  0
  8  9  1  0  0  0
  8 15  2  0  0  0
  9 10  2  0  0  0
  9 11  1  0  0  0
 11 12  1  0  0  0
 12 13  1  0  0  0
 12 14  2  0  0  0
  1 16  1  0  0  0
 20 22  1  0  0  0
 11 17  1  0  0  0
 13 18  1  0  0  0
 13 19  1  0  0  0
M  END
> <minimizedAffinity>
-7.18339

$$$$
4Q4S_S98_A_406


 22 24  0  0  0  0  0  0  0  0999 V2000
  -16.4945   17.3708  -20.7317 N   0  0  0  0  0  0  0  0  0  0  0  0
  -15.9940   17.5074  -19.4512 C   0  0  0  0  0  0  0  0  0  0  0  0
  -17.0820   17.8849  -18.6618 C   0  0  0  0  0  0  0  0  0  0  0  0
  -18.2253   17.9905  -19.4550 N   0  0  0  0  0  0  0  0  0  0  0  0
  -17.8107   17.6776  -20.6710 C   0  0  0  0  0  0  0  0  0  0  0  0
  -16.8902   18.1597  -17.3042 C   0  0  0  0  0  0  0  0  0  0  0  0
  -15.5957   18.1098  -16.7658 C   0  0  0  0  0  0  0  0  0  0  0  0
  -14.5075   17.7486  -17.5800 C   0  0  0  0  0  0  0  0  0  0  0  0
  -13.1498   17.8129  -17.0187 C   0  0  0  0  0  0  0  0  0  0  0  0
  -12.1361   17.5129  -17.6420 O   0  0  0  0  0  0  0  0  0  0  0  0
  -13.0857   18.2498  -15.7168 N   0  0  0  0  0  0  0  0  0  0  0  0
  -14.1840   18.5719  -14.9656 C   0  0  0  0  0  0  0  0  0  0  0  0
  -13.9769   18.9709  -13.7107 N   0  0  0  0  0  0  0  0  0  0  0  0
  -15.4247   18.5041  -15.4422 N   0  0  0  0  0  0  0  0  0  0  0  0
  -14.7234   17.4199  -18.9152 C   0  0  0  0  0  0  0  0  0  0  0  0
  -15.9906   17.1020  -21.5336 H   0  0  0  0  0  0  0  0  0  0  0  0
  -12.1978   18.3362  -15.3002 H   0  0  0  0  0  0  0  0  0  0  0  0
  -13.0602   19.0220  -13.3553 H   0  0  0  0  0  0  0  0  0  0  0  0
  -14.7407   19.2143  -13.1392 H   0  0  0  0  0  0  0  0  0  0  0  0
  -18.5976   17.6879  -21.7434 N   0  0  0  0  0  0  0  0  0  0  0  0
  -18.1265   18.0092  -23.0771 C   0  0  0  0  0  0  0  0  0  0  0  0
  -19.5495   17.4659  -21.6257 H   0  0  0  0  0  0  0  0  0  0  0  0
  1  2  1  0  0  0
  1  5  1  0  0  0
  2  3  2  0  0  0
  2 15  1  0  0  0
  3  4  1  0  0  0
  3  6  1  0  0  0
  4  5  2  0  0  0
  5 20  1  0  0  0
 20 21  1  0  0  0
  6  7  2  0  0  0
  7  8  1  0  0  0
  7 14  1  0  0  0
  8  9  1  0  0  0
  8 15  2  0  0  0
  9 10  2  0  0  0
  9 11  1  0  0  0
 11 12  1  0  0  0
 12 13  1  0  0  0
 12 14  2  0  0  0
  1 16  1  0  0  0
 20 22  1  0  0  0
 11 17  1  0  0  0
 13 18  1  0  0  0
 13 19  1  0  0  0
M  END
> <minimizedAffinity>
-6.89952

$$$$
4Q4S_S98_A_406


 22 24  0  0  0  0  0  0  0  0999 V2000
  -17.9497   18.3514  -17.5151 N   0  0  0  0  0  0  0  0  0  0  0  0
  -16.6141   18.2018  -17.1945 C   0  0  0  0  0  0  0  0  0  0  0  0
  -16.0143   17.6574  -18.3317 C   0  0  0  0  0  0  0  0  0  0  0  0
  -16.9756   17.4650  -19.3249 N   0  0  0  0  0  0  0  0  0  0  0  0
  -18.1016   17.8915  -18.7783 C   0  0  0  0  0  0  0  0  0  0  0  0
  -14.6549   17.3308  -18.3085 C   0  0  0  0  0  0  0  0  0  0  0  0
  -13.9244   17.4997  -17.1228 C   0  0  0  0  0  0  0  0  0  0  0  0
  -14.5492   18.0294  -15.9797 C   0  0  0  0  0  0  0  0  0  0  0  0
  -13.7908   18.0911  -14.7213 C   0  0  0  0  0  0  0  0  0  0  0  0
  -14.2408   18.5408  -13.6719 O   0  0  0  0  0  0  0  0  0  0  0  0
  -12.5120   17.5921  -14.7954 N   0  0  0  0  0  0  0  0  0  0  0  0
  -11.9494   17.1035  -15.9439 C   0  0  0  0  0  0  0  0  0  0  0  0
  -10.6937   16.6613  -15.8754 N   0  0  0  0  0  0  0  0  0  0  0  0
  -12.6062   17.0541  -17.1004 N   0  0  0  0  0  0  0  0  0  0  0  0
  -15.8881   18.4054  -16.0365 C   0  0  0  0  0  0  0  0  0  0  0  0
  -18.6547   18.7212  -16.9360 H   0  0  0  0  0  0  0  0  0  0  0  0
  -11.9688   17.5856  -13.9743 H   0  0  0  0  0  0  0  0  0  0  0  0
  -10.2053   16.6966  -15.0214 H   0  0  0  0  0  0  0  0  0  0  0  0
  -10.2547   16.2995  -16.6789 H   0  0  0  0  0  0  0  0  0  0  0  0
  -19.2808   17.8505  -19.3924 N   0  0  0  0  0  0  0  0  0  0  0  0
  -19.4301   17.8322  -20.8352 C   0  0  0  0  0  0  0  0  0  0  0  0
  -20.0947   17.8316  -18.8389 H   0  0  0  0  0  0  0  0  0  0  0  0
  1  2  1  0  0  0
  1  5  1  0  0  0
  2  3  2  0  0  0
  2 15  1  0  0  0
  3  4  1  0  0  0
  3  6  1  0  0  0
  4  5  2  0  0  0
  5 20  1  0  0  0
 20 21  1  0  0  0
  6  7  2  0  0  0
  7  8  1  0  0  0
  7 14  1  0  0  0
  8  9  1  0  0  0
  8 15  2  0  0  0
  9 10  2  0  0  0
  9 11  1  0  0  0
 11 12  1  0  0  0
 12 13  1  0  0  0
 12 14  2  0  0  0
  1 16  1  0  0  0
 20 22  1  0  0  0
 11 17  1  0  0  0
 13 18  1  0  0  0
 13 19  1  0  0  0
M  END
> <minimizedAffinity>
-6.76790

$$$$
