4PFU_MAB_A_602
  RCSB PDB12061714133D
Coordinates from PDB:4PFU:A:602 Model:1 without hydrogens
 23 24  0  0  0  0            999 V2000
  -34.8500  -57.1570   17.6360   C 0  0  0  0  0  0  0  0  0  0  0  0
  -34.6410  -57.5790   16.2010   C 0  0  0  0  0  0  0  0  0  0  0  0
  -35.3360  -56.6700   15.2180   C 0  0  0  0  0  0  0  0  0  0  0  0
  -36.7720  -56.4140   15.6250   C 0  0  0  0  0  0  0  0  0  0  0  0
  -36.7690  -55.8780   17.0270   C 0  0  0  0  0  0  0  0  0  0  0  0
  -38.1220  -55.3930   17.4990   C 0  0  0  0  0  0  0  0  0  0  0  0
  -35.1970  -58.8860   16.0480   O 0  0  0  0  0  0  0  0  0  0  0  0
  -35.2400  -57.2700   13.9150   O 0  0  0  0  0  0  0  0  0  0  0  0
  -37.4370  -55.4240   14.7840   O 0  0  0  0  0  0  0  0  0  0  0  0
  -36.2930  -56.9540   17.9020   O 0  0  0  0  0  0  0  0  0  0  0  0
  -39.0370  -56.4730   17.4730   O 0  0  0  0  0  0  0  0  0  0  0  0
  -38.3380  -56.0280   13.8930   C 0  0  0  0  0  0  0  0  0  0  0  0
  -39.2690  -54.9830   13.3180   C 0  0  0  0  0  0  0  0  0  0  0  0
  -40.0950  -55.5410   12.2100   C 0  0  0  0  0  0  0  0  0  0  0  0
  -39.2750  -56.2420   11.1670   C 0  0  0  0  0  0  0  0  0  0  0  0
  -38.3960  -57.2870   11.8390   C 0  0  0  0  0  0  0  0  0  0  0  0
  -37.5420  -58.0020   10.8310   C 0  0  0  0  0  0  0  0  0  0  0  0
  -38.4660  -53.8950   12.7680   O 0  0  0  0  0  0  0  0  0  0  0  0
  -40.8580  -54.4480   11.5970   O 0  0  0  0  0  0  0  0  0  0  0  0
  -40.1510  -56.9180   10.2710   O 0  0  0  0  0  0  0  0  0  0  0  0
  -37.5360  -56.6420   12.8200   O 0  0  0  0  0  0  0  0  0  0  0  0
  -36.7440  -57.0440   10.1280   O 0  0  0  0  0  0  0  0  0  0  0  0
  -34.3970  -58.1030   18.5230   O 0  0  0  0  0  0  0  0  0  0  0  0
  1  2  1  0  0  0  0
  1 10  1  0  0  0  0
  1 23  1  0  0  0  0
  2  3  1  0  0  0  0
  2  7  1  0  0  0  0
  3  4  1  0  0  0  0
  3  8  1  0  0  0  0
  4  5  1  0  0  0  0
  4  9  1  0  0  0  0
  5  6  1  0  0  0  0
  5 10  1  0  0  0  0
  6 11  1  0  0  0  0
  9 12  1  0  0  0  0
 12 13  1  0  0  0  0
 12 21  1  0  0  0  0
 13 14  1  0  0  0  0
 13 18  1  0  0  0  0
 14 15  1  0  0  0  0
 14 19  1  0  0  0  0
 15 16  1  0  0  0  0
 15 20  1  0  0  0  0
 16 17  1  0  0  0  0
 16 21  1  0  0  0  0
 17 22  1  0  0  0  0
A    1
C1A
A    2
C2A
A    3
C3A
A    4
C4A
A    5
C5A
A    6
C6A
A    7
O2A
A    8
O3A
A    9
O4A
A   10
O5A
A   11
O6A
A   12
C1B
A   13
C2B
A   14
C3B
A   15
C4B
A   16
C5B
A   17
C6B
A   18
O2B
A   19
O3B
A   20
O4B
A   21
O5B
A   22
O6B
A   23
O1A
M  END
>  <InstanceId>
4PFU_MAB_A_602

>  <ChemCompId>
MAB

>  <PdbId>
4PFU

>  <ChainId>
A

>  <ResidueNumber>
602

>  <InsertionCode>


>  <Model>
1

>  <AltIds>


>  <MissingHeavyAtoms>
0

>  <ObservedFormula>
C12 O11

>  <Name>
MANNOBIOSE

>  <SystematicName>
(2R,3S,4R,5S,6R)-6-(hydroxymethyl)-5-[(2S,3S,4S,5S,6R)-3,4,5-trihydroxy-6-(hydroxymethyl)oxan-2-yl]oxy-oxane-2,3,4-triol

>  <Synonyms>


>  <Type>
SACCHARIDE

>  <Formula>
C12 H22 O11

>  <MolecularWeight>
342.296

>  <ModifiedDate>
2011-06-04

>  <Parent>


>  <OneLetterCode>


>  <SubcomponentList>


>  <AmbiguousFlag>
N

>  <InChI>
InChI=1S/C12H22O11/c13-1-3-5(15)6(16)9(19)12(22-3)23-10-4(2-14)21-11(20)8(18)7(10)17/h3-20H,1-2H2/t3-,4-,5-,6+,7-,8+,9+,10-,11-,12+/m1/s1

>  <InChIKey>
GUBGYTABKSRVRQ-PZPXDAEZSA-N

>  <SMILES>
C([C@@H]1[C@H]([C@@H]([C@@H]([C@@H](O1)O[C@@H]2[C@H](O[C@H]([C@H]([C@H]2O)O)O)CO)O)O)O)O

$$$$
