5N34_8JQ_E_412


 33 33  0  0  0  0  0  0  0  0999 V2000
    9.6478   38.1145   -5.9755 O   0  0  0  0  0  0  0  0  0  0  0  0
   10.8673   38.9076   -5.6006 P   0  0  0  0  0  0  0  0  0  0  0  0
   10.7068   40.3531   -6.0328 O   0  0  0  0  0  0  0  0  0  0  0  0
    9.5068   38.1718   -6.9335 H   0  0  0  0  0  0  0  0  0  0  0  0
   11.2258   38.8947   -3.9797 N   0  0  0  0  0  0  0  0  0  0  0  0
   11.5843   39.8228   -3.7550 H   0  0  0  0  0  0  0  0  0  0  0  0
   10.1955   38.5919   -2.9781 C   0  0  0  0  0  0  0  0  0  0  0  0
    8.9174   39.3711   -3.1922 C   0  0  0  0  0  0  0  0  0  0  0  0
    7.8739   38.8774   -3.5152 O   0  0  0  0  0  0  0  0  0  0  0  0
    9.0684   40.7332   -2.9532 N   0  0  0  0  0  0  0  0  0  0  0  0
    9.9615   41.0798   -2.7264 H   0  0  0  0  0  0  0  0  0  0  0  0
    7.9548   41.6610   -3.0267 C   0  0  0  0  0  0  0  0  0  0  0  0
    7.9057   42.1398   -4.4839 C   0  0  0  0  0  0  0  0  0  0  0  0
    9.1954   42.4966   -5.0356 N   0  0  0  0  0  0  0  0  0  0  0  0
    9.5851   43.2793   -4.5104 H   0  0  0  0  0  0  0  0  0  0  0  0
    9.0845   42.7648   -6.0134 H   0  0  0  0  0  0  0  0  0  0  0  0
   10.7500   38.8916   -1.5901 C   0  0  0  0  0  0  0  0  0  0  0  0
   10.3734   37.8561   -0.5396 C   0  0  0  0  0  0  0  0  0  0  0  0
    9.4029   38.4241    0.4872 C   0  0  0  0  0  0  0  0  0  0  0  0
    9.7967   36.6155   -1.2001 C   0  0  0  0  0  0  0  0  0  0  0  0
   12.3329   38.1734   -6.4018 C   0  0  0  0  0  0  0  0  0  0  0  0
   13.2333   37.9830   -8.7221 C   0  0  0  0  0  0  0  0  0  0  0  0
   12.2128   38.3156   -7.8327 N   0  0  0  0  0  0  0  0  0  0  0  0
   14.2633   37.4946   -8.4034 O   0  0  0  0  0  0  0  0  0  0  0  0
   11.3683   38.6647   -8.1990 H   0  0  0  0  0  0  0  0  0  0  0  0
   12.8131   38.2666  -10.0152 O   0  0  0  0  0  0  0  0  0  0  0  0
   13.8017   38.6232  -10.9455 C   0  0  0  0  0  0  0  0  0  0  0  0
   13.7538   37.6951  -12.1461 C   0  0  0  0  0  0  0  0  0  0  0  0
   13.3236   36.3774  -12.0076 C   0  0  0  0  0  0  0  0  0  0  0  0
   13.2897   35.5337  -13.0881 C   0  0  0  0  0  0  0  0  0  0  0  0
   13.6730   35.9490  -14.3486 C   0  0  0  0  0  0  0  0  0  0  0  0
   14.0707   37.2628  -14.5240 C   0  0  0  0  0  0  0  0  0  0  0  0
   14.1252   38.1393  -13.4338 C   0  0  0  0  0  0  0  0  0  0  0  0
 32 33  2  0  0  0
 32 31  1  0  0  0
 33 28  1  0  0  0
 31 30  2  0  0  0
 28 27  1  0  0  0
 28 29  2  0  0  0
 27 26  1  0  0  0
 30 29  1  0  0  0
 26 22  1  0  0  0
 24 22  2  0  0  0
 22 23  1  0  0  0
 23 21  1  0  0  0
 21  2  1  0  0  0
  3  2  2  0  0  0
  1  2  1  0  0  0
  2  5  1  0  0  0
  5  7  1  0  0  0
 12 10  1  0  0  0
 12 13  1  0  0  0
 10  8  1  0  0  0
  8  9  2  0  0  0
  8  7  1  0  0  0
  7 17  1  0  0  0
 13 14  1  0  0  0
 17 18  1  0  0  0
 19 18  1  0  0  0
 18 20  1  0  0  0
  1  4  1  0  0  0
  5  6  1  0  0  0
 23 25  1  0  0  0
 10 11  1  0  0  0
 14 15  1  0  0  0
 14 16  1  0  0  0
M  END
> <minimizedAffinity>
-9.08797

$$$$
5N34_8JQ_E_412


 33 33  0  0  0  0  0  0  0  0999 V2000
    9.7857   38.1302   -6.0503 O   0  0  0  0  0  0  0  0  0  0  0  0
   10.9659   38.9200   -5.5600 P   0  0  0  0  0  0  0  0  0  0  0  0
   10.8078   40.3833   -5.9284 O   0  0  0  0  0  0  0  0  0  0  0  0
    9.7036   38.2344   -7.0112 H   0  0  0  0  0  0  0  0  0  0  0  0
   11.2229   38.8292   -3.9225 N   0  0  0  0  0  0  0  0  0  0  0  0
   11.6477   39.7145   -3.6464 H   0  0  0  0  0  0  0  0  0  0  0  0
   10.1112   38.5922   -2.9928 C   0  0  0  0  0  0  0  0  0  0  0  0
    8.8875   39.4210   -3.3129 C   0  0  0  0  0  0  0  0  0  0  0  0
    7.8371   38.9628   -3.6645 O   0  0  0  0  0  0  0  0  0  0  0  0
    9.0972   40.7849   -3.1362 N   0  0  0  0  0  0  0  0  0  0  0  0
    9.9948   41.0986   -2.8810 H   0  0  0  0  0  0  0  0  0  0  0  0
    8.0384   41.7613   -3.3151 C   0  0  0  0  0  0  0  0  0  0  0  0
    8.0333   42.6105   -2.0369 C   0  0  0  0  0  0  0  0  0  0  0  0
    9.2768   42.5776   -1.2970 N   0  0  0  0  0  0  0  0  0  0  0  0
    9.4608   41.6245   -0.9836 H   0  0  0  0  0  0  0  0  0  0  0  0
    9.2072   43.1942   -0.4875 H   0  0  0  0  0  0  0  0  0  0  0  0
   10.5777   38.8973   -1.5740 C   0  0  0  0  0  0  0  0  0  0  0  0
   10.2307   37.8115   -0.5647 C   0  0  0  0  0  0  0  0  0  0  0  0
    9.3155   38.3365    0.5335 C   0  0  0  0  0  0  0  0  0  0  0  0
    9.6053   36.6169   -1.2644 C   0  0  0  0  0  0  0  0  0  0  0  0
   12.4907   38.2481   -6.3032 C   0  0  0  0  0  0  0  0  0  0  0  0
   12.8478   39.5134   -8.4250 C   0  0  0  0  0  0  0  0  0  0  0  0
   12.4172   38.3794   -7.7382 N   0  0  0  0  0  0  0  0  0  0  0  0
   13.3715   40.4440   -7.9144 O   0  0  0  0  0  0  0  0  0  0  0  0
   12.0445   37.6310   -8.2581 H   0  0  0  0  0  0  0  0  0  0  0  0
   12.6107   39.3346   -9.7818 O   0  0  0  0  0  0  0  0  0  0  0  0
   13.7286   39.3213  -10.6304 C   0  0  0  0  0  0  0  0  0  0  0  0
   13.6442   38.1507  -11.5936 C   0  0  0  0  0  0  0  0  0  0  0  0
   14.0446   38.2931  -12.9202 C   0  0  0  0  0  0  0  0  0  0  0  0
   13.9592   37.2407  -13.7952 C   0  0  0  0  0  0  0  0  0  0  0  0
   13.4809   36.0053  -13.4039 C   0  0  0  0  0  0  0  0  0  0  0  0
   13.1095   35.8235  -12.0832 C   0  0  0  0  0  0  0  0  0  0  0  0
   13.1763   36.8863  -11.1745 C   0  0  0  0  0  0  0  0  0  0  0  0
 32 33  2  0  0  0
 32 31  1  0  0  0
 33 28  1  0  0  0
 31 30  2  0  0  0
 28 27  1  0  0  0
 28 29  2  0  0  0
 27 26  1  0  0  0
 30 29  1  0  0  0
 26 22  1  0  0  0
 24 22  2  0  0  0
 22 23  1  0  0  0
 23 21  1  0  0  0
 21  2  1  0  0  0
  3  2  2  0  0  0
  1  2  1  0  0  0
  2  5  1  0  0  0
  5  7  1  0  0  0
 12 10  1  0  0  0
 12 13  1  0  0  0
 10  8  1  0  0  0
  8  9  2  0  0  0
  8  7  1  0  0  0
  7 17  1  0  0  0
 13 14  1  0  0  0
 17 18  1  0  0  0
 19 18  1  0  0  0
 18 20  1  0  0  0
  1  4  1  0  0  0
  5  6  1  0  0  0
 23 25  1  0  0  0
 10 11  1  0  0  0
 14 15  1  0  0  0
 14 16  1  0  0  0
M  END
> <minimizedAffinity>
-8.58017

$$$$
5N34_8JQ_E_412


 33 33  0  0  0  0  0  0  0  0999 V2000
   10.5916   38.2824   -7.5855 O   0  0  0  0  0  0  0  0  0  0  0  0
   11.7583   38.9389   -6.9038 P   0  0  0  0  0  0  0  0  0  0  0  0
   12.3108   38.0325   -5.8198 O   0  0  0  0  0  0  0  0  0  0  0  0
    9.9074   38.0771   -6.9292 H   0  0  0  0  0  0  0  0  0  0  0  0
   13.0085   39.3455   -7.9175 N   0  0  0  0  0  0  0  0  0  0  0  0
   13.8639   39.0197   -7.4675 H   0  0  0  0  0  0  0  0  0  0  0  0
   13.0523   38.8556   -9.3011 C   0  0  0  0  0  0  0  0  0  0  0  0
   13.9060   37.6178   -9.4619 C   0  0  0  0  0  0  0  0  0  0  0  0
   14.4725   37.0687   -8.5594 O   0  0  0  0  0  0  0  0  0  0  0  0
   13.9525   37.1602  -10.7748 N   0  0  0  0  0  0  0  0  0  0  0  0
   13.4945   37.6787  -11.4753 H   0  0  0  0  0  0  0  0  0  0  0  0
   14.6530   35.9450  -11.1476 C   0  0  0  0  0  0  0  0  0  0  0  0
   14.0642   35.5219  -12.5001 C   0  0  0  0  0  0  0  0  0  0  0  0
   12.9636   34.5871  -12.4024 N   0  0  0  0  0  0  0  0  0  0  0  0
   13.2893   33.7223  -11.9707 H   0  0  0  0  0  0  0  0  0  0  0  0
   12.6037   34.3868  -13.3355 H   0  0  0  0  0  0  0  0  0  0  0  0
   13.5843   39.9636  -10.2028 C   0  0  0  0  0  0  0  0  0  0  0  0
   13.6744   41.3222   -9.5217 C   0  0  0  0  0  0  0  0  0  0  0  0
   15.1011   41.8544   -9.5153 C   0  0  0  0  0  0  0  0  0  0  0  0
   12.7312   42.3116  -10.1844 C   0  0  0  0  0  0  0  0  0  0  0  0
   11.2186   40.5243   -6.1799 C   0  0  0  0  0  0  0  0  0  0  0  0
    9.2512   41.2374   -4.8190 C   0  0  0  0  0  0  0  0  0  0  0  0
   10.1799   40.2742   -5.2100 N   0  0  0  0  0  0  0  0  0  0  0  0
    9.1796   42.3230   -5.2851 O   0  0  0  0  0  0  0  0  0  0  0  0
   10.1243   39.3789   -4.8043 H   0  0  0  0  0  0  0  0  0  0  0  0
    8.4148   40.6903   -3.8546 O   0  0  0  0  0  0  0  0  0  0  0  0
    8.4759   39.3004   -3.6686 C   0  0  0  0  0  0  0  0  0  0  0  0
    8.9734   38.9780   -2.2709 C   0  0  0  0  0  0  0  0  0  0  0  0
    8.9706   37.6664   -1.8017 C   0  0  0  0  0  0  0  0  0  0  0  0
    9.4092   37.3736   -0.5358 C   0  0  0  0  0  0  0  0  0  0  0  0
    9.8713   38.3547    0.3199 C   0  0  0  0  0  0  0  0  0  0  0  0
    9.9198   39.6621   -0.1312 C   0  0  0  0  0  0  0  0  0  0  0  0
    9.4661   39.9871   -1.4151 C   0  0  0  0  0  0  0  0  0  0  0  0
 32 33  2  0  0  0
 32 31  1  0  0  0
 33 28  1  0  0  0
 31 30  2  0  0  0
 28 27  1  0  0  0
 28 29  2  0  0  0
 27 26  1  0  0  0
 30 29  1  0  0  0
 26 22  1  0  0  0
 24 22  2  0  0  0
 22 23  1  0  0  0
 23 21  1  0  0  0
 21  2  1  0  0  0
  3  2  2  0  0  0
  1  2  1  0  0  0
  2  5  1  0  0  0
  5  7  1  0  0  0
 12 10  1  0  0  0
 12 13  1  0  0  0
 10  8  1  0  0  0
  8  9  2  0  0  0
  8  7  1  0  0  0
  7 17  1  0  0  0
 13 14  1  0  0  0
 17 18  1  0  0  0
 19 18  1  0  0  0
 18 20  1  0  0  0
  1  4  1  0  0  0
  5  6  1  0  0  0
 23 25  1  0  0  0
 10 11  1  0  0  0
 14 15  1  0  0  0
 14 16  1  0  0  0
M  END
> <minimizedAffinity>
-7.98890

$$$$
5N34_8JQ_E_412


 33 33  0  0  0  0  0  0  0  0999 V2000
   12.3117   40.8004   -5.8662 O   0  0  0  0  0  0  0  0  0  0  0  0
   12.2035   39.9307   -7.0863 P   0  0  0  0  0  0  0  0  0  0  0  0
   11.0072   40.3455   -7.9222 O   0  0  0  0  0  0  0  0  0  0  0  0
   11.4936   40.7351   -5.3491 H   0  0  0  0  0  0  0  0  0  0  0  0
   13.5436   39.9490   -8.0660 N   0  0  0  0  0  0  0  0  0  0  0  0
   14.1889   39.2559   -7.6871 H   0  0  0  0  0  0  0  0  0  0  0  0
   13.4345   39.6747   -9.5045 C   0  0  0  0  0  0  0  0  0  0  0  0
   13.9755   38.3158   -9.8887 C   0  0  0  0  0  0  0  0  0  0  0  0
   14.3668   37.5000   -9.1024 O   0  0  0  0  0  0  0  0  0  0  0  0
   13.9543   38.0942  -11.2619 N   0  0  0  0  0  0  0  0  0  0  0  0
   13.6547   38.8199  -11.8558 H   0  0  0  0  0  0  0  0  0  0  0  0
   14.3587   36.8301  -11.8492 C   0  0  0  0  0  0  0  0  0  0  0  0
   13.0957   35.9588  -11.8752 C   0  0  0  0  0  0  0  0  0  0  0  0
   13.2723   34.6761  -12.5220 N   0  0  0  0  0  0  0  0  0  0  0  0
   13.5175   34.8202  -13.5015 H   0  0  0  0  0  0  0  0  0  0  0  0
   12.4044   34.1435  -12.4635 H   0  0  0  0  0  0  0  0  0  0  0  0
   14.1816   40.7580  -10.2739 C   0  0  0  0  0  0  0  0  0  0  0  0
   15.5840   41.0311   -9.7480 C   0  0  0  0  0  0  0  0  0  0  0  0
   16.6435   40.7715  -10.8105 C   0  0  0  0  0  0  0  0  0  0  0  0
   15.6851   42.4518   -9.2195 C   0  0  0  0  0  0  0  0  0  0  0  0
   12.0339   38.1887   -6.5710 C   0  0  0  0  0  0  0  0  0  0  0  0
   10.4431   38.1923   -4.6475 C   0  0  0  0  0  0  0  0  0  0  0  0
   11.7384   38.1378   -5.1596 N   0  0  0  0  0  0  0  0  0  0  0  0
    9.4636   38.2186   -5.3116 O   0  0  0  0  0  0  0  0  0  0  0  0
   12.4887   38.0606   -4.5270 H   0  0  0  0  0  0  0  0  0  0  0  0
   10.5058   38.1535   -3.2605 O   0  0  0  0  0  0  0  0  0  0  0  0
    9.8315   37.1030   -2.6188 C   0  0  0  0  0  0  0  0  0  0  0  0
    9.5083   37.4834   -1.1849 C   0  0  0  0  0  0  0  0  0  0  0  0
   10.2858   38.4193   -0.5066 C   0  0  0  0  0  0  0  0  0  0  0  0
   10.0028   38.7568    0.7920 C   0  0  0  0  0  0  0  0  0  0  0  0
    8.9441   38.1926    1.4769 C   0  0  0  0  0  0  0  0  0  0  0  0
    8.1322   37.2866    0.8174 C   0  0  0  0  0  0  0  0  0  0  0  0
    8.4084   36.9173   -0.5044 C   0  0  0  0  0  0  0  0  0  0  0  0
 32 33  2  0  0  0
 32 31  1  0  0  0
 33 28  1  0  0  0
 31 30  2  0  0  0
 28 27  1  0  0  0
 28 29  2  0  0  0
 27 26  1  0  0  0
 30 29  1  0  0  0
 26 22  1  0  0  0
 24 22  2  0  0  0
 22 23  1  0  0  0
 23 21  1  0  0  0
 21  2  1  0  0  0
  3  2  2  0  0  0
  1  2  1  0  0  0
  2  5  1  0  0  0
  5  7  1  0  0  0
 12 10  1  0  0  0
 12 13  1  0  0  0
 10  8  1  0  0  0
  8  9  2  0  0  0
  8  7  1  0  0  0
  7 17  1  0  0  0
 13 14  1  0  0  0
 17 18  1  0  0  0
 19 18  1  0  0  0
 18 20  1  0  0  0
  1  4  1  0  0  0
  5  6  1  0  0  0
 23 25  1  0  0  0
 10 11  1  0  0  0
 14 15  1  0  0  0
 14 16  1  0  0  0
M  END
> <minimizedAffinity>
-7.88572

$$$$
5N34_8JQ_E_412


 33 33  0  0  0  0  0  0  0  0999 V2000
    9.8222   38.2435   -6.2477 O   0  0  0  0  0  0  0  0  0  0  0  0
   10.9881   38.9997   -5.6769 P   0  0  0  0  0  0  0  0  0  0  0  0
   10.8632   40.4773   -5.9980 O   0  0  0  0  0  0  0  0  0  0  0  0
    9.7844   38.3834   -7.2068 H   0  0  0  0  0  0  0  0  0  0  0  0
   11.1706   38.8465   -4.0340 N   0  0  0  0  0  0  0  0  0  0  0  0
   11.5037   39.7487   -3.6942 H   0  0  0  0  0  0  0  0  0  0  0  0
   10.0387   38.4703   -3.1776 C   0  0  0  0  0  0  0  0  0  0  0  0
    8.8722   39.4264   -3.2877 C   0  0  0  0  0  0  0  0  0  0  0  0
    7.8061   39.1370   -3.7531 O   0  0  0  0  0  0  0  0  0  0  0  0
    9.1549   40.6859   -2.7690 N   0  0  0  0  0  0  0  0  0  0  0  0
   10.0626   40.8694   -2.4347 H   0  0  0  0  0  0  0  0  0  0  0  0
    8.1581   41.7387   -2.7037 C   0  0  0  0  0  0  0  0  0  0  0  0
    8.3862   42.6074   -3.9479 C   0  0  0  0  0  0  0  0  0  0  0  0
    7.6416   42.1821   -5.1139 N   0  0  0  0  0  0  0  0  0  0  0  0
    7.9396   41.2449   -5.3844 H   0  0  0  0  0  0  0  0  0  0  0  0
    7.8152   42.8293   -5.8829 H   0  0  0  0  0  0  0  0  0  0  0  0
   10.5119   38.4067   -1.7299 C   0  0  0  0  0  0  0  0  0  0  0  0
    9.4437   37.9354   -0.7528 C   0  0  0  0  0  0  0  0  0  0  0  0
    9.3536   36.4159   -0.7080 C   0  0  0  0  0  0  0  0  0  0  0  0
    9.7041   38.5026    0.6322 C   0  0  0  0  0  0  0  0  0  0  0  0
   12.5370   38.3356   -6.3760 C   0  0  0  0  0  0  0  0  0  0  0  0
   13.4626   37.8981   -8.6525 C   0  0  0  0  0  0  0  0  0  0  0  0
   12.4982   38.4540   -7.8135 N   0  0  0  0  0  0  0  0  0  0  0  0
   14.3626   37.2253   -8.2806 O   0  0  0  0  0  0  0  0  0  0  0  0
   11.7538   38.9522   -8.2220 H   0  0  0  0  0  0  0  0  0  0  0  0
   13.1532   38.2189   -9.9679 O   0  0  0  0  0  0  0  0  0  0  0  0
   14.1627   38.8226  -10.7337 C   0  0  0  0  0  0  0  0  0  0  0  0
   14.3680   40.2611  -10.2935 C   0  0  0  0  0  0  0  0  0  0  0  0
   13.2966   41.1505  -10.2529 C   0  0  0  0  0  0  0  0  0  0  0  0
   13.4810   42.4531   -9.8661 C   0  0  0  0  0  0  0  0  0  0  0  0
   14.7228   42.9353   -9.5003 C   0  0  0  0  0  0  0  0  0  0  0  0
   15.7993   42.0658   -9.4961 C   0  0  0  0  0  0  0  0  0  0  0  0
   15.6381   40.7347   -9.8987 C   0  0  0  0  0  0  0  0  0  0  0  0
 32 33  2  0  0  0
 32 31  1  0  0  0
 33 28  1  0  0  0
 31 30  2  0  0  0
 28 27  1  0  0  0
 28 29  2  0  0  0
 27 26  1  0  0  0
 30 29  1  0  0  0
 26 22  1  0  0  0
 24 22  2  0  0  0
 22 23  1  0  0  0
 23 21  1  0  0  0
 21  2  1  0  0  0
  3  2  2  0  0  0
  1  2  1  0  0  0
  2  5  1  0  0  0
  5  7  1  0  0  0
 12 10  1  0  0  0
 12 13  1  0  0  0
 10  8  1  0  0  0
  8  9  2  0  0  0
  8  7  1  0  0  0
  7 17  1  0  0  0
 13 14  1  0  0  0
 17 18  1  0  0  0
 19 18  1  0  0  0
 18 20  1  0  0  0
  1  4  1  0  0  0
  5  6  1  0  0  0
 23 25  1  0  0  0
 10 11  1  0  0  0
 14 15  1  0  0  0
 14 16  1  0  0  0
M  END
> <minimizedAffinity>
-7.86068

$$$$
5N34_8JQ_E_412


 33 33  0  0  0  0  0  0  0  0999 V2000
   13.1431   41.5010   -5.8077 O   0  0  0  0  0  0  0  0  0  0  0  0
   12.6249   41.5709   -7.2160 P   0  0  0  0  0  0  0  0  0  0  0  0
   12.1635   42.9804   -7.5362 O   0  0  0  0  0  0  0  0  0  0  0  0
   12.4472   41.7813   -5.1928 H   0  0  0  0  0  0  0  0  0  0  0  0
   13.7208   41.1150   -8.3766 N   0  0  0  0  0  0  0  0  0  0  0  0
   13.7198   40.0951   -8.3913 H   0  0  0  0  0  0  0  0  0  0  0  0
   13.5744   41.5524   -9.7707 C   0  0  0  0  0  0  0  0  0  0  0  0
   13.7184   40.4200  -10.7625 C   0  0  0  0  0  0  0  0  0  0  0  0
   14.1222   40.5538  -11.8832 O   0  0  0  0  0  0  0  0  0  0  0  0
   13.3515   39.1873  -10.2324 N   0  0  0  0  0  0  0  0  0  0  0  0
   12.9930   39.1517   -9.3162 H   0  0  0  0  0  0  0  0  0  0  0  0
   13.4788   37.9519  -10.9833 C   0  0  0  0  0  0  0  0  0  0  0  0
   14.0914   36.9340  -10.0119 C   0  0  0  0  0  0  0  0  0  0  0  0
   14.5178   37.4998   -8.7498 N   0  0  0  0  0  0  0  0  0  0  0  0
   15.2536   38.1864   -8.9162 H   0  0  0  0  0  0  0  0  0  0  0  0
   14.8750   36.7578   -8.1479 H   0  0  0  0  0  0  0  0  0  0  0  0
   14.6163   42.6253  -10.0659 C   0  0  0  0  0  0  0  0  0  0  0  0
   15.9195   42.4457   -9.2996 C   0  0  0  0  0  0  0  0  0  0  0  0
   17.0999   42.2372  -10.2390 C   0  0  0  0  0  0  0  0  0  0  0  0
   16.1625   43.6309   -8.3809 C   0  0  0  0  0  0  0  0  0  0  0  0
   11.2389   40.3998   -7.4065 C   0  0  0  0  0  0  0  0  0  0  0  0
   11.4652   38.4114   -5.9145 C   0  0  0  0  0  0  0  0  0  0  0  0
   11.0239   39.7113   -6.1568 N   0  0  0  0  0  0  0  0  0  0  0  0
   12.1101   37.7732   -6.6746 O   0  0  0  0  0  0  0  0  0  0  0  0
   10.5417   40.1830   -5.4397 H   0  0  0  0  0  0  0  0  0  0  0  0
   11.0724   38.0339   -4.6369 O   0  0  0  0  0  0  0  0  0  0  0  0
    9.8142   38.4750   -4.1979 C   0  0  0  0  0  0  0  0  0  0  0  0
    9.6867   38.2908   -2.6963 C   0  0  0  0  0  0  0  0  0  0  0  0
    9.8511   39.3711   -1.8324 C   0  0  0  0  0  0  0  0  0  0  0  0
    9.7473   39.2056   -0.4751 C   0  0  0  0  0  0  0  0  0  0  0  0
    9.4746   37.9748    0.0897 C   0  0  0  0  0  0  0  0  0  0  0  0
    9.2705   36.8902   -0.7452 C   0  0  0  0  0  0  0  0  0  0  0  0
    9.3835   37.0320   -2.1333 C   0  0  0  0  0  0  0  0  0  0  0  0
 32 33  2  0  0  0
 32 31  1  0  0  0
 33 28  1  0  0  0
 31 30  2  0  0  0
 28 27  1  0  0  0
 28 29  2  0  0  0
 27 26  1  0  0  0
 30 29  1  0  0  0
 26 22  1  0  0  0
 24 22  2  0  0  0
 22 23  1  0  0  0
 23 21  1  0  0  0
 21  2  1  0  0  0
  3  2  2  0  0  0
  1  2  1  0  0  0
  2  5  1  0  0  0
  5  7  1  0  0  0
 12 10  1  0  0  0
 12 13  1  0  0  0
 10  8  1  0  0  0
  8  9  2  0  0  0
  8  7  1  0  0  0
  7 17  1  0  0  0
 13 14  1  0  0  0
 17 18  1  0  0  0
 19 18  1  0  0  0
 18 20  1  0  0  0
  1  4  1  0  0  0
  5  6  1  0  0  0
 23 25  1  0  0  0
 10 11  1  0  0  0
 14 15  1  0  0  0
 14 16  1  0  0  0
M  END
> <minimizedAffinity>
-7.78627

$$$$
5N34_8JQ_E_412


 33 33  0  0  0  0  0  0  0  0999 V2000
   12.4371   37.5616   -9.6162 O   0  0  0  0  0  0  0  0  0  0  0  0
   13.5320   38.1535   -8.7749 P   0  0  0  0  0  0  0  0  0  0  0  0
   14.2864   37.0563   -8.0476 O   0  0  0  0  0  0  0  0  0  0  0  0
   11.8368   37.0494   -9.0521 H   0  0  0  0  0  0  0  0  0  0  0  0
   14.6361   39.0603   -9.6201 N   0  0  0  0  0  0  0  0  0  0  0  0
   15.4566   38.4688   -9.7519 H   0  0  0  0  0  0  0  0  0  0  0  0
   14.3082   39.6184  -10.9382 C   0  0  0  0  0  0  0  0  0  0  0  0
   14.6790   38.6965  -12.0781 C   0  0  0  0  0  0  0  0  0  0  0  0
   15.1897   39.0605  -13.0996 O   0  0  0  0  0  0  0  0  0  0  0  0
   14.3846   37.3631  -11.8123 N   0  0  0  0  0  0  0  0  0  0  0  0
   13.9313   37.1355  -10.9685 H   0  0  0  0  0  0  0  0  0  0  0  0
   14.7225   36.2959  -12.7360 C   0  0  0  0  0  0  0  0  0  0  0  0
   13.3852   35.6825  -13.1725 C   0  0  0  0  0  0  0  0  0  0  0  0
   13.0177   34.4836  -12.4498 N   0  0  0  0  0  0  0  0  0  0  0  0
   13.7131   33.7571  -12.6204 H   0  0  0  0  0  0  0  0  0  0  0  0
   12.1040   34.1611  -12.7683 H   0  0  0  0  0  0  0  0  0  0  0  0
   15.0280   40.9518  -11.1051 C   0  0  0  0  0  0  0  0  0  0  0  0
   16.1579   41.1708  -10.1085 C   0  0  0  0  0  0  0  0  0  0  0  0
   17.5234   41.0604  -10.7735 C   0  0  0  0  0  0  0  0  0  0  0  0
   16.0012   42.5135   -9.4153 C   0  0  0  0  0  0  0  0  0  0  0  0
   12.8050   39.3171   -7.5723 C   0  0  0  0  0  0  0  0  0  0  0  0
   11.2495   39.1034   -5.6317 C   0  0  0  0  0  0  0  0  0  0  0  0
   12.2108   38.5711   -6.4895 N   0  0  0  0  0  0  0  0  0  0  0  0
   10.7808   40.1845   -5.7437 O   0  0  0  0  0  0  0  0  0  0  0  0
   12.4985   37.6400   -6.3495 H   0  0  0  0  0  0  0  0  0  0  0  0
   10.9102   38.1444   -4.6860 O   0  0  0  0  0  0  0  0  0  0  0  0
    9.5904   38.1557   -4.2085 C   0  0  0  0  0  0  0  0  0  0  0  0
    9.5799   38.1345   -2.6904 C   0  0  0  0  0  0  0  0  0  0  0  0
    9.3392   36.9494   -1.9990 C   0  0  0  0  0  0  0  0  0  0  0  0
    9.3183   36.9293   -0.6281 C   0  0  0  0  0  0  0  0  0  0  0  0
    9.5359   38.0699    0.1204 C   0  0  0  0  0  0  0  0  0  0  0  0
    9.8134   39.2549   -0.5383 C   0  0  0  0  0  0  0  0  0  0  0  0
    9.8281   39.3027   -1.9373 C   0  0  0  0  0  0  0  0  0  0  0  0
 32 33  2  0  0  0
 32 31  1  0  0  0
 33 28  1  0  0  0
 31 30  2  0  0  0
 28 27  1  0  0  0
 28 29  2  0  0  0
 27 26  1  0  0  0
 30 29  1  0  0  0
 26 22  1  0  0  0
 24 22  2  0  0  0
 22 23  1  0  0  0
 23 21  1  0  0  0
 21  2  1  0  0  0
  3  2  2  0  0  0
  1  2  1  0  0  0
  2  5  1  0  0  0
  5  7  1  0  0  0
 12 10  1  0  0  0
 12 13  1  0  0  0
 10  8  1  0  0  0
  8  9  2  0  0  0
  8  7  1  0  0  0
  7 17  1  0  0  0
 13 14  1  0  0  0
 17 18  1  0  0  0
 19 18  1  0  0  0
 18 20  1  0  0  0
  1  4  1  0  0  0
  5  6  1  0  0  0
 23 25  1  0  0  0
 10 11  1  0  0  0
 14 15  1  0  0  0
 14 16  1  0  0  0
M  END
> <minimizedAffinity>
-7.74353

$$$$
5N34_8JQ_E_412


 33 33  0  0  0  0  0  0  0  0999 V2000
   10.5700   40.4908   -7.5202 O   0  0  0  0  0  0  0  0  0  0  0  0
   11.5464   40.0862   -6.4526 P   0  0  0  0  0  0  0  0  0  0  0  0
   12.6313   41.1369   -6.3080 O   0  0  0  0  0  0  0  0  0  0  0  0
   11.0410   40.6143   -8.3591 H   0  0  0  0  0  0  0  0  0  0  0  0
   10.8691   39.8405   -4.9571 N   0  0  0  0  0  0  0  0  0  0  0  0
   11.3752   40.4424   -4.3075 H   0  0  0  0  0  0  0  0  0  0  0  0
    9.4398   40.0832   -4.7233 C   0  0  0  0  0  0  0  0  0  0  0  0
    9.0960   41.5537   -4.6457 C   0  0  0  0  0  0  0  0  0  0  0  0
    9.2676   42.3334   -5.5399 O   0  0  0  0  0  0  0  0  0  0  0  0
    8.5334   41.9135   -3.4253 N   0  0  0  0  0  0  0  0  0  0  0  0
    8.4538   41.2320   -2.7194 H   0  0  0  0  0  0  0  0  0  0  0  0
    8.0599   43.2589   -3.1569 C   0  0  0  0  0  0  0  0  0  0  0  0
    8.4126   43.5408   -1.6902 C   0  0  0  0  0  0  0  0  0  0  0  0
    9.3817   42.6256   -1.1260 N   0  0  0  0  0  0  0  0  0  0  0  0
    8.9997   41.6799   -1.1317 H   0  0  0  0  0  0  0  0  0  0  0  0
    9.5917   42.9017   -0.1667 H   0  0  0  0  0  0  0  0  0  0  0  0
    9.0248   39.3927   -3.4292 C   0  0  0  0  0  0  0  0  0  0  0  0
   10.1030   38.4961   -2.8362 C   0  0  0  0  0  0  0  0  0  0  0  0
   10.7818   39.1491   -1.6397 C   0  0  0  0  0  0  0  0  0  0  0  0
    9.5203   37.1454   -2.4567 C   0  0  0  0  0  0  0  0  0  0  0  0
   12.2869   38.4777   -6.8923 C   0  0  0  0  0  0  0  0  0  0  0  0
   13.4564   37.8520   -9.0069 C   0  0  0  0  0  0  0  0  0  0  0  0
   12.3498   38.3608   -8.3291 N   0  0  0  0  0  0  0  0  0  0  0  0
   14.4175   37.4085   -8.4770 O   0  0  0  0  0  0  0  0  0  0  0  0
   11.5725   38.6550   -8.8569 H   0  0  0  0  0  0  0  0  0  0  0  0
   13.2108   37.9053  -10.3729 O   0  0  0  0  0  0  0  0  0  0  0  0
   13.1681   36.6840  -11.0633 C   0  0  0  0  0  0  0  0  0  0  0  0
   13.5584   36.8871  -12.5164 C   0  0  0  0  0  0  0  0  0  0  0  0
   13.4594   35.8408  -13.4307 C   0  0  0  0  0  0  0  0  0  0  0  0
   13.8215   36.0183  -14.7413 C   0  0  0  0  0  0  0  0  0  0  0  0
   14.2922   37.2298  -15.2091 C   0  0  0  0  0  0  0  0  0  0  0  0
   14.3674   38.2978  -14.3322 C   0  0  0  0  0  0  0  0  0  0  0  0
   14.0150   38.1376  -12.9869 C   0  0  0  0  0  0  0  0  0  0  0  0
 32 33  2  0  0  0
 32 31  1  0  0  0
 33 28  1  0  0  0
 31 30  2  0  0  0
 28 27  1  0  0  0
 28 29  2  0  0  0
 27 26  1  0  0  0
 30 29  1  0  0  0
 26 22  1  0  0  0
 24 22  2  0  0  0
 22 23  1  0  0  0
 23 21  1  0  0  0
 21  2  1  0  0  0
  3  2  2  0  0  0
  1  2  1  0  0  0
  2  5  1  0  0  0
  5  7  1  0  0  0
 12 10  1  0  0  0
 12 13  1  0  0  0
 10  8  1  0  0  0
  8  9  2  0  0  0
  8  7  1  0  0  0
  7 17  1  0  0  0
 13 14  1  0  0  0
 17 18  1  0  0  0
 19 18  1  0  0  0
 18 20  1  0  0  0
  1  4  1  0  0  0
  5  6  1  0  0  0
 23 25  1  0  0  0
 10 11  1  0  0  0
 14 15  1  0  0  0
 14 16  1  0  0  0
M  END
> <minimizedAffinity>
-7.42681

$$$$
5N34_8JQ_E_412


 33 33  0  0  0  0  0  0  0  0999 V2000
   13.3555   42.5342   -6.9331 O   0  0  0  0  0  0  0  0  0  0  0  0
   12.4268   41.6278   -7.6900 P   0  0  0  0  0  0  0  0  0  0  0  0
   11.0389   42.2368   -7.7580 O   0  0  0  0  0  0  0  0  0  0  0  0
   13.0042   42.6859   -6.0418 H   0  0  0  0  0  0  0  0  0  0  0  0
   12.9116   41.2839   -9.2400 N   0  0  0  0  0  0  0  0  0  0  0  0
   13.1891   42.1709   -9.6602 H   0  0  0  0  0  0  0  0  0  0  0  0
   14.0051   40.3390   -9.5000 C   0  0  0  0  0  0  0  0  0  0  0  0
   15.2796   41.0198   -9.9461 C   0  0  0  0  0  0  0  0  0  0  0  0
   15.9477   40.6573  -10.8730 O   0  0  0  0  0  0  0  0  0  0  0  0
   15.5934   42.1362   -9.1777 N   0  0  0  0  0  0  0  0  0  0  0  0
   15.0223   42.3586   -8.4072 H   0  0  0  0  0  0  0  0  0  0  0  0
   16.7334   42.9845   -9.4727 C   0  0  0  0  0  0  0  0  0  0  0  0
   16.6265   44.1767   -8.5124 C   0  0  0  0  0  0  0  0  0  0  0  0
   15.7468   43.9539   -7.3848 N   0  0  0  0  0  0  0  0  0  0  0  0
   14.7968   43.7956   -7.7208 H   0  0  0  0  0  0  0  0  0  0  0  0
   15.7602   44.7723   -6.7762 H   0  0  0  0  0  0  0  0  0  0  0  0
   13.5580   39.3440  -10.5649 C   0  0  0  0  0  0  0  0  0  0  0  0
   14.0295   37.9185  -10.3127 C   0  0  0  0  0  0  0  0  0  0  0  0
   14.0721   37.5953   -8.8252 C   0  0  0  0  0  0  0  0  0  0  0  0
   13.1485   36.9290  -11.0560 C   0  0  0  0  0  0  0  0  0  0  0  0
   12.3588   40.0052   -6.8584 C   0  0  0  0  0  0  0  0  0  0  0  0
   10.8645   38.8851   -5.2021 C   0  0  0  0  0  0  0  0  0  0  0  0
   11.3202   40.0281   -5.8570 N   0  0  0  0  0  0  0  0  0  0  0  0
   11.3226   37.8038   -5.3505 O   0  0  0  0  0  0  0  0  0  0  0  0
   10.9133   40.8939   -5.6247 H   0  0  0  0  0  0  0  0  0  0  0  0
    9.8458   39.2432   -4.3286 O   0  0  0  0  0  0  0  0  0  0  0  0
    9.1219   38.2012   -3.7284 C   0  0  0  0  0  0  0  0  0  0  0  0
    9.2359   38.2840   -2.2167 C   0  0  0  0  0  0  0  0  0  0  0  0
    9.7195   39.4377   -1.6037 C   0  0  0  0  0  0  0  0  0  0  0  0
    9.8338   39.5114   -0.2392 C   0  0  0  0  0  0  0  0  0  0  0  0
    9.4753   38.4581    0.5796 C   0  0  0  0  0  0  0  0  0  0  0  0
    8.9577   37.3123    0.0014 C   0  0  0  0  0  0  0  0  0  0  0  0
    8.8430   37.2090   -1.3900 C   0  0  0  0  0  0  0  0  0  0  0  0
 32 33  2  0  0  0
 32 31  1  0  0  0
 33 28  1  0  0  0
 31 30  2  0  0  0
 28 27  1  0  0  0
 28 29  2  0  0  0
 27 26  1  0  0  0
 30 29  1  0  0  0
 26 22  1  0  0  0
 24 22  2  0  0  0
 22 23  1  0  0  0
 23 21  1  0  0  0
 21  2  1  0  0  0
  3  2  2  0  0  0
  1  2  1  0  0  0
  2  5  1  0  0  0
  5  7  1  0  0  0
 12 10  1  0  0  0
 12 13  1  0  0  0
 10  8  1  0  0  0
  8  9  2  0  0  0
  8  7  1  0  0  0
  7 17  1  0  0  0
 13 14  1  0  0  0
 17 18  1  0  0  0
 19 18  1  0  0  0
 18 20  1  0  0  0
  1  4  1  0  0  0
  5  6  1  0  0  0
 23 25  1  0  0  0
 10 11  1  0  0  0
 14 15  1  0  0  0
 14 16  1  0  0  0
M  END
> <minimizedAffinity>
-7.39288

$$$$
5N34_8JQ_E_412


 33 33  0  0  0  0  0  0  0  0999 V2000
   13.2126   42.5098   -7.0802 O   0  0  0  0  0  0  0  0  0  0  0  0
   12.3394   41.5162   -7.7923 P   0  0  0  0  0  0  0  0  0  0  0  0
   10.9234   42.0490   -7.9068 O   0  0  0  0  0  0  0  0  0  0  0  0
   12.8439   42.6933   -6.2020 H   0  0  0  0  0  0  0  0  0  0  0  0
   12.8585   41.1108   -9.3161 N   0  0  0  0  0  0  0  0  0  0  0  0
   13.0257   41.9885   -9.8082 H   0  0  0  0  0  0  0  0  0  0  0  0
   14.0578   40.2867   -9.5140 C   0  0  0  0  0  0  0  0  0  0  0  0
   15.2982   41.1067   -9.7891 C   0  0  0  0  0  0  0  0  0  0  0  0
   15.4390   42.2484   -9.4524 O   0  0  0  0  0  0  0  0  0  0  0  0
   16.2820   40.3892  -10.4620 N   0  0  0  0  0  0  0  0  0  0  0  0
   16.0886   39.4656  -10.7424 H   0  0  0  0  0  0  0  0  0  0  0  0
   17.5836   40.9554  -10.7648 C   0  0  0  0  0  0  0  0  0  0  0  0
   17.9771   40.3879  -12.1352 C   0  0  0  0  0  0  0  0  0  0  0  0
   17.0978   39.3462  -12.6215 N   0  0  0  0  0  0  0  0  0  0  0  0
   17.1285   38.5504  -11.9842 H   0  0  0  0  0  0  0  0  0  0  0  0
   17.4013   39.0507  -13.5493 H   0  0  0  0  0  0  0  0  0  0  0  0
   13.8136   39.3257  -10.6718 C   0  0  0  0  0  0  0  0  0  0  0  0
   13.2931   37.9615  -10.2407 C   0  0  0  0  0  0  0  0  0  0  0  0
   13.2325   36.9877  -11.4099 C   0  0  0  0  0  0  0  0  0  0  0  0
   14.1437   37.4010   -9.1137 C   0  0  0  0  0  0  0  0  0  0  0  0
   12.3436   39.9416   -6.8706 C   0  0  0  0  0  0  0  0  0  0  0  0
   10.8802   38.8598   -5.1622 C   0  0  0  0  0  0  0  0  0  0  0  0
   11.3288   39.9886   -5.8459 N   0  0  0  0  0  0  0  0  0  0  0  0
   11.3268   37.7728   -5.3036 O   0  0  0  0  0  0  0  0  0  0  0  0
   10.9337   40.8612   -5.6184 H   0  0  0  0  0  0  0  0  0  0  0  0
    9.8847   39.2397   -4.2713 O   0  0  0  0  0  0  0  0  0  0  0  0
    9.1244   38.2150   -3.6864 C   0  0  0  0  0  0  0  0  0  0  0  0
    9.2211   38.2864   -2.1729 C   0  0  0  0  0  0  0  0  0  0  0  0
    9.6858   39.4399   -1.5452 C   0  0  0  0  0  0  0  0  0  0  0  0
    9.7845   39.5033   -0.1790 C   0  0  0  0  0  0  0  0  0  0  0  0
    9.4284   38.4395    0.6271 C   0  0  0  0  0  0  0  0  0  0  0  0
    8.9293   37.2932    0.0339 C   0  0  0  0  0  0  0  0  0  0  0  0
    8.8308   37.2004   -1.3595 C   0  0  0  0  0  0  0  0  0  0  0  0
 32 33  2  0  0  0
 32 31  1  0  0  0
 33 28  1  0  0  0
 31 30  2  0  0  0
 28 27  1  0  0  0
 28 29  2  0  0  0
 27 26  1  0  0  0
 30 29  1  0  0  0
 26 22  1  0  0  0
 24 22  2  0  0  0
 22 23  1  0  0  0
 23 21  1  0  0  0
 21  2  1  0  0  0
  3  2  2  0  0  0
  1  2  1  0  0  0
  2  5  1  0  0  0
  5  7  1  0  0  0
 12 10  1  0  0  0
 12 13  1  0  0  0
 10  8  1  0  0  0
  8  9  2  0  0  0
  8  7  1  0  0  0
  7 17  1  0  0  0
 13 14  1  0  0  0
 17 18  1  0  0  0
 19 18  1  0  0  0
 18 20  1  0  0  0
  1  4  1  0  0  0
  5  6  1  0  0  0
 23 25  1  0  0  0
 10 11  1  0  0  0
 14 15  1  0  0  0
 14 16  1  0  0  0
M  END
> <minimizedAffinity>
-7.37520

$$$$
