5OH4_9UZ_A_202


  9  9  0  0  0  0  0  0  0  0999 V2000
   21.4115   16.0687   -7.7359 O   0  0  0  0  0  0  0  0  0  0  0  0
   22.4822   16.6795   -7.6911 C   0  0  0  0  0  0  0  0  0  0  0  0
   23.4803   16.2528   -8.4224 N   0  0  0  0  0  0  0  0  0  0  0  0
   22.7133   17.8938   -6.8093 C   0  0  0  0  0  0  0  0  0  0  0  0
   23.8569   18.7738   -7.3261 C   0  0  0  0  0  0  0  0  0  0  0  0
   25.0784   17.9880   -7.7554 C   0  0  0  0  0  0  0  0  0  0  0  0
   24.7135   16.7091   -8.4526 C   0  0  0  0  0  0  0  0  0  0  0  0
   25.5566   16.0754   -9.0646 O   0  0  0  0  0  0  0  0  0  0  0  0
   23.2840   15.4981   -9.0234 H   0  0  0  0  0  0  0  0  0  0  0  0
  8  7  2  0  0  0
  7  3  1  0  0  0
  7  6  1  0  0  0
  3  2  1  0  0  0
  6  5  1  0  0  0
  1  2  2  0  0  0
  2  4  1  0  0  0
  5  4  1  0  0  0
  3  9  1  0  0  0
M  END
> <minimizedAffinity>
-6.46796

$$$$
5OH4_9UZ_A_202


  9  9  0  0  0  0  0  0  0  0999 V2000
   25.6358   16.0458   -9.3047 O   0  0  0  0  0  0  0  0  0  0  0  0
   24.8345   16.6785   -8.6126 C   0  0  0  0  0  0  0  0  0  0  0  0
   23.6590   16.1543   -8.3742 N   0  0  0  0  0  0  0  0  0  0  0  0
   25.1315   18.0522   -8.0382 C   0  0  0  0  0  0  0  0  0  0  0  0
   24.2681   18.3643   -6.8108 C   0  0  0  0  0  0  0  0  0  0  0  0
   22.8116   17.9871   -6.9840 C   0  0  0  0  0  0  0  0  0  0  0  0
   22.6453   16.6983   -7.7367 C   0  0  0  0  0  0  0  0  0  0  0  0
   21.5660   16.1317   -7.7630 O   0  0  0  0  0  0  0  0  0  0  0  0
   23.5162   15.2412   -8.7135 H   0  0  0  0  0  0  0  0  0  0  0  0
  8  7  2  0  0  0
  7  3  1  0  0  0
  7  6  1  0  0  0
  3  2  1  0  0  0
  6  5  1  0  0  0
  1  2  2  0  0  0
  2  4  1  0  0  0
  5  4  1  0  0  0
  3  9  1  0  0  0
M  END
> <minimizedAffinity>
-6.10723

$$$$
5OH4_9UZ_A_202


  9  9  0  0  0  0  0  0  0  0999 V2000
   22.0172   17.8322   -6.3246 O   0  0  0  0  0  0  0  0  0  0  0  0
   22.9753   17.8546   -7.1011 C   0  0  0  0  0  0  0  0  0  0  0  0
   23.7655   18.8981   -7.0945 N   0  0  0  0  0  0  0  0  0  0  0  0
   23.2756   16.7400   -8.0874 C   0  0  0  0  0  0  0  0  0  0  0  0
   24.7492   16.7232   -8.5091 C   0  0  0  0  0  0  0  0  0  0  0  0
   25.3030   18.0964   -8.8273 C   0  0  0  0  0  0  0  0  0  0  0  0
   24.7800   19.1492   -7.8930 C   0  0  0  0  0  0  0  0  0  0  0  0
   25.2938   20.2543   -7.8559 O   0  0  0  0  0  0  0  0  0  0  0  0
   23.5774   19.5782   -6.4079 H   0  0  0  0  0  0  0  0  0  0  0  0
  8  7  2  0  0  0
  7  3  1  0  0  0
  7  6  1  0  0  0
  3  2  1  0  0  0
  6  5  1  0  0  0
  1  2  2  0  0  0
  2  4  1  0  0  0
  5  4  1  0  0  0
  3  9  1  0  0  0
M  END
> <minimizedAffinity>
-5.50724

$$$$
5OH4_9UZ_A_202


  9  9  0  0  0  0  0  0  0  0999 V2000
   25.3312   18.0688  -10.2666 O   0  0  0  0  0  0  0  0  0  0  0  0
   24.6995   18.0468   -9.2074 C   0  0  0  0  0  0  0  0  0  0  0  0
   23.8271   17.0899   -9.0156 N   0  0  0  0  0  0  0  0  0  0  0  0
   24.8634   19.0903   -8.1167 C   0  0  0  0  0  0  0  0  0  0  0  0
   24.4315   18.5636   -6.7436 C   0  0  0  0  0  0  0  0  0  0  0  0
   23.1278   17.7934   -6.7738 C   0  0  0  0  0  0  0  0  0  0  0  0
   23.0026   16.9387   -8.0021 C   0  0  0  0  0  0  0  0  0  0  0  0
   22.1357   16.0845   -8.0761 O   0  0  0  0  0  0  0  0  0  0  0  0
   23.7827   16.3991   -9.7156 H   0  0  0  0  0  0  0  0  0  0  0  0
  8  7  2  0  0  0
  7  3  1  0  0  0
  7  6  1  0  0  0
  3  2  1  0  0  0
  6  5  1  0  0  0
  1  2  2  0  0  0
  2  4  1  0  0  0
  5  4  1  0  0  0
  3  9  1  0  0  0
M  END
> <minimizedAffinity>
-5.49168

$$$$
5OH4_9UZ_A_202


  9  9  0  0  0  0  0  0  0  0999 V2000
   24.9698   20.4831   -7.1077 O   0  0  0  0  0  0  0  0  0  0  0  0
   24.5728   19.3638   -7.4410 C   0  0  0  0  0  0  0  0  0  0  0  0
   23.4207   18.9436   -6.9834 N   0  0  0  0  0  0  0  0  0  0  0  0
   25.3648   18.4317   -8.3405 C   0  0  0  0  0  0  0  0  0  0  0  0
   24.4680   17.4048   -9.0412 C   0  0  0  0  0  0  0  0  0  0  0  0
   23.4402   16.7742   -8.1248 C   0  0  0  0  0  0  0  0  0  0  0  0
   22.8660   17.7629   -7.1513 C   0  0  0  0  0  0  0  0  0  0  0  0
   21.8699   17.4875   -6.5044 O   0  0  0  0  0  0  0  0  0  0  0  0
   22.9066   19.5903   -6.4480 H   0  0  0  0  0  0  0  0  0  0  0  0
  8  7  2  0  0  0
  7  3  1  0  0  0
  7  6  1  0  0  0
  3  2  1  0  0  0
  6  5  1  0  0  0
  1  2  2  0  0  0
  2  4  1  0  0  0
  5  4  1  0  0  0
  3  9  1  0  0  0
M  END
> <minimizedAffinity>
-5.40547

$$$$
5OH4_9UZ_A_202


  9  9  0  0  0  0  0  0  0  0999 V2000
   26.3610   19.6663   -7.5823 O   0  0  0  0  0  0  0  0  0  0  0  0
   25.4346   18.8585   -7.6853 C   0  0  0  0  0  0  0  0  0  0  0  0
   25.6930   17.6615   -8.1477 N   0  0  0  0  0  0  0  0  0  0  0  0
   23.9969   19.1876   -7.3246 C   0  0  0  0  0  0  0  0  0  0  0  0
   23.1797   17.9313   -7.0033 C   0  0  0  0  0  0  0  0  0  0  0  0
   23.4053   16.7966   -7.9806 C   0  0  0  0  0  0  0  0  0  0  0  0
   24.8409   16.6943   -8.4091 C   0  0  0  0  0  0  0  0  0  0  0  0
   25.2409   15.7070   -9.0023 O   0  0  0  0  0  0  0  0  0  0  0  0
   26.6411   17.4606   -8.3211 H   0  0  0  0  0  0  0  0  0  0  0  0
  8  7  2  0  0  0
  7  3  1  0  0  0
  7  6  1  0  0  0
  3  2  1  0  0  0
  6  5  1  0  0  0
  1  2  2  0  0  0
  2  4  1  0  0  0
  5  4  1  0  0  0
  3  9  1  0  0  0
M  END
> <minimizedAffinity>
-5.04482

$$$$
5OH4_9UZ_A_202


  9  9  0  0  0  0  0  0  0  0999 V2000
   24.8336   20.5539   -6.5970 O   0  0  0  0  0  0  0  0  0  0  0  0
   24.6273   19.6052   -7.3579 C   0  0  0  0  0  0  0  0  0  0  0  0
   25.3377   19.5123   -8.4534 N   0  0  0  0  0  0  0  0  0  0  0  0
   23.5705   18.5456   -7.1023 C   0  0  0  0  0  0  0  0  0  0  0  0
   23.8760   17.2357   -7.8373 C   0  0  0  0  0  0  0  0  0  0  0  0
   24.3222   17.4361   -9.2706 C   0  0  0  0  0  0  0  0  0  0  0  0
   25.2155   18.6333   -9.4242 C   0  0  0  0  0  0  0  0  0  0  0  0
   25.8479   18.8059  -10.4523 O   0  0  0  0  0  0  0  0  0  0  0  0
   26.0507   20.1821   -8.5643 H   0  0  0  0  0  0  0  0  0  0  0  0
  8  7  2  0  0  0
  7  3  1  0  0  0
  7  6  1  0  0  0
  3  2  1  0  0  0
  6  5  1  0  0  0
  1  2  2  0  0  0
  2  4  1  0  0  0
  5  4  1  0  0  0
  3  9  1  0  0  0
M  END
> <minimizedAffinity>
-4.89959

$$$$
5OH4_9UZ_A_202


  9  9  0  0  0  0  0  0  0  0999 V2000
   25.8821   18.6929  -10.5143 O   0  0  0  0  0  0  0  0  0  0  0  0
   25.2821   18.4806   -9.4576 C   0  0  0  0  0  0  0  0  0  0  0  0
   25.1374   19.4660   -8.6082 N   0  0  0  0  0  0  0  0  0  0  0  0
   24.7194   17.1230   -9.0762 C   0  0  0  0  0  0  0  0  0  0  0  0
   23.5838   17.2350   -8.0529 C   0  0  0  0  0  0  0  0  0  0  0  0
   23.8782   18.2032   -6.9261 C   0  0  0  0  0  0  0  0  0  0  0  0
   24.6087   19.4248   -7.4046 C   0  0  0  0  0  0  0  0  0  0  0  0
   24.7178   20.4026   -6.6843 O   0  0  0  0  0  0  0  0  0  0  0  0
   25.4642   20.3453   -8.9068 H   0  0  0  0  0  0  0  0  0  0  0  0
  8  7  2  0  0  0
  7  3  1  0  0  0
  7  6  1  0  0  0
  3  2  1  0  0  0
  6  5  1  0  0  0
  1  2  2  0  0  0
  2  4  1  0  0  0
  5  4  1  0  0  0
  3  9  1  0  0  0
M  END
> <minimizedAffinity>
-4.80253

$$$$
5OH4_9UZ_A_202


  9  9  0  0  0  0  0  0  0  0999 V2000
   22.9191   16.6636   -7.7532 O   0  0  0  0  0  0  0  0  0  0  0  0
   23.7306   17.5764   -7.9253 C   0  0  0  0  0  0  0  0  0  0  0  0
   24.2250   17.7603   -9.1233 N   0  0  0  0  0  0  0  0  0  0  0  0
   24.2080   18.4893   -6.8100 C   0  0  0  0  0  0  0  0  0  0  0  0
   24.7327   19.8272   -7.3431 C   0  0  0  0  0  0  0  0  0  0  0  0
   25.6318   19.6853   -8.5536 C   0  0  0  0  0  0  0  0  0  0  0  0
   25.1543   18.6148   -9.4921 C   0  0  0  0  0  0  0  0  0  0  0  0
   25.6181   18.5253  -10.6162 O   0  0  0  0  0  0  0  0  0  0  0  0
   23.8561   17.1892   -9.8353 H   0  0  0  0  0  0  0  0  0  0  0  0
  8  7  2  0  0  0
  7  3  1  0  0  0
  7  6  1  0  0  0
  3  2  1  0  0  0
  6  5  1  0  0  0
  1  2  2  0  0  0
  2  4  1  0  0  0
  5  4  1  0  0  0
  3  9  1  0  0  0
M  END
> <minimizedAffinity>
-4.47877

$$$$
5OH4_9UZ_A_202


  9  9  0  0  0  0  0  0  0  0999 V2000
   25.4548   16.0612   -9.1427 O   0  0  0  0  0  0  0  0  0  0  0  0
   25.1177   17.0881   -8.5483 C   0  0  0  0  0  0  0  0  0  0  0  0
   25.7695   18.1971   -8.7903 N   0  0  0  0  0  0  0  0  0  0  0  0
   23.9953   17.1300   -7.5266 C   0  0  0  0  0  0  0  0  0  0  0  0
   23.4134   18.5388   -7.3651 C   0  0  0  0  0  0  0  0  0  0  0  0
   24.4678   19.6226   -7.2793 C   0  0  0  0  0  0  0  0  0  0  0  0
   25.6213   19.3660   -8.2059 C   0  0  0  0  0  0  0  0  0  0  0  0
   26.4372   20.2424   -8.4361 O   0  0  0  0  0  0  0  0  0  0  0  0
   26.4544   18.1505   -9.4959 H   0  0  0  0  0  0  0  0  0  0  0  0
  8  7  2  0  0  0
  7  3  1  0  0  0
  7  6  1  0  0  0
  3  2  1  0  0  0
  6  5  1  0  0  0
  1  2  2  0  0  0
  2  4  1  0  0  0
  5  4  1  0  0  0
  3  9  1  0  0  0
M  END
> <minimizedAffinity>
-4.42065

$$$$
