5TB6_77X_A_1201
  RCSB PDB12061719383D
Coordinates from PDB:5TB6:A:1201 Model:1 without hydrogens
 19 21  0  0  0  0            999 V2000
    1.5990   14.6090   22.5940   C 0  0  0  0  0  0  0  0  0  0  0  0
    0.2800   14.7420   23.3210   C 0  0  0  0  0  0  0  0  0  0  0  0
    0.3690   14.5840   24.8520   C 0  0  0  0  0  0  0  0  0  0  0  0
    1.4400   14.7530   25.4640   O 0  0  0  0  0  0  0  0  0  0  0  0
   -0.7480   14.1900   25.4920   N 0  0  0  0  0  0  0  0  0  0  0  0
   -0.7520   13.9960   26.9860   C 0  0  0  0  0  0  0  0  0  0  0  0
   -1.0330   12.5260   27.3000   C 0  0  0  0  0  0  0  0  0  0  0  0
   -1.9870   13.9030   24.7110   C 0  0  0  0  0  0  0  0  0  0  0  0
   -2.5300   12.5620   25.1860   C 0  0  0  0  0  0  0  0  0  0  0  0
   -2.0780   11.9600   26.3520   C 0  0  0  0  0  0  0  0  0  0  0  0
   -2.7500   10.8020   26.4270   N 0  0  0  0  0  0  0  0  0  0  0  0
   -3.5510   10.6710   25.4850   N 0  0  0  0  0  0  0  0  0  0  0  0
   -3.4750   11.6830   24.6350   C 0  0  0  0  0  0  0  0  0  0  0  0
   -4.2480   11.8200   23.4610   C 0  0  0  0  0  0  0  0  0  0  0  0
   -4.5250   10.6940   22.6860   C 0  0  0  0  0  0  0  0  0  0  0  0
   -5.3020   10.8500   21.5510   C 0  0  0  0  0  0  0  0  0  0  0  0
   -5.8220   12.0820   21.1740   C 0  0  0  0  0  0  0  0  0  0  0  0
   -5.5660   13.2110   21.9320   C 0  0  0  0  0  0  0  0  0  0  0  0
   -4.7830   13.0450   23.0690   C 0  0  0  0  0  0  0  0  0  0  0  0
 11 12  1  0  0  0  0
 11 10  1  0  0  0  0
 12 13  2  0  0  0  0
 10  7  1  0  0  0  0
 10  9  2  0  0  0  0
 19 18  2  0  0  0  0
 19 14  1  0  0  0  0
  7  6  1  0  0  0  0
 13 14  1  0  0  0  0
 13  9  1  0  0  0  0
 18 17  1  0  0  0  0
 14 15  2  0  0  0  0
  9  8  1  0  0  0  0
  6  5  1  0  0  0  0
 17 16  2  0  0  0  0
  4  3  2  0  0  0  0
 15 16  1  0  0  0  0
  5  8  1  0  0  0  0
  5  3  1  0  0  0  0
  3  2  1  0  0  0  0
  2  1  1  0  0  0  0
A    1
CAS
A    2
CAR
A    3
CAP
A    4
OAQ
A    5
NAH
A    6
CAG
A    7
CAF
A    8
CAI
A    9
CAD
A   10
CAC
A   11
NAB
A   12
NAA
A   13
CAE
A   14
CAJ
A   15
CAK
A   16
CAL
A   17
CAM
A   18
CAN
A   19
CAO
M  END
>  <InstanceId>
5TB6_77X_A_1201

>  <ChemCompId>
77X

>  <PdbId>
5TB6

>  <ChainId>
A

>  <ResidueNumber>
1201

>  <InsertionCode>


>  <Model>
1

>  <AltIds>


>  <MissingHeavyAtoms>
0

>  <ObservedFormula>
C15 N3 O

>  <Name>
1-(3-phenyl-1,4,6,7-tetrahydropyrazolo[4,3-c]pyridin-5-yl)propan-1-one

>  <SystematicName>
1-(3-phenyl-1,4,6,7-tetrahydropyrazolo[4,3-c]pyridin-5-yl)propan-1-one

>  <Synonyms>


>  <Type>
NON-POLYMER

>  <Formula>
C15 H17 N3 O

>  <MolecularWeight>
255.315

>  <ModifiedDate>
2016-10-07

>  <Parent>


>  <OneLetterCode>


>  <SubcomponentList>


>  <AmbiguousFlag>
N

>  <InChI>
InChI=1S/C15H17N3O/c1-2-14(19)18-9-8-13-12(10-18)15(17-16-13)11-6-4-3-5-7-11/h3-7H,2,8-10H2,1H3,(H,16,17)

>  <InChIKey>
DVIQMCGALYMKFG-UHFFFAOYSA-N

>  <SMILES>
CCC(=O)N1CCc2c(c(n[nH]2)c3ccccc3)C1

$$$$
