4ZT8_CYT_A_304


 11 11  0  0  0  0  0  0  0  0999 V2000
  -14.3178   17.5070   -1.9113 N   0  0  0  0  0  0  0  0  0  0  0  0
  -14.2751   18.2494   -3.0254 C   0  0  0  0  0  0  0  0  0  0  0  0
  -15.7771   15.9761   -2.9547 N   0  0  0  0  0  0  0  0  0  0  0  0
  -15.0613   16.3846   -1.8816 C   0  0  0  0  0  0  0  0  0  0  0  0
  -15.1026   15.6955   -0.8451 O   0  0  0  0  0  0  0  0  0  0  0  0
  -13.5442   19.3867   -3.1266 N   0  0  0  0  0  0  0  0  0  0  0  0
  -14.9933   17.8339   -4.1296 C   0  0  0  0  0  0  0  0  0  0  0  0
  -15.7560   16.6857   -4.0858 C   0  0  0  0  0  0  0  0  0  0  0  0
  -13.8068   17.7814   -1.1158 H   0  0  0  0  0  0  0  0  0  0  0  0
  -13.0224   19.7067   -2.3555 H   0  0  0  0  0  0  0  0  0  0  0  0
  -13.5353   19.8926   -3.9711 H   0  0  0  0  0  0  0  0  0  0  0  0
  1  2  1  0  0  0
  1  4  1  0  0  0
  2  6  1  0  0  0
  2  7  2  0  0  0
  3  4  1  0  0  0
  3  8  2  0  0  0
  4  5  2  0  0  0
  7  8  1  0  0  0
  1  9  1  0  0  0
  6 10  1  0  0  0
  6 11  1  0  0  0
M  END
> <minimizedAffinity>
-5.09734

$$$$
4ZT8_CYT_A_304


 11 11  0  0  0  0  0  0  0  0999 V2000
  -15.0930   15.3061   -3.0531 N   0  0  0  0  0  0  0  0  0  0  0  0
  -15.7468   14.8617   -4.1345 C   0  0  0  0  0  0  0  0  0  0  0  0
  -17.1137   15.4128   -1.8418 N   0  0  0  0  0  0  0  0  0  0  0  0
  -15.7730   15.5767   -1.9227 C   0  0  0  0  0  0  0  0  0  0  0  0
  -15.1655   15.9917   -0.9180 O   0  0  0  0  0  0  0  0  0  0  0  0
  -15.1252   14.5651   -5.3023 N   0  0  0  0  0  0  0  0  0  0  0  0
  -17.1137   14.6803   -4.0575 C   0  0  0  0  0  0  0  0  0  0  0  0
  -17.8006   14.9663   -2.8964 C   0  0  0  0  0  0  0  0  0  0  0  0
  -14.1174   15.4346   -3.0847 H   0  0  0  0  0  0  0  0  0  0  0  0
  -14.1516   14.6847   -5.3859 H   0  0  0  0  0  0  0  0  0  0  0  0
  -15.6474   14.2301   -6.0666 H   0  0  0  0  0  0  0  0  0  0  0  0
  1  2  1  0  0  0
  1  4  1  0  0  0
  2  6  1  0  0  0
  2  7  2  0  0  0
  3  4  1  0  0  0
  3  8  2  0  0  0
  4  5  2  0  0  0
  7  8  1  0  0  0
  1  9  1  0  0  0
  6 10  1  0  0  0
  6 11  1  0  0  0
M  END
> <minimizedAffinity>
-4.85197

$$$$
4ZT8_CYT_A_304


 11 11  0  0  0  0  0  0  0  0999 V2000
  -16.8286   15.9040   -4.5115 N   0  0  0  0  0  0  0  0  0  0  0  0
  -15.9053   16.2876   -3.6201 C   0  0  0  0  0  0  0  0  0  0  0  0
  -18.1047   14.9026   -2.7996 N   0  0  0  0  0  0  0  0  0  0  0  0
  -17.9136   15.2201   -4.1009 C   0  0  0  0  0  0  0  0  0  0  0  0
  -18.7710   14.8617   -4.9300 O   0  0  0  0  0  0  0  0  0  0  0  0
  -14.7928   16.9824   -3.9628 N   0  0  0  0  0  0  0  0  0  0  0  0
  -16.0978   15.9781   -2.2880 C   0  0  0  0  0  0  0  0  0  0  0  0
  -17.2099   15.2721   -1.8797 C   0  0  0  0  0  0  0  0  0  0  0  0
  -16.7143   16.1216   -5.4649 H   0  0  0  0  0  0  0  0  0  0  0  0
  -14.6297   17.2169   -4.9050 H   0  0  0  0  0  0  0  0  0  0  0  0
  -14.1481   17.2525   -3.2696 H   0  0  0  0  0  0  0  0  0  0  0  0
  1  2  1  0  0  0
  1  4  1  0  0  0
  2  6  1  0  0  0
  2  7  2  0  0  0
  3  4  1  0  0  0
  3  8  2  0  0  0
  4  5  2  0  0  0
  7  8  1  0  0  0
  1  9  1  0  0  0
  6 10  1  0  0  0
  6 11  1  0  0  0
M  END
> <minimizedAffinity>
-4.77849

$$$$
4ZT8_CYT_A_304


 11 11  0  0  0  0  0  0  0  0999 V2000
  -14.7296   16.7803   -2.1182 N   0  0  0  0  0  0  0  0  0  0  0  0
  -14.1404   17.9388   -2.4423 C   0  0  0  0  0  0  0  0  0  0  0  0
  -15.8835   16.7606   -4.1749 N   0  0  0  0  0  0  0  0  0  0  0  0
  -15.5899   16.2022   -2.9779 C   0  0  0  0  0  0  0  0  0  0  0  0
  -16.1392   15.1261   -2.6758 O   0  0  0  0  0  0  0  0  0  0  0  0
  -13.2613   18.5726   -1.6278 N   0  0  0  0  0  0  0  0  0  0  0  0
  -14.4251   18.5102   -3.6670 C   0  0  0  0  0  0  0  0  0  0  0  0
  -15.3124   17.9121   -4.5370 C   0  0  0  0  0  0  0  0  0  0  0  0
  -14.5341   16.3525   -1.2534 H   0  0  0  0  0  0  0  0  0  0  0  0
  -13.0394   18.1884   -0.7489 H   0  0  0  0  0  0  0  0  0  0  0  0
  -12.8447   19.4171   -1.9151 H   0  0  0  0  0  0  0  0  0  0  0  0
  1  2  1  0  0  0
  1  4  1  0  0  0
  2  6  1  0  0  0
  2  7  2  0  0  0
  3  4  1  0  0  0
  3  8  2  0  0  0
  4  5  2  0  0  0
  7  8  1  0  0  0
  1  9  1  0  0  0
  6 10  1  0  0  0
  6 11  1  0  0  0
M  END
> <minimizedAffinity>
-4.76326

$$$$
4ZT8_CYT_A_304


 11 11  0  0  0  0  0  0  0  0999 V2000
  -16.0313   16.0067   -2.0162 N   0  0  0  0  0  0  0  0  0  0  0  0
  -15.8143   16.3389   -3.2956 C   0  0  0  0  0  0  0  0  0  0  0  0
  -18.0099   14.8730   -2.6178 N   0  0  0  0  0  0  0  0  0  0  0  0
  -17.1175   15.2821   -1.6866 C   0  0  0  0  0  0  0  0  0  0  0  0
  -17.3202   14.9749   -0.4969 O   0  0  0  0  0  0  0  0  0  0  0  0
  -14.7401   17.0612   -3.6984 N   0  0  0  0  0  0  0  0  0  0  0  0
  -16.7138   15.9158   -4.2545 C   0  0  0  0  0  0  0  0  0  0  0  0
  -17.8259   15.1791   -3.9045 C   0  0  0  0  0  0  0  0  0  0  0  0
  -15.3980   16.2916   -1.3184 H   0  0  0  0  0  0  0  0  0  0  0  0
  -14.0825   17.3760   -3.0367 H   0  0  0  0  0  0  0  0  0  0  0  0
  -14.6175   17.2708   -4.6524 H   0  0  0  0  0  0  0  0  0  0  0  0
  1  2  1  0  0  0
  1  4  1  0  0  0
  2  6  1  0  0  0
  2  7  2  0  0  0
  3  4  1  0  0  0
  3  8  2  0  0  0
  4  5  2  0  0  0
  7  8  1  0  0  0
  1  9  1  0  0  0
  6 10  1  0  0  0
  6 11  1  0  0  0
M  END
> <minimizedAffinity>
-4.71806

$$$$
4ZT8_CYT_A_304


 11 11  0  0  0  0  0  0  0  0999 V2000
  -14.6069   17.8676   -3.5523 N   0  0  0  0  0  0  0  0  0  0  0  0
  -14.2322   17.6189   -2.2906 C   0  0  0  0  0  0  0  0  0  0  0  0
  -16.0436   15.9976   -3.5231 N   0  0  0  0  0  0  0  0  0  0  0  0
  -15.5024   17.0636   -4.1567 C   0  0  0  0  0  0  0  0  0  0  0  0
  -15.8492   17.2938   -5.3304 O   0  0  0  0  0  0  0  0  0  0  0  0
  -13.3404   18.3891   -1.6203 N   0  0  0  0  0  0  0  0  0  0  0  0
  -14.7883   16.5397   -1.6320 C   0  0  0  0  0  0  0  0  0  0  0  0
  -15.7001   15.7196   -2.2630 C   0  0  0  0  0  0  0  0  0  0  0  0
  -14.2285   18.6366   -4.0368 H   0  0  0  0  0  0  0  0  0  0  0  0
  -12.9281   19.1649   -2.0647 H   0  0  0  0  0  0  0  0  0  0  0  0
  -13.1050   18.1728   -0.6892 H   0  0  0  0  0  0  0  0  0  0  0  0
  1  2  1  0  0  0
  1  4  1  0  0  0
  2  6  1  0  0  0
  2  7  2  0  0  0
  3  4  1  0  0  0
  3  8  2  0  0  0
  4  5  2  0  0  0
  7  8  1  0  0  0
  1  9  1  0  0  0
  6 10  1  0  0  0
  6 11  1  0  0  0
M  END
> <minimizedAffinity>
-4.69046

$$$$
4ZT8_CYT_A_304


 11 11  0  0  0  0  0  0  0  0999 V2000
  -15.0585   15.3143   -3.4686 N   0  0  0  0  0  0  0  0  0  0  0  0
  -15.2886   15.6591   -2.1948 C   0  0  0  0  0  0  0  0  0  0  0  0
  -17.3330   14.7629   -3.7587 N   0  0  0  0  0  0  0  0  0  0  0  0
  -16.0721   14.8722   -4.2371 C   0  0  0  0  0  0  0  0  0  0  0  0
  -15.8577   14.5497   -5.4207 O   0  0  0  0  0  0  0  0  0  0  0  0
  -14.3170   16.1164   -1.3673 N   0  0  0  0  0  0  0  0  0  0  0  0
  -16.5748   15.5619   -1.7013 C   0  0  0  0  0  0  0  0  0  0  0  0
  -17.6041   15.1022   -2.4959 C   0  0  0  0  0  0  0  0  0  0  0  0
  -14.1502   15.3838   -3.8421 H   0  0  0  0  0  0  0  0  0  0  0  0
  -13.3910   16.1961   -1.6920 H   0  0  0  0  0  0  0  0  0  0  0  0
  -14.5374   16.3686   -0.4415 H   0  0  0  0  0  0  0  0  0  0  0  0
  1  2  1  0  0  0
  1  4  1  0  0  0
  2  6  1  0  0  0
  2  7  2  0  0  0
  3  4  1  0  0  0
  3  8  2  0  0  0
  4  5  2  0  0  0
  7  8  1  0  0  0
  1  9  1  0  0  0
  6 10  1  0  0  0
  6 11  1  0  0  0
M  END
> <minimizedAffinity>
-4.59901

$$$$
4ZT8_CYT_A_304


 11 11  0  0  0  0  0  0  0  0999 V2000
  -14.6819   17.7175   -3.6289 N   0  0  0  0  0  0  0  0  0  0  0  0
  -15.5748   16.8175   -4.0616 C   0  0  0  0  0  0  0  0  0  0  0  0
  -14.7269   16.7653   -1.4718 N   0  0  0  0  0  0  0  0  0  0  0  0
  -14.2661   17.6873   -2.3485 C   0  0  0  0  0  0  0  0  0  0  0  0
  -13.4375   18.5252   -1.9457 O   0  0  0  0  0  0  0  0  0  0  0  0
  -16.0323   16.7868   -5.3374 N   0  0  0  0  0  0  0  0  0  0  0  0
  -16.0418   15.8654   -3.1769 C   0  0  0  0  0  0  0  0  0  0  0  0
  -15.6134   15.8477   -1.8661 C   0  0  0  0  0  0  0  0  0  0  0  0
  -14.3305   18.3996   -4.2457 H   0  0  0  0  0  0  0  0  0  0  0  0
  -15.7167   17.4531   -5.9898 H   0  0  0  0  0  0  0  0  0  0  0  0
  -16.6803   16.0981   -5.6115 H   0  0  0  0  0  0  0  0  0  0  0  0
  1  2  1  0  0  0
  1  4  1  0  0  0
  2  6  1  0  0  0
  2  7  2  0  0  0
  3  4  1  0  0  0
  3  8  2  0  0  0
  4  5  2  0  0  0
  7  8  1  0  0  0
  1  9  1  0  0  0
  6 10  1  0  0  0
  6 11  1  0  0  0
M  END
> <minimizedAffinity>
-4.59419

$$$$
4ZT8_CYT_A_304


 11 11  0  0  0  0  0  0  0  0999 V2000
  -15.4457   16.4308   -3.2059 N   0  0  0  0  0  0  0  0  0  0  0  0
  -15.4022   17.2237   -4.2847 C   0  0  0  0  0  0  0  0  0  0  0  0
  -14.0678   17.9294   -2.0153 N   0  0  0  0  0  0  0  0  0  0  0  0
  -14.7848   16.7842   -2.0871 C   0  0  0  0  0  0  0  0  0  0  0  0
  -14.8236   16.0460   -1.0848 O   0  0  0  0  0  0  0  0  0  0  0  0
  -16.0473   16.9323   -5.4409 N   0  0  0  0  0  0  0  0  0  0  0  0
  -14.6824   18.4004   -4.2168 C   0  0  0  0  0  0  0  0  0  0  0  0
  -14.0046   18.7493   -3.0675 C   0  0  0  0  0  0  0  0  0  0  0  0
  -15.9597   15.5915   -3.2310 H   0  0  0  0  0  0  0  0  0  0  0  0
  -16.5680   16.1003   -5.5179 H   0  0  0  0  0  0  0  0  0  0  0  0
  -15.9950   17.5527   -6.2036 H   0  0  0  0  0  0  0  0  0  0  0  0
  1  2  1  0  0  0
  1  4  1  0  0  0
  2  6  1  0  0  0
  2  7  2  0  0  0
  3  4  1  0  0  0
  3  8  2  0  0  0
  4  5  2  0  0  0
  7  8  1  0  0  0
  1  9  1  0  0  0
  6 10  1  0  0  0
  6 11  1  0  0  0
M  END
> <minimizedAffinity>
-4.55656

$$$$
4ZT8_CYT_A_304


 11 11  0  0  0  0  0  0  0  0999 V2000
  -17.6990   14.9802   -2.4534 N   0  0  0  0  0  0  0  0  0  0  0  0
  -17.3401   15.3992   -3.6741 C   0  0  0  0  0  0  0  0  0  0  0  0
  -15.7435   15.9181   -1.5269 N   0  0  0  0  0  0  0  0  0  0  0  0
  -16.9067   15.2394   -1.3958 C   0  0  0  0  0  0  0  0  0  0  0  0
  -17.2394   14.8482   -0.2612 O   0  0  0  0  0  0  0  0  0  0  0  0
  -18.0915   15.1778   -4.7805 N   0  0  0  0  0  0  0  0  0  0  0  0
  -16.1602   16.1029   -3.8156 C   0  0  0  0  0  0  0  0  0  0  0  0
  -15.3537   16.3574   -2.7262 C   0  0  0  0  0  0  0  0  0  0  0  0
  -18.5402   14.4839   -2.3297 H   0  0  0  0  0  0  0  0  0  0  0  0
  -18.9373   14.6791   -4.7095 H   0  0  0  0  0  0  0  0  0  0  0  0
  -17.7913   15.5158   -5.6551 H   0  0  0  0  0  0  0  0  0  0  0  0
  1  2  1  0  0  0
  1  4  1  0  0  0
  2  6  1  0  0  0
  2  7  2  0  0  0
  3  4  1  0  0  0
  3  8  2  0  0  0
  4  5  2  0  0  0
  7  8  1  0  0  0
  1  9  1  0  0  0
  6 10  1  0  0  0
  6 11  1  0  0  0
M  END
> <minimizedAffinity>
-4.51273

$$$$
