3D4Z_GIM_A_1048
  RCSB PDB12061708163D
Coordinates from PDB:3D4Z:A:1048 Model:1 without hydrogens
 14 15  0  0  0  0            999 V2000
   30.7970   65.9420    9.6970   C 0  0  0  0  0  0  0  0  0  0  0  0
   31.9610   65.3180    8.9250   C 0  0  0  0  0  0  0  0  0  0  0  0
   29.8090   66.5940    8.9820   N 0  3  0  0  0  0  0  0  0  0  0  0
   32.3650   66.3030    7.8260   C 0  0  0  0  0  0  0  0  0  0  0  0
   31.1990   66.4350    6.8650   C 0  0  0  0  0  0  0  0  0  0  0  0
   29.8750   66.8470    7.5350   C 0  0  0  0  0  0  0  0  0  0  0  0
   28.7490   66.0830    6.7850   C 0  0  0  0  0  0  0  0  0  0  0  0
   29.3520   66.6560   11.1160   C 0  0  0  0  0  0  0  0  0  0  0  0
   28.8980   66.9960    9.9080   C 0  0  0  0  0  0  0  0  0  0  0  0
   30.5160   65.9940   10.9800   N 0  0  0  0  0  0  0  0  0  0  0  0
   33.4910   65.6800    7.1400   O 0  0  0  0  0  0  0  0  0  0  0  0
   33.0570   64.9380    9.7170   O 0  0  0  0  0  0  0  0  0  0  0  0
   31.4880   67.4510    5.8940   O 0  0  0  0  0  0  0  0  0  0  0  0
   27.4750   66.5040    7.2990   O 0  0  0  0  0  0  0  0  0  0  0  0
  1  2  1  0  0  0  0
  1  3  2  0  0  0  0
  1 10  1  0  0  0  0
  2  4  1  0  0  0  0
  2 12  1  0  0  0  0
  3  6  1  0  0  0  0
  3  9  1  0  0  0  0
  4  5  1  0  0  0  0
  4 11  1  0  0  0  0
  5  6  1  0  0  0  0
  5 13  1  0  0  0  0
  6  7  1  0  0  0  0
  7 14  1  0  0  0  0
  8  9  2  0  0  0  0
  8 10  1  0  0  0  0
M  CHG  1   3   1
A    1
C1
A    2
C2
A    3
N10
A    4
C3
A    5
C4
A    6
C5
A    7
C6
A    8
C7
A    9
C8
A   10
N1
A   11
O3
A   12
O2
A   13
O4
A   14
O6
M  END
>  <InstanceId>
3D4Z_GIM_A_1048

>  <ChemCompId>
GIM

>  <PdbId>
3D4Z

>  <ChainId>
A

>  <ResidueNumber>
1048

>  <InsertionCode>


>  <Model>
1

>  <AltIds>


>  <MissingHeavyAtoms>
0

>  <ObservedFormula>
C8 N2 O4

>  <Name>
GLUCOIMIDAZOLE

>  <SystematicName>
(5R,6R,7S,8S)-5-(hydroxymethyl)-5,6,7,8-tetrahydro-1H-imidazo[2,1-f]pyridin-4-ium-6,7,8-triol

>  <Synonyms>
(5S,6S,7R,8R)-5-(HYDROXYMETHYL)-1,5,6,7,8,8A-HEXAHYDROIMIDAZO[1,2-A]PYRIDINE-6,7,8-TRIOL

>  <Type>
NON-POLYMER

>  <Formula>
C8 H13 N2 O4

>  <MolecularWeight>
201.2

>  <ModifiedDate>
2011-06-04

>  <Parent>


>  <OneLetterCode>


>  <SubcomponentList>


>  <AmbiguousFlag>
N

>  <InChI>
InChI=1S/C8H12N2O4/c11-3-4-5(12)6(13)7(14)8-9-1-2-10(4)8/h1-2,4-7,11-14H,3H2/p+1/t4-,5-,6+,7-/m1/s1

>  <InChIKey>
RZRDQZQPTISYKY-MVIOUDGNSA-O

>  <SMILES>
c1c[n+]2c([nH]1)[C@@H]([C@H]([C@@H]([C@H]2CO)O)O)O

$$$$
