4DHL_0K7_A_503


 16 17  0  0  0  0  0  0  0  0999 V2000
  -68.8250   34.6139  -42.6857 C   0  0  0  0  0  0  0  0  0  0  0  0
  -68.7751   33.3646  -42.1590 N   0  0  0  0  0  0  0  0  0  0  0  0
  -70.3286   35.2775  -42.2711 S   0  0  0  0  0  0  0  0  0  0  0  0
  -70.9214   33.9546  -41.3883 C   0  0  0  0  0  0  0  0  0  0  0  0
  -69.8969   32.9949  -41.4539 C   0  0  0  0  0  0  0  0  0  0  0  0
  -67.2292   36.5004  -43.1117 C   0  0  0  0  0  0  0  0  0  0  0  0
  -66.2334   37.1051  -43.8711 C   0  0  0  0  0  0  0  0  0  0  0  0
  -65.7709   36.5006  -45.0332 C   0  0  0  0  0  0  0  0  0  0  0  0
  -64.7049   37.1620  -45.8442 C   0  0  0  0  0  0  0  0  0  0  0  0
  -66.3024   35.2782  -45.4344 C   0  0  0  0  0  0  0  0  0  0  0  0
  -67.2944   34.6681  -44.6719 C   0  0  0  0  0  0  0  0  0  0  0  0
  -67.7624   35.2773  -43.5078 C   0  0  0  0  0  0  0  0  0  0  0  0
  -70.0335   31.6767  -40.7857 C   0  0  0  0  0  0  0  0  0  0  0  0
  -71.0151   30.9608  -41.0383 O   0  0  0  0  0  0  0  0  0  0  0  0
  -69.1990   31.2827  -39.9459 O   0  0  0  0  0  0  0  0  0  0  0  0
  -71.6509   31.2422  -41.6664 H   0  0  0  0  0  0  0  0  0  0  0  0
  9  8  1  0  0  0
  8  7  2  0  0  0
  8 10  1  0  0  0
  7  6  1  0  0  0
 10 11  2  0  0  0
  6 12  2  0  0  0
 11 12  1  0  0  0
 12  1  1  0  0  0
  1  2  2  0  0  0
  1  3  1  0  0  0
  2  5  1  0  0  0
  3  4  1  0  0  0
  5  4  2  0  0  0
  5 13  1  0  0  0
 15 13  2  0  0  0
 13 14  1  0  0  0
 14 16  1  0  0  0
M  END
> <minimizedAffinity>
-5.59994

$$$$
4DHL_0K7_A_503


 16 17  0  0  0  0  0  0  0  0999 V2000
  -68.8689   34.3576  -43.7202 C   0  0  0  0  0  0  0  0  0  0  0  0
  -68.5320   33.3361  -42.8933 N   0  0  0  0  0  0  0  0  0  0  0  0
  -70.3740   34.9463  -43.2090 S   0  0  0  0  0  0  0  0  0  0  0  0
  -70.5934   33.8912  -41.8977 C   0  0  0  0  0  0  0  0  0  0  0  0
  -69.4503   33.0738  -41.9032 C   0  0  0  0  0  0  0  0  0  0  0  0
  -68.7180   35.4356  -45.9790 C   0  0  0  0  0  0  0  0  0  0  0  0
  -67.9753   35.9098  -47.0547 C   0  0  0  0  0  0  0  0  0  0  0  0
  -66.5903   35.8014  -47.0549 C   0  0  0  0  0  0  0  0  0  0  0  0
  -65.8029   36.3092  -48.2185 C   0  0  0  0  0  0  0  0  0  0  0  0
  -65.9429   35.2219  -45.9675 C   0  0  0  0  0  0  0  0  0  0  0  0
  -66.6841   34.7527  -44.8868 C   0  0  0  0  0  0  0  0  0  0  0  0
  -68.0750   34.8569  -44.8886 C   0  0  0  0  0  0  0  0  0  0  0  0
  -69.2611   32.0088  -40.8868 C   0  0  0  0  0  0  0  0  0  0  0  0
  -68.1852   31.9320  -40.2733 O   0  0  0  0  0  0  0  0  0  0  0  0
  -70.1491   31.1631  -40.6566 O   0  0  0  0  0  0  0  0  0  0  0  0
  -67.5081   32.5593  -40.4346 H   0  0  0  0  0  0  0  0  0  0  0  0
  9  8  1  0  0  0
  8  7  2  0  0  0
  8 10  1  0  0  0
  7  6  1  0  0  0
 10 11  2  0  0  0
  6 12  2  0  0  0
 11 12  1  0  0  0
 12  1  1  0  0  0
  1  2  2  0  0  0
  1  3  1  0  0  0
  2  5  1  0  0  0
  3  4  1  0  0  0
  5  4  2  0  0  0
  5 13  1  0  0  0
 15 13  2  0  0  0
 13 14  1  0  0  0
 14 16  1  0  0  0
M  END
> <minimizedAffinity>
-5.59757

$$$$
4DHL_0K7_A_503


 16 17  0  0  0  0  0  0  0  0999 V2000
  -68.8969   34.2258  -43.8087 C   0  0  0  0  0  0  0  0  0  0  0  0
  -68.4988   33.3138  -42.8864 N   0  0  0  0  0  0  0  0  0  0  0  0
  -70.5232   34.5858  -43.4943 S   0  0  0  0  0  0  0  0  0  0  0  0
  -70.7200   33.5736  -42.1461 C   0  0  0  0  0  0  0  0  0  0  0  0
  -69.4696   32.9536  -41.9808 C   0  0  0  0  0  0  0  0  0  0  0  0
  -66.6781   34.6831  -44.8833 C   0  0  0  0  0  0  0  0  0  0  0  0
  -65.9119   35.1970  -45.9239 C   0  0  0  0  0  0  0  0  0  0  0  0
  -66.5218   35.8292  -47.0001 C   0  0  0  0  0  0  0  0  0  0  0  0
  -65.6884   36.3827  -48.1095 C   0  0  0  0  0  0  0  0  0  0  0  0
  -67.9086   35.9409  -47.0400 C   0  0  0  0  0  0  0  0  0  0  0  0
  -68.6777   35.4211  -46.0027 C   0  0  0  0  0  0  0  0  0  0  0  0
  -68.0653   34.7908  -44.9197 C   0  0  0  0  0  0  0  0  0  0  0  0
  -69.2308   31.9840  -40.8828 C   0  0  0  0  0  0  0  0  0  0  0  0
  -68.1426   31.9897  -40.2866 O   0  0  0  0  0  0  0  0  0  0  0  0
  -70.0890   31.1358  -40.5649 O   0  0  0  0  0  0  0  0  0  0  0  0
  -67.4875   32.6201  -40.5133 H   0  0  0  0  0  0  0  0  0  0  0  0
  9  8  1  0  0  0
  8  7  2  0  0  0
  8 10  1  0  0  0
  7  6  1  0  0  0
 10 11  2  0  0  0
  6 12  2  0  0  0
 11 12  1  0  0  0
 12  1  1  0  0  0
  1  2  2  0  0  0
  1  3  1  0  0  0
  2  5  1  0  0  0
  3  4  1  0  0  0
  5  4  2  0  0  0
  5 13  1  0  0  0
 15 13  2  0  0  0
 13 14  1  0  0  0
 14 16  1  0  0  0
M  END
> <minimizedAffinity>
-5.57739

$$$$
4DHL_0K7_A_503


 16 17  0  0  0  0  0  0  0  0999 V2000
  -71.1555   34.5353  -43.0100 C   0  0  0  0  0  0  0  0  0  0  0  0
  -71.0198   33.6029  -42.0339 N   0  0  0  0  0  0  0  0  0  0  0  0
  -69.6480   34.6968  -43.7679 S   0  0  0  0  0  0  0  0  0  0  0  0
  -68.8096   33.5439  -42.8466 C   0  0  0  0  0  0  0  0  0  0  0  0
  -69.7612   33.0565  -41.9346 C   0  0  0  0  0  0  0  0  0  0  0  0
  -72.4387   36.6841  -43.1628 C   0  0  0  0  0  0  0  0  0  0  0  0
  -73.5900   37.3946  -43.4847 C   0  0  0  0  0  0  0  0  0  0  0  0
  -74.7093   36.7344  -43.9756 C   0  0  0  0  0  0  0  0  0  0  0  0
  -75.9426   37.5071  -44.3126 C   0  0  0  0  0  0  0  0  0  0  0  0
  -74.6741   35.3543  -44.1538 C   0  0  0  0  0  0  0  0  0  0  0  0
  -73.5204   34.6422  -43.8387 C   0  0  0  0  0  0  0  0  0  0  0  0
  -72.3982   35.3043  -43.3410 C   0  0  0  0  0  0  0  0  0  0  0  0
  -69.4110   32.0085  -40.9437 C   0  0  0  0  0  0  0  0  0  0  0  0
  -68.2892   32.0175  -40.4133 O   0  0  0  0  0  0  0  0  0  0  0  0
  -70.2085   31.0936  -40.6541 O   0  0  0  0  0  0  0  0  0  0  0  0
  -67.6787   32.6975  -40.6201 H   0  0  0  0  0  0  0  0  0  0  0  0
  9  8  1  0  0  0
  8  7  2  0  0  0
  8 10  1  0  0  0
  7  6  1  0  0  0
 10 11  2  0  0  0
  6 12  2  0  0  0
 11 12  1  0  0  0
 12  1  1  0  0  0
  1  2  2  0  0  0
  1  3  1  0  0  0
  2  5  1  0  0  0
  3  4  1  0  0  0
  5  4  2  0  0  0
  5 13  1  0  0  0
 15 13  2  0  0  0
 13 14  1  0  0  0
 14 16  1  0  0  0
M  END
> <minimizedAffinity>
-4.95398

$$$$
4DHL_0K7_A_503


 16 17  0  0  0  0  0  0  0  0999 V2000
  -70.9170   34.1045  -43.3982 C   0  0  0  0  0  0  0  0  0  0  0  0
  -70.2987   33.0098  -42.8884 N   0  0  0  0  0  0  0  0  0  0  0  0
  -71.2904   35.1256  -42.0978 S   0  0  0  0  0  0  0  0  0  0  0  0
  -70.6362   34.1631  -40.8624 C   0  0  0  0  0  0  0  0  0  0  0  0
  -70.1371   33.0272  -41.5224 C   0  0  0  0  0  0  0  0  0  0  0  0
  -72.4226   34.9968  -45.1938 C   0  0  0  0  0  0  0  0  0  0  0  0
  -72.7101   35.2394  -46.5326 C   0  0  0  0  0  0  0  0  0  0  0  0
  -71.8264   34.8359  -47.5256 C   0  0  0  0  0  0  0  0  0  0  0  0
  -72.1483   35.0966  -48.9609 C   0  0  0  0  0  0  0  0  0  0  0  0
  -70.6425   34.1924  -47.1767 C   0  0  0  0  0  0  0  0  0  0  0  0
  -70.3497   33.9548  -45.8367 C   0  0  0  0  0  0  0  0  0  0  0  0
  -71.2392   34.3553  -44.8399 C   0  0  0  0  0  0  0  0  0  0  0  0
  -69.4696   31.9334  -40.7735 C   0  0  0  0  0  0  0  0  0  0  0  0
  -68.2894   32.0681  -40.4148 O   0  0  0  0  0  0  0  0  0  0  0  0
  -70.0580   30.8618  -40.5235 O   0  0  0  0  0  0  0  0  0  0  0  0
  -67.8333   32.8666  -40.5949 H   0  0  0  0  0  0  0  0  0  0  0  0
  9  8  1  0  0  0
  8  7  2  0  0  0
  8 10  1  0  0  0
  7  6  1  0  0  0
 10 11  2  0  0  0
  6 12  2  0  0  0
 11 12  1  0  0  0
 12  1  1  0  0  0
  1  2  2  0  0  0
  1  3  1  0  0  0
  2  5  1  0  0  0
  3  4  1  0  0  0
  5  4  2  0  0  0
  5 13  1  0  0  0
 15 13  2  0  0  0
 13 14  1  0  0  0
 14 16  1  0  0  0
M  END
> <minimizedAffinity>
-4.93156

$$$$
4DHL_0K7_A_503


 16 17  0  0  0  0  0  0  0  0999 V2000
  -66.5222   35.8831  -45.5322 C   0  0  0  0  0  0  0  0  0  0  0  0
  -65.7374   36.1238  -44.4520 N   0  0  0  0  0  0  0  0  0  0  0  0
  -68.1189   35.7537  -44.9782 S   0  0  0  0  0  0  0  0  0  0  0  0
  -67.8076   36.0269  -43.3322 C   0  0  0  0  0  0  0  0  0  0  0  0
  -66.4158   36.2069  -43.2582 C   0  0  0  0  0  0  0  0  0  0  0  0
  -66.7395   36.3759  -47.9811 C   0  0  0  0  0  0  0  0  0  0  0  0
  -66.3010   36.2411  -49.2939 C   0  0  0  0  0  0  0  0  0  0  0  0
  -65.1943   35.4547  -49.5881 C   0  0  0  0  0  0  0  0  0  0  0  0
  -64.7357   35.3124  -51.0027 C   0  0  0  0  0  0  0  0  0  0  0  0
  -64.5160   34.8050  -48.5608 C   0  0  0  0  0  0  0  0  0  0  0  0
  -64.9492   34.9443  -47.2453 C   0  0  0  0  0  0  0  0  0  0  0  0
  -66.0634   35.7297  -46.9503 C   0  0  0  0  0  0  0  0  0  0  0  0
  -65.7433   36.4814  -41.9638 C   0  0  0  0  0  0  0  0  0  0  0  0
  -65.7873   37.6235  -41.4809 O   0  0  0  0  0  0  0  0  0  0  0  0
  -65.1023   35.5958  -41.3623 O   0  0  0  0  0  0  0  0  0  0  0  0
  -66.2644   38.2999  -41.9201 H   0  0  0  0  0  0  0  0  0  0  0  0
  9  8  1  0  0  0
  8  7  2  0  0  0
  8 10  1  0  0  0
  7  6  1  0  0  0
 10 11  2  0  0  0
  6 12  2  0  0  0
 11 12  1  0  0  0
 12  1  1  0  0  0
  1  2  2  0  0  0
  1  3  1  0  0  0
  2  5  1  0  0  0
  3  4  1  0  0  0
  5  4  2  0  0  0
  5 13  1  0  0  0
 15 13  2  0  0  0
 13 14  1  0  0  0
 14 16  1  0  0  0
M  END
> <minimizedAffinity>
-4.48587

$$$$
4DHL_0K7_A_503


 16 17  0  0  0  0  0  0  0  0999 V2000
  -68.1899   35.4947  -43.7318 C   0  0  0  0  0  0  0  0  0  0  0  0
  -67.4363   36.0806  -42.7676 N   0  0  0  0  0  0  0  0  0  0  0  0
  -67.1454   35.0555  -44.9925 S   0  0  0  0  0  0  0  0  0  0  0  0
  -65.7020   35.6063  -44.2896 C   0  0  0  0  0  0  0  0  0  0  0  0
  -66.0920   36.1460  -43.0520 C   0  0  0  0  0  0  0  0  0  0  0  0
  -70.4745   35.8448  -44.7038 C   0  0  0  0  0  0  0  0  0  0  0  0
  -71.8508   35.6467  -44.6813 C   0  0  0  0  0  0  0  0  0  0  0  0
  -72.4386   34.9117  -43.6596 C   0  0  0  0  0  0  0  0  0  0  0  0
  -73.9188   34.7102  -43.6424 C   0  0  0  0  0  0  0  0  0  0  0  0
  -71.6432   34.3637  -42.6573 C   0  0  0  0  0  0  0  0  0  0  0  0
  -70.2647   34.5551  -42.6817 C   0  0  0  0  0  0  0  0  0  0  0  0
  -69.6749   35.2973  -43.7048 C   0  0  0  0  0  0  0  0  0  0  0  0
  -65.0965   36.7330  -42.1206 C   0  0  0  0  0  0  0  0  0  0  0  0
  -64.8715   36.1766  -41.0345 O   0  0  0  0  0  0  0  0  0  0  0  0
  -64.5015   37.7964  -42.3889 O   0  0  0  0  0  0  0  0  0  0  0  0
  -65.3100   35.3775  -40.8178 H   0  0  0  0  0  0  0  0  0  0  0  0
  9  8  1  0  0  0
  8  7  2  0  0  0
  8 10  1  0  0  0
  7  6  1  0  0  0
 10 11  2  0  0  0
  6 12  2  0  0  0
 11 12  1  0  0  0
 12  1  1  0  0  0
  1  2  2  0  0  0
  1  3  1  0  0  0
  2  5  1  0  0  0
  3  4  1  0  0  0
  5  4  2  0  0  0
  5 13  1  0  0  0
 15 13  2  0  0  0
 13 14  1  0  0  0
 14 16  1  0  0  0
M  END
> <minimizedAffinity>
-4.24567

$$$$
4DHL_0K7_A_503


 16 17  0  0  0  0  0  0  0  0999 V2000
  -69.9435   34.3570  -44.9831 C   0  0  0  0  0  0  0  0  0  0  0  0
  -70.6188   33.7529  -43.9733 N   0  0  0  0  0  0  0  0  0  0  0  0
  -68.5023   34.9680  -44.3329 S   0  0  0  0  0  0  0  0  0  0  0  0
  -68.7340   34.4376  -42.7373 C   0  0  0  0  0  0  0  0  0  0  0  0
  -69.9787   33.7852  -42.7562 C   0  0  0  0  0  0  0  0  0  0  0  0
  -71.0734   33.4424  -47.0261 C   0  0  0  0  0  0  0  0  0  0  0  0
  -71.5045   33.5751  -48.3416 C   0  0  0  0  0  0  0  0  0  0  0  0
  -71.2562   34.7452  -49.0480 C   0  0  0  0  0  0  0  0  0  0  0  0
  -71.7190   34.8745  -50.4625 C   0  0  0  0  0  0  0  0  0  0  0  0
  -70.5790   35.7935  -48.4316 C   0  0  0  0  0  0  0  0  0  0  0  0
  -70.1527   35.6652  -47.1128 C   0  0  0  0  0  0  0  0  0  0  0  0
  -70.3974   34.4886  -46.4050 C   0  0  0  0  0  0  0  0  0  0  0  0
  -70.5414   33.1659  -41.5303 C   0  0  0  0  0  0  0  0  0  0  0  0
  -70.6020   33.8276  -40.4824 O   0  0  0  0  0  0  0  0  0  0  0  0
  -70.9259   31.9789  -41.5180 O   0  0  0  0  0  0  0  0  0  0  0  0
  -70.3172   34.7203  -40.4748 H   0  0  0  0  0  0  0  0  0  0  0  0
  9  8  1  0  0  0
  8  7  2  0  0  0
  8 10  1  0  0  0
  7  6  1  0  0  0
 10 11  2  0  0  0
  6 12  2  0  0  0
 11 12  1  0  0  0
 12  1  1  0  0  0
  1  2  2  0  0  0
  1  3  1  0  0  0
  2  5  1  0  0  0
  3  4  1  0  0  0
  5  4  2  0  0  0
  5 13  1  0  0  0
 15 13  2  0  0  0
 13 14  1  0  0  0
 14 16  1  0  0  0
M  END
> <minimizedAffinity>
-4.08135

$$$$
4DHL_0K7_A_503


 16 17  0  0  0  0  0  0  0  0999 V2000
  -67.1680   35.7332  -44.9214 C   0  0  0  0  0  0  0  0  0  0  0  0
  -66.9156   35.1880  -46.1379 N   0  0  0  0  0  0  0  0  0  0  0  0
  -66.0847   37.0195  -44.7093 S   0  0  0  0  0  0  0  0  0  0  0  0
  -65.2897   36.8913  -46.2034 C   0  0  0  0  0  0  0  0  0  0  0  0
  -65.9072   35.8029  -46.8431 C   0  0  0  0  0  0  0  0  0  0  0  0
  -68.8944   36.1919  -43.1617 C   0  0  0  0  0  0  0  0  0  0  0  0
  -69.8547   35.7562  -42.2553 C   0  0  0  0  0  0  0  0  0  0  0  0
  -70.1149   34.4000  -42.1043 C   0  0  0  0  0  0  0  0  0  0  0  0
  -71.1447   33.9430  -41.1234 C   0  0  0  0  0  0  0  0  0  0  0  0
  -69.4152   33.4731  -42.8716 C   0  0  0  0  0  0  0  0  0  0  0  0
  -68.4583   33.9076  -43.7844 C   0  0  0  0  0  0  0  0  0  0  0  0
  -68.1934   35.2689  -43.9325 C   0  0  0  0  0  0  0  0  0  0  0  0
  -65.4896   35.3701  -48.2000 C   0  0  0  0  0  0  0  0  0  0  0  0
  -66.1769   35.6882  -49.1829 O   0  0  0  0  0  0  0  0  0  0  0  0
  -64.4775   34.6615  -48.3748 O   0  0  0  0  0  0  0  0  0  0  0  0
  -66.9400   36.2199  -49.0687 H   0  0  0  0  0  0  0  0  0  0  0  0
  9  8  1  0  0  0
  8  7  2  0  0  0
  8 10  1  0  0  0
  7  6  1  0  0  0
 10 11  2  0  0  0
  6 12  2  0  0  0
 11 12  1  0  0  0
 12  1  1  0  0  0
  1  2  2  0  0  0
  1  3  1  0  0  0
  2  5  1  0  0  0
  3  4  1  0  0  0
  5  4  2  0  0  0
  5 13  1  0  0  0
 15 13  2  0  0  0
 13 14  1  0  0  0
 14 16  1  0  0  0
M  END
> <minimizedAffinity>
-3.96886

$$$$
4DHL_0K7_A_503


 16 17  0  0  0  0  0  0  0  0999 V2000
  -68.3026   35.2623  -44.3487 C   0  0  0  0  0  0  0  0  0  0  0  0
  -67.4742   34.3635  -44.9373 N   0  0  0  0  0  0  0  0  0  0  0  0
  -67.3469   36.5565  -43.8149 S   0  0  0  0  0  0  0  0  0  0  0  0
  -65.8505   35.9693  -44.3596 C   0  0  0  0  0  0  0  0  0  0  0  0
  -66.1488   34.7312  -44.9538 C   0  0  0  0  0  0  0  0  0  0  0  0
  -70.6502   35.5108  -45.1937 C   0  0  0  0  0  0  0  0  0  0  0  0
  -72.0242   35.3700  -45.0314 C   0  0  0  0  0  0  0  0  0  0  0  0
  -72.5433   34.8560  -43.8498 C   0  0  0  0  0  0  0  0  0  0  0  0
  -74.0212   34.7145  -43.6842 C   0  0  0  0  0  0  0  0  0  0  0  0
  -71.6816   34.4723  -42.8262 C   0  0  0  0  0  0  0  0  0  0  0  0
  -70.3058   34.6061  -42.9895 C   0  0  0  0  0  0  0  0  0  0  0  0
  -69.7846   35.1268  -44.1737 C   0  0  0  0  0  0  0  0  0  0  0  0
  -65.0858   33.8957  -45.5662 C   0  0  0  0  0  0  0  0  0  0  0  0
  -64.8454   34.0024  -46.7788 O   0  0  0  0  0  0  0  0  0  0  0  0
  -64.4474   33.0594  -44.8953 O   0  0  0  0  0  0  0  0  0  0  0  0
  -65.3160   34.6255  -47.2967 H   0  0  0  0  0  0  0  0  0  0  0  0
  9  8  1  0  0  0
  8  7  2  0  0  0
  8 10  1  0  0  0
  7  6  1  0  0  0
 10 11  2  0  0  0
  6 12  2  0  0  0
 11 12  1  0  0  0
 12  1  1  0  0  0
  1  2  2  0  0  0
  1  3  1  0  0  0
  2  5  1  0  0  0
  3  4  1  0  0  0
  5  4  2  0  0  0
  5 13  1  0  0  0
 15 13  2  0  0  0
 13 14  1  0  0  0
 14 16  1  0  0  0
M  END
> <minimizedAffinity>
-3.85174

$$$$
