2YAY_DUP_A_1265
  RCSB PDB12061707353D
Coordinates from PDB:2YAY:A:1265 Model:1 without hydrogens
 28 29  0  0  0  0            999 V2000
   -5.8790   28.1630   -4.0830   O 0  0  0  0  0  0  0  0  0  0  0  0
   -6.9370   28.7960   -3.5900   C 0  0  0  0  0  0  0  0  0  0  0  0
   -7.9880   29.0280   -4.5010   C 0  0  0  0  0  0  0  0  0  0  0  0
   -9.1340   29.6000   -4.0120   C 0  0  0  0  0  0  0  0  0  0  0  0
   -7.0560   29.1280   -2.2860   N 0  0  0  0  0  0  0  0  0  0  0  0
   -8.1760   29.7010   -1.8490   C 0  0  0  0  0  0  0  0  0  0  0  0
   -8.2680   30.0760   -0.6660   O 0  0  0  0  0  0  0  0  0  0  0  0
   -9.2000   29.9760   -2.7150   N 0  0  0  0  0  0  0  0  0  0  0  0
  -10.4170   30.6040   -2.2050   C 0  0  0  0  0  0  0  0  0  0  0  0
  -10.2720   31.9760   -1.6370   C 0  0  0  0  0  0  0  0  0  0  0  0
  -11.6010   32.6620   -1.8040   C 0  0  0  0  0  0  0  0  0  0  0  0
  -12.2980   32.8540   -0.5440   O 0  0  0  0  0  0  0  0  0  0  0  0
  -11.4380   30.7800   -3.2210   O 0  0  0  0  0  0  0  0  0  0  0  0
  -12.3400   31.7200   -2.7070   C 0  0  0  0  0  0  0  0  0  0  0  0
  -12.9910   32.3640   -3.9130   C 0  0  0  0  0  0  0  0  0  0  0  0
  -13.5650   31.3400   -4.7380   O 0  0  0  0  0  0  0  0  0  0  0  0
  -14.4530   31.7580   -6.0610   P 0  0  0  0  0  0  0  0  0  0  0  0
  -14.4520   30.5530   -6.9150   O 0  0  0  0  0  0  0  0  0  0  0  0
  -13.8830   33.0630   -6.5690   O 0  0  0  0  0  0  0  0  0  0  0  0
  -16.0440   32.0980   -5.6570   N 0  0  0  0  0  0  0  0  0  0  0  0
  -16.5870   33.3430   -4.6940   P 0  0  0  0  0  0  0  0  0  0  0  0
  -15.8360   34.7270   -4.8210   O 0  0  0  0  0  0  0  0  0  0  0  0
  -16.6840   32.8670   -3.2470   O 0  0  0  0  0  0  0  0  0  0  0  0
  -18.0240   33.5690   -5.4180   O 0  0  0  0  0  0  0  0  0  0  0  0
  -18.0470   33.8930   -7.0420   P 0  0  0  0  0  0  0  0  0  0  0  0
  -18.1110   32.5770   -7.8260   O 0  0  0  0  0  0  0  0  0  0  0  0
  -16.7590   34.6080   -7.5350   O 0  0  0  0  0  0  0  0  0  0  0  0
  -19.2700   34.7670   -7.0640   O 0  0  0  0  0  0  0  0  0  0  0  0
  1  2  2  0  0  0  0
  2  3  1  0  0  0  0
  2  5  1  0  0  0  0
  3  4  2  0  0  0  0
  4  8  1  0  0  0  0
  5  6  1  0  0  0  0
  6  7  2  0  0  0  0
  6  8  1  0  0  0  0
  8  9  1  0  0  0  0
  9 10  1  0  0  0  0
  9 13  1  0  0  0  0
 10 11  1  0  0  0  0
 11 12  1  0  0  0  0
 11 14  1  0  0  0  0
 13 14  1  0  0  0  0
 14 15  1  0  0  0  0
 15 16  1  0  0  0  0
 16 17  1  0  0  0  0
 17 18  2  0  0  0  0
 17 19  1  0  0  0  0
 17 20  1  0  0  0  0
 20 21  1  0  0  0  0
 21 22  2  0  0  0  0
 21 23  1  0  0  0  0
 21 24  1  0  0  0  0
 24 25  1  0  0  0  0
 25 26  2  0  0  0  0
 25 27  1  0  0  0  0
 25 28  1  0  0  0  0
A    1
O4
A    2
C4
A    3
C5
A    4
C6
A    5
N3
A    6
C2
A    7
O2
A    8
N1
A    9
C1'
A   10
C2'
A   11
C3'
A   12
O3'
A   13
O4'
A   14
C4'
A   15
C5'
A   16
O5'
A   17
PA
A   18
O1A
A   19
O2A
A   20
N3A
A   21
PB
A   22
O1B
A   23
O2B
A   24
O3B
A   25
PG
A   26
O2G
A   27
O1G
A   28
O3G
M  END
>  <InstanceId>
2YAY_DUP_A_1265

>  <ChemCompId>
DUP

>  <PdbId>
2YAY

>  <ChainId>
A

>  <ResidueNumber>
1265

>  <InsertionCode>


>  <Model>
1

>  <AltIds>


>  <MissingHeavyAtoms>
0

>  <ObservedFormula>
C9 N3 O13 P3

>  <Name>
2'-DEOXYURIDINE 5'-ALPHA,BETA-IMIDO-TRIPHOSPHATE

>  <SystematicName>
[(2R,3S,5R)-5-(2,4-dioxopyrimidin-1-yl)-3-hydroxy-oxolan-2-yl]methoxy-N-(hydroxy-phosphonooxy-phosphoryl)phosphonamidic acid

>  <Synonyms>


>  <Type>
NON-POLYMER

>  <Formula>
C9 H16 N3 O13 P3

>  <MolecularWeight>
467.157

>  <ModifiedDate>
2011-06-04

>  <Parent>


>  <OneLetterCode>


>  <SubcomponentList>


>  <AmbiguousFlag>
N

>  <InChI>
InChI=1S/C9H16N3O13P3/c13-5-3-8(12-2-1-7(14)10-9(12)15)24-6(5)4-23-26(16,17)11-27(18,19)25-28(20,21)22/h1-2,5-6,8,13H,3-4H2,(H,10,14,15)(H2,20,21,22)(H3,11,16,17,18,19)/t5-,6+,8+/m0/s1

>  <InChIKey>
XZLLMTSKYYYJLH-SHYZEUOFSA-N

>  <SMILES>
C1[C@@H]([C@H](O[C@H]1N2C=CC(=O)NC2=O)CO[P@](=O)(N[P@@](=O)(O)OP(=O)(O)O)O)O

$$$$
