5EFH_FKS_D_2004


 22 21  0  0  0  0  0  0  0  0999 V2000
   83.4361  189.3834  135.9921 C   0  0  0  0  0  0  0  0  0  0  0  0
   82.1231  188.9604  135.3320 C   0  0  0  0  0  0  0  0  0  0  0  0
   81.6727  189.9412  134.2375 C   0  0  0  0  0  0  0  0  0  0  0  0
   80.2459  190.0080  134.1708 N   0  0  0  0  0  0  0  0  0  0  0  0
   79.9351  190.9290  134.4798 H   0  0  0  0  0  0  0  0  0  0  0  0
   79.6668  188.9910  135.0285 C   0  0  0  0  0  0  0  0  0  0  0  0
   78.6890  188.0892  134.2174 C   0  0  0  0  0  0  0  0  0  0  0  0
   79.4323  186.9382  133.4870 C   0  0  0  0  0  0  0  0  0  0  0  0
   80.1348  186.1049  134.4415 N   0  0  0  0  0  0  0  0  0  0  0  0
   79.4655  185.6981  135.0950 H   0  0  0  0  0  0  0  0  0  0  0  0
   80.8101  186.6713  134.9550 H   0  0  0  0  0  0  0  0  0  0  0  0
   83.9235  188.3794  137.0318 C   0  0  0  0  0  0  0  0  0  0  0  0
   84.7586  189.0565  138.1065 C   0  0  0  0  0  0  0  0  0  0  0  0
   85.5655  188.0656  138.9269 C   0  0  0  0  0  0  0  0  0  0  0  0
   84.6673  187.2791  139.6766 O   0  0  0  0  0  0  0  0  0  0  0  0
   86.3552  187.2435  138.0930 O   0  0  0  0  0  0  0  0  0  0  0  0
   84.0757  187.6877  140.2775 H   0  0  0  0  0  0  0  0  0  0  0  0
   87.0010  187.6271  137.5330 H   0  0  0  0  0  0  0  0  0  0  0  0
   86.5143  188.7975  139.8620 C   0  0  0  0  0  0  0  0  0  0  0  0
   85.8498  189.3870  140.8578 F   0  0  0  0  0  0  0  0  0  0  0  0
   87.1520  189.7353  139.1551 F   0  0  0  0  0  0  0  0  0  0  0  0
   87.3869  187.9346  140.3745 F   0  0  0  0  0  0  0  0  0  0  0  0
 15 14  1  0  0  0
 21 19  1  0  0  0
 16 14  1  0  0  0
 14 19  1  0  0  0
 14 13  1  0  0  0
 19 22  1  0  0  0
 19 20  1  0  0  0
  8  9  1  0  0  0
  8  7  1  0  0  0
 12 13  1  0  0  0
 12  1  1  0  0  0
  2  1  1  0  0  0
  2  3  1  0  0  0
  6  7  1  0  0  0
  6  4  1  0  0  0
  4  3  1  0  0  0
  4  5  1  0  0  0
  9 10  1  0  0  0
  9 11  1  0  0  0
 15 17  1  0  0  0
 16 18  1  0  0  0
M  END
> <minimizedAffinity>
-6.42337

$$$$
5EFH_FKS_D_2004


 22 21  0  0  0  0  0  0  0  0999 V2000
   81.4716  189.6230  134.3622 C   0  0  0  0  0  0  0  0  0  0  0  0
   82.3211  188.8376  135.3622 C   0  0  0  0  0  0  0  0  0  0  0  0
   83.4296  189.6954  135.9931 C   0  0  0  0  0  0  0  0  0  0  0  0
   84.4919  188.8731  136.4829 N   0  0  0  0  0  0  0  0  0  0  0  0
   84.6360  188.0902  135.8452 H   0  0  0  0  0  0  0  0  0  0  0  0
   84.1525  188.3662  137.7994 C   0  0  0  0  0  0  0  0  0  0  0  0
   85.4264  187.8347  138.5217 C   0  0  0  0  0  0  0  0  0  0  0  0
   86.1602  188.9571  139.3045 C   0  0  0  0  0  0  0  0  0  0  0  0
   87.0783  188.3838  140.2674 N   0  0  0  0  0  0  0  0  0  0  0  0
   87.7731  187.8183  139.7798 H   0  0  0  0  0  0  0  0  0  0  0  0
   86.5614  187.7972  140.9225 H   0  0  0  0  0  0  0  0  0  0  0  0
   80.6036  188.7215  133.4901 C   0  0  0  0  0  0  0  0  0  0  0  0
   80.3456  187.3827  134.1624 C   0  0  0  0  0  0  0  0  0  0  0  0
   79.3243  186.5434  133.4148 C   0  0  0  0  0  0  0  0  0  0  0  0
   78.0538  186.7962  133.9711 O   0  0  0  0  0  0  0  0  0  0  0  0
   79.3247  186.8551  132.0373 O   0  0  0  0  0  0  0  0  0  0  0  0
   77.9007  186.6358  134.8815 H   0  0  0  0  0  0  0  0  0  0  0  0
   80.1040  186.7376  131.5306 H   0  0  0  0  0  0  0  0  0  0  0  0
   79.6569  185.0656  133.5395 C   0  0  0  0  0  0  0  0  0  0  0  0
   80.8165  184.7809  132.9438 F   0  0  0  0  0  0  0  0  0  0  0  0
   78.6841  184.3697  132.9435 F   0  0  0  0  0  0  0  0  0  0  0  0
   79.7377  184.7352  134.8253 F   0  0  0  0  0  0  0  0  0  0  0  0
 15 14  1  0  0  0
 21 19  1  0  0  0
 16 14  1  0  0  0
 14 19  1  0  0  0
 14 13  1  0  0  0
 19 22  1  0  0  0
 19 20  1  0  0  0
  8  9  1  0  0  0
  8  7  1  0  0  0
 12 13  1  0  0  0
 12  1  1  0  0  0
  2  1  1  0  0  0
  2  3  1  0  0  0
  6  7  1  0  0  0
  6  4  1  0  0  0
  4  3  1  0  0  0
  4  5  1  0  0  0
  9 10  1  0  0  0
  9 11  1  0  0  0
 15 17  1  0  0  0
 16 18  1  0  0  0
M  END
> <minimizedAffinity>
-6.06600

$$$$
5EFH_FKS_D_2004


 22 21  0  0  0  0  0  0  0  0999 V2000
   81.0366  189.0311  134.4852 C   0  0  0  0  0  0  0  0  0  0  0  0
   82.3675  189.4080  135.1372 C   0  0  0  0  0  0  0  0  0  0  0  0
   82.7420  188.4684  136.2947 C   0  0  0  0  0  0  0  0  0  0  0  0
   84.1604  188.4140  136.4665 N   0  0  0  0  0  0  0  0  0  0  0  0
   84.5406  187.6512  135.9062 H   0  0  0  0  0  0  0  0  0  0  0  0
   84.4767  188.1892  137.8646 C   0  0  0  0  0  0  0  0  0  0  0  0
   85.2262  189.4200  138.4565 C   0  0  0  0  0  0  0  0  0  0  0  0
   86.1824  189.0165  139.6115 C   0  0  0  0  0  0  0  0  0  0  0  0
   86.5369  187.6156  139.5073 N   0  0  0  0  0  0  0  0  0  0  0  0
   87.0101  187.4498  138.6190 H   0  0  0  0  0  0  0  0  0  0  0  0
   85.6917  187.0466  139.5538 H   0  0  0  0  0  0  0  0  0  0  0  0
   80.7321  187.5398  134.5863 C   0  0  0  0  0  0  0  0  0  0  0  0
   79.9215  187.0581  133.3939 C   0  0  0  0  0  0  0  0  0  0  0  0
   79.4868  185.6097  133.5327 C   0  0  0  0  0  0  0  0  0  0  0  0
   79.9046  184.9116  132.3814 O   0  0  0  0  0  0  0  0  0  0  0  0
   80.0461  185.0226  134.6891 O   0  0  0  0  0  0  0  0  0  0  0  0
   79.6124  185.1871  131.5348 H   0  0  0  0  0  0  0  0  0  0  0  0
   79.8571  185.3802  135.5343 H   0  0  0  0  0  0  0  0  0  0  0  0
   77.9759  185.5189  133.6707 C   0  0  0  0  0  0  0  0  0  0  0  0
   77.6231  184.4815  134.4323 F   0  0  0  0  0  0  0  0  0  0  0  0
   77.4571  185.3537  132.4503 F   0  0  0  0  0  0  0  0  0  0  0  0
   77.5119  186.6376  134.2204 F   0  0  0  0  0  0  0  0  0  0  0  0
 15 14  1  0  0  0
 21 19  1  0  0  0
 16 14  1  0  0  0
 14 19  1  0  0  0
 14 13  1  0  0  0
 19 22  1  0  0  0
 19 20  1  0  0  0
  8  9  1  0  0  0
  8  7  1  0  0  0
 12 13  1  0  0  0
 12  1  1  0  0  0
  2  1  1  0  0  0
  2  3  1  0  0  0
  6  7  1  0  0  0
  6  4  1  0  0  0
  4  3  1  0  0  0
  4  5  1  0  0  0
  9 10  1  0  0  0
  9 11  1  0  0  0
 15 17  1  0  0  0
 16 18  1  0  0  0
M  END
> <minimizedAffinity>
-5.90228

$$$$
5EFH_FKS_D_2004


 22 21  0  0  0  0  0  0  0  0999 V2000
   80.1951  189.5293  132.3187 C   0  0  0  0  0  0  0  0  0  0  0  0
   79.2897  188.2976  132.3600 C   0  0  0  0  0  0  0  0  0  0  0  0
   78.5310  188.0813  131.0408 C   0  0  0  0  0  0  0  0  0  0  0  0
   78.3856  186.6867  130.7609 N   0  0  0  0  0  0  0  0  0  0  0  0
   77.3944  186.4469  130.7399 H   0  0  0  0  0  0  0  0  0  0  0  0
   79.0482  185.9082  131.7905 C   0  0  0  0  0  0  0  0  0  0  0  0
   79.7335  184.6555  131.1675 C   0  0  0  0  0  0  0  0  0  0  0  0
   79.4173  184.5139  129.6540 C   0  0  0  0  0  0  0  0  0  0  0  0
   80.4156  185.2041  128.8629 N   0  0  0  0  0  0  0  0  0  0  0  0
   81.3334  184.7976  129.0439 H   0  0  0  0  0  0  0  0  0  0  0  0
   80.4256  186.1923  129.1151 H   0  0  0  0  0  0  0  0  0  0  0  0
   80.4128  190.1473  133.6961 C   0  0  0  0  0  0  0  0  0  0  0  0
   81.7838  189.7953  134.2506 C   0  0  0  0  0  0  0  0  0  0  0  0
   81.7316  188.6528  135.2497 C   0  0  0  0  0  0  0  0  0  0  0  0
   80.5295  188.7589  135.9785 O   0  0  0  0  0  0  0  0  0  0  0  0
   81.7957  187.4039  134.5933 O   0  0  0  0  0  0  0  0  0  0  0  0
   80.3455  189.5364  136.4681 H   0  0  0  0  0  0  0  0  0  0  0  0
   82.5407  187.1887  134.0675 H   0  0  0  0  0  0  0  0  0  0  0  0
   82.9173  188.7214  136.1982 C   0  0  0  0  0  0  0  0  0  0  0  0
   83.8740  187.8645  135.8362 F   0  0  0  0  0  0  0  0  0  0  0  0
   82.4889  188.3972  137.4218 F   0  0  0  0  0  0  0  0  0  0  0  0
   83.4165  189.9541  136.1970 F   0  0  0  0  0  0  0  0  0  0  0  0
 15 14  1  0  0  0
 21 19  1  0  0  0
 16 14  1  0  0  0
 14 19  1  0  0  0
 14 13  1  0  0  0
 19 22  1  0  0  0
 19 20  1  0  0  0
  8  9  1  0  0  0
  8  7  1  0  0  0
 12 13  1  0  0  0
 12  1  1  0  0  0
  2  1  1  0  0  0
  2  3  1  0  0  0
  6  7  1  0  0  0
  6  4  1  0  0  0
  4  3  1  0  0  0
  4  5  1  0  0  0
  9 10  1  0  0  0
  9 11  1  0  0  0
 15 17  1  0  0  0
 16 18  1  0  0  0
M  END
> <minimizedAffinity>
-5.87395

$$$$
5EFH_FKS_D_2004


 22 21  0  0  0  0  0  0  0  0999 V2000
   82.5846  188.6281  136.6490 C   0  0  0  0  0  0  0  0  0  0  0  0
   82.0193  188.2275  135.2857 C   0  0  0  0  0  0  0  0  0  0  0  0
   80.6351  188.8408  135.0201 C   0  0  0  0  0  0  0  0  0  0  0  0
   80.6735  189.7098  133.8852 N   0  0  0  0  0  0  0  0  0  0  0  0
   81.6125  190.0954  133.7853 H   0  0  0  0  0  0  0  0  0  0  0  0
   79.7244  190.7926  134.0644 C   0  0  0  0  0  0  0  0  0  0  0  0
   78.4826  190.2992  134.8654 C   0  0  0  0  0  0  0  0  0  0  0  0
   77.3267  191.3356  134.8398 C   0  0  0  0  0  0  0  0  0  0  0  0
   77.6652  192.4896  135.6477 N   0  0  0  0  0  0  0  0  0  0  0  0
   78.5067  192.9301  135.2758 H   0  0  0  0  0  0  0  0  0  0  0  0
   77.8330  192.1939  136.6094 H   0  0  0  0  0  0  0  0  0  0  0  0
   84.0609  188.2760  136.8015 C   0  0  0  0  0  0  0  0  0  0  0  0
   84.6760  188.9765  138.0023 C   0  0  0  0  0  0  0  0  0  0  0  0
   85.5080  188.0390  138.8597 C   0  0  0  0  0  0  0  0  0  0  0  0
   84.6296  187.2418  139.6214 O   0  0  0  0  0  0  0  0  0  0  0  0
   86.3370  187.2231  138.0585 O   0  0  0  0  0  0  0  0  0  0  0  0
   84.0163  187.6453  140.2036 H   0  0  0  0  0  0  0  0  0  0  0  0
   86.9754  187.6141  137.4950 H   0  0  0  0  0  0  0  0  0  0  0  0
   86.4182  188.8310  139.7841 C   0  0  0  0  0  0  0  0  0  0  0  0
   85.7199  189.4288  140.7515 F   0  0  0  0  0  0  0  0  0  0  0  0
   87.0352  189.7670  139.0568 F   0  0  0  0  0  0  0  0  0  0  0  0
   87.3110  188.0140  140.3357 F   0  0  0  0  0  0  0  0  0  0  0  0
 15 14  1  0  0  0
 21 19  1  0  0  0
 16 14  1  0  0  0
 14 19  1  0  0  0
 14 13  1  0  0  0
 19 22  1  0  0  0
 19 20  1  0  0  0
  8  9  1  0  0  0
  8  7  1  0  0  0
 12 13  1  0  0  0
 12  1  1  0  0  0
  2  1  1  0  0  0
  2  3  1  0  0  0
  6  7  1  0  0  0
  6  4  1  0  0  0
  4  3  1  0  0  0
  4  5  1  0  0  0
  9 10  1  0  0  0
  9 11  1  0  0  0
 15 17  1  0  0  0
 16 18  1  0  0  0
M  END
> <minimizedAffinity>
-5.82320

$$$$
5EFH_FKS_D_2004


 22 21  0  0  0  0  0  0  0  0999 V2000
   79.5488  190.4594  132.8693 C   0  0  0  0  0  0  0  0  0  0  0  0
   79.6214  189.0625  132.2513 C   0  0  0  0  0  0  0  0  0  0  0  0
   78.3600  188.2298  132.5309 C   0  0  0  0  0  0  0  0  0  0  0  0
   78.5593  187.3666  133.6532 N   0  0  0  0  0  0  0  0  0  0  0  0
   79.4294  186.8483  133.5318 H   0  0  0  0  0  0  0  0  0  0  0  0
   77.4530  186.4335  133.7567 C   0  0  0  0  0  0  0  0  0  0  0  0
   77.9798  184.9677  133.7859 C   0  0  0  0  0  0  0  0  0  0  0  0
   79.1513  184.7525  132.7898 C   0  0  0  0  0  0  0  0  0  0  0  0
   80.4167  185.0610  133.4242 N   0  0  0  0  0  0  0  0  0  0  0  0
   80.5535  184.4462  134.2266 H   0  0  0  0  0  0  0  0  0  0  0  0
   80.4126  186.0320  133.7366 H   0  0  0  0  0  0  0  0  0  0  0  0
   80.4095  190.5956  134.1212 C   0  0  0  0  0  0  0  0  0  0  0  0
   81.6157  189.6720  134.0671 C   0  0  0  0  0  0  0  0  0  0  0  0
   81.5767  188.6004  135.1425 C   0  0  0  0  0  0  0  0  0  0  0  0
   80.3789  188.7497  135.8706 O   0  0  0  0  0  0  0  0  0  0  0  0
   81.6438  187.3098  134.5728 O   0  0  0  0  0  0  0  0  0  0  0  0
   80.1936  189.5579  136.3071 H   0  0  0  0  0  0  0  0  0  0  0  0
   82.3867  187.0631  134.0577 H   0  0  0  0  0  0  0  0  0  0  0  0
   82.7682  188.7402  136.0758 C   0  0  0  0  0  0  0  0  0  0  0  0
   82.4166  188.5143  137.3431 F   0  0  0  0  0  0  0  0  0  0  0  0
   83.2310  189.9897  135.9732 F   0  0  0  0  0  0  0  0  0  0  0  0
   83.7113  187.8700  135.7260 F   0  0  0  0  0  0  0  0  0  0  0  0
 15 14  1  0  0  0
 21 19  1  0  0  0
 16 14  1  0  0  0
 14 19  1  0  0  0
 14 13  1  0  0  0
 19 22  1  0  0  0
 19 20  1  0  0  0
  8  9  1  0  0  0
  8  7  1  0  0  0
 12 13  1  0  0  0
 12  1  1  0  0  0
  2  1  1  0  0  0
  2  3  1  0  0  0
  6  7  1  0  0  0
  6  4  1  0  0  0
  4  3  1  0  0  0
  4  5  1  0  0  0
  9 10  1  0  0  0
  9 11  1  0  0  0
 15 17  1  0  0  0
 16 18  1  0  0  0
M  END
> <minimizedAffinity>
-5.66327

$$$$
5EFH_FKS_D_2004


 22 21  0  0  0  0  0  0  0  0999 V2000
   79.7731  185.5688  133.7788 C   0  0  0  0  0  0  0  0  0  0  0  0
   78.5503  184.6569  133.8875 C   0  0  0  0  0  0  0  0  0  0  0  0
   78.0330  184.2011  132.5137 C   0  0  0  0  0  0  0  0  0  0  0  0
   78.9799  184.5069  131.4869 N   0  0  0  0  0  0  0  0  0  0  0  0
   79.7465  185.0502  131.8839 H   0  0  0  0  0  0  0  0  0  0  0  0
   78.3358  185.2768  130.4392 C   0  0  0  0  0  0  0  0  0  0  0  0
   79.0842  186.6250  130.2177 C   0  0  0  0  0  0  0  0  0  0  0  0
   80.1670  186.5123  129.1106 C   0  0  0  0  0  0  0  0  0  0  0  0
   80.3481  185.1289  128.7205 N   0  0  0  0  0  0  0  0  0  0  0  0
   79.4695  184.7605  128.3563 H   0  0  0  0  0  0  0  0  0  0  0  0
   80.6359  184.5817  129.5318 H   0  0  0  0  0  0  0  0  0  0  0  0
   79.4551  187.0233  134.1105 C   0  0  0  0  0  0  0  0  0  0  0  0
   80.4361  187.9714  133.4399 C   0  0  0  0  0  0  0  0  0  0  0  0
   80.7451  189.1886  134.2937 C   0  0  0  0  0  0  0  0  0  0  0  0
   81.1724  190.2276  133.4422 O   0  0  0  0  0  0  0  0  0  0  0  0
   79.6076  189.5945  135.0259 O   0  0  0  0  0  0  0  0  0  0  0  0
   81.9203  190.1042  132.8914 H   0  0  0  0  0  0  0  0  0  0  0  0
   79.2088  189.0059  135.6362 H   0  0  0  0  0  0  0  0  0  0  0  0
   81.8357  188.8674  135.3026 C   0  0  0  0  0  0  0  0  0  0  0  0
   81.3177  188.5970  136.5022 F   0  0  0  0  0  0  0  0  0  0  0  0
   82.6313  189.9360  135.4077 F   0  0  0  0  0  0  0  0  0  0  0  0
   82.5322  187.8145  134.8839 F   0  0  0  0  0  0  0  0  0  0  0  0
 15 14  1  0  0  0
 21 19  1  0  0  0
 16 14  1  0  0  0
 14 19  1  0  0  0
 14 13  1  0  0  0
 19 22  1  0  0  0
 19 20  1  0  0  0
  8  9  1  0  0  0
  8  7  1  0  0  0
 12 13  1  0  0  0
 12  1  1  0  0  0
  2  1  1  0  0  0
  2  3  1  0  0  0
  6  7  1  0  0  0
  6  4  1  0  0  0
  4  3  1  0  0  0
  4  5  1  0  0  0
  9 10  1  0  0  0
  9 11  1  0  0  0
 15 17  1  0  0  0
 16 18  1  0  0  0
M  END
> <minimizedAffinity>
-5.53846

$$$$
5EFH_FKS_D_2004


 22 21  0  0  0  0  0  0  0  0999 V2000
   80.6815  188.6585  133.7591 C   0  0  0  0  0  0  0  0  0  0  0  0
   80.5053  188.5229  135.2721 C   0  0  0  0  0  0  0  0  0  0  0  0
   81.8447  188.3540  136.0070 C   0  0  0  0  0  0  0  0  0  0  0  0
   82.8450  189.2059  135.4428 N   0  0  0  0  0  0  0  0  0  0  0  0
   83.2780  188.7386  134.6463 H   0  0  0  0  0  0  0  0  0  0  0  0
   83.8584  189.4988  136.4390 C   0  0  0  0  0  0  0  0  0  0  0  0
   83.9974  188.3112  137.4377 C   0  0  0  0  0  0  0  0  0  0  0  0
   85.1800  188.5169  138.4226 C   0  0  0  0  0  0  0  0  0  0  0  0
   86.1247  187.4241  138.3125 N   0  0  0  0  0  0  0  0  0  0  0  0
   86.4939  187.3881  137.3624 H   0  0  0  0  0  0  0  0  0  0  0  0
   85.6543  186.5450  138.5280 H   0  0  0  0  0  0  0  0  0  0  0  0
   79.9312  187.5833  132.9796 C   0  0  0  0  0  0  0  0  0  0  0  0
   79.9824  186.2431  133.6953 C   0  0  0  0  0  0  0  0  0  0  0  0
   78.7373  185.4074  133.4554 C   0  0  0  0  0  0  0  0  0  0  0  0
   78.6672  184.4219  134.4609 O   0  0  0  0  0  0  0  0  0  0  0  0
   77.5765  186.2115  133.4784 O   0  0  0  0  0  0  0  0  0  0  0  0
   79.3696  183.8109  134.5679 H   0  0  0  0  0  0  0  0  0  0  0  0
   77.4800  186.9127  132.8644 H   0  0  0  0  0  0  0  0  0  0  0  0
   78.7965  184.7457  132.0883 C   0  0  0  0  0  0  0  0  0  0  0  0
   78.0615  183.6323  132.0597 F   0  0  0  0  0  0  0  0  0  0  0  0
   80.0698  184.4280  131.8360 F   0  0  0  0  0  0  0  0  0  0  0  0
   78.3413  185.5892  131.1662 F   0  0  0  0  0  0  0  0  0  0  0  0
 15 14  1  0  0  0
 21 19  1  0  0  0
 16 14  1  0  0  0
 14 19  1  0  0  0
 14 13  1  0  0  0
 19 22  1  0  0  0
 19 20  1  0  0  0
  8  9  1  0  0  0
  8  7  1  0  0  0
 12 13  1  0  0  0
 12  1  1  0  0  0
  2  1  1  0  0  0
  2  3  1  0  0  0
  6  7  1  0  0  0
  6  4  1  0  0  0
  4  3  1  0  0  0
  4  5  1  0  0  0
  9 10  1  0  0  0
  9 11  1  0  0  0
 15 17  1  0  0  0
 16 18  1  0  0  0
M  END
> <minimizedAffinity>
-5.53071

$$$$
5EFH_FKS_D_2004


 22 21  0  0  0  0  0  0  0  0999 V2000
   82.0018  188.3599  136.6934 C   0  0  0  0  0  0  0  0  0  0  0  0
   82.6678  189.2487  135.6421 C   0  0  0  0  0  0  0  0  0  0  0  0
   81.8781  189.2927  134.3241 C   0  0  0  0  0  0  0  0  0  0  0  0
   81.2738  190.5749  134.1362 N   0  0  0  0  0  0  0  0  0  0  0  0
   81.2799  191.0850  135.0194 H   0  0  0  0  0  0  0  0  0  0  0  0
   79.9050  190.4103  133.6841 C   0  0  0  0  0  0  0  0  0  0  0  0
   79.0416  191.6352  134.1098 C   0  0  0  0  0  0  0  0  0  0  0  0
   78.1262  192.1285  132.9566 C   0  0  0  0  0  0  0  0  0  0  0  0
   78.8606  192.1620  131.7082 N   0  0  0  0  0  0  0  0  0  0  0  0
   79.1918  191.2238  131.4833 H   0  0  0  0  0  0  0  0  0  0  0  0
   79.6580  192.7913  131.7996 H   0  0  0  0  0  0  0  0  0  0  0  0
   82.9798  187.8709  137.7569 C   0  0  0  0  0  0  0  0  0  0  0  0
   84.3502  188.5056  137.5828 C   0  0  0  0  0  0  0  0  0  0  0  0
   85.3485  188.0293  138.6234 C   0  0  0  0  0  0  0  0  0  0  0  0
   84.6527  187.2726  139.5881 O   0  0  0  0  0  0  0  0  0  0  0  0
   86.3638  187.2477  138.0294 O   0  0  0  0  0  0  0  0  0  0  0  0
   83.9473  187.6601  140.0679 H   0  0  0  0  0  0  0  0  0  0  0  0
   86.9126  187.6179  137.3663 H   0  0  0  0  0  0  0  0  0  0  0  0
   86.0279  189.2145  139.2897 C   0  0  0  0  0  0  0  0  0  0  0  0
   87.2183  189.4596  138.7387 F   0  0  0  0  0  0  0  0  0  0  0  0
   86.2035  188.9196  140.5813 F   0  0  0  0  0  0  0  0  0  0  0  0
   85.2617  190.2943  139.1643 F   0  0  0  0  0  0  0  0  0  0  0  0
 15 14  1  0  0  0
 21 19  1  0  0  0
 16 14  1  0  0  0
 14 19  1  0  0  0
 14 13  1  0  0  0
 19 22  1  0  0  0
 19 20  1  0  0  0
  8  9  1  0  0  0
  8  7  1  0  0  0
 12 13  1  0  0  0
 12  1  1  0  0  0
  2  1  1  0  0  0
  2  3  1  0  0  0
  6  7  1  0  0  0
  6  4  1  0  0  0
  4  3  1  0  0  0
  4  5  1  0  0  0
  9 10  1  0  0  0
  9 11  1  0  0  0
 15 17  1  0  0  0
 16 18  1  0  0  0
M  END
> <minimizedAffinity>
-5.50581

$$$$
5EFH_FKS_D_2004


 22 21  0  0  0  0  0  0  0  0999 V2000
   80.3416  189.5135  132.3877 C   0  0  0  0  0  0  0  0  0  0  0  0
   78.8867  189.1629  132.0736 C   0  0  0  0  0  0  0  0  0  0  0  0
   78.7632  188.1014  130.9688 C   0  0  0  0  0  0  0  0  0  0  0  0
   79.9009  188.1339  130.1033 N   0  0  0  0  0  0  0  0  0  0  0  0
   80.5282  188.8830  130.3963 H   0  0  0  0  0  0  0  0  0  0  0  0
   79.4717  188.3712  128.7378 C   0  0  0  0  0  0  0  0  0  0  0  0
   79.5368  189.8916  128.4045 C   0  0  0  0  0  0  0  0  0  0  0  0
   80.8942  190.5193  128.8222 C   0  0  0  0  0  0  0  0  0  0  0  0
   80.6922  191.8525  129.3519 N   0  0  0  0  0  0  0  0  0  0  0  0
   80.0887  191.8044  130.1728 H   0  0  0  0  0  0  0  0  0  0  0  0
   80.2535  192.4380  128.6411 H   0  0  0  0  0  0  0  0  0  0  0  0
   80.5095  190.1592  133.7594 C   0  0  0  0  0  0  0  0  0  0  0  0
   81.8692  189.8393  134.3594 C   0  0  0  0  0  0  0  0  0  0  0  0
   81.8206  188.6603  135.3153 C   0  0  0  0  0  0  0  0  0  0  0  0
   80.6116  188.7275  136.0372 O   0  0  0  0  0  0  0  0  0  0  0  0
   81.9027  187.4372  134.6139 O   0  0  0  0  0  0  0  0  0  0  0  0
   80.4158  189.4845  136.5536 H   0  0  0  0  0  0  0  0  0  0  0  0
   82.6542  187.2489  134.0868 H   0  0  0  0  0  0  0  0  0  0  0  0
   82.9978  188.7056  136.2756 C   0  0  0  0  0  0  0  0  0  0  0  0
   83.9631  187.8669  135.8944 F   0  0  0  0  0  0  0  0  0  0  0  0
   82.5613  188.3393  137.4844 F   0  0  0  0  0  0  0  0  0  0  0  0
   83.4890  189.9409  136.3185 F   0  0  0  0  0  0  0  0  0  0  0  0
 15 14  1  0  0  0
 21 19  1  0  0  0
 16 14  1  0  0  0
 14 19  1  0  0  0
 14 13  1  0  0  0
 19 22  1  0  0  0
 19 20  1  0  0  0
  8  9  1  0  0  0
  8  7  1  0  0  0
 12 13  1  0  0  0
 12  1  1  0  0  0
  2  1  1  0  0  0
  2  3  1  0  0  0
  6  7  1  0  0  0
  6  4  1  0  0  0
  4  3  1  0  0  0
  4  5  1  0  0  0
  9 10  1  0  0  0
  9 11  1  0  0  0
 15 17  1  0  0  0
 16 18  1  0  0  0
M  END
> <minimizedAffinity>
-5.16379

$$$$
