3M3X_JS7_A_264


 27 28  0  0  0  0  0  0  0  0999 V2000
   -2.4846    5.4224   13.3260 C   0  0  0  0  0  0  0  0  0  0  0  0
   -2.5247    5.1979   11.9409 N   0  0  0  0  0  0  0  0  0  0  0  0
   -2.8561    5.8925   11.3269 H   0  0  0  0  0  0  0  0  0  0  0  0
   -1.0599    1.6216   10.5834 N   0  0  0  0  0  0  0  0  0  0  0  0
   -0.2680    2.6375   10.9124 C   0  0  0  0  0  0  0  0  0  0  0  0
   -0.7622    3.7806   11.3431 N   0  0  0  0  0  0  0  0  0  0  0  0
   -2.0785    3.9528   11.4499 C   0  0  0  0  0  0  0  0  0  0  0  0
   -2.9831    2.8992   11.1022 C   0  0  0  0  0  0  0  0  0  0  0  0
   -2.3997    1.6721   10.6426 C   0  0  0  0  0  0  0  0  0  0  0  0
   -4.4857    3.1806   11.2446 N   0  0  0  0  0  0  0  0  0  0  0  0
   -5.2080    2.4342   11.8165 O   0  0  0  0  0  0  0  0  0  0  0  0
   -5.0115    4.3014   10.7164 O   0  0  0  0  0  0  0  0  0  0  0  0
   -3.0610    0.4032   10.1969 O   0  0  0  0  0  0  0  0  0  0  0  0
   -3.1164   -0.7348   10.9913 C   0  0  0  0  0  0  0  0  0  0  0  0
   -3.8840    5.9135   13.6664 C   0  0  0  0  0  0  0  0  0  0  0  0
   -4.5056    4.7746   14.4135 C   0  0  0  0  0  0  0  0  0  0  0  0
   -3.6677    3.7319   14.7943 C   0  0  0  0  0  0  0  0  0  0  0  0
   -4.1955    2.6195   15.4964 C   0  0  0  0  0  0  0  0  0  0  0  0
   -5.5247    2.5105   15.8641 C   0  0  0  0  0  0  0  0  0  0  0  0
   -6.3681    3.5873   15.4905 C   0  0  0  0  0  0  0  0  0  0  0  0
   -5.8797    4.7253   14.7655 C   0  0  0  0  0  0  0  0  0  0  0  0
   -6.1377    1.0571   16.8061 S   0  0  0  0  0  0  0  0  0  0  0  0
   -7.6206    1.0483   16.6501 O   0  0  0  0  0  0  0  0  0  0  0  0
   -5.3311   -0.1477   16.1893 O   0  0  0  0  0  0  0  0  0  0  0  0
   -5.6778    1.3837   18.3649 N   0  0  0  0  0  0  0  0  0  0  0  0
   -6.2234    2.1674   18.7232 H   0  0  0  0  0  0  0  0  0  0  0  0
   -4.6864    1.6227   18.3839 H   0  0  0  0  0  0  0  0  0  0  0  0
  4  5  2  0  0  0
  4  9  1  0  0  0
  5  6  1  0  0  0
  6  7  2  0  0  0
  7  8  1  0  0  0
  7  2  1  0  0  0
  8  9  2  0  0  0
  8 10  1  0  0  0
  9 13  1  0  0  0
  2  1  1  0  0  0
 16 17  2  0  0  0
 16 21  1  0  0  0
 16 15  1  0  0  0
 17 18  1  0  0  0
 18 19  2  0  0  0
 19 20  1  0  0  0
 19 22  1  0  0  0
 20 21  2  0  0  0
 22 23  2  0  0  0
 22 24  2  0  0  0
 22 25  1  0  0  0
 10 11  1  0  0  0
 10 12  2  0  0  0
 13 14  1  0  0  0
  1 15  1  0  0  0
  2  3  1  0  0  0
 25 26  1  0  0  0
 25 27  1  0  0  0
M  CHG 1  10   1
M  CHG 1  11  -1
M  END
> <minimizedAffinity>
-7.60843

$$$$
3M3X_JS7_A_264


 27 28  0  0  0  0  0  0  0  0999 V2000
   -4.3097    5.4468   12.1650 C   0  0  0  0  0  0  0  0  0  0  0  0
   -3.3961    4.6299   11.4804 N   0  0  0  0  0  0  0  0  0  0  0  0
   -2.5500    4.9978   11.1368 H   0  0  0  0  0  0  0  0  0  0  0  0
   -4.5048    0.7314   10.8886 N   0  0  0  0  0  0  0  0  0  0  0  0
   -5.3912    1.7169   10.9903 C   0  0  0  0  0  0  0  0  0  0  0  0
   -5.0111    2.9636   11.1848 N   0  0  0  0  0  0  0  0  0  0  0  0
   -3.7197    3.2690   11.2967 C   0  0  0  0  0  0  0  0  0  0  0  0
   -2.7181    2.2505   11.2050 C   0  0  0  0  0  0  0  0  0  0  0  0
   -3.1783    0.9093   10.9887 C   0  0  0  0  0  0  0  0  0  0  0  0
   -1.2525    2.6834   11.3538 N   0  0  0  0  0  0  0  0  0  0  0  0
   -0.8377    3.1411   12.3659 O   0  0  0  0  0  0  0  0  0  0  0  0
   -0.4027    2.5417   10.3196 O   0  0  0  0  0  0  0  0  0  0  0  0
   -2.3981   -0.3639   10.8607 O   0  0  0  0  0  0  0  0  0  0  0  0
   -2.9314   -1.6072   11.1753 C   0  0  0  0  0  0  0  0  0  0  0  0
   -3.7098    5.5960   13.5554 C   0  0  0  0  0  0  0  0  0  0  0  0
   -4.4212    4.5677   14.3789 C   0  0  0  0  0  0  0  0  0  0  0  0
   -3.6642    3.5055   14.8616 C   0  0  0  0  0  0  0  0  0  0  0  0
   -4.2795    2.4936   15.6402 C   0  0  0  0  0  0  0  0  0  0  0  0
   -5.6190    2.5060   15.9862 C   0  0  0  0  0  0  0  0  0  0  0  0
   -6.3792    3.6030   15.5077 C   0  0  0  0  0  0  0  0  0  0  0  0
   -5.8010    4.6413   14.7033 C   0  0  0  0  0  0  0  0  0  0  0  0
   -6.3469    1.1805   17.0297 S   0  0  0  0  0  0  0  0  0  0  0  0
   -7.7963    1.1205   16.6847 O   0  0  0  0  0  0  0  0  0  0  0  0
   -5.4631   -0.0796   16.6930 O   0  0  0  0  0  0  0  0  0  0  0  0
   -6.0971    1.7236   18.5758 N   0  0  0  0  0  0  0  0  0  0  0  0
   -6.6872    2.5372   18.7500 H   0  0  0  0  0  0  0  0  0  0  0  0
   -5.1174    1.9833   18.6909 H   0  0  0  0  0  0  0  0  0  0  0  0
  4  5  2  0  0  0
  4  9  1  0  0  0
  5  6  1  0  0  0
  6  7  2  0  0  0
  7  8  1  0  0  0
  7  2  1  0  0  0
  8  9  2  0  0  0
  8 10  1  0  0  0
  9 13  1  0  0  0
  2  1  1  0  0  0
 16 17  2  0  0  0
 16 21  1  0  0  0
 16 15  1  0  0  0
 17 18  1  0  0  0
 18 19  2  0  0  0
 19 20  1  0  0  0
 19 22  1  0  0  0
 20 21  2  0  0  0
 22 23  2  0  0  0
 22 24  2  0  0  0
 22 25  1  0  0  0
 10 11  1  0  0  0
 10 12  2  0  0  0
 13 14  1  0  0  0
  1 15  1  0  0  0
  2  3  1  0  0  0
 25 26  1  0  0  0
 25 27  1  0  0  0
M  CHG 1  10   1
M  CHG 1  11  -1
M  END
> <minimizedAffinity>
-7.21840

$$$$
3M3X_JS7_A_264


 27 28  0  0  0  0  0  0  0  0999 V2000
   -2.5277    4.1758   12.7636 C   0  0  0  0  0  0  0  0  0  0  0  0
   -3.3302    3.1028   13.1823 N   0  0  0  0  0  0  0  0  0  0  0  0
   -3.1337    2.1829   12.8918 H   0  0  0  0  0  0  0  0  0  0  0  0
   -6.5512    4.0379   15.5337 N   0  0  0  0  0  0  0  0  0  0  0  0
   -6.0069    4.9100   14.6907 C   0  0  0  0  0  0  0  0  0  0  0  0
   -4.9679    4.5879   13.9468 N   0  0  0  0  0  0  0  0  0  0  0  0
   -4.4252    3.3746   14.0294 C   0  0  0  0  0  0  0  0  0  0  0  0
   -4.9607    2.3947   14.9251 C   0  0  0  0  0  0  0  0  0  0  0  0
   -6.0939    2.7887   15.7112 C   0  0  0  0  0  0  0  0  0  0  0  0
   -4.2721    1.0231   14.9676 N   0  0  0  0  0  0  0  0  0  0  0  0
   -4.1911    0.3363   14.0043 O   0  0  0  0  0  0  0  0  0  0  0  0
   -3.7372    0.5761   16.1190 O   0  0  0  0  0  0  0  0  0  0  0  0
   -6.8682    2.0138   16.7340 O   0  0  0  0  0  0  0  0  0  0  0  0
   -6.3559    1.7016   17.9867 C   0  0  0  0  0  0  0  0  0  0  0  0
   -2.6512    4.1664   11.2470 C   0  0  0  0  0  0  0  0  0  0  0  0
   -1.2356    4.1731   10.7593 C   0  0  0  0  0  0  0  0  0  0  0  0
   -0.3824    5.1300   11.2984 C   0  0  0  0  0  0  0  0  0  0  0  0
    0.9678    5.1955   10.8723 C   0  0  0  0  0  0  0  0  0  0  0  0
    1.5186    4.3266    9.9473 C   0  0  0  0  0  0  0  0  0  0  0  0
    0.6477    3.3409    9.4180 C   0  0  0  0  0  0  0  0  0  0  0  0
   -0.7300    3.2481    9.8089 C   0  0  0  0  0  0  0  0  0  0  0  0
    3.2876    4.4430    9.4647 S   0  0  0  0  0  0  0  0  0  0  0  0
    3.6670    3.1048    8.9274 O   0  0  0  0  0  0  0  0  0  0  0  0
    3.3179    5.6648    8.4704 O   0  0  0  0  0  0  0  0  0  0  0  0
    4.0574    4.7811   10.8934 N   0  0  0  0  0  0  0  0  0  0  0  0
    4.0137    3.9656   11.5045 H   0  0  0  0  0  0  0  0  0  0  0  0
    3.5995    5.5713   11.3476 H   0  0  0  0  0  0  0  0  0  0  0  0
  4  5  2  0  0  0
  4  9  1  0  0  0
  5  6  1  0  0  0
  6  7  2  0  0  0
  7  8  1  0  0  0
  7  2  1  0  0  0
  8  9  2  0  0  0
  8 10  1  0  0  0
  9 13  1  0  0  0
  2  1  1  0  0  0
 16 17  2  0  0  0
 16 21  1  0  0  0
 16 15  1  0  0  0
 17 18  1  0  0  0
 18 19  2  0  0  0
 19 20  1  0  0  0
 19 22  1  0  0  0
 20 21  2  0  0  0
 22 23  2  0  0  0
 22 24  2  0  0  0
 22 25  1  0  0  0
 10 11  1  0  0  0
 10 12  2  0  0  0
 13 14  1  0  0  0
  1 15  1  0  0  0
  2  3  1  0  0  0
 25 26  1  0  0  0
 25 27  1  0  0  0
M  CHG 1  10   1
M  CHG 1  11  -1
M  END
> <minimizedAffinity>
-6.49842

$$$$
3M3X_JS7_A_264


 27 28  0  0  0  0  0  0  0  0999 V2000
   -2.4841    5.0702   13.5176 C   0  0  0  0  0  0  0  0  0  0  0  0
   -1.5481    4.1554   13.0102 N   0  0  0  0  0  0  0  0  0  0  0  0
   -1.3004    3.3515   13.5217 H   0  0  0  0  0  0  0  0  0  0  0  0
    0.2477    5.0268    9.4333 N   0  0  0  0  0  0  0  0  0  0  0  0
    0.3889    5.7965   10.5080 C   0  0  0  0  0  0  0  0  0  0  0  0
   -0.2020    5.4983   11.6475 N   0  0  0  0  0  0  0  0  0  0  0  0
   -0.9709    4.4158   11.7494 C   0  0  0  0  0  0  0  0  0  0  0  0
   -1.1690    3.5525   10.6248 C   0  0  0  0  0  0  0  0  0  0  0  0
   -0.5027    3.9145    9.4071 C   0  0  0  0  0  0  0  0  0  0  0  0
   -2.0771    2.3303   10.8218 N   0  0  0  0  0  0  0  0  0  0  0  0
   -3.1417    2.2552   10.3050 O   0  0  0  0  0  0  0  0  0  0  0  0
   -1.6669    1.3070   11.5941 O   0  0  0  0  0  0  0  0  0  0  0  0
   -0.5147    3.2388    8.0695 O   0  0  0  0  0  0  0  0  0  0  0  0
    0.3578    3.5837    7.0453 C   0  0  0  0  0  0  0  0  0  0  0  0
   -3.8038    4.6407   12.8938 C   0  0  0  0  0  0  0  0  0  0  0  0
   -4.4155    3.7281   13.9109 C   0  0  0  0  0  0  0  0  0  0  0  0
   -5.4126    4.2586   14.7225 C   0  0  0  0  0  0  0  0  0  0  0  0
   -6.0260    3.4496   15.7115 C   0  0  0  0  0  0  0  0  0  0  0  0
   -5.7089    2.1179   15.9119 C   0  0  0  0  0  0  0  0  0  0  0  0
   -4.7062    1.5790   15.0666 C   0  0  0  0  0  0  0  0  0  0  0  0
   -4.0479    2.3657   14.0630 C   0  0  0  0  0  0  0  0  0  0  0  0
   -6.5683    1.1144   17.1885 S   0  0  0  0  0  0  0  0  0  0  0  0
   -8.0083    1.0848   16.8026 O   0  0  0  0  0  0  0  0  0  0  0  0
   -5.7804   -0.2500   17.1757 O   0  0  0  0  0  0  0  0  0  0  0  0
   -6.3161    1.9681   18.5869 N   0  0  0  0  0  0  0  0  0  0  0  0
   -6.8430    2.8408   18.5522 H   0  0  0  0  0  0  0  0  0  0  0  0
   -5.3220    2.1749   18.6845 H   0  0  0  0  0  0  0  0  0  0  0  0
  4  5  2  0  0  0
  4  9  1  0  0  0
  5  6  1  0  0  0
  6  7  2  0  0  0
  7  8  1  0  0  0
  7  2  1  0  0  0
  8  9  2  0  0  0
  8 10  1  0  0  0
  9 13  1  0  0  0
  2  1  1  0  0  0
 16 17  2  0  0  0
 16 21  1  0  0  0
 16 15  1  0  0  0
 17 18  1  0  0  0
 18 19  2  0  0  0
 19 20  1  0  0  0
 19 22  1  0  0  0
 20 21  2  0  0  0
 22 23  2  0  0  0
 22 24  2  0  0  0
 22 25  1  0  0  0
 10 11  1  0  0  0
 10 12  2  0  0  0
 13 14  1  0  0  0
  1 15  1  0  0  0
  2  3  1  0  0  0
 25 26  1  0  0  0
 25 27  1  0  0  0
M  CHG 1  10   1
M  CHG 1  11  -1
M  END
> <minimizedAffinity>
-6.34104

$$$$
3M3X_JS7_A_264


 27 28  0  0  0  0  0  0  0  0999 V2000
   -2.6690    4.2610   12.6543 C   0  0  0  0  0  0  0  0  0  0  0  0
   -2.1753    4.9133   11.5135 N   0  0  0  0  0  0  0  0  0  0  0  0
   -2.7879    5.2472   10.8190 H   0  0  0  0  0  0  0  0  0  0  0  0
    1.8716    5.5068   11.2923 N   0  0  0  0  0  0  0  0  0  0  0  0
    1.0671    6.3234   11.9658 C   0  0  0  0  0  0  0  0  0  0  0  0
   -0.2329    6.1146   12.0197 N   0  0  0  0  0  0  0  0  0  0  0  0
   -0.7799    5.0786   11.3864 C   0  0  0  0  0  0  0  0  0  0  0  0
    0.0328    4.1691   10.6371 C   0  0  0  0  0  0  0  0  0  0  0  0
    1.4423    4.4336   10.6104 C   0  0  0  0  0  0  0  0  0  0  0  0
   -0.6756    3.0057    9.9286 N   0  0  0  0  0  0  0  0  0  0  0  0
   -0.9829    2.0177   10.5077 O   0  0  0  0  0  0  0  0  0  0  0  0
   -0.9667    3.0958    8.6175 O   0  0  0  0  0  0  0  0  0  0  0  0
    2.5450    3.6908    9.9188 O   0  0  0  0  0  0  0  0  0  0  0  0
    3.2778    4.2362    8.8725 C   0  0  0  0  0  0  0  0  0  0  0  0
   -3.9249    5.0399   13.0169 C   0  0  0  0  0  0  0  0  0  0  0  0
   -4.5981    4.1963   14.0547 C   0  0  0  0  0  0  0  0  0  0  0  0
   -4.0017    2.9800   14.3695 C   0  0  0  0  0  0  0  0  0  0  0  0
   -4.5938    2.1304   15.3372 C   0  0  0  0  0  0  0  0  0  0  0  0
   -5.7466    2.4520   16.0314 C   0  0  0  0  0  0  0  0  0  0  0  0
   -6.3368    3.7029   15.7196 C   0  0  0  0  0  0  0  0  0  0  0  0
   -5.7804    4.5871   14.7357 C   0  0  0  0  0  0  0  0  0  0  0  0
   -6.4427    1.3206   17.3005 S   0  0  0  0  0  0  0  0  0  0  0  0
   -6.2602    1.9990   18.6158 O   0  0  0  0  0  0  0  0  0  0  0  0
   -7.9176    1.0742   16.8042 O   0  0  0  0  0  0  0  0  0  0  0  0
   -5.5030   -0.0383   17.1654 N   0  0  0  0  0  0  0  0  0  0  0  0
   -4.5602    0.1660   17.4966 H   0  0  0  0  0  0  0  0  0  0  0  0
   -5.4646   -0.3294   16.1886 H   0  0  0  0  0  0  0  0  0  0  0  0
  4  5  2  0  0  0
  4  9  1  0  0  0
  5  6  1  0  0  0
  6  7  2  0  0  0
  7  8  1  0  0  0
  7  2  1  0  0  0
  8  9  2  0  0  0
  8 10  1  0  0  0
  9 13  1  0  0  0
  2  1  1  0  0  0
 16 17  2  0  0  0
 16 21  1  0  0  0
 16 15  1  0  0  0
 17 18  1  0  0  0
 18 19  2  0  0  0
 19 20  1  0  0  0
 19 22  1  0  0  0
 20 21  2  0  0  0
 22 23  2  0  0  0
 22 24  2  0  0  0
 22 25  1  0  0  0
 10 11  1  0  0  0
 10 12  2  0  0  0
 13 14  1  0  0  0
  1 15  1  0  0  0
  2  3  1  0  0  0
 25 26  1  0  0  0
 25 27  1  0  0  0
M  CHG 1  10   1
M  CHG 1  11  -1
M  END
> <minimizedAffinity>
-6.31437

$$$$
3M3X_JS7_A_264


 27 28  0  0  0  0  0  0  0  0999 V2000
   -2.6467    5.8296   14.0145 C   0  0  0  0  0  0  0  0  0  0  0  0
   -1.8883    6.1571   12.8795 N   0  0  0  0  0  0  0  0  0  0  0  0
   -1.5495    7.0718   12.7463 H   0  0  0  0  0  0  0  0  0  0  0  0
   -1.1295    3.0898   10.2730 N   0  0  0  0  0  0  0  0  0  0  0  0
   -0.9809    2.9611   11.5878 C   0  0  0  0  0  0  0  0  0  0  0  0
   -1.2272    3.9635   12.4071 N   0  0  0  0  0  0  0  0  0  0  0  0
   -1.6234    5.1437   11.9343 C   0  0  0  0  0  0  0  0  0  0  0  0
   -1.7929    5.3471   10.5274 C   0  0  0  0  0  0  0  0  0  0  0  0
   -1.5175    4.2269    9.6749 C   0  0  0  0  0  0  0  0  0  0  0  0
   -2.2433    6.7393   10.0626 N   0  0  0  0  0  0  0  0  0  0  0  0
   -3.2992    7.1860   10.3654 O   0  0  0  0  0  0  0  0  0  0  0  0
   -1.4284    7.4867    9.2952 O   0  0  0  0  0  0  0  0  0  0  0  0
   -1.5862    4.1178    8.1818 O   0  0  0  0  0  0  0  0  0  0  0  0
   -0.4702    4.2534    7.3661 C   0  0  0  0  0  0  0  0  0  0  0  0
   -4.0651    5.6755   13.4855 C   0  0  0  0  0  0  0  0  0  0  0  0
   -4.6592    4.5891   14.3272 C   0  0  0  0  0  0  0  0  0  0  0  0
   -3.8599    3.4823   14.5929 C   0  0  0  0  0  0  0  0  0  0  0  0
   -4.3660    2.4149   15.3760 C   0  0  0  0  0  0  0  0  0  0  0  0
   -5.6318    2.4120   15.9345 C   0  0  0  0  0  0  0  0  0  0  0  0
   -6.4327    3.5532   15.6762 C   0  0  0  0  0  0  0  0  0  0  0  0
   -5.9667    4.6494   14.8759 C   0  0  0  0  0  0  0  0  0  0  0  0
   -6.2139    1.0112   16.9709 S   0  0  0  0  0  0  0  0  0  0  0  0
   -7.6991    0.9798   16.8419 O   0  0  0  0  0  0  0  0  0  0  0  0
   -5.4059   -0.2205   16.4119 O   0  0  0  0  0  0  0  0  0  0  0  0
   -5.7308    1.4333   18.4995 N   0  0  0  0  0  0  0  0  0  0  0  0
   -6.2781    2.2318   18.8207 H   0  0  0  0  0  0  0  0  0  0  0  0
   -4.7416    1.6820   18.4868 H   0  0  0  0  0  0  0  0  0  0  0  0
  4  5  2  0  0  0
  4  9  1  0  0  0
  5  6  1  0  0  0
  6  7  2  0  0  0
  7  8  1  0  0  0
  7  2  1  0  0  0
  8  9  2  0  0  0
  8 10  1  0  0  0
  9 13  1  0  0  0
  2  1  1  0  0  0
 16 17  2  0  0  0
 16 21  1  0  0  0
 16 15  1  0  0  0
 17 18  1  0  0  0
 18 19  2  0  0  0
 19 20  1  0  0  0
 19 22  1  0  0  0
 20 21  2  0  0  0
 22 23  2  0  0  0
 22 24  2  0  0  0
 22 25  1  0  0  0
 10 11  1  0  0  0
 10 12  2  0  0  0
 13 14  1  0  0  0
  1 15  1  0  0  0
  2  3  1  0  0  0
 25 26  1  0  0  0
 25 27  1  0  0  0
M  CHG 1  10   1
M  CHG 1  11  -1
M  END
> <minimizedAffinity>
-6.20338

$$$$
3M3X_JS7_A_264


 27 28  0  0  0  0  0  0  0  0999 V2000
   -4.6383    5.7841   12.2520 C   0  0  0  0  0  0  0  0  0  0  0  0
   -3.5807    5.9236   11.3396 N   0  0  0  0  0  0  0  0  0  0  0  0
   -3.4788    6.7459   10.8078 H   0  0  0  0  0  0  0  0  0  0  0  0
   -1.0667    2.7237   10.8726 N   0  0  0  0  0  0  0  0  0  0  0  0
   -2.3900    2.5961   10.8753 C   0  0  0  0  0  0  0  0  0  0  0  0
   -3.1792    3.6398   11.0314 N   0  0  0  0  0  0  0  0  0  0  0  0
   -2.6672    4.8571   11.2030 C   0  0  0  0  0  0  0  0  0  0  0  0
   -1.2499    5.0575   11.2185 C   0  0  0  0  0  0  0  0  0  0  0  0
   -0.4308    3.8935   11.0406 C   0  0  0  0  0  0  0  0  0  0  0  0
   -0.7397    6.4900   11.4309 N   0  0  0  0  0  0  0  0  0  0  0  0
   -1.2321    7.4154   10.8767 O   0  0  0  0  0  0  0  0  0  0  0  0
    0.2889    6.7187   12.2683 O   0  0  0  0  0  0  0  0  0  0  0  0
    1.0622    3.7651   11.0192 O   0  0  0  0  0  0  0  0  0  0  0  0
    1.8245    4.0423    9.8917 C   0  0  0  0  0  0  0  0  0  0  0  0
   -3.9748    5.9062   13.6159 C   0  0  0  0  0  0  0  0  0  0  0  0
   -4.5322    4.7614   14.4037 C   0  0  0  0  0  0  0  0  0  0  0  0
   -3.6546    3.7376   14.7442 C   0  0  0  0  0  0  0  0  0  0  0  0
   -4.1214    2.6208   15.4817 C   0  0  0  0  0  0  0  0  0  0  0  0
   -5.4260    2.4895   15.9230 C   0  0  0  0  0  0  0  0  0  0  0  0
   -6.3092    3.5474   15.5897 C   0  0  0  0  0  0  0  0  0  0  0  0
   -5.8835    4.6889   14.8314 C   0  0  0  0  0  0  0  0  0  0  0  0
   -5.9579    1.0319   16.9069 S   0  0  0  0  0  0  0  0  0  0  0  0
   -5.3431   -0.1617   16.2583 O   0  0  0  0  0  0  0  0  0  0  0  0
   -5.4954    1.3875   18.3705 O   0  0  0  0  0  0  0  0  0  0  0  0
   -7.6085    1.0425   16.7536 N   0  0  0  0  0  0  0  0  0  0  0  0
   -7.8624    0.8079   15.7940 H   0  0  0  0  0  0  0  0  0  0  0  0
   -7.9653    1.9703   16.9826 H   0  0  0  0  0  0  0  0  0  0  0  0
  4  5  2  0  0  0
  4  9  1  0  0  0
  5  6  1  0  0  0
  6  7  2  0  0  0
  7  8  1  0  0  0
  7  2  1  0  0  0
  8  9  2  0  0  0
  8 10  1  0  0  0
  9 13  1  0  0  0
  2  1  1  0  0  0
 16 17  2  0  0  0
 16 21  1  0  0  0
 16 15  1  0  0  0
 17 18  1  0  0  0
 18 19  2  0  0  0
 19 20  1  0  0  0
 19 22  1  0  0  0
 20 21  2  0  0  0
 22 23  2  0  0  0
 22 24  2  0  0  0
 22 25  1  0  0  0
 10 11  1  0  0  0
 10 12  2  0  0  0
 13 14  1  0  0  0
  1 15  1  0  0  0
  2  3  1  0  0  0
 25 26  1  0  0  0
 25 27  1  0  0  0
M  CHG 1  10   1
M  CHG 1  11  -1
M  END
> <minimizedAffinity>
-6.09953

$$$$
3M3X_JS7_A_264


 27 28  0  0  0  0  0  0  0  0999 V2000
   -2.5178    5.2910   12.3596 C   0  0  0  0  0  0  0  0  0  0  0  0
   -2.2498    4.0039   12.8516 N   0  0  0  0  0  0  0  0  0  0  0  0
   -2.0433    3.8609   13.8035 H   0  0  0  0  0  0  0  0  0  0  0  0
   -2.1710    0.8941   10.1868 N   0  0  0  0  0  0  0  0  0  0  0  0
   -1.2791    1.8796   10.1587 C   0  0  0  0  0  0  0  0  0  0  0  0
   -1.3268    2.8723   11.0241 N   0  0  0  0  0  0  0  0  0  0  0  0
   -2.2837    2.9201   11.9490 C   0  0  0  0  0  0  0  0  0  0  0  0
   -3.2782    1.8930   12.0243 C   0  0  0  0  0  0  0  0  0  0  0  0
   -3.1838    0.8308   11.0650 C   0  0  0  0  0  0  0  0  0  0  0  0
   -4.3524    2.0263   13.1131 N   0  0  0  0  0  0  0  0  0  0  0  0
   -5.1845    2.8698   13.0676 O   0  0  0  0  0  0  0  0  0  0  0  0
   -4.3668    1.1683   14.1501 O   0  0  0  0  0  0  0  0  0  0  0  0
   -4.0615   -0.3686   10.8722 O   0  0  0  0  0  0  0  0  0  0  0  0
   -3.9235   -1.5295   11.6222 C   0  0  0  0  0  0  0  0  0  0  0  0
   -3.2630    5.9781   13.4944 C   0  0  0  0  0  0  0  0  0  0  0  0
   -2.5145    7.2569   13.7093 C   0  0  0  0  0  0  0  0  0  0  0  0
   -2.1764    7.9929   12.5787 C   0  0  0  0  0  0  0  0  0  0  0  0
   -1.4597    9.2083   12.7131 C   0  0  0  0  0  0  0  0  0  0  0  0
   -1.0860    9.7425   13.9334 C   0  0  0  0  0  0  0  0  0  0  0  0
   -1.4527    8.9966   15.0821 C   0  0  0  0  0  0  0  0  0  0  0  0
   -2.1644    7.7537   14.9919 C   0  0  0  0  0  0  0  0  0  0  0  0
   -0.1889   11.3423   14.0397 S   0  0  0  0  0  0  0  0  0  0  0  0
    0.6703   11.4256   12.8239 O   0  0  0  0  0  0  0  0  0  0  0  0
   -1.3446   12.4025   14.1916 O   0  0  0  0  0  0  0  0  0  0  0  0
    0.7073   11.1925   15.4262 N   0  0  0  0  0  0  0  0  0  0  0  0
    1.4411   10.4985   15.2833 H   0  0  0  0  0  0  0  0  0  0  0  0
    0.1024   10.8949   16.1916 H   0  0  0  0  0  0  0  0  0  0  0  0
  4  5  2  0  0  0
  4  9  1  0  0  0
  5  6  1  0  0  0
  6  7  2  0  0  0
  7  8  1  0  0  0
  7  2  1  0  0  0
  8  9  2  0  0  0
  8 10  1  0  0  0
  9 13  1  0  0  0
  2  1  1  0  0  0
 16 17  2  0  0  0
 16 21  1  0  0  0
 16 15  1  0  0  0
 17 18  1  0  0  0
 18 19  2  0  0  0
 19 20  1  0  0  0
 19 22  1  0  0  0
 20 21  2  0  0  0
 22 23  2  0  0  0
 22 24  2  0  0  0
 22 25  1  0  0  0
 10 11  1  0  0  0
 10 12  2  0  0  0
 13 14  1  0  0  0
  1 15  1  0  0  0
  2  3  1  0  0  0
 25 26  1  0  0  0
 25 27  1  0  0  0
M  CHG 1  10   1
M  CHG 1  11  -1
M  END
> <minimizedAffinity>
-6.00935

$$$$
3M3X_JS7_A_264


 27 28  0  0  0  0  0  0  0  0999 V2000
   -3.7037    5.0193   14.5517 C   0  0  0  0  0  0  0  0  0  0  0  0
   -4.5639    4.1586   13.8521 N   0  0  0  0  0  0  0  0  0  0  0  0
   -5.2404    4.5161   13.2325 H   0  0  0  0  0  0  0  0  0  0  0  0
   -4.2412    0.1496   14.6283 N   0  0  0  0  0  0  0  0  0  0  0  0
   -4.2454    1.0644   15.5930 C   0  0  0  0  0  0  0  0  0  0  0  0
   -4.3462    2.3494   15.3190 N   0  0  0  0  0  0  0  0  0  0  0  0
   -4.4358    2.7687   14.0582 C   0  0  0  0  0  0  0  0  0  0  0  0
   -4.4274    1.8326   12.9752 C   0  0  0  0  0  0  0  0  0  0  0  0
   -4.3205    0.4448   13.3215 C   0  0  0  0  0  0  0  0  0  0  0  0
   -4.5251    2.3972   11.5507 N   0  0  0  0  0  0  0  0  0  0  0  0
   -5.4981    2.2528   10.8885 O   0  0  0  0  0  0  0  0  0  0  0  0
   -3.4902    3.0803   11.0272 O   0  0  0  0  0  0  0  0  0  0  0  0
   -4.2729   -0.7639   12.4368 O   0  0  0  0  0  0  0  0  0  0  0  0
   -3.3699   -0.8940   11.3896 C   0  0  0  0  0  0  0  0  0  0  0  0
   -2.3819    4.9160   13.8050 C   0  0  0  0  0  0  0  0  0  0  0  0
   -1.8609    6.3194   13.7768 C   0  0  0  0  0  0  0  0  0  0  0  0
   -2.3027    7.1813   14.7748 C   0  0  0  0  0  0  0  0  0  0  0  0
   -1.8541    8.5256   14.7994 C   0  0  0  0  0  0  0  0  0  0  0  0
   -0.9567    9.0470   13.8845 C   0  0  0  0  0  0  0  0  0  0  0  0
   -0.4950    8.1561   12.8827 C   0  0  0  0  0  0  0  0  0  0  0  0
   -0.9348    6.7920   12.8107 C   0  0  0  0  0  0  0  0  0  0  0  0
   -0.3873   10.7903   13.9942 S   0  0  0  0  0  0  0  0  0  0  0  0
    0.5118   11.0145   12.8260 O   0  0  0  0  0  0  0  0  0  0  0  0
   -1.7299   11.6128   14.0511 O   0  0  0  0  0  0  0  0  0  0  0  0
    0.4364   10.8391   15.4319 N   0  0  0  0  0  0  0  0  0  0  0  0
    1.2957   10.2956   15.3501 H   0  0  0  0  0  0  0  0  0  0  0  0
   -0.1459   10.4452   16.1709 H   0  0  0  0  0  0  0  0  0  0  0  0
  4  5  2  0  0  0
  4  9  1  0  0  0
  5  6  1  0  0  0
  6  7  2  0  0  0
  7  8  1  0  0  0
  7  2  1  0  0  0
  8  9  2  0  0  0
  8 10  1  0  0  0
  9 13  1  0  0  0
  2  1  1  0  0  0
 16 17  2  0  0  0
 16 21  1  0  0  0
 16 15  1  0  0  0
 17 18  1  0  0  0
 18 19  2  0  0  0
 19 20  1  0  0  0
 19 22  1  0  0  0
 20 21  2  0  0  0
 22 23  2  0  0  0
 22 24  2  0  0  0
 22 25  1  0  0  0
 10 11  1  0  0  0
 10 12  2  0  0  0
 13 14  1  0  0  0
  1 15  1  0  0  0
  2  3  1  0  0  0
 25 26  1  0  0  0
 25 27  1  0  0  0
M  CHG 1  10   1
M  CHG 1  11  -1
M  END
> <minimizedAffinity>
-5.98814

$$$$
3M3X_JS7_A_264


 27 28  0  0  0  0  0  0  0  0999 V2000
   -2.6319    4.1207   12.8415 C   0  0  0  0  0  0  0  0  0  0  0  0
   -3.4061    3.0381   13.2876 N   0  0  0  0  0  0  0  0  0  0  0  0
   -3.1936    2.1178   13.0096 H   0  0  0  0  0  0  0  0  0  0  0  0
   -6.6191    3.9412   15.6623 N   0  0  0  0  0  0  0  0  0  0  0  0
   -6.1176    4.8034   14.7833 C   0  0  0  0  0  0  0  0  0  0  0  0
   -5.0803    4.4921   14.0326 N   0  0  0  0  0  0  0  0  0  0  0  0
   -4.4961    3.3005   14.1441 C   0  0  0  0  0  0  0  0  0  0  0  0
   -4.9843    2.3326   15.0790 C   0  0  0  0  0  0  0  0  0  0  0  0
   -6.1176    2.7140   15.8713 C   0  0  0  0  0  0  0  0  0  0  0  0
   -4.2497    0.9865   15.1529 N   0  0  0  0  0  0  0  0  0  0  0  0
   -3.7017    0.6292   16.1419 O   0  0  0  0  0  0  0  0  0  0  0  0
   -4.2218    0.1773   14.0777 O   0  0  0  0  0  0  0  0  0  0  0  0
   -6.8493    1.9472   16.9308 O   0  0  0  0  0  0  0  0  0  0  0  0
   -6.2917    1.6574   18.1695 C   0  0  0  0  0  0  0  0  0  0  0  0
   -1.9773    4.6589   14.1053 C   0  0  0  0  0  0  0  0  0  0  0  0
   -1.6370    6.0783   13.7714 C   0  0  0  0  0  0  0  0  0  0  0  0
   -2.1062    7.0637   14.6334 C   0  0  0  0  0  0  0  0  0  0  0  0
   -1.8264    8.4278   14.3690 C   0  0  0  0  0  0  0  0  0  0  0  0
   -1.0710    8.8566   13.2921 C   0  0  0  0  0  0  0  0  0  0  0  0
   -0.5789    7.8443   12.4298 C   0  0  0  0  0  0  0  0  0  0  0  0
   -0.8510    6.4527   12.6505 C   0  0  0  0  0  0  0  0  0  0  0  0
   -0.7145   10.6392   13.0266 S   0  0  0  0  0  0  0  0  0  0  0  0
   -0.3139   11.1912   14.3526 O   0  0  0  0  0  0  0  0  0  0  0  0
    0.3677   10.6312   11.8815 O   0  0  0  0  0  0  0  0  0  0  0  0
   -2.1657   11.2517   12.5101 N   0  0  0  0  0  0  0  0  0  0  0  0
   -2.8340   11.2381   13.2805 H   0  0  0  0  0  0  0  0  0  0  0  0
   -2.5209   10.6826   11.7418 H   0  0  0  0  0  0  0  0  0  0  0  0
  4  5  2  0  0  0
  4  9  1  0  0  0
  5  6  1  0  0  0
  6  7  2  0  0  0
  7  8  1  0  0  0
  7  2  1  0  0  0
  8  9  2  0  0  0
  8 10  1  0  0  0
  9 13  1  0  0  0
  2  1  1  0  0  0
 16 17  2  0  0  0
 16 21  1  0  0  0
 16 15  1  0  0  0
 17 18  1  0  0  0
 18 19  2  0  0  0
 19 20  1  0  0  0
 19 22  1  0  0  0
 20 21  2  0  0  0
 22 23  2  0  0  0
 22 24  2  0  0  0
 22 25  1  0  0  0
 10 11  1  0  0  0
 10 12  2  0  0  0
 13 14  1  0  0  0
  1 15  1  0  0  0
  2  3  1  0  0  0
 25 26  1  0  0  0
 25 27  1  0  0  0
M  CHG 1  10   1
M  CHG 1  11  -1
M  END
> <minimizedAffinity>
-5.92671

$$$$
