5NZF_G39_A_503


 24 24  0  0  0  0  0  0  0  0999 V2000
   42.5359    0.9019   22.4014 C   0  0  0  0  0  0  0  0  0  0  0  0
   42.2242    1.3596   21.0002 C   0  0  0  0  0  0  0  0  0  0  0  0
   43.1486    0.7559   19.9408 C   0  0  0  0  0  0  0  0  0  0  0  0
   43.2777   -0.7535   20.1766 C   0  0  0  0  0  0  0  0  0  0  0  0
   43.8074   -1.1080   21.5312 C   0  0  0  0  0  0  0  0  0  0  0  0
   43.2043   -0.2478   22.6322 C   0  0  0  0  0  0  0  0  0  0  0  0
   42.5486    1.0872   18.6298 N   0  0  0  0  0  0  0  0  0  0  0  0
   41.6005    0.7136   18.5857 H   0  0  0  0  0  0  0  0  0  0  0  0
   43.1111    0.6760   17.8848 H   0  0  0  0  0  0  0  0  0  0  0  0
   44.1662   -1.3319   19.1882 N   0  0  0  0  0  0  0  0  0  0  0  0
   43.6977   -1.9693   18.1034 C   0  0  0  0  0  0  0  0  0  0  0  0
   42.5250   -2.1142   17.8343 O   0  0  0  0  0  0  0  0  0  0  0  0
   44.7642   -2.4811   17.1268 C   0  0  0  0  0  0  0  0  0  0  0  0
   45.1394   -1.2554   19.3158 H   0  0  0  0  0  0  0  0  0  0  0  0
   42.1396    1.7876   23.5137 C   0  0  0  0  0  0  0  0  0  0  0  0
   41.9849    1.3222   24.6916 O   0  0  0  0  0  0  0  0  0  0  0  0
   41.9290    2.9974   23.2168 O   0  0  0  0  0  0  0  0  0  0  0  0
   42.0565    3.2929   22.3368 H   0  0  0  0  0  0  0  0  0  0  0  0
   43.5635   -2.5110   21.7650 O   0  0  0  0  0  0  0  0  0  0  0  0
   44.7935   -3.1465   22.1822 C   0  0  0  0  0  0  0  0  0  0  0  0
   44.9385   -3.2537   23.7139 C   0  0  0  0  0  0  0  0  0  0  0  0
   46.0060   -2.3640   24.3192 C   0  0  0  0  0  0  0  0  0  0  0  0
   44.8763   -4.5089   21.5359 C   0  0  0  0  0  0  0  0  0  0  0  0
   45.7049   -4.5024   20.2660 C   0  0  0  0  0  0  0  0  0  0  0  0
 15 16  2  0  0  0
 15 17  1  0  0  0
 15  1  1  0  0  0
  1  2  1  0  0  0
  1  6  2  0  0  0
  2  3  1  0  0  0
  3  4  1  0  0  0
  3  7  1  0  0  0
  4 10  1  0  0  0
  4  5  1  0  0  0
 10 11  1  0  0  0
 11 12  2  0  0  0
 11 13  1  0  0  0
  5  6  1  0  0  0
  5 19  1  0  0  0
 19 20  1  0  0  0
 20 21  1  0  0  0
 20 23  1  0  0  0
 21 22  1  0  0  0
 23 24  1  0  0  0
 17 18  1  0  0  0
 10 14  1  0  0  0
  7  8  1  0  0  0
  7  9  1  0  0  0
M  END
> <minimizedAffinity>
-6.88162

$$$$
5NZF_G39_A_503


 24 24  0  0  0  0  0  0  0  0999 V2000
   43.3457    1.1021   23.4703 C   0  0  0  0  0  0  0  0  0  0  0  0
   42.2582    1.3137   22.4491 C   0  0  0  0  0  0  0  0  0  0  0  0
   42.7530    1.2292   21.0037 C   0  0  0  0  0  0  0  0  0  0  0  0
   43.6417   -0.0093   20.8401 C   0  0  0  0  0  0  0  0  0  0  0  0
   44.8281   -0.0237   21.7531 C   0  0  0  0  0  0  0  0  0  0  0  0
   44.4824    0.4441   23.1594 C   0  0  0  0  0  0  0  0  0  0  0  0
   41.5433    1.1894   20.1531 N   0  0  0  0  0  0  0  0  0  0  0  0
   40.9661    0.3919   20.4201 H   0  0  0  0  0  0  0  0  0  0  0  0
   41.8181    1.0979   19.1751 H   0  0  0  0  0  0  0  0  0  0  0  0
   44.1302   -0.0882   19.4777 N   0  0  0  0  0  0  0  0  0  0  0  0
   43.7807   -1.0929   18.6586 C   0  0  0  0  0  0  0  0  0  0  0  0
   43.0362   -2.0028   18.9525 O   0  0  0  0  0  0  0  0  0  0  0  0
   44.3402   -1.0069   17.2329 C   0  0  0  0  0  0  0  0  0  0  0  0
   44.7345    0.6137   19.1441 H   0  0  0  0  0  0  0  0  0  0  0  0
   43.1519    1.6955   24.8078 C   0  0  0  0  0  0  0  0  0  0  0  0
   43.8164    1.2692   25.8103 O   0  0  0  0  0  0  0  0  0  0  0  0
   42.2754    2.6010   24.8958 O   0  0  0  0  0  0  0  0  0  0  0  0
   41.8129    2.8813   24.1307 H   0  0  0  0  0  0  0  0  0  0  0  0
   45.3824   -1.3561   21.7620 O   0  0  0  0  0  0  0  0  0  0  0  0
   44.6828   -2.1578   22.7412 C   0  0  0  0  0  0  0  0  0  0  0  0
   43.6325   -3.1021   22.1219 C   0  0  0  0  0  0  0  0  0  0  0  0
   44.1605   -4.4602   21.7043 C   0  0  0  0  0  0  0  0  0  0  0  0
   45.6991   -2.9341   23.5445 C   0  0  0  0  0  0  0  0  0  0  0  0
   46.0743   -2.2381   24.8384 C   0  0  0  0  0  0  0  0  0  0  0  0
 15 16  2  0  0  0
 15 17  1  0  0  0
 15  1  1  0  0  0
  1  2  1  0  0  0
  1  6  2  0  0  0
  2  3  1  0  0  0
  3  4  1  0  0  0
  3  7  1  0  0  0
  4 10  1  0  0  0
  4  5  1  0  0  0
 10 11  1  0  0  0
 11 12  2  0  0  0
 11 13  1  0  0  0
  5  6  1  0  0  0
  5 19  1  0  0  0
 19 20  1  0  0  0
 20 21  1  0  0  0
 20 23  1  0  0  0
 21 22  1  0  0  0
 23 24  1  0  0  0
 17 18  1  0  0  0
 10 14  1  0  0  0
  7  8  1  0  0  0
  7  9  1  0  0  0
M  END
> <minimizedAffinity>
-6.80572

$$$$
5NZF_G39_A_503


 24 24  0  0  0  0  0  0  0  0999 V2000
   43.3506   -0.8936   18.9841 C   0  0  0  0  0  0  0  0  0  0  0  0
   43.1380    0.5685   19.2796 C   0  0  0  0  0  0  0  0  0  0  0  0
   42.7959    0.8521   20.7438 C   0  0  0  0  0  0  0  0  0  0  0  0
   43.7625    0.0830   21.6519 C   0  0  0  0  0  0  0  0  0  0  0  0
   43.7431   -1.3980   21.4347 C   0  0  0  0  0  0  0  0  0  0  0  0
   43.6809   -1.7663   19.9593 C   0  0  0  0  0  0  0  0  0  0  0  0
   42.8858    2.3188   20.9138 N   0  0  0  0  0  0  0  0  0  0  0  0
   43.8218    2.6339   20.6589 H   0  0  0  0  0  0  0  0  0  0  0  0
   42.6990    2.5603   21.8871 H   0  0  0  0  0  0  0  0  0  0  0  0
   43.4351    0.3312   23.0418 N   0  0  0  0  0  0  0  0  0  0  0  0
   44.1377    1.1968   23.7900 C   0  0  0  0  0  0  0  0  0  0  0  0
   45.0791    1.8510   23.3969 O   0  0  0  0  0  0  0  0  0  0  0  0
   43.6352    1.3863   25.2269 C   0  0  0  0  0  0  0  0  0  0  0  0
   42.6771   -0.1478   23.4483 H   0  0  0  0  0  0  0  0  0  0  0  0
   43.1228   -1.3511   17.5994 C   0  0  0  0  0  0  0  0  0  0  0  0
   42.8509   -0.5145   16.6750 O   0  0  0  0  0  0  0  0  0  0  0  0
   43.1729   -2.5987   17.4076 O   0  0  0  0  0  0  0  0  0  0  0  0
   43.3769   -3.1741   18.1184 H   0  0  0  0  0  0  0  0  0  0  0  0
   44.9049   -1.9693   22.0721 O   0  0  0  0  0  0  0  0  0  0  0  0
   44.5054   -3.1216   22.8488 C   0  0  0  0  0  0  0  0  0  0  0  0
   44.6422   -4.4535   22.0832 C   0  0  0  0  0  0  0  0  0  0  0  0
   45.8607   -4.5540   21.1873 C   0  0  0  0  0  0  0  0  0  0  0  0
   45.3130   -3.1475   24.1246 C   0  0  0  0  0  0  0  0  0  0  0  0
   46.1215   -1.8809   24.3286 C   0  0  0  0  0  0  0  0  0  0  0  0
 15 16  2  0  0  0
 15 17  1  0  0  0
 15  1  1  0  0  0
  1  2  1  0  0  0
  1  6  2  0  0  0
  2  3  1  0  0  0
  3  4  1  0  0  0
  3  7  1  0  0  0
  4 10  1  0  0  0
  4  5  1  0  0  0
 10 11  1  0  0  0
 11 12  2  0  0  0
 11 13  1  0  0  0
  5  6  1  0  0  0
  5 19  1  0  0  0
 19 20  1  0  0  0
 20 21  1  0  0  0
 20 23  1  0  0  0
 21 22  1  0  0  0
 23 24  1  0  0  0
 17 18  1  0  0  0
 10 14  1  0  0  0
  7  8  1  0  0  0
  7  9  1  0  0  0
M  END
> <minimizedAffinity>
-6.76269

$$$$
5NZF_G39_A_503


 24 24  0  0  0  0  0  0  0  0999 V2000
   43.8025   -1.5413   18.9072 C   0  0  0  0  0  0  0  0  0  0  0  0
   44.3686   -2.8616   19.3619 C   0  0  0  0  0  0  0  0  0  0  0  0
   45.2991   -2.7431   20.5708 C   0  0  0  0  0  0  0  0  0  0  0  0
   44.6437   -1.8538   21.6339 C   0  0  0  0  0  0  0  0  0  0  0  0
   44.3144   -0.4769   21.1474 C   0  0  0  0  0  0  0  0  0  0  0  0
   43.7300   -0.4835   19.7422 C   0  0  0  0  0  0  0  0  0  0  0  0
   45.5437   -4.1237   21.0424 N   0  0  0  0  0  0  0  0  0  0  0  0
   44.6542   -4.5676   21.2708 H   0  0  0  0  0  0  0  0  0  0  0  0
   46.1348   -4.0994   21.8733 H   0  0  0  0  0  0  0  0  0  0  0  0
   45.5257   -1.7208   22.7764 N   0  0  0  0  0  0  0  0  0  0  0  0
   45.3600   -2.4570   23.8869 C   0  0  0  0  0  0  0  0  0  0  0  0
   44.4956   -3.2915   24.0454 O   0  0  0  0  0  0  0  0  0  0  0  0
   46.4055   -2.2357   24.9873 C   0  0  0  0  0  0  0  0  0  0  0  0
   46.2663   -1.0733   22.7370 H   0  0  0  0  0  0  0  0  0  0  0  0
   43.3871   -1.4258   17.4955 C   0  0  0  0  0  0  0  0  0  0  0  0
   42.5713   -0.5150   17.1306 O   0  0  0  0  0  0  0  0  0  0  0  0
   43.8504   -2.2944   16.7038 O   0  0  0  0  0  0  0  0  0  0  0  0
   44.4475   -2.9443   17.0186 H   0  0  0  0  0  0  0  0  0  0  0  0
   43.4122    0.1382   22.0908 O   0  0  0  0  0  0  0  0  0  0  0  0
   43.8149    1.5091   22.3127 C   0  0  0  0  0  0  0  0  0  0  0  0
   42.6970    2.5307   22.0206 C   0  0  0  0  0  0  0  0  0  0  0  0
   41.3476    1.9251   21.6892 C   0  0  0  0  0  0  0  0  0  0  0  0
   44.3101    1.6429   23.7331 C   0  0  0  0  0  0  0  0  0  0  0  0
   43.5451    0.7629   24.7025 C   0  0  0  0  0  0  0  0  0  0  0  0
 15 16  2  0  0  0
 15 17  1  0  0  0
 15  1  1  0  0  0
  1  2  1  0  0  0
  1  6  2  0  0  0
  2  3  1  0  0  0
  3  4  1  0  0  0
  3  7  1  0  0  0
  4 10  1  0  0  0
  4  5  1  0  0  0
 10 11  1  0  0  0
 11 12  2  0  0  0
 11 13  1  0  0  0
  5  6  1  0  0  0
  5 19  1  0  0  0
 19 20  1  0  0  0
 20 21  1  0  0  0
 20 23  1  0  0  0
 21 22  1  0  0  0
 23 24  1  0  0  0
 17 18  1  0  0  0
 10 14  1  0  0  0
  7  8  1  0  0  0
  7  9  1  0  0  0
M  END
> <minimizedAffinity>
-6.60596

$$$$
5NZF_G39_A_503


 24 24  0  0  0  0  0  0  0  0999 V2000
   43.3370   -1.0730   19.0947 C   0  0  0  0  0  0  0  0  0  0  0  0
   43.1941    0.4158   19.2773 C   0  0  0  0  0  0  0  0  0  0  0  0
   42.7660    0.8195   20.6897 C   0  0  0  0  0  0  0  0  0  0  0  0
   43.6159    0.0620   21.7166 C   0  0  0  0  0  0  0  0  0  0  0  0
   43.5210   -1.4271   21.5956 C   0  0  0  0  0  0  0  0  0  0  0  0
   43.5422   -1.8930   20.1469 C   0  0  0  0  0  0  0  0  0  0  0  0
   42.9336    2.2870   20.7701 N   0  0  0  0  0  0  0  0  0  0  0  0
   43.9031    2.5302   20.5667 H   0  0  0  0  0  0  0  0  0  0  0  0
   42.6928    2.6059   21.7086 H   0  0  0  0  0  0  0  0  0  0  0  0
   43.2055    0.4245   23.0586 N   0  0  0  0  0  0  0  0  0  0  0  0
   43.9228    1.2730   23.8124 C   0  0  0  0  0  0  0  0  0  0  0  0
   44.9466    1.8189   23.4621 O   0  0  0  0  0  0  0  0  0  0  0  0
   43.3298    1.5948   25.1899 C   0  0  0  0  0  0  0  0  0  0  0  0
   42.3785    0.0381   23.4274 H   0  0  0  0  0  0  0  0  0  0  0  0
   43.1814   -1.6121   17.7294 C   0  0  0  0  0  0  0  0  0  0  0  0
   43.6999   -2.7335   17.4105 O   0  0  0  0  0  0  0  0  0  0  0  0
   42.5523   -0.8851   16.9099 O   0  0  0  0  0  0  0  0  0  0  0  0
   42.1887   -0.0686   17.1912 H   0  0  0  0  0  0  0  0  0  0  0  0
   44.5967   -2.0174   22.3550 O   0  0  0  0  0  0  0  0  0  0  0  0
   45.7054   -2.3013   21.4713 C   0  0  0  0  0  0  0  0  0  0  0  0
   46.8673   -1.2959   21.6039 C   0  0  0  0  0  0  0  0  0  0  0  0
   48.2317   -1.8424   21.2333 C   0  0  0  0  0  0  0  0  0  0  0  0
   46.1802   -3.7114   21.7302 C   0  0  0  0  0  0  0  0  0  0  0  0
   45.8741   -4.6502   20.5794 C   0  0  0  0  0  0  0  0  0  0  0  0
 15 16  2  0  0  0
 15 17  1  0  0  0
 15  1  1  0  0  0
  1  2  1  0  0  0
  1  6  2  0  0  0
  2  3  1  0  0  0
  3  4  1  0  0  0
  3  7  1  0  0  0
  4 10  1  0  0  0
  4  5  1  0  0  0
 10 11  1  0  0  0
 11 12  2  0  0  0
 11 13  1  0  0  0
  5  6  1  0  0  0
  5 19  1  0  0  0
 19 20  1  0  0  0
 20 21  1  0  0  0
 20 23  1  0  0  0
 21 22  1  0  0  0
 23 24  1  0  0  0
 17 18  1  0  0  0
 10 14  1  0  0  0
  7  8  1  0  0  0
  7  9  1  0  0  0
M  END
> <minimizedAffinity>
-6.15388

$$$$
5NZF_G39_A_503


 24 24  0  0  0  0  0  0  0  0999 V2000
   45.1043   -3.1676   20.9927 C   0  0  0  0  0  0  0  0  0  0  0  0
   44.0771   -2.1593   20.5474 C   0  0  0  0  0  0  0  0  0  0  0  0
   43.4138   -1.4111   21.7056 C   0  0  0  0  0  0  0  0  0  0  0  0
   44.4899   -0.9338   22.6877 C   0  0  0  0  0  0  0  0  0  0  0  0
   45.3255   -2.0413   23.2502 C   0  0  0  0  0  0  0  0  0  0  0  0
   45.7060   -3.0720   22.1971 C   0  0  0  0  0  0  0  0  0  0  0  0
   42.6512   -0.2987   21.0978 N   0  0  0  0  0  0  0  0  0  0  0  0
   43.2834    0.2914   20.5571 H   0  0  0  0  0  0  0  0  0  0  0  0
   42.2143    0.2561   21.8338 H   0  0  0  0  0  0  0  0  0  0  0  0
   43.8697   -0.2389   23.7982 N   0  0  0  0  0  0  0  0  0  0  0  0
   44.2028    1.0217   24.1182 C   0  0  0  0  0  0  0  0  0  0  0  0
   45.0182    1.6966   23.5280 O   0  0  0  0  0  0  0  0  0  0  0  0
   43.4208    1.6345   25.2870 C   0  0  0  0  0  0  0  0  0  0  0  0
   43.1857   -0.7039   24.3323 H   0  0  0  0  0  0  0  0  0  0  0  0
   45.3845   -4.3018   20.0905 C   0  0  0  0  0  0  0  0  0  0  0  0
   45.8294   -5.4050   20.5523 O   0  0  0  0  0  0  0  0  0  0  0  0
   45.1982   -4.0949   18.8583 O   0  0  0  0  0  0  0  0  0  0  0  0
   44.8694   -3.2673   18.5667 H   0  0  0  0  0  0  0  0  0  0  0  0
   46.4941   -1.4638   23.8692 O   0  0  0  0  0  0  0  0  0  0  0  0
   47.3278   -2.5216   24.3955 C   0  0  0  0  0  0  0  0  0  0  0  0
   48.8097   -2.1194   24.5389 C   0  0  0  0  0  0  0  0  0  0  0  0
   49.6383   -2.2703   23.2787 C   0  0  0  0  0  0  0  0  0  0  0  0
   46.7597   -2.9695   25.7212 C   0  0  0  0  0  0  0  0  0  0  0  0
   47.6965   -3.8940   26.4743 C   0  0  0  0  0  0  0  0  0  0  0  0
 15 16  2  0  0  0
 15 17  1  0  0  0
 15  1  1  0  0  0
  1  2  1  0  0  0
  1  6  2  0  0  0
  2  3  1  0  0  0
  3  4  1  0  0  0
  3  7  1  0  0  0
  4 10  1  0  0  0
  4  5  1  0  0  0
 10 11  1  0  0  0
 11 12  2  0  0  0
 11 13  1  0  0  0
  5  6  1  0  0  0
  5 19  1  0  0  0
 19 20  1  0  0  0
 20 21  1  0  0  0
 20 23  1  0  0  0
 21 22  1  0  0  0
 23 24  1  0  0  0
 17 18  1  0  0  0
 10 14  1  0  0  0
  7  8  1  0  0  0
  7  9  1  0  0  0
M  END
> <minimizedAffinity>
-6.14116

$$$$
5NZF_G39_A_503


 24 24  0  0  0  0  0  0  0  0999 V2000
   46.0868   -1.8849   23.5681 C   0  0  0  0  0  0  0  0  0  0  0  0
   46.8970   -1.7415   22.3059 C   0  0  0  0  0  0  0  0  0  0  0  0
   46.1412   -2.1628   21.0439 C   0  0  0  0  0  0  0  0  0  0  0  0
   44.7402   -1.5402   21.0564 C   0  0  0  0  0  0  0  0  0  0  0  0
   43.9233   -1.9200   22.2521 C   0  0  0  0  0  0  0  0  0  0  0  0
   44.7377   -1.9071   23.5377 C   0  0  0  0  0  0  0  0  0  0  0  0
   46.9634   -1.7138   19.8991 N   0  0  0  0  0  0  0  0  0  0  0  0
   47.1045   -0.7053   19.9566 H   0  0  0  0  0  0  0  0  0  0  0  0
   46.4853   -1.9411   19.0272 H   0  0  0  0  0  0  0  0  0  0  0  0
   44.0096   -1.9482   19.8730 N   0  0  0  0  0  0  0  0  0  0  0  0
   43.9893   -1.1967   18.7606 C   0  0  0  0  0  0  0  0  0  0  0  0
   44.5685   -0.1409   18.6240 O   0  0  0  0  0  0  0  0  0  0  0  0
   43.2134   -1.7897   17.5777 C   0  0  0  0  0  0  0  0  0  0  0  0
   43.5149   -2.7993   19.8852 H   0  0  0  0  0  0  0  0  0  0  0  0
   46.8220   -2.0643   24.8354 C   0  0  0  0  0  0  0  0  0  0  0  0
   46.3367   -2.7818   25.7723 O   0  0  0  0  0  0  0  0  0  0  0  0
   47.9154   -1.4403   24.9402 O   0  0  0  0  0  0  0  0  0  0  0  0
   48.2316   -0.9255   24.2240 H   0  0  0  0  0  0  0  0  0  0  0  0
   42.7922   -1.0278   22.3355 O   0  0  0  0  0  0  0  0  0  0  0  0
   43.2152    0.2266   22.9171 C   0  0  0  0  0  0  0  0  0  0  0  0
   43.2675    1.3859   21.9013 C   0  0  0  0  0  0  0  0  0  0  0  0
   42.1899    1.3519   20.8359 C   0  0  0  0  0  0  0  0  0  0  0  0
   42.2959    0.5593   24.0682 C   0  0  0  0  0  0  0  0  0  0  0  0
   42.8901    1.5882   25.0103 C   0  0  0  0  0  0  0  0  0  0  0  0
 15 16  2  0  0  0
 15 17  1  0  0  0
 15  1  1  0  0  0
  1  2  1  0  0  0
  1  6  2  0  0  0
  2  3  1  0  0  0
  3  4  1  0  0  0
  3  7  1  0  0  0
  4 10  1  0  0  0
  4  5  1  0  0  0
 10 11  1  0  0  0
 11 12  2  0  0  0
 11 13  1  0  0  0
  5  6  1  0  0  0
  5 19  1  0  0  0
 19 20  1  0  0  0
 20 21  1  0  0  0
 20 23  1  0  0  0
 21 22  1  0  0  0
 23 24  1  0  0  0
 17 18  1  0  0  0
 10 14  1  0  0  0
  7  8  1  0  0  0
  7  9  1  0  0  0
M  END
> <minimizedAffinity>
-6.02355

$$$$
5NZF_G39_A_503


 24 24  0  0  0  0  0  0  0  0999 V2000
   42.9855    0.9243   21.7185 C   0  0  0  0  0  0  0  0  0  0  0  0
   43.6764    1.0939   23.0467 C   0  0  0  0  0  0  0  0  0  0  0  0
   44.4614   -0.1428   23.4889 C   0  0  0  0  0  0  0  0  0  0  0  0
   45.3047   -0.6581   22.3167 C   0  0  0  0  0  0  0  0  0  0  0  0
   44.4993   -1.0111   21.1052 C   0  0  0  0  0  0  0  0  0  0  0  0
   43.4028    0.0056   20.8222 C   0  0  0  0  0  0  0  0  0  0  0  0
   45.2785    0.2775   24.6483 N   0  0  0  0  0  0  0  0  0  0  0  0
   45.8832    1.0522   24.3750 H   0  0  0  0  0  0  0  0  0  0  0  0
   45.8508   -0.5060   24.9629 H   0  0  0  0  0  0  0  0  0  0  0  0
   46.0387   -1.8408   22.7208 N   0  0  0  0  0  0  0  0  0  0  0  0
   47.3758   -1.9109   22.6224 C   0  0  0  0  0  0  0  0  0  0  0  0
   48.0905   -1.0219   22.2128 O   0  0  0  0  0  0  0  0  0  0  0  0
   48.0083   -3.2098   23.1379 C   0  0  0  0  0  0  0  0  0  0  0  0
   45.5434   -2.6135   23.0770 H   0  0  0  0  0  0  0  0  0  0  0  0
   41.7946    1.7561   21.4567 C   0  0  0  0  0  0  0  0  0  0  0  0
   41.4466    2.6694   22.2771 O   0  0  0  0  0  0  0  0  0  0  0  0
   41.1381    1.4795   20.4134 O   0  0  0  0  0  0  0  0  0  0  0  0
   41.4336    0.7995   19.8405 H   0  0  0  0  0  0  0  0  0  0  0  0
   45.3962   -1.1455   19.9827 O   0  0  0  0  0  0  0  0  0  0  0  0
   45.0335   -2.3188   19.2194 C   0  0  0  0  0  0  0  0  0  0  0  0
   44.7837   -2.0248   17.7262 C   0  0  0  0  0  0  0  0  0  0  0  0
   43.4037   -1.4883   17.4020 C   0  0  0  0  0  0  0  0  0  0  0  0
   46.1146   -3.3593   19.3908 C   0  0  0  0  0  0  0  0  0  0  0  0
   45.6754   -4.5177   20.2652 C   0  0  0  0  0  0  0  0  0  0  0  0
 15 16  2  0  0  0
 15 17  1  0  0  0
 15  1  1  0  0  0
  1  2  1  0  0  0
  1  6  2  0  0  0
  2  3  1  0  0  0
  3  4  1  0  0  0
  3  7  1  0  0  0
  4 10  1  0  0  0
  4  5  1  0  0  0
 10 11  1  0  0  0
 11 12  2  0  0  0
 11 13  1  0  0  0
  5  6  1  0  0  0
  5 19  1  0  0  0
 19 20  1  0  0  0
 20 21  1  0  0  0
 20 23  1  0  0  0
 21 22  1  0  0  0
 23 24  1  0  0  0
 17 18  1  0  0  0
 10 14  1  0  0  0
  7  8  1  0  0  0
  7  9  1  0  0  0
M  END
> <minimizedAffinity>
-5.97658

$$$$
5NZF_G39_A_503


 24 24  0  0  0  0  0  0  0  0999 V2000
   44.1548   -3.1948   21.2516 C   0  0  0  0  0  0  0  0  0  0  0  0
   43.0992   -2.6949   22.2034 C   0  0  0  0  0  0  0  0  0  0  0  0
   43.2141   -1.2007   22.5127 C   0  0  0  0  0  0  0  0  0  0  0  0
   43.4101   -0.4228   21.2062 C   0  0  0  0  0  0  0  0  0  0  0  0
   44.6187   -0.8446   20.4299 C   0  0  0  0  0  0  0  0  0  0  0  0
   44.7968   -2.3559   20.4115 C   0  0  0  0  0  0  0  0  0  0  0  0
   41.9731   -0.8286   23.2267 N   0  0  0  0  0  0  0  0  0  0  0  0
   41.1660   -1.0503   22.6437 H   0  0  0  0  0  0  0  0  0  0  0  0
   41.9832    0.1713   23.4275 H   0  0  0  0  0  0  0  0  0  0  0  0
   43.5380    0.9927   21.4904 N   0  0  0  0  0  0  0  0  0  0  0  0
   42.4869    1.8252   21.4223 C   0  0  0  0  0  0  0  0  0  0  0  0
   41.3557    1.4952   21.1392 O   0  0  0  0  0  0  0  0  0  0  0  0
   42.7746    3.2836   21.8009 C   0  0  0  0  0  0  0  0  0  0  0  0
   44.4193    1.3534   21.7403 H   0  0  0  0  0  0  0  0  0  0  0  0
   44.5083   -4.6266   21.3139 C   0  0  0  0  0  0  0  0  0  0  0  0
   45.0956   -5.1942   20.3335 O   0  0  0  0  0  0  0  0  0  0  0  0
   44.1599   -5.2432   22.3600 O   0  0  0  0  0  0  0  0  0  0  0  0
   43.7307   -4.7828   23.0542 H   0  0  0  0  0  0  0  0  0  0  0  0
   44.5139   -0.3098   19.0937 O   0  0  0  0  0  0  0  0  0  0  0  0
   44.9271   -1.3172   18.1423 C   0  0  0  0  0  0  0  0  0  0  0  0
   44.0020   -1.4140   16.9122 C   0  0  0  0  0  0  0  0  0  0  0  0
   44.4501   -0.6071   15.7098 C   0  0  0  0  0  0  0  0  0  0  0  0
   46.3506   -1.0326   17.7256 C   0  0  0  0  0  0  0  0  0  0  0  0
   47.1829   -2.2933   17.5949 C   0  0  0  0  0  0  0  0  0  0  0  0
 15 16  2  0  0  0
 15 17  1  0  0  0
 15  1  1  0  0  0
  1  2  1  0  0  0
  1  6  2  0  0  0
  2  3  1  0  0  0
  3  4  1  0  0  0
  3  7  1  0  0  0
  4 10  1  0  0  0
  4  5  1  0  0  0
 10 11  1  0  0  0
 11 12  2  0  0  0
 11 13  1  0  0  0
  5  6  1  0  0  0
  5 19  1  0  0  0
 19 20  1  0  0  0
 20 21  1  0  0  0
 20 23  1  0  0  0
 21 22  1  0  0  0
 23 24  1  0  0  0
 17 18  1  0  0  0
 10 14  1  0  0  0
  7  8  1  0  0  0
  7  9  1  0  0  0
M  END
> <minimizedAffinity>
-5.84861

$$$$
5NZF_G39_A_503


 24 24  0  0  0  0  0  0  0  0999 V2000
   43.4231    0.8411   21.8257 C   0  0  0  0  0  0  0  0  0  0  0  0
   43.5148    1.1773   23.2916 C   0  0  0  0  0  0  0  0  0  0  0  0
   43.9063   -0.0143   24.1681 C   0  0  0  0  0  0  0  0  0  0  0  0
   45.0984   -0.7426   23.5363 C   0  0  0  0  0  0  0  0  0  0  0  0
   44.8351   -1.2365   22.1478 C   0  0  0  0  0  0  0  0  0  0  0  0
   44.0723   -0.2226   21.3074 C   0  0  0  0  0  0  0  0  0  0  0  0
   44.2091    0.5376   25.5067 N   0  0  0  0  0  0  0  0  0  0  0  0
   44.9528    1.2312   25.4283 H   0  0  0  0  0  0  0  0  0  0  0  0
   44.5105   -0.2157   26.1248 H   0  0  0  0  0  0  0  0  0  0  0  0
   45.4655   -1.8842   24.3504 N   0  0  0  0  0  0  0  0  0  0  0  0
   46.7229   -2.0686   24.7834 C   0  0  0  0  0  0  0  0  0  0  0  0
   47.6515   -1.3223   24.5608 O   0  0  0  0  0  0  0  0  0  0  0  0
   46.9399   -3.2968   25.6764 C   0  0  0  0  0  0  0  0  0  0  0  0
   44.7742   -2.5421   24.5924 H   0  0  0  0  0  0  0  0  0  0  0  0
   42.5462    1.6803   20.9858 C   0  0  0  0  0  0  0  0  0  0  0  0
   41.4744    1.2021   20.4850 O   0  0  0  0  0  0  0  0  0  0  0  0
   42.9424    2.8601   20.7688 O   0  0  0  0  0  0  0  0  0  0  0  0
   43.7370    3.1667   21.1593 H   0  0  0  0  0  0  0  0  0  0  0  0
   46.0964   -1.5837   21.5388 O   0  0  0  0  0  0  0  0  0  0  0  0
   46.0216   -2.9317   21.0210 C   0  0  0  0  0  0  0  0  0  0  0  0
   44.5971   -3.5219   21.0530 C   0  0  0  0  0  0  0  0  0  0  0  0
   44.4399   -4.7681   21.9013 C   0  0  0  0  0  0  0  0  0  0  0  0
   46.5779   -2.9411   19.6170 C   0  0  0  0  0  0  0  0  0  0  0  0
   45.6322   -2.3143   18.6110 C   0  0  0  0  0  0  0  0  0  0  0  0
 15 16  2  0  0  0
 15 17  1  0  0  0
 15  1  1  0  0  0
  1  2  1  0  0  0
  1  6  2  0  0  0
  2  3  1  0  0  0
  3  4  1  0  0  0
  3  7  1  0  0  0
  4 10  1  0  0  0
  4  5  1  0  0  0
 10 11  1  0  0  0
 11 12  2  0  0  0
 11 13  1  0  0  0
  5  6  1  0  0  0
  5 19  1  0  0  0
 19 20  1  0  0  0
 20 21  1  0  0  0
 20 23  1  0  0  0
 21 22  1  0  0  0
 23 24  1  0  0  0
 17 18  1  0  0  0
 10 14  1  0  0  0
  7  8  1  0  0  0
  7  9  1  0  0  0
M  END
> <minimizedAffinity>
-5.77461

$$$$
