1NF8_ISC_A_220


 19 19  0  0  0  0  0  0  0  0999 V2000
    5.8782   20.7732   75.3176 C   0  0  0  0  0  0  0  0  0  0  0  0
    5.7526   20.6137   73.7987 C   0  0  0  0  0  0  0  0  0  0  0  0
    6.4733   19.6436   73.2019 C   0  0  0  0  0  0  0  0  0  0  0  0
    4.4622   20.8312   73.4280 O   0  0  0  0  0  0  0  0  0  0  0  0
    6.6458   18.4027   73.9845 C   0  0  0  0  0  0  0  0  0  0  0  0
    6.5995   18.4227   75.3764 C   0  0  0  0  0  0  0  0  0  0  0  0
    6.2901   19.5942   76.0927 C   0  0  0  0  0  0  0  0  0  0  0  0
    3.8930   20.1538   73.8257 H   0  0  0  0  0  0  0  0  0  0  0  0
    5.5161   22.0377   76.0713 C   0  0  0  0  0  0  0  0  0  0  0  0
    4.3991   22.5738   76.0826 O   0  0  0  0  0  0  0  0  0  0  0  0
    6.4788   22.4975   76.7260 O   0  0  0  0  0  0  0  0  0  0  0  0
    7.3119   22.0695   76.6972 H   0  0  0  0  0  0  0  0  0  0  0  0
    7.7924   20.0892   72.9150 O   0  0  0  0  0  0  0  0  0  0  0  0
    8.3620   20.0721   71.6728 C   0  0  0  0  0  0  0  0  0  0  0  0
    9.7826   20.1638   71.4986 C   0  0  0  0  0  0  0  0  0  0  0  0
    7.5666   19.9846   70.4691 C   0  0  0  0  0  0  0  0  0  0  0  0
    6.8128   20.9348   70.1394 O   0  0  0  0  0  0  0  0  0  0  0  0
    7.8735   19.0507   69.6992 O   0  0  0  0  0  0  0  0  0  0  0  0
    6.6142   21.6112   70.7566 H   0  0  0  0  0  0  0  0  0  0  0  0
  9  1  1  0  0  0
  9 10  2  0  0  0
  9 11  1  0  0  0
  1  2  1  0  0  0
  1  7  2  0  0  0
  2  3  1  0  0  0
  2  4  1  0  0  0
  3  5  1  0  0  0
  3 13  1  0  0  0
  5  6  2  0  0  0
  6  7  1  0  0  0
 16 17  1  0  0  0
 16 14  1  0  0  0
 16 18  2  0  0  0
 14 15  2  0  0  0
 14 13  1  0  0  0
 11 12  1  0  0  0
  4  8  1  0  0  0
 17 19  1  0  0  0
M  END
> <minimizedAffinity>
-10.04613

$$$$
1NF8_ISC_A_220


 19 19  0  0  0  0  0  0  0  0999 V2000
    6.0842   20.7714   75.3876 C   0  0  0  0  0  0  0  0  0  0  0  0
    5.5157   20.7276   73.9652 C   0  0  0  0  0  0  0  0  0  0  0  0
    5.9115   19.7256   73.1554 C   0  0  0  0  0  0  0  0  0  0  0  0
    4.2107   21.1102   73.9897 O   0  0  0  0  0  0  0  0  0  0  0  0
    6.1421   18.4242   73.8152 C   0  0  0  0  0  0  0  0  0  0  0  0
    6.4937   18.3570   75.1612 C   0  0  0  0  0  0  0  0  0  0  0  0
    6.5479   19.5055   75.9731 C   0  0  0  0  0  0  0  0  0  0  0  0
    3.6972   20.4749   74.5129 H   0  0  0  0  0  0  0  0  0  0  0  0
    6.1104   22.0154   76.2536 C   0  0  0  0  0  0  0  0  0  0  0  0
    6.9155   22.2384   77.1687 O   0  0  0  0  0  0  0  0  0  0  0  0
    5.2251   22.8405   75.9337 O   0  0  0  0  0  0  0  0  0  0  0  0
    4.6305   22.6431   75.2370 H   0  0  0  0  0  0  0  0  0  0  0  0
    7.1407   20.0409   72.5145 O   0  0  0  0  0  0  0  0  0  0  0  0
    7.2650   20.3522   71.1896 C   0  0  0  0  0  0  0  0  0  0  0  0
    6.2571   21.1026   70.4984 C   0  0  0  0  0  0  0  0  0  0  0  0
    8.4034   19.9245   70.4083 C   0  0  0  0  0  0  0  0  0  0  0  0
    9.5670   20.0481   70.8670 O   0  0  0  0  0  0  0  0  0  0  0  0
    8.1277   19.2262   69.4106 O   0  0  0  0  0  0  0  0  0  0  0  0
    9.7194   20.5853   71.6194 H   0  0  0  0  0  0  0  0  0  0  0  0
  9  1  1  0  0  0
  9 10  2  0  0  0
  9 11  1  0  0  0
  1  2  1  0  0  0
  1  7  2  0  0  0
  2  3  1  0  0  0
  2  4  1  0  0  0
  3  5  1  0  0  0
  3 13  1  0  0  0
  5  6  2  0  0  0
  6  7  1  0  0  0
 16 17  1  0  0  0
 16 14  1  0  0  0
 16 18  2  0  0  0
 14 15  2  0  0  0
 14 13  1  0  0  0
 11 12  1  0  0  0
  4  8  1  0  0  0
 17 19  1  0  0  0
M  END
> <minimizedAffinity>
-9.14584

$$$$
1NF8_ISC_A_220


 19 19  0  0  0  0  0  0  0  0999 V2000
    6.8554   20.0921   72.0009 C   0  0  0  0  0  0  0  0  0  0  0  0
    6.4473   19.1412   73.1312 C   0  0  0  0  0  0  0  0  0  0  0  0
    5.8851   19.6731   74.2346 C   0  0  0  0  0  0  0  0  0  0  0  0
    5.9493   17.9938   72.5969 O   0  0  0  0  0  0  0  0  0  0  0  0
    5.0105   20.8414   74.0060 C   0  0  0  0  0  0  0  0  0  0  0  0
    5.1965   21.6688   72.9012 C   0  0  0  0  0  0  0  0  0  0  0  0
    6.1505   21.3786   71.9078 C   0  0  0  0  0  0  0  0  0  0  0  0
    5.1418   18.1935   72.0979 H   0  0  0  0  0  0  0  0  0  0  0  0
    7.8686   19.7489   70.9268 C   0  0  0  0  0  0  0  0  0  0  0  0
    7.6491   19.0498   69.9275 O   0  0  0  0  0  0  0  0  0  0  0  0
    8.9850   20.2747   71.1358 O   0  0  0  0  0  0  0  0  0  0  0  0
    9.1204   20.7984   71.9009 H   0  0  0  0  0  0  0  0  0  0  0  0
    6.8770   20.1238   75.1478 O   0  0  0  0  0  0  0  0  0  0  0  0
    6.6987   20.2186   76.4995 C   0  0  0  0  0  0  0  0  0  0  0  0
    6.3442   19.0761   77.2904 C   0  0  0  0  0  0  0  0  0  0  0  0
    6.8338   21.4750   77.2012 C   0  0  0  0  0  0  0  0  0  0  0  0
    6.4701   22.5466   76.6543 O   0  0  0  0  0  0  0  0  0  0  0  0
    7.0851   21.3754   78.4203 O   0  0  0  0  0  0  0  0  0  0  0  0
    6.2939   22.5668   75.7343 H   0  0  0  0  0  0  0  0  0  0  0  0
  9  1  1  0  0  0
  9 10  2  0  0  0
  9 11  1  0  0  0
  1  2  1  0  0  0
  1  7  2  0  0  0
  2  3  1  0  0  0
  2  4  1  0  0  0
  3  5  1  0  0  0
  3 13  1  0  0  0
  5  6  2  0  0  0
  6  7  1  0  0  0
 16 17  1  0  0  0
 16 14  1  0  0  0
 16 18  2  0  0  0
 14 15  2  0  0  0
 14 13  1  0  0  0
 11 12  1  0  0  0
  4  8  1  0  0  0
 17 19  1  0  0  0
M  END
> <minimizedAffinity>
-8.05926

$$$$
1NF8_ISC_A_220


 19 19  0  0  0  0  0  0  0  0999 V2000
    6.7153   19.6648   71.7818 C   0  0  0  0  0  0  0  0  0  0  0  0
    7.5493   19.8797   73.0494 C   0  0  0  0  0  0  0  0  0  0  0  0
    7.1323   19.2932   74.1890 C   0  0  0  0  0  0  0  0  0  0  0  0
    8.8701   19.8787   72.7250 O   0  0  0  0  0  0  0  0  0  0  0  0
    6.5000   17.9676   74.0310 C   0  0  0  0  0  0  0  0  0  0  0  0
    5.8659   17.6147   72.8422 C   0  0  0  0  0  0  0  0  0  0  0  0
    5.8834   18.4549   71.7131 C   0  0  0  0  0  0  0  0  0  0  0  0
    9.1166   19.0080   72.3756 H   0  0  0  0  0  0  0  0  0  0  0  0
    6.7681   20.5700   70.5670 C   0  0  0  0  0  0  0  0  0  0  0  0
    5.9550   21.4665   70.3017 O   0  0  0  0  0  0  0  0  0  0  0  0
    7.7591   20.3370   69.8388 O   0  0  0  0  0  0  0  0  0  0  0  0
    8.3567   19.6520   70.0659 H   0  0  0  0  0  0  0  0  0  0  0  0
    6.1604   20.0928   74.8500 O   0  0  0  0  0  0  0  0  0  0  0  0
    6.2533   20.5082   76.1487 C   0  0  0  0  0  0  0  0  0  0  0  0
    6.5861   19.5968   77.2048 C   0  0  0  0  0  0  0  0  0  0  0  0
    5.9997   21.8785   76.5321 C   0  0  0  0  0  0  0  0  0  0  0  0
    6.8914   22.5477   77.1126 O   0  0  0  0  0  0  0  0  0  0  0  0
    4.9739   22.3861   76.0330 O   0  0  0  0  0  0  0  0  0  0  0  0
    7.6425   22.1165   77.4703 H   0  0  0  0  0  0  0  0  0  0  0  0
  9  1  1  0  0  0
  9 10  2  0  0  0
  9 11  1  0  0  0
  1  2  1  0  0  0
  1  7  2  0  0  0
  2  3  1  0  0  0
  2  4  1  0  0  0
  3  5  1  0  0  0
  3 13  1  0  0  0
  5  6  2  0  0  0
  6  7  1  0  0  0
 16 17  1  0  0  0
 16 14  1  0  0  0
 16 18  2  0  0  0
 14 15  2  0  0  0
 14 13  1  0  0  0
 11 12  1  0  0  0
  4  8  1  0  0  0
 17 19  1  0  0  0
M  END
> <minimizedAffinity>
-7.66501

$$$$
1NF8_ISC_A_220


 19 19  0  0  0  0  0  0  0  0999 V2000
    6.3487   21.0385   72.9434 C   0  0  0  0  0  0  0  0  0  0  0  0
    6.0950   20.2763   74.2484 C   0  0  0  0  0  0  0  0  0  0  0  0
    5.6448   20.9722   75.3112 C   0  0  0  0  0  0  0  0  0  0  0  0
    5.5717   19.0540   73.9618 O   0  0  0  0  0  0  0  0  0  0  0  0
    4.7189   22.0812   75.0031 C   0  0  0  0  0  0  0  0  0  0  0  0
    4.7583   22.7236   73.7679 C   0  0  0  0  0  0  0  0  0  0  0  0
    5.6033   22.2873   72.7302 C   0  0  0  0  0  0  0  0  0  0  0  0
    4.7086   19.1643   73.5331 H   0  0  0  0  0  0  0  0  0  0  0  0
    7.2449   20.5376   71.8281 C   0  0  0  0  0  0  0  0  0  0  0  0
    7.0839   20.7615   70.6201 O   0  0  0  0  0  0  0  0  0  0  0  0
    8.2139   19.8703   72.2553 O   0  0  0  0  0  0  0  0  0  0  0  0
    8.3087   19.7179   73.1750 H   0  0  0  0  0  0  0  0  0  0  0  0
    6.7197   21.5716   76.0228 O   0  0  0  0  0  0  0  0  0  0  0  0
    7.0271   21.3066   77.3278 C   0  0  0  0  0  0  0  0  0  0  0  0
    7.8291   22.2054   78.1061 C   0  0  0  0  0  0  0  0  0  0  0  0
    6.5826   20.0996   77.9871 C   0  0  0  0  0  0  0  0  0  0  0  0
    6.6556   18.9930   77.3957 O   0  0  0  0  0  0  0  0  0  0  0  0
    6.3767   20.2120   79.2135 O   0  0  0  0  0  0  0  0  0  0  0  0
    6.8120   18.9647   76.4723 H   0  0  0  0  0  0  0  0  0  0  0  0
  9  1  1  0  0  0
  9 10  2  0  0  0
  9 11  1  0  0  0
  1  2  1  0  0  0
  1  7  2  0  0  0
  2  3  1  0  0  0
  2  4  1  0  0  0
  3  5  1  0  0  0
  3 13  1  0  0  0
  5  6  2  0  0  0
  6  7  1  0  0  0
 16 17  1  0  0  0
 16 14  1  0  0  0
 16 18  2  0  0  0
 14 15  2  0  0  0
 14 13  1  0  0  0
 11 12  1  0  0  0
  4  8  1  0  0  0
 17 19  1  0  0  0
M  END
> <minimizedAffinity>
-7.64725

$$$$
1NF8_ISC_A_220


 19 19  0  0  0  0  0  0  0  0999 V2000
    6.9715   19.5085   71.6138 C   0  0  0  0  0  0  0  0  0  0  0  0
    7.2052   20.4425   72.8060 C   0  0  0  0  0  0  0  0  0  0  0  0
    6.4470   20.2670   73.9064 C   0  0  0  0  0  0  0  0  0  0  0  0
    8.5364   20.6935   72.9275 O   0  0  0  0  0  0  0  0  0  0  0  0
    6.0940   18.8678   74.2224 C   0  0  0  0  0  0  0  0  0  0  0  0
    6.0280   17.9029   73.2202 C   0  0  0  0  0  0  0  0  0  0  0  0
    6.3876   18.1881   71.8896 C   0  0  0  0  0  0  0  0  0  0  0  0
    9.0043   19.8675   73.1269 H   0  0  0  0  0  0  0  0  0  0  0  0
    7.3892   19.8263   70.1916 C   0  0  0  0  0  0  0  0  0  0  0  0
    7.9986   19.0599   69.4323 O   0  0  0  0  0  0  0  0  0  0  0  0
    7.0288   20.9694   69.8306 O   0  0  0  0  0  0  0  0  0  0  0  0
    6.5692   21.5262   70.4279 H   0  0  0  0  0  0  0  0  0  0  0  0
    5.2040   20.9461   73.7849 O   0  0  0  0  0  0  0  0  0  0  0  0
    5.0190   22.2745   74.0474 C   0  0  0  0  0  0  0  0  0  0  0  0
    4.7605   22.7467   75.3766 C   0  0  0  0  0  0  0  0  0  0  0  0
    5.0502   23.2712   73.0011 C   0  0  0  0  0  0  0  0  0  0  0  0
    5.0621   24.4937   73.2929 O   0  0  0  0  0  0  0  0  0  0  0  0
    5.3118   22.8334   71.8613 O   0  0  0  0  0  0  0  0  0  0  0  0
    4.8577   24.7692   74.1649 H   0  0  0  0  0  0  0  0  0  0  0  0
  9  1  1  0  0  0
  9 10  2  0  0  0
  9 11  1  0  0  0
  1  2  1  0  0  0
  1  7  2  0  0  0
  2  3  1  0  0  0
  2  4  1  0  0  0
  3  5  1  0  0  0
  3 13  1  0  0  0
  5  6  2  0  0  0
  6  7  1  0  0  0
 16 17  1  0  0  0
 16 14  1  0  0  0
 16 18  2  0  0  0
 14 15  2  0  0  0
 14 13  1  0  0  0
 11 12  1  0  0  0
  4  8  1  0  0  0
 17 19  1  0  0  0
M  END
> <minimizedAffinity>
-7.59616

$$$$
