4QF7_C0R_A_201
  RCSB PDB12061714253D
Coordinates from PDB:4QF7:A:201 Model:1 without hydrogens
 25 28  0  0  0  0            999 V2000
   21.8860    9.7970   -7.0780   C 0  0  0  0  0  0  0  0  0  0  0  0
   21.7160   10.8680   -8.1350   C 0  0  0  0  0  0  0  0  0  0  0  0
   22.1340   10.3530   -9.4640   C 0  0  0  0  0  0  0  0  0  0  0  0
   21.8180    8.9500   -9.7990   C 0  0  0  0  0  0  0  0  0  0  0  0
   21.5540    8.0760   -8.8060   C 0  0  0  0  0  0  0  0  0  0  0  0
   21.5840    6.6140   -9.1840   C 0  0  0  0  0  0  0  0  0  0  0  0
   21.7810    5.6710   -8.0550   C 0  0  0  0  0  0  0  0  0  0  0  0
   21.2450    6.1560   -6.7190   C 0  0  0  0  0  0  0  0  0  0  0  0
   21.6180    7.5380   -6.2920   C 0  0  0  0  0  0  0  0  0  0  0  0
   21.2090    8.5380   -7.3970   C 0  0  0  0  0  0  0  0  0  0  0  0
   21.1870    7.9140   -4.8150   C 0  0  0  0  0  0  0  0  0  0  0  0
   20.5170    6.7800   -3.9840   C 0  0  0  0  0  0  0  0  0  0  0  0
   20.4900    5.3530   -4.5540   C 0  0  0  0  0  0  0  0  0  0  0  0
   21.5770    5.2360   -5.5950   C 0  0  0  0  0  0  0  0  0  0  0  0
   21.8190    3.8220   -5.8870   C 0  0  0  0  0  0  0  0  0  0  0  0
   22.0200    3.5220   -4.4650   C 0  0  0  0  0  0  0  0  0  0  0  0
   20.8490    4.0980   -3.7360   C 0  0  0  0  0  0  0  0  0  0  0  0
   19.1190    5.2780   -5.1420   C 0  0  0  0  0  0  0  0  0  0  0  0
   20.0000    8.8830   -8.0880   C 0  0  0  0  0  0  0  0  0  0  0  0
   20.0900    2.7870   -3.7350   C 0  0  0  0  0  0  0  0  0  0  0  0
   18.9460    2.3760   -4.5790   C 0  0  0  0  0  0  0  0  0  0  0  0
   22.6280   11.1190  -10.2300   O 0  0  0  0  0  0  0  0  0  0  0  0
   20.8220    9.1470   -4.7110   O 0  0  0  0  0  0  0  0  0  0  0  0
   20.4300    1.9200   -3.0020   O 0  0  0  0  0  0  0  0  0  0  0  0
   18.9380    0.9600   -4.5460   O 0  0  0  0  0  0  0  0  0  0  0  0
  1  2  1  0  0  0  0
  1 10  1  0  0  0  0
  2  3  1  0  0  0  0
  3  4  1  0  0  0  0
  3 22  2  0  0  0  0
  4  5  2  0  0  0  0
  5  6  1  0  0  0  0
  5 10  1  0  0  0  0
  6  7  1  0  0  0  0
  7  8  1  0  0  0  0
  8  9  1  0  0  0  0
  8 14  1  0  0  0  0
  9 10  1  0  0  0  0
  9 11  1  0  0  0  0
 10 19  1  0  0  0  0
 11 12  1  0  0  0  0
 11 23  1  0  0  0  0
 12 13  1  0  0  0  0
 13 14  1  0  0  0  0
 13 17  1  0  0  0  0
 13 18  1  0  0  0  0
 14 15  1  0  0  0  0
 15 16  1  0  0  0  0
 16 17  1  0  0  0  0
 17 20  1  0  0  0  0
 20 21  1  0  0  0  0
 20 24  2  0  0  0  0
 21 25  1  0  0  0  0
A    1
C1
A    2
C2
A    3
C3
A    4
C4
A    5
C5
A    6
C6
A    7
C7
A    8
C8
A    9
C9
A   10
C10
A   11
C11
A   12
C12
A   13
C13
A   14
C14
A   15
C15
A   16
C16
A   17
C17
A   18
C18
A   19
C19
A   20
C20
A   21
C21
A   22
O1
A   23
O2
A   24
O3
A   25
O4
M  END
>  <InstanceId>
4QF7_C0R_A_201

>  <ChemCompId>
C0R

>  <PdbId>
4QF7

>  <ChainId>
A

>  <ResidueNumber>
201

>  <InsertionCode>


>  <Model>
1

>  <AltIds>


>  <MissingHeavyAtoms>
0

>  <ObservedFormula>
C21 O4

>  <Name>
CORTICOSTERONE

>  <SystematicName>
(8S,9S,10R,11S,13S,14S,17S)-11-hydroxy-17-(2-hydroxyethanoyl)-10,13-dimethyl-1,2,6,7,8,9,11,12,14,15,16,17-dodecahydrocyclopenta[a]phenanthren-3-one

>  <Synonyms>
(11-BETA)-11,21-DIHYDROXY-PREGN-4-ENE-3,20-DIONE

>  <Type>
NON-POLYMER

>  <Formula>
C21 H30 O4

>  <MolecularWeight>
346.461

>  <ModifiedDate>
2011-06-04

>  <Parent>


>  <OneLetterCode>


>  <SubcomponentList>


>  <AmbiguousFlag>
N

>  <InChI>
InChI=1S/C21H30O4/c1-20-8-7-13(23)9-12(20)3-4-14-15-5-6-16(18(25)11-22)21(15,2)10-17(24)19(14)20/h9,14-17,19,22,24H,3-8,10-11H2,1-2H3/t14-,15-,16+,17-,19+,20-,21-/m0/s1

>  <InChIKey>
OMFXVFTZEKFJBZ-HJTSIMOOSA-N

>  <SMILES>
C[C@]12CCC(=O)C=C1CC[C@@H]3[C@@H]2[C@H](C[C@]4([C@H]3CC[C@@H]4C(=O)CO)C)O

$$$$
