4QF7_C0R_A_201


 27 30  0  0  0  0  0  0  0  0999 V2000
   22.0935    9.5142   -6.6060 C   0  0  0  0  0  0  0  0  0  0  0  0
   22.0624   10.7615   -7.4642 C   0  0  0  0  0  0  0  0  0  0  0  0
   22.3084   10.4153   -8.8876 C   0  0  0  0  0  0  0  0  0  0  0  0
   21.7272    9.1629   -9.4111 C   0  0  0  0  0  0  0  0  0  0  0  0
   21.3641    8.1910   -8.5490 C   0  0  0  0  0  0  0  0  0  0  0  0
   21.1098    6.8301   -9.1527 C   0  0  0  0  0  0  0  0  0  0  0  0
   21.1944    5.6904   -8.2058 C   0  0  0  0  0  0  0  0  0  0  0  0
   20.8275    6.0261   -6.7705 C   0  0  0  0  0  0  0  0  0  0  0  0
   21.4658    7.2330   -6.1645 C   0  0  0  0  0  0  0  0  0  0  0  0
   21.1846    8.4598   -7.0613 C   0  0  0  0  0  0  0  0  0  0  0  0
   21.1900    7.4214   -4.6162 C   0  0  0  0  0  0  0  0  0  0  0  0
   20.3726    6.2929   -3.9207 C   0  0  0  0  0  0  0  0  0  0  0  0
   20.0582    5.0081   -4.7032 C   0  0  0  0  0  0  0  0  0  0  0  0
   21.0485    4.8868   -5.8361 C   0  0  0  0  0  0  0  0  0  0  0  0
   21.0157    3.5222   -6.3653 C   0  0  0  0  0  0  0  0  0  0  0  0
   21.2359    2.9567   -5.0295 C   0  0  0  0  0  0  0  0  0  0  0  0
   20.2289    3.5906   -4.1247 C   0  0  0  0  0  0  0  0  0  0  0  0
   18.6664    5.2660   -5.1800 C   0  0  0  0  0  0  0  0  0  0  0  0
   20.0220    9.1157   -7.5870 C   0  0  0  0  0  0  0  0  0  0  0  0
   22.8902   11.2052   -9.5622 O   0  0  0  0  0  0  0  0  0  0  0  0
   21.0593    8.6628   -4.2903 O   0  0  0  0  0  0  0  0  0  0  0  0
   20.2714    9.0290   -4.7215 H   0  0  0  0  0  0  0  0  0  0  0  0
   19.2474    2.4455   -4.2664 C   0  0  0  0  0  0  0  0  0  0  0  0
   19.5918    1.3474   -3.9834 O   0  0  0  0  0  0  0  0  0  0  0  0
   17.8548    2.4729   -4.7665 C   0  0  0  0  0  0  0  0  0  0  0  0
   17.7630    1.4078   -5.6956 O   0  0  0  0  0  0  0  0  0  0  0  0
   18.4175    1.5358   -6.4000 H   0  0  0  0  0  0  0  0  0  0  0  0
  1  2  1  0  0  0
  1 10  1  0  0  0
  2  3  1  0  0  0
  3  4  1  0  0  0
  3 20  2  0  0  0
  4  5  2  0  0  0
  5  6  1  0  0  0
  5 10  1  0  0  0
  6  7  1  0  0  0
  7  8  1  0  0  0
  8  9  1  0  0  0
  8 14  1  0  0  0
  9 10  1  0  0  0
  9 11  1  0  0  0
 10 19  1  0  0  0
 11 12  1  0  0  0
 11 21  1  0  0  0
 12 13  1  0  0  0
 13 14  1  0  0  0
 13 17  1  0  0  0
 13 18  1  0  0  0
 14 15  1  0  0  0
 15 16  1  0  0  0
 16 17  1  0  0  0
 17 23  1  0  0  0
 23 25  1  0  0  0
 23 24  2  0  0  0
 25 26  1  0  0  0
 21 22  1  0  0  0
 26 27  1  0  0  0
M  END
> <minimizedAffinity>
-6.84852

$$$$
4QF7_C0R_A_201


 27 30  0  0  0  0  0  0  0  0999 V2000
   20.5209    2.8339  -12.1199 C   0  0  0  0  0  0  0  0  0  0  0  0
   19.8007    2.5786  -13.4273 C   0  0  0  0  0  0  0  0  0  0  0  0
   18.4679    1.9742  -13.1733 C   0  0  0  0  0  0  0  0  0  0  0  0
   17.6990    2.4473  -12.0048 C   0  0  0  0  0  0  0  0  0  0  0  0
   18.3434    3.0709  -10.9971 C   0  0  0  0  0  0  0  0  0  0  0  0
   17.5741    3.2126   -9.7051 C   0  0  0  0  0  0  0  0  0  0  0  0
   18.4033    3.4356   -8.4945 C   0  0  0  0  0  0  0  0  0  0  0  0
   19.7147    4.1600   -8.7453 C   0  0  0  0  0  0  0  0  0  0  0  0
   20.5739    3.6562   -9.8585 C   0  0  0  0  0  0  0  0  0  0  0  0
   19.7487    3.6320  -11.1650 C   0  0  0  0  0  0  0  0  0  0  0  0
   22.0046    4.3298   -9.9481 C   0  0  0  0  0  0  0  0  0  0  0  0
   22.3549    5.3526   -8.8272 C   0  0  0  0  0  0  0  0  0  0  0  0
   21.4050    5.5006   -7.6282 C   0  0  0  0  0  0  0  0  0  0  0  0
   20.5680    4.2484   -7.5270 C   0  0  0  0  0  0  0  0  0  0  0  0
   19.9285    4.1972   -6.2111 C   0  0  0  0  0  0  0  0  0  0  0  0
   21.2185    4.3693   -5.5337 C   0  0  0  0  0  0  0  0  0  0  0  0
   21.8781    5.5539   -6.1631 C   0  0  0  0  0  0  0  0  0  0  0  0
   20.6024    6.7003   -8.0125 C   0  0  0  0  0  0  0  0  0  0  0  0
   18.9955    4.5806  -11.9338 C   0  0  0  0  0  0  0  0  0  0  0  0
   18.0448    1.1985  -13.9713 O   0  0  0  0  0  0  0  0  0  0  0  0
   22.3946    4.4891  -11.1675 O   0  0  0  0  0  0  0  0  0  0  0  0
   21.8051    5.1152  -11.6163 H   0  0  0  0  0  0  0  0  0  0  0  0
   21.3797    6.5101   -5.0992 C   0  0  0  0  0  0  0  0  0  0  0  0
   21.7408    7.6388   -5.1181 O   0  0  0  0  0  0  0  0  0  0  0  0
   20.4897    6.2370   -3.9489 C   0  0  0  0  0  0  0  0  0  0  0  0
   19.5953    7.3338   -3.8908 O   0  0  0  0  0  0  0  0  0  0  0  0
   20.0989    8.1565   -3.7888 H   0  0  0  0  0  0  0  0  0  0  0  0
  1  2  1  0  0  0
  1 10  1  0  0  0
  2  3  1  0  0  0
  3  4  1  0  0  0
  3 20  2  0  0  0
  4  5  2  0  0  0
  5  6  1  0  0  0
  5 10  1  0  0  0
  6  7  1  0  0  0
  7  8  1  0  0  0
  8  9  1  0  0  0
  8 14  1  0  0  0
  9 10  1  0  0  0
  9 11  1  0  0  0
 10 19  1  0  0  0
 11 12  1  0  0  0
 11 21  1  0  0  0
 12 13  1  0  0  0
 13 14  1  0  0  0
 13 17  1  0  0  0
 13 18  1  0  0  0
 14 15  1  0  0  0
 15 16  1  0  0  0
 16 17  1  0  0  0
 17 23  1  0  0  0
 23 25  1  0  0  0
 23 24  2  0  0  0
 25 26  1  0  0  0
 21 22  1  0  0  0
 26 27  1  0  0  0
M  END
> <minimizedAffinity>
-6.52795

$$$$
4QF7_C0R_A_201


 27 30  0  0  0  0  0  0  0  0999 V2000
   20.5137    6.2980   -4.5783 C   0  0  0  0  0  0  0  0  0  0  0  0
   20.9392    5.0749   -3.7932 C   0  0  0  0  0  0  0  0  0  0  0  0
   20.8521    3.8597   -4.6429 C   0  0  0  0  0  0  0  0  0  0  0  0
   21.2329    3.9745   -6.0649 C   0  0  0  0  0  0  0  0  0  0  0  0
   21.2451    5.1896   -6.6507 C   0  0  0  0  0  0  0  0  0  0  0  0
   21.3003    5.1976   -8.1600 C   0  0  0  0  0  0  0  0  0  0  0  0
   20.8319    6.4495   -8.8050 C   0  0  0  0  0  0  0  0  0  0  0  0
   21.0316    7.7066   -7.9760 C   0  0  0  0  0  0  0  0  0  0  0  0
   20.5731    7.6701   -6.5548 C   0  0  0  0  0  0  0  0  0  0  0  0
   21.2417    6.4761   -5.8367 C   0  0  0  0  0  0  0  0  0  0  0  0
   20.6364    9.0624   -5.8023 C   0  0  0  0  0  0  0  0  0  0  0  0
   21.0804   10.2866   -6.6566 C   0  0  0  0  0  0  0  0  0  0  0  0
   21.2374   10.1190   -8.1762 C   0  0  0  0  0  0  0  0  0  0  0  0
   20.4335    8.9163   -8.6076 C   0  0  0  0  0  0  0  0  0  0  0  0
   20.2625    8.9431  -10.0613 C   0  0  0  0  0  0  0  0  0  0  0  0
   19.7225   10.3064  -10.0123 C   0  0  0  0  0  0  0  0  0  0  0  0
   20.6854   11.1199   -9.2089 C   0  0  0  0  0  0  0  0  0  0  0  0
   22.7095    9.9081   -8.3161 C   0  0  0  0  0  0  0  0  0  0  0  0
   22.5835    6.0243   -5.6049 C   0  0  0  0  0  0  0  0  0  0  0  0
   20.5614    2.8310   -4.1187 O   0  0  0  0  0  0  0  0  0  0  0  0
   20.9713    8.9338   -4.5631 O   0  0  0  0  0  0  0  0  0  0  0  0
   21.8760    8.5884   -4.5069 H   0  0  0  0  0  0  0  0  0  0  0  0
   21.4154   11.6308  -10.4340 C   0  0  0  0  0  0  0  0  0  0  0  0
   22.1512   12.5539  -10.3284 O   0  0  0  0  0  0  0  0  0  0  0  0
   21.3245   11.1578  -11.8333 C   0  0  0  0  0  0  0  0  0  0  0  0
   22.6028   10.6309  -12.1409 O   0  0  0  0  0  0  0  0  0  0  0  0
   23.2742   11.3206  -12.0206 H   0  0  0  0  0  0  0  0  0  0  0  0
  1  2  1  0  0  0
  1 10  1  0  0  0
  2  3  1  0  0  0
  3  4  1  0  0  0
  3 20  2  0  0  0
  4  5  2  0  0  0
  5  6  1  0  0  0
  5 10  1  0  0  0
  6  7  1  0  0  0
  7  8  1  0  0  0
  8  9  1  0  0  0
  8 14  1  0  0  0
  9 10  1  0  0  0
  9 11  1  0  0  0
 10 19  1  0  0  0
 11 12  1  0  0  0
 11 21  1  0  0  0
 12 13  1  0  0  0
 13 14  1  0  0  0
 13 17  1  0  0  0
 13 18  1  0  0  0
 14 15  1  0  0  0
 15 16  1  0  0  0
 16 17  1  0  0  0
 17 23  1  0  0  0
 23 25  1  0  0  0
 23 24  2  0  0  0
 25 26  1  0  0  0
 21 22  1  0  0  0
 26 27  1  0  0  0
M  END
> <minimizedAffinity>
-6.01888

$$$$
4QF7_C0R_A_201


 27 30  0  0  0  0  0  0  0  0999 V2000
   19.8928    4.5323   -3.6613 C   0  0  0  0  0  0  0  0  0  0  0  0
   20.1190    3.1767   -3.0254 C   0  0  0  0  0  0  0  0  0  0  0  0
   20.2615    2.1325   -4.0721 C   0  0  0  0  0  0  0  0  0  0  0  0
   20.9874    2.4805   -5.3100 C   0  0  0  0  0  0  0  0  0  0  0  0
   21.1344    3.7781   -5.6482 C   0  0  0  0  0  0  0  0  0  0  0  0
   21.5683    4.0478   -7.0696 C   0  0  0  0  0  0  0  0  0  0  0  0
   21.2648    5.4088   -7.5778 C   0  0  0  0  0  0  0  0  0  0  0  0
   21.2362    6.4939   -6.5151 C   0  0  0  0  0  0  0  0  0  0  0  0
   20.4346    6.2257   -5.2835 C   0  0  0  0  0  0  0  0  0  0  0  0
   20.9127    4.9019   -4.6454 C   0  0  0  0  0  0  0  0  0  0  0  0
   20.2918    7.4620   -4.3038 C   0  0  0  0  0  0  0  0  0  0  0  0
   20.9242    8.8003   -4.7881 C   0  0  0  0  0  0  0  0  0  0  0  0
   21.4611    8.8954   -6.2250 C   0  0  0  0  0  0  0  0  0  0  0  0
   20.8043    7.8155   -7.0506 C   0  0  0  0  0  0  0  0  0  0  0  0
   21.0051    8.1020   -8.4721 C   0  0  0  0  0  0  0  0  0  0  0  0
   20.4562    9.4538   -8.3178 C   0  0  0  0  0  0  0  0  0  0  0  0
   21.1771   10.0801   -7.1678 C   0  0  0  0  0  0  0  0  0  0  0  0
   22.9229    8.6607   -6.0278 C   0  0  0  0  0  0  0  0  0  0  0  0
   22.1572    4.3697   -4.1699 C   0  0  0  0  0  0  0  0  0  0  0  0
   19.8586    1.0388   -3.8288 O   0  0  0  0  0  0  0  0  0  0  0  0
   20.3047    7.1072   -3.0636 O   0  0  0  0  0  0  0  0  0  0  0  0
   21.1695    6.7257   -2.8454 H   0  0  0  0  0  0  0  0  0  0  0  0
   22.1872   10.7712   -8.0605 C   0  0  0  0  0  0  0  0  0  0  0  0
   23.2065   11.1560   -7.5942 O   0  0  0  0  0  0  0  0  0  0  0  0
   22.0844   11.0961   -9.5006 C   0  0  0  0  0  0  0  0  0  0  0  0
   23.2823   10.6172  -10.0853 O   0  0  0  0  0  0  0  0  0  0  0  0
   24.0427   11.0417   -9.6581 H   0  0  0  0  0  0  0  0  0  0  0  0
  1  2  1  0  0  0
  1 10  1  0  0  0
  2  3  1  0  0  0
  3  4  1  0  0  0
  3 20  2  0  0  0
  4  5  2  0  0  0
  5  6  1  0  0  0
  5 10  1  0  0  0
  6  7  1  0  0  0
  7  8  1  0  0  0
  8  9  1  0  0  0
  8 14  1  0  0  0
  9 10  1  0  0  0
  9 11  1  0  0  0
 10 19  1  0  0  0
 11 12  1  0  0  0
 11 21  1  0  0  0
 12 13  1  0  0  0
 13 14  1  0  0  0
 13 17  1  0  0  0
 13 18  1  0  0  0
 14 15  1  0  0  0
 15 16  1  0  0  0
 16 17  1  0  0  0
 17 23  1  0  0  0
 23 25  1  0  0  0
 23 24  2  0  0  0
 25 26  1  0  0  0
 21 22  1  0  0  0
 26 27  1  0  0  0
M  END
> <minimizedAffinity>
-5.41656

$$$$
4QF7_C0R_A_201


 27 30  0  0  0  0  0  0  0  0999 V2000
   22.2690    7.1848   -5.6135 C   0  0  0  0  0  0  0  0  0  0  0  0
   22.1602    8.3004   -4.5953 C   0  0  0  0  0  0  0  0  0  0  0  0
   22.2335    9.6226   -5.2680 C   0  0  0  0  0  0  0  0  0  0  0  0
   21.5739    9.7747   -6.5803 C   0  0  0  0  0  0  0  0  0  0  0  0
   21.2964    8.6764   -7.3126 C   0  0  0  0  0  0  0  0  0  0  0  0
   20.9502    8.9165   -8.7631 C   0  0  0  0  0  0  0  0  0  0  0  0
   21.1242    7.7459   -9.6587 C   0  0  0  0  0  0  0  0  0  0  0  0
   20.9321    6.3966   -8.9881 C   0  0  0  0  0  0  0  0  0  0  0  0
   21.6572    6.1603   -7.7037 C   0  0  0  0  0  0  0  0  0  0  0  0
   21.2952    7.2812   -6.7033 C   0  0  0  0  0  0  0  0  0  0  0  0
   21.5661    4.6775   -7.1545 C   0  0  0  0  0  0  0  0  0  0  0  0
   20.8153    3.6544   -8.0573 C   0  0  0  0  0  0  0  0  0  0  0  0
   20.3901    4.0783   -9.4720 C   0  0  0  0  0  0  0  0  0  0  0  0
   21.2401    5.2530   -9.8922 C   0  0  0  0  0  0  0  0  0  0  0  0
   21.1225    5.4442  -11.3389 C   0  0  0  0  0  0  0  0  0  0  0  0
   21.4862    4.0458  -11.5931 C   0  0  0  0  0  0  0  0  0  0  0  0
   20.6021    3.2088  -10.7258 C   0  0  0  0  0  0  0  0  0  0  0  0
   18.9571    4.4477   -9.2694 C   0  0  0  0  0  0  0  0  0  0  0  0
   20.0911    7.8152   -6.1348 C   0  0  0  0  0  0  0  0  0  0  0  0
   22.7468   10.5213   -4.6795 O   0  0  0  0  0  0  0  0  0  0  0  0
   21.4956    4.6363   -5.8670 O   0  0  0  0  0  0  0  0  0  0  0  0
   20.6695    5.0524   -5.5750 H   0  0  0  0  0  0  0  0  0  0  0  0
   19.5910    2.9732  -11.8290 C   0  0  0  0  0  0  0  0  0  0  0  0
   18.6337    2.3108  -11.6072 O   0  0  0  0  0  0  0  0  0  0  0  0
   19.6265    3.4343  -13.2348 C   0  0  0  0  0  0  0  0  0  0  0  0
   18.4034    4.1177  -13.4422 O   0  0  0  0  0  0  0  0  0  0  0  0
   17.6630    3.5173  -13.2627 H   0  0  0  0  0  0  0  0  0  0  0  0
  1  2  1  0  0  0
  1 10  1  0  0  0
  2  3  1  0  0  0
  3  4  1  0  0  0
  3 20  2  0  0  0
  4  5  2  0  0  0
  5  6  1  0  0  0
  5 10  1  0  0  0
  6  7  1  0  0  0
  7  8  1  0  0  0
  8  9  1  0  0  0
  8 14  1  0  0  0
  9 10  1  0  0  0
  9 11  1  0  0  0
 10 19  1  0  0  0
 11 12  1  0  0  0
 11 21  1  0  0  0
 12 13  1  0  0  0
 13 14  1  0  0  0
 13 17  1  0  0  0
 13 18  1  0  0  0
 14 15  1  0  0  0
 15 16  1  0  0  0
 16 17  1  0  0  0
 17 23  1  0  0  0
 23 25  1  0  0  0
 23 24  2  0  0  0
 25 26  1  0  0  0
 21 22  1  0  0  0
 26 27  1  0  0  0
M  END
> <minimizedAffinity>
-5.37969

$$$$
4QF7_C0R_A_201


 27 30  0  0  0  0  0  0  0  0999 V2000
   21.5600    3.9711   -5.8951 C   0  0  0  0  0  0  0  0  0  0  0  0
   20.9928    2.8539   -5.0445 C   0  0  0  0  0  0  0  0  0  0  0  0
   20.7751    3.3242   -3.6525 C   0  0  0  0  0  0  0  0  0  0  0  0
   20.2900    4.7042   -3.4506 C   0  0  0  0  0  0  0  0  0  0  0  0
   20.4463    5.6114   -4.4366 C   0  0  0  0  0  0  0  0  0  0  0  0
   20.2520    7.0570   -4.0446 C   0  0  0  0  0  0  0  0  0  0  0  0
   20.8796    8.0499   -4.9518 C   0  0  0  0  0  0  0  0  0  0  0  0
   20.9928    7.6070   -6.4004 C   0  0  0  0  0  0  0  0  0  0  0  0
   21.5682    6.2531   -6.6599 C   0  0  0  0  0  0  0  0  0  0  0  0
   20.7622    5.1991   -5.8677 C   0  0  0  0  0  0  0  0  0  0  0  0
   21.8326    5.9274   -8.1872 C   0  0  0  0  0  0  0  0  0  0  0  0
   21.5427    7.0777   -9.1963 C   0  0  0  0  0  0  0  0  0  0  0  0
   21.2156    8.4791   -8.6569 C   0  0  0  0  0  0  0  0  0  0  0  0
   21.7409    8.5800   -7.2452 C   0  0  0  0  0  0  0  0  0  0  0  0
   21.7767    9.9864   -6.8401 C   0  0  0  0  0  0  0  0  0  0  0  0
   22.5600   10.3491   -8.0265 C   0  0  0  0  0  0  0  0  0  0  0  0
   21.8425    9.7749   -9.2055 C   0  0  0  0  0  0  0  0  0  0  0  0
   19.7233    8.4965   -8.7187 C   0  0  0  0  0  0  0  0  0  0  0  0
   19.3881    4.7967   -5.7776 C   0  0  0  0  0  0  0  0  0  0  0  0
   20.9199    2.5398   -2.7685 O   0  0  0  0  0  0  0  0  0  0  0  0
   21.5976    4.6911   -8.4714 O   0  0  0  0  0  0  0  0  0  0  0  0
   20.6542    4.5040   -8.3451 H   0  0  0  0  0  0  0  0  0  0  0  0
   21.1069   11.0659   -9.5005 C   0  0  0  0  0  0  0  0  0  0  0  0
   21.7282   12.0542   -9.7055 O   0  0  0  0  0  0  0  0  0  0  0  0
   19.6488   11.3154   -9.5402 C   0  0  0  0  0  0  0  0  0  0  0  0
   19.4771   12.4344  -10.3913 O   0  0  0  0  0  0  0  0  0  0  0  0
   19.9774   13.1876  -10.0401 H   0  0  0  0  0  0  0  0  0  0  0  0
  1  2  1  0  0  0
  1 10  1  0  0  0
  2  3  1  0  0  0
  3  4  1  0  0  0
  3 20  2  0  0  0
  4  5  2  0  0  0
  5  6  1  0  0  0
  5 10  1  0  0  0
  6  7  1  0  0  0
  7  8  1  0  0  0
  8  9  1  0  0  0
  8 14  1  0  0  0
  9 10  1  0  0  0
  9 11  1  0  0  0
 10 19  1  0  0  0
 11 12  1  0  0  0
 11 21  1  0  0  0
 12 13  1  0  0  0
 13 14  1  0  0  0
 13 17  1  0  0  0
 13 18  1  0  0  0
 14 15  1  0  0  0
 15 16  1  0  0  0
 16 17  1  0  0  0
 17 23  1  0  0  0
 23 25  1  0  0  0
 23 24  2  0  0  0
 25 26  1  0  0  0
 21 22  1  0  0  0
 26 27  1  0  0  0
M  END
> <minimizedAffinity>
-5.34184

$$$$
4QF7_C0R_A_201


 27 30  0  0  0  0  0  0  0  0999 V2000
   20.6641    7.4951   -6.0900 C   0  0  0  0  0  0  0  0  0  0  0  0
   20.9098    7.7625   -4.6198 C   0  0  0  0  0  0  0  0  0  0  0  0
   20.4714    6.6018   -3.8033 C   0  0  0  0  0  0  0  0  0  0  0  0
   20.7014    5.2454   -4.3397 C   0  0  0  0  0  0  0  0  0  0  0  0
   20.9017    5.0826   -5.6637 C   0  0  0  0  0  0  0  0  0  0  0  0
   20.7830    3.6695   -6.1836 C   0  0  0  0  0  0  0  0  0  0  0  0
   20.5178    3.5493   -7.6389 C   0  0  0  0  0  0  0  0  0  0  0  0
   21.0721    4.6839   -8.4832 C   0  0  0  0  0  0  0  0  0  0  0  0
   20.7831    6.0783   -8.0319 C   0  0  0  0  0  0  0  0  0  0  0  0
   21.2633    6.2489   -6.5730 C   0  0  0  0  0  0  0  0  0  0  0  0
   21.2246    7.2088   -9.0496 C   0  0  0  0  0  0  0  0  0  0  0  0
   21.8150    6.7214  -10.4057 C   0  0  0  0  0  0  0  0  0  0  0  0
   21.7571    5.2248  -10.7504 C   0  0  0  0  0  0  0  0  0  0  0  0
   20.6736    4.5861   -9.9156 C   0  0  0  0  0  0  0  0  0  0  0  0
   20.3457    3.2713  -10.4697 C   0  0  0  0  0  0  0  0  0  0  0  0
   20.1144    3.8457  -11.7997 C   0  0  0  0  0  0  0  0  0  0  0  0
   21.3132    4.6790  -12.1208 C   0  0  0  0  0  0  0  0  0  0  0  0
   23.1255    4.7637  -10.3686 C   0  0  0  0  0  0  0  0  0  0  0  0
   22.4973    6.0811   -5.8607 C   0  0  0  0  0  0  0  0  0  0  0  0
   20.0329    6.8163   -2.7174 O   0  0  0  0  0  0  0  0  0  0  0  0
   21.6654    8.2622   -8.4492 O   0  0  0  0  0  0  0  0  0  0  0  0
   22.4773    8.0429   -7.9659 H   0  0  0  0  0  0  0  0  0  0  0  0
   21.9883    3.5689  -12.8997 C   0  0  0  0  0  0  0  0  0  0  0  0
   21.3882    3.0142  -13.7582 O   0  0  0  0  0  0  0  0  0  0  0  0
   23.3460    3.0062  -12.7265 C   0  0  0  0  0  0  0  0  0  0  0  0
   23.1571    1.7279  -12.1465 O   0  0  0  0  0  0  0  0  0  0  0  0
   22.6794    1.8209  -11.3074 H   0  0  0  0  0  0  0  0  0  0  0  0
  1  2  1  0  0  0
  1 10  1  0  0  0
  2  3  1  0  0  0
  3  4  1  0  0  0
  3 20  2  0  0  0
  4  5  2  0  0  0
  5  6  1  0  0  0
  5 10  1  0  0  0
  6  7  1  0  0  0
  7  8  1  0  0  0
  8  9  1  0  0  0
  8 14  1  0  0  0
  9 10  1  0  0  0
  9 11  1  0  0  0
 10 19  1  0  0  0
 11 12  1  0  0  0
 11 21  1  0  0  0
 12 13  1  0  0  0
 13 14  1  0  0  0
 13 17  1  0  0  0
 13 18  1  0  0  0
 14 15  1  0  0  0
 15 16  1  0  0  0
 16 17  1  0  0  0
 17 23  1  0  0  0
 23 25  1  0  0  0
 23 24  2  0  0  0
 25 26  1  0  0  0
 21 22  1  0  0  0
 26 27  1  0  0  0
M  END
> <minimizedAffinity>
-5.34162

$$$$
4QF7_C0R_A_201


 27 30  0  0  0  0  0  0  0  0999 V2000
   21.0786    5.4334   -6.5767 C   0  0  0  0  0  0  0  0  0  0  0  0
   21.6395    5.0701   -5.2178 C   0  0  0  0  0  0  0  0  0  0  0  0
   20.5811    4.4702   -4.3657 C   0  0  0  0  0  0  0  0  0  0  0  0
   19.5962    3.5743   -5.0044 C   0  0  0  0  0  0  0  0  0  0  0  0
   19.4112    3.6386   -6.3390 C   0  0  0  0  0  0  0  0  0  0  0  0
   18.1700    2.9611   -6.8699 C   0  0  0  0  0  0  0  0  0  0  0  0
   17.7135    3.4280   -8.2026 C   0  0  0  0  0  0  0  0  0  0  0  0
   18.8191    3.9324   -9.1140 C   0  0  0  0  0  0  0  0  0  0  0  0
   19.7854    4.9161   -8.5395 C   0  0  0  0  0  0  0  0  0  0  0  0
   20.4139    4.3210   -7.2592 C   0  0  0  0  0  0  0  0  0  0  0  0
   20.7946    5.5426   -9.5871 C   0  0  0  0  0  0  0  0  0  0  0  0
   20.5933    5.1216  -11.0730 C   0  0  0  0  0  0  0  0  0  0  0  0
   19.3488    4.3050  -11.4555 C   0  0  0  0  0  0  0  0  0  0  0  0
   18.3010    4.5065  -10.3876 C   0  0  0  0  0  0  0  0  0  0  0  0
   17.0026    4.0539  -10.8903 C   0  0  0  0  0  0  0  0  0  0  0  0
   17.1232    4.9028  -12.0808 C   0  0  0  0  0  0  0  0  0  0  0  0
   18.4636    4.6162  -12.6772 C   0  0  0  0  0  0  0  0  0  0  0  0
   19.8857    2.9114  -11.4800 C   0  0  0  0  0  0  0  0  0  0  0  0
   21.1411    3.1327   -6.9164 C   0  0  0  0  0  0  0  0  0  0  0  0
   20.6269    4.6713   -3.1931 O   0  0  0  0  0  0  0  0  0  0  0  0
   21.9659    5.7362   -9.0823 O   0  0  0  0  0  0  0  0  0  0  0  0
   22.3619    4.8824   -8.8475 H   0  0  0  0  0  0  0  0  0  0  0  0
   17.9105    3.6036  -13.6588 C   0  0  0  0  0  0  0  0  0  0  0  0
   16.9557    3.8816  -14.3034 O   0  0  0  0  0  0  0  0  0  0  0  0
   18.3763    2.2258  -13.9325 C   0  0  0  0  0  0  0  0  0  0  0  0
   17.3676    1.3741  -13.4194 O   0  0  0  0  0  0  0  0  0  0  0  0
   17.2477    1.5487  -12.4728 H   0  0  0  0  0  0  0  0  0  0  0  0
  1  2  1  0  0  0
  1 10  1  0  0  0
  2  3  1  0  0  0
  3  4  1  0  0  0
  3 20  2  0  0  0
  4  5  2  0  0  0
  5  6  1  0  0  0
  5 10  1  0  0  0
  6  7  1  0  0  0
  7  8  1  0  0  0
  8  9  1  0  0  0
  8 14  1  0  0  0
  9 10  1  0  0  0
  9 11  1  0  0  0
 10 19  1  0  0  0
 11 12  1  0  0  0
 11 21  1  0  0  0
 12 13  1  0  0  0
 13 14  1  0  0  0
 13 17  1  0  0  0
 13 18  1  0  0  0
 14 15  1  0  0  0
 15 16  1  0  0  0
 16 17  1  0  0  0
 17 23  1  0  0  0
 23 25  1  0  0  0
 23 24  2  0  0  0
 25 26  1  0  0  0
 21 22  1  0  0  0
 26 27  1  0  0  0
M  END
> <minimizedAffinity>
-5.31072

$$$$
4QF7_C0R_A_201


 27 30  0  0  0  0  0  0  0  0999 V2000
   17.0238    1.1947   -6.7776 C   0  0  0  0  0  0  0  0  0  0  0  0
   16.7734    1.2470   -5.2850 C   0  0  0  0  0  0  0  0  0  0  0  0
   17.9484    1.8253   -4.5841 C   0  0  0  0  0  0  0  0  0  0  0  0
   18.6717    2.9359   -5.2352 C   0  0  0  0  0  0  0  0  0  0  0  0
   18.5384    3.1231   -6.5644 C   0  0  0  0  0  0  0  0  0  0  0  0
   19.5541    4.0351   -7.2108 C   0  0  0  0  0  0  0  0  0  0  0  0
   19.7188    3.8637   -8.6758 C   0  0  0  0  0  0  0  0  0  0  0  0
   18.4758    3.3828   -9.4045 C   0  0  0  0  0  0  0  0  0  0  0  0
   17.7628    2.1997   -8.8359 C   0  0  0  0  0  0  0  0  0  0  0  0
   17.4082    2.4831   -7.3586 C   0  0  0  0  0  0  0  0  0  0  0  0
   16.5911    1.6350   -9.7397 C   0  0  0  0  0  0  0  0  0  0  0  0
   16.3956    2.3241  -11.1226 C   0  0  0  0  0  0  0  0  0  0  0  0
   17.4379    3.3473  -11.6008 C   0  0  0  0  0  0  0  0  0  0  0  0
   18.7233    3.1046  -10.8472 C   0  0  0  0  0  0  0  0  0  0  0  0
   19.8205    3.7994  -11.5229 C   0  0  0  0  0  0  0  0  0  0  0  0
   19.4936    3.1562  -12.8004 C   0  0  0  0  0  0  0  0  0  0  0  0
   18.0302    3.3645  -13.0228 C   0  0  0  0  0  0  0  0  0  0  0  0
   16.7923    4.6438  -11.2358 C   0  0  0  0  0  0  0  0  0  0  0  0
   16.6838    3.4922   -6.6409 C   0  0  0  0  0  0  0  0  0  0  0  0
   18.2007    1.4241   -3.4919 O   0  0  0  0  0  0  0  0  0  0  0  0
   15.5949    1.2092   -9.0393 O   0  0  0  0  0  0  0  0  0  0  0  0
   15.1941    1.9525   -8.5621 H   0  0  0  0  0  0  0  0  0  0  0  0
   18.2440    4.5916  -13.8849 C   0  0  0  0  0  0  0  0  0  0  0  0
   19.3287    4.8274  -14.3001 O   0  0  0  0  0  0  0  0  0  0  0  0
   17.2650    5.6264  -14.2860 C   0  0  0  0  0  0  0  0  0  0  0  0
   17.8198    6.8593  -13.8638 O   0  0  0  0  0  0  0  0  0  0  0  0
   17.9693    6.8354  -12.9057 H   0  0  0  0  0  0  0  0  0  0  0  0
  1  2  1  0  0  0
  1 10  1  0  0  0
  2  3  1  0  0  0
  3  4  1  0  0  0
  3 20  2  0  0  0
  4  5  2  0  0  0
  5  6  1  0  0  0
  5 10  1  0  0  0
  6  7  1  0  0  0
  7  8  1  0  0  0
  8  9  1  0  0  0
  8 14  1  0  0  0
  9 10  1  0  0  0
  9 11  1  0  0  0
 10 19  1  0  0  0
 11 12  1  0  0  0
 11 21  1  0  0  0
 12 13  1  0  0  0
 13 14  1  0  0  0
 13 17  1  0  0  0
 13 18  1  0  0  0
 14 15  1  0  0  0
 15 16  1  0  0  0
 16 17  1  0  0  0
 17 23  1  0  0  0
 23 25  1  0  0  0
 23 24  2  0  0  0
 25 26  1  0  0  0
 21 22  1  0  0  0
 26 27  1  0  0  0
M  END
> <minimizedAffinity>
-5.30412

$$$$
4QF7_C0R_A_201


 27 30  0  0  0  0  0  0  0  0999 V2000
   18.5512    9.3891  -11.5518 C   0  0  0  0  0  0  0  0  0  0  0  0
   18.4215   10.8979  -11.5419 C   0  0  0  0  0  0  0  0  0  0  0  0
   18.6226   11.4246  -10.1677 C   0  0  0  0  0  0  0  0  0  0  0  0
   19.6436   10.7812   -9.3169 C   0  0  0  0  0  0  0  0  0  0  0  0
   20.0599    9.5325   -9.6123 C   0  0  0  0  0  0  0  0  0  0  0  0
   20.8269    8.8150   -8.5269 C   0  0  0  0  0  0  0  0  0  0  0  0
   20.8555    7.3356   -8.6427 C   0  0  0  0  0  0  0  0  0  0  0  0
   20.7670    6.8060  -10.0636 C   0  0  0  0  0  0  0  0  0  0  0  0
   19.6867    7.3587  -10.9348 C   0  0  0  0  0  0  0  0  0  0  0  0
   19.8042    8.8992  -10.9729 C   0  0  0  0  0  0  0  0  0  0  0  0
   19.5296    6.6351  -12.3349 C   0  0  0  0  0  0  0  0  0  0  0  0
   20.4517    5.4043  -12.5806 C   0  0  0  0  0  0  0  0  0  0  0  0
   21.2942    4.8585  -11.4169 C   0  0  0  0  0  0  0  0  0  0  0  0
   20.6716    5.3203  -10.1215 C   0  0  0  0  0  0  0  0  0  0  0  0
   21.2165    4.5334   -9.0137 C   0  0  0  0  0  0  0  0  0  0  0  0
   20.8641    3.2756   -9.6817 C   0  0  0  0  0  0  0  0  0  0  0  0
   21.4080    3.3616  -11.0714 C   0  0  0  0  0  0  0  0  0  0  0  0
   22.6244    5.4878  -11.6730 C   0  0  0  0  0  0  0  0  0  0  0  0
   20.8186    9.8539  -11.3161 C   0  0  0  0  0  0  0  0  0  0  0  0
   18.0118   12.3947   -9.8461 O   0  0  0  0  0  0  0  0  0  0  0  0
   19.2193    7.4581  -13.2787 O   0  0  0  0  0  0  0  0  0  0  0  0
   19.9465    8.0859  -13.4123 H   0  0  0  0  0  0  0  0  0  0  0  0
   22.6818    2.6230  -10.7152 C   0  0  0  0  0  0  0  0  0  0  0  0
   22.6376    1.4574  -10.5057 O   0  0  0  0  0  0  0  0  0  0  0  0
   24.0490    3.1615  -10.5400 C   0  0  0  0  0  0  0  0  0  0  0  0
   24.8484    2.0549  -10.1623 O   0  0  0  0  0  0  0  0  0  0  0  0
   24.4929    1.6615   -9.3500 H   0  0  0  0  0  0  0  0  0  0  0  0
  1  2  1  0  0  0
  1 10  1  0  0  0
  2  3  1  0  0  0
  3  4  1  0  0  0
  3 20  2  0  0  0
  4  5  2  0  0  0
  5  6  1  0  0  0
  5 10  1  0  0  0
  6  7  1  0  0  0
  7  8  1  0  0  0
  8  9  1  0  0  0
  8 14  1  0  0  0
  9 10  1  0  0  0
  9 11  1  0  0  0
 10 19  1  0  0  0
 11 12  1  0  0  0
 11 21  1  0  0  0
 12 13  1  0  0  0
 13 14  1  0  0  0
 13 17  1  0  0  0
 13 18  1  0  0  0
 14 15  1  0  0  0
 15 16  1  0  0  0
 16 17  1  0  0  0
 17 23  1  0  0  0
 23 25  1  0  0  0
 23 24  2  0  0  0
 25 26  1  0  0  0
 21 22  1  0  0  0
 26 27  1  0  0  0
M  END
> <minimizedAffinity>
-5.19308

$$$$
