1RP7_TZD_A_889
  RCSB PDB12061703543D
Coordinates from PDB:1RP7:A:889 Model:1 without hydrogens
 27 28  0  0  0  0            999 V2000
   24.5960  -59.6220    1.0780   N 0  0  0  0  0  0  0  0  0  0  0  0
   24.1780  -58.7200    0.1240   C 0  0  0  0  0  0  0  0  0  0  0  0
   24.3080  -57.2750    0.4520   C 0  0  0  0  0  0  0  0  0  0  0  0
   23.6740  -59.0950   -1.0500   N 0  0  0  0  0  0  0  0  0  0  0  0
   23.5580  -60.4590   -1.3360   C 0  0  0  0  0  0  0  0  0  0  0  0
   23.0770  -60.7660   -2.5250   N 0  0  0  0  0  0  0  0  0  0  0  0
   23.9920  -61.4650   -0.3390   C 0  0  0  0  0  0  0  0  0  0  0  0
   24.4990  -60.9830    0.8420   C 0  0  0  0  0  0  0  0  0  0  0  0
   23.9530  -62.9610   -0.5600   C 0  0  0  0  0  0  0  0  0  0  0  0
   22.5570  -63.5460   -0.6440   N 0  0  0  0  0  0  0  0  0  0  0  0
   21.9410  -63.8100   -1.8220   C 0  0  0  0  0  0  0  0  0  0  0  0
   22.3730  -63.5710   -2.9610   O 0  0  0  0  0  0  0  0  0  0  0  0
   20.3830  -64.5630   -1.5240   S 0  0  0  0  0  0  0  0  0  0  0  0
   20.6060  -64.4830    0.1940   C 0  0  0  0  0  0  0  0  0  0  0  0
   21.8200  -63.9220    0.5170   C 0  0  0  0  0  0  0  0  0  0  0  0
   22.3830  -63.7130    1.8970   C 0  0  0  0  0  0  0  0  0  0  0  0
   19.5220  -64.9140    1.1280   C 0  0  0  0  0  0  0  0  0  0  0  0
   18.2010  -64.2710    0.7870   C 0  0  0  0  0  0  0  0  0  0  0  0
   17.3430  -64.3850    1.9470   O 0  0  0  0  0  0  0  0  0  0  0  0
   15.9720  -63.5670    2.0480   P 0  0  0  0  0  0  0  0  0  0  0  0
   15.1640  -64.0520    0.7640   O 0  0  0  0  0  0  0  0  0  0  0  0
   15.2680  -64.0150    3.2660   O 0  0  0  0  0  0  0  0  0  0  0  0
   16.2650  -62.1220    1.8830   O 0  0  0  0  0  0  0  0  0  0  0  0
   14.6210  -65.4550    0.2170   P 0  0  0  0  0  0  0  0  0  0  0  0
   13.1970  -65.1610   -0.3480   O 0  0  0  0  0  0  0  0  0  0  0  0
   15.5160  -65.8680   -0.8980   O 0  0  0  0  0  0  0  0  0  0  0  0
   14.5210  -66.3670    1.3810   O 0  0  0  0  0  0  0  0  0  0  0  0
  1  2  2  0  0  0  0
  1  8  1  0  0  0  0
  2  3  1  0  0  0  0
  2  4  1  0  0  0  0
  4  5  2  0  0  0  0
  5  6  1  0  0  0  0
  5  7  1  0  0  0  0
  7  8  2  0  0  0  0
  7  9  1  0  0  0  0
  9 10  1  0  0  0  0
 10 11  1  0  0  0  0
 10 15  1  0  0  0  0
 11 12  2  0  0  0  0
 11 13  1  0  0  0  0
 13 14  1  0  0  0  0
 14 15  2  0  0  0  0
 14 17  1  0  0  0  0
 15 16  1  0  0  0  0
 17 18  1  0  0  0  0
 18 19  1  0  0  0  0
 19 20  1  0  0  0  0
 20 21  1  0  0  0  0
 20 22  2  0  0  0  0
 20 23  1  0  0  0  0
 21 24  1  0  0  0  0
 24 25  1  0  0  0  0
 24 26  2  0  0  0  0
 24 27  1  0  0  0  0
A    1
N1'
A    2
C2'
A    3
C2A
A    4
N3'
A    5
C4'
A    6
N4'
A    7
C5'
A    8
C6'
A    9
C35
A   10
N3
A   11
C2
A   12
OC2
A   13
S1
A   14
C5
A   15
C4
A   16
C4A
A   17
C5A
A   18
C5B
A   19
O5G
A   20
P1
A   21
O11
A   22
O12
A   23
O13
A   24
P2
A   25
O21
A   26
O22
A   27
O23
M  END
>  <InstanceId>
1RP7_TZD_A_889

>  <ChemCompId>
TZD

>  <PdbId>
1RP7

>  <ChainId>
A

>  <ResidueNumber>
889

>  <InsertionCode>


>  <Model>
1

>  <AltIds>


>  <MissingHeavyAtoms>
0

>  <ObservedFormula>
C12 N4 O8 P2 S

>  <Name>
2-{3-[(4-AMINO-2-METHYLPYRIMIDIN-5-YL)METHYL]-4-METHYL-2-OXO-2,3-DIHYDRO-1,3-THIAZOL-5-YL}ETHYL TRIHYDROGEN DIPHOSPHATE

>  <SystematicName>
2-[3-[(4-amino-2-methyl-pyrimidin-5-yl)methyl]-4-methyl-2-oxo-1,3-thiazol-5-yl]ethyl phosphono hydrogen phosphate

>  <Synonyms>
THIAMIN THIAZOLONE DIPHOSPHATE

>  <Type>
NON-POLYMER

>  <Formula>
C12 H18 N4 O8 P2 S

>  <MolecularWeight>
440.306

>  <ModifiedDate>
2011-06-04

>  <Parent>


>  <OneLetterCode>


>  <SubcomponentList>


>  <AmbiguousFlag>
N

>  <InChI>
InChI=1S/C12H18N4O8P2S/c1-7-10(3-4-23-26(21,22)24-25(18,19)20)27-12(17)16(7)6-9-5-14-8(2)15-11(9)13/h5H,3-4,6H2,1-2H3,(H,21,22)(H2,13,14,15)(H2,18,19,20)

>  <InChIKey>
ZGJUYGIRPQSCFA-UHFFFAOYSA-N

>  <SMILES>
Cc1ncc(c(n1)N)CN2C(=C(SC2=O)CCO[P@@](=O)(O)OP(=O)(O)O)C

$$$$
