2ZA5_2FF_A_4


 33 37  0  0  0  0  0  0  0  0999 V2000
   22.3994   77.6444   83.2408 C   0  0  0  0  0  0  0  0  0  0  0  0
   22.7647   78.0756   84.5236 C   0  0  0  0  0  0  0  0  0  0  0  0
   21.7355   78.4324   85.5156 C   0  0  0  0  0  0  0  0  0  0  0  0
   20.3838   78.3465   85.1880 C   0  0  0  0  0  0  0  0  0  0  0  0
   20.0028   77.9148   83.8905 C   0  0  0  0  0  0  0  0  0  0  0  0
   21.0137   77.5477   82.9127 C   0  0  0  0  0  0  0  0  0  0  0  0
   22.3921   78.8511   86.7494 O   0  0  0  0  0  0  0  0  0  0  0  0
   23.7717   79.1101   86.4677 C   0  0  0  0  0  0  0  0  0  0  0  0
   24.0883   78.3262   85.2112 C   0  0  0  0  0  0  0  0  0  0  0  0
   24.5800   76.8678   85.4670 C   0  0  0  0  0  0  0  0  0  0  0  0
   26.0358   76.8779   85.9670 C   0  0  0  0  0  0  0  0  0  0  0  0
   26.8168   77.8267   85.1886 N   0  0  0  0  0  0  0  0  0  0  0  0
   26.3591   79.2038   84.9695 C   0  0  0  0  0  0  0  0  0  0  0  0
   25.0172   79.1059   84.2496 C   0  0  0  0  0  0  0  0  0  0  0  0
   27.8172   77.3718   84.2504 C   0  0  0  0  0  0  0  0  0  0  0  0
   28.2345   78.1231   83.4414 O   0  0  0  0  0  0  0  0  0  0  0  0
   28.3538   75.9636   84.2302 C   0  0  0  0  0  0  0  0  0  0  0  0
   28.3430   75.2642   83.0229 O   0  0  0  0  0  0  0  0  0  0  0  0
   28.9457   74.0110   83.2609 C   0  0  0  0  0  0  0  0  0  0  0  0
   29.3288   73.9308   84.6166 C   0  0  0  0  0  0  0  0  0  0  0  0
   28.9713   75.1721   85.2336 C   0  0  0  0  0  0  0  0  0  0  0  0
   29.0540   72.9713   82.1697 C   0  0  0  0  0  0  0  0  0  0  0  0
   29.2439   72.2013   81.3091 C   0  0  0  0  0  0  0  0  0  0  0  0
   29.3878   71.1277   80.2483 C   0  0  0  0  0  0  0  0  0  0  0  0
   29.2682   69.7776   80.6222 C   0  0  0  0  0  0  0  0  0  0  0  0
   29.4183   68.7612   79.6590 C   0  0  0  0  0  0  0  0  0  0  0  0
   29.7038   69.1286   78.3195 C   0  0  0  0  0  0  0  0  0  0  0  0
   29.8457   70.4871   77.9457 C   0  0  0  0  0  0  0  0  0  0  0  0
   29.6950   71.5006   78.9118 C   0  0  0  0  0  0  0  0  0  0  0  0
   20.5730   77.0859   81.5096 C   0  0  0  0  0  0  0  0  0  0  0  0
   20.7754   78.2287   80.6340 N   0  0  0  0  0  0  0  0  0  0  0  0
   20.2291   79.0195   80.9753 H   0  0  0  0  0  0  0  0  0  0  0  0
   20.4748   77.9903   79.6889 H   0  0  0  0  0  0  0  0  0  0  0  0
  7  8  1  0  0  0
  7  3  1  0  0  0
 21 20  1  0  0  0
 21 17  2  0  0  0
  8  9  1  0  0  0
 11 10  1  0  0  0
 11 12  1  0  0  0
 20 19  2  0  0  0
 10  9  1  0  0  0
 12 13  1  0  0  0
 12 15  1  0  0  0
  9  2  1  0  0  0
  9 14  1  0  0  0
  3  4  2  0  0  0
  3  2  1  0  0  0
 17 15  1  0  0  0
 17 18  1  0  0  0
 13 14  1  0  0  0
 15 16  2  0  0  0
  4  5  1  0  0  0
 19 18  1  0  0  0
 19 22  1  0  0  0
  2  1  2  0  0  0
 22 23  3  0  0  0
  5  6  2  0  0  0
  1  6  1  0  0  0
 23 24  1  0  0  0
  6 30  1  0  0  0
 29 24  2  0  0  0
 29 28  1  0  0  0
 24 25  1  0  0  0
 28 27  2  0  0  0
 30 31  1  0  0  0
 25 26  2  0  0  0
 27 26  1  0  0  0
 31 32  1  0  0  0
 31 33  1  0  0  0
M  END
> <minimizedAffinity>
-11.63053

$$$$
2ZA5_2FF_A_4


 33 37  0  0  0  0  0  0  0  0999 V2000
   22.1299   78.0237   83.0688 C   0  0  0  0  0  0  0  0  0  0  0  0
   22.5507   78.3762   84.3586 C   0  0  0  0  0  0  0  0  0  0  0  0
   21.7113   78.0709   85.5303 C   0  0  0  0  0  0  0  0  0  0  0  0
   20.4856   77.4281   85.3685 C   0  0  0  0  0  0  0  0  0  0  0  0
   20.0480   77.0701   84.0664 C   0  0  0  0  0  0  0  0  0  0  0  0
   20.8787   77.3559   82.9084 C   0  0  0  0  0  0  0  0  0  0  0  0
   22.3831   78.5527   86.7325 O   0  0  0  0  0  0  0  0  0  0  0  0
   23.4274   79.4515   86.3433 C   0  0  0  0  0  0  0  0  0  0  0  0
   23.7611   79.0968   84.9094 C   0  0  0  0  0  0  0  0  0  0  0  0
   24.8633   78.0035   84.7547 C   0  0  0  0  0  0  0  0  0  0  0  0
   26.2502   78.6015   85.0518 C   0  0  0  0  0  0  0  0  0  0  0  0
   26.3688   79.9067   84.4207 N   0  0  0  0  0  0  0  0  0  0  0  0
   25.3386   80.9387   84.5874 C   0  0  0  0  0  0  0  0  0  0  0  0
   24.0408   80.3486   84.0433 C   0  0  0  0  0  0  0  0  0  0  0  0
   27.2358   80.1048   83.2818 C   0  0  0  0  0  0  0  0  0  0  0  0
   27.1104   81.0754   82.6222 O   0  0  0  0  0  0  0  0  0  0  0  0
   28.2961   79.1174   82.8670 C   0  0  0  0  0  0  0  0  0  0  0  0
   27.9551   77.7664   82.7920 O   0  0  0  0  0  0  0  0  0  0  0  0
   29.0936   77.0734   82.3295 C   0  0  0  0  0  0  0  0  0  0  0  0
   30.1428   77.9934   82.1194 C   0  0  0  0  0  0  0  0  0  0  0  0
   29.6390   79.2938   82.4426 C   0  0  0  0  0  0  0  0  0  0  0  0
   29.0910   75.5698   82.1791 C   0  0  0  0  0  0  0  0  0  0  0  0
   29.1532   74.4198   81.9710 C   0  0  0  0  0  0  0  0  0  0  0  0
   29.2061   72.9107   81.8358 C   0  0  0  0  0  0  0  0  0  0  0  0
   29.5915   72.1384   82.9457 C   0  0  0  0  0  0  0  0  0  0  0  0
   29.6682   70.7362   82.8392 C   0  0  0  0  0  0  0  0  0  0  0  0
   29.3638   70.1298   81.5940 C   0  0  0  0  0  0  0  0  0  0  0  0
   28.9962   70.9079   80.4693 C   0  0  0  0  0  0  0  0  0  0  0  0
   28.9207   72.3098   80.5799 C   0  0  0  0  0  0  0  0  0  0  0  0
   20.3781   76.9602   81.5052 C   0  0  0  0  0  0  0  0  0  0  0  0
   20.7675   78.0486   80.6234 N   0  0  0  0  0  0  0  0  0  0  0  0
   20.3536   78.9197   80.9554 H   0  0  0  0  0  0  0  0  0  0  0  0
   20.4382   77.8544   79.6778 H   0  0  0  0  0  0  0  0  0  0  0  0
  7  8  1  0  0  0
  7  3  1  0  0  0
 21 20  1  0  0  0
 21 17  2  0  0  0
  8  9  1  0  0  0
 11 10  1  0  0  0
 11 12  1  0  0  0
 20 19  2  0  0  0
 10  9  1  0  0  0
 12 13  1  0  0  0
 12 15  1  0  0  0
  9  2  1  0  0  0
  9 14  1  0  0  0
  3  4  2  0  0  0
  3  2  1  0  0  0
 17 15  1  0  0  0
 17 18  1  0  0  0
 13 14  1  0  0  0
 15 16  2  0  0  0
  4  5  1  0  0  0
 19 18  1  0  0  0
 19 22  1  0  0  0
  2  1  2  0  0  0
 22 23  3  0  0  0
  5  6  2  0  0  0
  1  6  1  0  0  0
 23 24  1  0  0  0
  6 30  1  0  0  0
 29 24  2  0  0  0
 29 28  1  0  0  0
 24 25  1  0  0  0
 28 27  2  0  0  0
 30 31  1  0  0  0
 25 26  2  0  0  0
 27 26  1  0  0  0
 31 32  1  0  0  0
 31 33  1  0  0  0
M  END
> <minimizedAffinity>
-10.72120

$$$$
2ZA5_2FF_A_4


 33 37  0  0  0  0  0  0  0  0999 V2000
   23.3513   77.4620   84.2136 C   0  0  0  0  0  0  0  0  0  0  0  0
   23.4509   77.5182   85.6107 C   0  0  0  0  0  0  0  0  0  0  0  0
   22.2419   77.6409   86.4438 C   0  0  0  0  0  0  0  0  0  0  0  0
   20.9827   77.7044   85.8503 C   0  0  0  0  0  0  0  0  0  0  0  0
   20.8707   77.6522   84.4361 C   0  0  0  0  0  0  0  0  0  0  0  0
   22.0591   77.5165   83.6101 C   0  0  0  0  0  0  0  0  0  0  0  0
   22.6368   77.6857   87.8477 O   0  0  0  0  0  0  0  0  0  0  0  0
   24.0420   77.9506   87.9188 C   0  0  0  0  0  0  0  0  0  0  0  0
   24.6094   77.5182   86.5830 C   0  0  0  0  0  0  0  0  0  0  0  0
   25.0566   76.0248   86.5246 C   0  0  0  0  0  0  0  0  0  0  0  0
   26.3845   75.8377   87.2803 C   0  0  0  0  0  0  0  0  0  0  0  0
   27.2937   76.9253   86.9541 N   0  0  0  0  0  0  0  0  0  0  0  0
   26.8734   78.3295   87.0316 C   0  0  0  0  0  0  0  0  0  0  0  0
   25.7017   78.4857   86.0667 C   0  0  0  0  0  0  0  0  0  0  0  0
   28.4649   76.6951   86.1397 C   0  0  0  0  0  0  0  0  0  0  0  0
   29.0258   77.6165   85.6608 O   0  0  0  0  0  0  0  0  0  0  0  0
   29.0101   75.3217   85.8433 C   0  0  0  0  0  0  0  0  0  0  0  0
   28.8691   74.8138   84.5513 O   0  0  0  0  0  0  0  0  0  0  0  0
   29.5078   73.5562   84.5250 C   0  0  0  0  0  0  0  0  0  0  0  0
   30.0437   73.2815   85.8012 C   0  0  0  0  0  0  0  0  0  0  0  0
   29.7460   74.4042   86.6379 C   0  0  0  0  0  0  0  0  0  0  0  0
   29.5019   72.6978   83.2814 C   0  0  0  0  0  0  0  0  0  0  0  0
   29.4672   72.1254   82.2612 C   0  0  0  0  0  0  0  0  0  0  0  0
   29.5087   71.2914   80.9957 C   0  0  0  0  0  0  0  0  0  0  0  0
   29.5671   71.9418   79.7506 C   0  0  0  0  0  0  0  0  0  0  0  0
   29.5857   71.1895   78.5601 C   0  0  0  0  0  0  0  0  0  0  0  0
   29.5307   69.7753   78.6469 C   0  0  0  0  0  0  0  0  0  0  0  0
   29.4503   69.1195   79.8995 C   0  0  0  0  0  0  0  0  0  0  0  0
   29.4318   69.8753   81.0876 C   0  0  0  0  0  0  0  0  0  0  0  0
   21.9097   77.4663   82.0767 C   0  0  0  0  0  0  0  0  0  0  0  0
   20.9715   78.5228   81.7346 N   0  0  0  0  0  0  0  0  0  0  0  0
   20.0883   78.3634   82.2192 H   0  0  0  0  0  0  0  0  0  0  0  0
   20.8114   78.5223   80.7272 H   0  0  0  0  0  0  0  0  0  0  0  0
  7  8  1  0  0  0
  7  3  1  0  0  0
 21 20  1  0  0  0
 21 17  2  0  0  0
  8  9  1  0  0  0
 11 10  1  0  0  0
 11 12  1  0  0  0
 20 19  2  0  0  0
 10  9  1  0  0  0
 12 13  1  0  0  0
 12 15  1  0  0  0
  9  2  1  0  0  0
  9 14  1  0  0  0
  3  4  2  0  0  0
  3  2  1  0  0  0
 17 15  1  0  0  0
 17 18  1  0  0  0
 13 14  1  0  0  0
 15 16  2  0  0  0
  4  5  1  0  0  0
 19 18  1  0  0  0
 19 22  1  0  0  0
  2  1  2  0  0  0
 22 23  3  0  0  0
  5  6  2  0  0  0
  1  6  1  0  0  0
 23 24  1  0  0  0
  6 30  1  0  0  0
 29 24  2  0  0  0
 29 28  1  0  0  0
 24 25  1  0  0  0
 28 27  2  0  0  0
 30 31  1  0  0  0
 25 26  2  0  0  0
 27 26  1  0  0  0
 31 32  1  0  0  0
 31 33  1  0  0  0
M  END
> <minimizedAffinity>
-10.26595

$$$$
2ZA5_2FF_A_4


 33 37  0  0  0  0  0  0  0  0999 V2000
   24.2750   77.4325   84.8588 C   0  0  0  0  0  0  0  0  0  0  0  0
   24.3340   77.3022   86.2532 C   0  0  0  0  0  0  0  0  0  0  0  0
   23.1154   77.4353   87.0706 C   0  0  0  0  0  0  0  0  0  0  0  0
   21.8876   77.6947   86.4647 C   0  0  0  0  0  0  0  0  0  0  0  0
   21.8171   77.8323   85.0536 C   0  0  0  0  0  0  0  0  0  0  0  0
   23.0138   77.6875   84.2412 C   0  0  0  0  0  0  0  0  0  0  0  0
   23.4670   77.2643   88.4762 O   0  0  0  0  0  0  0  0  0  0  0  0
   24.8877   77.3809   88.6093 C   0  0  0  0  0  0  0  0  0  0  0  0
   25.4554   77.0676   87.2407 C   0  0  0  0  0  0  0  0  0  0  0  0
   25.7628   75.5572   86.9998 C   0  0  0  0  0  0  0  0  0  0  0  0
   27.0422   75.1487   87.7519 C   0  0  0  0  0  0  0  0  0  0  0  0
   28.0591   76.1757   87.5868 N   0  0  0  0  0  0  0  0  0  0  0  0
   27.7695   77.5928   87.8357 C   0  0  0  0  0  0  0  0  0  0  0  0
   26.6493   77.9822   86.8754 C   0  0  0  0  0  0  0  0  0  0  0  0
   29.2294   75.9377   86.7734 C   0  0  0  0  0  0  0  0  0  0  0  0
   29.8891   76.8535   86.4284 O   0  0  0  0  0  0  0  0  0  0  0  0
   29.6533   74.5663   86.3139 C   0  0  0  0  0  0  0  0  0  0  0  0
   29.4347   74.2133   84.9818 O   0  0  0  0  0  0  0  0  0  0  0  0
   29.9689   72.9204   84.7994 C   0  0  0  0  0  0  0  0  0  0  0  0
   30.5173   72.4690   86.0187 C   0  0  0  0  0  0  0  0  0  0  0  0
   30.3354   73.5145   86.9796 C   0  0  0  0  0  0  0  0  0  0  0  0
   29.8580   72.2042   83.4734 C   0  0  0  0  0  0  0  0  0  0  0  0
   29.6967   71.7279   82.4167 C   0  0  0  0  0  0  0  0  0  0  0  0
   29.6129   71.0534   81.0615 C   0  0  0  0  0  0  0  0  0  0  0  0
   29.3982   69.6651   81.0015 C   0  0  0  0  0  0  0  0  0  0  0  0
   29.3372   69.0123   79.7551 C   0  0  0  0  0  0  0  0  0  0  0  0
   29.5097   69.7793   78.5750 C   0  0  0  0  0  0  0  0  0  0  0  0
   29.7474   71.1741   78.6346 C   0  0  0  0  0  0  0  0  0  0  0  0
   29.8078   71.8232   79.8829 C   0  0  0  0  0  0  0  0  0  0  0  0
   22.9102   77.8457   82.7114 C   0  0  0  0  0  0  0  0  0  0  0  0
   21.7276   77.0991   82.3145 N   0  0  0  0  0  0  0  0  0  0  0  0
   21.8280   76.1254   82.6014 H   0  0  0  0  0  0  0  0  0  0  0  0
   21.6203   77.1456   81.3012 H   0  0  0  0  0  0  0  0  0  0  0  0
  7  8  1  0  0  0
  7  3  1  0  0  0
 21 20  1  0  0  0
 21 17  2  0  0  0
  8  9  1  0  0  0
 11 10  1  0  0  0
 11 12  1  0  0  0
 20 19  2  0  0  0
 10  9  1  0  0  0
 12 13  1  0  0  0
 12 15  1  0  0  0
  9  2  1  0  0  0
  9 14  1  0  0  0
  3  4  2  0  0  0
  3  2  1  0  0  0
 17 15  1  0  0  0
 17 18  1  0  0  0
 13 14  1  0  0  0
 15 16  2  0  0  0
  4  5  1  0  0  0
 19 18  1  0  0  0
 19 22  1  0  0  0
  2  1  2  0  0  0
 22 23  3  0  0  0
  5  6  2  0  0  0
  1  6  1  0  0  0
 23 24  1  0  0  0
  6 30  1  0  0  0
 29 24  2  0  0  0
 29 28  1  0  0  0
 24 25  1  0  0  0
 28 27  2  0  0  0
 30 31  1  0  0  0
 25 26  2  0  0  0
 27 26  1  0  0  0
 31 32  1  0  0  0
 31 33  1  0  0  0
M  END
> <minimizedAffinity>
-10.04394

$$$$
