3T01_PPF_A_503
  RCSB PDB12061710483D
Coordinates from PDB:3T01:A:503 Model:1 without hydrogens
  7  6  0  0  0  0            999 V2000
   -1.1550   32.9560   21.3010   C 0  0  0  0  0  0  0  0  0  0  0  0
    0.8280   32.2500   19.8230   O 0  0  0  0  0  0  0  0  0  0  0  0
   -0.9680   30.5410   20.3340   O 0  0  0  0  0  0  0  0  0  0  0  0
    0.6150   31.3080   22.1430   O 0  0  0  0  0  0  0  0  0  0  0  0
   -0.8010   34.1260   21.0380   O 0  0  0  0  0  0  0  0  0  0  0  0
   -2.2420   32.7390   21.8840   O 0  0  0  0  0  0  0  0  0  0  0  0
   -0.0980   31.6660   20.8620   P 0  0  0  0  0  0  0  0  0  0  0  0
  1  5  1  0  0  0  0
  1  6  2  0  0  0  0
  1  7  1  0  0  0  0
  2  7  1  0  0  0  0
  3  7  1  0  0  0  0
  4  7  2  0  0  0  0
A    1
C1
A    2
O1
A    3
O2
A    4
O3
A    5
O4
A    6
O5
A    7
P1
M  END
>  <InstanceId>
3T01_PPF_A_503

>  <ChemCompId>
PPF

>  <PdbId>
3T01

>  <ChainId>
A

>  <ResidueNumber>
503

>  <InsertionCode>


>  <Model>
1

>  <AltIds>


>  <MissingHeavyAtoms>
0

>  <ObservedFormula>
C O5 P

>  <Name>
PHOSPHONOFORMIC ACID

>  <SystematicName>
phosphonomethanoic acid

>  <Synonyms>


>  <Type>
NON-POLYMER

>  <Formula>
C H3 O5 P

>  <MolecularWeight>
126.005

>  <ModifiedDate>
2011-06-04

>  <Parent>


>  <OneLetterCode>


>  <SubcomponentList>


>  <AmbiguousFlag>
N

>  <InChI>
InChI=1S/CH3O5P/c2-1(3)7(4,5)6/h(H,2,3)(H2,4,5,6)

>  <InChIKey>
ZJAOAACCNHFJAH-UHFFFAOYSA-N

>  <SMILES>
C(=O)(O)P(=O)(O)O

$$$$
