4MUV_PCG_A_401
  RCSB PDB12061713473D
Coordinates from PDB:4MUV:A:401 Model:1 without hydrogens
 23 26  0  0  0  0            999 V2000
   12.8990   -0.8020   88.9850   P 0  0  0  0  0  0  0  0  0  0  0  0
   11.6160   -0.1600   88.4990   O 0  0  0  0  0  0  0  0  0  0  0  0
   12.8330   -1.5160   90.2880   O 0  0  0  0  0  0  0  0  0  0  0  0
   13.9870    0.2920   89.0710   O 0  0  0  0  0  0  0  0  0  0  0  0
   15.2950   -0.0580   89.1370   C 0  0  0  0  0  0  0  0  0  0  0  0
   15.6010   -0.9850   87.9470   C 0  0  0  0  0  0  0  0  0  0  0  0
   16.9810   -1.4780   87.7680   O 0  0  0  0  0  0  0  0  0  0  0  0
   14.8090   -2.1090   88.0200   C 0  0  0  0  0  0  0  0  0  0  0  0
   13.3880   -1.8060   87.8550   O 0  0  0  0  0  0  0  0  0  0  0  0
   15.4280   -3.0090   86.8740   C 0  0  0  0  0  0  0  0  0  0  0  0
   14.7510   -2.7320   85.6480   O 0  0  0  0  0  0  0  0  0  0  0  0
   16.7810   -2.6330   86.8150   C 0  0  0  0  0  0  0  0  0  0  0  0
   17.7490   -3.6400   87.1330   N 0  0  0  0  0  0  0  0  0  0  0  0
   18.7030   -4.1700   86.2980   C 0  0  0  0  0  0  0  0  0  0  0  0
   19.3680   -5.1680   86.8830   N 0  0  0  0  0  0  0  0  0  0  0  0
   18.8220   -5.2770   88.1390   C 0  0  0  0  0  0  0  0  0  0  0  0
   19.1130   -6.1680   89.2280   C 0  0  0  0  0  0  0  0  0  0  0  0
   19.9910   -7.0650   89.2270   O 0  0  0  0  0  0  0  0  0  0  0  0
   18.3380   -5.9690   90.3450   N 0  0  0  0  0  0  0  0  0  0  0  0
   17.3170   -5.0350   90.4280   C 0  0  0  0  0  0  0  0  0  0  0  0
   16.6080   -4.9430   91.5680   N 0  0  0  0  0  0  0  0  0  0  0  0
   17.0090   -4.1670   89.4120   N 0  0  0  0  0  0  0  0  0  0  0  0
   17.8140   -4.3510   88.2680   C 0  0  0  0  0  0  0  0  0  0  0  0
  1  2  1  0  0  0  0
  1  3  2  0  0  0  0
  1  4  1  0  0  0  0
  1  9  1  0  0  0  0
  4  5  1  0  0  0  0
  5  6  1  0  0  0  0
  6  7  1  0  0  0  0
  6  8  1  0  0  0  0
  7 12  1  0  0  0  0
  8  9  1  0  0  0  0
  8 10  1  0  0  0  0
 10 11  1  0  0  0  0
 10 12  1  0  0  0  0
 12 13  1  0  0  0  0
 13 14  1  0  0  0  0
 13 23  1  0  0  0  0
 14 15  2  0  0  0  0
 15 16  1  0  0  0  0
 16 17  1  0  0  0  0
 16 23  2  0  0  0  0
 17 18  2  0  0  0  0
 17 19  1  0  0  0  0
 19 20  1  0  0  0  0
 20 21  1  0  0  0  0
 20 22  2  0  0  0  0
 22 23  1  0  0  0  0
A    1
PA
A    2
O1A
A    3
O2A
A    4
O5'
A    5
C5'
A    6
C4'
A    7
O4'
A    8
C3'
A    9
O3'
A   10
C2'
A   11
O2'
A   12
C1'
A   13
N9
A   14
C8
A   15
N7
A   16
C5
A   17
C6
A   18
O6
A   19
N1
A   20
C2
A   21
N2
A   22
N3
A   23
C4
M  END
>  <InstanceId>
4MUV_PCG_A_401

>  <ChemCompId>
PCG

>  <PdbId>
4MUV

>  <ChainId>
A

>  <ResidueNumber>
401

>  <InsertionCode>


>  <Model>
1

>  <AltIds>


>  <MissingHeavyAtoms>
0

>  <ObservedFormula>
C10 N5 O7 P

>  <Name>
CYCLIC GUANOSINE MONOPHOSPHATE

>  <SystematicName>
2-amino-9-[(4R,6S,7R,8R)-4,7-dihydroxy-4-oxo-3,5,9-trioxa-4$l^{5}-phosphabicyclo[4.3.0]nonan-8-yl]-1H-purin-6-one

>  <Synonyms>


>  <Type>
NON-POLYMER

>  <Formula>
C10 H12 N5 O7 P

>  <MolecularWeight>
345.205

>  <ModifiedDate>
2011-06-04

>  <Parent>


>  <OneLetterCode>


>  <SubcomponentList>


>  <AmbiguousFlag>
N

>  <InChI>
InChI=1S/C10H12N5O7P/c11-10-13-7-4(8(17)14-10)12-2-15(7)9-5(16)6-3(21-9)1-20-23(18,19)22-6/h2-3,5-6,9,16H,1H2,(H,18,19)(H3,11,13,14,17)/t3-,5-,6-,9-/m1/s1

>  <InChIKey>
ZOOGRGPOEVQQDX-UUOKFMHZSA-N

>  <SMILES>
c1nc2c(n1[C@H]3[C@@H]([C@H]4C(O3)CO[P@](=O)(O4)O)O)N=C(NC2=O)N

$$$$
