3QQA_TCH_A_211


 40 43  0  0  0  0  0  0  0  0999 V2000
   -8.0954  -21.2433  -17.1239 C   0  0  0  0  0  0  0  0  0  0  0  0
   -6.5820  -21.3768  -17.2554 C   0  0  0  0  0  0  0  0  0  0  0  0
   -6.1614  -22.5495  -18.1149 C   0  0  0  0  0  0  0  0  0  0  0  0
   -6.0102  -22.1654  -19.5113 O   0  0  0  0  0  0  0  0  0  0  0  0
   -7.0110  -23.7473  -17.7103 C   0  0  0  0  0  0  0  0  0  0  0  0
   -7.4656  -23.2867  -16.3392 C   0  0  0  0  0  0  0  0  0  0  0  0
   -7.7309  -24.1194  -15.1069 C   0  0  0  0  0  0  0  0  0  0  0  0
   -7.3227  -23.1851  -14.0159 C   0  0  0  0  0  0  0  0  0  0  0  0
   -6.9884  -21.9053  -14.5632 O   0  0  0  0  0  0  0  0  0  0  0  0
   -8.7098  -22.9048  -13.7369 C   0  0  0  0  0  0  0  0  0  0  0  0
   -9.2530  -22.2519  -15.0244 C   0  0  0  0  0  0  0  0  0  0  0  0
   -8.6797  -22.4678  -16.4547 C   0  0  0  0  0  0  0  0  0  0  0  0
  -10.7432  -21.9589  -14.8783 C   0  0  0  0  0  0  0  0  0  0  0  0
  -11.1518  -21.6735  -13.4193 C   0  0  0  0  0  0  0  0  0  0  0  0
  -12.2852  -20.7791  -13.3979 O   0  0  0  0  0  0  0  0  0  0  0  0
  -10.0901  -21.5985  -12.2790 C   0  0  0  0  0  0  0  0  0  0  0  0
   -8.6653  -21.8371  -12.7216 C   0  0  0  0  0  0  0  0  0  0  0  0
   -7.8300  -21.8446  -11.4904 C   0  0  0  0  0  0  0  0  0  0  0  0
   -8.5171  -20.6735  -10.7621 C   0  0  0  0  0  0  0  0  0  0  0  0
   -9.7521  -20.2945  -11.5752 C   0  0  0  0  0  0  0  0  0  0  0  0
  -10.4448  -22.5909  -11.1917 C   0  0  0  0  0  0  0  0  0  0  0  0
   -9.6263  -23.1395  -17.4493 C   0  0  0  0  0  0  0  0  0  0  0  0
   -6.8523  -21.8173  -19.8439 H   0  0  0  0  0  0  0  0  0  0  0  0
   -7.6844  -21.6248  -15.1778 H   0  0  0  0  0  0  0  0  0  0  0  0
  -12.0217  -19.9147  -13.7505 H   0  0  0  0  0  0  0  0  0  0  0  0
  -10.8584  -19.7009  -10.7446 C   0  0  0  0  0  0  0  0  0  0  0  0
  -10.5039  -19.8393   -9.2928 C   0  0  0  0  0  0  0  0  0  0  0  0
  -11.2302  -18.2813  -11.1150 C   0  0  0  0  0  0  0  0  0  0  0  0
  -12.6990  -18.0652  -11.4238 C   0  0  0  0  0  0  0  0  0  0  0  0
  -12.8070  -17.3358  -12.7200 C   0  0  0  0  0  0  0  0  0  0  0  0
  -13.1536  -17.9925  -13.8223 N   0  0  0  0  0  0  0  0  0  0  0  0
  -12.5918  -16.1628  -12.7140 O   0  0  0  0  0  0  0  0  0  0  0  0
  -13.0679  -18.9729  -13.8476 H   0  0  0  0  0  0  0  0  0  0  0  0
  -13.6606  -17.2847  -15.0002 C   0  0  0  0  0  0  0  0  0  0  0  0
  -14.6967  -18.0846  -15.7939 C   0  0  0  0  0  0  0  0  0  0  0  0
  -13.9839  -20.5823  -15.6084 O   0  0  0  0  0  0  0  0  0  0  0  0
  -15.0618  -19.6356  -15.3057 S   0  0  0  0  0  0  0  0  0  0  0  0
  -16.3245  -20.0354  -15.9263 O   0  0  0  0  0  0  0  0  0  0  0  0
  -15.3106  -19.7295  -13.8662 O   0  0  0  0  0  0  0  0  0  0  0  0
  -14.5089  -19.4765  -13.3823 H   0  0  0  0  0  0  0  0  0  0  0  0
  1  2  1  0  0  0
  2  3  1  0  0  0
  3  4  1  0  0  0
  5  3  1  0  0  0
  6  5  1  0  0  0
  7  6  1  0  0  0
  8  7  1  0  0  0
  8  9  1  0  0  0
 10  8  1  0  0  0
 10 11  1  0  0  0
 11 12  1  0  0  0
 12  1  1  0  0  0
 12  6  1  0  0  0
 13 11  1  0  0  0
 14 13  1  0  0  0
 14 15  1  0  0  0
 16 14  1  0  0  0
 16 17  1  0  0  0
 17 10  1  0  0  0
 18 17  1  0  0  0
 19 18  1  0  0  0
 19 20  1  0  0  0
 20 16  1  0  0  0
 21 16  1  0  0  0
 22 12  1  0  0  0
 36 37  2  0  0  0
 26 20  1  0  0  0
 27 26  1  0  0  0
 28 26  1  0  0  0
 29 28  1  0  0  0
 29 30  1  0  0  0
 30 32  2  0  0  0
 31 30  1  0  0  0
 31 34  1  0  0  0
 34 35  1  0  0  0
 35 37  1  0  0  0
 37 39  1  0  0  0
 38 37  2  0  0  0
  4 23  1  0  0  0
  9 24  1  0  0  0
 15 25  1  0  0  0
 31 33  1  0  0  0
 39 40  1  0  0  0
M  END
> <minimizedAffinity>
-10.14899

$$$$
3QQA_TCH_A_211


 40 43  0  0  0  0  0  0  0  0999 V2000
  -10.4059  -16.7177  -10.8992 C   0  0  0  0  0  0  0  0  0  0  0  0
  -11.8632  -16.5601  -11.3200 C   0  0  0  0  0  0  0  0  0  0  0  0
  -12.7045  -15.8383  -10.2895 C   0  0  0  0  0  0  0  0  0  0  0  0
  -12.7287  -14.4017  -10.5263 O   0  0  0  0  0  0  0  0  0  0  0  0
  -12.3520  -16.4100   -8.9223 C   0  0  0  0  0  0  0  0  0  0  0  0
  -11.7335  -17.7271   -9.3479 C   0  0  0  0  0  0  0  0  0  0  0  0
  -11.7727  -19.0588   -8.6356 C   0  0  0  0  0  0  0  0  0  0  0  0
  -11.7850  -20.0157   -9.7819 C   0  0  0  0  0  0  0  0  0  0  0  0
  -11.6312  -19.3072  -11.0162 O   0  0  0  0  0  0  0  0  0  0  0  0
  -10.3877  -20.2981   -9.5613 C   0  0  0  0  0  0  0  0  0  0  0  0
   -9.6654  -18.9567   -9.8020 C   0  0  0  0  0  0  0  0  0  0  0  0
  -10.3047  -17.5475   -9.6384 C   0  0  0  0  0  0  0  0  0  0  0  0
   -8.1704  -19.1085   -9.5384 C   0  0  0  0  0  0  0  0  0  0  0  0
   -7.6578  -20.5330   -9.8307 C   0  0  0  0  0  0  0  0  0  0  0  0
   -6.2735  -20.4776  -10.2373 O   0  0  0  0  0  0  0  0  0  0  0  0
   -8.5945  -21.6248  -10.4337 C   0  0  0  0  0  0  0  0  0  0  0  0
  -10.0143  -21.1740  -10.6864 C   0  0  0  0  0  0  0  0  0  0  0  0
  -10.7696  -22.3725  -11.1410 C   0  0  0  0  0  0  0  0  0  0  0  0
   -9.6838  -22.9720  -12.0553 C   0  0  0  0  0  0  0  0  0  0  0  0
   -8.4118  -22.1545  -11.8466 C   0  0  0  0  0  0  0  0  0  0  0  0
   -8.6126  -22.8346   -9.5233 C   0  0  0  0  0  0  0  0  0  0  0  0
   -9.6933  -16.6697   -8.5465 C   0  0  0  0  0  0  0  0  0  0  0  0
  -11.8240  -14.0535  -10.4940 H   0  0  0  0  0  0  0  0  0  0  0  0
  -10.8924  -18.6831  -10.9409 H   0  0  0  0  0  0  0  0  0  0  0  0
   -6.2043  -20.0150  -11.0871 H   0  0  0  0  0  0  0  0  0  0  0  0
   -7.1489  -22.9378  -12.0865 C   0  0  0  0  0  0  0  0  0  0  0  0
   -7.5041  -24.3817  -12.2903 C   0  0  0  0  0  0  0  0  0  0  0  0
   -6.2747  -22.3963  -13.1970 C   0  0  0  0  0  0  0  0  0  0  0  0
   -6.2779  -23.2185  -14.4713 C   0  0  0  0  0  0  0  0  0  0  0  0
   -6.4328  -22.2930  -15.6303 C   0  0  0  0  0  0  0  0  0  0  0  0
   -7.2597  -22.6068  -16.6222 N   0  0  0  0  0  0  0  0  0  0  0  0
   -5.8096  -21.2763  -15.6132 O   0  0  0  0  0  0  0  0  0  0  0  0
   -7.5478  -23.5417  -16.7335 H   0  0  0  0  0  0  0  0  0  0  0  0
   -7.7507  -21.5879  -17.5530 C   0  0  0  0  0  0  0  0  0  0  0  0
   -9.1697  -21.8573  -18.0600 C   0  0  0  0  0  0  0  0  0  0  0  0
  -11.7328  -22.0129  -17.6277 O   0  0  0  0  0  0  0  0  0  0  0  0
  -10.4383  -21.7733  -16.9825 S   0  0  0  0  0  0  0  0  0  0  0  0
  -10.3981  -20.4726  -16.3145 O   0  0  0  0  0  0  0  0  0  0  0  0
  -10.3226  -22.7500  -15.8984 O   0  0  0  0  0  0  0  0  0  0  0  0
  -10.3419  -23.6467  -16.2677 H   0  0  0  0  0  0  0  0  0  0  0  0
  1  2  1  0  0  0
  2  3  1  0  0  0
  3  4  1  0  0  0
  5  3  1  0  0  0
  6  5  1  0  0  0
  7  6  1  0  0  0
  8  7  1  0  0  0
  8  9  1  0  0  0
 10  8  1  0  0  0
 10 11  1  0  0  0
 11 12  1  0  0  0
 12  1  1  0  0  0
 12  6  1  0  0  0
 13 11  1  0  0  0
 14 13  1  0  0  0
 14 15  1  0  0  0
 16 14  1  0  0  0
 16 17  1  0  0  0
 17 10  1  0  0  0
 18 17  1  0  0  0
 19 18  1  0  0  0
 19 20  1  0  0  0
 20 16  1  0  0  0
 21 16  1  0  0  0
 22 12  1  0  0  0
 36 37  2  0  0  0
 26 20  1  0  0  0
 27 26  1  0  0  0
 28 26  1  0  0  0
 29 28  1  0  0  0
 29 30  1  0  0  0
 30 32  2  0  0  0
 31 30  1  0  0  0
 31 34  1  0  0  0
 34 35  1  0  0  0
 35 37  1  0  0  0
 37 39  1  0  0  0
 38 37  2  0  0  0
  4 23  1  0  0  0
  9 24  1  0  0  0
 15 25  1  0  0  0
 31 33  1  0  0  0
 39 40  1  0  0  0
M  END
> <minimizedAffinity>
-10.11776

$$$$
3QQA_TCH_A_211


 40 43  0  0  0  0  0  0  0  0999 V2000
   -7.6519  -21.5590  -16.6815 C   0  0  0  0  0  0  0  0  0  0  0  0
   -6.2074  -21.8229  -17.0930 C   0  0  0  0  0  0  0  0  0  0  0  0
   -6.0897  -22.7244  -18.3031 C   0  0  0  0  0  0  0  0  0  0  0  0
   -6.0526  -21.9593  -19.5415 O   0  0  0  0  0  0  0  0  0  0  0  0
   -7.0636  -23.8804  -18.1150 C   0  0  0  0  0  0  0  0  0  0  0  0
   -7.2655  -23.8027  -16.6143 C   0  0  0  0  0  0  0  0  0  0  0  0
   -7.5064  -24.9298  -15.6376 C   0  0  0  0  0  0  0  0  0  0  0  0
   -6.8221  -24.4205  -14.4120 C   0  0  0  0  0  0  0  0  0  0  0  0
   -6.3574  -23.0838  -14.6272 O   0  0  0  0  0  0  0  0  0  0  0  0
   -8.1012  -24.0766  -13.8407 C   0  0  0  0  0  0  0  0  0  0  0  0
   -8.6877  -23.0085  -14.7864 C   0  0  0  0  0  0  0  0  0  0  0  0
   -8.3376  -22.8507  -16.2943 C   0  0  0  0  0  0  0  0  0  0  0  0
  -10.0820  -22.6007  -14.3204 C   0  0  0  0  0  0  0  0  0  0  0  0
  -10.2561  -22.7205  -12.7931 C   0  0  0  0  0  0  0  0  0  0  0  0
  -11.2202  -21.7477  -12.3358 O   0  0  0  0  0  0  0  0  0  0  0  0
   -9.0634  -23.1160  -11.8689 C   0  0  0  0  0  0  0  0  0  0  0  0
   -7.7610  -23.3757  -12.5894 C   0  0  0  0  0  0  0  0  0  0  0  0
   -6.7921  -23.8501  -11.5648 C   0  0  0  0  0  0  0  0  0  0  0  0
   -7.1873  -22.8795  -10.4352 C   0  0  0  0  0  0  0  0  0  0  0  0
   -8.4365  -22.1322  -10.8945 C   0  0  0  0  0  0  0  0  0  0  0  0
   -9.4354  -24.3403  -11.0592 C   0  0  0  0  0  0  0  0  0  0  0  0
   -9.4952  -23.0774  -17.2665 C   0  0  0  0  0  0  0  0  0  0  0  0
   -6.8627  -21.4315  -19.6198 H   0  0  0  0  0  0  0  0  0  0  0  0
   -7.0700  -22.5523  -15.0153 H   0  0  0  0  0  0  0  0  0  0  0  0
  -10.8672  -20.8544  -12.4713 H   0  0  0  0  0  0  0  0  0  0  0  0
   -9.3223  -21.6901   -9.7604 C   0  0  0  0  0  0  0  0  0  0  0  0
   -8.7661  -22.2245   -8.4729 C   0  0  0  0  0  0  0  0  0  0  0  0
   -9.5753  -20.1990   -9.7049 C   0  0  0  0  0  0  0  0  0  0  0  0
   -9.1033  -19.4251  -10.9206 C   0  0  0  0  0  0  0  0  0  0  0  0
  -10.2315  -18.5825  -11.4116 C   0  0  0  0  0  0  0  0  0  0  0  0
  -10.8848  -18.9290  -12.5160 N   0  0  0  0  0  0  0  0  0  0  0  0
  -10.5226  -17.6200  -10.7705 O   0  0  0  0  0  0  0  0  0  0  0  0
  -10.4662  -19.5575  -13.1477 H   0  0  0  0  0  0  0  0  0  0  0  0
  -12.2157  -18.3933  -12.8109 C   0  0  0  0  0  0  0  0  0  0  0  0
  -13.0368  -19.2808  -13.7498 C   0  0  0  0  0  0  0  0  0  0  0  0
  -11.0340  -19.5694  -15.3888 O   0  0  0  0  0  0  0  0  0  0  0  0
  -12.4971  -19.5185  -15.3084 S   0  0  0  0  0  0  0  0  0  0  0  0
  -13.0503  -18.4655  -16.1597 O   0  0  0  0  0  0  0  0  0  0  0  0
  -12.9930  -20.7657  -15.8926 O   0  0  0  0  0  0  0  0  0  0  0  0
  -12.6640  -21.5179  -15.3761 H   0  0  0  0  0  0  0  0  0  0  0  0
  1  2  1  0  0  0
  2  3  1  0  0  0
  3  4  1  0  0  0
  5  3  1  0  0  0
  6  5  1  0  0  0
  7  6  1  0  0  0
  8  7  1  0  0  0
  8  9  1  0  0  0
 10  8  1  0  0  0
 10 11  1  0  0  0
 11 12  1  0  0  0
 12  1  1  0  0  0
 12  6  1  0  0  0
 13 11  1  0  0  0
 14 13  1  0  0  0
 14 15  1  0  0  0
 16 14  1  0  0  0
 16 17  1  0  0  0
 17 10  1  0  0  0
 18 17  1  0  0  0
 19 18  1  0  0  0
 19 20  1  0  0  0
 20 16  1  0  0  0
 21 16  1  0  0  0
 22 12  1  0  0  0
 36 37  2  0  0  0
 26 20  1  0  0  0
 27 26  1  0  0  0
 28 26  1  0  0  0
 29 28  1  0  0  0
 29 30  1  0  0  0
 30 32  2  0  0  0
 31 30  1  0  0  0
 31 34  1  0  0  0
 34 35  1  0  0  0
 35 37  1  0  0  0
 37 39  1  0  0  0
 38 37  2  0  0  0
  4 23  1  0  0  0
  9 24  1  0  0  0
 15 25  1  0  0  0
 31 33  1  0  0  0
 39 40  1  0  0  0
M  END
> <minimizedAffinity>
-10.09927

$$$$
3QQA_TCH_A_211


 40 43  0  0  0  0  0  0  0  0999 V2000
  -10.8037  -18.3390  -11.5248 C   0  0  0  0  0  0  0  0  0  0  0  0
  -12.2831  -18.6960  -11.4265 C   0  0  0  0  0  0  0  0  0  0  0  0
  -12.9021  -18.3041  -10.1020 C   0  0  0  0  0  0  0  0  0  0  0  0
  -13.4726  -16.9653  -10.1508 O   0  0  0  0  0  0  0  0  0  0  0  0
  -11.9332  -18.7127   -9.0000 C   0  0  0  0  0  0  0  0  0  0  0  0
  -11.1074  -19.7374   -9.7528 C   0  0  0  0  0  0  0  0  0  0  0  0
  -10.4624  -20.9975   -9.2251 C   0  0  0  0  0  0  0  0  0  0  0  0
  -10.5582  -21.9051  -10.4071 C   0  0  0  0  0  0  0  0  0  0  0  0
  -11.0801  -21.1927  -11.5337 O   0  0  0  0  0  0  0  0  0  0  0  0
   -9.1603  -21.6869  -10.6880 C   0  0  0  0  0  0  0  0  0  0  0  0
   -9.0442  -20.1797  -10.9948 C   0  0  0  0  0  0  0  0  0  0  0  0
  -10.0088  -19.0770  -10.4704 C   0  0  0  0  0  0  0  0  0  0  0  0
   -7.5879  -19.8051  -11.2523 C   0  0  0  0  0  0  0  0  0  0  0  0
   -6.7744  -20.9665  -11.8578 C   0  0  0  0  0  0  0  0  0  0  0  0
   -5.7145  -20.4386  -12.6843 O   0  0  0  0  0  0  0  0  0  0  0  0
   -7.4521  -22.3172  -12.2442 C   0  0  0  0  0  0  0  0  0  0  0  0
   -8.9357  -22.3853  -11.9665 C   0  0  0  0  0  0  0  0  0  0  0  0
   -9.3676  -23.7729  -12.2850 C   0  0  0  0  0  0  0  0  0  0  0  0
   -8.5331  -23.9651  -13.5659 C   0  0  0  0  0  0  0  0  0  0  0  0
   -7.6074  -22.7578  -13.6905 C   0  0  0  0  0  0  0  0  0  0  0  0
   -6.7596  -23.4548  -11.5235 C   0  0  0  0  0  0  0  0  0  0  0  0
   -9.3787  -18.0372   -9.5440 C   0  0  0  0  0  0  0  0  0  0  0  0
  -12.7784  -16.3260  -10.3752 H   0  0  0  0  0  0  0  0  0  0  0  0
  -10.6069  -20.3517  -11.6319 H   0  0  0  0  0  0  0  0  0  0  0  0
   -6.0980  -19.9844  -13.4509 H   0  0  0  0  0  0  0  0  0  0  0  0
   -6.3239  -23.0583  -14.4176 C   0  0  0  0  0  0  0  0  0  0  0  0
   -6.3225  -24.5031  -14.8239 C   0  0  0  0  0  0  0  0  0  0  0  0
   -6.0270  -22.1324  -15.5775 C   0  0  0  0  0  0  0  0  0  0  0  0
   -6.4789  -22.6409  -16.9329 C   0  0  0  0  0  0  0  0  0  0  0  0
   -7.6621  -21.8433  -17.3662 C   0  0  0  0  0  0  0  0  0  0  0  0
   -8.6191  -22.4173  -18.0880 N   0  0  0  0  0  0  0  0  0  0  0  0
   -7.7142  -20.7016  -17.0253 O   0  0  0  0  0  0  0  0  0  0  0  0
   -8.4274  -23.2581  -18.5630 H   0  0  0  0  0  0  0  0  0  0  0  0
   -9.9536  -21.8224  -18.1901 C   0  0  0  0  0  0  0  0  0  0  0  0
  -10.9031  -22.2573  -17.0709 C   0  0  0  0  0  0  0  0  0  0  0  0
  -11.1357  -21.6620  -14.5466 O   0  0  0  0  0  0  0  0  0  0  0  0
  -11.3339  -21.1473  -15.9050 S   0  0  0  0  0  0  0  0  0  0  0  0
  -12.7210  -20.7436  -16.1345 O   0  0  0  0  0  0  0  0  0  0  0  0
  -10.5663  -19.9044  -15.9989 O   0  0  0  0  0  0  0  0  0  0  0  0
   -9.6258  -20.0937  -15.8560 H   0  0  0  0  0  0  0  0  0  0  0  0
  1  2  1  0  0  0
  2  3  1  0  0  0
  3  4  1  0  0  0
  5  3  1  0  0  0
  6  5  1  0  0  0
  7  6  1  0  0  0
  8  7  1  0  0  0
  8  9  1  0  0  0
 10  8  1  0  0  0
 10 11  1  0  0  0
 11 12  1  0  0  0
 12  1  1  0  0  0
 12  6  1  0  0  0
 13 11  1  0  0  0
 14 13  1  0  0  0
 14 15  1  0  0  0
 16 14  1  0  0  0
 16 17  1  0  0  0
 17 10  1  0  0  0
 18 17  1  0  0  0
 19 18  1  0  0  0
 19 20  1  0  0  0
 20 16  1  0  0  0
 21 16  1  0  0  0
 22 12  1  0  0  0
 36 37  2  0  0  0
 26 20  1  0  0  0
 27 26  1  0  0  0
 28 26  1  0  0  0
 29 28  1  0  0  0
 29 30  1  0  0  0
 30 32  2  0  0  0
 31 30  1  0  0  0
 31 34  1  0  0  0
 34 35  1  0  0  0
 35 37  1  0  0  0
 37 39  1  0  0  0
 38 37  2  0  0  0
  4 23  1  0  0  0
  9 24  1  0  0  0
 15 25  1  0  0  0
 31 33  1  0  0  0
 39 40  1  0  0  0
M  END
> <minimizedAffinity>
-10.07807

$$$$
3QQA_TCH_A_211


 40 43  0  0  0  0  0  0  0  0999 V2000
   -7.6687  -21.5219  -16.7081 C   0  0  0  0  0  0  0  0  0  0  0  0
   -6.3766  -22.1208  -17.2534 C   0  0  0  0  0  0  0  0  0  0  0  0
   -6.5788  -22.9069  -18.5309 C   0  0  0  0  0  0  0  0  0  0  0  0
   -6.4085  -22.0693  -19.7098 O   0  0  0  0  0  0  0  0  0  0  0  0
   -7.8168  -23.7754  -18.3483 C   0  0  0  0  0  0  0  0  0  0  0  0
   -7.9017  -23.7841  -16.8345 C   0  0  0  0  0  0  0  0  0  0  0  0
   -8.3813  -24.8913  -15.9253 C   0  0  0  0  0  0  0  0  0  0  0  0
   -7.5139  -24.6957  -14.7256 C   0  0  0  0  0  0  0  0  0  0  0  0
   -6.7178  -23.5162  -14.8809 O   0  0  0  0  0  0  0  0  0  0  0  0
   -8.6161  -24.0785  -14.0293 C   0  0  0  0  0  0  0  0  0  0  0  0
   -8.9456  -22.8115  -14.8448 C   0  0  0  0  0  0  0  0  0  0  0  0
   -8.6549  -22.6153  -16.3608 C   0  0  0  0  0  0  0  0  0  0  0  0
  -10.1474  -22.0928  -14.2391 C   0  0  0  0  0  0  0  0  0  0  0  0
  -10.2575  -22.3010  -12.7154 C   0  0  0  0  0  0  0  0  0  0  0  0
  -10.8933  -21.1532  -12.1126 O   0  0  0  0  0  0  0  0  0  0  0  0
   -9.1646  -23.0812  -11.9218 C   0  0  0  0  0  0  0  0  0  0  0  0
   -8.0259  -23.6102  -12.7624 C   0  0  0  0  0  0  0  0  0  0  0  0
   -7.1634  -24.4159  -11.8566 C   0  0  0  0  0  0  0  0  0  0  0  0
   -7.2138  -23.4826  -10.6316 C   0  0  0  0  0  0  0  0  0  0  0  0
   -8.2385  -22.3921  -10.9331 C   0  0  0  0  0  0  0  0  0  0  0  0
   -9.8063  -24.2316  -11.1750 C   0  0  0  0  0  0  0  0  0  0  0  0
   -9.8856  -22.4371  -17.2498 C   0  0  0  0  0  0  0  0  0  0  0  0
   -7.0483  -21.3407  -19.6839 H   0  0  0  0  0  0  0  0  0  0  0  0
   -7.2812  -22.7817  -15.1705 H   0  0  0  0  0  0  0  0  0  0  0  0
  -10.3200  -20.3770  -12.2114 H   0  0  0  0  0  0  0  0  0  0  0  0
   -8.9031  -21.8363   -9.7020 C   0  0  0  0  0  0  0  0  0  0  0  0
   -8.3594  -22.5437   -8.4951 C   0  0  0  0  0  0  0  0  0  0  0  0
   -8.8262  -20.3304   -9.5716 C   0  0  0  0  0  0  0  0  0  0  0  0
   -8.0609  -19.6315  -10.6786 C   0  0  0  0  0  0  0  0  0  0  0  0
   -8.6833  -18.2968  -10.9134 C   0  0  0  0  0  0  0  0  0  0  0  0
  -10.0067  -18.1811  -10.9523 N   0  0  0  0  0  0  0  0  0  0  0  0
   -7.9544  -17.3616  -11.0413 O   0  0  0  0  0  0  0  0  0  0  0  0
  -10.5574  -18.9829  -11.1044 H   0  0  0  0  0  0  0  0  0  0  0  0
  -10.6612  -16.8831  -10.7732 C   0  0  0  0  0  0  0  0  0  0  0  0
  -11.9401  -16.7250  -11.5994 C   0  0  0  0  0  0  0  0  0  0  0  0
  -12.8690  -19.0723  -10.9607 O   0  0  0  0  0  0  0  0  0  0  0  0
  -12.7826  -18.0915  -12.0469 S   0  0  0  0  0  0  0  0  0  0  0  0
  -12.1537  -18.6579  -13.2398 O   0  0  0  0  0  0  0  0  0  0  0  0
  -14.1567  -17.7974  -12.4570 O   0  0  0  0  0  0  0  0  0  0  0  0
  -14.6422  -17.4144  -11.7096 H   0  0  0  0  0  0  0  0  0  0  0  0
  1  2  1  0  0  0
  2  3  1  0  0  0
  3  4  1  0  0  0
  5  3  1  0  0  0
  6  5  1  0  0  0
  7  6  1  0  0  0
  8  7  1  0  0  0
  8  9  1  0  0  0
 10  8  1  0  0  0
 10 11  1  0  0  0
 11 12  1  0  0  0
 12  1  1  0  0  0
 12  6  1  0  0  0
 13 11  1  0  0  0
 14 13  1  0  0  0
 14 15  1  0  0  0
 16 14  1  0  0  0
 16 17  1  0  0  0
 17 10  1  0  0  0
 18 17  1  0  0  0
 19 18  1  0  0  0
 19 20  1  0  0  0
 20 16  1  0  0  0
 21 16  1  0  0  0
 22 12  1  0  0  0
 36 37  2  0  0  0
 26 20  1  0  0  0
 27 26  1  0  0  0
 28 26  1  0  0  0
 29 28  1  0  0  0
 29 30  1  0  0  0
 30 32  2  0  0  0
 31 30  1  0  0  0
 31 34  1  0  0  0
 34 35  1  0  0  0
 35 37  1  0  0  0
 37 39  1  0  0  0
 38 37  2  0  0  0
  4 23  1  0  0  0
  9 24  1  0  0  0
 15 25  1  0  0  0
 31 33  1  0  0  0
 39 40  1  0  0  0
M  END
> <minimizedAffinity>
-10.03148

$$$$
3QQA_TCH_A_211


 40 43  0  0  0  0  0  0  0  0999 V2000
   -8.6919  -22.1824  -12.2305 C   0  0  0  0  0  0  0  0  0  0  0  0
   -7.3153  -21.9885  -12.8573 C   0  0  0  0  0  0  0  0  0  0  0  0
   -6.3040  -23.0176  -12.4002 C   0  0  0  0  0  0  0  0  0  0  0  0
   -6.2800  -24.1760  -13.2821 O   0  0  0  0  0  0  0  0  0  0  0  0
   -6.4519  -23.1730  -10.8921 C   0  0  0  0  0  0  0  0  0  0  0  0
   -7.1637  -21.8737  -10.5700 C   0  0  0  0  0  0  0  0  0  0  0  0
   -7.0476  -21.0197   -9.3291 C   0  0  0  0  0  0  0  0  0  0  0  0
   -7.2405  -19.6477   -9.8861 C   0  0  0  0  0  0  0  0  0  0  0  0
   -7.5679  -19.7229  -11.2776 O   0  0  0  0  0  0  0  0  0  0  0  0
   -8.5925  -19.6338   -9.3836 C   0  0  0  0  0  0  0  0  0  0  0  0
   -9.3086  -20.7782  -10.1297 C   0  0  0  0  0  0  0  0  0  0  0  0
   -8.6152  -22.0368  -10.7266 C   0  0  0  0  0  0  0  0  0  0  0  0
  -10.7470  -20.9087   -9.6382 C   0  0  0  0  0  0  0  0  0  0  0  0
  -11.3360  -19.5655   -9.1627 C   0  0  0  0  0  0  0  0  0  0  0  0
  -12.7652  -19.5612   -9.3685 O   0  0  0  0  0  0  0  0  0  0  0  0
  -10.5345  -18.2343   -9.2987 C   0  0  0  0  0  0  0  0  0  0  0  0
   -9.1608  -18.3801   -9.9109 C   0  0  0  0  0  0  0  0  0  0  0  0
   -8.5178  -17.0401   -9.8440 C   0  0  0  0  0  0  0  0  0  0  0  0
   -9.7490  -16.1959  -10.2256 C   0  0  0  0  0  0  0  0  0  0  0  0
  -10.9507  -17.1363  -10.2638 C   0  0  0  0  0  0  0  0  0  0  0  0
  -10.4050  -17.5808   -7.9389 C   0  0  0  0  0  0  0  0  0  0  0  0
   -9.0243  -23.3716  -10.1043 C   0  0  0  0  0  0  0  0  0  0  0  0
   -7.1591  -24.5856  -13.3018 H   0  0  0  0  0  0  0  0  0  0  0  0
   -8.2692  -20.3799  -11.4097 H   0  0  0  0  0  0  0  0  0  0  0  0
  -12.9550  -19.5872  -10.3194 H   0  0  0  0  0  0  0  0  0  0  0  0
  -12.2556  -16.4557   -9.9469 C   0  0  0  0  0  0  0  0  0  0  0  0
  -11.9950  -14.9997   -9.6931 C   0  0  0  0  0  0  0  0  0  0  0  0
  -13.3452  -16.6765  -10.9739 C   0  0  0  0  0  0  0  0  0  0  0  0
  -12.8656  -16.7388  -12.4112 C   0  0  0  0  0  0  0  0  0  0  0  0
  -13.0386  -18.1345  -12.9069 C   0  0  0  0  0  0  0  0  0  0  0  0
  -12.0114  -18.9775  -12.8835 N   0  0  0  0  0  0  0  0  0  0  0  0
  -14.1200  -18.4530  -13.2961 O   0  0  0  0  0  0  0  0  0  0  0  0
  -11.0964  -18.6220  -12.8087 H   0  0  0  0  0  0  0  0  0  0  0  0
  -12.2152  -20.4256  -12.9668 C   0  0  0  0  0  0  0  0  0  0  0  0
  -11.6798  -21.0440  -14.2607 C   0  0  0  0  0  0  0  0  0  0  0  0
  -12.0814  -21.5757  -16.7780 O   0  0  0  0  0  0  0  0  0  0  0  0
  -12.3905  -20.6224  -15.7079 S   0  0  0  0  0  0  0  0  0  0  0  0
  -11.9732  -19.2641  -16.0548 O   0  0  0  0  0  0  0  0  0  0  0  0
  -13.8499  -20.5500  -15.6192 O   0  0  0  0  0  0  0  0  0  0  0  0
  -14.2036  -21.4236  -15.3898 H   0  0  0  0  0  0  0  0  0  0  0  0
  1  2  1  0  0  0
  2  3  1  0  0  0
  3  4  1  0  0  0
  5  3  1  0  0  0
  6  5  1  0  0  0
  7  6  1  0  0  0
  8  7  1  0  0  0
  8  9  1  0  0  0
 10  8  1  0  0  0
 10 11  1  0  0  0
 11 12  1  0  0  0
 12  1  1  0  0  0
 12  6  1  0  0  0
 13 11  1  0  0  0
 14 13  1  0  0  0
 14 15  1  0  0  0
 16 14  1  0  0  0
 16 17  1  0  0  0
 17 10  1  0  0  0
 18 17  1  0  0  0
 19 18  1  0  0  0
 19 20  1  0  0  0
 20 16  1  0  0  0
 21 16  1  0  0  0
 22 12  1  0  0  0
 36 37  2  0  0  0
 26 20  1  0  0  0
 27 26  1  0  0  0
 28 26  1  0  0  0
 29 28  1  0  0  0
 29 30  1  0  0  0
 30 32  2  0  0  0
 31 30  1  0  0  0
 31 34  1  0  0  0
 34 35  1  0  0  0
 35 37  1  0  0  0
 37 39  1  0  0  0
 38 37  2  0  0  0
  4 23  1  0  0  0
  9 24  1  0  0  0
 15 25  1  0  0  0
 31 33  1  0  0  0
 39 40  1  0  0  0
M  END
> <minimizedAffinity>
-9.98651

$$$$
3QQA_TCH_A_211


 40 43  0  0  0  0  0  0  0  0999 V2000
   -9.4457  -23.6843  -14.0092 C   0  0  0  0  0  0  0  0  0  0  0  0
   -8.5987  -23.5706  -15.2722 C   0  0  0  0  0  0  0  0  0  0  0  0
   -7.8495  -24.8437  -15.6019 C   0  0  0  0  0  0  0  0  0  0  0  0
   -8.6213  -25.7085  -16.4832 O   0  0  0  0  0  0  0  0  0  0  0  0
   -7.2418  -25.3706  -14.3083 C   0  0  0  0  0  0  0  0  0  0  0  0
   -7.2708  -24.1027  -13.4774 C   0  0  0  0  0  0  0  0  0  0  0  0
   -6.2912  -23.6472  -12.4213 C   0  0  0  0  0  0  0  0  0  0  0  0
   -6.3305  -22.1641  -12.5908 C   0  0  0  0  0  0  0  0  0  0  0  0
   -7.3297  -21.8046  -13.5507 O   0  0  0  0  0  0  0  0  0  0  0  0
   -7.1604  -22.0518  -11.4165 C   0  0  0  0  0  0  0  0  0  0  0  0
   -8.4559  -22.8116  -11.7678 C   0  0  0  0  0  0  0  0  0  0  0  0
   -8.5706  -23.9638  -12.8072 C   0  0  0  0  0  0  0  0  0  0  0  0
   -9.4036  -22.8181  -10.5721 C   0  0  0  0  0  0  0  0  0  0  0  0
   -9.2421  -21.5712   -9.6798 C   0  0  0  0  0  0  0  0  0  0  0  0
  -10.5000  -21.2643   -9.0408 O   0  0  0  0  0  0  0  0  0  0  0  0
   -8.2747  -20.4122  -10.0722 C   0  0  0  0  0  0  0  0  0  0  0  0
   -7.5222  -20.6238  -11.3652 C   0  0  0  0  0  0  0  0  0  0  0  0
   -6.5764  -19.4834  -11.5016 C   0  0  0  0  0  0  0  0  0  0  0  0
   -7.5185  -18.3677  -11.0101 C   0  0  0  0  0  0  0  0  0  0  0  0
   -8.7837  -19.0404  -10.4838 C   0  0  0  0  0  0  0  0  0  0  0  0
   -7.2821  -20.1808   -8.9524 C   0  0  0  0  0  0  0  0  0  0  0  0
   -8.9730  -25.3250  -12.2399 C   0  0  0  0  0  0  0  0  0  0  0  0
   -9.4610  -25.9391  -16.0559 H   0  0  0  0  0  0  0  0  0  0  0  0
   -8.1560  -22.2702  -13.3471 H   0  0  0  0  0  0  0  0  0  0  0  0
  -11.1481  -21.0005   -9.7127 H   0  0  0  0  0  0  0  0  0  0  0  0
   -9.4754  -18.2546   -9.4020 C   0  0  0  0  0  0  0  0  0  0  0  0
   -8.6627  -17.0307   -9.0952 C   0  0  0  0  0  0  0  0  0  0  0  0
  -10.9245  -17.9274   -9.6916 C   0  0  0  0  0  0  0  0  0  0  0  0
  -11.2077  -17.4849  -11.1141 C   0  0  0  0  0  0  0  0  0  0  0  0
  -12.5628  -17.9736  -11.5000 C   0  0  0  0  0  0  0  0  0  0  0  0
  -12.9314  -17.9635  -12.7768 N   0  0  0  0  0  0  0  0  0  0  0  0
  -13.2716  -18.3809  -10.6317 O   0  0  0  0  0  0  0  0  0  0  0  0
  -12.4443  -17.3945  -13.4157 H   0  0  0  0  0  0  0  0  0  0  0  0
  -14.0488  -18.7831  -13.2513 C   0  0  0  0  0  0  0  0  0  0  0  0
  -13.6071  -20.0604  -13.9700 C   0  0  0  0  0  0  0  0  0  0  0  0
  -12.6019  -21.0688  -16.1502 O   0  0  0  0  0  0  0  0  0  0  0  0
  -12.5071  -19.9426  -15.2163 S   0  0  0  0  0  0  0  0  0  0  0  0
  -11.1657  -19.8236  -14.6454 O   0  0  0  0  0  0  0  0  0  0  0  0
  -12.6816  -18.7244  -16.0089 O   0  0  0  0  0  0  0  0  0  0  0  0
  -13.5585  -18.7312  -16.4234 H   0  0  0  0  0  0  0  0  0  0  0  0
  1  2  1  0  0  0
  2  3  1  0  0  0
  3  4  1  0  0  0
  5  3  1  0  0  0
  6  5  1  0  0  0
  7  6  1  0  0  0
  8  7  1  0  0  0
  8  9  1  0  0  0
 10  8  1  0  0  0
 10 11  1  0  0  0
 11 12  1  0  0  0
 12  1  1  0  0  0
 12  6  1  0  0  0
 13 11  1  0  0  0
 14 13  1  0  0  0
 14 15  1  0  0  0
 16 14  1  0  0  0
 16 17  1  0  0  0
 17 10  1  0  0  0
 18 17  1  0  0  0
 19 18  1  0  0  0
 19 20  1  0  0  0
 20 16  1  0  0  0
 21 16  1  0  0  0
 22 12  1  0  0  0
 36 37  2  0  0  0
 26 20  1  0  0  0
 27 26  1  0  0  0
 28 26  1  0  0  0
 29 28  1  0  0  0
 29 30  1  0  0  0
 30 32  2  0  0  0
 31 30  1  0  0  0
 31 34  1  0  0  0
 34 35  1  0  0  0
 35 37  1  0  0  0
 37 39  1  0  0  0
 38 37  2  0  0  0
  4 23  1  0  0  0
  9 24  1  0  0  0
 15 25  1  0  0  0
 31 33  1  0  0  0
 39 40  1  0  0  0
M  END
> <minimizedAffinity>
-9.72067

$$$$
3QQA_TCH_A_211


 40 43  0  0  0  0  0  0  0  0999 V2000
  -11.2668  -16.2032  -11.4843 C   0  0  0  0  0  0  0  0  0  0  0  0
  -12.7401  -16.0418  -11.1254 C   0  0  0  0  0  0  0  0  0  0  0  0
  -12.9836  -14.9739  -10.0808 C   0  0  0  0  0  0  0  0  0  0  0  0
  -13.2345  -13.6748  -10.6889 O   0  0  0  0  0  0  0  0  0  0  0  0
  -11.9363  -15.1483   -8.9885 C   0  0  0  0  0  0  0  0  0  0  0  0
  -11.5272  -16.5839   -9.2538 C   0  0  0  0  0  0  0  0  0  0  0  0
  -11.0938  -17.6375   -8.2616 C   0  0  0  0  0  0  0  0  0  0  0  0
  -11.6214  -18.8838   -8.8928 C   0  0  0  0  0  0  0  0  0  0  0  0
  -12.1782  -18.5870  -10.1777 O   0  0  0  0  0  0  0  0  0  0  0  0
  -10.2929  -19.2172   -9.3449 C   0  0  0  0  0  0  0  0  0  0  0  0
   -9.9009  -18.0791  -10.3093 C   0  0  0  0  0  0  0  0  0  0  0  0
  -10.4694  -16.6311  -10.2720 C   0  0  0  0  0  0  0  0  0  0  0  0
   -8.4766  -18.2850  -10.8159 C   0  0  0  0  0  0  0  0  0  0  0  0
   -8.0813  -19.7735  -10.8875 C   0  0  0  0  0  0  0  0  0  0  0  0
   -7.1118  -19.9691  -11.9395 O   0  0  0  0  0  0  0  0  0  0  0  0
   -9.1092  -20.9024  -10.5679 C   0  0  0  0  0  0  0  0  0  0  0  0
  -10.4862  -20.4161  -10.1805 C   0  0  0  0  0  0  0  0  0  0  0  0
  -11.2747  -21.6197   -9.8021 C   0  0  0  0  0  0  0  0  0  0  0  0
  -10.7718  -22.5597  -10.9146 C   0  0  0  0  0  0  0  0  0  0  0  0
   -9.6394  -21.8388  -11.6413 C   0  0  0  0  0  0  0  0  0  0  0  0
   -8.5651  -21.7839   -9.4634 C   0  0  0  0  0  0  0  0  0  0  0  0
   -9.4519  -15.5318   -9.9674 C   0  0  0  0  0  0  0  0  0  0  0  0
  -12.4712  -13.4180  -11.2295 H   0  0  0  0  0  0  0  0  0  0  0  0
  -11.5554  -18.0399  -10.6814 H   0  0  0  0  0  0  0  0  0  0  0  0
   -7.5246  -19.7853  -12.7978 H   0  0  0  0  0  0  0  0  0  0  0  0
   -8.6246  -22.7719  -12.2461 C   0  0  0  0  0  0  0  0  0  0  0  0
   -8.9488  -24.1773  -11.8310 C   0  0  0  0  0  0  0  0  0  0  0  0
   -8.4603  -22.6361  -13.7445 C   0  0  0  0  0  0  0  0  0  0  0  0
   -9.5776  -23.2470  -14.5678 C   0  0  0  0  0  0  0  0  0  0  0  0
   -9.2597  -23.0548  -16.0121 C   0  0  0  0  0  0  0  0  0  0  0  0
   -7.9973  -23.1058  -16.4246 N   0  0  0  0  0  0  0  0  0  0  0  0
  -10.1714  -22.8776  -16.7601 O   0  0  0  0  0  0  0  0  0  0  0  0
   -7.2704  -22.9916  -15.7705 H   0  0  0  0  0  0  0  0  0  0  0  0
   -7.6673  -23.3288  -17.8341 C   0  0  0  0  0  0  0  0  0  0  0  0
   -6.6725  -22.3104  -18.3966 C   0  0  0  0  0  0  0  0  0  0  0  0
   -7.6564  -20.0668  -17.5143 O   0  0  0  0  0  0  0  0  0  0  0  0
   -6.4372  -20.8786  -17.5771 S   0  0  0  0  0  0  0  0  0  0  0  0
   -5.3356  -20.1539  -18.2102 O   0  0  0  0  0  0  0  0  0  0  0  0
   -5.9991  -21.0852  -16.1958 O   0  0  0  0  0  0  0  0  0  0  0  0
   -6.6858  -21.5654  -15.7072 H   0  0  0  0  0  0  0  0  0  0  0  0
  1  2  1  0  0  0
  2  3  1  0  0  0
  3  4  1  0  0  0
  5  3  1  0  0  0
  6  5  1  0  0  0
  7  6  1  0  0  0
  8  7  1  0  0  0
  8  9  1  0  0  0
 10  8  1  0  0  0
 10 11  1  0  0  0
 11 12  1  0  0  0
 12  1  1  0  0  0
 12  6  1  0  0  0
 13 11  1  0  0  0
 14 13  1  0  0  0
 14 15  1  0  0  0
 16 14  1  0  0  0
 16 17  1  0  0  0
 17 10  1  0  0  0
 18 17  1  0  0  0
 19 18  1  0  0  0
 19 20  1  0  0  0
 20 16  1  0  0  0
 21 16  1  0  0  0
 22 12  1  0  0  0
 36 37  2  0  0  0
 26 20  1  0  0  0
 27 26  1  0  0  0
 28 26  1  0  0  0
 29 28  1  0  0  0
 29 30  1  0  0  0
 30 32  2  0  0  0
 31 30  1  0  0  0
 31 34  1  0  0  0
 34 35  1  0  0  0
 35 37  1  0  0  0
 37 39  1  0  0  0
 38 37  2  0  0  0
  4 23  1  0  0  0
  9 24  1  0  0  0
 15 25  1  0  0  0
 31 33  1  0  0  0
 39 40  1  0  0  0
M  END
> <minimizedAffinity>
-9.18375

$$$$
3QQA_TCH_A_211


 40 43  0  0  0  0  0  0  0  0999 V2000
  -13.5962  -20.7620  -14.6804 C   0  0  0  0  0  0  0  0  0  0  0  0
  -15.0473  -20.4934  -14.2964 C   0  0  0  0  0  0  0  0  0  0  0  0
  -15.6720  -19.3640  -15.0872 C   0  0  0  0  0  0  0  0  0  0  0  0
  -16.3297  -19.8511  -16.2915 O   0  0  0  0  0  0  0  0  0  0  0  0
  -14.6629  -18.2243  -15.1414 C   0  0  0  0  0  0  0  0  0  0  0  0
  -13.7823  -18.6066  -13.9679 C   0  0  0  0  0  0  0  0  0  0  0  0
  -13.0487  -17.7002  -13.0074 C   0  0  0  0  0  0  0  0  0  0  0  0
  -13.1014  -18.4922  -11.7426 C   0  0  0  0  0  0  0  0  0  0  0  0
  -13.6848  -19.7758  -11.9896 O   0  0  0  0  0  0  0  0  0  0  0  0
  -11.7250  -18.8813  -11.9287 C   0  0  0  0  0  0  0  0  0  0  0  0
  -11.7124  -19.6931  -13.2402 C   0  0  0  0  0  0  0  0  0  0  0  0
  -12.7397  -19.5469  -14.3998 C   0  0  0  0  0  0  0  0  0  0  0  0
  -10.2875  -20.1162  -13.5842 C   0  0  0  0  0  0  0  0  0  0  0  0
   -9.4082  -20.3127  -12.3331 C   0  0  0  0  0  0  0  0  0  0  0  0
   -8.3971  -21.3081  -12.6010 O   0  0  0  0  0  0  0  0  0  0  0  0
  -10.0012  -20.1848  -10.8961 C   0  0  0  0  0  0  0  0  0  0  0  0
  -11.4731  -19.8475  -10.8445 C   0  0  0  0  0  0  0  0  0  0  0  0
  -11.8176  -19.6520   -9.4104 C   0  0  0  0  0  0  0  0  0  0  0  0
  -10.9904  -20.8171   -8.8338 C   0  0  0  0  0  0  0  0  0  0  0  0
  -10.1477  -21.3838   -9.9735 C   0  0  0  0  0  0  0  0  0  0  0  0
   -9.2255  -19.1413  -10.1200 C   0  0  0  0  0  0  0  0  0  0  0  0
  -12.1662  -19.0594  -15.7302 C   0  0  0  0  0  0  0  0  0  0  0  0
  -15.6822  -20.3071  -16.8517 H   0  0  0  0  0  0  0  0  0  0  0  0
  -13.2692  -20.1751  -12.7699 H   0  0  0  0  0  0  0  0  0  0  0  0
   -8.8203  -22.1700  -12.7388 H   0  0  0  0  0  0  0  0  0  0  0  0
   -8.8577  -22.0082   -9.5129 C   0  0  0  0  0  0  0  0  0  0  0  0
   -8.8986  -22.1633   -8.0207 C   0  0  0  0  0  0  0  0  0  0  0  0
   -8.4971  -23.2983  -10.2175 C   0  0  0  0  0  0  0  0  0  0  0  0
   -9.6030  -23.8925  -11.0681 C   0  0  0  0  0  0  0  0  0  0  0  0
   -9.0955  -24.0476  -12.4618 C   0  0  0  0  0  0  0  0  0  0  0  0
   -7.8337  -24.4092  -12.6705 N   0  0  0  0  0  0  0  0  0  0  0  0
   -9.8628  -23.8555  -13.3543 O   0  0  0  0  0  0  0  0  0  0  0  0
   -7.1753  -24.3050  -11.9460 H   0  0  0  0  0  0  0  0  0  0  0  0
   -7.4045  -24.9598  -13.9581 C   0  0  0  0  0  0  0  0  0  0  0  0
   -6.2739  -24.1644  -14.6157 C   0  0  0  0  0  0  0  0  0  0  0  0
   -6.2001  -22.6200  -16.7110 O   0  0  0  0  0  0  0  0  0  0  0  0
   -6.6253  -22.6906  -15.3096 S   0  0  0  0  0  0  0  0  0  0  0  0
   -6.0109  -21.6364  -14.5031 O   0  0  0  0  0  0  0  0  0  0  0  0
   -8.0568  -22.3853  -15.2897 O   0  0  0  0  0  0  0  0  0  0  0  0
   -8.5363  -23.0490  -15.8099 H   0  0  0  0  0  0  0  0  0  0  0  0
  1  2  1  0  0  0
  2  3  1  0  0  0
  3  4  1  0  0  0
  5  3  1  0  0  0
  6  5  1  0  0  0
  7  6  1  0  0  0
  8  7  1  0  0  0
  8  9  1  0  0  0
 10  8  1  0  0  0
 10 11  1  0  0  0
 11 12  1  0  0  0
 12  1  1  0  0  0
 12  6  1  0  0  0
 13 11  1  0  0  0
 14 13  1  0  0  0
 14 15  1  0  0  0
 16 14  1  0  0  0
 16 17  1  0  0  0
 17 10  1  0  0  0
 18 17  1  0  0  0
 19 18  1  0  0  0
 19 20  1  0  0  0
 20 16  1  0  0  0
 21 16  1  0  0  0
 22 12  1  0  0  0
 36 37  2  0  0  0
 26 20  1  0  0  0
 27 26  1  0  0  0
 28 26  1  0  0  0
 29 28  1  0  0  0
 29 30  1  0  0  0
 30 32  2  0  0  0
 31 30  1  0  0  0
 31 34  1  0  0  0
 34 35  1  0  0  0
 35 37  1  0  0  0
 37 39  1  0  0  0
 38 37  2  0  0  0
  4 23  1  0  0  0
  9 24  1  0  0  0
 15 25  1  0  0  0
 31 33  1  0  0  0
 39 40  1  0  0  0
M  END
> <minimizedAffinity>
-9.17667

$$$$
3QQA_TCH_A_211


 40 43  0  0  0  0  0  0  0  0999 V2000
   -9.7500  -20.3947  -11.4817 C   0  0  0  0  0  0  0  0  0  0  0  0
  -10.9728  -20.9104  -10.7305 C   0  0  0  0  0  0  0  0  0  0  0  0
  -10.7966  -20.8955   -9.2272 C   0  0  0  0  0  0  0  0  0  0  0  0
  -11.2612  -19.6447   -8.6441 O   0  0  0  0  0  0  0  0  0  0  0  0
   -9.4104  -21.4466   -8.9188 C   0  0  0  0  0  0  0  0  0  0  0  0
   -9.1348  -22.1844  -10.2143 C   0  0  0  0  0  0  0  0  0  0  0  0
   -8.3542  -23.4611  -10.4224 C   0  0  0  0  0  0  0  0  0  0  0  0
   -9.0840  -24.0792  -11.5692 C   0  0  0  0  0  0  0  0  0  0  0  0
  -10.0910  -23.1837  -12.0520 O   0  0  0  0  0  0  0  0  0  0  0  0
   -8.0307  -23.6643  -12.4631 C   0  0  0  0  0  0  0  0  0  0  0  0
   -8.0384  -22.1231  -12.4027 C   0  0  0  0  0  0  0  0  0  0  0  0
   -8.5486  -21.2713  -11.2046 C   0  0  0  0  0  0  0  0  0  0  0  0
   -6.9175  -21.5562  -13.2687 C   0  0  0  0  0  0  0  0  0  0  0  0
   -6.5803  -22.4613  -14.4705 C   0  0  0  0  0  0  0  0  0  0  0  0
   -6.0887  -21.6555  -15.5631 O   0  0  0  0  0  0  0  0  0  0  0  0
   -7.4073  -23.7485  -14.7742 C   0  0  0  0  0  0  0  0  0  0  0  0
   -8.5301  -24.0258  -13.8020 C   0  0  0  0  0  0  0  0  0  0  0  0
   -9.1134  -25.3398  -14.1851 C   0  0  0  0  0  0  0  0  0  0  0  0
   -9.0761  -25.1498  -15.7137 C   0  0  0  0  0  0  0  0  0  0  0  0
   -8.3090  -23.8599  -15.9926 C   0  0  0  0  0  0  0  0  0  0  0  0
   -6.4813  -24.9459  -14.8177 C   0  0  0  0  0  0  0  0  0  0  0  0
   -7.4918  -20.4134  -10.5091 C   0  0  0  0  0  0  0  0  0  0  0  0
  -10.7637  -18.9051   -9.0267 H   0  0  0  0  0  0  0  0  0  0  0  0
   -9.7090  -22.2997  -12.1677 H   0  0  0  0  0  0  0  0  0  0  0  0
   -6.7992  -21.0786  -15.8846 H   0  0  0  0  0  0  0  0  0  0  0  0
   -7.6042  -23.8566  -17.3228 C   0  0  0  0  0  0  0  0  0  0  0  0
   -7.8600  -25.1654  -18.0114 C   0  0  0  0  0  0  0  0  0  0  0  0
   -7.9279  -22.6686  -18.2028 C   0  0  0  0  0  0  0  0  0  0  0  0
   -9.3971  -22.2975  -18.2603 C   0  0  0  0  0  0  0  0  0  0  0  0
   -9.6250  -21.1298  -17.3611 C   0  0  0  0  0  0  0  0  0  0  0  0
  -10.8542  -20.8463  -16.9427 N   0  0  0  0  0  0  0  0  0  0  0  0
   -8.6727  -20.4929  -17.0298 O   0  0  0  0  0  0  0  0  0  0  0  0
  -11.6269  -21.2153  -17.4285 H   0  0  0  0  0  0  0  0  0  0  0  0
  -11.0808  -19.9953  -15.7723 C   0  0  0  0  0  0  0  0  0  0  0  0
  -12.2849  -19.0617  -15.9203 C   0  0  0  0  0  0  0  0  0  0  0  0
  -13.6134  -19.0860  -13.6809 O   0  0  0  0  0  0  0  0  0  0  0  0
  -13.6913  -19.4275  -15.1045 S   0  0  0  0  0  0  0  0  0  0  0  0
  -13.9930  -20.8444  -15.3063 O   0  0  0  0  0  0  0  0  0  0  0  0
  -14.8549  -18.7209  -15.6424 O   0  0  0  0  0  0  0  0  0  0  0  0
  -14.7269  -17.7645  -15.5430 H   0  0  0  0  0  0  0  0  0  0  0  0
  1  2  1  0  0  0
  2  3  1  0  0  0
  3  4  1  0  0  0
  5  3  1  0  0  0
  6  5  1  0  0  0
  7  6  1  0  0  0
  8  7  1  0  0  0
  8  9  1  0  0  0
 10  8  1  0  0  0
 10 11  1  0  0  0
 11 12  1  0  0  0
 12  1  1  0  0  0
 12  6  1  0  0  0
 13 11  1  0  0  0
 14 13  1  0  0  0
 14 15  1  0  0  0
 16 14  1  0  0  0
 16 17  1  0  0  0
 17 10  1  0  0  0
 18 17  1  0  0  0
 19 18  1  0  0  0
 19 20  1  0  0  0
 20 16  1  0  0  0
 21 16  1  0  0  0
 22 12  1  0  0  0
 36 37  2  0  0  0
 26 20  1  0  0  0
 27 26  1  0  0  0
 28 26  1  0  0  0
 29 28  1  0  0  0
 29 30  1  0  0  0
 30 32  2  0  0  0
 31 30  1  0  0  0
 31 34  1  0  0  0
 34 35  1  0  0  0
 35 37  1  0  0  0
 37 39  1  0  0  0
 38 37  2  0  0  0
  4 23  1  0  0  0
  9 24  1  0  0  0
 15 25  1  0  0  0
 31 33  1  0  0  0
 39 40  1  0  0  0
M  END
> <minimizedAffinity>
-9.09349

$$$$
