1BMA_0QH_A_256


 40 41  0  0  0  0  0  0  0  0999 V2000
   37.8606   19.8881   35.0141 N   0  0  0  0  0  0  0  0  0  0  0  0
   38.5066   18.7805   34.2138 C   0  0  0  0  0  0  0  0  0  0  0  0
   38.9497   20.7693   37.1678 C   0  0  0  0  0  0  0  0  0  0  0  0
   38.0267   21.4381   37.6140 O   0  0  0  0  0  0  0  0  0  0  0  0
   39.0134   19.9978   36.0652 N   0  0  0  0  0  0  0  0  0  0  0  0
   39.8324   19.4732   35.9124 H   0  0  0  0  0  0  0  0  0  0  0  0
   40.3512   20.7471   37.7615 C   0  0  0  0  0  0  0  0  0  0  0  0
   41.1587   23.0705   37.6972 C   0  0  0  0  0  0  0  0  0  0  0  0
   41.6827   22.9422   36.5843 O   0  0  0  0  0  0  0  0  0  0  0  0
   40.7499   21.9843   38.3824 N   0  0  0  0  0  0  0  0  0  0  0  0
   40.7222   22.0397   39.3649 H   0  0  0  0  0  0  0  0  0  0  0  0
   40.9455   24.4917   38.3367 C   0  0  0  0  0  0  0  0  0  0  0  0
   40.6271   24.5110   39.6189 F   0  0  0  0  0  0  0  0  0  0  0  0
   41.9913   25.2777   38.2751 F   0  0  0  0  0  0  0  0  0  0  0  0
   39.9922   25.1561   37.7271 F   0  0  0  0  0  0  0  0  0  0  0  0
   40.5056   19.6686   38.8091 C   0  0  0  0  0  0  0  0  0  0  0  0
   41.7773   18.8565   38.8085 C   0  0  0  0  0  0  0  0  0  0  0  0
   41.5963   17.4912   39.4798 C   0  0  0  0  0  0  0  0  0  0  0  0
   42.1873   18.7082   37.3599 C   0  0  0  0  0  0  0  0  0  0  0  0
   37.8486   21.2153   34.3022 C   0  0  0  0  0  0  0  0  0  0  0  0
   36.6746   21.5329   33.3708 C   0  0  0  0  0  0  0  0  0  0  0  0
   35.7906   22.5521   33.7185 C   0  0  0  0  0  0  0  0  0  0  0  0
   34.7742   22.8837   32.8428 C   0  0  0  0  0  0  0  0  0  0  0  0
   34.6006   22.2275   31.6217 C   0  0  0  0  0  0  0  0  0  0  0  0
   35.4693   21.2058   31.2631 C   0  0  0  0  0  0  0  0  0  0  0  0
   36.5039   20.8618   32.1380 C   0  0  0  0  0  0  0  0  0  0  0  0
   36.5149   19.4718   35.5132 C   0  0  0  0  0  0  0  0  0  0  0  0
   36.4427   18.4160   36.6042 C   0  0  0  0  0  0  0  0  0  0  0  0
   36.7625   17.2247   36.4681 O   0  0  0  0  0  0  0  0  0  0  0  0
   36.0078   19.1204   37.6605 N   0  0  0  0  0  0  0  0  0  0  0  0
   35.9858   20.1026   37.5976 H   0  0  0  0  0  0  0  0  0  0  0  0
   35.6037   18.5407   38.7937 C   0  0  0  0  0  0  0  0  0  0  0  0
   36.4754   18.1854   39.8373 C   0  0  0  0  0  0  0  0  0  0  0  0
   35.9590   17.6013   41.0069 C   0  0  0  0  0  0  0  0  0  0  0  0
   34.5691   17.3688   41.1433 C   0  0  0  0  0  0  0  0  0  0  0  0
   33.7232   17.7351   40.0893 C   0  0  0  0  0  0  0  0  0  0  0  0
   34.2392   18.3047   38.9274 C   0  0  0  0  0  0  0  0  0  0  0  0
   33.9587   16.7392   42.4165 C   0  0  0  0  0  0  0  0  0  0  0  0
   34.5152   15.3487   42.7638 C   0  0  0  0  0  0  0  0  0  0  0  0
   32.4960   16.5900   42.1271 C   0  0  0  0  0  0  0  0  0  0  0  0
  8 12  1  0  0  0
  8  9  2  0  0  0
 12 13  1  0  0  0
 12 14  1  0  0  0
 12 15  1  0  0  0
 10  7  1  0  0  0
  7  3  1  0  0  0
  7 16  1  0  0  0
  3  4  2  0  0  0
 16 17  1  0  0  0
 17 18  1  0  0  0
 17 19  1  0  0  0
  1  5  1  0  0  0
  1 20  1  0  0  0
  1  2  1  0  0  0
  1 27  1  0  0  0
 20 21  1  0  0  0
 21 22  2  0  0  0
 21 26  1  0  0  0
 22 23  1  0  0  0
 23 24  2  0  0  0
 24 25  1  0  0  0
 25 26  2  0  0  0
 27 28  1  0  0  0
 28 29  2  0  0  0
 32 30  1  0  0  0
 32 33  2  0  0  0
 32 37  1  0  0  0
 33 34  1  0  0  0
 34 35  2  0  0  0
 35 36  1  0  0  0
 35 38  1  0  0  0
 36 37  2  0  0  0
 38 39  1  0  0  0
 38 40  1  0  0  0
  8 10  1  0  0  0
  3  5  1  0  0  0
 28 30  1  0  0  0
 10 11  1  0  0  0
  5  6  1  0  0  0
 30 31  1  0  0  0
M  CHG 1   1   1
M  END
> <minimizedAffinity>
-7.89122

$$$$
1BMA_0QH_A_256


 40 41  0  0  0  0  0  0  0  0999 V2000
   39.3778   18.5634   38.3172 N   0  0  0  0  0  0  0  0  0  0  0  0
   39.8258   18.6072   39.7601 C   0  0  0  0  0  0  0  0  0  0  0  0
   39.8722   21.0072   37.6972 C   0  0  0  0  0  0  0  0  0  0  0  0
   38.7892   21.5152   37.9566 O   0  0  0  0  0  0  0  0  0  0  0  0
   40.2969   19.7372   37.8451 N   0  0  0  0  0  0  0  0  0  0  0  0
   41.2397   19.5368   37.6445 H   0  0  0  0  0  0  0  0  0  0  0  0
   41.0164   21.7419   37.0131 C   0  0  0  0  0  0  0  0  0  0  0  0
   40.9476   24.0729   37.7978 C   0  0  0  0  0  0  0  0  0  0  0  0
   40.2513   24.4557   36.8502 O   0  0  0  0  0  0  0  0  0  0  0  0
   41.5327   22.8594   37.7613 N   0  0  0  0  0  0  0  0  0  0  0  0
   42.3616   22.7290   38.2762 H   0  0  0  0  0  0  0  0  0  0  0  0
   41.1614   24.9770   39.0673 C   0  0  0  0  0  0  0  0  0  0  0  0
   40.1059   25.1501   39.8428 F   0  0  0  0  0  0  0  0  0  0  0  0
   42.0756   24.5404   39.8974 F   0  0  0  0  0  0  0  0  0  0  0  0
   41.5583   26.1835   38.7380 F   0  0  0  0  0  0  0  0  0  0  0  0
   42.1890   20.8299   36.7344 C   0  0  0  0  0  0  0  0  0  0  0  0
   42.7778   20.8364   35.3451 C   0  0  0  0  0  0  0  0  0  0  0  0
   44.1294   20.1175   35.2824 C   0  0  0  0  0  0  0  0  0  0  0  0
   41.7578   20.1715   34.4472 C   0  0  0  0  0  0  0  0  0  0  0  0
   39.8716   17.3516   37.5714 C   0  0  0  0  0  0  0  0  0  0  0  0
   41.0772   16.5910   38.1324 C   0  0  0  0  0  0  0  0  0  0  0  0
   40.8728   15.6352   39.1253 C   0  0  0  0  0  0  0  0  0  0  0  0
   41.9520   14.9009   39.5792 C   0  0  0  0  0  0  0  0  0  0  0  0
   43.2428   15.0881   39.0786 C   0  0  0  0  0  0  0  0  0  0  0  0
   43.4642   16.0406   38.0933 C   0  0  0  0  0  0  0  0  0  0  0  0
   42.3811   16.7888   37.6226 C   0  0  0  0  0  0  0  0  0  0  0  0
   37.9007   18.7631   38.2099 C   0  0  0  0  0  0  0  0  0  0  0  0
   36.9864   17.8333   38.9908 C   0  0  0  0  0  0  0  0  0  0  0  0
   37.1305   16.6045   39.0872 O   0  0  0  0  0  0  0  0  0  0  0  0
   36.0926   18.6831   39.5200 N   0  0  0  0  0  0  0  0  0  0  0  0
   36.2679   19.6502   39.4629 H   0  0  0  0  0  0  0  0  0  0  0  0
   34.9747   18.2679   40.1211 C   0  0  0  0  0  0  0  0  0  0  0  0
   33.7048   18.3227   39.5214 C   0  0  0  0  0  0  0  0  0  0  0  0
   32.5843   17.8394   40.2190 C   0  0  0  0  0  0  0  0  0  0  0  0
   32.7237   17.2971   41.5194 C   0  0  0  0  0  0  0  0  0  0  0  0
   34.0008   17.2520   42.0917 C   0  0  0  0  0  0  0  0  0  0  0  0
   35.1079   17.7409   41.4018 C   0  0  0  0  0  0  0  0  0  0  0  0
   31.5199   16.7449   42.3167 C   0  0  0  0  0  0  0  0  0  0  0  0
   31.6607   15.2726   42.7364 C   0  0  0  0  0  0  0  0  0  0  0  0
   30.3457   16.8491   41.3915 C   0  0  0  0  0  0  0  0  0  0  0  0
  8 12  1  0  0  0
  8  9  2  0  0  0
 12 13  1  0  0  0
 12 14  1  0  0  0
 12 15  1  0  0  0
 10  7  1  0  0  0
  7  3  1  0  0  0
  7 16  1  0  0  0
  3  4  2  0  0  0
 16 17  1  0  0  0
 17 18  1  0  0  0
 17 19  1  0  0  0
  1  5  1  0  0  0
  1 20  1  0  0  0
  1  2  1  0  0  0
  1 27  1  0  0  0
 20 21  1  0  0  0
 21 22  2  0  0  0
 21 26  1  0  0  0
 22 23  1  0  0  0
 23 24  2  0  0  0
 24 25  1  0  0  0
 25 26  2  0  0  0
 27 28  1  0  0  0
 28 29  2  0  0  0
 32 30  1  0  0  0
 32 33  2  0  0  0
 32 37  1  0  0  0
 33 34  1  0  0  0
 34 35  2  0  0  0
 35 36  1  0  0  0
 35 38  1  0  0  0
 36 37  2  0  0  0
 38 39  1  0  0  0
 38 40  1  0  0  0
  8 10  1  0  0  0
  3  5  1  0  0  0
 28 30  1  0  0  0
 10 11  1  0  0  0
  5  6  1  0  0  0
 30 31  1  0  0  0
M  CHG 1   1   1
M  END
> <minimizedAffinity>
-7.80863

$$$$
1BMA_0QH_A_256


 40 41  0  0  0  0  0  0  0  0999 V2000
   38.8638   18.6143   37.9458 N   0  0  0  0  0  0  0  0  0  0  0  0
   39.8719   17.6667   38.5543 C   0  0  0  0  0  0  0  0  0  0  0  0
   39.6803   21.0337   37.6614 C   0  0  0  0  0  0  0  0  0  0  0  0
   38.7189   21.6373   38.1194 O   0  0  0  0  0  0  0  0  0  0  0  0
   39.9106   19.7102   37.5599 N   0  0  0  0  0  0  0  0  0  0  0  0
   40.7879   19.4162   37.2236 H   0  0  0  0  0  0  0  0  0  0  0  0
   40.8600   21.7060   36.9734 C   0  0  0  0  0  0  0  0  0  0  0  0
   40.9105   24.0370   37.7596 C   0  0  0  0  0  0  0  0  0  0  0  0
   40.2263   24.4539   36.8175 O   0  0  0  0  0  0  0  0  0  0  0  0
   41.4357   22.7965   37.7180 N   0  0  0  0  0  0  0  0  0  0  0  0
   42.2612   22.6256   38.2264 H   0  0  0  0  0  0  0  0  0  0  0  0
   41.1778   24.9286   39.0277 C   0  0  0  0  0  0  0  0  0  0  0  0
   40.1386   25.1495   39.8132 F   0  0  0  0  0  0  0  0  0  0  0  0
   42.0784   24.4491   39.8489 F   0  0  0  0  0  0  0  0  0  0  0  0
   41.6271   26.1158   38.6957 F   0  0  0  0  0  0  0  0  0  0  0  0
   41.9826   20.7331   36.6943 C   0  0  0  0  0  0  0  0  0  0  0  0
   42.5814   20.7199   35.3095 C   0  0  0  0  0  0  0  0  0  0  0  0
   44.0300   21.2189   35.2969 C   0  0  0  0  0  0  0  0  0  0  0  0
   42.4862   19.2923   34.8179 C   0  0  0  0  0  0  0  0  0  0  0  0
   38.2988   18.1303   36.6361 C   0  0  0  0  0  0  0  0  0  0  0  0
   37.8888   19.1711   35.5895 C   0  0  0  0  0  0  0  0  0  0  0  0
   36.7005   19.8767   35.7654 C   0  0  0  0  0  0  0  0  0  0  0  0
   36.3683   20.8643   34.8575 C   0  0  0  0  0  0  0  0  0  0  0  0
   37.1827   21.1759   33.7659 C   0  0  0  0  0  0  0  0  0  0  0  0
   38.3671   20.4780   33.5732 C   0  0  0  0  0  0  0  0  0  0  0  0
   38.7172   19.4783   34.4856 C   0  0  0  0  0  0  0  0  0  0  0  0
   37.8139   18.9889   38.9410 C   0  0  0  0  0  0  0  0  0  0  0  0
   36.7359   17.9702   39.2735 C   0  0  0  0  0  0  0  0  0  0  0  0
   36.7283   16.7884   38.8947 O   0  0  0  0  0  0  0  0  0  0  0  0
   35.9053   18.6733   40.0588 N   0  0  0  0  0  0  0  0  0  0  0  0
   36.1954   19.5561   40.3838 H   0  0  0  0  0  0  0  0  0  0  0  0
   34.7005   18.2219   40.4166 C   0  0  0  0  0  0  0  0  0  0  0  0
   34.4668   17.4747   41.5839 C   0  0  0  0  0  0  0  0  0  0  0  0
   33.1601   17.0613   41.8957 C   0  0  0  0  0  0  0  0  0  0  0  0
   32.0774   17.3917   41.0452 C   0  0  0  0  0  0  0  0  0  0  0  0
   32.3382   18.1394   39.8904 C   0  0  0  0  0  0  0  0  0  0  0  0
   33.6359   18.5391   39.5790 C   0  0  0  0  0  0  0  0  0  0  0  0
   30.6241   16.9665   41.3563 C   0  0  0  0  0  0  0  0  0  0  0  0
   30.2390   15.5823   40.8095 C   0  0  0  0  0  0  0  0  0  0  0  0
   29.7562   17.9852   40.6819 C   0  0  0  0  0  0  0  0  0  0  0  0
  8 12  1  0  0  0
  8  9  2  0  0  0
 12 13  1  0  0  0
 12 14  1  0  0  0
 12 15  1  0  0  0
 10  7  1  0  0  0
  7  3  1  0  0  0
  7 16  1  0  0  0
  3  4  2  0  0  0
 16 17  1  0  0  0
 17 18  1  0  0  0
 17 19  1  0  0  0
  1  5  1  0  0  0
  1 20  1  0  0  0
  1  2  1  0  0  0
  1 27  1  0  0  0
 20 21  1  0  0  0
 21 22  2  0  0  0
 21 26  1  0  0  0
 22 23  1  0  0  0
 23 24  2  0  0  0
 24 25  1  0  0  0
 25 26  2  0  0  0
 27 28  1  0  0  0
 28 29  2  0  0  0
 32 30  1  0  0  0
 32 33  2  0  0  0
 32 37  1  0  0  0
 33 34  1  0  0  0
 34 35  2  0  0  0
 35 36  1  0  0  0
 35 38  1  0  0  0
 36 37  2  0  0  0
 38 39  1  0  0  0
 38 40  1  0  0  0
  8 10  1  0  0  0
  3  5  1  0  0  0
 28 30  1  0  0  0
 10 11  1  0  0  0
  5  6  1  0  0  0
 30 31  1  0  0  0
M  CHG 1   1   1
M  END
> <minimizedAffinity>
-7.47908

$$$$
1BMA_0QH_A_256


 40 41  0  0  0  0  0  0  0  0999 V2000
   39.3773   18.0701   38.0016 N   0  0  0  0  0  0  0  0  0  0  0  0
   38.9903   18.5977   39.3641 C   0  0  0  0  0  0  0  0  0  0  0  0
   39.8380   20.5804   37.7063 C   0  0  0  0  0  0  0  0  0  0  0  0
   38.7971   21.0415   38.1561 O   0  0  0  0  0  0  0  0  0  0  0  0
   40.2573   19.3034   37.6140 N   0  0  0  0  0  0  0  0  0  0  0  0
   41.1697   19.1372   37.2837 H   0  0  0  0  0  0  0  0  0  0  0  0
   40.9122   21.4121   37.0198 C   0  0  0  0  0  0  0  0  0  0  0  0
   40.9460   23.7820   37.6806 C   0  0  0  0  0  0  0  0  0  0  0  0
   40.4813   24.1721   36.6030 O   0  0  0  0  0  0  0  0  0  0  0  0
   41.3963   22.5179   37.8060 N   0  0  0  0  0  0  0  0  0  0  0  0
   42.0972   22.3398   38.4740 H   0  0  0  0  0  0  0  0  0  0  0  0
   41.0155   24.7362   38.9293 C   0  0  0  0  0  0  0  0  0  0  0  0
   39.9071   24.8464   39.6399 F   0  0  0  0  0  0  0  0  0  0  0  0
   41.9122   24.3981   39.8221 F   0  0  0  0  0  0  0  0  0  0  0  0
   41.3348   25.9607   38.5826 F   0  0  0  0  0  0  0  0  0  0  0  0
   42.1208   20.5829   36.6503 C   0  0  0  0  0  0  0  0  0  0  0  0
   42.8124   20.8812   35.3429 C   0  0  0  0  0  0  0  0  0  0  0  0
   44.2932   20.4883   35.3650 C   0  0  0  0  0  0  0  0  0  0  0  0
   42.0559   20.1190   34.2773 C   0  0  0  0  0  0  0  0  0  0  0  0
   40.3321   16.9065   38.0570 C   0  0  0  0  0  0  0  0  0  0  0  0
   41.5451   16.9131   37.1215 C   0  0  0  0  0  0  0  0  0  0  0  0
   42.8072   17.1737   37.6508 C   0  0  0  0  0  0  0  0  0  0  0  0
   43.9082   17.1094   36.8179 C   0  0  0  0  0  0  0  0  0  0  0  0
   43.7974   16.7959   35.4610 C   0  0  0  0  0  0  0  0  0  0  0  0
   42.5463   16.5394   34.9169 C   0  0  0  0  0  0  0  0  0  0  0  0
   41.4240   16.5980   35.7484 C   0  0  0  0  0  0  0  0  0  0  0  0
   38.1660   17.8028   37.1682 C   0  0  0  0  0  0  0  0  0  0  0  0
   38.0974   18.4094   35.7762 C   0  0  0  0  0  0  0  0  0  0  0  0
   38.9600   18.2739   34.8944 O   0  0  0  0  0  0  0  0  0  0  0  0
   36.9113   19.0370   35.7919 N   0  0  0  0  0  0  0  0  0  0  0  0
   36.2959   18.8669   36.5413 H   0  0  0  0  0  0  0  0  0  0  0  0
   36.5334   19.8834   34.8306 C   0  0  0  0  0  0  0  0  0  0  0  0
   35.9144   19.4752   33.6366 C   0  0  0  0  0  0  0  0  0  0  0  0
   35.5265   20.4384   32.6892 C   0  0  0  0  0  0  0  0  0  0  0  0
   35.7528   21.8156   32.9274 C   0  0  0  0  0  0  0  0  0  0  0  0
   36.3686   22.1944   34.1265 C   0  0  0  0  0  0  0  0  0  0  0  0
   36.7609   21.2367   35.0590 C   0  0  0  0  0  0  0  0  0  0  0  0
   35.3322   22.9078   31.9175 C   0  0  0  0  0  0  0  0  0  0  0  0
   34.9408   24.2479   32.5613 C   0  0  0  0  0  0  0  0  0  0  0  0
   34.1237   22.3627   31.2190 C   0  0  0  0  0  0  0  0  0  0  0  0
  8 12  1  0  0  0
  8  9  2  0  0  0
 12 13  1  0  0  0
 12 14  1  0  0  0
 12 15  1  0  0  0
 10  7  1  0  0  0
  7  3  1  0  0  0
  7 16  1  0  0  0
  3  4  2  0  0  0
 16 17  1  0  0  0
 17 18  1  0  0  0
 17 19  1  0  0  0
  1  5  1  0  0  0
  1 20  1  0  0  0
  1  2  1  0  0  0
  1 27  1  0  0  0
 20 21  1  0  0  0
 21 22  2  0  0  0
 21 26  1  0  0  0
 22 23  1  0  0  0
 23 24  2  0  0  0
 24 25  1  0  0  0
 25 26  2  0  0  0
 27 28  1  0  0  0
 28 29  2  0  0  0
 32 30  1  0  0  0
 32 33  2  0  0  0
 32 37  1  0  0  0
 33 34  1  0  0  0
 34 35  2  0  0  0
 35 36  1  0  0  0
 35 38  1  0  0  0
 36 37  2  0  0  0
 38 39  1  0  0  0
 38 40  1  0  0  0
  8 10  1  0  0  0
  3  5  1  0  0  0
 28 30  1  0  0  0
 10 11  1  0  0  0
  5  6  1  0  0  0
 30 31  1  0  0  0
M  CHG 1   1   1
M  END
> <minimizedAffinity>
-7.08609

$$$$
1BMA_0QH_A_256


 40 41  0  0  0  0  0  0  0  0999 V2000
   39.1209   18.4758   37.9221 N   0  0  0  0  0  0  0  0  0  0  0  0
   39.2676   18.6652   39.4144 C   0  0  0  0  0  0  0  0  0  0  0  0
   39.7550   20.9399   37.5656 C   0  0  0  0  0  0  0  0  0  0  0  0
   38.7287   21.4816   37.9549 O   0  0  0  0  0  0  0  0  0  0  0  0
   40.0941   19.6364   37.5329 N   0  0  0  0  0  0  0  0  0  0  0  0
   41.0065   19.4012   37.2478 H   0  0  0  0  0  0  0  0  0  0  0  0
   40.9081   21.6771   36.8994 C   0  0  0  0  0  0  0  0  0  0  0  0
   40.8386   24.0065   37.6892 C   0  0  0  0  0  0  0  0  0  0  0  0
   40.1624   24.3960   36.7298 O   0  0  0  0  0  0  0  0  0  0  0  0
   41.4170   22.7895   37.6603 N   0  0  0  0  0  0  0  0  0  0  0  0
   42.2353   22.6527   38.1902 H   0  0  0  0  0  0  0  0  0  0  0  0
   41.0340   24.9058   38.9650 C   0  0  0  0  0  0  0  0  0  0  0  0
   41.4764   26.1320   38.7503 F   0  0  0  0  0  0  0  0  0  0  0  0
   39.9447   25.0980   39.6663 F   0  0  0  0  0  0  0  0  0  0  0  0
   41.8833   24.3675   39.8081 F   0  0  0  0  0  0  0  0  0  0  0  0
   42.0827   20.7652   36.6289 C   0  0  0  0  0  0  0  0  0  0  0  0
   42.6333   20.7157   35.2250 C   0  0  0  0  0  0  0  0  0  0  0  0
   43.6335   21.8437   34.9519 C   0  0  0  0  0  0  0  0  0  0  0  0
   43.2793   19.3566   35.0686 C   0  0  0  0  0  0  0  0  0  0  0  0
   39.7778   17.2216   37.4082 C   0  0  0  0  0  0  0  0  0  0  0  0
   40.7412   16.4713   38.3332 C   0  0  0  0  0  0  0  0  0  0  0  0
   40.2871   15.3430   39.0128 C   0  0  0  0  0  0  0  0  0  0  0  0
   41.1772   14.6274   39.7909 C   0  0  0  0  0  0  0  0  0  0  0  0
   42.5171   15.0004   39.9226 C   0  0  0  0  0  0  0  0  0  0  0  0
   42.9839   16.1255   39.2567 C   0  0  0  0  0  0  0  0  0  0  0  0
   42.0952   16.8572   38.4636 C   0  0  0  0  0  0  0  0  0  0  0  0
   37.6923   18.6095   37.5043 C   0  0  0  0  0  0  0  0  0  0  0  0
   37.3807   18.7334   36.0217 C   0  0  0  0  0  0  0  0  0  0  0  0
   37.7598   17.9430   35.1434 O   0  0  0  0  0  0  0  0  0  0  0  0
   36.6113   19.8321   35.9784 N   0  0  0  0  0  0  0  0  0  0  0  0
   36.2806   20.2119   36.8243 H   0  0  0  0  0  0  0  0  0  0  0  0
   36.2767   20.4303   34.8322 C   0  0  0  0  0  0  0  0  0  0  0  0
   36.4006   21.8131   34.6135 C   0  0  0  0  0  0  0  0  0  0  0  0
   36.0477   22.3546   33.3654 C   0  0  0  0  0  0  0  0  0  0  0  0
   35.5698   21.5197   32.3266 C   0  0  0  0  0  0  0  0  0  0  0  0
   35.4590   20.1454   32.5708 C   0  0  0  0  0  0  0  0  0  0  0  0
   35.8002   19.6131   33.8121 C   0  0  0  0  0  0  0  0  0  0  0  0
   35.1811   22.0725   30.9362 C   0  0  0  0  0  0  0  0  0  0  0  0
   33.7772   22.6958   30.8730 C   0  0  0  0  0  0  0  0  0  0  0  0
   35.2013   20.8901   30.0157 C   0  0  0  0  0  0  0  0  0  0  0  0
  8 12  1  0  0  0
  8  9  2  0  0  0
 12 13  1  0  0  0
 12 14  1  0  0  0
 12 15  1  0  0  0
 10  7  1  0  0  0
  7  3  1  0  0  0
  7 16  1  0  0  0
  3  4  2  0  0  0
 16 17  1  0  0  0
 17 18  1  0  0  0
 17 19  1  0  0  0
  1  5  1  0  0  0
  1 20  1  0  0  0
  1  2  1  0  0  0
  1 27  1  0  0  0
 20 21  1  0  0  0
 21 22  2  0  0  0
 21 26  1  0  0  0
 22 23  1  0  0  0
 23 24  2  0  0  0
 24 25  1  0  0  0
 25 26  2  0  0  0
 27 28  1  0  0  0
 28 29  2  0  0  0
 32 30  1  0  0  0
 32 33  2  0  0  0
 32 37  1  0  0  0
 33 34  1  0  0  0
 34 35  2  0  0  0
 35 36  1  0  0  0
 35 38  1  0  0  0
 36 37  2  0  0  0
 38 39  1  0  0  0
 38 40  1  0  0  0
  8 10  1  0  0  0
  3  5  1  0  0  0
 28 30  1  0  0  0
 10 11  1  0  0  0
  5  6  1  0  0  0
 30 31  1  0  0  0
M  CHG 1   1   1
M  END
> <minimizedAffinity>
-6.91357

$$$$
1BMA_0QH_A_256


 40 41  0  0  0  0  0  0  0  0999 V2000
   39.4553   19.4106   37.5917 N   0  0  0  0  0  0  0  0  0  0  0  0
   39.2825   20.9121   37.6097 C   0  0  0  0  0  0  0  0  0  0  0  0
   41.1367   19.5854   35.6568 C   0  0  0  0  0  0  0  0  0  0  0  0
   40.3693   19.8006   34.7277 O   0  0  0  0  0  0  0  0  0  0  0  0
   40.8915   19.4381   36.9733 N   0  0  0  0  0  0  0  0  0  0  0  0
   41.6603   19.3422   37.5808 H   0  0  0  0  0  0  0  0  0  0  0  0
   42.6270   19.3253   35.4888 C   0  0  0  0  0  0  0  0  0  0  0  0
   44.3865   20.8849   34.7636 C   0  0  0  0  0  0  0  0  0  0  0  0
   44.9343   20.0524   34.0313 O   0  0  0  0  0  0  0  0  0  0  0  0
   43.4534   20.4937   35.6538 N   0  0  0  0  0  0  0  0  0  0  0  0
   43.3292   21.0383   36.4645 H   0  0  0  0  0  0  0  0  0  0  0  0
   44.7502   22.4127   34.6724 C   0  0  0  0  0  0  0  0  0  0  0  0
   45.8415   22.7903   35.3145 F   0  0  0  0  0  0  0  0  0  0  0  0
   44.9510   22.8517   33.4550 F   0  0  0  0  0  0  0  0  0  0  0  0
   43.7854   23.1664   35.1442 F   0  0  0  0  0  0  0  0  0  0  0  0
   43.1362   18.2940   36.4695 C   0  0  0  0  0  0  0  0  0  0  0  0
   43.6236   16.9751   35.9222 C   0  0  0  0  0  0  0  0  0  0  0  0
   44.6671   16.3177   36.8313 C   0  0  0  0  0  0  0  0  0  0  0  0
   42.3993   16.1001   35.7662 C   0  0  0  0  0  0  0  0  0  0  0  0
   39.6275   18.8093   38.9618 C   0  0  0  0  0  0  0  0  0  0  0  0
   40.4879   17.5497   39.1027 C   0  0  0  0  0  0  0  0  0  0  0  0
   41.7578   17.6565   39.6658 C   0  0  0  0  0  0  0  0  0  0  0  0
   42.5036   16.5087   39.8565 C   0  0  0  0  0  0  0  0  0  0  0  0
   42.0282   15.2445   39.4993 C   0  0  0  0  0  0  0  0  0  0  0  0
   40.7673   15.1218   38.9316 C   0  0  0  0  0  0  0  0  0  0  0  0
   40.0006   16.2742   38.7356 C   0  0  0  0  0  0  0  0  0  0  0  0
   38.3759   18.7581   36.7902 C   0  0  0  0  0  0  0  0  0  0  0  0
   36.9387   18.8949   37.2656 C   0  0  0  0  0  0  0  0  0  0  0  0
   36.1524   19.7890   36.9159 O   0  0  0  0  0  0  0  0  0  0  0  0
   36.7960   17.8281   38.0673 N   0  0  0  0  0  0  0  0  0  0  0  0
   37.4981   17.1379   38.0658 H   0  0  0  0  0  0  0  0  0  0  0  0
   35.7388   17.6664   38.8669 C   0  0  0  0  0  0  0  0  0  0  0  0
   34.5271   17.0928   38.4449 C   0  0  0  0  0  0  0  0  0  0  0  0
   33.4735   16.9382   39.3623 C   0  0  0  0  0  0  0  0  0  0  0  0
   33.6223   17.3540   40.7075 C   0  0  0  0  0  0  0  0  0  0  0  0
   34.8411   17.9197   41.1016 C   0  0  0  0  0  0  0  0  0  0  0  0
   35.8799   18.0806   40.1875 C   0  0  0  0  0  0  0  0  0  0  0  0
   32.4933   17.1924   41.7510 C   0  0  0  0  0  0  0  0  0  0  0  0
   32.5027   15.8441   42.4896 C   0  0  0  0  0  0  0  0  0  0  0  0
   31.2149   17.2824   40.9744 C   0  0  0  0  0  0  0  0  0  0  0  0
  8 12  1  0  0  0
  8  9  2  0  0  0
 12 13  1  0  0  0
 12 14  1  0  0  0
 12 15  1  0  0  0
 10  7  1  0  0  0
  7  3  1  0  0  0
  7 16  1  0  0  0
  3  4  2  0  0  0
 16 17  1  0  0  0
 17 18  1  0  0  0
 17 19  1  0  0  0
  1  5  1  0  0  0
  1 20  1  0  0  0
  1  2  1  0  0  0
  1 27  1  0  0  0
 20 21  1  0  0  0
 21 22  2  0  0  0
 21 26  1  0  0  0
 22 23  1  0  0  0
 23 24  2  0  0  0
 24 25  1  0  0  0
 25 26  2  0  0  0
 27 28  1  0  0  0
 28 29  2  0  0  0
 32 30  1  0  0  0
 32 33  2  0  0  0
 32 37  1  0  0  0
 33 34  1  0  0  0
 34 35  2  0  0  0
 35 36  1  0  0  0
 35 38  1  0  0  0
 36 37  2  0  0  0
 38 39  1  0  0  0
 38 40  1  0  0  0
  8 10  1  0  0  0
  3  5  1  0  0  0
 28 30  1  0  0  0
 10 11  1  0  0  0
  5  6  1  0  0  0
 30 31  1  0  0  0
M  CHG 1   1   1
M  END
> <minimizedAffinity>
-6.89760

$$$$
1BMA_0QH_A_256


 40 41  0  0  0  0  0  0  0  0999 V2000
   39.3214   18.5370   34.6500 N   0  0  0  0  0  0  0  0  0  0  0  0
   40.5742   17.6942   34.5813 C   0  0  0  0  0  0  0  0  0  0  0  0
   40.7778   20.0783   36.1006 C   0  0  0  0  0  0  0  0  0  0  0  0
   41.5736   20.4728   35.2583 O   0  0  0  0  0  0  0  0  0  0  0  0
   39.7103   19.2657   35.9780 N   0  0  0  0  0  0  0  0  0  0  0  0
   39.1426   19.1224   36.7695 H   0  0  0  0  0  0  0  0  0  0  0  0
   40.8974   20.3711   37.5895 C   0  0  0  0  0  0  0  0  0  0  0  0
   41.3043   18.5700   39.2158 C   0  0  0  0  0  0  0  0  0  0  0  0
   40.2671   18.7985   39.8493 O   0  0  0  0  0  0  0  0  0  0  0  0
   41.7509   19.4575   38.3051 N   0  0  0  0  0  0  0  0  0  0  0  0
   42.7171   19.4828   38.1178 H   0  0  0  0  0  0  0  0  0  0  0  0
   42.1212   17.2450   39.4433 C   0  0  0  0  0  0  0  0  0  0  0  0
   43.0439   16.9679   38.5393 F   0  0  0  0  0  0  0  0  0  0  0  0
   42.7842   17.2025   40.5720 F   0  0  0  0  0  0  0  0  0  0  0  0
   41.3354   16.1948   39.4779 F   0  0  0  0  0  0  0  0  0  0  0  0
   41.4339   21.7595   37.8526 C   0  0  0  0  0  0  0  0  0  0  0  0
   40.4428   22.8898   37.9820 C   0  0  0  0  0  0  0  0  0  0  0  0
   40.9568   24.0137   38.8877 C   0  0  0  0  0  0  0  0  0  0  0  0
   40.1810   23.3895   36.5783 C   0  0  0  0  0  0  0  0  0  0  0  0
   39.2689   19.6215   33.6061 C   0  0  0  0  0  0  0  0  0  0  0  0
   38.0323   20.5241   33.5534 C   0  0  0  0  0  0  0  0  0  0  0  0
   37.1442   20.3946   32.4878 C   0  0  0  0  0  0  0  0  0  0  0  0
   35.9936   21.1601   32.4792 C   0  0  0  0  0  0  0  0  0  0  0  0
   35.6932   22.0634   33.5018 C   0  0  0  0  0  0  0  0  0  0  0  0
   36.5707   22.2085   34.5676 C   0  0  0  0  0  0  0  0  0  0  0  0
   37.7371   21.4383   34.5909 C   0  0  0  0  0  0  0  0  0  0  0  0
   38.0994   17.6771   34.6721 C   0  0  0  0  0  0  0  0  0  0  0  0
   37.0803   17.8965   35.7782 C   0  0  0  0  0  0  0  0  0  0  0  0
   36.1442   18.7102   35.7362 O   0  0  0  0  0  0  0  0  0  0  0  0
   37.4536   16.9945   36.6991 N   0  0  0  0  0  0  0  0  0  0  0  0
   38.1240   16.3168   36.4531 H   0  0  0  0  0  0  0  0  0  0  0  0
   36.9511   16.9806   37.9363 C   0  0  0  0  0  0  0  0  0  0  0  0
   36.2168   15.9045   38.4636 C   0  0  0  0  0  0  0  0  0  0  0  0
   35.7464   15.9648   39.7868 C   0  0  0  0  0  0  0  0  0  0  0  0
   36.0065   17.0992   40.5931 C   0  0  0  0  0  0  0  0  0  0  0  0
   36.7429   18.1557   40.0433 C   0  0  0  0  0  0  0  0  0  0  0  0
   37.1992   18.0971   38.7284 C   0  0  0  0  0  0  0  0  0  0  0  0
   35.5172   17.2017   42.0559 C   0  0  0  0  0  0  0  0  0  0  0  0
   35.4804   15.8604   42.8062 C   0  0  0  0  0  0  0  0  0  0  0  0
   34.1138   17.7208   41.9728 C   0  0  0  0  0  0  0  0  0  0  0  0
  8 12  1  0  0  0
  8  9  2  0  0  0
 12 13  1  0  0  0
 12 14  1  0  0  0
 12 15  1  0  0  0
 10  7  1  0  0  0
  7  3  1  0  0  0
  7 16  1  0  0  0
  3  4  2  0  0  0
 16 17  1  0  0  0
 17 18  1  0  0  0
 17 19  1  0  0  0
  1  5  1  0  0  0
  1 20  1  0  0  0
  1  2  1  0  0  0
  1 27  1  0  0  0
 20 21  1  0  0  0
 21 22  2  0  0  0
 21 26  1  0  0  0
 22 23  1  0  0  0
 23 24  2  0  0  0
 24 25  1  0  0  0
 25 26  2  0  0  0
 27 28  1  0  0  0
 28 29  2  0  0  0
 32 30  1  0  0  0
 32 33  2  0  0  0
 32 37  1  0  0  0
 33 34  1  0  0  0
 34 35  2  0  0  0
 35 36  1  0  0  0
 35 38  1  0  0  0
 36 37  2  0  0  0
 38 39  1  0  0  0
 38 40  1  0  0  0
  8 10  1  0  0  0
  3  5  1  0  0  0
 28 30  1  0  0  0
 10 11  1  0  0  0
  5  6  1  0  0  0
 30 31  1  0  0  0
M  CHG 1   1   1
M  END
> <minimizedAffinity>
-6.75307

$$$$
1BMA_0QH_A_256


 40 41  0  0  0  0  0  0  0  0999 V2000
   37.9636   19.7150   35.3184 N   0  0  0  0  0  0  0  0  0  0  0  0
   37.9692   18.4592   34.4773 C   0  0  0  0  0  0  0  0  0  0  0  0
   39.9266   20.2770   36.8778 C   0  0  0  0  0  0  0  0  0  0  0  0
   39.4637   21.2493   37.4598 O   0  0  0  0  0  0  0  0  0  0  0  0
   39.3740   19.4727   35.9489 N   0  0  0  0  0  0  0  0  0  0  0  0
   39.8875   18.6877   35.6500 H   0  0  0  0  0  0  0  0  0  0  0  0
   41.3643   19.7994   37.0263 C   0  0  0  0  0  0  0  0  0  0  0  0
   43.3015   20.6266   35.7546 C   0  0  0  0  0  0  0  0  0  0  0  0
   43.6986   19.4914   35.4664 O   0  0  0  0  0  0  0  0  0  0  0  0
   42.3543   20.7933   36.6987 N   0  0  0  0  0  0  0  0  0  0  0  0
   42.3380   21.6442   37.1935 H   0  0  0  0  0  0  0  0  0  0  0  0
   43.8761   21.8980   35.0280 C   0  0  0  0  0  0  0  0  0  0  0  0
   45.1584   22.1496   35.2227 F   0  0  0  0  0  0  0  0  0  0  0  0
   43.7698   21.8724   33.7229 F   0  0  0  0  0  0  0  0  0  0  0  0
   43.2438   22.9882   35.3931 F   0  0  0  0  0  0  0  0  0  0  0  0
   41.6652   19.3373   38.4336 C   0  0  0  0  0  0  0  0  0  0  0  0
   41.0772   18.0248   38.8899 C   0  0  0  0  0  0  0  0  0  0  0  0
   42.1269   17.1053   39.5225 C   0  0  0  0  0  0  0  0  0  0  0  0
   39.9809   18.3686   39.8741 C   0  0  0  0  0  0  0  0  0  0  0  0
   38.1043   20.9791   34.5117 C   0  0  0  0  0  0  0  0  0  0  0  0
   36.9362   21.4082   33.6183 C   0  0  0  0  0  0  0  0  0  0  0  0
   36.1230   22.4631   34.0269 C   0  0  0  0  0  0  0  0  0  0  0  0
   35.1140   22.8941   33.1867 C   0  0  0  0  0  0  0  0  0  0  0  0
   34.8790   22.3040   31.9423 C   0  0  0  0  0  0  0  0  0  0  0  0
   35.6765   21.2479   31.5232 C   0  0  0  0  0  0  0  0  0  0  0  0
   36.7030   20.8034   32.3617 C   0  0  0  0  0  0  0  0  0  0  0  0
   36.7916   19.7320   36.2456 C   0  0  0  0  0  0  0  0  0  0  0  0
   36.7115   18.6697   37.3297 C   0  0  0  0  0  0  0  0  0  0  0  0
   37.4885   17.7092   37.4479 O   0  0  0  0  0  0  0  0  0  0  0  0
   35.6671   19.0834   38.0640 N   0  0  0  0  0  0  0  0  0  0  0  0
   35.2972   19.9804   37.8971 H   0  0  0  0  0  0  0  0  0  0  0  0
   35.1102   18.3257   39.0122 C   0  0  0  0  0  0  0  0  0  0  0  0
   34.0333   17.4540   38.7761 C   0  0  0  0  0  0  0  0  0  0  0  0
   33.5255   16.6740   39.8294 C   0  0  0  0  0  0  0  0  0  0  0  0
   34.0897   16.7579   41.1253 C   0  0  0  0  0  0  0  0  0  0  0  0
   35.1635   17.6324   41.3318 C   0  0  0  0  0  0  0  0  0  0  0  0
   35.6581   18.4114   40.2881 C   0  0  0  0  0  0  0  0  0  0  0  0
   33.5689   15.9103   42.3086 C   0  0  0  0  0  0  0  0  0  0  0  0
   33.6521   14.3916   42.0839 C   0  0  0  0  0  0  0  0  0  0  0  0
   32.1228   16.2748   42.4559 C   0  0  0  0  0  0  0  0  0  0  0  0
  8 12  1  0  0  0
  8  9  2  0  0  0
 12 13  1  0  0  0
 12 14  1  0  0  0
 12 15  1  0  0  0
 10  7  1  0  0  0
  7  3  1  0  0  0
  7 16  1  0  0  0
  3  4  2  0  0  0
 16 17  1  0  0  0
 17 18  1  0  0  0
 17 19  1  0  0  0
  1  5  1  0  0  0
  1 20  1  0  0  0
  1  2  1  0  0  0
  1 27  1  0  0  0
 20 21  1  0  0  0
 21 22  2  0  0  0
 21 26  1  0  0  0
 22 23  1  0  0  0
 23 24  2  0  0  0
 24 25  1  0  0  0
 25 26  2  0  0  0
 27 28  1  0  0  0
 28 29  2  0  0  0
 32 30  1  0  0  0
 32 33  2  0  0  0
 32 37  1  0  0  0
 33 34  1  0  0  0
 34 35  2  0  0  0
 35 36  1  0  0  0
 35 38  1  0  0  0
 36 37  2  0  0  0
 38 39  1  0  0  0
 38 40  1  0  0  0
  8 10  1  0  0  0
  3  5  1  0  0  0
 28 30  1  0  0  0
 10 11  1  0  0  0
  5  6  1  0  0  0
 30 31  1  0  0  0
M  CHG 1   1   1
M  END
> <minimizedAffinity>
-6.66140

$$$$
1BMA_0QH_A_256


 40 41  0  0  0  0  0  0  0  0999 V2000
   37.8957   18.7319   36.0534 N   0  0  0  0  0  0  0  0  0  0  0  0
   37.9424   17.2214   36.0794 C   0  0  0  0  0  0  0  0  0  0  0  0
   39.4382   18.8479   38.1048 C   0  0  0  0  0  0  0  0  0  0  0  0
   38.6450   18.5388   38.9844 O   0  0  0  0  0  0  0  0  0  0  0  0
   39.2710   18.9312   36.7706 N   0  0  0  0  0  0  0  0  0  0  0  0
   40.0597   19.1288   36.2154 H   0  0  0  0  0  0  0  0  0  0  0  0
   40.8575   19.3308   38.3680 C   0  0  0  0  0  0  0  0  0  0  0  0
   41.4114   21.6728   37.8559 C   0  0  0  0  0  0  0  0  0  0  0  0
   42.2141   21.3720   36.9645 O   0  0  0  0  0  0  0  0  0  0  0  0
   40.9541   20.7288   38.7020 N   0  0  0  0  0  0  0  0  0  0  0  0
   40.6692   21.0111   39.6011 H   0  0  0  0  0  0  0  0  0  0  0  0
   40.8962   23.1498   38.0218 C   0  0  0  0  0  0  0  0  0  0  0  0
   41.3380   23.8047   39.0809 F   0  0  0  0  0  0  0  0  0  0  0  0
   41.2006   23.9463   37.0277 F   0  0  0  0  0  0  0  0  0  0  0  0
   39.5872   23.1974   38.0990 F   0  0  0  0  0  0  0  0  0  0  0  0
   41.5143   18.5705   39.4973 C   0  0  0  0  0  0  0  0  0  0  0  0
   42.2604   17.3033   39.1592 C   0  0  0  0  0  0  0  0  0  0  0  0
   41.3954   16.0521   39.3426 C   0  0  0  0  0  0  0  0  0  0  0  0
   42.7207   17.4497   37.7255 C   0  0  0  0  0  0  0  0  0  0  0  0
   38.0807   19.3151   34.6771 C   0  0  0  0  0  0  0  0  0  0  0  0
   37.1220   18.8784   33.5649 C   0  0  0  0  0  0  0  0  0  0  0  0
   37.5609   17.9588   32.6148 C   0  0  0  0  0  0  0  0  0  0  0  0
   36.6723   17.5132   31.6547 C   0  0  0  0  0  0  0  0  0  0  0  0
   35.3489   17.9577   31.6023 C   0  0  0  0  0  0  0  0  0  0  0  0
   34.8976   18.8784   32.5381 C   0  0  0  0  0  0  0  0  0  0  0  0
   35.7849   19.3356   33.5169 C   0  0  0  0  0  0  0  0  0  0  0  0
   36.6772   19.2410   36.7531 C   0  0  0  0  0  0  0  0  0  0  0  0
   35.7635   18.2373   37.4372 C   0  0  0  0  0  0  0  0  0  0  0  0
   35.3152   17.2058   36.9127 O   0  0  0  0  0  0  0  0  0  0  0  0
   35.6439   18.7492   38.6720 N   0  0  0  0  0  0  0  0  0  0  0  0
   36.2347   19.4912   38.9358 H   0  0  0  0  0  0  0  0  0  0  0  0
   34.7547   18.2911   39.5567 C   0  0  0  0  0  0  0  0  0  0  0  0
   33.3681   18.2781   39.3277 C   0  0  0  0  0  0  0  0  0  0  0  0
   32.5060   17.7533   40.3060 C   0  0  0  0  0  0  0  0  0  0  0  0
   33.0220   17.2370   41.5192 C   0  0  0  0  0  0  0  0  0  0  0  0
   34.4075   17.2598   41.7200 C   0  0  0  0  0  0  0  0  0  0  0  0
   35.2585   17.7896   40.7526 C   0  0  0  0  0  0  0  0  0  0  0  0
   32.1104   16.6410   42.6164 C   0  0  0  0  0  0  0  0  0  0  0  0
   32.1808   15.1098   42.7345 C   0  0  0  0  0  0  0  0  0  0  0  0
   30.7131   17.0079   42.2183 C   0  0  0  0  0  0  0  0  0  0  0  0
  8 12  1  0  0  0
  8  9  2  0  0  0
 12 13  1  0  0  0
 12 14  1  0  0  0
 12 15  1  0  0  0
 10  7  1  0  0  0
  7  3  1  0  0  0
  7 16  1  0  0  0
  3  4  2  0  0  0
 16 17  1  0  0  0
 17 18  1  0  0  0
 17 19  1  0  0  0
  1  5  1  0  0  0
  1 20  1  0  0  0
  1  2  1  0  0  0
  1 27  1  0  0  0
 20 21  1  0  0  0
 21 22  2  0  0  0
 21 26  1  0  0  0
 22 23  1  0  0  0
 23 24  2  0  0  0
 24 25  1  0  0  0
 25 26  2  0  0  0
 27 28  1  0  0  0
 28 29  2  0  0  0
 32 30  1  0  0  0
 32 33  2  0  0  0
 32 37  1  0  0  0
 33 34  1  0  0  0
 34 35  2  0  0  0
 35 36  1  0  0  0
 35 38  1  0  0  0
 36 37  2  0  0  0
 38 39  1  0  0  0
 38 40  1  0  0  0
  8 10  1  0  0  0
  3  5  1  0  0  0
 28 30  1  0  0  0
 10 11  1  0  0  0
  5  6  1  0  0  0
 30 31  1  0  0  0
M  CHG 1   1   1
M  END
> <minimizedAffinity>
-6.65227

$$$$
1BMA_0QH_A_256


 40 41  0  0  0  0  0  0  0  0999 V2000
   38.0777   18.6105   37.1999 N   0  0  0  0  0  0  0  0  0  0  0  0
   38.5680   18.4967   35.7747 C   0  0  0  0  0  0  0  0  0  0  0  0
   38.3477   16.6518   38.8405 C   0  0  0  0  0  0  0  0  0  0  0  0
   37.9906   17.1936   39.8784 O   0  0  0  0  0  0  0  0  0  0  0  0
   38.3966   17.1277   37.5811 N   0  0  0  0  0  0  0  0  0  0  0  0
   38.6474   16.5067   36.8595 H   0  0  0  0  0  0  0  0  0  0  0  0
   38.9456   15.2537   38.7706 C   0  0  0  0  0  0  0  0  0  0  0  0
   41.3964   15.0680   38.6538 C   0  0  0  0  0  0  0  0  0  0  0  0
   41.3870   14.6070   37.5063 O   0  0  0  0  0  0  0  0  0  0  0  0
   40.2533   15.1396   39.3641 N   0  0  0  0  0  0  0  0  0  0  0  0
   40.3156   15.1123   40.3463 H   0  0  0  0  0  0  0  0  0  0  0  0
   42.7276   15.5897   39.3098 C   0  0  0  0  0  0  0  0  0  0  0  0
   43.6433   16.0536   38.4780 F   0  0  0  0  0  0  0  0  0  0  0  0
   42.5657   16.5747   40.1578 F   0  0  0  0  0  0  0  0  0  0  0  0
   43.3247   14.6483   40.0016 F   0  0  0  0  0  0  0  0  0  0  0  0
   38.0702   14.2284   39.4538 C   0  0  0  0  0  0  0  0  0  0  0  0
   37.7919   12.9361   38.7264 C   0  0  0  0  0  0  0  0  0  0  0  0
   38.2030   12.9982   37.2517 C   0  0  0  0  0  0  0  0  0  0  0  0
   38.5538   11.8584   39.4659 C   0  0  0  0  0  0  0  0  0  0  0  0
   38.9729   19.4446   38.0784 C   0  0  0  0  0  0  0  0  0  0  0  0
   39.8206   20.5405   37.4248 C   0  0  0  0  0  0  0  0  0  0  0  0
   39.2537   21.7937   37.2034 C   0  0  0  0  0  0  0  0  0  0  0  0
   40.0413   22.8010   36.6789 C   0  0  0  0  0  0  0  0  0  0  0  0
   41.3867   22.6031   36.3588 C   0  0  0  0  0  0  0  0  0  0  0  0
   41.9650   21.3585   36.5678 C   0  0  0  0  0  0  0  0  0  0  0  0
   41.1809   20.3311   37.1006 C   0  0  0  0  0  0  0  0  0  0  0  0
   36.6458   19.0362   37.2400 C   0  0  0  0  0  0  0  0  0  0  0  0
   35.6232   18.0801   37.8319 C   0  0  0  0  0  0  0  0  0  0  0  0
   35.2103   17.0462   37.2836 O   0  0  0  0  0  0  0  0  0  0  0  0
   35.3686   18.6325   39.0282 N   0  0  0  0  0  0  0  0  0  0  0  0
   35.9457   19.3652   39.3435 H   0  0  0  0  0  0  0  0  0  0  0  0
   34.3629   18.2269   39.8076 C   0  0  0  0  0  0  0  0  0  0  0  0
   33.0164   18.2367   39.4049 C   0  0  0  0  0  0  0  0  0  0  0  0
   32.0241   17.7673   40.2827 C   0  0  0  0  0  0  0  0  0  0  0  0
   32.3689   17.2839   41.5680 C   0  0  0  0  0  0  0  0  0  0  0  0
   33.7182   17.2828   41.9422 C   0  0  0  0  0  0  0  0  0  0  0  0
   34.6983   17.7579   41.0737 C   0  0  0  0  0  0  0  0  0  0  0  0
   31.3106   16.7487   42.5598 C   0  0  0  0  0  0  0  0  0  0  0  0
   31.1303   15.2222   42.5299 C   0  0  0  0  0  0  0  0  0  0  0  0
   30.0153   17.3731   42.1380 C   0  0  0  0  0  0  0  0  0  0  0  0
  8 12  1  0  0  0
  8  9  2  0  0  0
 12 13  1  0  0  0
 12 14  1  0  0  0
 12 15  1  0  0  0
 10  7  1  0  0  0
  7  3  1  0  0  0
  7 16  1  0  0  0
  3  4  2  0  0  0
 16 17  1  0  0  0
 17 18  1  0  0  0
 17 19  1  0  0  0
  1  5  1  0  0  0
  1 20  1  0  0  0
  1  2  1  0  0  0
  1 27  1  0  0  0
 20 21  1  0  0  0
 21 22  2  0  0  0
 21 26  1  0  0  0
 22 23  1  0  0  0
 23 24  2  0  0  0
 24 25  1  0  0  0
 25 26  2  0  0  0
 27 28  1  0  0  0
 28 29  2  0  0  0
 32 30  1  0  0  0
 32 33  2  0  0  0
 32 37  1  0  0  0
 33 34  1  0  0  0
 34 35  2  0  0  0
 35 36  1  0  0  0
 35 38  1  0  0  0
 36 37  2  0  0  0
 38 39  1  0  0  0
 38 40  1  0  0  0
  8 10  1  0  0  0
  3  5  1  0  0  0
 28 30  1  0  0  0
 10 11  1  0  0  0
  5  6  1  0  0  0
 30 31  1  0  0  0
M  CHG 1   1   1
M  END
> <minimizedAffinity>
-6.62085

$$$$
