3FHB_GAB_A_601


 13 13  0  0  0  0  0  0  0  0999 V2000
   16.4271   -8.3542   10.9510 C   0  0  0  0  0  0  0  0  0  0  0  0
   15.6026   -9.1124   10.1342 C   0  0  0  0  0  0  0  0  0  0  0  0
   15.9737  -10.4277    9.8551 C   0  0  0  0  0  0  0  0  0  0  0  0
   17.1246  -10.9867   10.3733 C   0  0  0  0  0  0  0  0  0  0  0  0
   17.9350  -10.2146   11.1904 C   0  0  0  0  0  0  0  0  0  0  0  0
   17.5857   -8.9017   11.4751 C   0  0  0  0  0  0  0  0  0  0  0  0
   15.2144  -11.1778    9.0766 N   0  0  0  0  0  0  0  0  0  0  0  0
   14.3872  -10.8079    8.6917 H   0  0  0  0  0  0  0  0  0  0  0  0
   15.4758  -12.1067    8.8814 H   0  0  0  0  0  0  0  0  0  0  0  0
   16.0635   -6.9201   11.2921 C   0  0  0  0  0  0  0  0  0  0  0  0
   15.0497   -6.7270   12.0201 O   0  0  0  0  0  0  0  0  0  0  0  0
   16.8135   -6.0275   10.8065 O   0  0  0  0  0  0  0  0  0  0  0  0
   17.5463   -6.2695   10.2750 H   0  0  0  0  0  0  0  0  0  0  0  0
 10 11  2  0  0  0
 10 12  1  0  0  0
 10  1  1  0  0  0
  1  2  1  0  0  0
  1  6  2  0  0  0
  2  3  2  0  0  0
  3  4  1  0  0  0
  3  7  1  0  0  0
  4  5  2  0  0  0
  5  6  1  0  0  0
 12 13  1  0  0  0
  7  8  1  0  0  0
  7  9  1  0  0  0
M  END
> <minimizedAffinity>
-7.32848

$$$$
3FHB_GAB_A_601


 13 13  0  0  0  0  0  0  0  0999 V2000
   16.3025   -8.5283   10.7802 C   0  0  0  0  0  0  0  0  0  0  0  0
   17.3721   -9.2672   11.2613 C   0  0  0  0  0  0  0  0  0  0  0  0
   17.4765  -10.6060   10.8840 C   0  0  0  0  0  0  0  0  0  0  0  0
   16.5547  -11.2020   10.0471 C   0  0  0  0  0  0  0  0  0  0  0  0
   15.4935  -10.4470    9.5734 C   0  0  0  0  0  0  0  0  0  0  0  0
   15.3692   -9.1146    9.9422 C   0  0  0  0  0  0  0  0  0  0  0  0
   18.4802  -11.3415   11.3275 N   0  0  0  0  0  0  0  0  0  0  0  0
   19.1540  -10.9452   11.9260 H   0  0  0  0  0  0  0  0  0  0  0  0
   18.5544  -12.2859   11.0595 H   0  0  0  0  0  0  0  0  0  0  0  0
   16.1482   -7.0649   11.1543 C   0  0  0  0  0  0  0  0  0  0  0  0
   15.1514   -6.7391   11.8582 O   0  0  0  0  0  0  0  0  0  0  0  0
   17.0400   -6.2842   10.7182 O   0  0  0  0  0  0  0  0  0  0  0  0
   17.7452   -6.6207   10.2011 H   0  0  0  0  0  0  0  0  0  0  0  0
 10 11  2  0  0  0
 10 12  1  0  0  0
 10  1  1  0  0  0
  1  2  1  0  0  0
  1  6  2  0  0  0
  2  3  2  0  0  0
  3  4  1  0  0  0
  3  7  1  0  0  0
  4  5  2  0  0  0
  5  6  1  0  0  0
 12 13  1  0  0  0
  7  8  1  0  0  0
  7  9  1  0  0  0
M  END
> <minimizedAffinity>
-7.20631

$$$$
3FHB_GAB_A_601


 13 13  0  0  0  0  0  0  0  0999 V2000
   16.8969   -8.1329   11.2392 C   0  0  0  0  0  0  0  0  0  0  0  0
   16.8633   -9.5027   11.0286 C   0  0  0  0  0  0  0  0  0  0  0  0
   18.0177  -10.2419   11.2867 C   0  0  0  0  0  0  0  0  0  0  0  0
   19.1756   -9.6490   11.7484 C   0  0  0  0  0  0  0  0  0  0  0  0
   19.1897   -8.2789   11.9561 C   0  0  0  0  0  0  0  0  0  0  0  0
   18.0527   -7.5252   11.6995 C   0  0  0  0  0  0  0  0  0  0  0  0
   18.0232  -11.5485   11.0925 N   0  0  0  0  0  0  0  0  0  0  0  0
   17.2128  -12.0008   10.7638 H   0  0  0  0  0  0  0  0  0  0  0  0
   18.8377  -12.0701   11.2765 H   0  0  0  0  0  0  0  0  0  0  0  0
   15.6643   -7.2846   10.9815 C   0  0  0  0  0  0  0  0  0  0  0  0
   15.1131   -6.7305   11.9736 O   0  0  0  0  0  0  0  0  0  0  0  0
   15.2850   -7.2087    9.7793 O   0  0  0  0  0  0  0  0  0  0  0  0
   15.7612   -7.6573    9.1085 H   0  0  0  0  0  0  0  0  0  0  0  0
 10 11  2  0  0  0
 10 12  1  0  0  0
 10  1  1  0  0  0
  1  2  1  0  0  0
  1  6  2  0  0  0
  2  3  2  0  0  0
  3  4  1  0  0  0
  3  7  1  0  0  0
  4  5  2  0  0  0
  5  6  1  0  0  0
 12 13  1  0  0  0
  7  8  1  0  0  0
  7  9  1  0  0  0
M  END
> <minimizedAffinity>
-7.19831

$$$$
3FHB_GAB_A_601


 13 13  0  0  0  0  0  0  0  0999 V2000
   16.6172   -8.4818   11.1214 C   0  0  0  0  0  0  0  0  0  0  0  0
   17.9025   -8.2762   11.5982 C   0  0  0  0  0  0  0  0  0  0  0  0
   18.7698   -9.3669   11.6590 C   0  0  0  0  0  0  0  0  0  0  0  0
   18.3845  -10.6288   11.2532 C   0  0  0  0  0  0  0  0  0  0  0  0
   17.0966  -10.8149   10.7764 C   0  0  0  0  0  0  0  0  0  0  0  0
   16.2170   -9.7430   10.7136 C   0  0  0  0  0  0  0  0  0  0  0  0
   20.0004   -9.2087   12.1126 N   0  0  0  0  0  0  0  0  0  0  0  0
   20.3051   -8.3209   12.4096 H   0  0  0  0  0  0  0  0  0  0  0  0
   20.6127   -9.9785   12.1536 H   0  0  0  0  0  0  0  0  0  0  0  0
   15.6376   -7.3256   11.0272 C   0  0  0  0  0  0  0  0  0  0  0  0
   15.0197   -7.1649    9.9375 O   0  0  0  0  0  0  0  0  0  0  0  0
   15.5262   -6.6078   12.0603 O   0  0  0  0  0  0  0  0  0  0  0  0
   16.0290   -6.8068   12.8255 H   0  0  0  0  0  0  0  0  0  0  0  0
 10 11  2  0  0  0
 10 12  1  0  0  0
 10  1  1  0  0  0
  1  2  1  0  0  0
  1  6  2  0  0  0
  2  3  2  0  0  0
  3  4  1  0  0  0
  3  7  1  0  0  0
  4  5  2  0  0  0
  5  6  1  0  0  0
 12 13  1  0  0  0
  7  8  1  0  0  0
  7  9  1  0  0  0
M  END
> <minimizedAffinity>
-6.94632

$$$$
3FHB_GAB_A_601


 13 13  0  0  0  0  0  0  0  0999 V2000
   17.7352   -9.4978   11.2245 C   0  0  0  0  0  0  0  0  0  0  0  0
   16.8318   -8.4764   10.9749 C   0  0  0  0  0  0  0  0  0  0  0  0
   17.1953   -7.1725   11.3113 C   0  0  0  0  0  0  0  0  0  0  0  0
   18.4217   -6.8789   11.8727 C   0  0  0  0  0  0  0  0  0  0  0  0
   19.3134   -7.9123   12.1123 C   0  0  0  0  0  0  0  0  0  0  0  0
   18.9676   -9.2174   11.7898 C   0  0  0  0  0  0  0  0  0  0  0  0
   16.3573   -6.1751   11.0920 N   0  0  0  0  0  0  0  0  0  0  0  0
   15.4750   -6.3522   10.6928 H   0  0  0  0  0  0  0  0  0  0  0  0
   16.6151   -5.2547   11.3279 H   0  0  0  0  0  0  0  0  0  0  0  0
   17.3910  -10.9332   10.8689 C   0  0  0  0  0  0  0  0  0  0  0  0
   16.3992  -11.1306   10.1122 O   0  0  0  0  0  0  0  0  0  0  0  0
   18.1331  -11.8223   11.3725 O   0  0  0  0  0  0  0  0  0  0  0  0
   18.8491  -11.5773   11.9250 H   0  0  0  0  0  0  0  0  0  0  0  0
 10 11  2  0  0  0
 10 12  1  0  0  0
 10  1  1  0  0  0
  1  2  1  0  0  0
  1  6  2  0  0  0
  2  3  2  0  0  0
  3  4  1  0  0  0
  3  7  1  0  0  0
  4  5  2  0  0  0
  5  6  1  0  0  0
 12 13  1  0  0  0
  7  8  1  0  0  0
  7  9  1  0  0  0
M  END
> <minimizedAffinity>
-6.69256

$$$$
3FHB_GAB_A_601


 13 13  0  0  0  0  0  0  0  0999 V2000
   16.5701   -8.2995   11.1715 C   0  0  0  0  0  0  0  0  0  0  0  0
   16.9786   -7.0333   11.5609 C   0  0  0  0  0  0  0  0  0  0  0  0
   18.2846   -6.8706   12.0229 C   0  0  0  0  0  0  0  0  0  0  0  0
   19.1705   -7.9269   12.0929 C   0  0  0  0  0  0  0  0  0  0  0  0
   18.7456   -9.1850   11.6964 C   0  0  0  0  0  0  0  0  0  0  0  0
   17.4478   -9.3681   11.2393 C   0  0  0  0  0  0  0  0  0  0  0  0
   18.7064   -5.6792   12.4069 N   0  0  0  0  0  0  0  0  0  0  0  0
   18.0983   -4.9058   12.3689 H   0  0  0  0  0  0  0  0  0  0  0  0
   19.6289   -5.5645   12.7312 H   0  0  0  0  0  0  0  0  0  0  0  0
   15.1613   -8.5277   10.6533 C   0  0  0  0  0  0  0  0  0  0  0  0
   14.4484   -9.3862   11.2448 O   0  0  0  0  0  0  0  0  0  0  0  0
   14.8183   -7.8337    9.6555 O   0  0  0  0  0  0  0  0  0  0  0  0
   15.4197   -7.2190    9.2834 H   0  0  0  0  0  0  0  0  0  0  0  0
 10 11  2  0  0  0
 10 12  1  0  0  0
 10  1  1  0  0  0
  1  2  1  0  0  0
  1  6  2  0  0  0
  2  3  2  0  0  0
  3  4  1  0  0  0
  3  7  1  0  0  0
  4  5  2  0  0  0
  5  6  1  0  0  0
 12 13  1  0  0  0
  7  8  1  0  0  0
  7  9  1  0  0  0
M  END
> <minimizedAffinity>
-6.55779

$$$$
3FHB_GAB_A_601


 13 13  0  0  0  0  0  0  0  0999 V2000
   18.0210  -10.4067   11.1312 C   0  0  0  0  0  0  0  0  0  0  0  0
   17.1329  -11.0933   10.3178 C   0  0  0  0  0  0  0  0  0  0  0  0
   15.9901  -10.4281    9.8737 C   0  0  0  0  0  0  0  0  0  0  0  0
   15.7308   -9.1160   10.2151 C   0  0  0  0  0  0  0  0  0  0  0  0
   16.6313   -8.4444   11.0265 C   0  0  0  0  0  0  0  0  0  0  0  0
   17.7715   -9.0911   11.4834 C   0  0  0  0  0  0  0  0  0  0  0  0
   15.1196  -11.0531    9.1012 N   0  0  0  0  0  0  0  0  0  0  0  0
   15.2764  -11.9893    8.8403 H   0  0  0  0  0  0  0  0  0  0  0  0
   14.3141  -10.5826    8.7865 H   0  0  0  0  0  0  0  0  0  0  0  0
   19.2839  -11.0829   11.6341 C   0  0  0  0  0  0  0  0  0  0  0  0
   20.3095  -10.3650   11.8014 O   0  0  0  0  0  0  0  0  0  0  0  0
   19.2027  -12.3263   11.8399 O   0  0  0  0  0  0  0  0  0  0  0  0
   18.3944  -12.7748   11.6864 H   0  0  0  0  0  0  0  0  0  0  0  0
 10 11  2  0  0  0
 10 12  1  0  0  0
 10  1  1  0  0  0
  1  2  1  0  0  0
  1  6  2  0  0  0
  2  3  2  0  0  0
  3  4  1  0  0  0
  3  7  1  0  0  0
  4  5  2  0  0  0
  5  6  1  0  0  0
 12 13  1  0  0  0
  7  8  1  0  0  0
  7  9  1  0  0  0
M  END
> <minimizedAffinity>
-6.52680

$$$$
3FHB_GAB_A_601


 13 13  0  0  0  0  0  0  0  0999 V2000
   17.4098   -7.8783   11.5191 C   0  0  0  0  0  0  0  0  0  0  0  0
   18.5633   -7.2601   11.9764 C   0  0  0  0  0  0  0  0  0  0  0  0
   19.7014   -8.0422   12.1732 C   0  0  0  0  0  0  0  0  0  0  0  0
   19.7072   -9.3989   11.9188 C   0  0  0  0  0  0  0  0  0  0  0  0
   18.5458   -9.9992   11.4592 C   0  0  0  0  0  0  0  0  0  0  0  0
   17.4012   -9.2388   11.2627 C   0  0  0  0  0  0  0  0  0  0  0  0
   20.8168   -7.4874   12.6127 N   0  0  0  0  0  0  0  0  0  0  0  0
   20.8445   -6.5219   12.8033 H   0  0  0  0  0  0  0  0  0  0  0  0
   21.6203   -8.0395   12.7498 H   0  0  0  0  0  0  0  0  0  0  0  0
   16.1468   -7.0700   11.2806 C   0  0  0  0  0  0  0  0  0  0  0  0
   15.0542   -7.6975   11.1927 O   0  0  0  0  0  0  0  0  0  0  0  0
   16.2987   -5.8202   11.1825 O   0  0  0  0  0  0  0  0  0  0  0  0
   17.1533   -5.4444   11.2622 H   0  0  0  0  0  0  0  0  0  0  0  0
 10 11  2  0  0  0
 10 12  1  0  0  0
 10  1  1  0  0  0
  1  2  1  0  0  0
  1  6  2  0  0  0
  2  3  2  0  0  0
  3  4  1  0  0  0
  3  7  1  0  0  0
  4  5  2  0  0  0
  5  6  1  0  0  0
 12 13  1  0  0  0
  7  8  1  0  0  0
  7  9  1  0  0  0
M  END
> <minimizedAffinity>
-6.52124

$$$$
3FHB_GAB_A_601


 13 13  0  0  0  0  0  0  0  0999 V2000
   17.8360  -10.0045   11.1970 C   0  0  0  0  0  0  0  0  0  0  0  0
   17.7563   -8.6767   11.5872 C   0  0  0  0  0  0  0  0  0  0  0  0
   16.6097   -7.9553   11.2546 C   0  0  0  0  0  0  0  0  0  0  0  0
   15.5627   -8.5286   10.5613 C   0  0  0  0  0  0  0  0  0  0  0  0
   15.6586   -9.8581   10.1822 C   0  0  0  0  0  0  0  0  0  0  0  0
   16.7941  -10.5910   10.4988 C   0  0  0  0  0  0  0  0  0  0  0  0
   16.5018   -6.6865   11.6060 N   0  0  0  0  0  0  0  0  0  0  0  0
   17.2316   -6.2491   12.1013 H   0  0  0  0  0  0  0  0  0  0  0  0
   15.6915   -6.1783   11.3726 H   0  0  0  0  0  0  0  0  0  0  0  0
   19.0589  -10.8355   11.5420 C   0  0  0  0  0  0  0  0  0  0  0  0
   20.1542  -10.2294   11.7101 O   0  0  0  0  0  0  0  0  0  0  0  0
   18.8762  -12.0822   11.6268 O   0  0  0  0  0  0  0  0  0  0  0  0
   18.0225  -12.4414   11.4845 H   0  0  0  0  0  0  0  0  0  0  0  0
 10 11  2  0  0  0
 10 12  1  0  0  0
 10  1  1  0  0  0
  1  2  1  0  0  0
  1  6  2  0  0  0
  2  3  2  0  0  0
  3  4  1  0  0  0
  3  7  1  0  0  0
  4  5  2  0  0  0
  5  6  1  0  0  0
 12 13  1  0  0  0
  7  8  1  0  0  0
  7  9  1  0  0  0
M  END
> <minimizedAffinity>
-6.51180

$$$$
3FHB_GAB_A_601


 13 13  0  0  0  0  0  0  0  0999 V2000
   17.1494   -8.3866   11.3639 C   0  0  0  0  0  0  0  0  0  0  0  0
   18.3305   -9.0487   11.6611 C   0  0  0  0  0  0  0  0  0  0  0  0
   18.4136  -10.4133   11.3844 C   0  0  0  0  0  0  0  0  0  0  0  0
   17.3624  -11.1088   10.8215 C   0  0  0  0  0  0  0  0  0  0  0  0
   16.1905  -10.4298   10.5283 C   0  0  0  0  0  0  0  0  0  0  0  0
   16.0865   -9.0729   10.8017 C   0  0  0  0  0  0  0  0  0  0  0  0
   19.5221  -11.0773   11.6590 N   0  0  0  0  0  0  0  0  0  0  0  0
   20.2894  -10.6094   12.0609 H   0  0  0  0  0  0  0  0  0  0  0  0
   19.5808  -12.0401   11.4619 H   0  0  0  0  0  0  0  0  0  0  0  0
   17.0113   -6.8996   11.6380 C   0  0  0  0  0  0  0  0  0  0  0  0
   18.0522   -6.1882   11.5637 O   0  0  0  0  0  0  0  0  0  0  0  0
   15.8506   -6.4947   11.9274 O   0  0  0  0  0  0  0  0  0  0  0  0
   15.1369   -7.1010   11.9578 H   0  0  0  0  0  0  0  0  0  0  0  0
 10 11  2  0  0  0
 10 12  1  0  0  0
 10  1  1  0  0  0
  1  2  1  0  0  0
  1  6  2  0  0  0
  2  3  2  0  0  0
  3  4  1  0  0  0
  3  7  1  0  0  0
  4  5  2  0  0  0
  5  6  1  0  0  0
 12 13  1  0  0  0
  7  8  1  0  0  0
  7  9  1  0  0  0
M  END
> <minimizedAffinity>
-6.40332

$$$$
