4ZME_ADN_A_1002
  RCSB PDB12061716393D
Coordinates from PDB:4ZME:A:1002 Model:1 without hydrogens
 19 21  0  0  0  0            999 V2000
   13.9680  -14.8590    7.9420   O 0  0  0  0  0  0  0  0  0  0  0  0
   14.5180  -14.1610    6.8270   C 0  0  0  0  0  0  0  0  0  0  0  0
   15.0250  -12.8510    7.3700   C 0  0  0  0  0  0  0  0  0  0  0  0
   16.4580  -12.7460    7.3270   O 0  0  0  0  0  0  0  0  0  0  0  0
   14.4520  -11.7030    6.5740   C 0  0  0  0  0  0  0  0  0  0  0  0
   13.2030  -11.2660    7.1010   O 0  0  0  0  0  0  0  0  0  0  0  0
   15.5100  -10.6460    6.7110   C 0  0  0  0  0  0  0  0  0  0  0  0
   15.2650   -9.8690    7.8930   O 0  0  0  0  0  0  0  0  0  0  0  0
   16.7940  -11.4440    6.8250   C 0  0  0  0  0  0  0  0  0  0  0  0
   17.5050  -11.5910    5.5300   N 0  0  0  0  0  0  0  0  0  0  0  0
   17.4540  -12.6320    4.6610   C 0  0  0  0  0  0  0  0  0  0  0  0
   18.2960  -12.4180    3.5980   N 0  0  0  0  0  0  0  0  0  0  0  0
   18.9040  -11.2360    3.8100   C 0  0  0  0  0  0  0  0  0  0  0  0
   19.9070  -10.3980    3.1250   C 0  0  0  0  0  0  0  0  0  0  0  0
   20.4580  -10.7800    1.9500   N 0  0  0  0  0  0  0  0  0  0  0  0
   20.2650   -9.2290    3.6960   N 0  0  0  0  0  0  0  0  0  0  0  0
   19.7240   -8.8020    4.8690   C 0  0  0  0  0  0  0  0  0  0  0  0
   18.8060   -9.5100    5.5310   N 0  0  0  0  0  0  0  0  0  0  0  0
   18.3670  -10.6980    5.0680   C 0  0  0  0  0  0  0  0  0  0  0  0
  1  2  1  0  0  0  0
  2  3  1  0  0  0  0
  3  4  1  0  0  0  0
  3  5  1  0  0  0  0
  4  9  1  0  0  0  0
  5  6  1  0  0  0  0
  5  7  1  0  0  0  0
  7  8  1  0  0  0  0
  7  9  1  0  0  0  0
  9 10  1  0  0  0  0
 10 11  1  0  0  0  0
 10 19  1  0  0  0  0
 11 12  2  0  0  0  0
 12 13  1  0  0  0  0
 13 14  1  0  0  0  0
 13 19  2  0  0  0  0
 14 15  1  0  0  0  0
 14 16  2  0  0  0  0
 16 17  1  0  0  0  0
 17 18  2  0  0  0  0
 18 19  1  0  0  0  0
A    1
O5'
A    2
C5'
A    3
C4'
A    4
O4'
A    5
C3'
A    6
O3'
A    7
C2'
A    8
O2'
A    9
C1'
A   10
N9
A   11
C8
A   12
N7
A   13
C5
A   14
C6
A   15
N6
A   16
N1
A   17
C2
A   18
N3
A   19
C4
M  END
>  <InstanceId>
4ZME_ADN_A_1002

>  <ChemCompId>
ADN

>  <PdbId>
4ZME

>  <ChainId>
A

>  <ResidueNumber>
1002

>  <InsertionCode>


>  <Model>
1

>  <AltIds>


>  <MissingHeavyAtoms>
0

>  <ObservedFormula>
C10 N5 O4

>  <Name>
ADENOSINE

>  <SystematicName>
(2R,3R,4S,5R)-2-(6-aminopurin-9-yl)-5-(hydroxymethyl)oxolane-3,4-diol

>  <Synonyms>


>  <Type>
NON-POLYMER

>  <Formula>
C10 H13 N5 O4

>  <MolecularWeight>
267.241

>  <ModifiedDate>
2011-06-04

>  <Parent>


>  <OneLetterCode>


>  <SubcomponentList>


>  <AmbiguousFlag>
N

>  <InChI>
InChI=1S/C10H13N5O4/c11-8-5-9(13-2-12-8)15(3-14-5)10-7(18)6(17)4(1-16)19-10/h2-4,6-7,10,16-18H,1H2,(H2,11,12,13)/t4-,6-,7-,10-/m1/s1

>  <InChIKey>
OIRDTQYFTABQOQ-KQYNXXCUSA-N

>  <SMILES>
c1nc(c2c(n1)n(cn2)[C@H]3[C@@H]([C@@H]([C@H](O3)CO)O)O)N

$$$$
