4ZME_ADN_A_1002


 24 26  0  0  0  0  0  0  0  0999 V2000
   15.3139  -13.0939    7.5818 C   0  0  0  0  0  0  0  0  0  0  0  0
   16.7127  -12.7901    7.4506 O   0  0  0  0  0  0  0  0  0  0  0  0
   14.5418  -12.0841    6.7670 C   0  0  0  0  0  0  0  0  0  0  0  0
   13.2712  -11.7995    7.3445 O   0  0  0  0  0  0  0  0  0  0  0  0
   15.4420  -10.8823    6.7921 C   0  0  0  0  0  0  0  0  0  0  0  0
   15.1480  -10.0837    7.9482 O   0  0  0  0  0  0  0  0  0  0  0  0
   16.8317  -11.4834    6.8688 C   0  0  0  0  0  0  0  0  0  0  0  0
   13.3928  -11.4815    8.2528 H   0  0  0  0  0  0  0  0  0  0  0  0
   15.2371  -10.6264    8.7472 H   0  0  0  0  0  0  0  0  0  0  0  0
   17.4897  -11.5997    5.5430 N   0  0  0  0  0  0  0  0  0  0  0  0
   17.3592  -12.5937    4.6285 C   0  0  0  0  0  0  0  0  0  0  0  0
   18.1732  -12.3671    3.5465 N   0  0  0  0  0  0  0  0  0  0  0  0
   18.8438  -11.2261    3.7913 C   0  0  0  0  0  0  0  0  0  0  0  0
   19.8613  -10.4027    3.1100 C   0  0  0  0  0  0  0  0  0  0  0  0
   20.3526  -10.7520    1.8989 N   0  0  0  0  0  0  0  0  0  0  0  0
   20.2942   -9.2806    3.7218 N   0  0  0  0  0  0  0  0  0  0  0  0
   19.8150   -8.8868    4.9327 C   0  0  0  0  0  0  0  0  0  0  0  0
   18.8877   -9.5832    5.5940 N   0  0  0  0  0  0  0  0  0  0  0  0
   18.3768  -10.7258    5.0921 C   0  0  0  0  0  0  0  0  0  0  0  0
   20.0339  -11.5715    1.4562 H   0  0  0  0  0  0  0  0  0  0  0  0
   21.0287  -10.1866    1.4603 H   0  0  0  0  0  0  0  0  0  0  0  0
   13.7596  -14.8301    7.7973 O   0  0  0  0  0  0  0  0  0  0  0  0
   14.9740  -14.4904    7.1319 C   0  0  0  0  0  0  0  0  0  0  0  0
   13.4912  -15.7268    7.5426 H   0  0  0  0  0  0  0  0  0  0  0  0
 22 23  1  0  0  0
 23  1  1  0  0  0
  1  2  1  0  0  0
  1  3  1  0  0  0
  2  7  1  0  0  0
  3  4  1  0  0  0
  3  5  1  0  0  0
  5  6  1  0  0  0
  5  7  1  0  0  0
  7 10  1  0  0  0
 10 11  1  0  0  0
 10 19  1  0  0  0
 11 12  2  0  0  0
 12 13  1  0  0  0
 13 14  1  0  0  0
 13 19  2  0  0  0
 14 15  1  0  0  0
 14 16  2  0  0  0
 16 17  1  0  0  0
 17 18  2  0  0  0
 18 19  1  0  0  0
 22 24  1  0  0  0
  4  8  1  0  0  0
  6  9  1  0  0  0
 15 20  1  0  0  0
 15 21  1  0  0  0
M  END
> <minimizedAffinity>
-7.05785

$$$$
4ZME_ADN_A_1002


 24 26  0  0  0  0  0  0  0  0999 V2000
   14.4630  -14.1001    6.8933 C   0  0  0  0  0  0  0  0  0  0  0  0
   14.6333  -13.1184    5.8572 O   0  0  0  0  0  0  0  0  0  0  0  0
   15.8299  -14.6220    7.2666 C   0  0  0  0  0  0  0  0  0  0  0  0
   15.7821  -15.9870    7.6704 O   0  0  0  0  0  0  0  0  0  0  0  0
   16.6080  -14.4488    5.9939 C   0  0  0  0  0  0  0  0  0  0  0  0
   16.4539  -15.6158    5.1720 O   0  0  0  0  0  0  0  0  0  0  0  0
   15.9732  -13.2294    5.3548 C   0  0  0  0  0  0  0  0  0  0  0  0
   15.3974  -16.5216    6.9582 H   0  0  0  0  0  0  0  0  0  0  0  0
   15.5109  -15.7733    5.0078 H   0  0  0  0  0  0  0  0  0  0  0  0
   16.7069  -11.9717    5.6448 N   0  0  0  0  0  0  0  0  0  0  0  0
   16.4094  -11.0237    6.5691 C   0  0  0  0  0  0  0  0  0  0  0  0
   17.2982   -9.9800    6.4966 N   0  0  0  0  0  0  0  0  0  0  0  0
   18.1552  -10.2622    5.4978 C   0  0  0  0  0  0  0  0  0  0  0  0
   19.3207   -9.6205    4.8596 C   0  0  0  0  0  0  0  0  0  0  0  0
   19.7819   -8.4211    5.2824 N   0  0  0  0  0  0  0  0  0  0  0  0
   19.9272  -10.2610    3.8385 N   0  0  0  0  0  0  0  0  0  0  0  0
   19.5036  -11.4747    3.3930 C   0  0  0  0  0  0  0  0  0  0  0  0
   18.4621  -12.1100    3.9351 N   0  0  0  0  0  0  0  0  0  0  0  0
   17.7678  -11.5738    4.9592 C   0  0  0  0  0  0  0  0  0  0  0  0
   19.3363   -7.9573    6.0278 H   0  0  0  0  0  0  0  0  0  0  0  0
   20.5632   -8.0120    4.8448 H   0  0  0  0  0  0  0  0  0  0  0  0
   14.7359  -13.5802    9.1587 O   0  0  0  0  0  0  0  0  0  0  0  0
   13.7687  -13.5505    8.1115 C   0  0  0  0  0  0  0  0  0  0  0  0
   14.3403  -13.2345    9.9741 H   0  0  0  0  0  0  0  0  0  0  0  0
 22 23  1  0  0  0
 23  1  1  0  0  0
  1  2  1  0  0  0
  1  3  1  0  0  0
  2  7  1  0  0  0
  3  4  1  0  0  0
  3  5  1  0  0  0
  5  6  1  0  0  0
  5  7  1  0  0  0
  7 10  1  0  0  0
 10 11  1  0  0  0
 10 19  1  0  0  0
 11 12  2  0  0  0
 12 13  1  0  0  0
 13 14  1  0  0  0
 13 19  2  0  0  0
 14 15  1  0  0  0
 14 16  2  0  0  0
 16 17  1  0  0  0
 17 18  2  0  0  0
 18 19  1  0  0  0
 22 24  1  0  0  0
  4  8  1  0  0  0
  6  9  1  0  0  0
 15 20  1  0  0  0
 15 21  1  0  0  0
M  END
> <minimizedAffinity>
-6.93160

$$$$
4ZME_ADN_A_1002


 24 26  0  0  0  0  0  0  0  0999 V2000
   15.3173  -14.7082    5.5546 C   0  0  0  0  0  0  0  0  0  0  0  0
   16.6053  -14.1747    5.2042 O   0  0  0  0  0  0  0  0  0  0  0  0
   15.0235  -14.3109    6.9814 C   0  0  0  0  0  0  0  0  0  0  0  0
   14.2420  -15.2939    7.6534 O   0  0  0  0  0  0  0  0  0  0  0  0
   16.3957  -14.1918    7.5799 C   0  0  0  0  0  0  0  0  0  0  0  0
   16.8136  -15.4687    8.0856 O   0  0  0  0  0  0  0  0  0  0  0  0
   17.2535  -13.7475    6.4114 C   0  0  0  0  0  0  0  0  0  0  0  0
   14.7026  -16.1471    7.6264 H   0  0  0  0  0  0  0  0  0  0  0  0
   16.7792  -16.1257    7.3729 H   0  0  0  0  0  0  0  0  0  0  0  0
   17.4532  -12.2772    6.3618 N   0  0  0  0  0  0  0  0  0  0  0  0
   16.8545  -11.3254    7.1214 C   0  0  0  0  0  0  0  0  0  0  0  0
   17.2631  -10.0718    6.7390 N   0  0  0  0  0  0  0  0  0  0  0  0
   18.1143  -10.2331    5.7089 C   0  0  0  0  0  0  0  0  0  0  0  0
   18.9072   -9.3664    4.8158 C   0  0  0  0  0  0  0  0  0  0  0  0
   18.8852   -8.0196    4.9416 N   0  0  0  0  0  0  0  0  0  0  0  0
   19.6662   -9.9483    3.8639 N   0  0  0  0  0  0  0  0  0  0  0  0
   19.7273  -11.2991    3.7138 C   0  0  0  0  0  0  0  0  0  0  0  0
   19.0415  -12.1357    4.4961 N   0  0  0  0  0  0  0  0  0  0  0  0
   18.2425  -11.6796    5.4820 C   0  0  0  0  0  0  0  0  0  0  0  0
   18.3300   -7.5992    5.6375 H   0  0  0  0  0  0  0  0  0  0  0  0
   19.4244   -7.4598    4.3373 H   0  0  0  0  0  0  0  0  0  0  0  0
   13.1468  -15.1542    4.8018 O   0  0  0  0  0  0  0  0  0  0  0  0
   14.2174  -14.2254    4.6462 C   0  0  0  0  0  0  0  0  0  0  0  0
   12.4050  -14.8904    4.2352 H   0  0  0  0  0  0  0  0  0  0  0  0
 22 23  1  0  0  0
 23  1  1  0  0  0
  1  2  1  0  0  0
  1  3  1  0  0  0
  2  7  1  0  0  0
  3  4  1  0  0  0
  3  5  1  0  0  0
  5  6  1  0  0  0
  5  7  1  0  0  0
  7 10  1  0  0  0
 10 11  1  0  0  0
 10 19  1  0  0  0
 11 12  2  0  0  0
 12 13  1  0  0  0
 13 14  1  0  0  0
 13 19  2  0  0  0
 14 15  1  0  0  0
 14 16  2  0  0  0
 16 17  1  0  0  0
 17 18  2  0  0  0
 18 19  1  0  0  0
 22 24  1  0  0  0
  4  8  1  0  0  0
  6  9  1  0  0  0
 15 20  1  0  0  0
 15 21  1  0  0  0
M  END
> <minimizedAffinity>
-6.63823

$$$$
4ZME_ADN_A_1002


 24 26  0  0  0  0  0  0  0  0999 V2000
   19.6893  -10.0195    5.1168 C   0  0  0  0  0  0  0  0  0  0  0  0
   19.1703  -10.9915    6.0399 O   0  0  0  0  0  0  0  0  0  0  0  0
   18.9996  -10.2261    3.7896 C   0  0  0  0  0  0  0  0  0  0  0  0
   19.8521   -9.9032    2.6952 O   0  0  0  0  0  0  0  0  0  0  0  0
   18.6646  -11.6898    3.8162 C   0  0  0  0  0  0  0  0  0  0  0  0
   19.7665  -12.4462    3.2924 O   0  0  0  0  0  0  0  0  0  0  0  0
   18.4431  -11.9748    5.2887 C   0  0  0  0  0  0  0  0  0  0  0  0
   20.6594  -10.4385    2.7453 H   0  0  0  0  0  0  0  0  0  0  0  0
   20.5681  -12.2433    3.7995 H   0  0  0  0  0  0  0  0  0  0  0  0
   17.0123  -11.9267    5.6822 N   0  0  0  0  0  0  0  0  0  0  0  0
   16.3749  -10.9710    6.4045 C   0  0  0  0  0  0  0  0  0  0  0  0
   15.0602  -11.3113    6.6056 N   0  0  0  0  0  0  0  0  0  0  0  0
   14.8705  -12.5091    6.0217 C   0  0  0  0  0  0  0  0  0  0  0  0
   13.7589  -13.4643    5.8502 C   0  0  0  0  0  0  0  0  0  0  0  0
   12.5295  -13.2101    6.3542 N   0  0  0  0  0  0  0  0  0  0  0  0
   13.9926  -14.6061    5.1702 N   0  0  0  0  0  0  0  0  0  0  0  0
   15.2103  -14.8925    4.6353 C   0  0  0  0  0  0  0  0  0  0  0  0
   16.2518  -14.0650    4.7482 N   0  0  0  0  0  0  0  0  0  0  0  0
   16.1497  -12.8935    5.4081 C   0  0  0  0  0  0  0  0  0  0  0  0
   12.3635  -12.3757    6.8497 H   0  0  0  0  0  0  0  0  0  0  0  0
   11.8008  -13.8595    6.2255 H   0  0  0  0  0  0  0  0  0  0  0  0
   18.5485   -8.0212    4.6904 O   0  0  0  0  0  0  0  0  0  0  0  0
   19.4922   -8.6025    5.5873 C   0  0  0  0  0  0  0  0  0  0  0  0
   18.3824   -7.1009    4.9478 H   0  0  0  0  0  0  0  0  0  0  0  0
 22 23  1  0  0  0
 23  1  1  0  0  0
  1  2  1  0  0  0
  1  3  1  0  0  0
  2  7  1  0  0  0
  3  4  1  0  0  0
  3  5  1  0  0  0
  5  6  1  0  0  0
  5  7  1  0  0  0
  7 10  1  0  0  0
 10 11  1  0  0  0
 10 19  1  0  0  0
 11 12  2  0  0  0
 12 13  1  0  0  0
 13 14  1  0  0  0
 13 19  2  0  0  0
 14 15  1  0  0  0
 14 16  2  0  0  0
 16 17  1  0  0  0
 17 18  2  0  0  0
 18 19  1  0  0  0
 22 24  1  0  0  0
  4  8  1  0  0  0
  6  9  1  0  0  0
 15 20  1  0  0  0
 15 21  1  0  0  0
M  END
> <minimizedAffinity>
-6.45546

$$$$
4ZME_ADN_A_1002


 24 26  0  0  0  0  0  0  0  0999 V2000
   16.1751  -15.0992    7.0844 C   0  0  0  0  0  0  0  0  0  0  0  0
   16.5325  -13.8141    7.6202 O   0  0  0  0  0  0  0  0  0  0  0  0
   15.6668  -14.8900    5.6781 C   0  0  0  0  0  0  0  0  0  0  0  0
   14.6653  -15.8415    5.3312 O   0  0  0  0  0  0  0  0  0  0  0  0
   15.1100  -13.4963    5.7324 C   0  0  0  0  0  0  0  0  0  0  0  0
   13.7391  -13.5410    6.1562 O   0  0  0  0  0  0  0  0  0  0  0  0
   15.9877  -12.8049    6.7572 C   0  0  0  0  0  0  0  0  0  0  0  0
   13.9351  -15.7890    5.9675 H   0  0  0  0  0  0  0  0  0  0  0  0
   13.6798  -13.9942    7.0118 H   0  0  0  0  0  0  0  0  0  0  0  0
   17.1007  -12.0355    6.1461 N   0  0  0  0  0  0  0  0  0  0  0  0
   18.1523  -12.5098    5.4316 C   0  0  0  0  0  0  0  0  0  0  0  0
   19.0000  -11.4886    5.0804 N   0  0  0  0  0  0  0  0  0  0  0  0
   18.4884  -10.3570    5.5996 C   0  0  0  0  0  0  0  0  0  0  0  0
   18.8489   -8.9267    5.6401 C   0  0  0  0  0  0  0  0  0  0  0  0
   19.9662   -8.4658    5.0324 N   0  0  0  0  0  0  0  0  0  0  0  0
   18.0326   -8.0771    6.2977 N   0  0  0  0  0  0  0  0  0  0  0  0
   16.8925   -8.4980    6.9093 C   0  0  0  0  0  0  0  0  0  0  0  0
   16.5077   -9.7763    6.8996 N   0  0  0  0  0  0  0  0  0  0  0  0
   17.2389  -10.7252    6.2804 C   0  0  0  0  0  0  0  0  0  0  0  0
   20.5590   -9.0893    4.5537 H   0  0  0  0  0  0  0  0  0  0  0  0
   20.1865   -7.5070    5.0688 H   0  0  0  0  0  0  0  0  0  0  0  0
   17.2803  -16.7357    8.3402 O   0  0  0  0  0  0  0  0  0  0  0  0
   17.3254  -16.0712    7.0795 C   0  0  0  0  0  0  0  0  0  0  0  0
   18.0045  -17.3788    8.3929 H   0  0  0  0  0  0  0  0  0  0  0  0
 22 23  1  0  0  0
 23  1  1  0  0  0
  1  2  1  0  0  0
  1  3  1  0  0  0
  2  7  1  0  0  0
  3  4  1  0  0  0
  3  5  1  0  0  0
  5  6  1  0  0  0
  5  7  1  0  0  0
  7 10  1  0  0  0
 10 11  1  0  0  0
 10 19  1  0  0  0
 11 12  2  0  0  0
 12 13  1  0  0  0
 13 14  1  0  0  0
 13 19  2  0  0  0
 14 15  1  0  0  0
 14 16  2  0  0  0
 16 17  1  0  0  0
 17 18  2  0  0  0
 18 19  1  0  0  0
 22 24  1  0  0  0
  4  8  1  0  0  0
  6  9  1  0  0  0
 15 20  1  0  0  0
 15 21  1  0  0  0
M  END
> <minimizedAffinity>
-6.34080

$$$$
4ZME_ADN_A_1002


 24 26  0  0  0  0  0  0  0  0999 V2000
   13.3201  -16.3877    4.4264 C   0  0  0  0  0  0  0  0  0  0  0  0
   13.7906  -15.1427    3.8832 O   0  0  0  0  0  0  0  0  0  0  0  0
   14.2652  -16.7986    5.5299 C   0  0  0  0  0  0  0  0  0  0  0  0
   14.3753  -18.2151    5.6312 O   0  0  0  0  0  0  0  0  0  0  0  0
   15.5620  -16.1724    5.1038 C   0  0  0  0  0  0  0  0  0  0  0  0
   16.2727  -17.0743    4.2422 O   0  0  0  0  0  0  0  0  0  0  0  0
   15.1249  -14.9232    4.3642 C   0  0  0  0  0  0  0  0  0  0  0  0
   14.6679  -18.5782    4.7806 H   0  0  0  0  0  0  0  0  0  0  0  0
   15.7119  -17.3087    3.4863 H   0  0  0  0  0  0  0  0  0  0  0  0
   15.1408  -13.7070    5.2155 N   0  0  0  0  0  0  0  0  0  0  0  0
   14.1322  -13.1993    5.9681 C   0  0  0  0  0  0  0  0  0  0  0  0
   14.5195  -12.0288    6.5719 N   0  0  0  0  0  0  0  0  0  0  0  0
   15.7824  -11.7822    6.1772 C   0  0  0  0  0  0  0  0  0  0  0  0
   16.8011  -10.7385    6.4022 C   0  0  0  0  0  0  0  0  0  0  0  0
   16.5544   -9.6764    7.2029 N   0  0  0  0  0  0  0  0  0  0  0  0
   17.9976  -10.8668    5.7916 N   0  0  0  0  0  0  0  0  0  0  0  0
   18.2903  -11.9268    4.9906 C   0  0  0  0  0  0  0  0  0  0  0  0
   17.4151  -12.9071    4.7561 N   0  0  0  0  0  0  0  0  0  0  0  0
   16.1827  -12.8943    5.3034 C   0  0  0  0  0  0  0  0  0  0  0  0
   15.6800   -9.5868    7.6464 H   0  0  0  0  0  0  0  0  0  0  0  0
   17.2493   -8.9930    7.3421 H   0  0  0  0  0  0  0  0  0  0  0  0
   11.0614  -16.3632    3.8145 O   0  0  0  0  0  0  0  0  0  0  0  0
   11.9131  -16.3001    4.9562 C   0  0  0  0  0  0  0  0  0  0  0  0
   10.1354  -16.3107    4.0985 H   0  0  0  0  0  0  0  0  0  0  0  0
 22 23  1  0  0  0
 23  1  1  0  0  0
  1  2  1  0  0  0
  1  3  1  0  0  0
  2  7  1  0  0  0
  3  4  1  0  0  0
  3  5  1  0  0  0
  5  6  1  0  0  0
  5  7  1  0  0  0
  7 10  1  0  0  0
 10 11  1  0  0  0
 10 19  1  0  0  0
 11 12  2  0  0  0
 12 13  1  0  0  0
 13 14  1  0  0  0
 13 19  2  0  0  0
 14 15  1  0  0  0
 14 16  2  0  0  0
 16 17  1  0  0  0
 17 18  2  0  0  0
 18 19  1  0  0  0
 22 24  1  0  0  0
  4  8  1  0  0  0
  6  9  1  0  0  0
 15 20  1  0  0  0
 15 21  1  0  0  0
M  END
> <minimizedAffinity>
-6.17881

$$$$
4ZME_ADN_A_1002


 24 26  0  0  0  0  0  0  0  0999 V2000
   15.4263  -15.3323    6.7220 C   0  0  0  0  0  0  0  0  0  0  0  0
   14.8781  -14.0627    7.1143 O   0  0  0  0  0  0  0  0  0  0  0  0
   15.9956  -15.1818    5.3316 C   0  0  0  0  0  0  0  0  0  0  0  0
   15.8874  -16.3885    4.5828 O   0  0  0  0  0  0  0  0  0  0  0  0
   15.1485  -14.0892    4.7448 C   0  0  0  0  0  0  0  0  0  0  0  0
   13.9788  -14.6592    4.1383 O   0  0  0  0  0  0  0  0  0  0  0  0
   14.7933  -13.2342    5.9453 C   0  0  0  0  0  0  0  0  0  0  0  0
   14.9574  -16.6610    4.5413 H   0  0  0  0  0  0  0  0  0  0  0  0
   13.4970  -15.1847    4.7960 H   0  0  0  0  0  0  0  0  0  0  0  0
   15.6915  -12.0640    6.1128 N   0  0  0  0  0  0  0  0  0  0  0  0
   16.9526  -11.9026    5.6386 C   0  0  0  0  0  0  0  0  0  0  0  0
   17.4754  -10.7017    6.0499 N   0  0  0  0  0  0  0  0  0  0  0  0
   16.5399  -10.1066    6.8130 C   0  0  0  0  0  0  0  0  0  0  0  0
   16.4062   -8.8511    7.5768 C   0  0  0  0  0  0  0  0  0  0  0  0
   17.4072   -7.9419    7.6158 N   0  0  0  0  0  0  0  0  0  0  0  0
   15.2530   -8.6220    8.2390 N   0  0  0  0  0  0  0  0  0  0  0  0
   14.2173   -9.5038    8.2132 C   0  0  0  0  0  0  0  0  0  0  0  0
   14.2738  -10.6512    7.5332 N   0  0  0  0  0  0  0  0  0  0  0  0
   15.3727  -10.9997    6.8337 C   0  0  0  0  0  0  0  0  0  0  0  0
   18.2468   -8.1131    7.1312 H   0  0  0  0  0  0  0  0  0  0  0  0
   17.2960   -7.1090    8.1288 H   0  0  0  0  0  0  0  0  0  0  0  0
   16.4225  -17.2502    7.6196 O   0  0  0  0  0  0  0  0  0  0  0  0
   16.4904  -15.8268    7.6660 C   0  0  0  0  0  0  0  0  0  0  0  0
   17.0914  -17.6253    8.2136 H   0  0  0  0  0  0  0  0  0  0  0  0
 22 23  1  0  0  0
 23  1  1  0  0  0
  1  2  1  0  0  0
  1  3  1  0  0  0
  2  7  1  0  0  0
  3  4  1  0  0  0
  3  5  1  0  0  0
  5  6  1  0  0  0
  5  7  1  0  0  0
  7 10  1  0  0  0
 10 11  1  0  0  0
 10 19  1  0  0  0
 11 12  2  0  0  0
 12 13  1  0  0  0
 13 14  1  0  0  0
 13 19  2  0  0  0
 14 15  1  0  0  0
 14 16  2  0  0  0
 16 17  1  0  0  0
 17 18  2  0  0  0
 18 19  1  0  0  0
 22 24  1  0  0  0
  4  8  1  0  0  0
  6  9  1  0  0  0
 15 20  1  0  0  0
 15 21  1  0  0  0
M  END
> <minimizedAffinity>
-6.05490

$$$$
4ZME_ADN_A_1002


 24 26  0  0  0  0  0  0  0  0999 V2000
   14.8954  -15.3187    3.7360 C   0  0  0  0  0  0  0  0  0  0  0  0
   16.0177  -14.9132    4.5375 O   0  0  0  0  0  0  0  0  0  0  0  0
   13.6357  -14.9271    4.4706 C   0  0  0  0  0  0  0  0  0  0  0  0
   12.5715  -15.8396    4.2183 O   0  0  0  0  0  0  0  0  0  0  0  0
   14.0670  -14.9650    5.9086 C   0  0  0  0  0  0  0  0  0  0  0  0
   13.8872  -16.2900    6.4312 O   0  0  0  0  0  0  0  0  0  0  0  0
   15.5332  -14.5842    5.8479 C   0  0  0  0  0  0  0  0  0  0  0  0
   12.8469  -16.7350    4.4698 H   0  0  0  0  0  0  0  0  0  0  0  0
   14.3776  -16.9228    5.8835 H   0  0  0  0  0  0  0  0  0  0  0  0
   15.7713  -13.1417    6.1061 N   0  0  0  0  0  0  0  0  0  0  0  0
   14.9002  -12.2250    6.5983 C   0  0  0  0  0  0  0  0  0  0  0  0
   15.4790  -10.9809    6.6426 N   0  0  0  0  0  0  0  0  0  0  0  0
   16.7252  -11.1096    6.1504 C   0  0  0  0  0  0  0  0  0  0  0  0
   17.8807  -10.2296    5.8896 C   0  0  0  0  0  0  0  0  0  0  0  0
   17.8358   -8.9076    6.1733 N   0  0  0  0  0  0  0  0  0  0  0  0
   18.9965  -10.7745    5.3616 N   0  0  0  0  0  0  0  0  0  0  0  0
   19.0872  -12.1015    5.0756 C   0  0  0  0  0  0  0  0  0  0  0  0
   18.0805  -12.9498    5.2976 N   0  0  0  0  0  0  0  0  0  0  0  0
   16.9096  -12.5293    5.8179 C   0  0  0  0  0  0  0  0  0  0  0  0
   17.0196   -8.5143    6.5586 H   0  0  0  0  0  0  0  0  0  0  0  0
   18.6193   -8.3389    5.9946 H   0  0  0  0  0  0  0  0  0  0  0  0
   14.7342  -15.7847    1.4484 O   0  0  0  0  0  0  0  0  0  0  0  0
   14.9053  -14.7032    2.3616 C   0  0  0  0  0  0  0  0  0  0  0  0
   14.7329  -15.4439    0.5402 H   0  0  0  0  0  0  0  0  0  0  0  0
 22 23  1  0  0  0
 23  1  1  0  0  0
  1  2  1  0  0  0
  1  3  1  0  0  0
  2  7  1  0  0  0
  3  4  1  0  0  0
  3  5  1  0  0  0
  5  6  1  0  0  0
  5  7  1  0  0  0
  7 10  1  0  0  0
 10 11  1  0  0  0
 10 19  1  0  0  0
 11 12  2  0  0  0
 12 13  1  0  0  0
 13 14  1  0  0  0
 13 19  2  0  0  0
 14 15  1  0  0  0
 14 16  2  0  0  0
 16 17  1  0  0  0
 17 18  2  0  0  0
 18 19  1  0  0  0
 22 24  1  0  0  0
  4  8  1  0  0  0
  6  9  1  0  0  0
 15 20  1  0  0  0
 15 21  1  0  0  0
M  END
> <minimizedAffinity>
-5.86246

$$$$
4ZME_ADN_A_1002


 24 26  0  0  0  0  0  0  0  0999 V2000
   19.0075   -6.3400    7.9582 C   0  0  0  0  0  0  0  0  0  0  0  0
   19.4620   -7.4031    7.1041 O   0  0  0  0  0  0  0  0  0  0  0  0
   17.5547   -6.0788    7.6402 C   0  0  0  0  0  0  0  0  0  0  0  0
   17.2126   -4.7080    7.8201 O   0  0  0  0  0  0  0  0  0  0  0  0
   17.4535   -6.4893    6.1991 C   0  0  0  0  0  0  0  0  0  0  0  0
   17.7757   -5.3730    5.3561 O   0  0  0  0  0  0  0  0  0  0  0  0
   18.4812   -7.5968    6.0742 C   0  0  0  0  0  0  0  0  0  0  0  0
   17.7861   -4.1561    7.2656 H   0  0  0  0  0  0  0  0  0  0  0  0
   18.6585   -5.0410    5.5825 H   0  0  0  0  0  0  0  0  0  0  0  0
   17.8945   -8.9537    6.2109 N   0  0  0  0  0  0  0  0  0  0  0  0
   17.0910   -9.4221    7.1990 C   0  0  0  0  0  0  0  0  0  0  0  0
   16.7985  -10.7484    6.9985 N   0  0  0  0  0  0  0  0  0  0  0  0
   17.4446  -11.1286    5.8806 C   0  0  0  0  0  0  0  0  0  0  0  0
   17.6026  -12.3650    5.0907 C   0  0  0  0  0  0  0  0  0  0  0  0
   16.9900  -13.5150    5.4548 N   0  0  0  0  0  0  0  0  0  0  0  0
   18.3739  -12.3261    3.9843 N   0  0  0  0  0  0  0  0  0  0  0  0
   18.9952  -11.1866    3.5761 C   0  0  0  0  0  0  0  0  0  0  0  0
   18.8832  -10.0350    4.2420 N   0  0  0  0  0  0  0  0  0  0  0  0
   18.1446   -9.9429    5.3665 C   0  0  0  0  0  0  0  0  0  0  0  0
   16.4281  -13.5389    6.2629 H   0  0  0  0  0  0  0  0  0  0  0  0
   17.1061  -14.3279    4.9118 H   0  0  0  0  0  0  0  0  0  0  0  0
   18.9979   -5.4191   10.1095 O   0  0  0  0  0  0  0  0  0  0  0  0
   19.1679   -6.6564    9.4218 C   0  0  0  0  0  0  0  0  0  0  0  0
   19.0916   -5.5642   11.0640 H   0  0  0  0  0  0  0  0  0  0  0  0
 22 23  1  0  0  0
 23  1  1  0  0  0
  1  2  1  0  0  0
  1  3  1  0  0  0
  2  7  1  0  0  0
  3  4  1  0  0  0
  3  5  1  0  0  0
  5  6  1  0  0  0
  5  7  1  0  0  0
  7 10  1  0  0  0
 10 11  1  0  0  0
 10 19  1  0  0  0
 11 12  2  0  0  0
 12 13  1  0  0  0
 13 14  1  0  0  0
 13 19  2  0  0  0
 14 15  1  0  0  0
 14 16  2  0  0  0
 16 17  1  0  0  0
 17 18  2  0  0  0
 18 19  1  0  0  0
 22 24  1  0  0  0
  4  8  1  0  0  0
  6  9  1  0  0  0
 15 20  1  0  0  0
 15 21  1  0  0  0
M  END
> <minimizedAffinity>
-5.85236

$$$$
4ZME_ADN_A_1002


 24 26  0  0  0  0  0  0  0  0999 V2000
   15.8778  -15.4250    6.6919 C   0  0  0  0  0  0  0  0  0  0  0  0
   17.1045  -14.7668    7.0502 O   0  0  0  0  0  0  0  0  0  0  0  0
   14.7826  -14.3857    6.6731 C   0  0  0  0  0  0  0  0  0  0  0  0
   13.5257  -14.9356    7.0560 O   0  0  0  0  0  0  0  0  0  0  0  0
   15.2703  -13.3743    7.6704 C   0  0  0  0  0  0  0  0  0  0  0  0
   14.8200  -13.7370    8.9844 O   0  0  0  0  0  0  0  0  0  0  0  0
   16.7793  -13.4629    7.5543 C   0  0  0  0  0  0  0  0  0  0  0  0
   13.6017  -15.3330    7.9376 H   0  0  0  0  0  0  0  0  0  0  0  0
   15.1223  -14.6347    9.1935 H   0  0  0  0  0  0  0  0  0  0  0  0
   17.3551  -12.4350    6.6510 N   0  0  0  0  0  0  0  0  0  0  0  0
   18.1119  -12.6261    5.5409 C   0  0  0  0  0  0  0  0  0  0  0  0
   18.4991  -11.4229    5.0050 N   0  0  0  0  0  0  0  0  0  0  0  0
   17.9988  -10.4592    5.8004 C   0  0  0  0  0  0  0  0  0  0  0  0
   18.0174   -8.9847    5.8550 C   0  0  0  0  0  0  0  0  0  0  0  0
   18.6670   -8.2547    4.9195 N   0  0  0  0  0  0  0  0  0  0  0  0
   17.3637   -8.3712    6.8635 N   0  0  0  0  0  0  0  0  0  0  0  0
   16.6865   -9.0682    7.8157 C   0  0  0  0  0  0  0  0  0  0  0  0
   16.6247  -10.4017    7.8152 N   0  0  0  0  0  0  0  0  0  0  0  0
   17.2399  -11.1330    6.8637 C   0  0  0  0  0  0  0  0  0  0  0  0
   19.1426   -8.7065    4.1854 H   0  0  0  0  0  0  0  0  0  0  0  0
   18.6641   -7.2716    4.9728 H   0  0  0  0  0  0  0  0  0  0  0  0
   15.8214  -15.0947    4.3758 O   0  0  0  0  0  0  0  0  0  0  0  0
   15.9547  -16.1197    5.3580 C   0  0  0  0  0  0  0  0  0  0  0  0
   15.8641  -15.4880    3.4902 H   0  0  0  0  0  0  0  0  0  0  0  0
 22 23  1  0  0  0
 23  1  1  0  0  0
  1  2  1  0  0  0
  1  3  1  0  0  0
  2  7  1  0  0  0
  3  4  1  0  0  0
  3  5  1  0  0  0
  5  6  1  0  0  0
  5  7  1  0  0  0
  7 10  1  0  0  0
 10 11  1  0  0  0
 10 19  1  0  0  0
 11 12  2  0  0  0
 12 13  1  0  0  0
 13 14  1  0  0  0
 13 19  2  0  0  0
 14 15  1  0  0  0
 14 16  2  0  0  0
 16 17  1  0  0  0
 17 18  2  0  0  0
 18 19  1  0  0  0
 22 24  1  0  0  0
  4  8  1  0  0  0
  6  9  1  0  0  0
 15 20  1  0  0  0
 15 21  1  0  0  0
M  END
> <minimizedAffinity>
-5.84497

$$$$
