4MUF_2DJ_A_403


 33 35  0  0  0  0  0  0  0  0999 V2000
   19.2327   10.0280    2.6146 C   0  0  0  0  0  0  0  0  0  0  0  0
   19.3041   11.1267    3.1846 O   0  0  0  0  0  0  0  0  0  0  0  0
   18.4322    9.8040    1.5717 N   0  0  0  0  0  0  0  0  0  0  0  0
   18.4028    8.9399    1.1010 H   0  0  0  0  0  0  0  0  0  0  0  0
   21.3107    8.9273    2.3464 N   0  0  0  0  0  0  0  0  0  0  0  0
   21.8104    7.7684    2.8151 C   0  0  0  0  0  0  0  0  0  0  0  0
   23.0129    7.2056    2.6159 C   0  0  0  0  0  0  0  0  0  0  0  0
   23.3445    5.9796    3.1859 C   0  0  0  0  0  0  0  0  0  0  0  0
   22.4125    5.3430    3.9976 C   0  0  0  0  0  0  0  0  0  0  0  0
   21.1484    5.9646    4.1728 C   0  0  0  0  0  0  0  0  0  0  0  0
   20.8796    7.1553    3.5885 C   0  0  0  0  0  0  0  0  0  0  0  0
   19.7941    7.9397    3.6093 C   0  0  0  0  0  0  0  0  0  0  0  0
   20.0749    9.0269    2.8788 C   0  0  0  0  0  0  0  0  0  0  0  0
   22.7755    4.1322    4.5308 O   0  0  0  0  0  0  0  0  0  0  0  0
   23.9374    4.0290    5.3329 C   0  0  0  0  0  0  0  0  0  0  0  0
   22.1123    9.8824    1.4800 C   0  0  0  0  0  0  0  0  0  0  0  0
   20.9310   11.1561   -0.1296 O   0  0  0  0  0  0  0  0  0  0  0  0
   21.5776   10.0871    0.0908 C   0  0  0  0  0  0  0  0  0  0  0  0
   21.8743    9.2000   -0.7340 O   0  0  0  0  0  0  0  0  0  0  0  0
   20.7644   11.7558    0.5709 H   0  0  0  0  0  0  0  0  0  0  0  0
   17.5122   11.0656    1.1401 S   0  0  0  0  0  0  0  0  0  0  0  0
   18.4097   12.2845    0.7878 O   0  0  0  0  0  0  0  0  0  0  0  0
   16.5905   11.3396    2.3479 O   0  0  0  0  0  0  0  0  0  0  0  0
   16.4549   10.7270   -0.1524 C   0  0  0  0  0  0  0  0  0  0  0  0
   17.0425   10.2313   -1.2945 C   0  0  0  0  0  0  0  0  0  0  0  0
   16.2749    9.9652   -2.4051 C   0  0  0  0  0  0  0  0  0  0  0  0
   14.9024   10.1922   -2.3704 C   0  0  0  0  0  0  0  0  0  0  0  0
   14.2834   10.7066   -1.2064 C   0  0  0  0  0  0  0  0  0  0  0  0
   15.0761   10.9820   -0.0865 C   0  0  0  0  0  0  0  0  0  0  0  0
   14.2427    9.8694   -3.5435 C   0  0  0  0  0  0  0  0  0  0  0  0
   14.7985   10.6932   -4.6975 C   0  0  0  0  0  0  0  0  0  0  0  0
   14.3880    8.3947   -3.8859 C   0  0  0  0  0  0  0  0  0  0  0  0
   12.7619   10.1850   -3.2981 C   0  0  0  0  0  0  0  0  0  0  0  0
 14 15  1  0  0  0
 14  9  1  0  0  0
  8  9  2  0  0  0
  8  7  1  0  0  0
  9 10  1  0  0  0
  7  6  2  0  0  0
 10 11  2  0  0  0
  6 11  1  0  0  0
  6  5  1  0  0  0
 11 12  1  0  0  0
 16  5  1  0  0  0
 16 18  1  0  0  0
  5 13  1  0  0  0
 18 19  2  0  0  0
 18 17  1  0  0  0
 12 13  2  0  0  0
 13  1  1  0  0  0
  1  2  2  0  0  0
  1  3  1  0  0  0
  3 21  1  0  0  0
 23 21  2  0  0  0
 21 22  2  0  0  0
 21 24  1  0  0  0
 24 29  2  0  0  0
 24 25  1  0  0  0
 29 28  1  0  0  0
 25 26  2  0  0  0
 28 27  2  0  0  0
 26 27  1  0  0  0
 27 30  1  0  0  0
 31 30  1  0  0  0
 30 32  1  0  0  0
 30 33  1  0  0  0
 17 20  1  0  0  0
  3  4  1  0  0  0
M  END
> <minimizedAffinity>
-9.98425

$$$$
4MUF_2DJ_A_403


 33 35  0  0  0  0  0  0  0  0999 V2000
   16.1574   10.5736    1.3125 C   0  0  0  0  0  0  0  0  0  0  0  0
   16.7105    9.6642    1.9484 O   0  0  0  0  0  0  0  0  0  0  0  0
   16.0804   11.8273    1.7605 N   0  0  0  0  0  0  0  0  0  0  0  0
   15.6697   12.5535    1.2379 H   0  0  0  0  0  0  0  0  0  0  0  0
   16.5855   10.3151   -1.0009 N   0  0  0  0  0  0  0  0  0  0  0  0
   15.7910   10.2274   -2.0841 C   0  0  0  0  0  0  0  0  0  0  0  0
   16.1130   10.0799   -3.3790 C   0  0  0  0  0  0  0  0  0  0  0  0
   15.1354   10.0192   -4.3683 C   0  0  0  0  0  0  0  0  0  0  0  0
   13.7980   10.0892   -3.9953 C   0  0  0  0  0  0  0  0  0  0  0  0
   13.4997   10.2580   -2.6177 C   0  0  0  0  0  0  0  0  0  0  0  0
   14.4928   10.3166   -1.7002 C   0  0  0  0  0  0  0  0  0  0  0  0
   14.4758   10.4532   -0.3679 C   0  0  0  0  0  0  0  0  0  0  0  0
   15.7477   10.4204    0.0515 C   0  0  0  0  0  0  0  0  0  0  0  0
   12.8675   10.0362   -5.0019 O   0  0  0  0  0  0  0  0  0  0  0  0
   11.5375    9.6419   -4.7198 C   0  0  0  0  0  0  0  0  0  0  0  0
   18.0983   10.2084   -1.0750 C   0  0  0  0  0  0  0  0  0  0  0  0
   19.5519   10.5154    0.7693 O   0  0  0  0  0  0  0  0  0  0  0  0
   18.8490   11.0896   -0.1171 C   0  0  0  0  0  0  0  0  0  0  0  0
   18.7499   12.3151   -0.3259 O   0  0  0  0  0  0  0  0  0  0  0  0
   19.5501    9.5807    0.8358 H   0  0  0  0  0  0  0  0  0  0  0  0
   16.7159   12.0614    3.2321 S   0  0  0  0  0  0  0  0  0  0  0  0
   16.4624   13.5228    3.6963 O   0  0  0  0  0  0  0  0  0  0  0  0
   18.2190   11.7382    3.0914 O   0  0  0  0  0  0  0  0  0  0  0  0
   16.1388   10.9684    4.4049 C   0  0  0  0  0  0  0  0  0  0  0  0
   14.8083   11.0911    4.7365 C   0  0  0  0  0  0  0  0  0  0  0  0
   14.2607   10.2790    5.7030 C   0  0  0  0  0  0  0  0  0  0  0  0
   15.0526    9.3289    6.3410 C   0  0  0  0  0  0  0  0  0  0  0  0
   16.4233    9.1935    6.0159 C   0  0  0  0  0  0  0  0  0  0  0  0
   16.9707   10.0316    5.0380 C   0  0  0  0  0  0  0  0  0  0  0  0
   14.3803    8.5656    7.2795 C   0  0  0  0  0  0  0  0  0  0  0  0
   13.7723    7.3381    6.6140 C   0  0  0  0  0  0  0  0  0  0  0  0
   15.3020    8.1046    8.3980 C   0  0  0  0  0  0  0  0  0  0  0  0
   13.2937    9.4752    7.8663 C   0  0  0  0  0  0  0  0  0  0  0  0
 14 15  1  0  0  0
 14  9  1  0  0  0
  8  9  2  0  0  0
  8  7  1  0  0  0
  9 10  1  0  0  0
  7  6  2  0  0  0
 10 11  2  0  0  0
  6 11  1  0  0  0
  6  5  1  0  0  0
 11 12  1  0  0  0
 16  5  1  0  0  0
 16 18  1  0  0  0
  5 13  1  0  0  0
 18 19  2  0  0  0
 18 17  1  0  0  0
 12 13  2  0  0  0
 13  1  1  0  0  0
  1  2  2  0  0  0
  1  3  1  0  0  0
  3 21  1  0  0  0
 23 21  2  0  0  0
 21 22  2  0  0  0
 21 24  1  0  0  0
 24 29  2  0  0  0
 24 25  1  0  0  0
 29 28  1  0  0  0
 25 26  2  0  0  0
 28 27  2  0  0  0
 26 27  1  0  0  0
 27 30  1  0  0  0
 31 30  1  0  0  0
 30 32  1  0  0  0
 30 33  1  0  0  0
 17 20  1  0  0  0
  3  4  1  0  0  0
M  END
> <minimizedAffinity>
-9.66801

$$$$
4MUF_2DJ_A_403


 33 35  0  0  0  0  0  0  0  0999 V2000
   16.6444   10.3359    1.7782 C   0  0  0  0  0  0  0  0  0  0  0  0
   17.1852   11.3543    2.2341 O   0  0  0  0  0  0  0  0  0  0  0  0
   16.6498    9.1655    2.4174 N   0  0  0  0  0  0  0  0  0  0  0  0
   16.1910    8.3676    2.0679 H   0  0  0  0  0  0  0  0  0  0  0  0
   14.5179   10.4805    0.7493 N   0  0  0  0  0  0  0  0  0  0  0  0
   14.1033   10.4150   -0.5298 C   0  0  0  0  0  0  0  0  0  0  0  0
   12.8649   10.5070   -1.0398 C   0  0  0  0  0  0  0  0  0  0  0  0
   12.6333   10.4028   -2.4086 C   0  0  0  0  0  0  0  0  0  0  0  0
   13.7171   10.2239   -3.2607 C   0  0  0  0  0  0  0  0  0  0  0  0
   15.0086   10.1187   -2.6812 C   0  0  0  0  0  0  0  0  0  0  0  0
   15.1729   10.2218   -1.3418 C   0  0  0  0  0  0  0  0  0  0  0  0
   16.2635   10.1738   -0.5657 C   0  0  0  0  0  0  0  0  0  0  0  0
   15.8610   10.3623    0.6980 C   0  0  0  0  0  0  0  0  0  0  0  0
   13.4439   10.1155   -4.6007 O   0  0  0  0  0  0  0  0  0  0  0  0
   12.1581    9.7106   -5.0330 C   0  0  0  0  0  0  0  0  0  0  0  0
   13.5745   10.7334    1.9118 C   0  0  0  0  0  0  0  0  0  0  0  0
   11.7337    9.5530    2.8210 O   0  0  0  0  0  0  0  0  0  0  0  0
   12.9651    9.5021    2.5201 C   0  0  0  0  0  0  0  0  0  0  0  0
   13.7269    8.5196    2.6189 O   0  0  0  0  0  0  0  0  0  0  0  0
   11.2556   10.3504    2.7048 H   0  0  0  0  0  0  0  0  0  0  0  0
   17.4706    9.1596    3.8140 S   0  0  0  0  0  0  0  0  0  0  0  0
   18.6623   10.1542    3.7365 O   0  0  0  0  0  0  0  0  0  0  0  0
   17.9308    7.7002    4.0189 O   0  0  0  0  0  0  0  0  0  0  0  0
   16.5048    9.5112    5.1730 C   0  0  0  0  0  0  0  0  0  0  0  0
   16.7974    8.8028    6.3167 C   0  0  0  0  0  0  0  0  0  0  0  0
   16.0459    8.9889    7.4543 C   0  0  0  0  0  0  0  0  0  0  0  0
   14.9931    9.8990    7.4490 C   0  0  0  0  0  0  0  0  0  0  0  0
   14.6755   10.6311    6.2803 C   0  0  0  0  0  0  0  0  0  0  0  0
   15.4412   10.4260    5.1270 C   0  0  0  0  0  0  0  0  0  0  0  0
   14.3274   10.0056    8.6578 C   0  0  0  0  0  0  0  0  0  0  0  0
   15.3177   10.3153    9.7725 C   0  0  0  0  0  0  0  0  0  0  0  0
   13.2729   11.1012    8.6273 C   0  0  0  0  0  0  0  0  0  0  0  0
   13.6406    8.6531    8.8845 C   0  0  0  0  0  0  0  0  0  0  0  0
 14 15  1  0  0  0
 14  9  1  0  0  0
  8  9  2  0  0  0
  8  7  1  0  0  0
  9 10  1  0  0  0
  7  6  2  0  0  0
 10 11  2  0  0  0
  6 11  1  0  0  0
  6  5  1  0  0  0
 11 12  1  0  0  0
 16  5  1  0  0  0
 16 18  1  0  0  0
  5 13  1  0  0  0
 18 19  2  0  0  0
 18 17  1  0  0  0
 12 13  2  0  0  0
 13  1  1  0  0  0
  1  2  2  0  0  0
  1  3  1  0  0  0
  3 21  1  0  0  0
 23 21  2  0  0  0
 21 22  2  0  0  0
 21 24  1  0  0  0
 24 29  2  0  0  0
 24 25  1  0  0  0
 29 28  1  0  0  0
 25 26  2  0  0  0
 28 27  2  0  0  0
 26 27  1  0  0  0
 27 30  1  0  0  0
 31 30  1  0  0  0
 30 32  1  0  0  0
 30 33  1  0  0  0
 17 20  1  0  0  0
  3  4  1  0  0  0
M  END
> <minimizedAffinity>
-9.61310

$$$$
4MUF_2DJ_A_403


 33 35  0  0  0  0  0  0  0  0999 V2000
   16.6468    9.7668    3.2049 C   0  0  0  0  0  0  0  0  0  0  0  0
   17.5120    8.9634    2.8264 O   0  0  0  0  0  0  0  0  0  0  0  0
   16.2360   10.7931    2.4590 N   0  0  0  0  0  0  0  0  0  0  0  0
   15.5252   11.4094    2.7493 H   0  0  0  0  0  0  0  0  0  0  0  0
   14.6682    9.0871    4.3117 N   0  0  0  0  0  0  0  0  0  0  0  0
   14.2802    9.0961    5.6007 C   0  0  0  0  0  0  0  0  0  0  0  0
   13.1281    8.6884    6.1565 C   0  0  0  0  0  0  0  0  0  0  0  0
   12.9070    8.7898    7.5272 C   0  0  0  0  0  0  0  0  0  0  0  0
   13.9164    9.3031    8.3336 C   0  0  0  0  0  0  0  0  0  0  0  0
   15.1143    9.7347    7.7060 C   0  0  0  0  0  0  0  0  0  0  0  0
   15.2711    9.6172    6.3669 C   0  0  0  0  0  0  0  0  0  0  0  0
   16.2876    9.9288    5.5523 C   0  0  0  0  0  0  0  0  0  0  0  0
   15.9259    9.5757    4.3118 C   0  0  0  0  0  0  0  0  0  0  0  0
   13.6535    9.3954    9.6768 O   0  0  0  0  0  0  0  0  0  0  0  0
   14.0496   10.5457   10.4007 C   0  0  0  0  0  0  0  0  0  0  0  0
   13.8072    8.5268    3.1935 C   0  0  0  0  0  0  0  0  0  0  0  0
   12.9884   10.7268    2.8800 O   0  0  0  0  0  0  0  0  0  0  0  0
   12.8470    9.5034    2.5755 C   0  0  0  0  0  0  0  0  0  0  0  0
   12.0300    9.0149    1.7697 O   0  0  0  0  0  0  0  0  0  0  0  0
   13.6400   10.9822    3.5031 H   0  0  0  0  0  0  0  0  0  0  0  0
   16.9984   10.9463    1.0379 S   0  0  0  0  0  0  0  0  0  0  0  0
   18.2792   10.0662    1.0222 O   0  0  0  0  0  0  0  0  0  0  0  0
   17.3132   12.4510    0.8957 O   0  0  0  0  0  0  0  0  0  0  0  0
   16.0178   10.5732   -0.3047 C   0  0  0  0  0  0  0  0  0  0  0  0
   16.6830   10.3402   -1.4874 C   0  0  0  0  0  0  0  0  0  0  0  0
   15.9741   10.0706   -2.6356 C   0  0  0  0  0  0  0  0  0  0  0  0
   14.5836   10.0278   -2.5985 C   0  0  0  0  0  0  0  0  0  0  0  0
   13.8843   10.2704   -1.3923 C   0  0  0  0  0  0  0  0  0  0  0  0
   14.6161   10.5527   -0.2334 C   0  0  0  0  0  0  0  0  0  0  0  0
   13.9911    9.7309   -3.8135 C   0  0  0  0  0  0  0  0  0  0  0  0
   14.1486    8.2478   -4.1215 C   0  0  0  0  0  0  0  0  0  0  0  0
   12.5091   10.0727   -3.8179 C   0  0  0  0  0  0  0  0  0  0  0  0
   14.7093   10.5947   -4.8579 C   0  0  0  0  0  0  0  0  0  0  0  0
 14 15  1  0  0  0
 14  9  1  0  0  0
  8  9  2  0  0  0
  8  7  1  0  0  0
  9 10  1  0  0  0
  7  6  2  0  0  0
 10 11  2  0  0  0
  6 11  1  0  0  0
  6  5  1  0  0  0
 11 12  1  0  0  0
 16  5  1  0  0  0
 16 18  1  0  0  0
  5 13  1  0  0  0
 18 19  2  0  0  0
 18 17  1  0  0  0
 12 13  2  0  0  0
 13  1  1  0  0  0
  1  2  2  0  0  0
  1  3  1  0  0  0
  3 21  1  0  0  0
 23 21  2  0  0  0
 21 22  2  0  0  0
 21 24  1  0  0  0
 24 29  2  0  0  0
 24 25  1  0  0  0
 29 28  1  0  0  0
 25 26  2  0  0  0
 28 27  2  0  0  0
 26 27  1  0  0  0
 27 30  1  0  0  0
 31 30  1  0  0  0
 30 32  1  0  0  0
 30 33  1  0  0  0
 17 20  1  0  0  0
  3  4  1  0  0  0
M  END
> <minimizedAffinity>
-9.42444

$$$$
4MUF_2DJ_A_403


 33 35  0  0  0  0  0  0  0  0999 V2000
   16.9274   10.4961    2.1688 C   0  0  0  0  0  0  0  0  0  0  0  0
   16.3866   11.5232    1.7330 O   0  0  0  0  0  0  0  0  0  0  0  0
   16.2675    9.3516    2.3503 N   0  0  0  0  0  0  0  0  0  0  0  0
   16.7076    8.5291    2.6651 H   0  0  0  0  0  0  0  0  0  0  0  0
   19.0973   10.0501    1.3355 N   0  0  0  0  0  0  0  0  0  0  0  0
   20.3162   10.0087    1.9055 C   0  0  0  0  0  0  0  0  0  0  0  0
   21.5141    9.7453    1.3597 C   0  0  0  0  0  0  0  0  0  0  0  0
   22.6762    9.7396    2.1261 C   0  0  0  0  0  0  0  0  0  0  0  0
   22.5880   10.0383    3.4809 C   0  0  0  0  0  0  0  0  0  0  0  0
   21.3018   10.2985    4.0222 C   0  0  0  0  0  0  0  0  0  0  0  0
   20.2051   10.2844    3.2293 C   0  0  0  0  0  0  0  0  0  0  0  0
   18.9097   10.5069    3.4865 C   0  0  0  0  0  0  0  0  0  0  0  0
   18.2487   10.3932    2.3268 C   0  0  0  0  0  0  0  0  0  0  0  0
   23.7551   10.0113    4.2015 O   0  0  0  0  0  0  0  0  0  0  0  0
   23.9317   10.8861    5.3004 C   0  0  0  0  0  0  0  0  0  0  0  0
   18.8718    9.8291   -0.1496 C   0  0  0  0  0  0  0  0  0  0  0  0
   17.6737   10.9210   -1.8762 O   0  0  0  0  0  0  0  0  0  0  0  0
   18.5089   11.0599   -0.9313 C   0  0  0  0  0  0  0  0  0  0  0  0
   19.0291   12.1209   -0.5327 O   0  0  0  0  0  0  0  0  0  0  0  0
   17.3466   10.0696   -2.0910 H   0  0  0  0  0  0  0  0  0  0  0  0
   14.6847    9.4208    2.0123 S   0  0  0  0  0  0  0  0  0  0  0  0
   14.0237   10.5923    2.7909 O   0  0  0  0  0  0  0  0  0  0  0  0
   14.1132    8.0450    2.4171 O   0  0  0  0  0  0  0  0  0  0  0  0
   14.3494    9.5641    0.3479 C   0  0  0  0  0  0  0  0  0  0  0  0
   14.9853    8.6596   -0.4725 C   0  0  0  0  0  0  0  0  0  0  0  0
   14.8081    8.7219   -1.8357 C   0  0  0  0  0  0  0  0  0  0  0  0
   13.9802    9.6971   -2.3838 C   0  0  0  0  0  0  0  0  0  0  0  0
   13.3236   10.6377   -1.5551 C   0  0  0  0  0  0  0  0  0  0  0  0
   13.5191   10.5699   -0.1711 C   0  0  0  0  0  0  0  0  0  0  0  0
   13.8729    9.6426   -3.7625 C   0  0  0  0  0  0  0  0  0  0  0  0
   14.2525    8.2543   -4.2603 C   0  0  0  0  0  0  0  0  0  0  0  0
   12.4609    9.9571   -4.2322 C   0  0  0  0  0  0  0  0  0  0  0  0
   14.8324   10.7091   -4.3051 C   0  0  0  0  0  0  0  0  0  0  0  0
 14 15  1  0  0  0
 14  9  1  0  0  0
  8  9  2  0  0  0
  8  7  1  0  0  0
  9 10  1  0  0  0
  7  6  2  0  0  0
 10 11  2  0  0  0
  6 11  1  0  0  0
  6  5  1  0  0  0
 11 12  1  0  0  0
 16  5  1  0  0  0
 16 18  1  0  0  0
  5 13  1  0  0  0
 18 19  2  0  0  0
 18 17  1  0  0  0
 12 13  2  0  0  0
 13  1  1  0  0  0
  1  2  2  0  0  0
  1  3  1  0  0  0
  3 21  1  0  0  0
 23 21  2  0  0  0
 21 22  2  0  0  0
 21 24  1  0  0  0
 24 29  2  0  0  0
 24 25  1  0  0  0
 29 28  1  0  0  0
 25 26  2  0  0  0
 28 27  2  0  0  0
 26 27  1  0  0  0
 27 30  1  0  0  0
 31 30  1  0  0  0
 30 32  1  0  0  0
 30 33  1  0  0  0
 17 20  1  0  0  0
  3  4  1  0  0  0
M  END
> <minimizedAffinity>
-9.25701

$$$$
4MUF_2DJ_A_403


 33 35  0  0  0  0  0  0  0  0999 V2000
   18.2096   10.6793    0.8257 C   0  0  0  0  0  0  0  0  0  0  0  0
   18.0201   10.7225    2.0502 O   0  0  0  0  0  0  0  0  0  0  0  0
   19.4224   10.5561    0.2847 N   0  0  0  0  0  0  0  0  0  0  0  0
   19.5659   10.4887   -0.6869 H   0  0  0  0  0  0  0  0  0  0  0  0
   15.9079   10.5158    0.2996 N   0  0  0  0  0  0  0  0  0  0  0  0
   15.2318   10.3628   -0.8545 C   0  0  0  0  0  0  0  0  0  0  0  0
   13.9101   10.2777   -1.0739 C   0  0  0  0  0  0  0  0  0  0  0  0
   13.3961   10.1080   -2.3565 C   0  0  0  0  0  0  0  0  0  0  0  0
   14.2771   10.0509   -3.4303 C   0  0  0  0  0  0  0  0  0  0  0  0
   15.6673   10.1318   -3.1550 C   0  0  0  0  0  0  0  0  0  0  0  0
   16.1100   10.2907   -1.8861 C   0  0  0  0  0  0  0  0  0  0  0  0
   17.3422   10.4070   -1.3741 C   0  0  0  0  0  0  0  0  0  0  0  0
   17.2093   10.5740   -0.0516 C   0  0  0  0  0  0  0  0  0  0  0  0
   13.7298    9.8724   -4.6755 O   0  0  0  0  0  0  0  0  0  0  0  0
   12.3397    9.6434   -4.8142 C   0  0  0  0  0  0  0  0  0  0  0  0
   15.2214   10.6729    1.6447 C   0  0  0  0  0  0  0  0  0  0  0  0
   15.8671    8.5980    2.5863 O   0  0  0  0  0  0  0  0  0  0  0  0
   14.9014    9.3870    2.3532 C   0  0  0  0  0  0  0  0  0  0  0  0
   13.7107    9.2460    2.6964 O   0  0  0  0  0  0  0  0  0  0  0  0
   16.7271    8.8062    2.2781 H   0  0  0  0  0  0  0  0  0  0  0  0
   20.6407   10.5261    1.3519 S   0  0  0  0  0  0  0  0  0  0  0  0
   20.3516   11.5104    2.5193 O   0  0  0  0  0  0  0  0  0  0  0  0
   21.9032   10.9126    0.5516 O   0  0  0  0  0  0  0  0  0  0  0  0
   20.9688    8.9715    1.9674 C   0  0  0  0  0  0  0  0  0  0  0  0
   20.1753    8.5609    3.0148 C   0  0  0  0  0  0  0  0  0  0  0  0
   20.3909    7.3365    3.6046 C   0  0  0  0  0  0  0  0  0  0  0  0
   21.4089    6.5109    3.1368 C   0  0  0  0  0  0  0  0  0  0  0  0
   22.2372    6.9201    2.0648 C   0  0  0  0  0  0  0  0  0  0  0  0
   22.0139    8.1715    1.4795 C   0  0  0  0  0  0  0  0  0  0  0  0
   21.5115    5.3017    3.8024 C   0  0  0  0  0  0  0  0  0  0  0  0
   20.2979    5.0958    4.6990 C   0  0  0  0  0  0  0  0  0  0  0  0
   21.6051    4.1311    2.8360 C   0  0  0  0  0  0  0  0  0  0  0  0
   22.8036    5.3788    4.6252 C   0  0  0  0  0  0  0  0  0  0  0  0
 14 15  1  0  0  0
 14  9  1  0  0  0
  8  9  2  0  0  0
  8  7  1  0  0  0
  9 10  1  0  0  0
  7  6  2  0  0  0
 10 11  2  0  0  0
  6 11  1  0  0  0
  6  5  1  0  0  0
 11 12  1  0  0  0
 16  5  1  0  0  0
 16 18  1  0  0  0
  5 13  1  0  0  0
 18 19  2  0  0  0
 18 17  1  0  0  0
 12 13  2  0  0  0
 13  1  1  0  0  0
  1  2  2  0  0  0
  1  3  1  0  0  0
  3 21  1  0  0  0
 23 21  2  0  0  0
 21 22  2  0  0  0
 21 24  1  0  0  0
 24 29  2  0  0  0
 24 25  1  0  0  0
 29 28  1  0  0  0
 25 26  2  0  0  0
 28 27  2  0  0  0
 26 27  1  0  0  0
 27 30  1  0  0  0
 31 30  1  0  0  0
 30 32  1  0  0  0
 30 33  1  0  0  0
 17 20  1  0  0  0
  3  4  1  0  0  0
M  END
> <minimizedAffinity>
-8.92379

$$$$
4MUF_2DJ_A_403


 33 35  0  0  0  0  0  0  0  0999 V2000
   17.1564   10.7900    3.2871 C   0  0  0  0  0  0  0  0  0  0  0  0
   18.2129   11.4331    3.2000 O   0  0  0  0  0  0  0  0  0  0  0  0
   16.4745   10.3699    2.2208 N   0  0  0  0  0  0  0  0  0  0  0  0
   15.6538    9.8311    2.2940 H   0  0  0  0  0  0  0  0  0  0  0  0
   17.1125    9.1434    4.9867 N   0  0  0  0  0  0  0  0  0  0  0  0
   16.3902    8.9964    6.1131 C   0  0  0  0  0  0  0  0  0  0  0  0
   16.4237    8.0231    7.0372 C   0  0  0  0  0  0  0  0  0  0  0  0
   15.5787    8.0422    8.1434 C   0  0  0  0  0  0  0  0  0  0  0  0
   14.7011    9.1091    8.2990 C   0  0  0  0  0  0  0  0  0  0  0  0
   14.6874   10.1111    7.2936 C   0  0  0  0  0  0  0  0  0  0  0  0
   15.5284   10.0370    6.2359 C   0  0  0  0  0  0  0  0  0  0  0  0
   15.7188   10.8432    5.1835 C   0  0  0  0  0  0  0  0  0  0  0  0
   16.7025   10.3100    4.4468 C   0  0  0  0  0  0  0  0  0  0  0  0
   13.8790    9.0836    9.3970 O   0  0  0  0  0  0  0  0  0  0  0  0
   13.4757   10.2940   10.0106 C   0  0  0  0  0  0  0  0  0  0  0  0
   18.2019    8.1709    4.5709 C   0  0  0  0  0  0  0  0  0  0  0  0
   19.8388    8.0560    6.2785 O   0  0  0  0  0  0  0  0  0  0  0  0
   19.5705    8.4748    5.1114 C   0  0  0  0  0  0  0  0  0  0  0  0
   20.3371    9.0683    4.3269 O   0  0  0  0  0  0  0  0  0  0  0  0
   19.1803    7.6199    6.7827 H   0  0  0  0  0  0  0  0  0  0  0  0
   17.1026   10.8159    0.7957 S   0  0  0  0  0  0  0  0  0  0  0  0
   18.4628   10.1003    0.5649 O   0  0  0  0  0  0  0  0  0  0  0  0
   17.2470   12.3513    0.8679 O   0  0  0  0  0  0  0  0  0  0  0  0
   16.0635   10.5334   -0.5248 C   0  0  0  0  0  0  0  0  0  0  0  0
   16.6509    9.9902   -1.6452 C   0  0  0  0  0  0  0  0  0  0  0  0
   15.9003    9.7633   -2.7761 C   0  0  0  0  0  0  0  0  0  0  0  0
   14.5448   10.0782   -2.7836 C   0  0  0  0  0  0  0  0  0  0  0  0
   13.9267   10.6422   -1.6423 C   0  0  0  0  0  0  0  0  0  0  0  0
   14.7027   10.8769   -0.5016 C   0  0  0  0  0  0  0  0  0  0  0  0
   13.9000    9.7872   -3.9732 C   0  0  0  0  0  0  0  0  0  0  0  0
   12.4053   10.0430   -3.8319 C   0  0  0  0  0  0  0  0  0  0  0  0
   14.4296   10.6293   -5.1236 C   0  0  0  0  0  0  0  0  0  0  0  0
   14.1859    8.3078   -4.2598 C   0  0  0  0  0  0  0  0  0  0  0  0
 14 15  1  0  0  0
 14  9  1  0  0  0
  8  9  2  0  0  0
  8  7  1  0  0  0
  9 10  1  0  0  0
  7  6  2  0  0  0
 10 11  2  0  0  0
  6 11  1  0  0  0
  6  5  1  0  0  0
 11 12  1  0  0  0
 16  5  1  0  0  0
 16 18  1  0  0  0
  5 13  1  0  0  0
 18 19  2  0  0  0
 18 17  1  0  0  0
 12 13  2  0  0  0
 13  1  1  0  0  0
  1  2  2  0  0  0
  1  3  1  0  0  0
  3 21  1  0  0  0
 23 21  2  0  0  0
 21 22  2  0  0  0
 21 24  1  0  0  0
 24 29  2  0  0  0
 24 25  1  0  0  0
 29 28  1  0  0  0
 25 26  2  0  0  0
 28 27  2  0  0  0
 26 27  1  0  0  0
 27 30  1  0  0  0
 31 30  1  0  0  0
 30 32  1  0  0  0
 30 33  1  0  0  0
 17 20  1  0  0  0
  3  4  1  0  0  0
M  END
> <minimizedAffinity>
-8.83144

$$$$
4MUF_2DJ_A_403


 33 35  0  0  0  0  0  0  0  0999 V2000
   19.8109   10.0966   -0.2400 C   0  0  0  0  0  0  0  0  0  0  0  0
   20.5696   11.0726   -0.1440 O   0  0  0  0  0  0  0  0  0  0  0  0
   20.2172    8.8417   -0.0438 N   0  0  0  0  0  0  0  0  0  0  0  0
   19.6047    8.0722   -0.0883 H   0  0  0  0  0  0  0  0  0  0  0  0
   17.6440   10.3884    0.6662 N   0  0  0  0  0  0  0  0  0  0  0  0
   16.4125   10.4268    0.1239 C   0  0  0  0  0  0  0  0  0  0  0  0
   15.2175   10.5983    0.7112 C   0  0  0  0  0  0  0  0  0  0  0  0
   14.0379   10.5978   -0.0282 C   0  0  0  0  0  0  0  0  0  0  0  0
   14.1107   10.4398   -1.4075 C   0  0  0  0  0  0  0  0  0  0  0  0
   15.3917   10.2485   -1.9884 C   0  0  0  0  0  0  0  0  0  0  0  0
   16.5046   10.2523   -1.2183 C   0  0  0  0  0  0  0  0  0  0  0  0
   17.8025   10.1115   -1.5175 C   0  0  0  0  0  0  0  0  0  0  0  0
   18.4892   10.2260   -0.3729 C   0  0  0  0  0  0  0  0  0  0  0  0
   12.9245   10.4346   -2.0967 O   0  0  0  0  0  0  0  0  0  0  0  0
   12.9056   10.1142   -3.4755 C   0  0  0  0  0  0  0  0  0  0  0  0
   17.9009   10.5936    2.1486 C   0  0  0  0  0  0  0  0  0  0  0  0
   17.4635   12.2656    3.7677 O   0  0  0  0  0  0  0  0  0  0  0  0
   17.9079   12.0254    2.6040 C   0  0  0  0  0  0  0  0  0  0  0  0
   18.4086   12.8402    1.8034 O   0  0  0  0  0  0  0  0  0  0  0  0
   17.1064   11.5710    4.2854 H   0  0  0  0  0  0  0  0  0  0  0  0
   21.7978    8.6827    0.2736 S   0  0  0  0  0  0  0  0  0  0  0  0
   22.6242    9.6199   -0.6505 O   0  0  0  0  0  0  0  0  0  0  0  0
   22.1196    7.1906    0.0425 O   0  0  0  0  0  0  0  0  0  0  0  0
   22.1973    8.9715    1.9046 C   0  0  0  0  0  0  0  0  0  0  0  0
   22.1102    7.8847    2.7454 C   0  0  0  0  0  0  0  0  0  0  0  0
   22.3748    8.0286    4.0881 C   0  0  0  0  0  0  0  0  0  0  0  0
   22.7366    9.2735    4.5942 C   0  0  0  0  0  0  0  0  0  0  0  0
   22.8254   10.4018    3.7447 C   0  0  0  0  0  0  0  0  0  0  0  0
   22.5447   10.2446    2.3828 C   0  0  0  0  0  0  0  0  0  0  0  0
   22.9919    9.2820    5.9545 C   0  0  0  0  0  0  0  0  0  0  0  0
   24.1542    8.3506    6.2723 C   0  0  0  0  0  0  0  0  0  0  0  0
   23.3361   10.6759    6.4560 C   0  0  0  0  0  0  0  0  0  0  0  0
   21.6996    8.8090    6.6316 C   0  0  0  0  0  0  0  0  0  0  0  0
 14 15  1  0  0  0
 14  9  1  0  0  0
  8  9  2  0  0  0
  8  7  1  0  0  0
  9 10  1  0  0  0
  7  6  2  0  0  0
 10 11  2  0  0  0
  6 11  1  0  0  0
  6  5  1  0  0  0
 11 12  1  0  0  0
 16  5  1  0  0  0
 16 18  1  0  0  0
  5 13  1  0  0  0
 18 19  2  0  0  0
 18 17  1  0  0  0
 12 13  2  0  0  0
 13  1  1  0  0  0
  1  2  2  0  0  0
  1  3  1  0  0  0
  3 21  1  0  0  0
 23 21  2  0  0  0
 21 22  2  0  0  0
 21 24  1  0  0  0
 24 29  2  0  0  0
 24 25  1  0  0  0
 29 28  1  0  0  0
 25 26  2  0  0  0
 28 27  2  0  0  0
 26 27  1  0  0  0
 27 30  1  0  0  0
 31 30  1  0  0  0
 30 32  1  0  0  0
 30 33  1  0  0  0
 17 20  1  0  0  0
  3  4  1  0  0  0
M  END
> <minimizedAffinity>
-8.71928

$$$$
4MUF_2DJ_A_403


 33 35  0  0  0  0  0  0  0  0999 V2000
   16.9550   10.6823    1.7333 C   0  0  0  0  0  0  0  0  0  0  0  0
   16.7982   11.6348    2.5113 O   0  0  0  0  0  0  0  0  0  0  0  0
   17.7175    9.6276    2.0245 N   0  0  0  0  0  0  0  0  0  0  0  0
   17.8131    8.8580    1.4181 H   0  0  0  0  0  0  0  0  0  0  0  0
   16.7807   10.4922   -0.6194 N   0  0  0  0  0  0  0  0  0  0  0  0
   15.7371   10.4019   -1.4649 C   0  0  0  0  0  0  0  0  0  0  0  0
   15.7191   10.2956   -2.8031 C   0  0  0  0  0  0  0  0  0  0  0  0
   14.5220   10.2237   -3.5101 C   0  0  0  0  0  0  0  0  0  0  0  0
   13.3242   10.2385   -2.8047 C   0  0  0  0  0  0  0  0  0  0  0  0
   13.3857   10.3649   -1.3921 C   0  0  0  0  0  0  0  0  0  0  0  0
   14.5793   10.4370   -0.7585 C   0  0  0  0  0  0  0  0  0  0  0  0
   14.9019   10.5422    0.5372 C   0  0  0  0  0  0  0  0  0  0  0  0
   16.2392   10.5440    0.6153 C   0  0  0  0  0  0  0  0  0  0  0  0
   12.1679   10.1763   -3.5403 O   0  0  0  0  0  0  0  0  0  0  0  0
   12.1986    9.6990   -4.8727 C   0  0  0  0  0  0  0  0  0  0  0  0
   18.2259   10.4400   -1.0821 C   0  0  0  0  0  0  0  0  0  0  0  0
   18.6218   12.6499   -0.3283 O   0  0  0  0  0  0  0  0  0  0  0  0
   19.1219   11.4968   -0.5007 C   0  0  0  0  0  0  0  0  0  0  0  0
   20.2678   11.1160   -0.1888 O   0  0  0  0  0  0  0  0  0  0  0  0
   17.7436   12.8256   -0.6037 H   0  0  0  0  0  0  0  0  0  0  0  0
   18.4739    9.7122    3.4545 S   0  0  0  0  0  0  0  0  0  0  0  0
   17.4343    9.6951    4.6097 O   0  0  0  0  0  0  0  0  0  0  0  0
   19.2919   11.0210    3.4147 O   0  0  0  0  0  0  0  0  0  0  0  0
   19.6269    8.4798    3.6891 C   0  0  0  0  0  0  0  0  0  0  0  0
   20.6171    8.3950    2.7364 C   0  0  0  0  0  0  0  0  0  0  0  0
   21.5705    7.4061    2.8189 C   0  0  0  0  0  0  0  0  0  0  0  0
   21.5359    6.4952    3.8704 C   0  0  0  0  0  0  0  0  0  0  0  0
   20.5218    6.5649    4.8549 C   0  0  0  0  0  0  0  0  0  0  0  0
   19.5524    7.5693    4.7549 C   0  0  0  0  0  0  0  0  0  0  0  0
   22.5580    5.5622    3.8484 C   0  0  0  0  0  0  0  0  0  0  0  0
   23.3560    5.6938    2.5579 C   0  0  0  0  0  0  0  0  0  0  0  0
   23.5062    5.7351    5.0249 C   0  0  0  0  0  0  0  0  0  0  0  0
   21.8812    4.1893    3.9457 C   0  0  0  0  0  0  0  0  0  0  0  0
 14 15  1  0  0  0
 14  9  1  0  0  0
  8  9  2  0  0  0
  8  7  1  0  0  0
  9 10  1  0  0  0
  7  6  2  0  0  0
 10 11  2  0  0  0
  6 11  1  0  0  0
  6  5  1  0  0  0
 11 12  1  0  0  0
 16  5  1  0  0  0
 16 18  1  0  0  0
  5 13  1  0  0  0
 18 19  2  0  0  0
 18 17  1  0  0  0
 12 13  2  0  0  0
 13  1  1  0  0  0
  1  2  2  0  0  0
  1  3  1  0  0  0
  3 21  1  0  0  0
 23 21  2  0  0  0
 21 22  2  0  0  0
 21 24  1  0  0  0
 24 29  2  0  0  0
 24 25  1  0  0  0
 29 28  1  0  0  0
 25 26  2  0  0  0
 28 27  2  0  0  0
 26 27  1  0  0  0
 27 30  1  0  0  0
 31 30  1  0  0  0
 30 32  1  0  0  0
 30 33  1  0  0  0
 17 20  1  0  0  0
  3  4  1  0  0  0
M  END
> <minimizedAffinity>
-8.68638

$$$$
4MUF_2DJ_A_403


 33 35  0  0  0  0  0  0  0  0999 V2000
   16.9165   10.0441    3.3721 C   0  0  0  0  0  0  0  0  0  0  0  0
   16.6413   11.0875    3.9828 O   0  0  0  0  0  0  0  0  0  0  0  0
   16.0160    9.0928    3.1219 N   0  0  0  0  0  0  0  0  0  0  0  0
   16.2304    8.2809    2.6080 H   0  0  0  0  0  0  0  0  0  0  0  0
   18.4020   10.4021    1.5648 N   0  0  0  0  0  0  0  0  0  0  0  0
   19.6327    9.9403    1.2740 C   0  0  0  0  0  0  0  0  0  0  0  0
   20.4200   10.1929    0.2164 C   0  0  0  0  0  0  0  0  0  0  0  0
   21.6744    9.6031    0.0872 C   0  0  0  0  0  0  0  0  0  0  0  0
   22.1235    8.7543    1.0924 C   0  0  0  0  0  0  0  0  0  0  0  0
   21.2560    8.5031    2.1876 C   0  0  0  0  0  0  0  0  0  0  0  0
   20.0437    9.1006    2.2571 C   0  0  0  0  0  0  0  0  0  0  0  0
   19.0668    9.0433    3.1716 C   0  0  0  0  0  0  0  0  0  0  0  0
   18.0877    9.8594    2.7594 C   0  0  0  0  0  0  0  0  0  0  0  0
   23.3603    8.1861    0.9208 O   0  0  0  0  0  0  0  0  0  0  0  0
   23.7462    7.6948   -0.3495 C   0  0  0  0  0  0  0  0  0  0  0  0
   17.6657   11.4001    0.6888 C   0  0  0  0  0  0  0  0  0  0  0  0
   17.6813   13.2400    2.1798 O   0  0  0  0  0  0  0  0  0  0  0  0
   17.9344   12.8451    1.0011 C   0  0  0  0  0  0  0  0  0  0  0  0
   18.4392   13.5091    0.0739 O   0  0  0  0  0  0  0  0  0  0  0  0
   17.2983   12.6505    2.7993 H   0  0  0  0  0  0  0  0  0  0  0  0
   14.5419    9.3780    3.7299 S   0  0  0  0  0  0  0  0  0  0  0  0
   13.5423    8.2955    3.2353 O   0  0  0  0  0  0  0  0  0  0  0  0
   14.1625   10.7958    3.2512 O   0  0  0  0  0  0  0  0  0  0  0  0
   14.5121    9.4655    5.4313 C   0  0  0  0  0  0  0  0  0  0  0  0
   14.5393    8.2595    6.0949 C   0  0  0  0  0  0  0  0  0  0  0  0
   14.4783    8.2271    7.4692 C   0  0  0  0  0  0  0  0  0  0  0  0
   14.3951    9.4158    8.1881 C   0  0  0  0  0  0  0  0  0  0  0  0
   14.3605   10.6636    7.5213 C   0  0  0  0  0  0  0  0  0  0  0  0
   14.4137   10.6829    6.1230 C   0  0  0  0  0  0  0  0  0  0  0  0
   14.3568    9.2484    9.5614 C   0  0  0  0  0  0  0  0  0  0  0  0
   15.1793   10.3346   10.2419 C   0  0  0  0  0  0  0  0  0  0  0  0
   12.9351    9.3083   10.0984 C   0  0  0  0  0  0  0  0  0  0  0  0
   14.9394    7.8563    9.8354 C   0  0  0  0  0  0  0  0  0  0  0  0
 14 15  1  0  0  0
 14  9  1  0  0  0
  8  9  2  0  0  0
  8  7  1  0  0  0
  9 10  1  0  0  0
  7  6  2  0  0  0
 10 11  2  0  0  0
  6 11  1  0  0  0
  6  5  1  0  0  0
 11 12  1  0  0  0
 16  5  1  0  0  0
 16 18  1  0  0  0
  5 13  1  0  0  0
 18 19  2  0  0  0
 18 17  1  0  0  0
 12 13  2  0  0  0
 13  1  1  0  0  0
  1  2  2  0  0  0
  1  3  1  0  0  0
  3 21  1  0  0  0
 23 21  2  0  0  0
 21 22  2  0  0  0
 21 24  1  0  0  0
 24 29  2  0  0  0
 24 25  1  0  0  0
 29 28  1  0  0  0
 25 26  2  0  0  0
 28 27  2  0  0  0
 26 27  1  0  0  0
 27 30  1  0  0  0
 31 30  1  0  0  0
 30 32  1  0  0  0
 30 33  1  0  0  0
 17 20  1  0  0  0
  3  4  1  0  0  0
M  END
> <minimizedAffinity>
-8.58609

$$$$
