5G57_6M5_A_1931


 44 49  0  0  0  0  0  0  0  0999 V2000
   28.0017   11.7513   -0.5750 C   0  0  0  0  0  0  0  0  0  0  0  0
   28.0499   11.7212   -1.9847 C   0  0  0  0  0  0  0  0  0  0  0  0
   28.0845   14.1460   -2.0084 C   0  0  0  0  0  0  0  0  0  0  0  0
   28.0582   14.1624   -0.6202 C   0  0  0  0  0  0  0  0  0  0  0  0
   27.9997   12.9725    0.0882 C   0  0  0  0  0  0  0  0  0  0  0  0
   28.1157   12.9197   -2.6799 C   0  0  0  0  0  0  0  0  0  0  0  0
   27.0631   15.8484   -3.3200 N   0  0  0  0  0  0  0  0  0  0  0  0
   31.1515   16.4565   -4.9590 C   0  0  0  0  0  0  0  0  0  0  0  0
   28.1842   18.8100   -4.9435 O   0  0  0  0  0  0  0  0  0  0  0  0
   28.1600   17.8678   -4.1499 C   0  0  0  0  0  0  0  0  0  0  0  0
   27.1240   16.9427   -4.1540 N   0  0  0  0  0  0  0  0  0  0  0  0
   29.2676   17.6038   -3.1680 C   0  0  0  0  0  0  0  0  0  0  0  0
   29.4916   16.0790   -3.0679 C   0  0  0  0  0  0  0  0  0  0  0  0
   30.0922   15.5760   -4.3897 C   0  0  0  0  0  0  0  0  0  0  0  0
   31.3096   17.7183   -4.6040 C   0  0  0  0  0  0  0  0  0  0  0  0
   30.5770   18.3445   -3.4620 C   0  0  0  0  0  0  0  0  0  0  0  0
   28.1529   15.4011   -2.8053 C   0  0  0  0  0  0  0  0  0  0  0  0
   25.1564   15.8045   -5.0962 C   0  0  0  0  0  0  0  0  0  0  0  0
   25.9568   17.0976   -5.0473 C   0  0  0  0  0  0  0  0  0  0  0  0
   25.1750   18.3425   -4.6343 C   0  0  0  0  0  0  0  0  0  0  0  0
   24.3861   19.0373   -5.7432 C   0  0  0  0  0  0  0  0  0  0  0  0
   23.4343   18.1895   -6.5917 C   0  0  0  0  0  0  0  0  0  0  0  0
   23.0288   16.8417   -5.9979 C   0  0  0  0  0  0  0  0  0  0  0  0
   24.0705   15.7567   -6.1665 C   0  0  0  0  0  0  0  0  0  0  0  0
   27.9693   10.5307    0.0436 O   0  0  0  0  0  0  0  0  0  0  0  0
   26.8610   10.2656    0.9185 C   0  0  0  0  0  0  0  0  0  0  0  0
   28.0493   10.4824   -2.5931 O   0  0  0  0  0  0  0  0  0  0  0  0
   27.0025   10.1716   -3.5359 C   0  0  0  0  0  0  0  0  0  0  0  0
   25.8786    9.4518   -2.8241 C   0  0  0  0  0  0  0  0  0  0  0  0
   26.3249    8.1895   -2.1116 C   0  0  0  0  0  0  0  0  0  0  0  0
   25.7342    6.9130   -2.6474 C   0  0  0  0  0  0  0  0  0  0  0  0
   26.6952    6.2384   -3.4825 O   0  0  0  0  0  0  0  0  0  0  0  0
   26.4405    6.1679   -4.8289 C   0  0  0  0  0  0  0  0  0  0  0  0
   26.9318    7.0883   -5.7483 C   0  0  0  0  0  0  0  0  0  0  0  0
   25.8835    5.8693   -7.5329 C   0  0  0  0  0  0  0  0  0  0  0  0
   25.6881    5.0882   -5.2647 C   0  0  0  0  0  0  0  0  0  0  0  0
   25.4173    4.9391   -6.6099 C   0  0  0  0  0  0  0  0  0  0  0  0
   26.6359    6.9478   -7.0886 C   0  0  0  0  0  0  0  0  0  0  0  0
   24.5774    5.4294  -10.8490 N   0  0  0  0  0  0  0  0  0  0  0  0
   25.8501    5.4725  -11.0773 N   0  0  0  0  0  0  0  0  0  0  0  0
   26.5277    5.6231   -9.9099 N   0  0  0  0  0  0  0  0  0  0  0  0
   25.6142    5.6973   -8.9551 C   0  0  0  0  0  0  0  0  0  0  0  0
   24.4119    5.5590   -9.5221 N   0  0  0  0  0  0  0  0  0  0  0  0
   27.5046    5.6682   -9.7965 H   0  0  0  0  0  0  0  0  0  0  0  0
 23 24  1  0  0  0
 23 22  1  0  0  0
 24 18  1  0  0  0
 22 21  1  0  0  0
 18 19  1  0  0  0
 39 40  2  0  0  0
 39 43  1  0  0  0
 40 41  1  0  0  0
 41 42  1  0  0  0
 43 42  2  0  0  0
  9 10  2  0  0  0
 19 20  1  0  0  0
 19 11  1  0  0  0
 21 20  1  0  0  0
 42 35  1  0  0  0
 10 11  1  0  0  0
 10 12  1  0  0  0
 35 38  2  0  0  0
 35 37  1  0  0  0
 38 34  1  0  0  0
 11  7  1  0  0  0
 37 36  2  0  0  0
 34 33  2  0  0  0
 36 33  1  0  0  0
 12 16  1  0  0  0
 12 13  1  0  0  0
 16 15  1  0  0  0
 33 32  1  0  0  0
  7 17  2  0  0  0
 32 31  1  0  0  0
 31 30  1  0  0  0
 30 29  1  0  0  0
 15  8  2  0  0  0
 17 13  1  0  0  0
 17  3  1  0  0  0
 13 14  1  0  0  0
  8 14  1  0  0  0
 28 29  1  0  0  0
 28 27  1  0  0  0
  6  3  2  0  0  0
  6  2  1  0  0  0
  3  4  1  0  0  0
 27  2  1  0  0  0
  2  1  2  0  0  0
  4  5  2  0  0  0
  1  5  1  0  0  0
  1 25  1  0  0  0
 25 26  1  0  0  0
 41 44  1  0  0  0
M  END
> <minimizedAffinity>
-10.68030

$$$$
5G57_6M5_A_1931


 44 49  0  0  0  0  0  0  0  0999 V2000
   22.2328   12.2092   -7.4376 C   0  0  0  0  0  0  0  0  0  0  0  0
   23.0214   11.2875   -8.1580 C   0  0  0  0  0  0  0  0  0  0  0  0
   24.3475   10.9046   -6.1640 C   0  0  0  0  0  0  0  0  0  0  0  0
   23.5512   11.7979   -5.4598 C   0  0  0  0  0  0  0  0  0  0  0  0
   22.5129   12.4570   -6.0991 C   0  0  0  0  0  0  0  0  0  0  0  0
   24.0524   10.6300   -7.5031 C   0  0  0  0  0  0  0  0  0  0  0  0
   25.9018   10.6142   -4.3858 N   0  0  0  0  0  0  0  0  0  0  0  0
   28.2962    8.3884   -7.3997 C   0  0  0  0  0  0  0  0  0  0  0  0
   28.4615    8.2644   -3.6179 O   0  0  0  0  0  0  0  0  0  0  0  0
   27.4402    8.7344   -4.1220 C   0  0  0  0  0  0  0  0  0  0  0  0
   27.0105   10.0211   -3.8239 N   0  0  0  0  0  0  0  0  0  0  0  0
   26.6202    7.9913   -5.1399 C   0  0  0  0  0  0  0  0  0  0  0  0
   26.1293    8.9909   -6.2100 C   0  0  0  0  0  0  0  0  0  0  0  0
   27.3337    9.4670   -7.0368 C   0  0  0  0  0  0  0  0  0  0  0  0
   28.3456    7.2249   -6.7773 C   0  0  0  0  0  0  0  0  0  0  0  0
   27.3241    6.7883   -5.7778 C   0  0  0  0  0  0  0  0  0  0  0  0
   25.4681   10.1730   -5.5128 C   0  0  0  0  0  0  0  0  0  0  0  0
   27.5887   12.3248   -3.1809 C   0  0  0  0  0  0  0  0  0  0  0  0
   27.7060   10.8518   -2.8185 C   0  0  0  0  0  0  0  0  0  0  0  0
   27.2054   10.4726   -1.4267 C   0  0  0  0  0  0  0  0  0  0  0  0
   28.1898   10.6891   -0.2782 C   0  0  0  0  0  0  0  0  0  0  0  0
   28.8487   12.0646   -0.1421 C   0  0  0  0  0  0  0  0  0  0  0  0
   28.1603   13.2123   -0.8786 C   0  0  0  0  0  0  0  0  0  0  0  0
   28.4664   13.2642   -2.3598 C   0  0  0  0  0  0  0  0  0  0  0  0
   21.2154   12.7960   -8.1405 O   0  0  0  0  0  0  0  0  0  0  0  0
   20.0039   13.0874   -7.4253 C   0  0  0  0  0  0  0  0  0  0  0  0
   22.7009   11.0787   -9.4841 O   0  0  0  0  0  0  0  0  0  0  0  0
   21.8703    9.9507   -9.8291 C   0  0  0  0  0  0  0  0  0  0  0  0
   21.5906    9.9649  -11.3155 C   0  0  0  0  0  0  0  0  0  0  0  0
   22.8448   10.0257  -12.1660 C   0  0  0  0  0  0  0  0  0  0  0  0
   23.4706    8.6920  -12.4743 C   0  0  0  0  0  0  0  0  0  0  0  0
   24.8192    8.6523  -11.9687 O   0  0  0  0  0  0  0  0  0  0  0  0
   25.1268    7.6998  -11.0302 C   0  0  0  0  0  0  0  0  0  0  0  0
   24.8423    7.8416   -9.6765 C   0  0  0  0  0  0  0  0  0  0  0  0
   25.7637    5.6644   -9.2520 C   0  0  0  0  0  0  0  0  0  0  0  0
   25.7112    6.5323  -11.4963 C   0  0  0  0  0  0  0  0  0  0  0  0
   26.0217    5.5199  -10.6110 C   0  0  0  0  0  0  0  0  0  0  0  0
   25.1786    6.8365   -8.7931 C   0  0  0  0  0  0  0  0  0  0  0  0
   27.0744    2.9236   -7.3374 N   0  0  0  0  0  0  0  0  0  0  0  0
   25.9773    3.1803   -6.7014 N   0  0  0  0  0  0  0  0  0  0  0  0
   25.3192    4.2046   -7.3032 N   0  0  0  0  0  0  0  0  0  0  0  0
   26.0728    4.5847   -8.3227 C   0  0  0  0  0  0  0  0  0  0  0  0
   27.1454    3.7885   -8.3629 N   0  0  0  0  0  0  0  0  0  0  0  0
   24.4533    4.5884   -7.0344 H   0  0  0  0  0  0  0  0  0  0  0  0
 23 24  1  0  0  0
 23 22  1  0  0  0
 24 18  1  0  0  0
 22 21  1  0  0  0
 18 19  1  0  0  0
 39 40  2  0  0  0
 39 43  1  0  0  0
 40 41  1  0  0  0
 41 42  1  0  0  0
 43 42  2  0  0  0
  9 10  2  0  0  0
 19 20  1  0  0  0
 19 11  1  0  0  0
 21 20  1  0  0  0
 42 35  1  0  0  0
 10 11  1  0  0  0
 10 12  1  0  0  0
 35 38  2  0  0  0
 35 37  1  0  0  0
 38 34  1  0  0  0
 11  7  1  0  0  0
 37 36  2  0  0  0
 34 33  2  0  0  0
 36 33  1  0  0  0
 12 16  1  0  0  0
 12 13  1  0  0  0
 16 15  1  0  0  0
 33 32  1  0  0  0
  7 17  2  0  0  0
 32 31  1  0  0  0
 31 30  1  0  0  0
 30 29  1  0  0  0
 15  8  2  0  0  0
 17 13  1  0  0  0
 17  3  1  0  0  0
 13 14  1  0  0  0
  8 14  1  0  0  0
 28 29  1  0  0  0
 28 27  1  0  0  0
  6  3  2  0  0  0
  6  2  1  0  0  0
  3  4  1  0  0  0
 27  2  1  0  0  0
  2  1  2  0  0  0
  4  5  2  0  0  0
  1  5  1  0  0  0
  1 25  1  0  0  0
 25 26  1  0  0  0
 41 44  1  0  0  0
M  END
> <minimizedAffinity>
-10.63698

$$$$
5G57_6M5_A_1931


 44 49  0  0  0  0  0  0  0  0999 V2000
   23.7172   18.4835   -5.9675 C   0  0  0  0  0  0  0  0  0  0  0  0
   23.7581   17.1252   -5.5883 C   0  0  0  0  0  0  0  0  0  0  0  0
   25.9993   17.4616   -4.7250 C   0  0  0  0  0  0  0  0  0  0  0  0
   25.9390   18.8016   -5.0838 C   0  0  0  0  0  0  0  0  0  0  0  0
   24.8117   19.3021   -5.7161 C   0  0  0  0  0  0  0  0  0  0  0  0
   24.8900   16.6402   -4.9498 C   0  0  0  0  0  0  0  0  0  0  0  0
   28.2792   17.5684   -4.0523 N   0  0  0  0  0  0  0  0  0  0  0  0
   27.9873   13.1369   -3.8330 C   0  0  0  0  0  0  0  0  0  0  0  0
   30.4697   15.4753   -2.1856 O   0  0  0  0  0  0  0  0  0  0  0  0
   29.4191   15.9692   -2.5987 C   0  0  0  0  0  0  0  0  0  0  0  0
   29.4195   17.0046   -3.5244 N   0  0  0  0  0  0  0  0  0  0  0  0
   28.0653   15.4560   -2.1932 C   0  0  0  0  0  0  0  0  0  0  0  0
   27.1291   15.4965   -3.4208 C   0  0  0  0  0  0  0  0  0  0  0  0
   27.5938   14.4416   -4.4367 C   0  0  0  0  0  0  0  0  0  0  0  0
   28.2840   12.9929   -2.5545 C   0  0  0  0  0  0  0  0  0  0  0  0
   28.0730   14.0693   -1.5398 C   0  0  0  0  0  0  0  0  0  0  0  0
   27.1890   16.8871   -4.0399 C   0  0  0  0  0  0  0  0  0  0  0  0
   31.0778   17.0576   -5.3416 C   0  0  0  0  0  0  0  0  0  0  0  0
   30.6793   17.6239   -3.9867 C   0  0  0  0  0  0  0  0  0  0  0  0
   30.5410   19.1432   -3.9212 C   0  0  0  0  0  0  0  0  0  0  0  0
   31.8362   19.9259   -3.7103 C   0  0  0  0  0  0  0  0  0  0  0  0
   33.0139   19.6378   -4.6457 C   0  0  0  0  0  0  0  0  0  0  0  0
   32.6711   18.9287   -5.9545 C   0  0  0  0  0  0  0  0  0  0  0  0
   32.4790   17.4342   -5.8126 C   0  0  0  0  0  0  0  0  0  0  0  0
   22.5573   18.8980   -6.5645 O   0  0  0  0  0  0  0  0  0  0  0  0
   21.9824   20.1302   -6.1008 C   0  0  0  0  0  0  0  0  0  0  0  0
   22.6449   16.3565   -5.8616 O   0  0  0  0  0  0  0  0  0  0  0  0
   22.7616   15.2775   -6.8121 C   0  0  0  0  0  0  0  0  0  0  0  0
   22.7642   13.9551   -6.0779 C   0  0  0  0  0  0  0  0  0  0  0  0
   24.0553   13.1762   -6.2404 C   0  0  0  0  0  0  0  0  0  0  0  0
   23.9546   11.9501   -7.1077 C   0  0  0  0  0  0  0  0  0  0  0  0
   25.2684   11.4130   -7.3552 O   0  0  0  0  0  0  0  0  0  0  0  0
   25.3635   10.1040   -7.7556 C   0  0  0  0  0  0  0  0  0  0  0  0
   25.9101    9.1007   -6.9629 C   0  0  0  0  0  0  0  0  0  0  0  0
   25.4442    7.4867   -8.6797 C   0  0  0  0  0  0  0  0  0  0  0  0
   24.8398    9.7942   -9.0012 C   0  0  0  0  0  0  0  0  0  0  0  0
   24.8762    8.4915   -9.4558 C   0  0  0  0  0  0  0  0  0  0  0  0
   25.9668    7.8051   -7.4337 C   0  0  0  0  0  0  0  0  0  0  0  0
   24.8194    4.1385   -9.8176 N   0  0  0  0  0  0  0  0  0  0  0  0
   26.1127    4.1756   -9.8247 N   0  0  0  0  0  0  0  0  0  0  0  0
   26.5460    5.3901   -9.3984 N   0  0  0  0  0  0  0  0  0  0  0  0
   25.4615    6.1083   -9.1534 C   0  0  0  0  0  0  0  0  0  0  0  0
   24.3946    5.3391   -9.3898 N   0  0  0  0  0  0  0  0  0  0  0  0
   27.4812    5.6790   -9.2926 H   0  0  0  0  0  0  0  0  0  0  0  0
 23 24  1  0  0  0
 23 22  1  0  0  0
 24 18  1  0  0  0
 22 21  1  0  0  0
 18 19  1  0  0  0
 39 40  2  0  0  0
 39 43  1  0  0  0
 40 41  1  0  0  0
 41 42  1  0  0  0
 43 42  2  0  0  0
  9 10  2  0  0  0
 19 20  1  0  0  0
 19 11  1  0  0  0
 21 20  1  0  0  0
 42 35  1  0  0  0
 10 11  1  0  0  0
 10 12  1  0  0  0
 35 38  2  0  0  0
 35 37  1  0  0  0
 38 34  1  0  0  0
 11  7  1  0  0  0
 37 36  2  0  0  0
 34 33  2  0  0  0
 36 33  1  0  0  0
 12 16  1  0  0  0
 12 13  1  0  0  0
 16 15  1  0  0  0
 33 32  1  0  0  0
  7 17  2  0  0  0
 32 31  1  0  0  0
 31 30  1  0  0  0
 30 29  1  0  0  0
 15  8  2  0  0  0
 17 13  1  0  0  0
 17  3  1  0  0  0
 13 14  1  0  0  0
  8 14  1  0  0  0
 28 29  1  0  0  0
 28 27  1  0  0  0
  6  3  2  0  0  0
  6  2  1  0  0  0
  3  4  1  0  0  0
 27  2  1  0  0  0
  2  1  2  0  0  0
  4  5  2  0  0  0
  1  5  1  0  0  0
  1 25  1  0  0  0
 25 26  1  0  0  0
 41 44  1  0  0  0
M  END
> <minimizedAffinity>
-10.20243

$$$$
5G57_6M5_A_1931


 44 49  0  0  0  0  0  0  0  0999 V2000
   25.5652   11.8126   -9.4476 C   0  0  0  0  0  0  0  0  0  0  0  0
   24.4923   11.2079   -8.7594 C   0  0  0  0  0  0  0  0  0  0  0  0
   26.0259   10.5538   -6.9982 C   0  0  0  0  0  0  0  0  0  0  0  0
   27.0698   11.1708   -7.6748 C   0  0  0  0  0  0  0  0  0  0  0  0
   26.8415   11.7799   -8.8987 C   0  0  0  0  0  0  0  0  0  0  0  0
   24.7345   10.6086   -7.5320 C   0  0  0  0  0  0  0  0  0  0  0  0
   26.5124   10.6382   -4.6705 N   0  0  0  0  0  0  0  0  0  0  0  0
   27.7444    6.3988   -5.2003 C   0  0  0  0  0  0  0  0  0  0  0  0
   26.7561    8.2475   -2.0459 O   0  0  0  0  0  0  0  0  0  0  0  0
   26.4260    8.7512   -3.1209 C   0  0  0  0  0  0  0  0  0  0  0  0
   26.8159   10.0381   -3.4687 N   0  0  0  0  0  0  0  0  0  0  0  0
   25.6412    8.0025   -4.1621 C   0  0  0  0  0  0  0  0  0  0  0  0
   26.1838    8.3761   -5.5590 C   0  0  0  0  0  0  0  0  0  0  0  0
   27.5941    7.7878   -5.7192 C   0  0  0  0  0  0  0  0  0  0  0  0
   26.8967    5.8499   -4.3497 C   0  0  0  0  0  0  0  0  0  0  0  0
   25.5988    6.4829   -3.9654 C   0  0  0  0  0  0  0  0  0  0  0  0
   26.2287    9.8940   -5.6798 C   0  0  0  0  0  0  0  0  0  0  0  0
   27.5683   12.3370   -3.0174 C   0  0  0  0  0  0  0  0  0  0  0  0
   27.5657   10.8964   -2.5277 C   0  0  0  0  0  0  0  0  0  0  0  0
   27.0243   10.6800   -1.1164 C   0  0  0  0  0  0  0  0  0  0  0  0
   28.0122   10.9184    0.0246 C   0  0  0  0  0  0  0  0  0  0  0  0
   28.7764   12.2450    0.0522 C   0  0  0  0  0  0  0  0  0  0  0  0
   28.1874   13.3743   -0.7912 C   0  0  0  0  0  0  0  0  0  0  0  0
   28.5101   13.2731   -2.2664 C   0  0  0  0  0  0  0  0  0  0  0  0
   25.2454   12.4105  -10.6366 O   0  0  0  0  0  0  0  0  0  0  0  0
   25.8362   13.6914  -10.9090 C   0  0  0  0  0  0  0  0  0  0  0  0
   23.2458   11.2687   -9.3487 O   0  0  0  0  0  0  0  0  0  0  0  0
   22.6893   10.0681   -9.9233 C   0  0  0  0  0  0  0  0  0  0  0  0
   22.7973   10.1320  -11.4307 C   0  0  0  0  0  0  0  0  0  0  0  0
   23.1686    8.8063  -12.0667 C   0  0  0  0  0  0  0  0  0  0  0  0
   24.4373    8.8215  -12.8765 C   0  0  0  0  0  0  0  0  0  0  0  0
   25.5808    8.7956  -12.0004 O   0  0  0  0  0  0  0  0  0  0  0  0
   25.6983    7.7443  -11.1265 C   0  0  0  0  0  0  0  0  0  0  0  0
   25.5184    6.4169  -11.4998 C   0  0  0  0  0  0  0  0  0  0  0  0
   26.0177    5.7157   -9.2574 C   0  0  0  0  0  0  0  0  0  0  0  0
   26.0572    8.0546   -9.8238 C   0  0  0  0  0  0  0  0  0  0  0  0
   26.2207    7.0440   -8.8982 C   0  0  0  0  0  0  0  0  0  0  0  0
   25.6582    5.4132  -10.5636 C   0  0  0  0  0  0  0  0  0  0  0  0
   27.0973    3.0187   -7.1464 N   0  0  0  0  0  0  0  0  0  0  0  0
   25.9131    3.2519   -6.6805 N   0  0  0  0  0  0  0  0  0  0  0  0
   25.3264    4.2564   -7.3815 N   0  0  0  0  0  0  0  0  0  0  0  0
   26.2124    4.6491   -8.2830 C   0  0  0  0  0  0  0  0  0  0  0  0
   27.2976    3.8793   -8.1583 N   0  0  0  0  0  0  0  0  0  0  0  0
   24.4217    4.6202   -7.2460 H   0  0  0  0  0  0  0  0  0  0  0  0
 23 24  1  0  0  0
 23 22  1  0  0  0
 24 18  1  0  0  0
 22 21  1  0  0  0
 18 19  1  0  0  0
 39 40  2  0  0  0
 39 43  1  0  0  0
 40 41  1  0  0  0
 41 42  1  0  0  0
 43 42  2  0  0  0
  9 10  2  0  0  0
 19 20  1  0  0  0
 19 11  1  0  0  0
 21 20  1  0  0  0
 42 35  1  0  0  0
 10 11  1  0  0  0
 10 12  1  0  0  0
 35 38  2  0  0  0
 35 37  1  0  0  0
 38 34  1  0  0  0
 11  7  1  0  0  0
 37 36  2  0  0  0
 34 33  2  0  0  0
 36 33  1  0  0  0
 12 16  1  0  0  0
 12 13  1  0  0  0
 16 15  1  0  0  0
 33 32  1  0  0  0
  7 17  2  0  0  0
 32 31  1  0  0  0
 31 30  1  0  0  0
 30 29  1  0  0  0
 15  8  2  0  0  0
 17 13  1  0  0  0
 17  3  1  0  0  0
 13 14  1  0  0  0
  8 14  1  0  0  0
 28 29  1  0  0  0
 28 27  1  0  0  0
  6  3  2  0  0  0
  6  2  1  0  0  0
  3  4  1  0  0  0
 27  2  1  0  0  0
  2  1  2  0  0  0
  4  5  2  0  0  0
  1  5  1  0  0  0
  1 25  1  0  0  0
 25 26  1  0  0  0
 41 44  1  0  0  0
M  END
> <minimizedAffinity>
-10.15888

$$$$
5G57_6M5_A_1931


 44 49  0  0  0  0  0  0  0  0999 V2000
   27.5361   16.1983   -3.5694 C   0  0  0  0  0  0  0  0  0  0  0  0
   27.7643   14.8061   -3.5834 C   0  0  0  0  0  0  0  0  0  0  0  0
   25.8678   14.5374   -5.0709 C   0  0  0  0  0  0  0  0  0  0  0  0
   25.6662   15.9112   -5.0660 C   0  0  0  0  0  0  0  0  0  0  0  0
   26.4852   16.7315   -4.3060 C   0  0  0  0  0  0  0  0  0  0  0  0
   26.9411   13.9986   -4.3544 C   0  0  0  0  0  0  0  0  0  0  0  0
   25.5017   12.4821   -6.2128 N   0  0  0  0  0  0  0  0  0  0  0  0
   22.4522   14.7757   -8.4954 C   0  0  0  0  0  0  0  0  0  0  0  0
   22.7982   11.0345   -8.0180 O   0  0  0  0  0  0  0  0  0  0  0  0
   23.3974   11.7615   -7.2239 C   0  0  0  0  0  0  0  0  0  0  0  0
   24.7729   11.6707   -7.0536 N   0  0  0  0  0  0  0  0  0  0  0  0
   22.7110   12.8395   -6.4320 C   0  0  0  0  0  0  0  0  0  0  0  0
   23.6396   14.0714   -6.3582 C   0  0  0  0  0  0  0  0  0  0  0  0
   23.7441   14.7010   -7.7558 C   0  0  0  0  0  0  0  0  0  0  0  0
   21.3963   14.0485   -8.1800 C   0  0  0  0  0  0  0  0  0  0  0  0
   21.3153   13.2196   -6.9393 C   0  0  0  0  0  0  0  0  0  0  0  0
   25.0141   13.6235   -5.8776 C   0  0  0  0  0  0  0  0  0  0  0  0
   26.8992   11.2145   -8.2049 C   0  0  0  0  0  0  0  0  0  0  0  0
   25.5682   10.6362   -7.7478 C   0  0  0  0  0  0  0  0  0  0  0  0
   25.6570    9.3971   -6.8600 C   0  0  0  0  0  0  0  0  0  0  0  0
   25.8275    8.0632   -7.5856 C   0  0  0  0  0  0  0  0  0  0  0  0
   26.9544    7.9406   -8.6151 C   0  0  0  0  0  0  0  0  0  0  0  0
   28.0630    8.9874   -8.5217 C   0  0  0  0  0  0  0  0  0  0  0  0
   27.7045   10.3203   -9.1424 C   0  0  0  0  0  0  0  0  0  0  0  0
   28.4062   16.9344   -2.8114 O   0  0  0  0  0  0  0  0  0  0  0  0
   29.4079   17.6921   -3.5087 C   0  0  0  0  0  0  0  0  0  0  0  0
   28.8207   14.3288   -2.8344 O   0  0  0  0  0  0  0  0  0  0  0  0
   28.5405   13.6313   -1.6030 C   0  0  0  0  0  0  0  0  0  0  0  0
   28.0152   12.2474   -1.9143 C   0  0  0  0  0  0  0  0  0  0  0  0
   28.6515   11.1565   -1.0747 C   0  0  0  0  0  0  0  0  0  0  0  0
   28.4870    9.7606   -1.6132 C   0  0  0  0  0  0  0  0  0  0  0  0
   27.2808    9.6741   -2.3964 O   0  0  0  0  0  0  0  0  0  0  0  0
   27.0365    8.5069   -3.0751 C   0  0  0  0  0  0  0  0  0  0  0  0
   25.8639    7.7728   -2.9346 C   0  0  0  0  0  0  0  0  0  0  0  0
   26.6598    6.1864   -4.5530 C   0  0  0  0  0  0  0  0  0  0  0  0
   28.0109    8.0908   -3.9692 C   0  0  0  0  0  0  0  0  0  0  0  0
   27.8187    6.9400   -4.7066 C   0  0  0  0  0  0  0  0  0  0  0  0
   25.6890    6.6096   -3.6556 C   0  0  0  0  0  0  0  0  0  0  0  0
   26.5539    3.5179   -6.9538 N   0  0  0  0  0  0  0  0  0  0  0  0
   25.7742    3.0618   -6.0275 N   0  0  0  0  0  0  0  0  0  0  0  0
   25.6756    3.9632   -5.0164 N   0  0  0  0  0  0  0  0  0  0  0  0
   26.4502    4.9835   -5.3492 C   0  0  0  0  0  0  0  0  0  0  0  0
   26.9790    4.7264   -6.5493 N   0  0  0  0  0  0  0  0  0  0  0  0
   25.1352    3.8751   -4.1982 H   0  0  0  0  0  0  0  0  0  0  0  0
 23 24  1  0  0  0
 23 22  1  0  0  0
 24 18  1  0  0  0
 22 21  1  0  0  0
 18 19  1  0  0  0
 39 40  2  0  0  0
 39 43  1  0  0  0
 40 41  1  0  0  0
 41 42  1  0  0  0
 43 42  2  0  0  0
  9 10  2  0  0  0
 19 20  1  0  0  0
 19 11  1  0  0  0
 21 20  1  0  0  0
 42 35  1  0  0  0
 10 11  1  0  0  0
 10 12  1  0  0  0
 35 38  2  0  0  0
 35 37  1  0  0  0
 38 34  1  0  0  0
 11  7  1  0  0  0
 37 36  2  0  0  0
 34 33  2  0  0  0
 36 33  1  0  0  0
 12 16  1  0  0  0
 12 13  1  0  0  0
 16 15  1  0  0  0
 33 32  1  0  0  0
  7 17  2  0  0  0
 32 31  1  0  0  0
 31 30  1  0  0  0
 30 29  1  0  0  0
 15  8  2  0  0  0
 17 13  1  0  0  0
 17  3  1  0  0  0
 13 14  1  0  0  0
  8 14  1  0  0  0
 28 29  1  0  0  0
 28 27  1  0  0  0
  6  3  2  0  0  0
  6  2  1  0  0  0
  3  4  1  0  0  0
 27  2  1  0  0  0
  2  1  2  0  0  0
  4  5  2  0  0  0
  1  5  1  0  0  0
  1 25  1  0  0  0
 25 26  1  0  0  0
 41 44  1  0  0  0
M  END
> <minimizedAffinity>
-10.14249

$$$$
5G57_6M5_A_1931


 44 49  0  0  0  0  0  0  0  0999 V2000
   27.3642    4.3829   -7.6689 C   0  0  0  0  0  0  0  0  0  0  0  0
   26.9541    5.4606   -6.8560 C   0  0  0  0  0  0  0  0  0  0  0  0
   26.3143    6.6853   -8.8491 C   0  0  0  0  0  0  0  0  0  0  0  0
   26.7018    5.6098   -9.6373 C   0  0  0  0  0  0  0  0  0  0  0  0
   27.2387    4.4750   -9.0499 C   0  0  0  0  0  0  0  0  0  0  0  0
   26.4118    6.5868   -7.4575 C   0  0  0  0  0  0  0  0  0  0  0  0
   25.7294    8.9886   -8.7274 N   0  0  0  0  0  0  0  0  0  0  0  0
   22.7665    7.9725  -11.8833 C   0  0  0  0  0  0  0  0  0  0  0  0
   24.2203   11.3383  -10.9331 O   0  0  0  0  0  0  0  0  0  0  0  0
   24.8287   10.3352  -10.5563 C   0  0  0  0  0  0  0  0  0  0  0  0
   25.0909   10.1087   -9.2113 N   0  0  0  0  0  0  0  0  0  0  0  0
   25.2740    9.2527  -11.5000 C   0  0  0  0  0  0  0  0  0  0  0  0
   25.0744    7.8825  -10.8159 C   0  0  0  0  0  0  0  0  0  0  0  0
   23.5687    7.6075  -10.6814 C   0  0  0  0  0  0  0  0  0  0  0  0
   23.2029    8.7933  -12.8210 C   0  0  0  0  0  0  0  0  0  0  0  0
   24.6105    9.2913  -12.8813 C   0  0  0  0  0  0  0  0  0  0  0  0
   25.7287    7.9189   -9.4407 C   0  0  0  0  0  0  0  0  0  0  0  0
   23.3336   10.8349   -7.6495 C   0  0  0  0  0  0  0  0  0  0  0  0
   24.7343   11.1044   -8.1789 C   0  0  0  0  0  0  0  0  0  0  0  0
   25.8403   11.1492   -7.1270 C   0  0  0  0  0  0  0  0  0  0  0  0
   26.0140   12.4780   -6.3929 C   0  0  0  0  0  0  0  0  0  0  0  0
   24.7783   13.1142   -5.7501 C   0  0  0  0  0  0  0  0  0  0  0  0
   23.5890   12.1834   -5.5207 C   0  0  0  0  0  0  0  0  0  0  0  0
   22.7569   11.9316   -6.7596 C   0  0  0  0  0  0  0  0  0  0  0  0
   27.8607    3.2941   -7.0044 O   0  0  0  0  0  0  0  0  0  0  0  0
   28.0604    2.0927   -7.7665 C   0  0  0  0  0  0  0  0  0  0  0  0
   27.1009    5.3175   -5.4912 O   0  0  0  0  0  0  0  0  0  0  0  0
   26.6046    6.3595   -4.6257 C   0  0  0  0  0  0  0  0  0  0  0  0
   27.7630    7.1889   -4.1175 C   0  0  0  0  0  0  0  0  0  0  0  0
   27.9628    7.0926   -2.6172 C   0  0  0  0  0  0  0  0  0  0  0  0
   27.3531    8.2143   -1.8201 C   0  0  0  0  0  0  0  0  0  0  0  0
   28.3823    9.1212   -1.3794 O   0  0  0  0  0  0  0  0  0  0  0  0
   28.2210   10.4571   -1.6477 C   0  0  0  0  0  0  0  0  0  0  0  0
   28.0837   11.4238   -0.6576 C   0  0  0  0  0  0  0  0  0  0  0  0
   27.9518   13.1326   -2.3404 C   0  0  0  0  0  0  0  0  0  0  0  0
   28.2436   10.8314   -2.9823 C   0  0  0  0  0  0  0  0  0  0  0  0
   28.1151   12.1626   -3.3237 C   0  0  0  0  0  0  0  0  0  0  0  0
   27.9299   12.7498   -1.0063 C   0  0  0  0  0  0  0  0  0  0  0  0
   27.9604   16.7112   -2.6396 N   0  0  0  0  0  0  0  0  0  0  0  0
   27.4079   16.3610   -3.7558 N   0  0  0  0  0  0  0  0  0  0  0  0
   27.3022   15.0084   -3.8188 N   0  0  0  0  0  0  0  0  0  0  0  0
   27.8382   14.5399   -2.7030 C   0  0  0  0  0  0  0  0  0  0  0  0
   28.2279   15.5821   -1.9627 N   0  0  0  0  0  0  0  0  0  0  0  0
   26.9057   14.4811   -4.5495 H   0  0  0  0  0  0  0  0  0  0  0  0
 23 24  1  0  0  0
 23 22  1  0  0  0
 24 18  1  0  0  0
 22 21  1  0  0  0
 18 19  1  0  0  0
 39 40  2  0  0  0
 39 43  1  0  0  0
 40 41  1  0  0  0
 41 42  1  0  0  0
 43 42  2  0  0  0
  9 10  2  0  0  0
 19 20  1  0  0  0
 19 11  1  0  0  0
 21 20  1  0  0  0
 42 35  1  0  0  0
 10 11  1  0  0  0
 10 12  1  0  0  0
 35 38  2  0  0  0
 35 37  1  0  0  0
 38 34  1  0  0  0
 11  7  1  0  0  0
 37 36  2  0  0  0
 34 33  2  0  0  0
 36 33  1  0  0  0
 12 16  1  0  0  0
 12 13  1  0  0  0
 16 15  1  0  0  0
 33 32  1  0  0  0
  7 17  2  0  0  0
 32 31  1  0  0  0
 31 30  1  0  0  0
 30 29  1  0  0  0
 15  8  2  0  0  0
 17 13  1  0  0  0
 17  3  1  0  0  0
 13 14  1  0  0  0
  8 14  1  0  0  0
 28 29  1  0  0  0
 28 27  1  0  0  0
  6  3  2  0  0  0
  6  2  1  0  0  0
  3  4  1  0  0  0
 27  2  1  0  0  0
  2  1  2  0  0  0
  4  5  2  0  0  0
  1  5  1  0  0  0
  1 25  1  0  0  0
 25 26  1  0  0  0
 41 44  1  0  0  0
M  END
> <minimizedAffinity>
-10.03821

$$$$
5G57_6M5_A_1931


 44 49  0  0  0  0  0  0  0  0999 V2000
   26.7961    5.2718   -5.5202 C   0  0  0  0  0  0  0  0  0  0  0  0
   27.6238    6.0839   -6.3238 C   0  0  0  0  0  0  0  0  0  0  0  0
   26.6240    8.0513   -5.3182 C   0  0  0  0  0  0  0  0  0  0  0  0
   25.8296    7.2413   -4.5175 C   0  0  0  0  0  0  0  0  0  0  0  0
   25.9048    5.8621   -4.6323 C   0  0  0  0  0  0  0  0  0  0  0  0
   27.5428    7.4625   -6.1927 C   0  0  0  0  0  0  0  0  0  0  0  0
   27.1625   10.0935   -4.2221 N   0  0  0  0  0  0  0  0  0  0  0  0
   23.6354   11.7056   -6.3973 C   0  0  0  0  0  0  0  0  0  0  0  0
   26.5688   13.5436   -4.8607 O   0  0  0  0  0  0  0  0  0  0  0  0
   26.7085   12.3381   -5.0738 C   0  0  0  0  0  0  0  0  0  0  0  0
   27.0333   11.4541   -4.0529 N   0  0  0  0  0  0  0  0  0  0  0  0
   26.4766   11.7194   -6.4244 C   0  0  0  0  0  0  0  0  0  0  0  0
   25.7838   10.3523   -6.2338 C   0  0  0  0  0  0  0  0  0  0  0  0
   24.3529   10.5856   -5.7249 C   0  0  0  0  0  0  0  0  0  0  0  0
   24.2528   12.6533   -7.0786 C   0  0  0  0  0  0  0  0  0  0  0  0
   25.7084   12.6039   -7.4130 C   0  0  0  0  0  0  0  0  0  0  0  0
   26.5768    9.5356   -5.2215 C   0  0  0  0  0  0  0  0  0  0  0  0
   27.5341   10.7490   -1.7493 C   0  0  0  0  0  0  0  0  0  0  0  0
   27.3173   11.9306   -2.6830 C   0  0  0  0  0  0  0  0  0  0  0  0
   28.4549   12.9479   -2.7353 C   0  0  0  0  0  0  0  0  0  0  0  0
   28.4623   14.0028   -1.6298 C   0  0  0  0  0  0  0  0  0  0  0  0
   28.3730   13.5266   -0.1772 C   0  0  0  0  0  0  0  0  0  0  0  0
   28.7163   12.0584    0.0681 C   0  0  0  0  0  0  0  0  0  0  0  0
   27.5937   11.0999   -0.2659 C   0  0  0  0  0  0  0  0  0  0  0  0
   26.9528    3.9216   -5.6820 O   0  0  0  0  0  0  0  0  0  0  0  0
   25.7644    3.1145   -5.6653 C   0  0  0  0  0  0  0  0  0  0  0  0
   28.4904    5.4470   -7.1887 O   0  0  0  0  0  0  0  0  0  0  0  0
   28.2782    5.5813   -8.6093 C   0  0  0  0  0  0  0  0  0  0  0  0
   27.5852    4.3444   -9.1361 C   0  0  0  0  0  0  0  0  0  0  0  0
   26.2616    4.6366   -9.8163 C   0  0  0  0  0  0  0  0  0  0  0  0
   25.1101    4.8986   -8.8831 C   0  0  0  0  0  0  0  0  0  0  0  0
   24.1048    5.6859   -9.5505 O   0  0  0  0  0  0  0  0  0  0  0  0
   24.3958    6.9970   -9.8314 C   0  0  0  0  0  0  0  0  0  0  0  0
   25.2293    7.7807   -9.0408 C   0  0  0  0  0  0  0  0  0  0  0  0
   24.9345    9.6240  -10.5524 C   0  0  0  0  0  0  0  0  0  0  0  0
   23.8487    7.5215  -10.9923 C   0  0  0  0  0  0  0  0  0  0  0  0
   24.1226    8.8258  -11.3512 C   0  0  0  0  0  0  0  0  0  0  0  0
   25.4783    9.0916   -9.3915 C   0  0  0  0  0  0  0  0  0  0  0  0
   26.2863   12.7525  -11.6843 N   0  0  0  0  0  0  0  0  0  0  0  0
   25.0933   13.1022  -11.3260 N   0  0  0  0  0  0  0  0  0  0  0  0
   24.4180   12.0270  -10.8439 N   0  0  0  0  0  0  0  0  0  0  0  0
   25.2394   10.9941  -10.9456 C   0  0  0  0  0  0  0  0  0  0  0  0
   26.3984   11.4356  -11.4434 N   0  0  0  0  0  0  0  0  0  0  0  0
   23.4997   12.0177  -10.4891 H   0  0  0  0  0  0  0  0  0  0  0  0
 23 24  1  0  0  0
 23 22  1  0  0  0
 24 18  1  0  0  0
 22 21  1  0  0  0
 18 19  1  0  0  0
 39 40  2  0  0  0
 39 43  1  0  0  0
 40 41  1  0  0  0
 41 42  1  0  0  0
 43 42  2  0  0  0
  9 10  2  0  0  0
 19 20  1  0  0  0
 19 11  1  0  0  0
 21 20  1  0  0  0
 42 35  1  0  0  0
 10 11  1  0  0  0
 10 12  1  0  0  0
 35 38  2  0  0  0
 35 37  1  0  0  0
 38 34  1  0  0  0
 11  7  1  0  0  0
 37 36  2  0  0  0
 34 33  2  0  0  0
 36 33  1  0  0  0
 12 16  1  0  0  0
 12 13  1  0  0  0
 16 15  1  0  0  0
 33 32  1  0  0  0
  7 17  2  0  0  0
 32 31  1  0  0  0
 31 30  1  0  0  0
 30 29  1  0  0  0
 15  8  2  0  0  0
 17 13  1  0  0  0
 17  3  1  0  0  0
 13 14  1  0  0  0
  8 14  1  0  0  0
 28 29  1  0  0  0
 28 27  1  0  0  0
  6  3  2  0  0  0
  6  2  1  0  0  0
  3  4  1  0  0  0
 27  2  1  0  0  0
  2  1  2  0  0  0
  4  5  2  0  0  0
  1  5  1  0  0  0
  1 25  1  0  0  0
 25 26  1  0  0  0
 41 44  1  0  0  0
M  END
> <minimizedAffinity>
-9.85238

$$$$
5G57_6M5_A_1931


 44 49  0  0  0  0  0  0  0  0999 V2000
   28.7563   12.8890   -0.3684 C   0  0  0  0  0  0  0  0  0  0  0  0
   28.1165   13.4343   -1.5015 C   0  0  0  0  0  0  0  0  0  0  0  0
   27.8599   11.1965   -2.4002 C   0  0  0  0  0  0  0  0  0  0  0  0
   28.4721   10.6699   -1.2706 C   0  0  0  0  0  0  0  0  0  0  0  0
   28.9315   11.5138   -0.2715 C   0  0  0  0  0  0  0  0  0  0  0  0
   27.6554   12.5770   -2.4897 C   0  0  0  0  0  0  0  0  0  0  0  0
   26.9293   10.8888   -4.5684 N   0  0  0  0  0  0  0  0  0  0  0  0
   25.4977    7.0045   -2.9455 C   0  0  0  0  0  0  0  0  0  0  0  0
   25.9825    8.0840   -6.5434 O   0  0  0  0  0  0  0  0  0  0  0  0
   26.5578    8.7424   -5.6752 C   0  0  0  0  0  0  0  0  0  0  0  0
   26.3472   10.1089   -5.5429 N   0  0  0  0  0  0  0  0  0  0  0  0
   27.4725    8.1208   -4.6566 C   0  0  0  0  0  0  0  0  0  0  0  0
   27.2489    8.8167   -3.2960 C   0  0  0  0  0  0  0  0  0  0  0  0
   25.8566    8.4399   -2.7665 C   0  0  0  0  0  0  0  0  0  0  0  0
   26.1140    6.2068   -3.7984 C   0  0  0  0  0  0  0  0  0  0  0  0
   27.3554    6.5975   -4.5327 C   0  0  0  0  0  0  0  0  0  0  0  0
   27.3483   10.3242   -3.4921 C   0  0  0  0  0  0  0  0  0  0  0  0
   24.1282   11.1171   -5.8813 C   0  0  0  0  0  0  0  0  0  0  0  0
   25.4953   10.8525   -6.4946 C   0  0  0  0  0  0  0  0  0  0  0  0
   26.2512   12.0873   -6.9800 C   0  0  0  0  0  0  0  0  0  0  0  0
   25.8806   12.5959   -8.3724 C   0  0  0  0  0  0  0  0  0  0  0  0
   24.4013   12.8446   -8.6798 C   0  0  0  0  0  0  0  0  0  0  0  0
   23.4798   12.9810   -7.4691 C   0  0  0  0  0  0  0  0  0  0  0  0
   23.0804   11.6599   -6.8480 C   0  0  0  0  0  0  0  0  0  0  0  0
   29.1568   13.7923    0.5787 O   0  0  0  0  0  0  0  0  0  0  0  0
   29.8004   13.2726    1.7533 C   0  0  0  0  0  0  0  0  0  0  0  0
   27.9685   14.8057   -1.5478 O   0  0  0  0  0  0  0  0  0  0  0  0
   28.1115   15.4778   -2.8163 C   0  0  0  0  0  0  0  0  0  0  0  0
   29.5045   15.2445   -3.3577 C   0  0  0  0  0  0  0  0  0  0  0  0
   30.5688   16.0737   -2.6651 C   0  0  0  0  0  0  0  0  0  0  0  0
   30.5151   17.5497   -2.9551 C   0  0  0  0  0  0  0  0  0  0  0  0
   30.9628   17.8036   -4.3009 O   0  0  0  0  0  0  0  0  0  0  0  0
   30.1391   18.5252   -5.1277 C   0  0  0  0  0  0  0  0  0  0  0  0
   28.7512   18.4642   -5.0659 C   0  0  0  0  0  0  0  0  0  0  0  0
   28.5986   20.0827   -6.8341 C   0  0  0  0  0  0  0  0  0  0  0  0
   30.7551   19.3798   -6.0289 C   0  0  0  0  0  0  0  0  0  0  0  0
   29.9870   20.1569   -6.8721 C   0  0  0  0  0  0  0  0  0  0  0  0
   27.9894   19.2244   -5.9291 C   0  0  0  0  0  0  0  0  0  0  0  0
   26.7261   21.6741   -9.4527 N   0  0  0  0  0  0  0  0  0  0  0  0
   26.5744   22.5144   -8.4806 N   0  0  0  0  0  0  0  0  0  0  0  0
   27.2420   22.0795   -7.3808 N   0  0  0  0  0  0  0  0  0  0  0  0
   27.7899   20.9207   -7.7108 C   0  0  0  0  0  0  0  0  0  0  0  0
   27.4939   20.6734   -8.9903 N   0  0  0  0  0  0  0  0  0  0  0  0
   27.3057   22.5356   -6.5106 H   0  0  0  0  0  0  0  0  0  0  0  0
 23 24  1  0  0  0
 23 22  1  0  0  0
 24 18  1  0  0  0
 22 21  1  0  0  0
 18 19  1  0  0  0
 39 40  2  0  0  0
 39 43  1  0  0  0
 40 41  1  0  0  0
 41 42  1  0  0  0
 43 42  2  0  0  0
  9 10  2  0  0  0
 19 20  1  0  0  0
 19 11  1  0  0  0
 21 20  1  0  0  0
 42 35  1  0  0  0
 10 11  1  0  0  0
 10 12  1  0  0  0
 35 38  2  0  0  0
 35 37  1  0  0  0
 38 34  1  0  0  0
 11  7  1  0  0  0
 37 36  2  0  0  0
 34 33  2  0  0  0
 36 33  1  0  0  0
 12 16  1  0  0  0
 12 13  1  0  0  0
 16 15  1  0  0  0
 33 32  1  0  0  0
  7 17  2  0  0  0
 32 31  1  0  0  0
 31 30  1  0  0  0
 30 29  1  0  0  0
 15  8  2  0  0  0
 17 13  1  0  0  0
 17  3  1  0  0  0
 13 14  1  0  0  0
  8 14  1  0  0  0
 28 29  1  0  0  0
 28 27  1  0  0  0
  6  3  2  0  0  0
  6  2  1  0  0  0
  3  4  1  0  0  0
 27  2  1  0  0  0
  2  1  2  0  0  0
  4  5  2  0  0  0
  1  5  1  0  0  0
  1 25  1  0  0  0
 25 26  1  0  0  0
 41 44  1  0  0  0
M  END
> <minimizedAffinity>
-9.81648

$$$$
5G57_6M5_A_1931


 44 49  0  0  0  0  0  0  0  0999 V2000
   22.8094   12.1818   -8.3091 C   0  0  0  0  0  0  0  0  0  0  0  0
   23.2742   12.6409   -7.0587 C   0  0  0  0  0  0  0  0  0  0  0  0
   24.7022   10.6870   -6.9023 C   0  0  0  0  0  0  0  0  0  0  0  0
   24.2528   10.2562   -8.1435 C   0  0  0  0  0  0  0  0  0  0  0  0
   23.3004   10.9914   -8.8317 C   0  0  0  0  0  0  0  0  0  0  0  0
   24.2329   11.8985   -6.3849 C   0  0  0  0  0  0  0  0  0  0  0  0
   26.0562   10.3684   -4.9717 N   0  0  0  0  0  0  0  0  0  0  0  0
   28.6798    8.0454   -7.7086 C   0  0  0  0  0  0  0  0  0  0  0  0
   28.4519    7.9523   -3.9292 O   0  0  0  0  0  0  0  0  0  0  0  0
   27.5023    8.4472   -4.5388 C   0  0  0  0  0  0  0  0  0  0  0  0
   27.0830    9.7486   -4.2948 N   0  0  0  0  0  0  0  0  0  0  0  0
   26.7694    7.7187   -5.6309 C   0  0  0  0  0  0  0  0  0  0  0  0
   26.4212    8.7219   -6.7523 C   0  0  0  0  0  0  0  0  0  0  0  0
   27.7179    9.1549   -7.4537 C   0  0  0  0  0  0  0  0  0  0  0  0
   28.6301    6.8869   -7.0771 C   0  0  0  0  0  0  0  0  0  0  0  0
   27.4988    6.4897   -6.1853 C   0  0  0  0  0  0  0  0  0  0  0  0
   25.7275    9.9293   -6.1345 C   0  0  0  0  0  0  0  0  0  0  0  0
   27.6117   12.0447   -3.5856 C   0  0  0  0  0  0  0  0  0  0  0  0
   27.6961   10.5681   -3.2285 C   0  0  0  0  0  0  0  0  0  0  0  0
   27.0831   10.1777   -1.8856 C   0  0  0  0  0  0  0  0  0  0  0  0
   27.9712   10.3810   -0.6588 C   0  0  0  0  0  0  0  0  0  0  0  0
   28.6196   11.7533   -0.4568 C   0  0  0  0  0  0  0  0  0  0  0  0
   27.9958   12.9096   -1.2362 C   0  0  0  0  0  0  0  0  0  0  0  0
   28.4216   12.9742   -2.6871 C   0  0  0  0  0  0  0  0  0  0  0  0
   21.8874   12.9812   -8.9291 O   0  0  0  0  0  0  0  0  0  0  0  0
   20.6323   12.3817   -9.2885 C   0  0  0  0  0  0  0  0  0  0  0  0
   22.7538   13.8284   -6.5854 O   0  0  0  0  0  0  0  0  0  0  0  0
   23.6246   14.9732   -6.4733 C   0  0  0  0  0  0  0  0  0  0  0  0
   22.9997   16.1548   -7.1812 C   0  0  0  0  0  0  0  0  0  0  0  0
   22.7858   17.3554   -6.2796 C   0  0  0  0  0  0  0  0  0  0  0  0
   23.3887   17.2356   -4.9057 C   0  0  0  0  0  0  0  0  0  0  0  0
   24.3952   18.2497   -4.7197 O   0  0  0  0  0  0  0  0  0  0  0  0
   25.7054   17.8494   -4.6425 C   0  0  0  0  0  0  0  0  0  0  0  0
   26.0922   16.5729   -4.2494 C   0  0  0  0  0  0  0  0  0  0  0  0
   28.3960   17.1656   -4.5815 C   0  0  0  0  0  0  0  0  0  0  0  0
   26.6631   18.7764   -5.0238 C   0  0  0  0  0  0  0  0  0  0  0  0
   27.9995   18.4321   -4.9979 C   0  0  0  0  0  0  0  0  0  0  0  0
   27.4310   16.2432   -4.2010 C   0  0  0  0  0  0  0  0  0  0  0  0
   31.9473   16.7944   -4.9643 N   0  0  0  0  0  0  0  0  0  0  0  0
   31.6646   15.7902   -4.1992 N   0  0  0  0  0  0  0  0  0  0  0  0
   30.3298   15.7552   -3.9510 N   0  0  0  0  0  0  0  0  0  0  0  0
   29.8066   16.7980   -4.5759 C   0  0  0  0  0  0  0  0  0  0  0  0
   30.7923   17.4317   -5.2185 N   0  0  0  0  0  0  0  0  0  0  0  0
   29.8471   15.0868   -3.4129 H   0  0  0  0  0  0  0  0  0  0  0  0
 23 24  1  0  0  0
 23 22  1  0  0  0
 24 18  1  0  0  0
 22 21  1  0  0  0
 18 19  1  0  0  0
 39 40  2  0  0  0
 39 43  1  0  0  0
 40 41  1  0  0  0
 41 42  1  0  0  0
 43 42  2  0  0  0
  9 10  2  0  0  0
 19 20  1  0  0  0
 19 11  1  0  0  0
 21 20  1  0  0  0
 42 35  1  0  0  0
 10 11  1  0  0  0
 10 12  1  0  0  0
 35 38  2  0  0  0
 35 37  1  0  0  0
 38 34  1  0  0  0
 11  7  1  0  0  0
 37 36  2  0  0  0
 34 33  2  0  0  0
 36 33  1  0  0  0
 12 16  1  0  0  0
 12 13  1  0  0  0
 16 15  1  0  0  0
 33 32  1  0  0  0
  7 17  2  0  0  0
 32 31  1  0  0  0
 31 30  1  0  0  0
 30 29  1  0  0  0
 15  8  2  0  0  0
 17 13  1  0  0  0
 17  3  1  0  0  0
 13 14  1  0  0  0
  8 14  1  0  0  0
 28 29  1  0  0  0
 28 27  1  0  0  0
  6  3  2  0  0  0
  6  2  1  0  0  0
  3  4  1  0  0  0
 27  2  1  0  0  0
  2  1  2  0  0  0
  4  5  2  0  0  0
  1  5  1  0  0  0
  1 25  1  0  0  0
 25 26  1  0  0  0
 41 44  1  0  0  0
M  END
> <minimizedAffinity>
-9.81263

$$$$
5G57_6M5_A_1931


 44 49  0  0  0  0  0  0  0  0999 V2000
   28.5738   12.7464   -0.5730 C   0  0  0  0  0  0  0  0  0  0  0  0
   28.0315   13.1673   -1.8055 C   0  0  0  0  0  0  0  0  0  0  0  0
   27.9390   10.8530   -2.5244 C   0  0  0  0  0  0  0  0  0  0  0  0
   28.4536   10.4494   -1.2995 C   0  0  0  0  0  0  0  0  0  0  0  0
   28.7840   11.3927   -0.3392 C   0  0  0  0  0  0  0  0  0  0  0  0
   27.6989   12.2113   -2.7541 C   0  0  0  0  0  0  0  0  0  0  0  0
   27.5360   10.2788   -4.7981 N   0  0  0  0  0  0  0  0  0  0  0  0
   25.0755    6.9897   -3.0956 C   0  0  0  0  0  0  0  0  0  0  0  0
   26.6231    7.3115   -6.5374 O   0  0  0  0  0  0  0  0  0  0  0  0
   27.0732    8.0351   -5.6475 C   0  0  0  0  0  0  0  0  0  0  0  0
   27.0842    9.4182   -5.7738 N   0  0  0  0  0  0  0  0  0  0  0  0
   27.5799    7.4946   -4.3391 C   0  0  0  0  0  0  0  0  0  0  0  0
   27.1539    8.4533   -3.2057 C   0  0  0  0  0  0  0  0  0  0  0  0
   25.6296    8.3718   -3.0309 C   0  0  0  0  0  0  0  0  0  0  0  0
   25.7312    5.9727   -3.6239 C   0  0  0  0  0  0  0  0  0  0  0  0
   27.1653    6.0502   -4.0368 C   0  0  0  0  0  0  0  0  0  0  0  0
   27.5668    9.8713   -3.5792 C   0  0  0  0  0  0  0  0  0  0  0  0
   26.4318   11.5687   -6.7762 C   0  0  0  0  0  0  0  0  0  0  0  0
   26.6424   10.0814   -7.0186 C   0  0  0  0  0  0  0  0  0  0  0  0
   27.6125    9.7268   -8.1432 C   0  0  0  0  0  0  0  0  0  0  0  0
   27.0313    9.7318   -9.5564 C   0  0  0  0  0  0  0  0  0  0  0  0
   26.2681   10.9762  -10.0185 C   0  0  0  0  0  0  0  0  0  0  0  0
   26.5166   12.2508   -9.2139 C   0  0  0  0  0  0  0  0  0  0  0  0
   25.7449   12.3179   -7.9137 C   0  0  0  0  0  0  0  0  0  0  0  0
   28.8487   13.7422    0.3250 O   0  0  0  0  0  0  0  0  0  0  0  0
   29.5816   13.3793    1.5062 C   0  0  0  0  0  0  0  0  0  0  0  0
   27.8435   14.5226   -1.9862 O   0  0  0  0  0  0  0  0  0  0  0  0
   28.7151   15.2305   -2.8920 C   0  0  0  0  0  0  0  0  0  0  0  0
   28.4489   16.7161   -2.7921 C   0  0  0  0  0  0  0  0  0  0  0  0
   28.7518   17.4718   -4.0717 C   0  0  0  0  0  0  0  0  0  0  0  0
   27.5486   17.8166   -4.9077 C   0  0  0  0  0  0  0  0  0  0  0  0
   26.3452   17.6378   -4.1359 O   0  0  0  0  0  0  0  0  0  0  0  0
   25.3560   16.8448   -4.6607 C   0  0  0  0  0  0  0  0  0  0  0  0
   24.0398   17.2664   -4.8138 C   0  0  0  0  0  0  0  0  0  0  0  0
   23.4704   15.1452   -5.7860 C   0  0  0  0  0  0  0  0  0  0  0  0
   25.7324   15.5811   -5.0889 C   0  0  0  0  0  0  0  0  0  0  0  0
   24.7944   14.7403   -5.6529 C   0  0  0  0  0  0  0  0  0  0  0  0
   23.1014   16.4119   -5.3547 C   0  0  0  0  0  0  0  0  0  0  0  0
   21.4267   12.4791   -7.0554 N   0  0  0  0  0  0  0  0  0  0  0  0
   20.7865   13.5195   -7.4817 N   0  0  0  0  0  0  0  0  0  0  0  0
   21.4336   14.6519   -7.1030 N   0  0  0  0  0  0  0  0  0  0  0  0
   22.4868   14.2631   -6.4020 C   0  0  0  0  0  0  0  0  0  0  0  0
   22.5010   12.9269   -6.3845 N   0  0  0  0  0  0  0  0  0  0  0  0
   21.1714   15.5782   -7.3091 H   0  0  0  0  0  0  0  0  0  0  0  0
 23 24  1  0  0  0
 23 22  1  0  0  0
 24 18  1  0  0  0
 22 21  1  0  0  0
 18 19  1  0  0  0
 39 40  2  0  0  0
 39 43  1  0  0  0
 40 41  1  0  0  0
 41 42  1  0  0  0
 43 42  2  0  0  0
  9 10  2  0  0  0
 19 20  1  0  0  0
 19 11  1  0  0  0
 21 20  1  0  0  0
 42 35  1  0  0  0
 10 11  1  0  0  0
 10 12  1  0  0  0
 35 38  2  0  0  0
 35 37  1  0  0  0
 38 34  1  0  0  0
 11  7  1  0  0  0
 37 36  2  0  0  0
 34 33  2  0  0  0
 36 33  1  0  0  0
 12 16  1  0  0  0
 12 13  1  0  0  0
 16 15  1  0  0  0
 33 32  1  0  0  0
  7 17  2  0  0  0
 32 31  1  0  0  0
 31 30  1  0  0  0
 30 29  1  0  0  0
 15  8  2  0  0  0
 17 13  1  0  0  0
 17  3  1  0  0  0
 13 14  1  0  0  0
  8 14  1  0  0  0
 28 29  1  0  0  0
 28 27  1  0  0  0
  6  3  2  0  0  0
  6  2  1  0  0  0
  3  4  1  0  0  0
 27  2  1  0  0  0
  2  1  2  0  0  0
  4  5  2  0  0  0
  1  5  1  0  0  0
  1 25  1  0  0  0
 25 26  1  0  0  0
 41 44  1  0  0  0
M  END
> <minimizedAffinity>
-9.79758

$$$$
