1E1V_CMG_A_401
  RCSB PDB12061702203D
Coordinates from PDB:1E1V:A:401 Model:1 without hydrogens
 18 20  0  0  0  0            999 V2000
    2.4450   28.9910    7.3460   N 0  0  0  0  0  0  0  0  0  0  0  0
    2.9810   29.9600    6.6140   C 0  0  0  0  0  0  0  0  0  0  0  0
    2.3900   31.1700    6.6090   N 0  0  0  0  0  0  0  0  0  0  0  0
    1.3010   31.4190    7.3260   C 0  0  0  0  0  0  0  0  0  0  0  0
    0.7490   30.4080    8.0490   C 0  0  0  0  0  0  0  0  0  0  0  0
    1.3270   29.1410    8.0570   C 0  0  0  0  0  0  0  0  0  0  0  0
    0.7220   28.1600    8.8410   O 0  0  0  0  0  0  0  0  0  0  0  0
    1.7060   27.1180    9.1120   C 0  0  0  0  0  0  0  0  0  0  0  0
   -0.2920   31.0010    8.6180   N 0  0  0  0  0  0  0  0  0  0  0  0
   -0.4920   32.3190    8.2780   C 0  0  0  0  0  0  0  0  0  0  0  0
    0.5880   32.5280    7.4900   N 0  0  0  0  0  0  0  0  0  0  0  0
    4.1220   29.9810    5.8800   N 0  0  0  0  0  0  0  0  0  0  0  0
    0.9790   26.3030   10.2570   C 0  0  0  0  0  0  0  0  0  0  0  0
   -0.2230   25.5700    9.5700   C 0  0  0  0  0  0  0  0  0  0  0  0
   -0.7780   24.5780   10.5920   C 0  0  0  0  0  0  0  0  0  0  0  0
    0.1720   23.3870   10.3210   C 0  0  0  0  0  0  0  0  0  0  0  0
    1.3640   23.9990   11.1710   C 0  0  0  0  0  0  0  0  0  0  0  0
    1.8480   25.0470   10.1260   C 0  0  0  0  0  0  0  0  0  0  0  0
  1  2  2  0  0  0  0
  1  6  1  0  0  0  0
  2  3  1  0  0  0  0
  2 12  1  0  0  0  0
  3  4  2  0  0  0  0
  4  5  1  0  0  0  0
  4 11  1  0  0  0  0
  5  6  2  0  0  0  0
  5  9  1  0  0  0  0
  6  7  1  0  0  0  0
  7  8  1  0  0  0  0
  8 13  1  0  0  0  0
  9 10  2  0  0  0  0
 10 11  1  0  0  0  0
 13 14  1  0  0  0  0
 13 18  1  0  0  0  0
 14 15  1  0  0  0  0
 15 16  1  0  0  0  0
 16 17  1  0  0  0  0
 17 18  1  0  0  0  0
A    1
N1
A    2
C2
A    3
N3
A    4
C4
A    5
C5
A    6
C6
A    7
O6
A    8
C9
A    9
N7
A   10
C8
A   11
N9
A   12
N2
A   13
C10
A   14
C11
A   15
C12
A   16
C13
A   17
C14
A   18
C15
M  END
>  <InstanceId>
1E1V_CMG_A_401

>  <ChemCompId>
CMG

>  <PdbId>
1E1V

>  <ChainId>
A

>  <ResidueNumber>
401

>  <InsertionCode>


>  <Model>
1

>  <AltIds>


>  <MissingHeavyAtoms>
0

>  <ObservedFormula>
C12 N5 O

>  <Name>
6-O-CYCLOHEXYLMETHYL GUANINE

>  <SystematicName>
6-(cyclohexylmethoxy)-9H-purin-2-amine

>  <Synonyms>


>  <Type>
NON-POLYMER

>  <Formula>
C12 H17 N5 O

>  <MolecularWeight>
247.296

>  <ModifiedDate>
2011-06-04

>  <Parent>


>  <OneLetterCode>


>  <SubcomponentList>


>  <AmbiguousFlag>
N

>  <InChI>
InChI=1S/C12H17N5O/c13-12-16-10-9(14-7-15-10)11(17-12)18-6-8-4-2-1-3-5-8/h7-8H,1-6H2,(H3,13,14,15,16,17)

>  <InChIKey>
MWGXGTJJAOZBNW-UHFFFAOYSA-N

>  <SMILES>
c1[nH]c2c(n1)c(nc(n2)N)OCC3CCCCC3

$$$$
