3UZ5_0CU_A_291


 12 13  0  0  0  0  0  0  0  0999 V2000
   20.9450    0.3903    7.4070 C   0  0  0  0  0  0  0  0  0  0  0  0
   19.9848   -0.5059    7.1293 N   0  0  0  0  0  0  0  0  0  0  0  0
   19.5118   -0.2086    6.0103 N   0  0  0  0  0  0  0  0  0  0  0  0
   20.0548    0.8073    5.4957 N   0  0  0  0  0  0  0  0  0  0  0  0
   20.9796    1.2681    6.3255 C   0  0  0  0  0  0  0  0  0  0  0  0
   21.8508    2.3378    6.2907 C   0  0  0  0  0  0  0  0  0  0  0  0
   22.6946    2.4771    7.3775 C   0  0  0  0  0  0  0  0  0  0  0  0
   23.7803    3.7952    7.3870 Cl  0  0  0  0  0  0  0  0  0  0  0  0
   22.6930    1.6069    8.4649 C   0  0  0  0  0  0  0  0  0  0  0  0
   21.7845    0.5619    8.5000 C   0  0  0  0  0  0  0  0  0  0  0  0
   21.7255   -0.5887    9.8128 Cl  0  0  0  0  0  0  0  0  0  0  0  0
   19.7049   -1.2574    7.7004 H   0  0  0  0  0  0  0  0  0  0  0  0
 11 10  1  0  0  0
  2  3  1  0  0  0
  2  1  1  0  0  0
  3  4  2  0  0  0
 10  1  2  0  0  0
 10  9  1  0  0  0
  1  5  1  0  0  0
  4  5  1  0  0  0
  9  7  2  0  0  0
  5  6  2  0  0  0
  7  6  1  0  0  0
  7  8  1  0  0  0
  2 12  1  0  0  0
M  END
> <minimizedAffinity>
-6.85865

$$$$
3UZ5_0CU_A_291


 12 13  0  0  0  0  0  0  0  0999 V2000
   21.6300    1.3741    7.0887 C   0  0  0  0  0  0  0  0  0  0  0  0
   21.8010    2.2852    6.1177 N   0  0  0  0  0  0  0  0  0  0  0  0
   21.0414    1.9705    5.1753 N   0  0  0  0  0  0  0  0  0  0  0  0
   20.3678    0.9293    5.4069 N   0  0  0  0  0  0  0  0  0  0  0  0
   20.6869    0.4683    6.6077 C   0  0  0  0  0  0  0  0  0  0  0  0
   20.2868   -0.6222    7.3528 C   0  0  0  0  0  0  0  0  0  0  0  0
   20.8601   -0.7534    8.6045 C   0  0  0  0  0  0  0  0  0  0  0  0
   20.4077   -2.0959    9.5579 Cl  0  0  0  0  0  0  0  0  0  0  0  0
   21.7932    0.1443    9.1174 C   0  0  0  0  0  0  0  0  0  0  0  0
   22.2119    1.2110    8.3391 C   0  0  0  0  0  0  0  0  0  0  0  0
   23.3617    2.3960    8.9088 Cl  0  0  0  0  0  0  0  0  0  0  0  0
   22.4110    3.0576    6.1427 H   0  0  0  0  0  0  0  0  0  0  0  0
 11 10  1  0  0  0
  2  3  1  0  0  0
  2  1  1  0  0  0
  3  4  2  0  0  0
 10  1  2  0  0  0
 10  9  1  0  0  0
  1  5  1  0  0  0
  4  5  1  0  0  0
  9  7  2  0  0  0
  5  6  2  0  0  0
  7  6  1  0  0  0
  7  8  1  0  0  0
  2 12  1  0  0  0
M  END
> <minimizedAffinity>
-6.10346

$$$$
3UZ5_0CU_A_291


 12 13  0  0  0  0  0  0  0  0999 V2000
   20.8990   -0.1780    7.8881 C   0  0  0  0  0  0  0  0  0  0  0  0
   20.4517   -1.2930    8.4872 N   0  0  0  0  0  0  0  0  0  0  0  0
   21.0622   -1.4013    9.5734 N   0  0  0  0  0  0  0  0  0  0  0  0
   21.8870   -0.4681    9.7746 N   0  0  0  0  0  0  0  0  0  0  0  0
   21.8611    0.3600    8.7403 C   0  0  0  0  0  0  0  0  0  0  0  0
   22.5473    1.5133    8.4188 C   0  0  0  0  0  0  0  0  0  0  0  0
   22.2142    2.1103    7.2167 C   0  0  0  0  0  0  0  0  0  0  0  0
   23.0474    3.5317    6.7683 Cl  0  0  0  0  0  0  0  0  0  0  0  0
   21.2464    1.6041    6.3524 C   0  0  0  0  0  0  0  0  0  0  0  0
   20.5962    0.4239    6.6736 C   0  0  0  0  0  0  0  0  0  0  0  0
   19.3557   -0.2717    5.6598 Cl  0  0  0  0  0  0  0  0  0  0  0  0
   19.7698   -1.9106    8.1367 H   0  0  0  0  0  0  0  0  0  0  0  0
 11 10  1  0  0  0
  2  3  1  0  0  0
  2  1  1  0  0  0
  3  4  2  0  0  0
 10  1  2  0  0  0
 10  9  1  0  0  0
  1  5  1  0  0  0
  4  5  1  0  0  0
  9  7  2  0  0  0
  5  6  2  0  0  0
  7  6  1  0  0  0
  7  8  1  0  0  0
  2 12  1  0  0  0
M  END
> <minimizedAffinity>
-5.97772

$$$$
3UZ5_0CU_A_291


 12 13  0  0  0  0  0  0  0  0999 V2000
   22.4978    1.5310    8.0902 C   0  0  0  0  0  0  0  0  0  0  0  0
   23.5238    2.2512    8.5707 N   0  0  0  0  0  0  0  0  0  0  0  0
   23.7119    3.2024    7.7806 N   0  0  0  0  0  0  0  0  0  0  0  0
   22.9142    3.2013    6.8032 N   0  0  0  0  0  0  0  0  0  0  0  0
   22.1042    2.1578    6.9098 C   0  0  0  0  0  0  0  0  0  0  0  0
   21.0738    1.6620    6.1372 C   0  0  0  0  0  0  0  0  0  0  0  0
   20.4468    0.5232    6.6089 C   0  0  0  0  0  0  0  0  0  0  0  0
   19.1756   -0.1369    5.6791 Cl  0  0  0  0  0  0  0  0  0  0  0  0
   20.8084   -0.1158    7.7924 C   0  0  0  0  0  0  0  0  0  0  0  0
   21.8708    0.3740    8.5342 C   0  0  0  0  0  0  0  0  0  0  0  0
   22.3795   -0.3509   10.0396 Cl  0  0  0  0  0  0  0  0  0  0  0  0
   24.0334    2.0653    9.3923 H   0  0  0  0  0  0  0  0  0  0  0  0
 11 10  1  0  0  0
  2  3  1  0  0  0
  2  1  1  0  0  0
  3  4  2  0  0  0
 10  1  2  0  0  0
 10  9  1  0  0  0
  1  5  1  0  0  0
  4  5  1  0  0  0
  9  7  2  0  0  0
  5  6  2  0  0  0
  7  6  1  0  0  0
  7  8  1  0  0  0
  2 12  1  0  0  0
M  END
> <minimizedAffinity>
-5.67439

$$$$
3UZ5_0CU_A_291


 12 13  0  0  0  0  0  0  0  0999 V2000
   21.2784    1.4847    6.4421 C   0  0  0  0  0  0  0  0  0  0  0  0
   21.3106    2.3572    5.4224 N   0  0  0  0  0  0  0  0  0  0  0  0
   22.1647    3.2264    5.7043 N   0  0  0  0  0  0  0  0  0  0  0  0
   22.7192    3.0339    6.8210 N   0  0  0  0  0  0  0  0  0  0  0  0
   22.2061    1.9446    7.3745 C   0  0  0  0  0  0  0  0  0  0  0  0
   22.4171    1.2865    8.5690 C   0  0  0  0  0  0  0  0  0  0  0  0
   21.6713    0.1409    8.7781 C   0  0  0  0  0  0  0  0  0  0  0  0
   21.8864   -0.6998   10.2488 Cl  0  0  0  0  0  0  0  0  0  0  0  0
   20.7485   -0.3509    7.8580 C   0  0  0  0  0  0  0  0  0  0  0  0
   20.5217    0.3450    6.6820 C   0  0  0  0  0  0  0  0  0  0  0  0
   19.3993   -0.2085    5.4637 Cl  0  0  0  0  0  0  0  0  0  0  0  0
   20.7635    2.3199    4.6048 H   0  0  0  0  0  0  0  0  0  0  0  0
 11 10  1  0  0  0
  2  3  1  0  0  0
  2  1  1  0  0  0
  3  4  2  0  0  0
 10  1  2  0  0  0
 10  9  1  0  0  0
  1  5  1  0  0  0
  4  5  1  0  0  0
  9  7  2  0  0  0
  5  6  2  0  0  0
  7  6  1  0  0  0
  7  8  1  0  0  0
  2 12  1  0  0  0
M  END
> <minimizedAffinity>
-5.55509

$$$$
3UZ5_0CU_A_291


 12 13  0  0  0  0  0  0  0  0999 V2000
   22.6330    2.8245    6.6747 C   0  0  0  0  0  0  0  0  0  0  0  0
   23.5398    3.8123    6.7383 N   0  0  0  0  0  0  0  0  0  0  0  0
   24.1244    3.7094    7.8392 N   0  0  0  0  0  0  0  0  0  0  0  0
   23.7029    2.7467    8.5372 N   0  0  0  0  0  0  0  0  0  0  0  0
   22.7356    2.1269    7.8764 C   0  0  0  0  0  0  0  0  0  0  0  0
   21.9233    1.0471    8.1567 C   0  0  0  0  0  0  0  0  0  0  0  0
   21.0186    0.6889    7.1741 C   0  0  0  0  0  0  0  0  0  0  0  0
   19.9809   -0.6321    7.4813 Cl  0  0  0  0  0  0  0  0  0  0  0  0
   20.9042    1.3576    5.9577 C   0  0  0  0  0  0  0  0  0  0  0  0
   21.7009    2.4634    5.7105 C   0  0  0  0  0  0  0  0  0  0  0  0
   21.6392    3.3490    4.2063 Cl  0  0  0  0  0  0  0  0  0  0  0  0
   23.7127    4.4915    6.0469 H   0  0  0  0  0  0  0  0  0  0  0  0
 11 10  1  0  0  0
  2  3  1  0  0  0
  2  1  1  0  0  0
  3  4  2  0  0  0
 10  1  2  0  0  0
 10  9  1  0  0  0
  1  5  1  0  0  0
  4  5  1  0  0  0
  9  7  2  0  0  0
  5  6  2  0  0  0
  7  6  1  0  0  0
  7  8  1  0  0  0
  2 12  1  0  0  0
M  END
> <minimizedAffinity>
-5.53197

$$$$
3UZ5_0CU_A_291


 12 13  0  0  0  0  0  0  0  0999 V2000
   21.1648    1.4734    6.0492 C   0  0  0  0  0  0  0  0  0  0  0  0
   20.3477    0.6455    5.3790 N   0  0  0  0  0  0  0  0  0  0  0  0
   20.0217   -0.2711    6.1650 N   0  0  0  0  0  0  0  0  0  0  0  0
   20.5394   -0.1516    7.3092 N   0  0  0  0  0  0  0  0  0  0  0  0
   21.2997    0.9337    7.3266 C   0  0  0  0  0  0  0  0  0  0  0  0
   22.0974    1.5295    8.2822 C   0  0  0  0  0  0  0  0  0  0  0  0
   22.7378    2.6960    7.9059 C   0  0  0  0  0  0  0  0  0  0  0  0
   23.7485    3.4617    9.0497 Cl  0  0  0  0  0  0  0  0  0  0  0  0
   22.6096    3.2667    6.6420 C   0  0  0  0  0  0  0  0  0  0  0  0
   21.8358    2.6331    5.6835 C   0  0  0  0  0  0  0  0  0  0  0  0
   21.6027    3.2871    4.0809 Cl  0  0  0  0  0  0  0  0  0  0  0  0
   20.0588    0.7419    4.4428 H   0  0  0  0  0  0  0  0  0  0  0  0
 11 10  1  0  0  0
  2  3  1  0  0  0
  2  1  1  0  0  0
  3  4  2  0  0  0
 10  1  2  0  0  0
 10  9  1  0  0  0
  1  5  1  0  0  0
  4  5  1  0  0  0
  9  7  2  0  0  0
  5  6  2  0  0  0
  7  6  1  0  0  0
  7  8  1  0  0  0
  2 12  1  0  0  0
M  END
> <minimizedAffinity>
-5.06861

$$$$
3UZ5_0CU_A_291


 12 13  0  0  0  0  0  0  0  0999 V2000
   20.7415   -1.9897    5.9274 C   0  0  0  0  0  0  0  0  0  0  0  0
   21.0080   -2.3764    4.6697 N   0  0  0  0  0  0  0  0  0  0  0  0
   21.4381   -3.5495    4.7252 N   0  0  0  0  0  0  0  0  0  0  0  0
   21.4941   -4.0028    5.9012 N   0  0  0  0  0  0  0  0  0  0  0  0
   21.0776   -3.0680    6.7433 C   0  0  0  0  0  0  0  0  0  0  0  0
   20.9458   -3.0045    8.1155 C   0  0  0  0  0  0  0  0  0  0  0  0
   20.4473   -1.8215    8.6296 C   0  0  0  0  0  0  0  0  0  0  0  0
   20.2805   -1.6897   10.3239 Cl  0  0  0  0  0  0  0  0  0  0  0  0
   20.0886   -0.7332    7.8378 C   0  0  0  0  0  0  0  0  0  0  0  0
   20.2651   -0.8014    6.4656 C   0  0  0  0  0  0  0  0  0  0  0  0
   19.8240    0.5064    5.3951 Cl  0  0  0  0  0  0  0  0  0  0  0  0
   20.8873   -1.8368    3.8552 H   0  0  0  0  0  0  0  0  0  0  0  0
 11 10  1  0  0  0
  2  3  1  0  0  0
  2  1  1  0  0  0
  3  4  2  0  0  0
 10  1  2  0  0  0
 10  9  1  0  0  0
  1  5  1  0  0  0
  4  5  1  0  0  0
  9  7  2  0  0  0
  5  6  2  0  0  0
  7  6  1  0  0  0
  7  8  1  0  0  0
  2 12  1  0  0  0
M  END
> <minimizedAffinity>
-4.51959

$$$$
3UZ5_0CU_A_291


 12 13  0  0  0  0  0  0  0  0999 V2000
   20.3209   -1.6051    7.5055 C   0  0  0  0  0  0  0  0  0  0  0  0
   20.0388   -1.2921    8.7802 N   0  0  0  0  0  0  0  0  0  0  0  0
   20.2892   -2.3018    9.4746 N   0  0  0  0  0  0  0  0  0  0  0  0
   20.7138   -3.2776    8.7970 N   0  0  0  0  0  0  0  0  0  0  0  0
   20.7567   -2.9284    7.5193 C   0  0  0  0  0  0  0  0  0  0  0  0
   21.1144   -3.5834    6.3585 C   0  0  0  0  0  0  0  0  0  0  0  0
   21.0324   -2.8489    5.1897 C   0  0  0  0  0  0  0  0  0  0  0  0
   21.4503   -3.6213    3.7252 Cl  0  0  0  0  0  0  0  0  0  0  0  0
   20.6153   -1.5207    5.1474 C   0  0  0  0  0  0  0  0  0  0  0  0
   20.2226   -0.8922    6.3177 C   0  0  0  0  0  0  0  0  0  0  0  0
   19.7055    0.7755    6.3611 Cl  0  0  0  0  0  0  0  0  0  0  0  0
   19.6982   -0.4284    9.1075 H   0  0  0  0  0  0  0  0  0  0  0  0
 11 10  1  0  0  0
  2  3  1  0  0  0
  2  1  1  0  0  0
  3  4  2  0  0  0
 10  1  2  0  0  0
 10  9  1  0  0  0
  1  5  1  0  0  0
  4  5  1  0  0  0
  9  7  2  0  0  0
  5  6  2  0  0  0
  7  6  1  0  0  0
  7  8  1  0  0  0
  2 12  1  0  0  0
M  END
> <minimizedAffinity>
-4.48465

$$$$
3UZ5_0CU_A_291


 12 13  0  0  0  0  0  0  0  0999 V2000
   21.1795   -3.2913    6.3750 C   0  0  0  0  0  0  0  0  0  0  0  0
   21.6910   -4.4968    6.6707 N   0  0  0  0  0  0  0  0  0  0  0  0
   21.7628   -4.5742    7.9169 N   0  0  0  0  0  0  0  0  0  0  0  0
   21.3515   -3.5357    8.5034 N   0  0  0  0  0  0  0  0  0  0  0  0
   20.9674   -2.6513    7.5943 C   0  0  0  0  0  0  0  0  0  0  0  0
   20.4616   -1.3689    7.6588 C   0  0  0  0  0  0  0  0  0  0  0  0
   20.1629   -0.7660    6.4506 C   0  0  0  0  0  0  0  0  0  0  0  0
   19.5487    0.8271    6.4787 Cl  0  0  0  0  0  0  0  0  0  0  0  0
   20.3499   -1.3867    5.2179 C   0  0  0  0  0  0  0  0  0  0  0  0
   20.8955   -2.6591    5.1715 C   0  0  0  0  0  0  0  0  0  0  0  0
   21.1457   -3.5204    3.6728 Cl  0  0  0  0  0  0  0  0  0  0  0  0
   21.9596   -5.1910    6.0263 H   0  0  0  0  0  0  0  0  0  0  0  0
 11 10  1  0  0  0
  2  3  1  0  0  0
  2  1  1  0  0  0
  3  4  2  0  0  0
 10  1  2  0  0  0
 10  9  1  0  0  0
  1  5  1  0  0  0
  4  5  1  0  0  0
  9  7  2  0  0  0
  5  6  2  0  0  0
  7  6  1  0  0  0
  7  8  1  0  0  0
  2 12  1  0  0  0
M  END
> <minimizedAffinity>
-4.48150

$$$$
