2ZDK_50U_A_501


 32 34  0  0  0  0  0  0  0  0999 V2000
  -26.3774    1.5823   13.9711 C   0  0  0  0  0  0  0  0  0  0  0  0
  -26.6425    2.7257   13.6143 O   0  0  0  0  0  0  0  0  0  0  0  0
  -25.2214    1.0601   14.0528 N   0  0  0  0  0  0  0  0  0  0  0  0
  -25.1243    0.1476   14.4095 H   0  0  0  0  0  0  0  0  0  0  0  0
  -27.6935    1.4052   16.5891 C   0  0  0  0  0  0  0  0  0  0  0  0
  -26.5044    1.2108   16.7710 O   0  0  0  0  0  0  0  0  0  0  0  0
  -28.2615    1.1196   15.4616 N   0  0  0  0  0  0  0  0  0  0  0  0
  -27.4611    0.6134   14.3690 C   0  0  0  0  0  0  0  0  0  0  0  0
  -28.5640    0.5681   13.2899 C   0  0  0  0  0  0  0  0  0  0  0  0
  -29.9255    0.5686   13.9955 C   0  0  0  0  0  0  0  0  0  0  0  0
  -29.7132    1.2082   15.3910 C   0  0  0  0  0  0  0  0  0  0  0  0
  -28.4352    2.0381   17.7670 C   0  0  0  0  0  0  0  0  0  0  0  0
  -28.4354    1.0692   18.9725 C   0  0  0  0  0  0  0  0  0  0  0  0
  -29.0546   -0.3274   18.6932 C   0  0  0  0  0  0  0  0  0  0  0  0
  -30.5708   -0.2956   18.4183 C   0  0  0  0  0  0  0  0  0  0  0  0
  -31.0990   -1.6979   18.0942 C   0  0  0  0  0  0  0  0  0  0  0  0
  -30.6309   -2.8669   18.9635 C   0  0  0  0  0  0  0  0  0  0  0  0
  -29.1789   -2.8114   19.4401 C   0  0  0  0  0  0  0  0  0  0  0  0
  -28.7402   -1.3573   19.7863 C   0  0  0  0  0  0  0  0  0  0  0  0
  -24.0502    1.7878   13.6295 C   0  0  0  0  0  0  0  0  0  0  0  0
  -22.9356    1.6103   14.6861 C   0  0  0  0  0  0  0  0  0  0  0  0
  -23.0913    2.1732   15.9564 C   0  0  0  0  0  0  0  0  0  0  0  0
  -22.0787    2.0125   16.9189 C   0  0  0  0  0  0  0  0  0  0  0  0
  -20.9177    1.2948   16.6095 C   0  0  0  0  0  0  0  0  0  0  0  0
  -20.7637    0.7268   15.3238 C   0  0  0  0  0  0  0  0  0  0  0  0
  -21.7842    0.8958   14.3754 C   0  0  0  0  0  0  0  0  0  0  0  0
  -19.7895    1.0799   17.5852 C   0  0  0  0  0  0  0  0  0  0  0  0
  -19.8059    1.6405   18.7395 N   0  0  0  0  0  0  0  0  0  0  0  0
  -18.8200    0.3220   17.2226 N   0  0  0  0  0  0  0  0  0  0  0  0
  -20.5609    2.2182   18.9955 H   0  0  0  0  0  0  0  0  0  0  0  0
  -18.8295   -0.0972   16.3318 H   0  0  0  0  0  0  0  0  0  0  0  0
  -18.0666    0.1595   17.8351 H   0  0  0  0  0  0  0  0  0  0  0  0
  9 10  1  0  0  0
  9  8  1  0  0  0
 20  3  1  0  0  0
 20 21  1  0  0  0
  3  1  1  0  0  0
 10 11  1  0  0  0
 26 21  2  0  0  0
 26 25  1  0  0  0
  1  2  2  0  0  0
  1  8  1  0  0  0
  8  7  1  0  0  0
 21 22  1  0  0  0
 25 24  2  0  0  0
 11  7  1  0  0  0
  7  5  1  0  0  0
 22 23  2  0  0  0
 24 23  1  0  0  0
 24 27  1  0  0  0
  5  6  2  0  0  0
  5 12  1  0  0  0
 29 27  1  0  0  0
 27 28  2  0  0  0
 12 13  1  0  0  0
 16 15  1  0  0  0
 16 17  1  0  0  0
 15 14  1  0  0  0
 14 13  1  0  0  0
 14 19  1  0  0  0
 17 18  1  0  0  0
 18 19  1  0  0  0
  3  4  1  0  0  0
 28 30  1  0  0  0
 29 31  1  0  0  0
 29 32  1  0  0  0
M  END
> <minimizedAffinity>
-8.87226

$$$$
2ZDK_50U_A_501


 32 34  0  0  0  0  0  0  0  0999 V2000
  -26.7256    2.0262   13.8287 C   0  0  0  0  0  0  0  0  0  0  0  0
  -27.0722    1.4345   12.8116 O   0  0  0  0  0  0  0  0  0  0  0  0
  -25.5403    2.1463   14.2720 N   0  0  0  0  0  0  0  0  0  0  0  0
  -25.3736    2.6962   15.0714 H   0  0  0  0  0  0  0  0  0  0  0  0
  -27.3641    1.3286   16.6077 C   0  0  0  0  0  0  0  0  0  0  0  0
  -27.6124    0.3499   15.9256 O   0  0  0  0  0  0  0  0  0  0  0  0
  -27.4223    2.5262   16.1200 N   0  0  0  0  0  0  0  0  0  0  0  0
  -27.7305    2.7106   14.7194 C   0  0  0  0  0  0  0  0  0  0  0  0
  -27.5512    4.2424   14.6538 C   0  0  0  0  0  0  0  0  0  0  0  0
  -27.6562    4.7989   16.0788 C   0  0  0  0  0  0  0  0  0  0  0  0
  -27.2936    3.6432   17.0453 C   0  0  0  0  0  0  0  0  0  0  0  0
  -26.9486    1.0273   18.0481 C   0  0  0  0  0  0  0  0  0  0  0  0
  -28.2044    0.8422   18.9318 C   0  0  0  0  0  0  0  0  0  0  0  0
  -28.8348   -0.5766   18.8890 C   0  0  0  0  0  0  0  0  0  0  0  0
  -30.2676   -0.6074   18.3219 C   0  0  0  0  0  0  0  0  0  0  0  0
  -30.8006   -2.0434   18.2559 C   0  0  0  0  0  0  0  0  0  0  0  0
  -30.5697   -2.9576   19.4611 C   0  0  0  0  0  0  0  0  0  0  0  0
  -29.2333   -2.7911   20.1855 C   0  0  0  0  0  0  0  0  0  0  0  0
  -28.7895   -1.2989   20.2420 C   0  0  0  0  0  0  0  0  0  0  0  0
  -24.4365    1.4869   13.6182 C   0  0  0  0  0  0  0  0  0  0  0  0
  -23.2358    1.4276   14.5902 C   0  0  0  0  0  0  0  0  0  0  0  0
  -23.3461    2.0002   15.8609 C   0  0  0  0  0  0  0  0  0  0  0  0
  -22.2550    1.9468   16.7466 C   0  0  0  0  0  0  0  0  0  0  0  0
  -21.0615    1.3262   16.3603 C   0  0  0  0  0  0  0  0  0  0  0  0
  -20.9537    0.7481   15.0744 C   0  0  0  0  0  0  0  0  0  0  0  0
  -22.0522    0.8093   14.2033 C   0  0  0  0  0  0  0  0  0  0  0  0
  -19.8499    1.2292   17.2512 C   0  0  0  0  0  0  0  0  0  0  0  0
  -19.6533    2.0868   18.1854 N   0  0  0  0  0  0  0  0  0  0  0  0
  -19.0290    0.2655   17.0432 N   0  0  0  0  0  0  0  0  0  0  0  0
  -20.2975    2.8179   18.3260 H   0  0  0  0  0  0  0  0  0  0  0  0
  -19.2010   -0.3803   16.3202 H   0  0  0  0  0  0  0  0  0  0  0  0
  -18.2271    0.1717   17.6065 H   0  0  0  0  0  0  0  0  0  0  0  0
  9 10  1  0  0  0
  9  8  1  0  0  0
 20  3  1  0  0  0
 20 21  1  0  0  0
  3  1  1  0  0  0
 10 11  1  0  0  0
 26 21  2  0  0  0
 26 25  1  0  0  0
  1  2  2  0  0  0
  1  8  1  0  0  0
  8  7  1  0  0  0
 21 22  1  0  0  0
 25 24  2  0  0  0
 11  7  1  0  0  0
  7  5  1  0  0  0
 22 23  2  0  0  0
 24 23  1  0  0  0
 24 27  1  0  0  0
  5  6  2  0  0  0
  5 12  1  0  0  0
 29 27  1  0  0  0
 27 28  2  0  0  0
 12 13  1  0  0  0
 16 15  1  0  0  0
 16 17  1  0  0  0
 15 14  1  0  0  0
 14 13  1  0  0  0
 14 19  1  0  0  0
 17 18  1  0  0  0
 18 19  1  0  0  0
  3  4  1  0  0  0
 28 30  1  0  0  0
 29 31  1  0  0  0
 29 32  1  0  0  0
M  END
> <minimizedAffinity>
-8.31948

$$$$
2ZDK_50U_A_501


 32 34  0  0  0  0  0  0  0  0999 V2000
  -26.6281    1.3727   14.0477 C   0  0  0  0  0  0  0  0  0  0  0  0
  -26.9658    2.4265   13.5182 O   0  0  0  0  0  0  0  0  0  0  0  0
  -25.4410    0.9452   14.2015 N   0  0  0  0  0  0  0  0  0  0  0  0
  -25.2859    0.1081   14.6959 H   0  0  0  0  0  0  0  0  0  0  0  0
  -27.8852    1.4848   16.6981 C   0  0  0  0  0  0  0  0  0  0  0  0
  -26.6839    1.3813   16.8744 O   0  0  0  0  0  0  0  0  0  0  0  0
  -28.4561    1.0175   15.6345 N   0  0  0  0  0  0  0  0  0  0  0  0
  -27.6478    0.4103   14.6007 C   0  0  0  0  0  0  0  0  0  0  0  0
  -28.7654    0.1587   13.5660 C   0  0  0  0  0  0  0  0  0  0  0  0
  -30.1119    0.1825   14.2994 C   0  0  0  0  0  0  0  0  0  0  0  0
  -29.9115    1.0174   15.5894 C   0  0  0  0  0  0  0  0  0  0  0  0
  -28.6405    2.2320   17.7977 C   0  0  0  0  0  0  0  0  0  0  0  0
  -27.6786    2.5748   18.9593 C   0  0  0  0  0  0  0  0  0  0  0  0
  -28.0121    1.8900   20.3127 C   0  0  0  0  0  0  0  0  0  0  0  0
  -27.2676    2.4941   21.5195 C   0  0  0  0  0  0  0  0  0  0  0  0
  -27.6902    1.8083   22.8240 C   0  0  0  0  0  0  0  0  0  0  0  0
  -27.7982    0.2820   22.8377 C   0  0  0  0  0  0  0  0  0  0  0  0
  -28.3298   -0.3662   21.5587 C   0  0  0  0  0  0  0  0  0  0  0  0
  -27.8180    0.3681   20.2837 C   0  0  0  0  0  0  0  0  0  0  0  0
  -24.3182    1.6714   13.6605 C   0  0  0  0  0  0  0  0  0  0  0  0
  -23.1232    1.5530   14.6342 C   0  0  0  0  0  0  0  0  0  0  0  0
  -23.2488    2.0269   15.9435 C   0  0  0  0  0  0  0  0  0  0  0  0
  -22.1630    1.9197   16.8308 C   0  0  0  0  0  0  0  0  0  0  0  0
  -20.9595    1.3438   16.4078 C   0  0  0  0  0  0  0  0  0  0  0  0
  -20.8362    0.8655   15.0829 C   0  0  0  0  0  0  0  0  0  0  0  0
  -21.9297    0.9794   14.2108 C   0  0  0  0  0  0  0  0  0  0  0  0
  -19.7527    1.1941   17.2979 C   0  0  0  0  0  0  0  0  0  0  0  0
  -19.5472    2.0112   18.2659 N   0  0  0  0  0  0  0  0  0  0  0  0
  -18.9451    0.2275   17.0545 N   0  0  0  0  0  0  0  0  0  0  0  0
  -20.1812    2.7456   18.4332 H   0  0  0  0  0  0  0  0  0  0  0  0
  -19.1237   -0.3867   16.3061 H   0  0  0  0  0  0  0  0  0  0  0  0
  -18.1466    0.0999   17.6161 H   0  0  0  0  0  0  0  0  0  0  0  0
  9 10  1  0  0  0
  9  8  1  0  0  0
 20  3  1  0  0  0
 20 21  1  0  0  0
  3  1  1  0  0  0
 10 11  1  0  0  0
 26 21  2  0  0  0
 26 25  1  0  0  0
  1  2  2  0  0  0
  1  8  1  0  0  0
  8  7  1  0  0  0
 21 22  1  0  0  0
 25 24  2  0  0  0
 11  7  1  0  0  0
  7  5  1  0  0  0
 22 23  2  0  0  0
 24 23  1  0  0  0
 24 27  1  0  0  0
  5  6  2  0  0  0
  5 12  1  0  0  0
 29 27  1  0  0  0
 27 28  2  0  0  0
 12 13  1  0  0  0
 16 15  1  0  0  0
 16 17  1  0  0  0
 15 14  1  0  0  0
 14 13  1  0  0  0
 14 19  1  0  0  0
 17 18  1  0  0  0
 18 19  1  0  0  0
  3  4  1  0  0  0
 28 30  1  0  0  0
 29 31  1  0  0  0
 29 32  1  0  0  0
M  END
> <minimizedAffinity>
-8.14618

$$$$
2ZDK_50U_A_501


 32 34  0  0  0  0  0  0  0  0999 V2000
  -26.9043    2.4262   14.0645 C   0  0  0  0  0  0  0  0  0  0  0  0
  -27.3038    2.0483   12.9680 O   0  0  0  0  0  0  0  0  0  0  0  0
  -25.7325    2.2858   14.5366 N   0  0  0  0  0  0  0  0  0  0  0  0
  -25.5091    2.6831   15.4093 H   0  0  0  0  0  0  0  0  0  0  0  0
  -28.1280    1.2848   16.4763 C   0  0  0  0  0  0  0  0  0  0  0  0
  -28.5173    0.6244   15.5292 O   0  0  0  0  0  0  0  0  0  0  0  0
  -27.7909    2.5273   16.3425 N   0  0  0  0  0  0  0  0  0  0  0  0
  -27.8181    3.1353   15.0309 C   0  0  0  0  0  0  0  0  0  0  0  0
  -27.2321    4.5112   15.4132 C   0  0  0  0  0  0  0  0  0  0  0  0
  -27.4061    4.7033   16.9246 C   0  0  0  0  0  0  0  0  0  0  0  0
  -27.5167    3.2906   17.5519 C   0  0  0  0  0  0  0  0  0  0  0  0
  -28.0359    0.5273   17.8014 C   0  0  0  0  0  0  0  0  0  0  0  0
  -29.4342    0.4374   18.4562 C   0  0  0  0  0  0  0  0  0  0  0  0
  -29.6481   -0.7903   19.3831 C   0  0  0  0  0  0  0  0  0  0  0  0
  -29.0839   -2.1078   18.8161 C   0  0  0  0  0  0  0  0  0  0  0  0
  -29.2791   -3.2600   19.8085 C   0  0  0  0  0  0  0  0  0  0  0  0
  -30.6342   -3.3925   20.5069 C   0  0  0  0  0  0  0  0  0  0  0  0
  -31.3271   -2.0826   20.8846 C   0  0  0  0  0  0  0  0  0  0  0  0
  -31.1115   -0.9828   19.8027 C   0  0  0  0  0  0  0  0  0  0  0  0
  -24.7260    1.5516   13.8097 C   0  0  0  0  0  0  0  0  0  0  0  0
  -23.4449    1.4625   14.6705 C   0  0  0  0  0  0  0  0  0  0  0  0
  -22.3052    0.8409   14.1515 C   0  0  0  0  0  0  0  0  0  0  0  0
  -21.1387    0.7594   14.9328 C   0  0  0  0  0  0  0  0  0  0  0  0
  -21.1159    1.2950   16.2257 C   0  0  0  0  0  0  0  0  0  0  0  0
  -22.2704    1.9230   16.7472 C   0  0  0  0  0  0  0  0  0  0  0  0
  -23.4256    1.9967   15.9539 C   0  0  0  0  0  0  0  0  0  0  0  0
  -19.9063    1.2464   17.1233 C   0  0  0  0  0  0  0  0  0  0  0  0
  -19.7043    2.1611   18.0005 N   0  0  0  0  0  0  0  0  0  0  0  0
  -19.0928    0.2649   16.9797 N   0  0  0  0  0  0  0  0  0  0  0  0
  -20.3429    2.9048   18.0922 H   0  0  0  0  0  0  0  0  0  0  0  0
  -19.2689   -0.4249   16.2997 H   0  0  0  0  0  0  0  0  0  0  0  0
  -18.2924    0.2015   17.5494 H   0  0  0  0  0  0  0  0  0  0  0  0
  9 10  1  0  0  0
  9  8  1  0  0  0
 20  3  1  0  0  0
 20 21  1  0  0  0
  3  1  1  0  0  0
 10 11  1  0  0  0
 26 21  2  0  0  0
 26 25  1  0  0  0
  1  2  2  0  0  0
  1  8  1  0  0  0
  8  7  1  0  0  0
 21 22  1  0  0  0
 25 24  2  0  0  0
 11  7  1  0  0  0
  7  5  1  0  0  0
 22 23  2  0  0  0
 24 23  1  0  0  0
 24 27  1  0  0  0
  5  6  2  0  0  0
  5 12  1  0  0  0
 29 27  1  0  0  0
 27 28  2  0  0  0
 12 13  1  0  0  0
 16 15  1  0  0  0
 16 17  1  0  0  0
 15 14  1  0  0  0
 14 13  1  0  0  0
 14 19  1  0  0  0
 17 18  1  0  0  0
 18 19  1  0  0  0
  3  4  1  0  0  0
 28 30  1  0  0  0
 29 31  1  0  0  0
 29 32  1  0  0  0
M  END
> <minimizedAffinity>
-7.57394

$$$$
2ZDK_50U_A_501


 32 34  0  0  0  0  0  0  0  0999 V2000
  -26.8903    2.1075   14.1229 C   0  0  0  0  0  0  0  0  0  0  0  0
  -27.2640    1.6346   13.0544 O   0  0  0  0  0  0  0  0  0  0  0  0
  -25.7081    2.0911   14.5896 N   0  0  0  0  0  0  0  0  0  0  0  0
  -25.5128    2.5557   15.4353 H   0  0  0  0  0  0  0  0  0  0  0  0
  -27.6178    1.2470   16.8335 C   0  0  0  0  0  0  0  0  0  0  0  0
  -27.9292    0.3457   16.0749 O   0  0  0  0  0  0  0  0  0  0  0  0
  -27.5792    2.4797   16.4407 N   0  0  0  0  0  0  0  0  0  0  0  0
  -27.8534    2.7949   15.0564 C   0  0  0  0  0  0  0  0  0  0  0  0
  -27.5588    4.3092   15.1124 C   0  0  0  0  0  0  0  0  0  0  0  0
  -27.6416    4.7599   16.5758 C   0  0  0  0  0  0  0  0  0  0  0  0
  -27.3801    3.5086   17.4516 C   0  0  0  0  0  0  0  0  0  0  0  0
  -27.2461    0.8042   18.2491 C   0  0  0  0  0  0  0  0  0  0  0  0
  -28.2396   -0.2732   18.7430 C   0  0  0  0  0  0  0  0  0  0  0  0
  -28.5173   -0.2601   20.2710 C   0  0  0  0  0  0  0  0  0  0  0  0
  -29.8952    0.3163   20.6513 C   0  0  0  0  0  0  0  0  0  0  0  0
  -30.1214    0.2429   22.1659 C   0  0  0  0  0  0  0  0  0  0  0  0
  -28.9759    0.6610   23.0903 C   0  0  0  0  0  0  0  0  0  0  0  0
  -27.5667    0.2943   22.6233 C   0  0  0  0  0  0  0  0  0  0  0  0
  -27.4149    0.4369   21.0794 C   0  0  0  0  0  0  0  0  0  0  0  0
  -24.6491    1.4002   13.8955 C   0  0  0  0  0  0  0  0  0  0  0  0
  -23.3896    1.3749   14.7917 C   0  0  0  0  0  0  0  0  0  0  0  0
  -23.3861    2.0801   15.9990 C   0  0  0  0  0  0  0  0  0  0  0  0
  -22.2415    2.0580   16.8158 C   0  0  0  0  0  0  0  0  0  0  0  0
  -21.1082    1.3362   16.4240 C   0  0  0  0  0  0  0  0  0  0  0  0
  -21.1155    0.6241   15.2025 C   0  0  0  0  0  0  0  0  0  0  0  0
  -22.2662    0.6560   14.3998 C   0  0  0  0  0  0  0  0  0  0  0  0
  -19.8452    1.2646   17.2431 C   0  0  0  0  0  0  0  0  0  0  0  0
  -19.5857    2.1587   18.1264 N   0  0  0  0  0  0  0  0  0  0  0  0
  -19.0457    0.2849   17.0269 N   0  0  0  0  0  0  0  0  0  0  0  0
  -20.2146    2.9015   18.2746 H   0  0  0  0  0  0  0  0  0  0  0  0
  -19.2663   -0.3889   16.3438 H   0  0  0  0  0  0  0  0  0  0  0  0
  -18.2116    0.2068   17.5440 H   0  0  0  0  0  0  0  0  0  0  0  0
  9 10  1  0  0  0
  9  8  1  0  0  0
 20  3  1  0  0  0
 20 21  1  0  0  0
  3  1  1  0  0  0
 10 11  1  0  0  0
 26 21  2  0  0  0
 26 25  1  0  0  0
  1  2  2  0  0  0
  1  8  1  0  0  0
  8  7  1  0  0  0
 21 22  1  0  0  0
 25 24  2  0  0  0
 11  7  1  0  0  0
  7  5  1  0  0  0
 22 23  2  0  0  0
 24 23  1  0  0  0
 24 27  1  0  0  0
  5  6  2  0  0  0
  5 12  1  0  0  0
 29 27  1  0  0  0
 27 28  2  0  0  0
 12 13  1  0  0  0
 16 15  1  0  0  0
 16 17  1  0  0  0
 15 14  1  0  0  0
 14 13  1  0  0  0
 14 19  1  0  0  0
 17 18  1  0  0  0
 18 19  1  0  0  0
  3  4  1  0  0  0
 28 30  1  0  0  0
 29 31  1  0  0  0
 29 32  1  0  0  0
M  END
> <minimizedAffinity>
-7.54470

$$$$
2ZDK_50U_A_501


 32 34  0  0  0  0  0  0  0  0999 V2000
  -28.4420    2.1774   16.6480 C   0  0  0  0  0  0  0  0  0  0  0  0
  -28.7573    3.1574   17.3152 O   0  0  0  0  0  0  0  0  0  0  0  0
  -27.8894    1.1144   17.0725 N   0  0  0  0  0  0  0  0  0  0  0  0
  -27.7349    0.3657   16.4522 H   0  0  0  0  0  0  0  0  0  0  0  0
  -26.4022    2.0041   14.5441 C   0  0  0  0  0  0  0  0  0  0  0  0
  -26.1893    3.0294   15.1672 O   0  0  0  0  0  0  0  0  0  0  0  0
  -27.5910    1.4994   14.4567 N   0  0  0  0  0  0  0  0  0  0  0  0
  -28.6855    2.1290   15.1614 C   0  0  0  0  0  0  0  0  0  0  0  0
  -29.7841    1.0964   14.8303 C   0  0  0  0  0  0  0  0  0  0  0  0
  -29.3351    0.2958   13.6019 C   0  0  0  0  0  0  0  0  0  0  0  0
  -27.7890    0.3824   13.5440 C   0  0  0  0  0  0  0  0  0  0  0  0
  -25.1663    1.3559   13.9194 C   0  0  0  0  0  0  0  0  0  0  0  0
  -23.9191    2.2302   14.1880 C   0  0  0  0  0  0  0  0  0  0  0  0
  -22.8484    1.5828   15.1080 C   0  0  0  0  0  0  0  0  0  0  0  0
  -22.0617    2.5966   15.9617 C   0  0  0  0  0  0  0  0  0  0  0  0
  -21.0673    1.8821   16.8843 C   0  0  0  0  0  0  0  0  0  0  0  0
  -20.2235    0.7475   16.2993 C   0  0  0  0  0  0  0  0  0  0  0  0
  -20.9188   -0.1474   15.2725 C   0  0  0  0  0  0  0  0  0  0  0  0
  -21.8768    0.6664   14.3524 C   0  0  0  0  0  0  0  0  0  0  0  0
  -27.4858    0.9914   18.4518 C   0  0  0  0  0  0  0  0  0  0  0  0
  -28.2250   -0.2072   19.0899 C   0  0  0  0  0  0  0  0  0  0  0  0
  -28.3552   -0.2785   20.4801 C   0  0  0  0  0  0  0  0  0  0  0  0
  -29.0277   -1.3678   21.0622 C   0  0  0  0  0  0  0  0  0  0  0  0
  -29.5636   -2.3791   20.2568 C   0  0  0  0  0  0  0  0  0  0  0  0
  -29.4302   -2.3035   18.8511 C   0  0  0  0  0  0  0  0  0  0  0  0
  -28.7570   -1.2093   18.2865 C   0  0  0  0  0  0  0  0  0  0  0  0
  -30.2962   -3.5766   20.8050 C   0  0  0  0  0  0  0  0  0  0  0  0
  -29.6621   -4.6507   21.1069 N   0  0  0  0  0  0  0  0  0  0  0  0
  -31.5665   -3.4834   20.9578 N   0  0  0  0  0  0  0  0  0  0  0  0
  -28.6869   -4.6986   20.9809 H   0  0  0  0  0  0  0  0  0  0  0  0
  -32.0311   -2.6489   20.7190 H   0  0  0  0  0  0  0  0  0  0  0  0
  -32.0768   -4.2464   21.3137 H   0  0  0  0  0  0  0  0  0  0  0  0
  9 10  1  0  0  0
  9  8  1  0  0  0
 20  3  1  0  0  0
 20 21  1  0  0  0
  3  1  1  0  0  0
 10 11  1  0  0  0
 26 21  2  0  0  0
 26 25  1  0  0  0
  1  2  2  0  0  0
  1  8  1  0  0  0
  8  7  1  0  0  0
 21 22  1  0  0  0
 25 24  2  0  0  0
 11  7  1  0  0  0
  7  5  1  0  0  0
 22 23  2  0  0  0
 24 23  1  0  0  0
 24 27  1  0  0  0
  5  6  2  0  0  0
  5 12  1  0  0  0
 29 27  1  0  0  0
 27 28  2  0  0  0
 12 13  1  0  0  0
 16 15  1  0  0  0
 16 17  1  0  0  0
 15 14  1  0  0  0
 14 13  1  0  0  0
 14 19  1  0  0  0
 17 18  1  0  0  0
 18 19  1  0  0  0
  3  4  1  0  0  0
 28 30  1  0  0  0
 29 31  1  0  0  0
 29 32  1  0  0  0
M  END
> <minimizedAffinity>
-7.52703

$$$$
2ZDK_50U_A_501


 32 34  0  0  0  0  0  0  0  0999 V2000
  -26.3645    1.7038   14.3344 C   0  0  0  0  0  0  0  0  0  0  0  0
  -26.6043    2.9069   14.3312 O   0  0  0  0  0  0  0  0  0  0  0  0
  -25.2456    1.1509   14.0933 N   0  0  0  0  0  0  0  0  0  0  0  0
  -25.1566    0.1745   14.1826 H   0  0  0  0  0  0  0  0  0  0  0  0
  -27.7439    1.3263   16.8980 C   0  0  0  0  0  0  0  0  0  0  0  0
  -26.5562    1.1420   17.0987 O   0  0  0  0  0  0  0  0  0  0  0  0
  -28.2768    1.1071   15.7389 N   0  0  0  0  0  0  0  0  0  0  0  0
  -27.4383    0.6904   14.6370 C   0  0  0  0  0  0  0  0  0  0  0  0
  -28.5118    0.6979   13.5278 C   0  0  0  0  0  0  0  0  0  0  0  0
  -29.8908    0.6257   14.1947 C   0  0  0  0  0  0  0  0  0  0  0  0
  -29.7276    1.1735   15.6350 C   0  0  0  0  0  0  0  0  0  0  0  0
  -28.5284    1.8645   18.0951 C   0  0  0  0  0  0  0  0  0  0  0  0
  -27.5514    2.3354   19.1977 C   0  0  0  0  0  0  0  0  0  0  0  0
  -27.3330    3.8714   19.2701 C   0  0  0  0  0  0  0  0  0  0  0  0
  -28.5098    4.6972   18.7145 C   0  0  0  0  0  0  0  0  0  0  0  0
  -28.2484    6.1996   18.8727 C   0  0  0  0  0  0  0  0  0  0  0  0
  -26.8623    6.7358   18.5084 C   0  0  0  0  0  0  0  0  0  0  0  0
  -25.6792    5.8290   18.8498 C   0  0  0  0  0  0  0  0  0  0  0  0
  -26.0191    4.3260   18.6208 C   0  0  0  0  0  0  0  0  0  0  0  0
  -24.1048    1.9362   13.6903 C   0  0  0  0  0  0  0  0  0  0  0  0
  -22.9500    1.7004   14.6908 C   0  0  0  0  0  0  0  0  0  0  0  0
  -21.8010    1.0222   14.2729 C   0  0  0  0  0  0  0  0  0  0  0  0
  -20.7494    0.8071   15.1814 C   0  0  0  0  0  0  0  0  0  0  0  0
  -20.8498    1.2666   16.4996 C   0  0  0  0  0  0  0  0  0  0  0  0
  -22.0133    1.9523   16.9186 C   0  0  0  0  0  0  0  0  0  0  0  0
  -23.0530    2.1593   15.9991 C   0  0  0  0  0  0  0  0  0  0  0  0
  -19.7676    1.0746   17.5306 C   0  0  0  0  0  0  0  0  0  0  0  0
  -19.8304    1.6709   18.6653 N   0  0  0  0  0  0  0  0  0  0  0  0
  -18.7893    0.2992   17.2349 N   0  0  0  0  0  0  0  0  0  0  0  0
  -20.5913    2.2614   18.8696 H   0  0  0  0  0  0  0  0  0  0  0  0
  -18.7628   -0.1474   16.3579 H   0  0  0  0  0  0  0  0  0  0  0  0
  -18.0649    0.1507   17.8849 H   0  0  0  0  0  0  0  0  0  0  0  0
  9 10  1  0  0  0
  9  8  1  0  0  0
 20  3  1  0  0  0
 20 21  1  0  0  0
  3  1  1  0  0  0
 10 11  1  0  0  0
 26 21  2  0  0  0
 26 25  1  0  0  0
  1  2  2  0  0  0
  1  8  1  0  0  0
  8  7  1  0  0  0
 21 22  1  0  0  0
 25 24  2  0  0  0
 11  7  1  0  0  0
  7  5  1  0  0  0
 22 23  2  0  0  0
 24 23  1  0  0  0
 24 27  1  0  0  0
  5  6  2  0  0  0
  5 12  1  0  0  0
 29 27  1  0  0  0
 27 28  2  0  0  0
 12 13  1  0  0  0
 16 15  1  0  0  0
 16 17  1  0  0  0
 15 14  1  0  0  0
 14 13  1  0  0  0
 14 19  1  0  0  0
 17 18  1  0  0  0
 18 19  1  0  0  0
  3  4  1  0  0  0
 28 30  1  0  0  0
 29 31  1  0  0  0
 29 32  1  0  0  0
M  END
> <minimizedAffinity>
-7.37207

$$$$
2ZDK_50U_A_501


 32 34  0  0  0  0  0  0  0  0999 V2000
  -26.6389    1.3402   15.3195 C   0  0  0  0  0  0  0  0  0  0  0  0
  -26.7839    0.1367   15.1312 O   0  0  0  0  0  0  0  0  0  0  0  0
  -25.7366    2.0844   14.8217 N   0  0  0  0  0  0  0  0  0  0  0  0
  -25.7533    3.0528   14.9980 H   0  0  0  0  0  0  0  0  0  0  0  0
  -29.5117    1.7818   14.9080 C   0  0  0  0  0  0  0  0  0  0  0  0
  -28.9333    2.2659   13.9510 O   0  0  0  0  0  0  0  0  0  0  0  0
  -28.9425    1.6879   16.0667 N   0  0  0  0  0  0  0  0  0  0  0  0
  -27.5685    2.1108   16.2215 C   0  0  0  0  0  0  0  0  0  0  0  0
  -27.3696    1.6815   17.6908 C   0  0  0  0  0  0  0  0  0  0  0  0
  -28.7517    1.5344   18.3387 C   0  0  0  0  0  0  0  0  0  0  0  0
  -29.7633    1.2709   17.1948 C   0  0  0  0  0  0  0  0  0  0  0  0
  -30.9236    1.2694   14.6216 C   0  0  0  0  0  0  0  0  0  0  0  0
  -30.8589   -0.1704   14.0605 C   0  0  0  0  0  0  0  0  0  0  0  0
  -31.5873   -0.3808   12.7050 C   0  0  0  0  0  0  0  0  0  0  0  0
  -31.3374    0.7427   11.6798 C   0  0  0  0  0  0  0  0  0  0  0  0
  -32.0382    0.4380   10.3506 C   0  0  0  0  0  0  0  0  0  0  0  0
  -33.4771   -0.0810   10.3930 C   0  0  0  0  0  0  0  0  0  0  0  0
  -33.8153   -1.0326   11.5412 C   0  0  0  0  0  0  0  0  0  0  0  0
  -33.0942   -0.6247   12.8604 C   0  0  0  0  0  0  0  0  0  0  0  0
  -24.6886    1.5276   14.0019 C   0  0  0  0  0  0  0  0  0  0  0  0
  -23.3905    1.4332   14.8361 C   0  0  0  0  0  0  0  0  0  0  0  0
  -22.2992    0.7152   14.3378 C   0  0  0  0  0  0  0  0  0  0  0  0
  -21.1173    0.6286   15.0951 C   0  0  0  0  0  0  0  0  0  0  0  0
  -21.0310    1.2553   16.3436 C   0  0  0  0  0  0  0  0  0  0  0  0
  -22.1366    1.9807   16.8442 C   0  0  0  0  0  0  0  0  0  0  0  0
  -23.3081    2.0579   16.0754 C   0  0  0  0  0  0  0  0  0  0  0  0
  -19.8012    1.2078   17.2132 C   0  0  0  0  0  0  0  0  0  0  0  0
  -19.5760    2.1268   18.0802 N   0  0  0  0  0  0  0  0  0  0  0  0
  -18.9944    0.2227   17.0566 N   0  0  0  0  0  0  0  0  0  0  0  0
  -20.2098    2.8732   18.1823 H   0  0  0  0  0  0  0  0  0  0  0  0
  -19.1884   -0.4704   16.3849 H   0  0  0  0  0  0  0  0  0  0  0  0
  -18.1812    0.1599   17.6080 H   0  0  0  0  0  0  0  0  0  0  0  0
  9 10  1  0  0  0
  9  8  1  0  0  0
 20  3  1  0  0  0
 20 21  1  0  0  0
  3  1  1  0  0  0
 10 11  1  0  0  0
 26 21  2  0  0  0
 26 25  1  0  0  0
  1  2  2  0  0  0
  1  8  1  0  0  0
  8  7  1  0  0  0
 21 22  1  0  0  0
 25 24  2  0  0  0
 11  7  1  0  0  0
  7  5  1  0  0  0
 22 23  2  0  0  0
 24 23  1  0  0  0
 24 27  1  0  0  0
  5  6  2  0  0  0
  5 12  1  0  0  0
 29 27  1  0  0  0
 27 28  2  0  0  0
 12 13  1  0  0  0
 16 15  1  0  0  0
 16 17  1  0  0  0
 15 14  1  0  0  0
 14 13  1  0  0  0
 14 19  1  0  0  0
 17 18  1  0  0  0
 18 19  1  0  0  0
  3  4  1  0  0  0
 28 30  1  0  0  0
 29 31  1  0  0  0
 29 32  1  0  0  0
M  END
> <minimizedAffinity>
-7.28894

$$$$
2ZDK_50U_A_501


 32 34  0  0  0  0  0  0  0  0999 V2000
  -26.0180    1.8887   16.7309 C   0  0  0  0  0  0  0  0  0  0  0  0
  -26.1167    3.1045   16.8615 O   0  0  0  0  0  0  0  0  0  0  0  0
  -26.4859    0.9999   17.5098 N   0  0  0  0  0  0  0  0  0  0  0  0
  -26.3950    0.0488   17.2724 H   0  0  0  0  0  0  0  0  0  0  0  0
  -27.1502    1.1932   14.1134 C   0  0  0  0  0  0  0  0  0  0  0  0
  -27.7545    0.5451   14.9497 O   0  0  0  0  0  0  0  0  0  0  0  0
  -25.9288    1.5760   14.3061 N   0  0  0  0  0  0  0  0  0  0  0  0
  -25.2806    1.2821   15.5648 C   0  0  0  0  0  0  0  0  0  0  0  0
  -23.9582    2.0378   15.3136 C   0  0  0  0  0  0  0  0  0  0  0  0
  -23.8014    2.2405   13.8018 C   0  0  0  0  0  0  0  0  0  0  0  0
  -25.2224    2.1819   13.1862 C   0  0  0  0  0  0  0  0  0  0  0  0
  -27.9522    1.5425   12.8592 C   0  0  0  0  0  0  0  0  0  0  0  0
  -29.3149    2.1558   13.2580 C   0  0  0  0  0  0  0  0  0  0  0  0
  -30.5589    1.4093   12.7038 C   0  0  0  0  0  0  0  0  0  0  0  0
  -30.7687    0.0078   13.3100 C   0  0  0  0  0  0  0  0  0  0  0  0
  -32.0440   -0.6421   12.7606 C   0  0  0  0  0  0  0  0  0  0  0  0
  -32.3149   -0.5481   11.2574 C   0  0  0  0  0  0  0  0  0  0  0  0
  -31.9073    0.7614   10.5811 C   0  0  0  0  0  0  0  0  0  0  0  0
  -30.5818    1.3279   11.1717 C   0  0  0  0  0  0  0  0  0  0  0  0
  -27.1483    1.3674   18.7373 C   0  0  0  0  0  0  0  0  0  0  0  0
  -27.9668    0.1606   19.2509 C   0  0  0  0  0  0  0  0  0  0  0  0
  -28.1570   -0.0110   20.6254 C   0  0  0  0  0  0  0  0  0  0  0  0
  -28.9017   -1.1079   21.0944 C   0  0  0  0  0  0  0  0  0  0  0  0
  -29.4496   -2.0271   20.1923 C   0  0  0  0  0  0  0  0  0  0  0  0
  -29.2554   -1.8501   18.8030 C   0  0  0  0  0  0  0  0  0  0  0  0
  -28.5105   -0.7497   18.3518 C   0  0  0  0  0  0  0  0  0  0  0  0
  -30.2578   -3.2261   20.6167 C   0  0  0  0  0  0  0  0  0  0  0  0
  -29.6821   -4.3385   20.8963 N   0  0  0  0  0  0  0  0  0  0  0  0
  -31.5320   -3.0950   20.6881 N   0  0  0  0  0  0  0  0  0  0  0  0
  -28.7026   -4.4151   20.8343 H   0  0  0  0  0  0  0  0  0  0  0  0
  -31.9510   -2.2316   20.4687 H   0  0  0  0  0  0  0  0  0  0  0  0
  -32.0908   -3.8578   20.9622 H   0  0  0  0  0  0  0  0  0  0  0  0
  9 10  1  0  0  0
  9  8  1  0  0  0
 20  3  1  0  0  0
 20 21  1  0  0  0
  3  1  1  0  0  0
 10 11  1  0  0  0
 26 21  2  0  0  0
 26 25  1  0  0  0
  1  2  2  0  0  0
  1  8  1  0  0  0
  8  7  1  0  0  0
 21 22  1  0  0  0
 25 24  2  0  0  0
 11  7  1  0  0  0
  7  5  1  0  0  0
 22 23  2  0  0  0
 24 23  1  0  0  0
 24 27  1  0  0  0
  5  6  2  0  0  0
  5 12  1  0  0  0
 29 27  1  0  0  0
 27 28  2  0  0  0
 12 13  1  0  0  0
 16 15  1  0  0  0
 16 17  1  0  0  0
 15 14  1  0  0  0
 14 13  1  0  0  0
 14 19  1  0  0  0
 17 18  1  0  0  0
 18 19  1  0  0  0
  3  4  1  0  0  0
 28 30  1  0  0  0
 29 31  1  0  0  0
 29 32  1  0  0  0
M  END
> <minimizedAffinity>
-6.65719

$$$$
2ZDK_50U_A_501


 32 34  0  0  0  0  0  0  0  0999 V2000
  -26.0211    1.8279   14.8916 C   0  0  0  0  0  0  0  0  0  0  0  0
  -25.1010    1.2746   15.4851 O   0  0  0  0  0  0  0  0  0  0  0  0
  -27.0214    2.4119   15.4153 N   0  0  0  0  0  0  0  0  0  0  0  0
  -27.6713    2.8743   14.8382 H   0  0  0  0  0  0  0  0  0  0  0  0
  -28.2108    0.8786   13.1824 C   0  0  0  0  0  0  0  0  0  0  0  0
  -27.8156   -0.0786   13.8246 O   0  0  0  0  0  0  0  0  0  0  0  0
  -27.4287    1.8679   12.8909 N   0  0  0  0  0  0  0  0  0  0  0  0
  -26.0701    1.8714   13.3859 C   0  0  0  0  0  0  0  0  0  0  0  0
  -25.6526    3.2669   12.8749 C   0  0  0  0  0  0  0  0  0  0  0  0
  -26.6143    3.6738   11.7519 C   0  0  0  0  0  0  0  0  0  0  0  0
  -27.9262    2.8775   11.9671 C   0  0  0  0  0  0  0  0  0  0  0  0
  -29.6883    0.8322   12.7913 C   0  0  0  0  0  0  0  0  0  0  0  0
  -30.3623   -0.4090   13.4215 C   0  0  0  0  0  0  0  0  0  0  0  0
  -31.9150   -0.4009   13.3896 C   0  0  0  0  0  0  0  0  0  0  0  0
  -32.5139   -0.7247   12.0068 C   0  0  0  0  0  0  0  0  0  0  0  0
  -34.0455   -0.7562   12.0661 C   0  0  0  0  0  0  0  0  0  0  0  0
  -34.7637    0.3591   12.8290 C   0  0  0  0  0  0  0  0  0  0  0  0
  -34.0725    0.8590   14.0981 C   0  0  0  0  0  0  0  0  0  0  0  0
  -32.5238    0.8979   13.9347 C   0  0  0  0  0  0  0  0  0  0  0  0
  -27.2160    2.4056   16.8445 C   0  0  0  0  0  0  0  0  0  0  0  0
  -28.2327    1.3002   17.2113 C   0  0  0  0  0  0  0  0  0  0  0  0
  -27.8585    0.2818   18.0930 C   0  0  0  0  0  0  0  0  0  0  0  0
  -28.7821   -0.7243   18.4282 C   0  0  0  0  0  0  0  0  0  0  0  0
  -30.0705   -0.7107   17.8817 C   0  0  0  0  0  0  0  0  0  0  0  0
  -30.4455    0.3209   16.9905 C   0  0  0  0  0  0  0  0  0  0  0  0
  -29.5120    1.3177   16.6673 C   0  0  0  0  0  0  0  0  0  0  0  0
  -31.1147   -1.7523   18.1913 C   0  0  0  0  0  0  0  0  0  0  0  0
  -31.0899   -2.3951   19.3018 N   0  0  0  0  0  0  0  0  0  0  0  0
  -32.0222   -1.9708   17.3111 N   0  0  0  0  0  0  0  0  0  0  0  0
  -30.3834   -2.2100   19.9620 H   0  0  0  0  0  0  0  0  0  0  0  0
  -32.0206   -1.4651   16.4664 H   0  0  0  0  0  0  0  0  0  0  0  0
  -32.7202   -2.6441   17.4804 H   0  0  0  0  0  0  0  0  0  0  0  0
  9 10  1  0  0  0
  9  8  1  0  0  0
 20  3  1  0  0  0
 20 21  1  0  0  0
  3  1  1  0  0  0
 10 11  1  0  0  0
 26 21  2  0  0  0
 26 25  1  0  0  0
  1  2  2  0  0  0
  1  8  1  0  0  0
  8  7  1  0  0  0
 21 22  1  0  0  0
 25 24  2  0  0  0
 11  7  1  0  0  0
  7  5  1  0  0  0
 22 23  2  0  0  0
 24 23  1  0  0  0
 24 27  1  0  0  0
  5  6  2  0  0  0
  5 12  1  0  0  0
 29 27  1  0  0  0
 27 28  2  0  0  0
 12 13  1  0  0  0
 16 15  1  0  0  0
 16 17  1  0  0  0
 15 14  1  0  0  0
 14 13  1  0  0  0
 14 19  1  0  0  0
 17 18  1  0  0  0
 18 19  1  0  0  0
  3  4  1  0  0  0
 28 30  1  0  0  0
 29 31  1  0  0  0
 29 32  1  0  0  0
M  END
> <minimizedAffinity>
-6.46047

$$$$
