2O4K_DR7_A_301


 56 58  0  0  0  0  0  0  0  0999 V2000
   15.0064   20.4577   16.6219 N   0  0  0  0  0  0  0  0  0  0  0  0
   15.6211   21.3951   17.5125 N   0  0  0  0  0  0  0  0  0  0  0  0
   15.2688   22.6443   17.8420 C   0  0  0  0  0  0  0  0  0  0  0  0
   14.2675   23.2477   17.4637 O   0  0  0  0  0  0  0  0  0  0  0  0
   16.4370   21.0674   17.9555 H   0  0  0  0  0  0  0  0  0  0  0  0
   16.2818   23.3158   18.7374 C   0  0  0  0  0  0  0  0  0  0  0  0
   17.0347   24.2614   17.9019 N   0  0  0  0  0  0  0  0  0  0  0  0
   18.2951   24.0320   17.5223 C   0  0  0  0  0  0  0  0  0  0  0  0
   18.9555   23.0198   17.8132 O   0  0  0  0  0  0  0  0  0  0  0  0
   16.5951   25.0931   17.6117 H   0  0  0  0  0  0  0  0  0  0  0  0
   18.8976   25.0493   16.7004 O   0  0  0  0  0  0  0  0  0  0  0  0
   18.7442   26.4217   17.0600 C   0  0  0  0  0  0  0  0  0  0  0  0
   15.7256   23.9886   20.0000 C   0  0  0  0  0  0  0  0  0  0  0  0
   14.7461   23.0393   20.6861 C   0  0  0  0  0  0  0  0  0  0  0  0
   16.8703   24.2713   20.9704 C   0  0  0  0  0  0  0  0  0  0  0  0
   15.0276   25.3153   19.7160 C   0  0  0  0  0  0  0  0  0  0  0  0
   13.8924   19.5647   16.8596 C   0  0  0  0  0  0  0  0  0  0  0  0
   13.6396   19.3029   18.3137 C   0  0  0  0  0  0  0  0  0  0  0  0
   14.1001   17.9652   18.6001 O   0  0  0  0  0  0  0  0  0  0  0  0
   13.6564   17.3371   18.0090 H   0  0  0  0  0  0  0  0  0  0  0  0
   12.1376   19.5086   18.5056 C   0  0  0  0  0  0  0  0  0  0  0  0
   10.4665   18.5203   16.9129 C   0  0  0  0  0  0  0  0  0  0  0  0
   10.0642   19.5995   16.4720 O   0  0  0  0  0  0  0  0  0  0  0  0
   11.4284   18.3928   17.8607 N   0  0  0  0  0  0  0  0  0  0  0  0
   11.6714   17.4804   18.1393 H   0  0  0  0  0  0  0  0  0  0  0  0
    9.8517   17.2112   16.4519 C   0  0  0  0  0  0  0  0  0  0  0  0
    7.9853   16.3523   17.8087 C   0  0  0  0  0  0  0  0  0  0  0  0
    8.6370   15.4497   18.3270 O   0  0  0  0  0  0  0  0  0  0  0  0
    8.4697   17.2184   16.9207 N   0  0  0  0  0  0  0  0  0  0  0  0
    7.8607   17.9027   16.5598 H   0  0  0  0  0  0  0  0  0  0  0  0
    6.1979   16.0257   19.4763 C   0  0  0  0  0  0  0  0  0  0  0  0
    6.6015   16.4859   18.1803 O   0  0  0  0  0  0  0  0  0  0  0  0
    9.9217   16.9228   14.9389 C   0  0  0  0  0  0  0  0  0  0  0  0
    8.8842   17.7352   14.1559 C   0  0  0  0  0  0  0  0  0  0  0  0
   11.3275   17.2012   14.4011 C   0  0  0  0  0  0  0  0  0  0  0  0
    9.6092   15.4591   14.6497 C   0  0  0  0  0  0  0  0  0  0  0  0
   11.8152   19.4410   20.0026 C   0  0  0  0  0  0  0  0  0  0  0  0
   10.3566   19.7685   20.2496 C   0  0  0  0  0  0  0  0  0  0  0  0
    9.9479   21.1077   20.2380 C   0  0  0  0  0  0  0  0  0  0  0  0
    8.6053   21.4156   20.4665 C   0  0  0  0  0  0  0  0  0  0  0  0
    7.6715   20.4029   20.7057 C   0  0  0  0  0  0  0  0  0  0  0  0
    8.0772   19.0686   20.7230 C   0  0  0  0  0  0  0  0  0  0  0  0
    9.4199   18.7561   20.4984 C   0  0  0  0  0  0  0  0  0  0  0  0
   15.6393   20.1556   15.3343 C   0  0  0  0  0  0  0  0  0  0  0  0
   16.0545   21.3903   14.5727 C   0  0  0  0  0  0  0  0  0  0  0  0
   15.0766   22.0460   13.8402 C   0  0  0  0  0  0  0  0  0  0  0  0
   15.4104   23.1865   13.1173 C   0  0  0  0  0  0  0  0  0  0  0  0
   17.3662   21.8568   14.5855 C   0  0  0  0  0  0  0  0  0  0  0  0
   17.6940   23.0105   13.8632 C   0  0  0  0  0  0  0  0  0  0  0  0
   16.7173   23.6770   13.1186 C   0  0  0  0  0  0  0  0  0  0  0  0
   17.0560   24.9206   12.3541 C   0  0  0  0  0  0  0  0  0  0  0  0
   16.1652   25.9997   12.3471 C   0  0  0  0  0  0  0  0  0  0  0  0
   16.4948   27.1551   11.6411 C   0  0  0  0  0  0  0  0  0  0  0  0
   17.7086   27.2120   10.9586 C   0  0  0  0  0  0  0  0  0  0  0  0
   18.5719   26.1166   10.9921 C   0  0  0  0  0  0  0  0  0  0  0  0
   18.2302   25.0121   11.6756 N   0  0  0  0  0  0  0  0  0  0  0  0
 31 32  1  0  0  0
 32 27  1  0  0  0
 27 28  2  0  0  0
 27 29  1  0  0  0
 29 26  1  0  0  0
 26 33  1  0  0  0
 26 22  1  0  0  0
 33 34  1  0  0  0
 33 35  1  0  0  0
 33 36  1  0  0  0
 22 23  2  0  0  0
 22 24  1  0  0  0
 24 21  1  0  0  0
 21 37  1  0  0  0
 21 18  1  0  0  0
 37 38  1  0  0  0
 38 39  2  0  0  0
 38 43  1  0  0  0
 39 40  1  0  0  0
 40 41  2  0  0  0
 41 42  1  0  0  0
 42 43  2  0  0  0
 18 19  1  0  0  0
 18 17  1  0  0  0
 17  1  1  0  0  0
  1  2  1  0  0  0
  1 44  1  0  0  0
  2  3  1  0  0  0
  3  4  2  0  0  0
  3  6  1  0  0  0
  6 13  1  0  0  0
  6  7  1  0  0  0
 13 14  1  0  0  0
 13 15  1  0  0  0
 13 16  1  0  0  0
  7  8  1  0  0  0
  8  9  2  0  0  0
  8 11  1  0  0  0
 11 12  1  0  0  0
 44 45  1  0  0  0
 45 46  1  0  0  0
 45 48  2  0  0  0
 46 47  2  0  0  0
 47 50  1  0  0  0
 48 49  1  0  0  0
 49 50  2  0  0  0
 50 51  1  0  0  0
 51 52  1  0  0  0
 51 56  2  0  0  0
 52 53  2  0  0  0
 53 54  1  0  0  0
 54 55  2  0  0  0
 55 56  1  0  0  0
 29 30  1  0  0  0
 24 25  1  0  0  0
 19 20  1  0  0  0
  2  5  1  0  0  0
  7 10  1  0  0  0
M  END
> <minimizedAffinity>
-11.33996

$$$$
2O4K_DR7_A_301


 56 58  0  0  0  0  0  0  0  0999 V2000
   11.8105   19.1765   19.0180 N   0  0  0  0  0  0  0  0  0  0  0  0
   11.1809   18.2843   18.0921 N   0  0  0  0  0  0  0  0  0  0  0  0
   10.4267   18.5360   17.0145 C   0  0  0  0  0  0  0  0  0  0  0  0
   10.1524   19.6416   16.5536 O   0  0  0  0  0  0  0  0  0  0  0  0
   11.3264   17.3285   18.2781 H   0  0  0  0  0  0  0  0  0  0  0  0
    9.8661   17.2800   16.3924 C   0  0  0  0  0  0  0  0  0  0  0  0
    8.4431   17.2190   16.7539 N   0  0  0  0  0  0  0  0  0  0  0  0
    7.9682   16.3372   17.6382 C   0  0  0  0  0  0  0  0  0  0  0  0
    8.6530   15.4976   18.2477 O   0  0  0  0  0  0  0  0  0  0  0  0
    7.8178   17.8500   16.3295 H   0  0  0  0  0  0  0  0  0  0  0  0
    6.5524   16.4041   17.8922 O   0  0  0  0  0  0  0  0  0  0  0  0
    5.6748   15.5135   17.2045 C   0  0  0  0  0  0  0  0  0  0  0  0
   10.0772   17.1236   14.8801 C   0  0  0  0  0  0  0  0  0  0  0  0
    9.8264   15.6702   14.4848 C   0  0  0  0  0  0  0  0  0  0  0  0
    9.0717   17.9980   14.1343 C   0  0  0  0  0  0  0  0  0  0  0  0
   11.4726   17.5375   14.4223 C   0  0  0  0  0  0  0  0  0  0  0  0
   13.0685   19.8822   18.8977 C   0  0  0  0  0  0  0  0  0  0  0  0
   13.9750   19.3077   17.8512 C   0  0  0  0  0  0  0  0  0  0  0  0
   15.0689   18.6587   18.5336 O   0  0  0  0  0  0  0  0  0  0  0  0
   15.5066   19.2947   19.1208 H   0  0  0  0  0  0  0  0  0  0  0  0
   14.3884   20.4935   16.9804 C   0  0  0  0  0  0  0  0  0  0  0  0
   15.1282   22.6928   17.9404 C   0  0  0  0  0  0  0  0  0  0  0  0
   14.2050   23.3537   17.4588 O   0  0  0  0  0  0  0  0  0  0  0  0
   15.2849   21.3571   17.7641 N   0  0  0  0  0  0  0  0  0  0  0  0
   16.0608   20.9314   18.1953 H   0  0  0  0  0  0  0  0  0  0  0  0
   16.2276   23.3602   18.7467 C   0  0  0  0  0  0  0  0  0  0  0  0
   18.1762   24.0907   17.4307 C   0  0  0  0  0  0  0  0  0  0  0  0
   18.8986   23.1636   17.7865 O   0  0  0  0  0  0  0  0  0  0  0  0
   16.9181   24.2634   17.8316 N   0  0  0  0  0  0  0  0  0  0  0  0
   16.4256   25.0450   17.4912 H   0  0  0  0  0  0  0  0  0  0  0  0
   18.8866   26.4093   16.9819 C   0  0  0  0  0  0  0  0  0  0  0  0
   18.7226   25.0622   16.5205 O   0  0  0  0  0  0  0  0  0  0  0  0
   15.7808   24.1004   20.0232 C   0  0  0  0  0  0  0  0  0  0  0  0
   14.7576   23.2873   20.8241 C   0  0  0  0  0  0  0  0  0  0  0  0
   16.9883   24.4418   20.8996 C   0  0  0  0  0  0  0  0  0  0  0  0
   15.0891   25.4138   19.6759 C   0  0  0  0  0  0  0  0  0  0  0  0
   15.1958   19.9736   15.7857 C   0  0  0  0  0  0  0  0  0  0  0  0
   15.4350   21.0819   14.7805 C   0  0  0  0  0  0  0  0  0  0  0  0
   14.4396   21.3753   13.8405 C   0  0  0  0  0  0  0  0  0  0  0  0
   14.6550   22.3945   12.9109 C   0  0  0  0  0  0  0  0  0  0  0  0
   15.8503   23.1198   12.9111 C   0  0  0  0  0  0  0  0  0  0  0  0
   16.8455   22.8257   13.8430 C   0  0  0  0  0  0  0  0  0  0  0  0
   16.6357   21.8047   14.7727 C   0  0  0  0  0  0  0  0  0  0  0  0
   11.2765   19.3096   20.3769 C   0  0  0  0  0  0  0  0  0  0  0  0
    9.7702   19.3883   20.4178 C   0  0  0  0  0  0  0  0  0  0  0  0
    9.1862   20.6012   20.0845 C   0  0  0  0  0  0  0  0  0  0  0  0
    7.8012   20.7258   20.1115 C   0  0  0  0  0  0  0  0  0  0  0  0
    8.9857   18.2987   20.7860 C   0  0  0  0  0  0  0  0  0  0  0  0
    7.5918   18.4278   20.8025 C   0  0  0  0  0  0  0  0  0  0  0  0
    6.9929   19.6463   20.4721 C   0  0  0  0  0  0  0  0  0  0  0  0
    5.5012   19.7895   20.4730 C   0  0  0  0  0  0  0  0  0  0  0  0
    4.7405   19.1608   21.4649 C   0  0  0  0  0  0  0  0  0  0  0  0
    3.3548   19.3089   21.4621 C   0  0  0  0  0  0  0  0  0  0  0  0
    2.7559   20.0843   20.4709 C   0  0  0  0  0  0  0  0  0  0  0  0
    3.5485   20.6981   19.5008 C   0  0  0  0  0  0  0  0  0  0  0  0
    4.8818   20.5368   19.5216 N   0  0  0  0  0  0  0  0  0  0  0  0
 31 32  1  0  0  0
 32 27  1  0  0  0
 27 28  2  0  0  0
 27 29  1  0  0  0
 29 26  1  0  0  0
 26 33  1  0  0  0
 26 22  1  0  0  0
 33 34  1  0  0  0
 33 35  1  0  0  0
 33 36  1  0  0  0
 22 23  2  0  0  0
 22 24  1  0  0  0
 24 21  1  0  0  0
 21 37  1  0  0  0
 21 18  1  0  0  0
 37 38  1  0  0  0
 38 39  2  0  0  0
 38 43  1  0  0  0
 39 40  1  0  0  0
 40 41  2  0  0  0
 41 42  1  0  0  0
 42 43  2  0  0  0
 18 19  1  0  0  0
 18 17  1  0  0  0
 17  1  1  0  0  0
  1  2  1  0  0  0
  1 44  1  0  0  0
  2  3  1  0  0  0
  3  4  2  0  0  0
  3  6  1  0  0  0
  6 13  1  0  0  0
  6  7  1  0  0  0
 13 14  1  0  0  0
 13 15  1  0  0  0
 13 16  1  0  0  0
  7  8  1  0  0  0
  8  9  2  0  0  0
  8 11  1  0  0  0
 11 12  1  0  0  0
 44 45  1  0  0  0
 45 46  1  0  0  0
 45 48  2  0  0  0
 46 47  2  0  0  0
 47 50  1  0  0  0
 48 49  1  0  0  0
 49 50  2  0  0  0
 50 51  1  0  0  0
 51 52  1  0  0  0
 51 56  2  0  0  0
 52 53  2  0  0  0
 53 54  1  0  0  0
 54 55  2  0  0  0
 55 56  1  0  0  0
 29 30  1  0  0  0
 24 25  1  0  0  0
 19 20  1  0  0  0
  2  5  1  0  0  0
  7 10  1  0  0  0
M  END
> <minimizedAffinity>
-11.06050

$$$$
2O4K_DR7_A_301


 56 58  0  0  0  0  0  0  0  0999 V2000
   14.4972   20.3207   17.1007 N   0  0  0  0  0  0  0  0  0  0  0  0
   15.2521   21.2898   17.8361 N   0  0  0  0  0  0  0  0  0  0  0  0
   14.9811   22.5689   18.1256 C   0  0  0  0  0  0  0  0  0  0  0  0
   13.9539   23.1823   17.8456 O   0  0  0  0  0  0  0  0  0  0  0  0
   16.1117   20.9620   18.1865 H   0  0  0  0  0  0  0  0  0  0  0  0
   16.1240   23.2590   18.8301 C   0  0  0  0  0  0  0  0  0  0  0  0
   16.7818   24.1221   17.8394 N   0  0  0  0  0  0  0  0  0  0  0  0
   18.0630   23.9651   17.4942 C   0  0  0  0  0  0  0  0  0  0  0  0
   18.8231   23.0925   17.9482 O   0  0  0  0  0  0  0  0  0  0  0  0
   16.2602   24.8412   17.4150 H   0  0  0  0  0  0  0  0  0  0  0  0
   18.5636   24.8850   16.5059 O   0  0  0  0  0  0  0  0  0  0  0  0
   19.6008   25.7984   16.8612 C   0  0  0  0  0  0  0  0  0  0  0  0
   15.7628   24.0301   20.1073 C   0  0  0  0  0  0  0  0  0  0  0  0
   15.1141   25.3588   19.7263 C   0  0  0  0  0  0  0  0  0  0  0  0
   14.7507   23.2236   20.9177 C   0  0  0  0  0  0  0  0  0  0  0  0
   16.9647   24.2954   21.0090 C   0  0  0  0  0  0  0  0  0  0  0  0
   13.3693   19.5216   17.5300 C   0  0  0  0  0  0  0  0  0  0  0  0
   12.0456   20.1810   17.2850 C   0  0  0  0  0  0  0  0  0  0  0  0
   11.6787   20.8795   18.4937 O   0  0  0  0  0  0  0  0  0  0  0  0
   11.6714   20.2568   19.2375 H   0  0  0  0  0  0  0  0  0  0  0  0
   11.0961   19.0482   16.8971 C   0  0  0  0  0  0  0  0  0  0  0  0
    9.2816   17.9529   18.2438 C   0  0  0  0  0  0  0  0  0  0  0  0
    9.5382   16.8020   17.8822 O   0  0  0  0  0  0  0  0  0  0  0  0
    9.9594   19.0527   17.8307 N   0  0  0  0  0  0  0  0  0  0  0  0
    9.6671   19.9239   18.1840 H   0  0  0  0  0  0  0  0  0  0  0  0
    8.1098   18.2380   19.1657 C   0  0  0  0  0  0  0  0  0  0  0  0
    5.9584   17.0448   19.0658 C   0  0  0  0  0  0  0  0  0  0  0  0
    5.2773   18.0616   18.9651 O   0  0  0  0  0  0  0  0  0  0  0  0
    7.2861   17.0333   19.1684 N   0  0  0  0  0  0  0  0  0  0  0  0
    7.7378   16.1624   19.2507 H   0  0  0  0  0  0  0  0  0  0  0  0
    3.9902   15.6882   18.4594 C   0  0  0  0  0  0  0  0  0  0  0  0
    5.2803   15.7756   19.0776 O   0  0  0  0  0  0  0  0  0  0  0  0
    8.4647   18.6694   20.6027 C   0  0  0  0  0  0  0  0  0  0  0  0
    7.9359   17.6751   21.6426 C   0  0  0  0  0  0  0  0  0  0  0  0
    9.9778   18.8412   20.7563 C   0  0  0  0  0  0  0  0  0  0  0  0
    7.8213   20.0090   20.9425 C   0  0  0  0  0  0  0  0  0  0  0  0
   10.5320   19.3307   15.5002 C   0  0  0  0  0  0  0  0  0  0  0  0
   10.1819   18.0364   14.7944 C   0  0  0  0  0  0  0  0  0  0  0  0
    8.8360   17.7340   14.5544 C   0  0  0  0  0  0  0  0  0  0  0  0
    8.5073   16.5421   13.9058 C   0  0  0  0  0  0  0  0  0  0  0  0
    9.5060   15.6532   13.4968 C   0  0  0  0  0  0  0  0  0  0  0  0
   10.8471   15.9497   13.7395 C   0  0  0  0  0  0  0  0  0  0  0  0
   11.1803   17.1393   14.3911 C   0  0  0  0  0  0  0  0  0  0  0  0
   14.9723   19.8728   15.7879 C   0  0  0  0  0  0  0  0  0  0  0  0
   15.4877   20.9997   14.9269 C   0  0  0  0  0  0  0  0  0  0  0  0
   16.8379   21.3032   15.0157 C   0  0  0  0  0  0  0  0  0  0  0  0
   17.3605   22.3367   14.2455 C   0  0  0  0  0  0  0  0  0  0  0  0
   14.6503   21.7229   14.0820 C   0  0  0  0  0  0  0  0  0  0  0  0
   15.1840   22.7561   13.3025 C   0  0  0  0  0  0  0  0  0  0  0  0
   16.5424   23.0730   13.3868 C   0  0  0  0  0  0  0  0  0  0  0  0
   17.1252   24.1677   12.5456 C   0  0  0  0  0  0  0  0  0  0  0  0
   18.2391   23.9101   11.7390 C   0  0  0  0  0  0  0  0  0  0  0  0
   18.7667   24.9329   10.9531 C   0  0  0  0  0  0  0  0  0  0  0  0
   18.1699   26.1919   10.9853 C   0  0  0  0  0  0  0  0  0  0  0  0
   17.0583   26.4089   11.7998 C   0  0  0  0  0  0  0  0  0  0  0  0
   16.5707   25.4086   12.5519 N   0  0  0  0  0  0  0  0  0  0  0  0
 31 32  1  0  0  0
 32 27  1  0  0  0
 27 28  2  0  0  0
 27 29  1  0  0  0
 29 26  1  0  0  0
 26 33  1  0  0  0
 26 22  1  0  0  0
 33 34  1  0  0  0
 33 35  1  0  0  0
 33 36  1  0  0  0
 22 23  2  0  0  0
 22 24  1  0  0  0
 24 21  1  0  0  0
 21 37  1  0  0  0
 21 18  1  0  0  0
 37 38  1  0  0  0
 38 39  2  0  0  0
 38 43  1  0  0  0
 39 40  1  0  0  0
 40 41  2  0  0  0
 41 42  1  0  0  0
 42 43  2  0  0  0
 18 19  1  0  0  0
 18 17  1  0  0  0
 17  1  1  0  0  0
  1  2  1  0  0  0
  1 44  1  0  0  0
  2  3  1  0  0  0
  3  4  2  0  0  0
  3  6  1  0  0  0
  6 13  1  0  0  0
  6  7  1  0  0  0
 13 14  1  0  0  0
 13 15  1  0  0  0
 13 16  1  0  0  0
  7  8  1  0  0  0
  8  9  2  0  0  0
  8 11  1  0  0  0
 11 12  1  0  0  0
 44 45  1  0  0  0
 45 46  1  0  0  0
 45 48  2  0  0  0
 46 47  2  0  0  0
 47 50  1  0  0  0
 48 49  1  0  0  0
 49 50  2  0  0  0
 50 51  1  0  0  0
 51 52  1  0  0  0
 51 56  2  0  0  0
 52 53  2  0  0  0
 53 54  1  0  0  0
 54 55  2  0  0  0
 55 56  1  0  0  0
 29 30  1  0  0  0
 24 25  1  0  0  0
 19 20  1  0  0  0
  2  5  1  0  0  0
  7 10  1  0  0  0
M  END
> <minimizedAffinity>
-10.04021

$$$$
2O4K_DR7_A_301


 56 58  0  0  0  0  0  0  0  0999 V2000
   10.9826   18.9726   19.4938 N   0  0  0  0  0  0  0  0  0  0  0  0
   10.3198   18.3221   18.4041 N   0  0  0  0  0  0  0  0  0  0  0  0
   10.8174   17.6735   17.3434 C   0  0  0  0  0  0  0  0  0  0  0  0
   12.0033   17.4530   17.1089 O   0  0  0  0  0  0  0  0  0  0  0  0
    9.3366   18.3575   18.4405 H   0  0  0  0  0  0  0  0  0  0  0  0
    9.7457   17.2425   16.3716 C   0  0  0  0  0  0  0  0  0  0  0  0
    8.4548   17.4064   17.0542 N   0  0  0  0  0  0  0  0  0  0  0  0
    7.6827   16.3660   17.3809 C   0  0  0  0  0  0  0  0  0  0  0  0
    7.9603   15.1742   17.1622 O   0  0  0  0  0  0  0  0  0  0  0  0
    8.1481   18.3145   17.2787 H   0  0  0  0  0  0  0  0  0  0  0  0
    6.4492   16.6864   18.0512 O   0  0  0  0  0  0  0  0  0  0  0  0
    5.4434   15.6829   18.1840 C   0  0  0  0  0  0  0  0  0  0  0  0
    9.7581   17.9355   15.0020 C   0  0  0  0  0  0  0  0  0  0  0  0
   10.1915   19.3891   15.1776 C   0  0  0  0  0  0  0  0  0  0  0  0
   10.7724   17.2449   14.0932 C   0  0  0  0  0  0  0  0  0  0  0  0
    8.4065   17.8937   14.2953 C   0  0  0  0  0  0  0  0  0  0  0  0
   12.2408   19.6879   19.5040 C   0  0  0  0  0  0  0  0  0  0  0  0
   12.0939   21.1540   19.2284 C   0  0  0  0  0  0  0  0  0  0  0  0
   10.7301   21.3829   18.8146 O   0  0  0  0  0  0  0  0  0  0  0  0
   10.5253   20.8212   18.0508 H   0  0  0  0  0  0  0  0  0  0  0  0
   13.1398   21.4706   18.1602 C   0  0  0  0  0  0  0  0  0  0  0  0
   14.9259   23.2246   18.3577 C   0  0  0  0  0  0  0  0  0  0  0  0
   14.6136   23.8338   17.3318 O   0  0  0  0  0  0  0  0  0  0  0  0
   14.2903   22.1156   18.8113 N   0  0  0  0  0  0  0  0  0  0  0  0
   14.6259   21.7097   19.6431 H   0  0  0  0  0  0  0  0  0  0  0  0
   16.1235   23.6537   19.1858 C   0  0  0  0  0  0  0  0  0  0  0  0
   18.0925   24.0854   17.7719 C   0  0  0  0  0  0  0  0  0  0  0  0
   18.5906   22.9758   17.9413 O   0  0  0  0  0  0  0  0  0  0  0  0
   16.9463   24.4890   18.3167 N   0  0  0  0  0  0  0  0  0  0  0  0
   16.6363   25.4029   18.1221 H   0  0  0  0  0  0  0  0  0  0  0  0
   19.7578   24.5071   16.0025 C   0  0  0  0  0  0  0  0  0  0  0  0
   18.7930   25.0193   16.9304 O   0  0  0  0  0  0  0  0  0  0  0  0
   15.8098   24.3750   20.5119 C   0  0  0  0  0  0  0  0  0  0  0  0
   15.1158   23.4465   21.5146 C   0  0  0  0  0  0  0  0  0  0  0  0
   17.0862   24.9565   21.1248 C   0  0  0  0  0  0  0  0  0  0  0  0
   14.8484   25.5360   20.2848 C   0  0  0  0  0  0  0  0  0  0  0  0
   13.6443   20.1557   17.5553 C   0  0  0  0  0  0  0  0  0  0  0  0
   14.2990   20.4032   16.2114 C   0  0  0  0  0  0  0  0  0  0  0  0
   15.5664   19.8629   15.9616 C   0  0  0  0  0  0  0  0  0  0  0  0
   16.1753   20.0889   14.7256 C   0  0  0  0  0  0  0  0  0  0  0  0
   15.5333   20.8465   13.7415 C   0  0  0  0  0  0  0  0  0  0  0  0
   14.2732   21.3903   13.9901 C   0  0  0  0  0  0  0  0  0  0  0  0
   13.6617   21.1697   15.2263 C   0  0  0  0  0  0  0  0  0  0  0  0
   10.4905   18.7823   20.8618 C   0  0  0  0  0  0  0  0  0  0  0  0
    8.9878   18.6706   20.9420 C   0  0  0  0  0  0  0  0  0  0  0  0
    8.4605   17.4588   21.3623 C   0  0  0  0  0  0  0  0  0  0  0  0
    7.0809   17.3044   21.4485 C   0  0  0  0  0  0  0  0  0  0  0  0
    8.1515   19.7294   20.5988 C   0  0  0  0  0  0  0  0  0  0  0  0
    6.7640   19.5707   20.6963 C   0  0  0  0  0  0  0  0  0  0  0  0
    6.2216   18.3528   21.1151 C   0  0  0  0  0  0  0  0  0  0  0  0
    4.7382   18.1785   21.2362 C   0  0  0  0  0  0  0  0  0  0  0  0
    3.9037   19.3013   21.2650 C   0  0  0  0  0  0  0  0  0  0  0  0
    2.5249   19.1274   21.3678 C   0  0  0  0  0  0  0  0  0  0  0  0
    2.0058   17.8358   21.4366 C   0  0  0  0  0  0  0  0  0  0  0  0
    2.8699   16.7412   21.4017 C   0  0  0  0  0  0  0  0  0  0  0  0
    4.1957   16.9343   21.3069 N   0  0  0  0  0  0  0  0  0  0  0  0
 31 32  1  0  0  0
 32 27  1  0  0  0
 27 28  2  0  0  0
 27 29  1  0  0  0
 29 26  1  0  0  0
 26 33  1  0  0  0
 26 22  1  0  0  0
 33 34  1  0  0  0
 33 35  1  0  0  0
 33 36  1  0  0  0
 22 23  2  0  0  0
 22 24  1  0  0  0
 24 21  1  0  0  0
 21 37  1  0  0  0
 21 18  1  0  0  0
 37 38  1  0  0  0
 38 39  2  0  0  0
 38 43  1  0  0  0
 39 40  1  0  0  0
 40 41  2  0  0  0
 41 42  1  0  0  0
 42 43  2  0  0  0
 18 19  1  0  0  0
 18 17  1  0  0  0
 17  1  1  0  0  0
  1  2  1  0  0  0
  1 44  1  0  0  0
  2  3  1  0  0  0
  3  4  2  0  0  0
  3  6  1  0  0  0
  6 13  1  0  0  0
  6  7  1  0  0  0
 13 14  1  0  0  0
 13 15  1  0  0  0
 13 16  1  0  0  0
  7  8  1  0  0  0
  8  9  2  0  0  0
  8 11  1  0  0  0
 11 12  1  0  0  0
 44 45  1  0  0  0
 45 46  1  0  0  0
 45 48  2  0  0  0
 46 47  2  0  0  0
 47 50  1  0  0  0
 48 49  1  0  0  0
 49 50  2  0  0  0
 50 51  1  0  0  0
 51 52  1  0  0  0
 51 56  2  0  0  0
 52 53  2  0  0  0
 53 54  1  0  0  0
 54 55  2  0  0  0
 55 56  1  0  0  0
 29 30  1  0  0  0
 24 25  1  0  0  0
 19 20  1  0  0  0
  2  5  1  0  0  0
  7 10  1  0  0  0
M  END
> <minimizedAffinity>
-9.56853

$$$$
2O4K_DR7_A_301


 56 58  0  0  0  0  0  0  0  0999 V2000
   11.5006   19.1750   19.3787 N   0  0  0  0  0  0  0  0  0  0  0  0
   10.9109   18.2878   18.4222 N   0  0  0  0  0  0  0  0  0  0  0  0
   10.4627   18.5170   17.1813 C   0  0  0  0  0  0  0  0  0  0  0  0
   10.5173   19.5795   16.5666 O   0  0  0  0  0  0  0  0  0  0  0  0
   10.8201   17.3560   18.7268 H   0  0  0  0  0  0  0  0  0  0  0  0
    9.8032   17.3047   16.5695 C   0  0  0  0  0  0  0  0  0  0  0  0
    8.3896   17.3363   16.9692 N   0  0  0  0  0  0  0  0  0  0  0  0
    7.8524   16.4094   17.7678 C   0  0  0  0  0  0  0  0  0  0  0  0
    8.4672   15.4472   18.2593 O   0  0  0  0  0  0  0  0  0  0  0  0
    7.8182   18.0659   16.6370 H   0  0  0  0  0  0  0  0  0  0  0  0
    6.4557   16.5788   18.0744 O   0  0  0  0  0  0  0  0  0  0  0  0
    5.4741   16.0935   17.1594 C   0  0  0  0  0  0  0  0  0  0  0  0
    9.9627   17.1435   15.0514 C   0  0  0  0  0  0  0  0  0  0  0  0
   11.4109   17.4340   14.6641 C   0  0  0  0  0  0  0  0  0  0  0  0
    9.6470   15.7021   14.6583 C   0  0  0  0  0  0  0  0  0  0  0  0
    9.0341   18.0509   14.2500 C   0  0  0  0  0  0  0  0  0  0  0  0
   12.7833   19.8443   19.3370 C   0  0  0  0  0  0  0  0  0  0  0  0
   12.6730   21.3363   19.2433 C   0  0  0  0  0  0  0  0  0  0  0  0
   12.1778   21.6526   17.9249 O   0  0  0  0  0  0  0  0  0  0  0  0
   12.7640   21.2632   17.2573 H   0  0  0  0  0  0  0  0  0  0  0  0
   14.0774   21.8638   19.5339 C   0  0  0  0  0  0  0  0  0  0  0  0
   15.3104   21.4855   17.3793 C   0  0  0  0  0  0  0  0  0  0  0  0
   15.4507   20.2695   17.5301 O   0  0  0  0  0  0  0  0  0  0  0  0
   14.6837   22.2982   18.2661 N   0  0  0  0  0  0  0  0  0  0  0  0
   14.6302   23.2557   18.0433 H   0  0  0  0  0  0  0  0  0  0  0  0
   15.9007   22.1954   16.1744 C   0  0  0  0  0  0  0  0  0  0  0  0
   18.2037   22.9875   16.5366 C   0  0  0  0  0  0  0  0  0  0  0  0
   17.8827   24.1528   16.7533 O   0  0  0  0  0  0  0  0  0  0  0  0
   17.3459   22.0087   16.2544 N   0  0  0  0  0  0  0  0  0  0  0  0
   17.7073   21.1077   16.0905 H   0  0  0  0  0  0  0  0  0  0  0  0
   20.1082   21.7058   15.6355 C   0  0  0  0  0  0  0  0  0  0  0  0
   19.6021   22.6514   16.5863 O   0  0  0  0  0  0  0  0  0  0  0  0
   15.3615   21.7600   14.7972 C   0  0  0  0  0  0  0  0  0  0  0  0
   13.8846   21.3559   14.8658 C   0  0  0  0  0  0  0  0  0  0  0  0
   15.5585   22.8724   13.7644 C   0  0  0  0  0  0  0  0  0  0  0  0
   16.1060   20.5319   14.2857 C   0  0  0  0  0  0  0  0  0  0  0  0
   13.9660   23.1042   20.4274 C   0  0  0  0  0  0  0  0  0  0  0  0
   15.1457   24.0290   20.2060 C   0  0  0  0  0  0  0  0  0  0  0  0
   16.3404   23.7856   20.8945 C   0  0  0  0  0  0  0  0  0  0  0  0
   17.4304   24.6352   20.6956 C   0  0  0  0  0  0  0  0  0  0  0  0
   17.3384   25.7210   19.8197 C   0  0  0  0  0  0  0  0  0  0  0  0
   16.1476   25.9687   19.1369 C   0  0  0  0  0  0  0  0  0  0  0  0
   15.0537   25.1234   19.3353 C   0  0  0  0  0  0  0  0  0  0  0  0
   10.8787   19.3412   20.6961 C   0  0  0  0  0  0  0  0  0  0  0  0
    9.3711   19.3011   20.6502 C   0  0  0  0  0  0  0  0  0  0  0  0
    8.7164   20.4425   20.2123 C   0  0  0  0  0  0  0  0  0  0  0  0
    7.3267   20.4570   20.1564 C   0  0  0  0  0  0  0  0  0  0  0  0
    8.6523   18.1747   21.0410 C   0  0  0  0  0  0  0  0  0  0  0  0
    7.2540   18.1924   20.9738 C   0  0  0  0  0  0  0  0  0  0  0  0
    6.5838   19.3384   20.5376 C   0  0  0  0  0  0  0  0  0  0  0  0
    5.0881   19.3613   20.4488 C   0  0  0  0  0  0  0  0  0  0  0  0
    4.3244   19.5962   21.5975 C   0  0  0  0  0  0  0  0  0  0  0  0
    2.9344   19.6253   21.5015 C   0  0  0  0  0  0  0  0  0  0  0  0
    2.3341   19.4227   20.2601 C   0  0  0  0  0  0  0  0  0  0  0  0
    3.1297   19.1948   19.1371 C   0  0  0  0  0  0  0  0  0  0  0  0
    4.4673   19.1666   19.2554 N   0  0  0  0  0  0  0  0  0  0  0  0
 31 32  1  0  0  0
 32 27  1  0  0  0
 27 28  2  0  0  0
 27 29  1  0  0  0
 29 26  1  0  0  0
 26 33  1  0  0  0
 26 22  1  0  0  0
 33 34  1  0  0  0
 33 35  1  0  0  0
 33 36  1  0  0  0
 22 23  2  0  0  0
 22 24  1  0  0  0
 24 21  1  0  0  0
 21 37  1  0  0  0
 21 18  1  0  0  0
 37 38  1  0  0  0
 38 39  2  0  0  0
 38 43  1  0  0  0
 39 40  1  0  0  0
 40 41  2  0  0  0
 41 42  1  0  0  0
 42 43  2  0  0  0
 18 19  1  0  0  0
 18 17  1  0  0  0
 17  1  1  0  0  0
  1  2  1  0  0  0
  1 44  1  0  0  0
  2  3  1  0  0  0
  3  4  2  0  0  0
  3  6  1  0  0  0
  6 13  1  0  0  0
  6  7  1  0  0  0
 13 14  1  0  0  0
 13 15  1  0  0  0
 13 16  1  0  0  0
  7  8  1  0  0  0
  8  9  2  0  0  0
  8 11  1  0  0  0
 11 12  1  0  0  0
 44 45  1  0  0  0
 45 46  1  0  0  0
 45 48  2  0  0  0
 46 47  2  0  0  0
 47 50  1  0  0  0
 48 49  1  0  0  0
 49 50  2  0  0  0
 50 51  1  0  0  0
 51 52  1  0  0  0
 51 56  2  0  0  0
 52 53  2  0  0  0
 53 54  1  0  0  0
 54 55  2  0  0  0
 55 56  1  0  0  0
 29 30  1  0  0  0
 24 25  1  0  0  0
 19 20  1  0  0  0
  2  5  1  0  0  0
  7 10  1  0  0  0
M  END
> <minimizedAffinity>
-9.56232

$$$$
2O4K_DR7_A_301


 56 58  0  0  0  0  0  0  0  0999 V2000
   12.1120   19.4782   15.7983 N   0  0  0  0  0  0  0  0  0  0  0  0
   11.3115   19.5943   16.9796 N   0  0  0  0  0  0  0  0  0  0  0  0
   11.4726   19.0613   18.1976 C   0  0  0  0  0  0  0  0  0  0  0  0
   12.4158   18.3712   18.5769 O   0  0  0  0  0  0  0  0  0  0  0  0
   10.5110   20.1587   16.8803 H   0  0  0  0  0  0  0  0  0  0  0  0
   10.3122   19.3548   19.1174 C   0  0  0  0  0  0  0  0  0  0  0  0
    9.7673   18.0603   19.5490 N   0  0  0  0  0  0  0  0  0  0  0  0
    8.4565   17.8010   19.5473 C   0  0  0  0  0  0  0  0  0  0  0  0
    7.5720   18.5949   19.1829 O   0  0  0  0  0  0  0  0  0  0  0  0
   10.3897   17.3594   19.8500 H   0  0  0  0  0  0  0  0  0  0  0  0
    8.0768   16.4854   19.9928 O   0  0  0  0  0  0  0  0  0  0  0  0
    6.8720   15.9002   19.5008 C   0  0  0  0  0  0  0  0  0  0  0  0
   10.6120   20.2732   20.3103 C   0  0  0  0  0  0  0  0  0  0  0  0
   11.0425   19.4236   21.5037 C   0  0  0  0  0  0  0  0  0  0  0  0
   11.7652   21.2083   19.9534 C   0  0  0  0  0  0  0  0  0  0  0  0
    9.4245   21.1430   20.7121 C   0  0  0  0  0  0  0  0  0  0  0  0
   13.1688   20.3440   15.3201 C   0  0  0  0  0  0  0  0  0  0  0  0
   14.4294   20.2441   16.1250 C   0  0  0  0  0  0  0  0  0  0  0  0
   14.0678   20.3785   17.5159 O   0  0  0  0  0  0  0  0  0  0  0  0
   13.5880   21.2114   17.6462 H   0  0  0  0  0  0  0  0  0  0  0  0
   15.3343   21.3568   15.5972 C   0  0  0  0  0  0  0  0  0  0  0  0
   15.5548   22.9368   17.5365 C   0  0  0  0  0  0  0  0  0  0  0  0
   14.4400   23.4479   17.4057 O   0  0  0  0  0  0  0  0  0  0  0  0
   16.0456   21.9583   16.7356 N   0  0  0  0  0  0  0  0  0  0  0  0
   16.9504   21.6237   16.9321 H   0  0  0  0  0  0  0  0  0  0  0  0
   16.5156   23.4236   18.6061 C   0  0  0  0  0  0  0  0  0  0  0  0
   18.6549   24.0373   17.5531 C   0  0  0  0  0  0  0  0  0  0  0  0
   19.1674   22.9311   17.7006 O   0  0  0  0  0  0  0  0  0  0  0  0
   17.4242   24.3573   17.9486 N   0  0  0  0  0  0  0  0  0  0  0  0
   17.1094   25.2762   17.7882 H   0  0  0  0  0  0  0  0  0  0  0  0
   18.9182   26.4002   16.8979 C   0  0  0  0  0  0  0  0  0  0  0  0
   19.4345   25.0632   16.9124 O   0  0  0  0  0  0  0  0  0  0  0  0
   15.8756   24.0609   19.8557 C   0  0  0  0  0  0  0  0  0  0  0  0
   15.2001   25.3978   19.5303 C   0  0  0  0  0  0  0  0  0  0  0  0
   14.8693   23.1013   20.4954 C   0  0  0  0  0  0  0  0  0  0  0  0
   16.9331   24.3739   20.9082 C   0  0  0  0  0  0  0  0  0  0  0  0
   16.3953   20.7393   14.6794 C   0  0  0  0  0  0  0  0  0  0  0  0
   17.4647   21.7576   14.3397 C   0  0  0  0  0  0  0  0  0  0  0  0
   18.8109   21.4174   14.5204 C   0  0  0  0  0  0  0  0  0  0  0  0
   19.8007   22.3522   14.2104 C   0  0  0  0  0  0  0  0  0  0  0  0
   19.4598   23.6179   13.7242 C   0  0  0  0  0  0  0  0  0  0  0  0
   18.1194   23.9609   13.5484 C   0  0  0  0  0  0  0  0  0  0  0  0
   17.1258   23.0302   13.8604 C   0  0  0  0  0  0  0  0  0  0  0  0
   11.7620   18.4853   14.7777 C   0  0  0  0  0  0  0  0  0  0  0  0
   10.3860   17.8966   14.9694 C   0  0  0  0  0  0  0  0  0  0  0  0
   10.2556   16.8683   15.8906 C   0  0  0  0  0  0  0  0  0  0  0  0
    9.0083   16.2893   16.1000 C   0  0  0  0  0  0  0  0  0  0  0  0
    9.2847   18.3489   14.2478 C   0  0  0  0  0  0  0  0  0  0  0  0
    8.0302   17.7683   14.4697 C   0  0  0  0  0  0  0  0  0  0  0  0
    7.8879   16.7290   15.3928 C   0  0  0  0  0  0  0  0  0  0  0  0
    6.5465   16.1114   15.6472 C   0  0  0  0  0  0  0  0  0  0  0  0
    6.4565   14.7630   16.0096 C   0  0  0  0  0  0  0  0  0  0  0  0
    5.2046   14.2015   16.2536 C   0  0  0  0  0  0  0  0  0  0  0  0
    4.0672   14.9981   16.1341 C   0  0  0  0  0  0  0  0  0  0  0  0
    4.1980   16.3394   15.7737 C   0  0  0  0  0  0  0  0  0  0  0  0
    5.4150   16.8568   15.5391 N   0  0  0  0  0  0  0  0  0  0  0  0
 31 32  1  0  0  0
 32 27  1  0  0  0
 27 28  2  0  0  0
 27 29  1  0  0  0
 29 26  1  0  0  0
 26 33  1  0  0  0
 26 22  1  0  0  0
 33 34  1  0  0  0
 33 35  1  0  0  0
 33 36  1  0  0  0
 22 23  2  0  0  0
 22 24  1  0  0  0
 24 21  1  0  0  0
 21 37  1  0  0  0
 21 18  1  0  0  0
 37 38  1  0  0  0
 38 39  2  0  0  0
 38 43  1  0  0  0
 39 40  1  0  0  0
 40 41  2  0  0  0
 41 42  1  0  0  0
 42 43  2  0  0  0
 18 19  1  0  0  0
 18 17  1  0  0  0
 17  1  1  0  0  0
  1  2  1  0  0  0
  1 44  1  0  0  0
  2  3  1  0  0  0
  3  4  2  0  0  0
  3  6  1  0  0  0
  6 13  1  0  0  0
  6  7  1  0  0  0
 13 14  1  0  0  0
 13 15  1  0  0  0
 13 16  1  0  0  0
  7  8  1  0  0  0
  8  9  2  0  0  0
  8 11  1  0  0  0
 11 12  1  0  0  0
 44 45  1  0  0  0
 45 46  1  0  0  0
 45 48  2  0  0  0
 46 47  2  0  0  0
 47 50  1  0  0  0
 48 49  1  0  0  0
 49 50  2  0  0  0
 50 51  1  0  0  0
 51 52  1  0  0  0
 51 56  2  0  0  0
 52 53  2  0  0  0
 53 54  1  0  0  0
 54 55  2  0  0  0
 55 56  1  0  0  0
 29 30  1  0  0  0
 24 25  1  0  0  0
 19 20  1  0  0  0
  2  5  1  0  0  0
  7 10  1  0  0  0
M  END
> <minimizedAffinity>
-9.41832

$$$$
2O4K_DR7_A_301


 56 58  0  0  0  0  0  0  0  0999 V2000
   12.3486   19.9498   18.6794 N   0  0  0  0  0  0  0  0  0  0  0  0
   11.5267   19.0990   17.8729 N   0  0  0  0  0  0  0  0  0  0  0  0
   11.7922   17.9173   17.3015 C   0  0  0  0  0  0  0  0  0  0  0  0
   12.8324   17.2711   17.4030 O   0  0  0  0  0  0  0  0  0  0  0  0
   10.6167   19.4384   17.7119 H   0  0  0  0  0  0  0  0  0  0  0  0
   10.6606   17.4262   16.4315 C   0  0  0  0  0  0  0  0  0  0  0  0
    9.4161   17.6397   17.1830 N   0  0  0  0  0  0  0  0  0  0  0  0
    8.5596   16.6476   17.4426 C   0  0  0  0  0  0  0  0  0  0  0  0
    8.7136   15.4629   17.0990 O   0  0  0  0  0  0  0  0  0  0  0  0
    9.2061   18.5455   17.5066 H   0  0  0  0  0  0  0  0  0  0  0  0
    7.3868   17.0122   18.1943 O   0  0  0  0  0  0  0  0  0  0  0  0
    6.1925   16.2459   18.0438 C   0  0  0  0  0  0  0  0  0  0  0  0
   10.5845   18.0261   15.0206 C   0  0  0  0  0  0  0  0  0  0  0  0
   11.7149   19.0370   14.8421 C   0  0  0  0  0  0  0  0  0  0  0  0
   10.7721   16.9178   13.9872 C   0  0  0  0  0  0  0  0  0  0  0  0
    9.2497   18.7047   14.7276 C   0  0  0  0  0  0  0  0  0  0  0  0
   13.7706   20.2036   18.5871 C   0  0  0  0  0  0  0  0  0  0  0  0
   14.2198   20.5773   17.2067 C   0  0  0  0  0  0  0  0  0  0  0  0
   14.7352   19.3835   16.5801 O   0  0  0  0  0  0  0  0  0  0  0  0
   15.4404   19.0083   17.1304 H   0  0  0  0  0  0  0  0  0  0  0  0
   15.2549   21.6839   17.4050 C   0  0  0  0  0  0  0  0  0  0  0  0
   17.1331   22.5975   16.0109 C   0  0  0  0  0  0  0  0  0  0  0  0
   17.6376   23.2720   16.9117 O   0  0  0  0  0  0  0  0  0  0  0  0
   16.0236   21.8314   16.1596 N   0  0  0  0  0  0  0  0  0  0  0  0
   15.7076   21.3343   15.3709 H   0  0  0  0  0  0  0  0  0  0  0  0
   17.7042   22.6218   14.6046 C   0  0  0  0  0  0  0  0  0  0  0  0
   15.9670   23.7482   13.2720 C   0  0  0  0  0  0  0  0  0  0  0  0
   15.2755   22.7438   13.1276 O   0  0  0  0  0  0  0  0  0  0  0  0
   17.1172   23.7823   13.9425 N   0  0  0  0  0  0  0  0  0  0  0  0
   17.5989   24.6393   13.9944 H   0  0  0  0  0  0  0  0  0  0  0  0
   16.4663   26.0171   12.4444 C   0  0  0  0  0  0  0  0  0  0  0  0
   15.5096   24.9751   12.6751 O   0  0  0  0  0  0  0  0  0  0  0  0
   19.2420   22.6411   14.4956 C   0  0  0  0  0  0  0  0  0  0  0  0
   19.8251   23.9967   14.9104 C   0  0  0  0  0  0  0  0  0  0  0  0
   19.8566   21.5206   15.3378 C   0  0  0  0  0  0  0  0  0  0  0  0
   19.6875   22.4195   13.0547 C   0  0  0  0  0  0  0  0  0  0  0  0
   14.5237   23.0100   17.6419 C   0  0  0  0  0  0  0  0  0  0  0  0
   14.9946   23.6565   18.9289 C   0  0  0  0  0  0  0  0  0  0  0  0
   14.8194   22.9727   20.1382 C   0  0  0  0  0  0  0  0  0  0  0  0
   15.2500   23.5641   21.3275 C   0  0  0  0  0  0  0  0  0  0  0  0
   15.8509   24.8265   21.3201 C   0  0  0  0  0  0  0  0  0  0  0  0
   16.0215   25.5118   20.1173 C   0  0  0  0  0  0  0  0  0  0  0  0
   15.5892   24.9255   18.9256 C   0  0  0  0  0  0  0  0  0  0  0  0
   11.8013   20.5402   19.9048 C   0  0  0  0  0  0  0  0  0  0  0  0
   10.4101   20.0537   20.2283 C   0  0  0  0  0  0  0  0  0  0  0  0
    9.3580   20.9235   19.9839 C   0  0  0  0  0  0  0  0  0  0  0  0
    8.0570   20.5232   20.2697 C   0  0  0  0  0  0  0  0  0  0  0  0
   10.1781   18.7894   20.7631 C   0  0  0  0  0  0  0  0  0  0  0  0
    8.8655   18.3890   21.0401 C   0  0  0  0  0  0  0  0  0  0  0  0
    7.7981   19.2587   20.8013 C   0  0  0  0  0  0  0  0  0  0  0  0
    6.3888   18.8334   21.0814 C   0  0  0  0  0  0  0  0  0  0  0  0
    6.1360   17.5665   21.6190 C   0  0  0  0  0  0  0  0  0  0  0  0
    4.8223   17.1851   21.8848 C   0  0  0  0  0  0  0  0  0  0  0  0
    3.7868   18.0771   21.6118 C   0  0  0  0  0  0  0  0  0  0  0  0
    4.0792   19.3327   21.0789 C   0  0  0  0  0  0  0  0  0  0  0  0
    5.3530   19.6759   20.8269 N   0  0  0  0  0  0  0  0  0  0  0  0
 31 32  1  0  0  0
 32 27  1  0  0  0
 27 28  2  0  0  0
 27 29  1  0  0  0
 29 26  1  0  0  0
 26 33  1  0  0  0
 26 22  1  0  0  0
 33 34  1  0  0  0
 33 35  1  0  0  0
 33 36  1  0  0  0
 22 23  2  0  0  0
 22 24  1  0  0  0
 24 21  1  0  0  0
 21 37  1  0  0  0
 21 18  1  0  0  0
 37 38  1  0  0  0
 38 39  2  0  0  0
 38 43  1  0  0  0
 39 40  1  0  0  0
 40 41  2  0  0  0
 41 42  1  0  0  0
 42 43  2  0  0  0
 18 19  1  0  0  0
 18 17  1  0  0  0
 17  1  1  0  0  0
  1  2  1  0  0  0
  1 44  1  0  0  0
  2  3  1  0  0  0
  3  4  2  0  0  0
  3  6  1  0  0  0
  6 13  1  0  0  0
  6  7  1  0  0  0
 13 14  1  0  0  0
 13 15  1  0  0  0
 13 16  1  0  0  0
  7  8  1  0  0  0
  8  9  2  0  0  0
  8 11  1  0  0  0
 11 12  1  0  0  0
 44 45  1  0  0  0
 45 46  1  0  0  0
 45 48  2  0  0  0
 46 47  2  0  0  0
 47 50  1  0  0  0
 48 49  1  0  0  0
 49 50  2  0  0  0
 50 51  1  0  0  0
 51 52  1  0  0  0
 51 56  2  0  0  0
 52 53  2  0  0  0
 53 54  1  0  0  0
 54 55  2  0  0  0
 55 56  1  0  0  0
 29 30  1  0  0  0
 24 25  1  0  0  0
 19 20  1  0  0  0
  2  5  1  0  0  0
  7 10  1  0  0  0
M  END
> <minimizedAffinity>
-9.36566

$$$$
2O4K_DR7_A_301


 56 58  0  0  0  0  0  0  0  0999 V2000
    7.3106   17.5469   19.7830 N   0  0  0  0  0  0  0  0  0  0  0  0
    7.8649   17.6775   18.4694 N   0  0  0  0  0  0  0  0  0  0  0  0
    8.4936   16.7832   17.6957 C   0  0  0  0  0  0  0  0  0  0  0  0
    8.6852   15.5971   17.9533 O   0  0  0  0  0  0  0  0  0  0  0  0
    7.7680   18.5716   18.0690 H   0  0  0  0  0  0  0  0  0  0  0  0
    9.0221   17.3906   16.4188 C   0  0  0  0  0  0  0  0  0  0  0  0
   10.4870   17.4175   16.5292 N   0  0  0  0  0  0  0  0  0  0  0  0
   11.1809   18.5592   16.5478 C   0  0  0  0  0  0  0  0  0  0  0  0
   10.6849   19.6973   16.4859 O   0  0  0  0  0  0  0  0  0  0  0  0
   10.9744   16.5644   16.5916 H   0  0  0  0  0  0  0  0  0  0  0  0
   12.6095   18.4230   16.6659 O   0  0  0  0  0  0  0  0  0  0  0  0
   13.4597   19.2517   15.8742 C   0  0  0  0  0  0  0  0  0  0  0  0
    8.5609   16.7264   15.1140 C   0  0  0  0  0  0  0  0  0  0  0  0
    8.6797   17.7299   13.9693 C   0  0  0  0  0  0  0  0  0  0  0  0
    9.4691   15.5397   14.8003 C   0  0  0  0  0  0  0  0  0  0  0  0
    7.1293   16.2029   15.1798 C   0  0  0  0  0  0  0  0  0  0  0  0
    6.1549   16.7917   20.2177 C   0  0  0  0  0  0  0  0  0  0  0  0
    5.1537   17.6163   20.9691 C   0  0  0  0  0  0  0  0  0  0  0  0
    4.4942   16.7448   21.9120 O   0  0  0  0  0  0  0  0  0  0  0  0
    4.1030   15.9937   21.4391 H   0  0  0  0  0  0  0  0  0  0  0  0
    4.2324   18.2043   19.9011 C   0  0  0  0  0  0  0  0  0  0  0  0
    3.2360   17.0818   17.8879 C   0  0  0  0  0  0  0  0  0  0  0  0
    3.4682   18.0058   17.1048 O   0  0  0  0  0  0  0  0  0  0  0  0
    3.5596   17.0968   19.2050 N   0  0  0  0  0  0  0  0  0  0  0  0
    3.3255   16.3027   19.7379 H   0  0  0  0  0  0  0  0  0  0  0  0
    2.4926   15.8398   17.4307 C   0  0  0  0  0  0  0  0  0  0  0  0
    0.0668   16.1602   17.1575 C   0  0  0  0  0  0  0  0  0  0  0  0
   -0.2329   15.6107   18.2139 O   0  0  0  0  0  0  0  0  0  0  0  0
    1.3127   16.3083   16.7111 N   0  0  0  0  0  0  0  0  0  0  0  0
    1.4453   16.7597   15.8462 H   0  0  0  0  0  0  0  0  0  0  0  0
   -0.6539   17.3470   15.1193 C   0  0  0  0  0  0  0  0  0  0  0  0
   -0.9978   16.6791   16.3399 O   0  0  0  0  0  0  0  0  0  0  0  0
    3.2996   14.8394   16.5790 C   0  0  0  0  0  0  0  0  0  0  0  0
    3.3092   15.2313   15.0972 C   0  0  0  0  0  0  0  0  0  0  0  0
    4.7324   14.7173   17.1034 C   0  0  0  0  0  0  0  0  0  0  0  0
    2.6770   13.4492   16.6381 C   0  0  0  0  0  0  0  0  0  0  0  0
    3.1411   19.0321   20.5891 C   0  0  0  0  0  0  0  0  0  0  0  0
    3.1153   20.4435   20.0386 C   0  0  0  0  0  0  0  0  0  0  0  0
    4.1009   20.8362   19.1248 C   0  0  0  0  0  0  0  0  0  0  0  0
    4.0831   22.1360   18.6153 C   0  0  0  0  0  0  0  0  0  0  0  0
    3.0948   23.0433   19.0087 C   0  0  0  0  0  0  0  0  0  0  0  0
    2.1152   22.6562   19.9229 C   0  0  0  0  0  0  0  0  0  0  0  0
    2.1311   21.3579   20.4378 C   0  0  0  0  0  0  0  0  0  0  0  0
    7.7986   18.4056   20.8665 C   0  0  0  0  0  0  0  0  0  0  0  0
    9.0345   19.1870   20.4941 C   0  0  0  0  0  0  0  0  0  0  0  0
   10.2595   18.5582   20.6583 C   0  0  0  0  0  0  0  0  0  0  0  0
   11.4285   19.2383   20.3333 C   0  0  0  0  0  0  0  0  0  0  0  0
    8.9637   20.4925   20.0155 C   0  0  0  0  0  0  0  0  0  0  0  0
   10.1433   21.1686   19.6816 C   0  0  0  0  0  0  0  0  0  0  0  0
   11.3834   20.5459   19.8466 C   0  0  0  0  0  0  0  0  0  0  0  0
   12.6502   21.2566   19.4783 C   0  0  0  0  0  0  0  0  0  0  0  0
   12.7731   21.8568   18.2203 C   0  0  0  0  0  0  0  0  0  0  0  0
   13.9518   22.5238   17.8920 C   0  0  0  0  0  0  0  0  0  0  0  0
   14.9835   22.5815   18.8272 C   0  0  0  0  0  0  0  0  0  0  0  0
   14.8220   21.9735   20.0723 C   0  0  0  0  0  0  0  0  0  0  0  0
   13.6784   21.3324   20.3640 N   0  0  0  0  0  0  0  0  0  0  0  0
 31 32  1  0  0  0
 32 27  1  0  0  0
 27 28  2  0  0  0
 27 29  1  0  0  0
 29 26  1  0  0  0
 26 33  1  0  0  0
 26 22  1  0  0  0
 33 34  1  0  0  0
 33 35  1  0  0  0
 33 36  1  0  0  0
 22 23  2  0  0  0
 22 24  1  0  0  0
 24 21  1  0  0  0
 21 37  1  0  0  0
 21 18  1  0  0  0
 37 38  1  0  0  0
 38 39  2  0  0  0
 38 43  1  0  0  0
 39 40  1  0  0  0
 40 41  2  0  0  0
 41 42  1  0  0  0
 42 43  2  0  0  0
 18 19  1  0  0  0
 18 17  1  0  0  0
 17  1  1  0  0  0
  1  2  1  0  0  0
  1 44  1  0  0  0
  2  3  1  0  0  0
  3  4  2  0  0  0
  3  6  1  0  0  0
  6 13  1  0  0  0
  6  7  1  0  0  0
 13 14  1  0  0  0
 13 15  1  0  0  0
 13 16  1  0  0  0
  7  8  1  0  0  0
  8  9  2  0  0  0
  8 11  1  0  0  0
 11 12  1  0  0  0
 44 45  1  0  0  0
 45 46  1  0  0  0
 45 48  2  0  0  0
 46 47  2  0  0  0
 47 50  1  0  0  0
 48 49  1  0  0  0
 49 50  2  0  0  0
 50 51  1  0  0  0
 51 52  1  0  0  0
 51 56  2  0  0  0
 52 53  2  0  0  0
 53 54  1  0  0  0
 54 55  2  0  0  0
 55 56  1  0  0  0
 29 30  1  0  0  0
 24 25  1  0  0  0
 19 20  1  0  0  0
  2  5  1  0  0  0
  7 10  1  0  0  0
M  END
> <minimizedAffinity>
-9.03490

$$$$
2O4K_DR7_A_301


 56 58  0  0  0  0  0  0  0  0999 V2000
   17.5374   22.8524   15.5087 N   0  0  0  0  0  0  0  0  0  0  0  0
   16.6498   23.1417   16.5942 N   0  0  0  0  0  0  0  0  0  0  0  0
   16.8890   23.2685   17.9057 C   0  0  0  0  0  0  0  0  0  0  0  0
   17.9838   23.2081   18.4605 O   0  0  0  0  0  0  0  0  0  0  0  0
   15.7088   23.2681   16.3336 H   0  0  0  0  0  0  0  0  0  0  0  0
   15.6261   23.4609   18.7099 C   0  0  0  0  0  0  0  0  0  0  0  0
   15.2187   22.1351   19.1949 N   0  0  0  0  0  0  0  0  0  0  0  0
   14.1381   21.5043   18.7262 C   0  0  0  0  0  0  0  0  0  0  0  0
   13.3794   21.9456   17.8458 O   0  0  0  0  0  0  0  0  0  0  0  0
   15.7609   21.6961   19.8896 H   0  0  0  0  0  0  0  0  0  0  0  0
   13.8715   20.2090   19.2959 O   0  0  0  0  0  0  0  0  0  0  0  0
   12.7462   19.4607   18.8376 C   0  0  0  0  0  0  0  0  0  0  0  0
   15.7013   24.4863   19.8497 C   0  0  0  0  0  0  0  0  0  0  0  0
   15.2195   25.8423   19.3391 C   0  0  0  0  0  0  0  0  0  0  0  0
   14.7772   24.0518   20.9850 C   0  0  0  0  0  0  0  0  0  0  0  0
   17.1037   24.6355   20.4320 C   0  0  0  0  0  0  0  0  0  0  0  0
   18.5036   23.7144   14.8620 C   0  0  0  0  0  0  0  0  0  0  0  0
   18.0721   24.1777   13.5033 C   0  0  0  0  0  0  0  0  0  0  0  0
   19.0278   23.6702   12.5482 O   0  0  0  0  0  0  0  0  0  0  0  0
   19.9187   23.9644   12.7946 H   0  0  0  0  0  0  0  0  0  0  0  0
   18.0191   25.7022   13.5948 C   0  0  0  0  0  0  0  0  0  0  0  0
   19.0297   27.3558   15.1918 C   0  0  0  0  0  0  0  0  0  0  0  0
   18.1976   28.2438   14.9917 O   0  0  0  0  0  0  0  0  0  0  0  0
   19.0167   26.1448   14.5810 N   0  0  0  0  0  0  0  0  0  0  0  0
   19.7325   25.5112   14.8166 H   0  0  0  0  0  0  0  0  0  0  0  0
   20.2039   27.5831   16.1266 C   0  0  0  0  0  0  0  0  0  0  0  0
   21.8112   28.4156   14.4575 C   0  0  0  0  0  0  0  0  0  0  0  0
   21.9436   27.3352   13.8891 O   0  0  0  0  0  0  0  0  0  0  0  0
   21.0239   28.6219   15.5116 N   0  0  0  0  0  0  0  0  0  0  0  0
   20.9934   29.5269   15.8981 H   0  0  0  0  0  0  0  0  0  0  0  0
   23.1291   29.4454   12.6451 C   0  0  0  0  0  0  0  0  0  0  0  0
   22.5581   29.5390   13.9564 O   0  0  0  0  0  0  0  0  0  0  0  0
   19.8527   27.9449   17.5836 C   0  0  0  0  0  0  0  0  0  0  0  0
   19.5192   29.4332   17.7361 C   0  0  0  0  0  0  0  0  0  0  0  0
   18.6890   27.0875   18.0870 C   0  0  0  0  0  0  0  0  0  0  0  0
   21.0370   27.6867   18.5082 C   0  0  0  0  0  0  0  0  0  0  0  0
   18.4303   26.2946   12.2423 C   0  0  0  0  0  0  0  0  0  0  0  0
   17.2233   26.8499   11.5139 C   0  0  0  0  0  0  0  0  0  0  0  0
   17.3876   27.3784   10.2277 C   0  0  0  0  0  0  0  0  0  0  0  0
   16.2793   27.8929    9.5523 C   0  0  0  0  0  0  0  0  0  0  0  0
   15.0140   27.8849   10.1471 C   0  0  0  0  0  0  0  0  0  0  0  0
   14.8488   27.3640   11.4303 C   0  0  0  0  0  0  0  0  0  0  0  0
   15.9553   26.8513   12.1111 C   0  0  0  0  0  0  0  0  0  0  0  0
   17.3892   21.5989   14.7628 C   0  0  0  0  0  0  0  0  0  0  0  0
   16.0009   21.0146   14.8534 C   0  0  0  0  0  0  0  0  0  0  0  0
   15.8439   19.8584   15.6029 C   0  0  0  0  0  0  0  0  0  0  0  0
   14.5845   19.2785   15.7133 C   0  0  0  0  0  0  0  0  0  0  0  0
   14.9141   21.5951   14.2054 C   0  0  0  0  0  0  0  0  0  0  0  0
   13.6473   21.0118   14.3278 C   0  0  0  0  0  0  0  0  0  0  0  0
   13.4782   19.8446   15.0774 C   0  0  0  0  0  0  0  0  0  0  0  0
   12.1235   19.2214   15.2257 C   0  0  0  0  0  0  0  0  0  0  0  0
   11.9413   17.8676   14.9230 C   0  0  0  0  0  0  0  0  0  0  0  0
   10.6793   17.2959   15.0741 C   0  0  0  0  0  0  0  0  0  0  0  0
    9.6247   18.0863   15.5276 C   0  0  0  0  0  0  0  0  0  0  0  0
    9.8468   19.4316   15.8222 C   0  0  0  0  0  0  0  0  0  0  0  0
   11.0709   19.9612   15.6642 N   0  0  0  0  0  0  0  0  0  0  0  0
 31 32  1  0  0  0
 32 27  1  0  0  0
 27 28  2  0  0  0
 27 29  1  0  0  0
 29 26  1  0  0  0
 26 33  1  0  0  0
 26 22  1  0  0  0
 33 34  1  0  0  0
 33 35  1  0  0  0
 33 36  1  0  0  0
 22 23  2  0  0  0
 22 24  1  0  0  0
 24 21  1  0  0  0
 21 37  1  0  0  0
 21 18  1  0  0  0
 37 38  1  0  0  0
 38 39  2  0  0  0
 38 43  1  0  0  0
 39 40  1  0  0  0
 40 41  2  0  0  0
 41 42  1  0  0  0
 42 43  2  0  0  0
 18 19  1  0  0  0
 18 17  1  0  0  0
 17  1  1  0  0  0
  1  2  1  0  0  0
  1 44  1  0  0  0
  2  3  1  0  0  0
  3  4  2  0  0  0
  3  6  1  0  0  0
  6 13  1  0  0  0
  6  7  1  0  0  0
 13 14  1  0  0  0
 13 15  1  0  0  0
 13 16  1  0  0  0
  7  8  1  0  0  0
  8  9  2  0  0  0
  8 11  1  0  0  0
 11 12  1  0  0  0
 44 45  1  0  0  0
 45 46  1  0  0  0
 45 48  2  0  0  0
 46 47  2  0  0  0
 47 50  1  0  0  0
 48 49  1  0  0  0
 49 50  2  0  0  0
 50 51  1  0  0  0
 51 52  1  0  0  0
 51 56  2  0  0  0
 52 53  2  0  0  0
 53 54  1  0  0  0
 54 55  2  0  0  0
 55 56  1  0  0  0
 29 30  1  0  0  0
 24 25  1  0  0  0
 19 20  1  0  0  0
  2  5  1  0  0  0
  7 10  1  0  0  0
M  END
> <minimizedAffinity>
-9.01790

$$$$
2O4K_DR7_A_301


 56 58  0  0  0  0  0  0  0  0999 V2000
   13.9526   20.4430   15.6717 N   0  0  0  0  0  0  0  0  0  0  0  0
   15.0820   21.2231   15.2645 N   0  0  0  0  0  0  0  0  0  0  0  0
   16.2004   20.8672   14.6197 C   0  0  0  0  0  0  0  0  0  0  0  0
   16.4709   19.7513   14.1823 O   0  0  0  0  0  0  0  0  0  0  0  0
   15.0273   22.1783   15.4968 H   0  0  0  0  0  0  0  0  0  0  0  0
   17.1876   22.0029   14.5002 C   0  0  0  0  0  0  0  0  0  0  0  0
   18.4927   21.4070   14.1829 N   0  0  0  0  0  0  0  0  0  0  0  0
   19.5714   21.6020   14.9468 C   0  0  0  0  0  0  0  0  0  0  0  0
   19.5958   22.2806   15.9881 O   0  0  0  0  0  0  0  0  0  0  0  0
   18.5752   20.8443   13.3793 H   0  0  0  0  0  0  0  0  0  0  0  0
   20.7769   20.9475   14.5088 O   0  0  0  0  0  0  0  0  0  0  0  0
   20.9596   20.6728   13.1205 C   0  0  0  0  0  0  0  0  0  0  0  0
   16.8161   23.1193   13.5144 C   0  0  0  0  0  0  0  0  0  0  0  0
   16.9306   24.4700   14.2174 C   0  0  0  0  0  0  0  0  0  0  0  0
   17.7965   23.1096   12.3438 C   0  0  0  0  0  0  0  0  0  0  0  0
   15.4118   22.9683   12.9372 C   0  0  0  0  0  0  0  0  0  0  0  0
   13.6960   19.7978   16.9417 C   0  0  0  0  0  0  0  0  0  0  0  0
   14.7978   19.9899   17.9398 C   0  0  0  0  0  0  0  0  0  0  0  0
   15.2971   18.6821   18.2917 O   0  0  0  0  0  0  0  0  0  0  0  0
   14.5666   18.1344   18.6193 H   0  0  0  0  0  0  0  0  0  0  0  0
   14.1628   20.7566   19.0992 C   0  0  0  0  0  0  0  0  0  0  0  0
   15.3452   22.9125   18.5896 C   0  0  0  0  0  0  0  0  0  0  0  0
   14.9420   23.0017   17.4274 O   0  0  0  0  0  0  0  0  0  0  0  0
   15.0285   21.8982   19.4325 N   0  0  0  0  0  0  0  0  0  0  0  0
   15.4084   21.9284   20.3402 H   0  0  0  0  0  0  0  0  0  0  0  0
   16.3060   23.9383   19.1629 C   0  0  0  0  0  0  0  0  0  0  0  0
   18.2461   24.7071   17.8563 C   0  0  0  0  0  0  0  0  0  0  0  0
   19.0831   24.2696   18.6411 O   0  0  0  0  0  0  0  0  0  0  0  0
   16.9289   24.6012   18.0217 N   0  0  0  0  0  0  0  0  0  0  0  0
   16.3419   24.9924   17.3350 H   0  0  0  0  0  0  0  0  0  0  0  0
   18.8193   26.8136   16.7092 C   0  0  0  0  0  0  0  0  0  0  0  0
   18.7149   25.3845   16.6764 O   0  0  0  0  0  0  0  0  0  0  0  0
   15.6996   24.9674   20.1378 C   0  0  0  0  0  0  0  0  0  0  0  0
   14.7929   24.3005   21.1783 C   0  0  0  0  0  0  0  0  0  0  0  0
   16.8037   25.7675   20.8332 C   0  0  0  0  0  0  0  0  0  0  0  0
   14.8179   25.9652   19.3955 C   0  0  0  0  0  0  0  0  0  0  0  0
   12.8191   21.3310   18.6368 C   0  0  0  0  0  0  0  0  0  0  0  0
   11.6766   20.7045   19.4100 C   0  0  0  0  0  0  0  0  0  0  0  0
   11.8839   19.4818   20.0602 C   0  0  0  0  0  0  0  0  0  0  0  0
   10.8343   18.8990   20.7730 C   0  0  0  0  0  0  0  0  0  0  0  0
    9.5851   19.5230   20.8419 C   0  0  0  0  0  0  0  0  0  0  0  0
    9.3746   20.7383   20.1906 C   0  0  0  0  0  0  0  0  0  0  0  0
   10.4207   21.3233   19.4735 C   0  0  0  0  0  0  0  0  0  0  0  0
   12.9577   20.0300   14.6771 C   0  0  0  0  0  0  0  0  0  0  0  0
   11.8494   19.1881   15.2600 C   0  0  0  0  0  0  0  0  0  0  0  0
   10.8502   19.8467   15.9607 C   0  0  0  0  0  0  0  0  0  0  0  0
    9.8089   19.1144   16.5211 C   0  0  0  0  0  0  0  0  0  0  0  0
   11.8248   17.8033   15.1190 C   0  0  0  0  0  0  0  0  0  0  0  0
   10.7692   17.0727   15.6776 C   0  0  0  0  0  0  0  0  0  0  0  0
    9.7590   17.7256   16.3888 C   0  0  0  0  0  0  0  0  0  0  0  0
    8.6178   16.9533   16.9778 C   0  0  0  0  0  0  0  0  0  0  0  0
    8.4398   16.9204   18.3652 C   0  0  0  0  0  0  0  0  0  0  0  0
    7.3693   16.2073   18.9015 C   0  0  0  0  0  0  0  0  0  0  0  0
    6.4956   15.5437   18.0421 C   0  0  0  0  0  0  0  0  0  0  0  0
    6.7044   15.6028   16.6641 C   0  0  0  0  0  0  0  0  0  0  0  0
    7.7460   16.2927   16.1710 N   0  0  0  0  0  0  0  0  0  0  0  0
 31 32  1  0  0  0
 32 27  1  0  0  0
 27 28  2  0  0  0
 27 29  1  0  0  0
 29 26  1  0  0  0
 26 33  1  0  0  0
 26 22  1  0  0  0
 33 34  1  0  0  0
 33 35  1  0  0  0
 33 36  1  0  0  0
 22 23  2  0  0  0
 22 24  1  0  0  0
 24 21  1  0  0  0
 21 37  1  0  0  0
 21 18  1  0  0  0
 37 38  1  0  0  0
 38 39  2  0  0  0
 38 43  1  0  0  0
 39 40  1  0  0  0
 40 41  2  0  0  0
 41 42  1  0  0  0
 42 43  2  0  0  0
 18 19  1  0  0  0
 18 17  1  0  0  0
 17  1  1  0  0  0
  1  2  1  0  0  0
  1 44  1  0  0  0
  2  3  1  0  0  0
  3  4  2  0  0  0
  3  6  1  0  0  0
  6 13  1  0  0  0
  6  7  1  0  0  0
 13 14  1  0  0  0
 13 15  1  0  0  0
 13 16  1  0  0  0
  7  8  1  0  0  0
  8  9  2  0  0  0
  8 11  1  0  0  0
 11 12  1  0  0  0
 44 45  1  0  0  0
 45 46  1  0  0  0
 45 48  2  0  0  0
 46 47  2  0  0  0
 47 50  1  0  0  0
 48 49  1  0  0  0
 49 50  2  0  0  0
 50 51  1  0  0  0
 51 52  1  0  0  0
 51 56  2  0  0  0
 52 53  2  0  0  0
 53 54  1  0  0  0
 54 55  2  0  0  0
 55 56  1  0  0  0
 29 30  1  0  0  0
 24 25  1  0  0  0
 19 20  1  0  0  0
  2  5  1  0  0  0
  7 10  1  0  0  0
M  END
> <minimizedAffinity>
-9.01235

$$$$
