3SHA_P97_H_1


 30 32  0  0  0  0  0  0  0  0999 V2000
  -17.6507  -13.1358  -22.4474 C   0  0  0  0  0  0  0  0  0  0  0  0
  -16.6723  -12.4972  -22.8217 O   0  0  0  0  0  0  0  0  0  0  0  0
  -18.4470  -12.6560  -21.5066 N   0  0  0  0  0  0  0  0  0  0  0  0
  -18.1242  -11.3665  -20.8956 C   0  0  0  0  0  0  0  0  0  0  0  0
  -19.2172  -11.1315  -19.8566 C   0  0  0  0  0  0  0  0  0  0  0  0
  -20.3170  -12.1393  -20.1744 C   0  0  0  0  0  0  0  0  0  0  0  0
  -19.6405  -13.2811  -20.9227 C   0  0  0  0  0  0  0  0  0  0  0  0
  -16.7524  -15.2727  -23.0595 N   0  0  0  0  0  0  0  0  0  0  0  0
  -17.9720  -14.4806  -23.0535 C   0  0  0  0  0  0  0  0  0  0  0  0
  -16.9439  -16.1886  -23.4655 H   0  0  0  0  0  0  0  0  0  0  0  0
  -16.4172  -15.3881  -22.1031 H   0  0  0  0  0  0  0  0  0  0  0  0
  -18.4846  -14.3796  -24.4926 C   0  0  0  0  0  0  0  0  0  0  0  0
  -19.8578  -13.7436  -24.5694 C   0  0  0  0  0  0  0  0  0  0  0  0
  -20.9815  -14.3656  -24.0284 C   0  0  0  0  0  0  0  0  0  0  0  0
  -20.0282  -12.5295  -25.2160 C   0  0  0  0  0  0  0  0  0  0  0  0
  -22.2302  -13.7527  -24.1288 C   0  0  0  0  0  0  0  0  0  0  0  0
  -21.2726  -11.9095  -25.3078 C   0  0  0  0  0  0  0  0  0  0  0  0
  -22.3963  -12.5295  -24.7656 C   0  0  0  0  0  0  0  0  0  0  0  0
  -16.7607  -11.4347  -20.2521 C   0  0  0  0  0  0  0  0  0  0  0  0
  -16.4846  -12.3031  -19.4228 O   0  0  0  0  0  0  0  0  0  0  0  0
  -15.8551  -10.5388  -20.6597 N   0  0  0  0  0  0  0  0  0  0  0  0
  -16.1167   -9.8835  -21.3463 H   0  0  0  0  0  0  0  0  0  0  0  0
  -14.4898  -10.4906  -20.1282 C   0  0  0  0  0  0  0  0  0  0  0  0
  -13.4717  -10.2720  -21.2240 C   0  0  0  0  0  0  0  0  0  0  0  0
  -13.4481   -9.0840  -21.9498 C   0  0  0  0  0  0  0  0  0  0  0  0
  -12.5422   -8.9006  -22.9197 N   0  0  0  0  0  0  0  0  0  0  0  0
  -11.6335   -9.8365  -23.2267 C   0  0  0  0  0  0  0  0  0  0  0  0
  -11.6126  -11.0412  -22.5397 C   0  0  0  0  0  0  0  0  0  0  0  0
  -12.5515  -11.2366  -21.5387 C   0  0  0  0  0  0  0  0  0  0  0  0
  -12.5383  -12.7626  -20.6279 Cl  0  0  0  0  0  0  0  0  0  0  0  0
 13 12  1  0  0  0
 13 14  2  0  0  0
 13 15  1  0  0  0
 12  9  1  0  0  0
  9  8  1  0  0  0
  9  1  1  0  0  0
  1  3  1  0  0  0
  1  2  2  0  0  0
  3  4  1  0  0  0
  3  7  1  0  0  0
 14 16  1  0  0  0
 16 18  2  0  0  0
 18 17  1  0  0  0
 17 15  2  0  0  0
  4 19  1  0  0  0
  4  5  1  0  0  0
 19 20  2  0  0  0
 19 21  1  0  0  0
 21 23  1  0  0  0
 23 24  1  0  0  0
 24 25  2  0  0  0
 24 29  1  0  0  0
  5  6  1  0  0  0
  6  7  1  0  0  0
 25 26  1  0  0  0
 26 27  2  0  0  0
 27 28  1  0  0  0
 28 29  2  0  0  0
 29 30  1  0  0  0
  8 10  1  0  0  0
  8 11  1  0  0  0
 21 22  1  0  0  0
M  END
> <minimizedAffinity>
-9.37056

$$$$
3SHA_P97_H_1


 30 32  0  0  0  0  0  0  0  0999 V2000
  -17.6597  -12.9921  -22.2727 C   0  0  0  0  0  0  0  0  0  0  0  0
  -16.6865  -12.3110  -22.5795 O   0  0  0  0  0  0  0  0  0  0  0  0
  -18.5244  -12.5607  -21.3697 N   0  0  0  0  0  0  0  0  0  0  0  0
  -18.2846  -11.2729  -20.7181 C   0  0  0  0  0  0  0  0  0  0  0  0
  -19.4417  -11.0988  -19.7383 C   0  0  0  0  0  0  0  0  0  0  0  0
  -20.4837  -12.1391  -20.1358 C   0  0  0  0  0  0  0  0  0  0  0  0
  -19.7245  -13.2403  -20.8654 C   0  0  0  0  0  0  0  0  0  0  0  0
  -16.6432  -15.0726  -22.8941 N   0  0  0  0  0  0  0  0  0  0  0  0
  -17.8963  -14.3351  -22.9203 C   0  0  0  0  0  0  0  0  0  0  0  0
  -16.7774  -15.9863  -23.3273 H   0  0  0  0  0  0  0  0  0  0  0  0
  -16.3412  -15.1956  -21.9276 H   0  0  0  0  0  0  0  0  0  0  0  0
  -18.3557  -14.2229  -24.3764 C   0  0  0  0  0  0  0  0  0  0  0  0
  -19.7674  -13.6848  -24.4930 C   0  0  0  0  0  0  0  0  0  0  0  0
  -20.8632  -14.4004  -24.0140 C   0  0  0  0  0  0  0  0  0  0  0  0
  -20.0002  -12.4683  -25.1153 C   0  0  0  0  0  0  0  0  0  0  0  0
  -22.1482  -13.8758  -24.1497 C   0  0  0  0  0  0  0  0  0  0  0  0
  -21.2819  -11.9365  -25.2420 C   0  0  0  0  0  0  0  0  0  0  0  0
  -22.3777  -12.6502  -24.7618 C   0  0  0  0  0  0  0  0  0  0  0  0
  -16.9574  -11.3047  -20.0000 C   0  0  0  0  0  0  0  0  0  0  0  0
  -16.3259  -10.2717  -19.7714 O   0  0  0  0  0  0  0  0  0  0  0  0
  -16.5246  -12.4997  -19.5835 N   0  0  0  0  0  0  0  0  0  0  0  0
  -17.0803  -13.2917  -19.7657 H   0  0  0  0  0  0  0  0  0  0  0  0
  -15.2584  -12.6811  -18.8674 C   0  0  0  0  0  0  0  0  0  0  0  0
  -14.2509  -13.4416  -19.6990 C   0  0  0  0  0  0  0  0  0  0  0  0
  -14.3060  -14.8296  -19.7940 C   0  0  0  0  0  0  0  0  0  0  0  0
  -13.4076  -15.4942  -20.5330 N   0  0  0  0  0  0  0  0  0  0  0  0
  -12.4345  -14.8619  -21.2031 C   0  0  0  0  0  0  0  0  0  0  0  0
  -12.3283  -13.4804  -21.1417 C   0  0  0  0  0  0  0  0  0  0  0  0
  -13.2532  -12.7896  -20.3741 C   0  0  0  0  0  0  0  0  0  0  0  0
  -13.1546  -11.0171  -20.2905 Cl  0  0  0  0  0  0  0  0  0  0  0  0
 13 12  1  0  0  0
 13 14  2  0  0  0
 13 15  1  0  0  0
 12  9  1  0  0  0
  9  8  1  0  0  0
  9  1  1  0  0  0
  1  3  1  0  0  0
  1  2  2  0  0  0
  3  4  1  0  0  0
  3  7  1  0  0  0
 14 16  1  0  0  0
 16 18  2  0  0  0
 18 17  1  0  0  0
 17 15  2  0  0  0
  4 19  1  0  0  0
  4  5  1  0  0  0
 19 20  2  0  0  0
 19 21  1  0  0  0
 21 23  1  0  0  0
 23 24  1  0  0  0
 24 25  2  0  0  0
 24 29  1  0  0  0
  5  6  1  0  0  0
  6  7  1  0  0  0
 25 26  1  0  0  0
 26 27  2  0  0  0
 27 28  1  0  0  0
 28 29  2  0  0  0
 29 30  1  0  0  0
  8 10  1  0  0  0
  8 11  1  0  0  0
 21 22  1  0  0  0
M  END
> <minimizedAffinity>
-8.16243

$$$$
3SHA_P97_H_1


 30 32  0  0  0  0  0  0  0  0999 V2000
  -17.4271  -12.5691  -20.4341 C   0  0  0  0  0  0  0  0  0  0  0  0
  -17.3475  -12.0895  -19.3077 O   0  0  0  0  0  0  0  0  0  0  0  0
  -16.7001  -13.6218  -20.7695 N   0  0  0  0  0  0  0  0  0  0  0  0
  -15.7747  -14.1855  -19.7866 C   0  0  0  0  0  0  0  0  0  0  0  0
  -15.0962  -15.3523  -20.4991 C   0  0  0  0  0  0  0  0  0  0  0  0
  -15.9308  -15.6195  -21.7474 C   0  0  0  0  0  0  0  0  0  0  0  0
  -16.6478  -14.3130  -22.0640 C   0  0  0  0  0  0  0  0  0  0  0  0
  -18.5685  -10.5755  -21.1202 N   0  0  0  0  0  0  0  0  0  0  0  0
  -18.3585  -11.9733  -21.4620 C   0  0  0  0  0  0  0  0  0  0  0  0
  -19.1963  -10.1494  -21.8019 H   0  0  0  0  0  0  0  0  0  0  0  0
  -17.6741  -10.0853  -21.1288 H   0  0  0  0  0  0  0  0  0  0  0  0
  -19.7230  -12.6663  -21.5039 C   0  0  0  0  0  0  0  0  0  0  0  0
  -20.3292  -12.6566  -22.8926 C   0  0  0  0  0  0  0  0  0  0  0  0
  -21.7075  -12.5871  -23.0869 C   0  0  0  0  0  0  0  0  0  0  0  0
  -19.5137  -12.7498  -24.0096 C   0  0  0  0  0  0  0  0  0  0  0  0
  -22.2273  -12.5912  -24.3810 C   0  0  0  0  0  0  0  0  0  0  0  0
  -20.0297  -12.7426  -25.3039 C   0  0  0  0  0  0  0  0  0  0  0  0
  -21.4072  -12.6712  -25.4992 C   0  0  0  0  0  0  0  0  0  0  0  0
  -14.7711  -13.1372  -19.3719 C   0  0  0  0  0  0  0  0  0  0  0  0
  -14.3986  -13.0318  -18.2022 O   0  0  0  0  0  0  0  0  0  0  0  0
  -14.2721  -12.3622  -20.3410 N   0  0  0  0  0  0  0  0  0  0  0  0
  -14.5808  -12.5056  -21.2647 H   0  0  0  0  0  0  0  0  0  0  0  0
  -13.2852  -11.3085  -20.0869 C   0  0  0  0  0  0  0  0  0  0  0  0
  -12.6800  -10.7892  -21.3711 C   0  0  0  0  0  0  0  0  0  0  0  0
  -11.7960  -11.5704  -22.1106 C   0  0  0  0  0  0  0  0  0  0  0  0
  -11.2644  -11.1004  -23.2471 N   0  0  0  0  0  0  0  0  0  0  0  0
  -11.5573   -9.8790  -23.7143 C   0  0  0  0  0  0  0  0  0  0  0  0
  -12.4284   -9.0553  -23.0171 C   0  0  0  0  0  0  0  0  0  0  0  0
  -12.9768   -9.5362  -21.8382 C   0  0  0  0  0  0  0  0  0  0  0  0
  -14.1109   -8.5112  -20.9318 Cl  0  0  0  0  0  0  0  0  0  0  0  0
 13 12  1  0  0  0
 13 14  2  0  0  0
 13 15  1  0  0  0
 12  9  1  0  0  0
  9  8  1  0  0  0
  9  1  1  0  0  0
  1  3  1  0  0  0
  1  2  2  0  0  0
  3  4  1  0  0  0
  3  7  1  0  0  0
 14 16  1  0  0  0
 16 18  2  0  0  0
 18 17  1  0  0  0
 17 15  2  0  0  0
  4 19  1  0  0  0
  4  5  1  0  0  0
 19 20  2  0  0  0
 19 21  1  0  0  0
 21 23  1  0  0  0
 23 24  1  0  0  0
 24 25  2  0  0  0
 24 29  1  0  0  0
  5  6  1  0  0  0
  6  7  1  0  0  0
 25 26  1  0  0  0
 26 27  2  0  0  0
 27 28  1  0  0  0
 28 29  2  0  0  0
 29 30  1  0  0  0
  8 10  1  0  0  0
  8 11  1  0  0  0
 21 22  1  0  0  0
M  END
> <minimizedAffinity>
-8.00264

$$$$
3SHA_P97_H_1


 30 32  0  0  0  0  0  0  0  0999 V2000
  -17.4148  -13.2783  -21.2245 C   0  0  0  0  0  0  0  0  0  0  0  0
  -16.9980  -13.0539  -20.0927 O   0  0  0  0  0  0  0  0  0  0  0  0
  -17.0590  -14.3788  -21.8660 N   0  0  0  0  0  0  0  0  0  0  0  0
  -16.1342  -15.3087  -21.2177 C   0  0  0  0  0  0  0  0  0  0  0  0
  -15.9269  -16.4351  -22.2265 C   0  0  0  0  0  0  0  0  0  0  0  0
  -17.0288  -16.2690  -23.2679 C   0  0  0  0  0  0  0  0  0  0  0  0
  -17.4376  -14.8020  -23.2202 C   0  0  0  0  0  0  0  0  0  0  0  0
  -18.1841  -11.0082  -21.2777 N   0  0  0  0  0  0  0  0  0  0  0  0
  -18.3460  -12.3077  -21.9100 C   0  0  0  0  0  0  0  0  0  0  0  0
  -18.8046  -10.3330  -21.7245 H   0  0  0  0  0  0  0  0  0  0  0  0
  -17.2171  -10.6995  -21.3778 H   0  0  0  0  0  0  0  0  0  0  0  0
  -19.8180  -12.7139  -21.8000 C   0  0  0  0  0  0  0  0  0  0  0  0
  -20.5304  -12.6574  -23.1361 C   0  0  0  0  0  0  0  0  0  0  0  0
  -19.8348  -12.4517  -24.3261 C   0  0  0  0  0  0  0  0  0  0  0  0
  -21.9098  -12.7797  -23.1960 C   0  0  0  0  0  0  0  0  0  0  0  0
  -20.5281  -12.3953  -25.5348 C   0  0  0  0  0  0  0  0  0  0  0  0
  -22.6039  -12.7352  -24.4034 C   0  0  0  0  0  0  0  0  0  0  0  0
  -21.9092  -12.5315  -25.5937 C   0  0  0  0  0  0  0  0  0  0  0  0
  -14.8362  -14.6035  -20.9082 C   0  0  0  0  0  0  0  0  0  0  0  0
  -14.1829  -14.8741  -19.8992 O   0  0  0  0  0  0  0  0  0  0  0  0
  -14.4073  -13.7073  -21.8037 N   0  0  0  0  0  0  0  0  0  0  0  0
  -14.9517  -13.5479  -22.6083 H   0  0  0  0  0  0  0  0  0  0  0  0
  -13.1618  -12.9522  -21.6386 C   0  0  0  0  0  0  0  0  0  0  0  0
  -13.4235  -11.4721  -21.4781 C   0  0  0  0  0  0  0  0  0  0  0  0
  -14.4297  -11.0127  -20.6325 C   0  0  0  0  0  0  0  0  0  0  0  0
  -14.6541   -9.6987  -20.4981 N   0  0  0  0  0  0  0  0  0  0  0  0
  -13.9304   -8.7850  -21.1593 C   0  0  0  0  0  0  0  0  0  0  0  0
  -12.9179   -9.1849  -22.0186 C   0  0  0  0  0  0  0  0  0  0  0  0
  -12.6858  -10.5438  -22.1641 C   0  0  0  0  0  0  0  0  0  0  0  0
  -11.3829  -11.0870  -23.2439 Cl  0  0  0  0  0  0  0  0  0  0  0  0
 13 12  1  0  0  0
 13 14  2  0  0  0
 13 15  1  0  0  0
 12  9  1  0  0  0
  9  8  1  0  0  0
  9  1  1  0  0  0
  1  3  1  0  0  0
  1  2  2  0  0  0
  3  4  1  0  0  0
  3  7  1  0  0  0
 14 16  1  0  0  0
 16 18  2  0  0  0
 18 17  1  0  0  0
 17 15  2  0  0  0
  4 19  1  0  0  0
  4  5  1  0  0  0
 19 20  2  0  0  0
 19 21  1  0  0  0
 21 23  1  0  0  0
 23 24  1  0  0  0
 24 25  2  0  0  0
 24 29  1  0  0  0
  5  6  1  0  0  0
  6  7  1  0  0  0
 25 26  1  0  0  0
 26 27  2  0  0  0
 27 28  1  0  0  0
 28 29  2  0  0  0
 29 30  1  0  0  0
  8 10  1  0  0  0
  8 11  1  0  0  0
 21 22  1  0  0  0
M  END
> <minimizedAffinity>
-7.91845

$$$$
3SHA_P97_H_1


 30 32  0  0  0  0  0  0  0  0999 V2000
  -14.3278  -11.9484  -20.8752 C   0  0  0  0  0  0  0  0  0  0  0  0
  -15.3902  -11.7293  -21.4482 O   0  0  0  0  0  0  0  0  0  0  0  0
  -13.8186  -13.1687  -20.8466 N   0  0  0  0  0  0  0  0  0  0  0  0
  -14.5586  -14.2598  -21.4807 C   0  0  0  0  0  0  0  0  0  0  0  0
  -13.7111  -15.5072  -21.2461 C   0  0  0  0  0  0  0  0  0  0  0  0
  -12.3449  -15.0029  -20.7930 C   0  0  0  0  0  0  0  0  0  0  0  0
  -12.5809  -13.6202  -20.1981 C   0  0  0  0  0  0  0  0  0  0  0  0
  -14.1538  -10.6403  -18.8735 N   0  0  0  0  0  0  0  0  0  0  0  0
  -13.5745  -10.8317  -20.1936 C   0  0  0  0  0  0  0  0  0  0  0  0
  -13.6606   -9.8888  -18.3915 H   0  0  0  0  0  0  0  0  0  0  0  0
  -14.0677  -11.5030  -18.3361 H   0  0  0  0  0  0  0  0  0  0  0  0
  -13.6605   -9.5042  -20.9514 C   0  0  0  0  0  0  0  0  0  0  0  0
  -12.7710   -9.4848  -22.1779 C   0  0  0  0  0  0  0  0  0  0  0  0
  -12.7295   -8.3846  -23.0323 C   0  0  0  0  0  0  0  0  0  0  0  0
  -11.9953  -10.5894  -22.4936 C   0  0  0  0  0  0  0  0  0  0  0  0
  -11.9055   -8.4096  -24.1571 C   0  0  0  0  0  0  0  0  0  0  0  0
  -11.1625  -10.6126  -23.6104 C   0  0  0  0  0  0  0  0  0  0  0  0
  -11.1189   -9.5125  -24.4641 C   0  0  0  0  0  0  0  0  0  0  0  0
  -15.9190  -14.3922  -20.8407 C   0  0  0  0  0  0  0  0  0  0  0  0
  -16.0433  -14.6909  -19.6519 O   0  0  0  0  0  0  0  0  0  0  0  0
  -16.9781  -14.1238  -21.6123 N   0  0  0  0  0  0  0  0  0  0  0  0
  -16.8243  -13.8611  -22.5485 H   0  0  0  0  0  0  0  0  0  0  0  0
  -18.3579  -14.2039  -21.1240 C   0  0  0  0  0  0  0  0  0  0  0  0
  -19.3564  -13.9265  -22.2245 C   0  0  0  0  0  0  0  0  0  0  0  0
  -19.3090  -14.6298  -23.4252 C   0  0  0  0  0  0  0  0  0  0  0  0
  -20.1981  -14.3756  -24.3947 N   0  0  0  0  0  0  0  0  0  0  0  0
  -21.1568  -13.4502  -24.2520 C   0  0  0  0  0  0  0  0  0  0  0  0
  -21.2495  -12.7160  -23.0790 C   0  0  0  0  0  0  0  0  0  0  0  0
  -20.3282  -12.9727  -22.0753 C   0  0  0  0  0  0  0  0  0  0  0  0
  -20.4324  -12.0613  -20.5533 Cl  0  0  0  0  0  0  0  0  0  0  0  0
 13 12  1  0  0  0
 13 14  2  0  0  0
 13 15  1  0  0  0
 12  9  1  0  0  0
  9  8  1  0  0  0
  9  1  1  0  0  0
  1  3  1  0  0  0
  1  2  2  0  0  0
  3  4  1  0  0  0
  3  7  1  0  0  0
 14 16  1  0  0  0
 16 18  2  0  0  0
 18 17  1  0  0  0
 17 15  2  0  0  0
  4 19  1  0  0  0
  4  5  1  0  0  0
 19 20  2  0  0  0
 19 21  1  0  0  0
 21 23  1  0  0  0
 23 24  1  0  0  0
 24 25  2  0  0  0
 24 29  1  0  0  0
  5  6  1  0  0  0
  6  7  1  0  0  0
 25 26  1  0  0  0
 26 27  2  0  0  0
 27 28  1  0  0  0
 28 29  2  0  0  0
 29 30  1  0  0  0
  8 10  1  0  0  0
  8 11  1  0  0  0
 21 22  1  0  0  0
M  END
> <minimizedAffinity>
-7.71067

$$$$
3SHA_P97_H_1


 30 32  0  0  0  0  0  0  0  0999 V2000
  -14.8014  -11.7477  -21.4224 C   0  0  0  0  0  0  0  0  0  0  0  0
  -15.0114  -12.9477  -21.5668 O   0  0  0  0  0  0  0  0  0  0  0  0
  -13.6498  -11.2167  -21.7980 N   0  0  0  0  0  0  0  0  0  0  0  0
  -12.6172  -12.0887  -22.3582 C   0  0  0  0  0  0  0  0  0  0  0  0
  -11.4365  -11.1693  -22.6577 C   0  0  0  0  0  0  0  0  0  0  0  0
  -11.9857   -9.7485  -22.5818 C   0  0  0  0  0  0  0  0  0  0  0  0
  -13.2159   -9.8183  -21.6856 C   0  0  0  0  0  0  0  0  0  0  0  0
  -15.1727   -9.7374  -20.1697 N   0  0  0  0  0  0  0  0  0  0  0  0
  -15.8521  -10.8481  -20.8175 C   0  0  0  0  0  0  0  0  0  0  0  0
  -15.8632   -9.1135  -19.7521 H   0  0  0  0  0  0  0  0  0  0  0  0
  -14.6248   -9.2246  -20.8604 H   0  0  0  0  0  0  0  0  0  0  0  0
  -16.7149  -11.5580  -19.7708 C   0  0  0  0  0  0  0  0  0  0  0  0
  -18.1302  -11.7940  -20.2581 C   0  0  0  0  0  0  0  0  0  0  0  0
  -18.3880  -12.4303  -21.4709 C   0  0  0  0  0  0  0  0  0  0  0  0
  -19.2082  -11.3468  -19.5103 C   0  0  0  0  0  0  0  0  0  0  0  0
  -19.7048  -12.6194  -21.8896 C   0  0  0  0  0  0  0  0  0  0  0  0
  -20.5250  -11.5447  -19.9206 C   0  0  0  0  0  0  0  0  0  0  0  0
  -20.7838  -12.1822  -21.1320 C   0  0  0  0  0  0  0  0  0  0  0  0
  -12.2451  -13.1497  -21.3513 C   0  0  0  0  0  0  0  0  0  0  0  0
  -11.8924  -12.8548  -20.2082 O   0  0  0  0  0  0  0  0  0  0  0  0
  -12.3622  -14.4228  -21.7443 N   0  0  0  0  0  0  0  0  0  0  0  0
  -12.6760  -14.6064  -22.6592 H   0  0  0  0  0  0  0  0  0  0  0  0
  -12.0432  -15.5566  -20.8715 C   0  0  0  0  0  0  0  0  0  0  0  0
  -13.2394  -16.4582  -20.6684 C   0  0  0  0  0  0  0  0  0  0  0  0
  -13.5226  -17.4820  -21.5685 C   0  0  0  0  0  0  0  0  0  0  0  0
  -14.5859  -18.2751  -21.3798 N   0  0  0  0  0  0  0  0  0  0  0  0
  -15.4078  -18.1208  -20.3327 C   0  0  0  0  0  0  0  0  0  0  0  0
  -15.1771  -17.1149  -19.4062 C   0  0  0  0  0  0  0  0  0  0  0  0
  -14.0806  -16.2891  -19.6006 C   0  0  0  0  0  0  0  0  0  0  0  0
  -13.7479  -15.0027  -18.4206 Cl  0  0  0  0  0  0  0  0  0  0  0  0
 13 12  1  0  0  0
 13 14  2  0  0  0
 13 15  1  0  0  0
 12  9  1  0  0  0
  9  8  1  0  0  0
  9  1  1  0  0  0
  1  3  1  0  0  0
  1  2  2  0  0  0
  3  4  1  0  0  0
  3  7  1  0  0  0
 14 16  1  0  0  0
 16 18  2  0  0  0
 18 17  1  0  0  0
 17 15  2  0  0  0
  4 19  1  0  0  0
  4  5  1  0  0  0
 19 20  2  0  0  0
 19 21  1  0  0  0
 21 23  1  0  0  0
 23 24  1  0  0  0
 24 25  2  0  0  0
 24 29  1  0  0  0
  5  6  1  0  0  0
  6  7  1  0  0  0
 25 26  1  0  0  0
 26 27  2  0  0  0
 27 28  1  0  0  0
 28 29  2  0  0  0
 29 30  1  0  0  0
  8 10  1  0  0  0
  8 11  1  0  0  0
 21 22  1  0  0  0
M  END
> <minimizedAffinity>
-7.59102

$$$$
3SHA_P97_H_1


 30 32  0  0  0  0  0  0  0  0999 V2000
  -17.1167  -13.9719  -21.4935 C   0  0  0  0  0  0  0  0  0  0  0  0
  -16.5182  -12.9573  -21.1509 O   0  0  0  0  0  0  0  0  0  0  0  0
  -16.8948  -15.1227  -20.8806 N   0  0  0  0  0  0  0  0  0  0  0  0
  -15.8999  -15.1741  -19.8092 C   0  0  0  0  0  0  0  0  0  0  0  0
  -15.8841  -16.6286  -19.3474 C   0  0  0  0  0  0  0  0  0  0  0  0
  -17.1348  -17.2675  -19.9420 C   0  0  0  0  0  0  0  0  0  0  0  0
  -17.4960  -16.4322  -21.1639 C   0  0  0  0  0  0  0  0  0  0  0  0
  -17.4413  -14.3152  -23.8440 N   0  0  0  0  0  0  0  0  0  0  0  0
  -18.1230  -13.9311  -22.6182 C   0  0  0  0  0  0  0  0  0  0  0  0
  -18.1019  -14.2953  -24.6209 H   0  0  0  0  0  0  0  0  0  0  0  0
  -17.0642  -15.2575  -23.7424 H   0  0  0  0  0  0  0  0  0  0  0  0
  -18.7320  -12.5416  -22.8240 C   0  0  0  0  0  0  0  0  0  0  0  0
  -20.0338  -12.5945  -23.5978 C   0  0  0  0  0  0  0  0  0  0  0  0
  -21.2468  -12.8671  -22.9680 C   0  0  0  0  0  0  0  0  0  0  0  0
  -20.0369  -12.4009  -24.9703 C   0  0  0  0  0  0  0  0  0  0  0  0
  -22.4221  -12.9176  -23.7170 C   0  0  0  0  0  0  0  0  0  0  0  0
  -21.2112  -12.4394  -25.7193 C   0  0  0  0  0  0  0  0  0  0  0  0
  -22.4244  -12.7100  -25.0904 C   0  0  0  0  0  0  0  0  0  0  0  0
  -14.5528  -14.7535  -20.3444 C   0  0  0  0  0  0  0  0  0  0  0  0
  -14.0375  -15.3241  -21.3072 O   0  0  0  0  0  0  0  0  0  0  0  0
  -13.9694  -13.7043  -19.7547 N   0  0  0  0  0  0  0  0  0  0  0  0
  -14.4358  -13.2646  -19.0074 H   0  0  0  0  0  0  0  0  0  0  0  0
  -12.6656  -13.1810  -20.1729 C   0  0  0  0  0  0  0  0  0  0  0  0
  -12.8002  -11.8606  -20.8964 C   0  0  0  0  0  0  0  0  0  0  0  0
  -12.2924  -11.6962  -22.1824 C   0  0  0  0  0  0  0  0  0  0  0  0
  -12.4161  -10.5214  -22.8146 N   0  0  0  0  0  0  0  0  0  0  0  0
  -13.0257   -9.4719  -22.2465 C   0  0  0  0  0  0  0  0  0  0  0  0
  -13.5468   -9.5765  -20.9654 C   0  0  0  0  0  0  0  0  0  0  0  0
  -13.4165  -10.7890  -20.3062 C   0  0  0  0  0  0  0  0  0  0  0  0
  -14.0905  -10.9599  -18.6707 Cl  0  0  0  0  0  0  0  0  0  0  0  0
 13 12  1  0  0  0
 13 14  2  0  0  0
 13 15  1  0  0  0
 12  9  1  0  0  0
  9  8  1  0  0  0
  9  1  1  0  0  0
  1  3  1  0  0  0
  1  2  2  0  0  0
  3  4  1  0  0  0
  3  7  1  0  0  0
 14 16  1  0  0  0
 16 18  2  0  0  0
 18 17  1  0  0  0
 17 15  2  0  0  0
  4 19  1  0  0  0
  4  5  1  0  0  0
 19 20  2  0  0  0
 19 21  1  0  0  0
 21 23  1  0  0  0
 23 24  1  0  0  0
 24 25  2  0  0  0
 24 29  1  0  0  0
  5  6  1  0  0  0
  6  7  1  0  0  0
 25 26  1  0  0  0
 26 27  2  0  0  0
 27 28  1  0  0  0
 28 29  2  0  0  0
 29 30  1  0  0  0
  8 10  1  0  0  0
  8 11  1  0  0  0
 21 22  1  0  0  0
M  END
> <minimizedAffinity>
-7.36478

$$$$
3SHA_P97_H_1


 30 32  0  0  0  0  0  0  0  0999 V2000
  -17.8586  -14.0069  -21.8085 C   0  0  0  0  0  0  0  0  0  0  0  0
  -17.6591  -14.1977  -20.6132 O   0  0  0  0  0  0  0  0  0  0  0  0
  -17.5193  -14.9218  -22.7013 N   0  0  0  0  0  0  0  0  0  0  0  0
  -16.8719  -16.1515  -22.2440 C   0  0  0  0  0  0  0  0  0  0  0  0
  -16.6044  -16.9579  -23.5118 C   0  0  0  0  0  0  0  0  0  0  0  0
  -17.4384  -16.3009  -24.6066 C   0  0  0  0  0  0  0  0  0  0  0  0
  -17.6609  -14.8608  -24.1616 C   0  0  0  0  0  0  0  0  0  0  0  0
  -18.0156  -11.6413  -21.4509 N   0  0  0  0  0  0  0  0  0  0  0  0
  -18.4994  -12.7270  -22.2888 C   0  0  0  0  0  0  0  0  0  0  0  0
  -18.4353  -10.7632  -21.7563 H   0  0  0  0  0  0  0  0  0  0  0  0
  -17.0005  -11.5782  -21.5288 H   0  0  0  0  0  0  0  0  0  0  0  0
  -20.0276  -12.7552  -22.2012 C   0  0  0  0  0  0  0  0  0  0  0  0
  -20.6778  -12.9073  -23.5614 C   0  0  0  0  0  0  0  0  0  0  0  0
  -21.5173  -13.9807  -23.8533 C   0  0  0  0  0  0  0  0  0  0  0  0
  -20.4203  -11.9851  -24.5637 C   0  0  0  0  0  0  0  0  0  0  0  0
  -22.0883  -14.0909  -25.1208 C   0  0  0  0  0  0  0  0  0  0  0  0
  -20.9985  -12.0866  -25.8274 C   0  0  0  0  0  0  0  0  0  0  0  0
  -21.8393  -13.1582  -26.1196 C   0  0  0  0  0  0  0  0  0  0  0  0
  -15.5875  -15.8146  -21.5265 C   0  0  0  0  0  0  0  0  0  0  0  0
  -15.2624  -16.3905  -20.4870 O   0  0  0  0  0  0  0  0  0  0  0  0
  -14.7995  -14.8972  -22.0977 N   0  0  0  0  0  0  0  0  0  0  0  0
  -15.0909  -14.4870  -22.9439 H   0  0  0  0  0  0  0  0  0  0  0  0
  -13.5204  -14.4763  -21.5182 C   0  0  0  0  0  0  0  0  0  0  0  0
  -13.5023  -12.9939  -21.2232 C   0  0  0  0  0  0  0  0  0  0  0  0
  -13.1743  -12.0728  -22.2144 C   0  0  0  0  0  0  0  0  0  0  0  0
  -13.1603  -10.7610  -21.9424 N   0  0  0  0  0  0  0  0  0  0  0  0
  -13.4582  -10.2867  -20.7249 C   0  0  0  0  0  0  0  0  0  0  0  0
  -13.7881  -11.1581  -19.6976 C   0  0  0  0  0  0  0  0  0  0  0  0
  -13.7991  -12.5165  -19.9740 C   0  0  0  0  0  0  0  0  0  0  0  0
  -14.2359  -13.6572  -18.6832 Cl  0  0  0  0  0  0  0  0  0  0  0  0
 13 12  1  0  0  0
 13 14  2  0  0  0
 13 15  1  0  0  0
 12  9  1  0  0  0
  9  8  1  0  0  0
  9  1  1  0  0  0
  1  3  1  0  0  0
  1  2  2  0  0  0
  3  4  1  0  0  0
  3  7  1  0  0  0
 14 16  1  0  0  0
 16 18  2  0  0  0
 18 17  1  0  0  0
 17 15  2  0  0  0
  4 19  1  0  0  0
  4  5  1  0  0  0
 19 20  2  0  0  0
 19 21  1  0  0  0
 21 23  1  0  0  0
 23 24  1  0  0  0
 24 25  2  0  0  0
 24 29  1  0  0  0
  5  6  1  0  0  0
  6  7  1  0  0  0
 25 26  1  0  0  0
 26 27  2  0  0  0
 27 28  1  0  0  0
 28 29  2  0  0  0
 29 30  1  0  0  0
  8 10  1  0  0  0
  8 11  1  0  0  0
 21 22  1  0  0  0
M  END
> <minimizedAffinity>
-7.05298

$$$$
3SHA_P97_H_1


 30 32  0  0  0  0  0  0  0  0999 V2000
  -14.2733  -13.2400  -21.0950 C   0  0  0  0  0  0  0  0  0  0  0  0
  -14.1084  -14.3802  -20.6733 O   0  0  0  0  0  0  0  0  0  0  0  0
  -15.3664  -12.5614  -20.7886 N   0  0  0  0  0  0  0  0  0  0  0  0
  -16.3914  -13.2038  -19.9658 C   0  0  0  0  0  0  0  0  0  0  0  0
  -17.5014  -12.1656  -19.8268 C   0  0  0  0  0  0  0  0  0  0  0  0
  -16.8945  -10.8437  -20.2854 C   0  0  0  0  0  0  0  0  0  0  0  0
  -15.7425  -11.2071  -21.2138 C   0  0  0  0  0  0  0  0  0  0  0  0
  -12.1835  -13.5566  -22.2265 N   0  0  0  0  0  0  0  0  0  0  0  0
  -13.2324  -12.5829  -21.9689 C   0  0  0  0  0  0  0  0  0  0  0  0
  -11.4661  -13.1354  -22.8167 H   0  0  0  0  0  0  0  0  0  0  0  0
  -12.5812  -14.3673  -22.7009 H   0  0  0  0  0  0  0  0  0  0  0  0
  -12.5948  -11.3535  -21.3162 C   0  0  0  0  0  0  0  0  0  0  0  0
  -12.3810  -10.2249  -22.3044 C   0  0  0  0  0  0  0  0  0  0  0  0
  -11.4562  -10.3285  -23.3419 C   0  0  0  0  0  0  0  0  0  0  0  0
  -13.0891   -9.0405  -22.1734 C   0  0  0  0  0  0  0  0  0  0  0  0
  -11.2809   -9.2633  -24.2247 C   0  0  0  0  0  0  0  0  0  0  0  0
  -12.9242   -7.9790  -23.0609 C   0  0  0  0  0  0  0  0  0  0  0  0
  -12.0014   -8.0823  -24.0994 C   0  0  0  0  0  0  0  0  0  0  0  0
  -16.8895  -14.4511  -20.6543 C   0  0  0  0  0  0  0  0  0  0  0  0
  -16.9924  -15.5204  -20.0509 O   0  0  0  0  0  0  0  0  0  0  0  0
  -17.2574  -14.3283  -21.9343 N   0  0  0  0  0  0  0  0  0  0  0  0
  -17.1831  -13.4452  -22.3631 H   0  0  0  0  0  0  0  0  0  0  0  0
  -17.7665  -15.4519  -22.7263 C   0  0  0  0  0  0  0  0  0  0  0  0
  -19.2022  -15.2338  -23.1459 C   0  0  0  0  0  0  0  0  0  0  0  0
  -20.2532  -15.7294  -22.3790 C   0  0  0  0  0  0  0  0  0  0  0  0
  -21.5223  -15.5314  -22.7602 N   0  0  0  0  0  0  0  0  0  0  0  0
  -21.8296  -14.8572  -23.8768 C   0  0  0  0  0  0  0  0  0  0  0  0
  -20.8235  -14.3444  -24.6821 C   0  0  0  0  0  0  0  0  0  0  0  0
  -19.5090  -14.5514  -24.2934 C   0  0  0  0  0  0  0  0  0  0  0  0
  -18.1978  -13.8906  -25.2947 Cl  0  0  0  0  0  0  0  0  0  0  0  0
 13 12  1  0  0  0
 13 14  2  0  0  0
 13 15  1  0  0  0
 12  9  1  0  0  0
  9  8  1  0  0  0
  9  1  1  0  0  0
  1  3  1  0  0  0
  1  2  2  0  0  0
  3  4  1  0  0  0
  3  7  1  0  0  0
 14 16  1  0  0  0
 16 18  2  0  0  0
 18 17  1  0  0  0
 17 15  2  0  0  0
  4 19  1  0  0  0
  4  5  1  0  0  0
 19 20  2  0  0  0
 19 21  1  0  0  0
 21 23  1  0  0  0
 23 24  1  0  0  0
 24 25  2  0  0  0
 24 29  1  0  0  0
  5  6  1  0  0  0
  6  7  1  0  0  0
 25 26  1  0  0  0
 26 27  2  0  0  0
 27 28  1  0  0  0
 28 29  2  0  0  0
 29 30  1  0  0  0
  8 10  1  0  0  0
  8 11  1  0  0  0
 21 22  1  0  0  0
M  END
> <minimizedAffinity>
-6.83973

$$$$
3SHA_P97_H_1


 30 32  0  0  0  0  0  0  0  0999 V2000
  -17.0147  -12.9692  -22.0257 C   0  0  0  0  0  0  0  0  0  0  0  0
  -16.4838  -12.7496  -23.1096 O   0  0  0  0  0  0  0  0  0  0  0  0
  -16.6464  -12.2966  -20.9481 N   0  0  0  0  0  0  0  0  0  0  0  0
  -15.5727  -11.3095  -21.0621 C   0  0  0  0  0  0  0  0  0  0  0  0
  -15.3938  -10.7486  -19.6540 C   0  0  0  0  0  0  0  0  0  0  0  0
  -16.6247  -11.1919  -18.8701 C   0  0  0  0  0  0  0  0  0  0  0  0
  -17.1495  -12.4362  -19.5756 C   0  0  0  0  0  0  0  0  0  0  0  0
  -17.5637  -15.1310  -21.1463 N   0  0  0  0  0  0  0  0  0  0  0  0
  -18.1028  -14.0077  -21.8961 C   0  0  0  0  0  0  0  0  0  0  0  0
  -18.2819  -15.8482  -21.0450 H   0  0  0  0  0  0  0  0  0  0  0  0
  -17.2681  -14.8132  -20.2233 H   0  0  0  0  0  0  0  0  0  0  0  0
  -18.5960  -14.5274  -23.2491 C   0  0  0  0  0  0  0  0  0  0  0  0
  -19.7021  -13.6673  -23.8258 C   0  0  0  0  0  0  0  0  0  0  0  0
  -19.5743  -13.0505  -25.0690 C   0  0  0  0  0  0  0  0  0  0  0  0
  -20.8646  -13.4499  -23.1027 C   0  0  0  0  0  0  0  0  0  0  0  0
  -20.6110  -12.2577  -25.5606 C   0  0  0  0  0  0  0  0  0  0  0  0
  -21.9065  -12.6676  -23.5964 C   0  0  0  0  0  0  0  0  0  0  0  0
  -21.7805  -12.0522  -24.8399 C   0  0  0  0  0  0  0  0  0  0  0  0
  -14.3123  -11.9818  -21.5493 C   0  0  0  0  0  0  0  0  0  0  0  0
  -13.5753  -11.4426  -22.3765 O   0  0  0  0  0  0  0  0  0  0  0  0
  -14.0108  -13.1661  -21.0060 N   0  0  0  0  0  0  0  0  0  0  0  0
  -14.6176  -13.5413  -20.3275 H   0  0  0  0  0  0  0  0  0  0  0  0
  -12.8158  -13.9298  -21.3770 C   0  0  0  0  0  0  0  0  0  0  0  0
  -12.6630  -15.1732  -20.5312 C   0  0  0  0  0  0  0  0  0  0  0  0
  -11.8522  -15.1714  -19.3993 C   0  0  0  0  0  0  0  0  0  0  0  0
  -11.7228  -16.2791  -18.6569 N   0  0  0  0  0  0  0  0  0  0  0  0
  -12.3594  -17.4173  -18.9655 C   0  0  0  0  0  0  0  0  0  0  0  0
  -13.1770  -17.4787  -20.0841 C   0  0  0  0  0  0  0  0  0  0  0  0
  -13.3096  -16.3359  -20.8576 C   0  0  0  0  0  0  0  0  0  0  0  0
  -14.3649  -16.3777  -22.2869 Cl  0  0  0  0  0  0  0  0  0  0  0  0
 13 12  1  0  0  0
 13 14  2  0  0  0
 13 15  1  0  0  0
 12  9  1  0  0  0
  9  8  1  0  0  0
  9  1  1  0  0  0
  1  3  1  0  0  0
  1  2  2  0  0  0
  3  4  1  0  0  0
  3  7  1  0  0  0
 14 16  1  0  0  0
 16 18  2  0  0  0
 18 17  1  0  0  0
 17 15  2  0  0  0
  4 19  1  0  0  0
  4  5  1  0  0  0
 19 20  2  0  0  0
 19 21  1  0  0  0
 21 23  1  0  0  0
 23 24  1  0  0  0
 24 25  2  0  0  0
 24 29  1  0  0  0
  5  6  1  0  0  0
  6  7  1  0  0  0
 25 26  1  0  0  0
 26 27  2  0  0  0
 27 28  1  0  0  0
 28 29  2  0  0  0
 29 30  1  0  0  0
  8 10  1  0  0  0
  8 11  1  0  0  0
 21 22  1  0  0  0
M  END
> <minimizedAffinity>
-6.71910

$$$$
