3SHA_P97_H_1
  RCSB PDB12061710443D
Coordinates from PDB:3SHA:H:1 Model:1 without hydrogens
 27 29  0  0  0  0            999 V2000
  -16.4730  -15.2100  -23.0850   N 0  0  0  0  0  0  0  0  0  0  0  0
  -17.7530  -14.5200  -23.0690   C 0  0  0  0  0  0  0  0  0  0  0  0
  -17.5340  -13.1460  -22.4830   C 0  0  0  0  0  0  0  0  0  0  0  0
  -16.5920  -12.4510  -22.8500   O 0  0  0  0  0  0  0  0  0  0  0  0
  -18.2930  -14.4790  -24.5010   C 0  0  0  0  0  0  0  0  0  0  0  0
  -19.7100  -13.9460  -24.5650   C 0  0  0  0  0  0  0  0  0  0  0  0
  -20.7670  -14.6060  -23.9410   C 0  0  0  0  0  0  0  0  0  0  0  0
  -19.9890  -12.7930  -25.2820   C 0  0  0  0  0  0  0  0  0  0  0  0
  -22.0590  -14.0890  -24.0320   C 0  0  0  0  0  0  0  0  0  0  0  0
  -21.2770  -12.2680  -25.3650   C 0  0  0  0  0  0  0  0  0  0  0  0
  -22.3340  -12.9260  -24.7400   C 0  0  0  0  0  0  0  0  0  0  0  0
  -18.3800  -12.7030  -21.5680   N 0  0  0  0  0  0  0  0  0  0  0  0
  -18.1560  -11.3840  -20.9760   C 0  0  0  0  0  0  0  0  0  0  0  0
  -16.8050  -11.3500  -20.3040   C 0  0  0  0  0  0  0  0  0  0  0  0
  -16.4070  -12.2900  -19.6140   O 0  0  0  0  0  0  0  0  0  0  0  0
  -19.2840  -11.2030  -19.9640   C 0  0  0  0  0  0  0  0  0  0  0  0
  -20.3080  -12.2870  -20.2840   C 0  0  0  0  0  0  0  0  0  0  0  0
  -19.5420  -13.3950  -20.9960   C 0  0  0  0  0  0  0  0  0  0  0  0
  -16.0440  -10.2740  -20.5320   N 0  0  0  0  0  0  0  0  0  0  0  0
  -14.7080  -10.1080  -19.9520   C 0  0  0  0  0  0  0  0  0  0  0  0
  -13.6680  -10.9010  -20.7100   C 0  0  0  0  0  0  0  0  0  0  0  0
  -13.3470  -12.2020  -20.3320   C 0  0  0  0  0  0  0  0  0  0  0  0
  -12.4230  -12.8960  -21.0100   N 0  0  0  0  0  0  0  0  0  0  0  0
  -11.7800  -12.3770  -22.0650   C 0  0  0  0  0  0  0  0  0  0  0  0
  -12.0560  -11.0840  -22.4840   C 0  0  0  0  0  0  0  0  0  0  0  0
  -13.0080  -10.3610  -21.7820   C 0  0  0  0  0  0  0  0  0  0  0  0
  -13.3970   -8.7080  -22.3060  Cl 0  0  0  0  0  0  0  0  0  0  0  0
  6  5  1  0  0  0  0
  6  7  2  0  0  0  0
  6  8  1  0  0  0  0
  5  2  1  0  0  0  0
  2  1  1  0  0  0  0
  2  3  1  0  0  0  0
  3 12  1  0  0  0  0
  3  4  2  0  0  0  0
 12 13  1  0  0  0  0
 12 18  1  0  0  0  0
  7  9  1  0  0  0  0
  9 11  2  0  0  0  0
 11 10  1  0  0  0  0
 10  8  2  0  0  0  0
 13 14  1  0  0  0  0
 13 16  1  0  0  0  0
 14 15  2  0  0  0  0
 14 19  1  0  0  0  0
 19 20  1  0  0  0  0
 20 21  1  0  0  0  0
 21 22  2  0  0  0  0
 21 26  1  0  0  0  0
 16 17  1  0  0  0  0
 17 18  1  0  0  0  0
 22 23  1  0  0  0  0
 23 24  2  0  0  0  0
 24 25  1  0  0  0  0
 25 26  2  0  0  0  0
 26 27  1  0  0  0  0
A    1
N4
A    2
C3
A    3
C5
A    4
O7
A    5
C2
A    6
C1
A    7
C8
A    8
C12
A    9
C9
A   10
C11
A   11
C10
A   12
N6
A   13
C13
A   14
C14
A   15
O15
A   16
C19
A   17
C20
A   18
C21
A   19
N16
A   20
C17
A   21
C18
A   22
C22
A   23
N23
A   24
C24
A   25
C25
A   26
C26
A   27
CL27
M  END
>  <InstanceId>
3SHA_P97_H_1

>  <ChemCompId>
P97

>  <PdbId>
3SHA

>  <ChainId>
H

>  <ResidueNumber>
1

>  <InsertionCode>


>  <Model>
1

>  <AltIds>


>  <MissingHeavyAtoms>
0

>  <ObservedFormula>
C20 N4 O2 Cl

>  <Name>
D-phenylalanyl-N-[(4-chloropyridin-3-yl)methyl]-L-prolinamide

>  <SystematicName>
(2S)-1-[(2R)-2-azanyl-3-phenyl-propanoyl]-N-[(4-chloranylpyridin-3-yl)methyl]pyrrolidine-2-carboxamide

>  <Synonyms>


>  <Type>
peptide-like

>  <Formula>
C20 H23 Cl N4 O2

>  <MolecularWeight>
386.875

>  <ModifiedDate>
2012-06-15

>  <Parent>


>  <OneLetterCode>


>  <SubcomponentList>
DPN PRO NNU

>  <AmbiguousFlag>
N

>  <InChI>
InChI=1S/C20H23ClN4O2/c21-16-8-9-23-12-15(16)13-24-19(26)18-7-4-10-25(18)20(27)17(22)11-14-5-2-1-3-6-14/h1-3,5-6,8-9,12,17-18H,4,7,10-11,13,22H2,(H,24,26)/t17-,18+/m1/s1

>  <InChIKey>
ZRBVLANXQQYBLM-MSOLQXFVSA-N

>  <SMILES>
c1ccc(cc1)C[C@H](C(=O)N2CCC[C@H]2C(=O)NCc3cnccc3Cl)N

$$$$
