3R6U_CHT_A_285


  8  7  0  0  0  0  0  0  0  0999 V2000
   -4.3723    4.1984  -21.6206 C   0  0  0  0  0  0  0  0  0  0  0  0
   -6.4295    5.2071  -22.1155 C   0  0  0  0  0  0  0  0  0  0  0  0
   -6.4352    2.9128  -22.3411 C   0  0  0  0  0  0  0  0  0  0  0  0
   -6.3084    3.7441  -20.1480 C   0  0  0  0  0  0  0  0  0  0  0  0
   -5.8627    3.9849  -21.5304 N   0  0  0  0  0  0  0  0  0  0  0  0
   -3.5391    3.9273  -20.3834 C   0  0  0  0  0  0  0  0  0  0  0  0
   -2.9485    2.5829  -20.4356 O   0  0  0  0  0  0  0  0  0  0  0  0
   -3.6559    1.9204  -20.4771 H   0  0  0  0  0  0  0  0  0  0  0  0
  6  1  1  0  0  0
  6  7  1  0  0  0
  1  5  1  0  0  0
  2  5  1  0  0  0
  3  5  1  0  0  0
  4  5  1  0  0  0
  7  8  1  0  0  0
M  CHG 1   5   1
M  END
> <minimizedAffinity>
-3.82544

$$$$
3R6U_CHT_A_285


  8  7  0  0  0  0  0  0  0  0999 V2000
   -4.4507    3.8040  -21.2124 C   0  0  0  0  0  0  0  0  0  0  0  0
   -6.2393    5.1688  -21.8704 C   0  0  0  0  0  0  0  0  0  0  0  0
   -6.4925    2.9519  -22.4503 C   0  0  0  0  0  0  0  0  0  0  0  0
   -6.6647    3.4570  -20.1629 C   0  0  0  0  0  0  0  0  0  0  0  0
   -5.9473    3.8083  -21.3997 N   0  0  0  0  0  0  0  0  0  0  0  0
   -3.8450    4.8548  -20.3029 C   0  0  0  0  0  0  0  0  0  0  0  0
   -3.5555    4.2933  -18.9763 O   0  0  0  0  0  0  0  0  0  0  0  0
   -4.3790    3.9789  -18.5715 H   0  0  0  0  0  0  0  0  0  0  0  0
  6  1  1  0  0  0
  6  7  1  0  0  0
  1  5  1  0  0  0
  2  5  1  0  0  0
  3  5  1  0  0  0
  4  5  1  0  0  0
  7  8  1  0  0  0
M  CHG 1   5   1
M  END
> <minimizedAffinity>
-3.74306

$$$$
3R6U_CHT_A_285


  8  7  0  0  0  0  0  0  0  0999 V2000
   -5.7515    4.9992  -21.8240 C   0  0  0  0  0  0  0  0  0  0  0  0
   -4.2393    3.4232  -20.9731 C   0  0  0  0  0  0  0  0  0  0  0  0
   -5.1068    4.8427  -19.3771 C   0  0  0  0  0  0  0  0  0  0  0  0
   -6.5879    3.2577  -20.2778 C   0  0  0  0  0  0  0  0  0  0  0  0
   -5.4644    4.1487  -20.6119 N   0  0  0  0  0  0  0  0  0  0  0  0
   -6.3217    4.3174  -23.0521 C   0  0  0  0  0  0  0  0  0  0  0  0
   -7.5010    5.0388  -23.5499 O   0  0  0  0  0  0  0  0  0  0  0  0
   -8.1861    5.0512  -22.8632 H   0  0  0  0  0  0  0  0  0  0  0  0
  6  1  1  0  0  0
  6  7  1  0  0  0
  1  5  1  0  0  0
  2  5  1  0  0  0
  3  5  1  0  0  0
  4  5  1  0  0  0
  7  8  1  0  0  0
M  CHG 1   5   1
M  END
> <minimizedAffinity>
-3.69293

$$$$
3R6U_CHT_A_285


  8  7  0  0  0  0  0  0  0  0999 V2000
   -4.2551    4.7401  -21.0518 C   0  0  0  0  0  0  0  0  0  0  0  0
   -5.6994    2.9405  -21.4638 C   0  0  0  0  0  0  0  0  0  0  0  0
   -6.5164    4.4646  -19.9391 C   0  0  0  0  0  0  0  0  0  0  0  0
   -6.4162    5.1782  -22.1746 C   0  0  0  0  0  0  0  0  0  0  0  0
   -5.7152    4.3770  -21.1576 N   0  0  0  0  0  0  0  0  0  0  0  0
   -3.2928    3.6793  -20.5547 C   0  0  0  0  0  0  0  0  0  0  0  0
   -3.0422    3.8344  -19.1153 O   0  0  0  0  0  0  0  0  0  0  0  0
   -2.6484    4.7048  -18.9476 H   0  0  0  0  0  0  0  0  0  0  0  0
  6  1  1  0  0  0
  6  7  1  0  0  0
  1  5  1  0  0  0
  2  5  1  0  0  0
  3  5  1  0  0  0
  4  5  1  0  0  0
  7  8  1  0  0  0
M  CHG 1   5   1
M  END
> <minimizedAffinity>
-3.66557

$$$$
3R6U_CHT_A_285


  8  7  0  0  0  0  0  0  0  0999 V2000
   -0.2855    3.4733  -19.3248 C   0  0  0  0  0  0  0  0  0  0  0  0
    0.0315    5.5373  -20.3896 C   0  0  0  0  0  0  0  0  0  0  0  0
   -0.1582    3.7562  -21.8410 C   0  0  0  0  0  0  0  0  0  0  0  0
   -2.1166    4.3935  -20.7116 C   0  0  0  0  0  0  0  0  0  0  0  0
   -0.6589    4.2522  -20.5613 N   0  0  0  0  0  0  0  0  0  0  0  0
   -1.3019    2.4976  -18.7652 C   0  0  0  0  0  0  0  0  0  0  0  0
   -1.8906    3.0125  -17.5214 O   0  0  0  0  0  0  0  0  0  0  0  0
   -1.1918    3.1364  -16.8601 H   0  0  0  0  0  0  0  0  0  0  0  0
  6  1  1  0  0  0
  6  7  1  0  0  0
  1  5  1  0  0  0
  2  5  1  0  0  0
  3  5  1  0  0  0
  4  5  1  0  0  0
  7  8  1  0  0  0
M  CHG 1   5   1
M  END
> <minimizedAffinity>
-3.53406

$$$$
3R6U_CHT_A_285


  8  7  0  0  0  0  0  0  0  0999 V2000
   -5.1850    3.5392  -21.7172 C   0  0  0  0  0  0  0  0  0  0  0  0
   -5.9488    5.7073  -21.2584 C   0  0  0  0  0  0  0  0  0  0  0  0
   -5.5288    4.4461  -19.3748 C   0  0  0  0  0  0  0  0  0  0  0  0
   -3.6520    5.1341  -20.6082 C   0  0  0  0  0  0  0  0  0  0  0  0
   -5.0451    4.6747  -20.7343 N   0  0  0  0  0  0  0  0  0  0  0  0
   -6.1886    3.6929  -22.8430 C   0  0  0  0  0  0  0  0  0  0  0  0
   -7.1436    2.5763  -22.8475 O   0  0  0  0  0  0  0  0  0  0  0  0
   -6.6654    1.7424  -22.9780 H   0  0  0  0  0  0  0  0  0  0  0  0
  6  1  1  0  0  0
  6  7  1  0  0  0
  1  5  1  0  0  0
  2  5  1  0  0  0
  3  5  1  0  0  0
  4  5  1  0  0  0
  7  8  1  0  0  0
M  CHG 1   5   1
M  END
> <minimizedAffinity>
-3.46846

$$$$
3R6U_CHT_A_285


  8  7  0  0  0  0  0  0  0  0999 V2000
   -1.5686    2.9766  -19.7358 C   0  0  0  0  0  0  0  0  0  0  0  0
    0.2297    1.9065  -20.7919 C   0  0  0  0  0  0  0  0  0  0  0  0
   -0.2992    3.9594  -21.6980 C   0  0  0  0  0  0  0  0  0  0  0  0
    0.6853    3.9838  -19.5656 C   0  0  0  0  0  0  0  0  0  0  0  0
   -0.2539    3.2440  -20.4250 N   0  0  0  0  0  0  0  0  0  0  0  0
   -2.8020    3.6876  -20.2569 C   0  0  0  0  0  0  0  0  0  0  0  0
   -3.7749    2.7236  -20.7890 O   0  0  0  0  0  0  0  0  0  0  0  0
   -3.3745    2.2318  -21.5229 H   0  0  0  0  0  0  0  0  0  0  0  0
  6  1  1  0  0  0
  6  7  1  0  0  0
  1  5  1  0  0  0
  2  5  1  0  0  0
  3  5  1  0  0  0
  4  5  1  0  0  0
  7  8  1  0  0  0
M  CHG 1   5   1
M  END
> <minimizedAffinity>
-3.35916

$$$$
3R6U_CHT_A_285


  8  7  0  0  0  0  0  0  0  0999 V2000
   -1.5102    2.1302  -19.6197 C   0  0  0  0  0  0  0  0  0  0  0  0
    0.3100    1.2906  -20.8347 C   0  0  0  0  0  0  0  0  0  0  0  0
    0.2366    0.5726  -18.6452 C   0  0  0  0  0  0  0  0  0  0  0  0
   -1.4038   -0.2982  -20.0832 C   0  0  0  0  0  0  0  0  0  0  0  0
   -0.6300    0.9147  -19.7705 N   0  0  0  0  0  0  0  0  0  0  0  0
   -1.1720    3.1214  -18.5236 C   0  0  0  0  0  0  0  0  0  0  0  0
   -2.1149    3.0031  -17.4030 O   0  0  0  0  0  0  0  0  0  0  0  0
   -3.0138    3.1904  -17.7157 H   0  0  0  0  0  0  0  0  0  0  0  0
  6  1  1  0  0  0
  6  7  1  0  0  0
  1  5  1  0  0  0
  2  5  1  0  0  0
  3  5  1  0  0  0
  4  5  1  0  0  0
  7  8  1  0  0  0
M  CHG 1   5   1
M  END
> <minimizedAffinity>
-3.34951

$$$$
3R6U_CHT_A_285


  8  7  0  0  0  0  0  0  0  0999 V2000
   -1.1125    3.9108  -21.0401 C   0  0  0  0  0  0  0  0  0  0  0  0
    0.6769    3.9951  -19.5284 C   0  0  0  0  0  0  0  0  0  0  0  0
   -1.1009    2.7194  -18.8023 C   0  0  0  0  0  0  0  0  0  0  0  0
    0.1577    1.8379  -20.5788 C   0  0  0  0  0  0  0  0  0  0  0  0
   -0.3729    3.0896  -20.0137 N   0  0  0  0  0  0  0  0  0  0  0  0
   -2.5062    4.3958  -20.6927 C   0  0  0  0  0  0  0  0  0  0  0  0
   -2.5094    5.8447  -20.4486 O   0  0  0  0  0  0  0  0  0  0  0  0
   -1.9220    6.0485  -19.7040 H   0  0  0  0  0  0  0  0  0  0  0  0
  6  1  1  0  0  0
  6  7  1  0  0  0
  1  5  1  0  0  0
  2  5  1  0  0  0
  3  5  1  0  0  0
  4  5  1  0  0  0
  7  8  1  0  0  0
M  CHG 1   5   1
M  END
> <minimizedAffinity>
-3.10574

$$$$
3R6U_CHT_A_285


  8  7  0  0  0  0  0  0  0  0999 V2000
    0.4882    4.5036  -19.7532 C   0  0  0  0  0  0  0  0  0  0  0  0
   -0.2928    3.8792  -21.8733 C   0  0  0  0  0  0  0  0  0  0  0  0
    0.3444    2.1014  -20.5509 C   0  0  0  0  0  0  0  0  0  0  0  0
   -1.6212    3.2201  -19.9169 C   0  0  0  0  0  0  0  0  0  0  0  0
   -0.2748    3.4226  -20.4773 N   0  0  0  0  0  0  0  0  0  0  0  0
    0.3189    5.9333  -20.2283 C   0  0  0  0  0  0  0  0  0  0  0  0
    0.4742    6.8764  -19.1123 O   0  0  0  0  0  0  0  0  0  0  0  0
   -0.2023    6.6970  -18.4408 H   0  0  0  0  0  0  0  0  0  0  0  0
  6  1  1  0  0  0
  6  7  1  0  0  0
  1  5  1  0  0  0
  2  5  1  0  0  0
  3  5  1  0  0  0
  4  5  1  0  0  0
  7  8  1  0  0  0
M  CHG 1   5   1
M  END
> <minimizedAffinity>
-3.01655

$$$$
