1OM1_IQA_A_338


 24 27  0  0  0  0  0  0  0  0999 V2000
   21.8418    7.8660   20.5912 C   0  0  0  0  0  0  0  0  0  0  0  0
   21.8840    8.3064   19.3388 C   0  0  0  0  0  0  0  0  0  0  0  0
   21.2605    9.4667   18.8891 N   0  0  0  0  0  0  0  0  0  0  0  0
   21.3562    9.8671   17.5349 C   0  0  0  0  0  0  0  0  0  0  0  0
   20.7768   10.9234   17.1725 O   0  0  0  0  0  0  0  0  0  0  0  0
   22.1328    9.0498   16.5442 C   0  0  0  0  0  0  0  0  0  0  0  0
   22.2273    9.4604   15.1684 C   0  0  0  0  0  0  0  0  0  0  0  0
   22.9675    8.6834   14.2192 C   0  0  0  0  0  0  0  0  0  0  0  0
   23.6229    7.4955   14.6175 C   0  0  0  0  0  0  0  0  0  0  0  0
   23.5428    7.0604   15.9933 C   0  0  0  0  0  0  0  0  0  0  0  0
   22.7960    7.8237   17.0032 C   0  0  0  0  0  0  0  0  0  0  0  0
   22.6522    7.4578   18.4576 N   0  0  0  0  0  0  0  0  0  0  0  0
   23.1293    6.3845   19.2584 C   0  0  0  0  0  0  0  0  0  0  0  0
   22.6499    6.5973   20.5978 C   0  0  0  0  0  0  0  0  0  0  0  0
   22.9786    5.6555   21.6602 C   0  0  0  0  0  0  0  0  0  0  0  0
   23.7977    4.5079   21.3247 C   0  0  0  0  0  0  0  0  0  0  0  0
   24.2653    4.3056   19.9962 C   0  0  0  0  0  0  0  0  0  0  0  0
   23.9428    5.2303   18.9481 C   0  0  0  0  0  0  0  0  0  0  0  0
   20.7452   10.0171   19.5222 H   0  0  0  0  0  0  0  0  0  0  0  0
   21.0184    8.7103   21.6931 C   0  0  0  0  0  0  0  0  0  0  0  0
   19.4076    9.0725   23.6601 O   0  0  0  0  0  0  0  0  0  0  0  0
   20.3529    8.2440   22.9951 C   0  0  0  0  0  0  0  0  0  0  0  0
   20.6330    7.0834   23.5356 O   0  0  0  0  0  0  0  0  0  0  0  0
   19.1837    9.9088   23.3017 H   0  0  0  0  0  0  0  0  0  0  0  0
 21 22  1  0  0  0
 22 23  2  0  0  0
 22 20  1  0  0  0
 20  1  1  0  0  0
  1  2  2  0  0  0
  1 14  1  0  0  0
  2  3  1  0  0  0
  2 12  1  0  0  0
  3  4  1  0  0  0
  4  5  2  0  0  0
  4  6  1  0  0  0
  6  7  2  0  0  0
  6 11  1  0  0  0
  7  8  1  0  0  0
  8  9  2  0  0  0
  9 10  1  0  0  0
 10 11  2  0  0  0
 11 12  1  0  0  0
 12 13  1  0  0  0
 13 14  2  0  0  0
 13 18  1  0  0  0
 14 15  1  0  0  0
 15 16  2  0  0  0
 16 17  1  0  0  0
 17 18  2  0  0  0
 21 24  1  0  0  0
  3 19  1  0  0  0
M  END
> <minimizedAffinity>
-11.13693

$$$$
1OM1_IQA_A_338


 24 27  0  0  0  0  0  0  0  0999 V2000
   23.5255    5.4714   20.0400 C   0  0  0  0  0  0  0  0  0  0  0  0
   23.5692    5.9994   18.8221 C   0  0  0  0  0  0  0  0  0  0  0  0
   24.3171    5.4866   17.7661 N   0  0  0  0  0  0  0  0  0  0  0  0
   24.3071    6.1107   16.4958 C   0  0  0  0  0  0  0  0  0  0  0  0
   24.9981    5.6124   15.5700 O   0  0  0  0  0  0  0  0  0  0  0  0
   23.4896    7.3454   16.2518 C   0  0  0  0  0  0  0  0  0  0  0  0
   23.4825    7.9768   14.9589 C   0  0  0  0  0  0  0  0  0  0  0  0
   22.7037    9.1556   14.7213 C   0  0  0  0  0  0  0  0  0  0  0  0
   21.9232    9.7220   15.7554 C   0  0  0  0  0  0  0  0  0  0  0  0
   21.9135    9.1079   17.0635 C   0  0  0  0  0  0  0  0  0  0  0  0
   22.6955    7.8981   17.3553 C   0  0  0  0  0  0  0  0  0  0  0  0
   22.7532    7.1830   18.6801 N   0  0  0  0  0  0  0  0  0  0  0  0
   22.1474    7.4003   19.9476 C   0  0  0  0  0  0  0  0  0  0  0  0
   22.5988    6.3561   20.8280 C   0  0  0  0  0  0  0  0  0  0  0  0
   22.1442    6.3064   22.2117 C   0  0  0  0  0  0  0  0  0  0  0  0
   21.2300    7.3349   22.6665 C   0  0  0  0  0  0  0  0  0  0  0  0
   20.7909    8.3645   21.7880 C   0  0  0  0  0  0  0  0  0  0  0  0
   21.2372    8.4167   20.4258 C   0  0  0  0  0  0  0  0  0  0  0  0
   24.8611    4.6779   17.9049 H   0  0  0  0  0  0  0  0  0  0  0  0
   24.3884    4.1434   20.3516 C   0  0  0  0  0  0  0  0  0  0  0  0
   24.8456    1.9141   21.5416 O   0  0  0  0  0  0  0  0  0  0  0  0
   23.9328    2.7720   20.8685 C   0  0  0  0  0  0  0  0  0  0  0  0
   22.7040    2.3468   20.7048 O   0  0  0  0  0  0  0  0  0  0  0  0
   25.7321    2.1862   21.6760 H   0  0  0  0  0  0  0  0  0  0  0  0
 21 22  1  0  0  0
 22 23  2  0  0  0
 22 20  1  0  0  0
 20  1  1  0  0  0
  1  2  2  0  0  0
  1 14  1  0  0  0
  2  3  1  0  0  0
  2 12  1  0  0  0
  3  4  1  0  0  0
  4  5  2  0  0  0
  4  6  1  0  0  0
  6  7  2  0  0  0
  6 11  1  0  0  0
  7  8  1  0  0  0
  8  9  2  0  0  0
  9 10  1  0  0  0
 10 11  2  0  0  0
 11 12  1  0  0  0
 12 13  1  0  0  0
 13 14  2  0  0  0
 13 18  1  0  0  0
 14 15  1  0  0  0
 15 16  2  0  0  0
 16 17  1  0  0  0
 17 18  2  0  0  0
 21 24  1  0  0  0
  3 19  1  0  0  0
M  END
> <minimizedAffinity>
-11.12924

$$$$
1OM1_IQA_A_338


 24 27  0  0  0  0  0  0  0  0999 V2000
   23.5892    7.1361   17.0720 C   0  0  0  0  0  0  0  0  0  0  0  0
   23.3214    6.7769   18.3224 C   0  0  0  0  0  0  0  0  0  0  0  0
   23.8954    5.6869   18.9703 N   0  0  0  0  0  0  0  0  0  0  0  0
   23.5555    5.3729   20.3079 C   0  0  0  0  0  0  0  0  0  0  0  0
   24.0994    4.3786   20.8543 O   0  0  0  0  0  0  0  0  0  0  0  0
   22.5642    6.2069   21.0657 C   0  0  0  0  0  0  0  0  0  0  0  0
   22.2214    5.8839   22.4254 C   0  0  0  0  0  0  0  0  0  0  0  0
   21.2756    6.6770   23.1527 C   0  0  0  0  0  0  0  0  0  0  0  0
   20.6603    7.7969   22.5473 C   0  0  0  0  0  0  0  0  0  0  0  0
   20.9864    8.1424   21.1824 C   0  0  0  0  0  0  0  0  0  0  0  0
   21.9504    7.3595   20.3962 C   0  0  0  0  0  0  0  0  0  0  0  0
   22.3582    7.6352   18.9723 N   0  0  0  0  0  0  0  0  0  0  0  0
   21.9998    8.6235   18.0154 C   0  0  0  0  0  0  0  0  0  0  0  0
   22.7440    8.3534   16.8144 C   0  0  0  0  0  0  0  0  0  0  0  0
   22.5917    9.2051   15.6417 C   0  0  0  0  0  0  0  0  0  0  0  0
   21.6738   10.3235   15.7259 C   0  0  0  0  0  0  0  0  0  0  0  0
   20.9411   10.5810   16.9181 C   0  0  0  0  0  0  0  0  0  0  0  0
   21.0881    9.7441   18.0737 C   0  0  0  0  0  0  0  0  0  0  0  0
   24.5475    5.1261   18.4912 H   0  0  0  0  0  0  0  0  0  0  0  0
   24.6483    6.2698   16.2159 C   0  0  0  0  0  0  0  0  0  0  0  0
   26.5245    4.5200   16.3299 O   0  0  0  0  0  0  0  0  0  0  0  0
   25.1401    4.8310   16.4240 C   0  0  0  0  0  0  0  0  0  0  0  0
   24.3115    3.8502   16.6867 O   0  0  0  0  0  0  0  0  0  0  0  0
   27.1451    5.1969   16.1434 H   0  0  0  0  0  0  0  0  0  0  0  0
 21 22  1  0  0  0
 22 23  2  0  0  0
 22 20  1  0  0  0
 20  1  1  0  0  0
  1  2  2  0  0  0
  1 14  1  0  0  0
  2  3  1  0  0  0
  2 12  1  0  0  0
  3  4  1  0  0  0
  4  5  2  0  0  0
  4  6  1  0  0  0
  6  7  2  0  0  0
  6 11  1  0  0  0
  7  8  1  0  0  0
  8  9  2  0  0  0
  9 10  1  0  0  0
 10 11  2  0  0  0
 11 12  1  0  0  0
 12 13  1  0  0  0
 13 14  2  0  0  0
 13 18  1  0  0  0
 14 15  1  0  0  0
 15 16  2  0  0  0
 16 17  1  0  0  0
 17 18  2  0  0  0
 21 24  1  0  0  0
  3 19  1  0  0  0
M  END
> <minimizedAffinity>
-11.07489

$$$$
1OM1_IQA_A_338


 24 27  0  0  0  0  0  0  0  0999 V2000
   23.7835    7.6408   15.5500 C   0  0  0  0  0  0  0  0  0  0  0  0
   24.0509    6.6604   16.4053 C   0  0  0  0  0  0  0  0  0  0  0  0
   24.9147    5.6003   16.1453 N   0  0  0  0  0  0  0  0  0  0  0  0
   25.1462    4.5949   17.1143 C   0  0  0  0  0  0  0  0  0  0  0  0
   25.9353    3.6553   16.8364 O   0  0  0  0  0  0  0  0  0  0  0  0
   24.4648    4.6431   18.4506 C   0  0  0  0  0  0  0  0  0  0  0  0
   24.7029    3.6187   19.4327 C   0  0  0  0  0  0  0  0  0  0  0  0
   24.0546    3.6605   20.7096 C   0  0  0  0  0  0  0  0  0  0  0  0
   23.1671    4.7132   21.0312 C   0  0  0  0  0  0  0  0  0  0  0  0
   22.9099    5.7541   20.0622 C   0  0  0  0  0  0  0  0  0  0  0  0
   23.5512    5.7546   18.7397 C   0  0  0  0  0  0  0  0  0  0  0  0
   23.3515    6.7890   17.6627 N   0  0  0  0  0  0  0  0  0  0  0  0
   22.5739    7.9749   17.5635 C   0  0  0  0  0  0  0  0  0  0  0  0
   22.8123    8.5414   16.2629 C   0  0  0  0  0  0  0  0  0  0  0  0
   22.1507    9.7760   15.8606 C   0  0  0  0  0  0  0  0  0  0  0  0
   21.2532   10.4082   16.8067 C   0  0  0  0  0  0  0  0  0  0  0  0
   21.0229    9.8386   18.0901 C   0  0  0  0  0  0  0  0  0  0  0  0
   21.6717    8.6231   18.4887 C   0  0  0  0  0  0  0  0  0  0  0  0
   25.3713    5.5491   15.2746 H   0  0  0  0  0  0  0  0  0  0  0  0
   24.4915    7.6325   14.0996 C   0  0  0  0  0  0  0  0  0  0  0  0
   24.6140    7.3259   11.5529 O   0  0  0  0  0  0  0  0  0  0  0  0
   23.8686    7.7156   12.6994 C   0  0  0  0  0  0  0  0  0  0  0  0
   22.6456    8.1485   12.5133 O   0  0  0  0  0  0  0  0  0  0  0  0
   25.4915    7.0116   11.6491 H   0  0  0  0  0  0  0  0  0  0  0  0
 21 22  1  0  0  0
 22 23  2  0  0  0
 22 20  1  0  0  0
 20  1  1  0  0  0
  1  2  2  0  0  0
  1 14  1  0  0  0
  2  3  1  0  0  0
  2 12  1  0  0  0
  3  4  1  0  0  0
  4  5  2  0  0  0
  4  6  1  0  0  0
  6  7  2  0  0  0
  6 11  1  0  0  0
  7  8  1  0  0  0
  8  9  2  0  0  0
  9 10  1  0  0  0
 10 11  2  0  0  0
 11 12  1  0  0  0
 12 13  1  0  0  0
 13 14  2  0  0  0
 13 18  1  0  0  0
 14 15  1  0  0  0
 15 16  2  0  0  0
 16 17  1  0  0  0
 17 18  2  0  0  0
 21 24  1  0  0  0
  3 19  1  0  0  0
M  END
> <minimizedAffinity>
-11.05875

$$$$
1OM1_IQA_A_338


 24 27  0  0  0  0  0  0  0  0999 V2000
   24.5032    4.8157   18.0461 C   0  0  0  0  0  0  0  0  0  0  0  0
   24.0687    5.8529   17.3393 C   0  0  0  0  0  0  0  0  0  0  0  0
   24.3929    6.0910   16.0068 N   0  0  0  0  0  0  0  0  0  0  0  0
   23.8851    7.2224   15.3245 C   0  0  0  0  0  0  0  0  0  0  0  0
   24.2041    7.3978   14.1202 O   0  0  0  0  0  0  0  0  0  0  0  0
   22.9826    8.1991   16.0201 C   0  0  0  0  0  0  0  0  0  0  0  0
   22.4688    9.3480   15.3228 C   0  0  0  0  0  0  0  0  0  0  0  0
   21.6069   10.2831   15.9827 C   0  0  0  0  0  0  0  0  0  0  0  0
   21.2421   10.0934   17.3356 C   0  0  0  0  0  0  0  0  0  0  0  0
   21.7453    8.9480   18.0591 C   0  0  0  0  0  0  0  0  0  0  0  0
   22.6315    7.9617   17.4252 C   0  0  0  0  0  0  0  0  0  0  0  0
   23.2077    6.7381   18.0890 N   0  0  0  0  0  0  0  0  0  0  0  0
   23.1067    6.1812   19.3930 C   0  0  0  0  0  0  0  0  0  0  0  0
   23.8975    4.9797   19.4131 C   0  0  0  0  0  0  0  0  0  0  0  0
   23.9916    4.1756   20.6249 C   0  0  0  0  0  0  0  0  0  0  0  0
   23.2676    4.6229   21.7980 C   0  0  0  0  0  0  0  0  0  0  0  0
   22.4895    5.8138   21.7680 C   0  0  0  0  0  0  0  0  0  0  0  0
   22.3957    6.6080   20.5772 C   0  0  0  0  0  0  0  0  0  0  0  0
   24.9842    5.4633   15.5318 H   0  0  0  0  0  0  0  0  0  0  0  0
   25.4769    3.7382   17.3419 C   0  0  0  0  0  0  0  0  0  0  0  0
   25.9096    1.5670   18.6434 O   0  0  0  0  0  0  0  0  0  0  0  0
   26.4257    2.7093   17.9717 C   0  0  0  0  0  0  0  0  0  0  0  0
   27.7277    2.8485   17.9182 O   0  0  0  0  0  0  0  0  0  0  0  0
   24.9836    1.4358   18.7007 H   0  0  0  0  0  0  0  0  0  0  0  0
 21 22  1  0  0  0
 22 23  2  0  0  0
 22 20  1  0  0  0
 20  1  1  0  0  0
  1  2  2  0  0  0
  1 14  1  0  0  0
  2  3  1  0  0  0
  2 12  1  0  0  0
  3  4  1  0  0  0
  4  5  2  0  0  0
  4  6  1  0  0  0
  6  7  2  0  0  0
  6 11  1  0  0  0
  7  8  1  0  0  0
  8  9  2  0  0  0
  9 10  1  0  0  0
 10 11  2  0  0  0
 11 12  1  0  0  0
 12 13  1  0  0  0
 13 14  2  0  0  0
 13 18  1  0  0  0
 14 15  1  0  0  0
 15 16  2  0  0  0
 16 17  1  0  0  0
 17 18  2  0  0  0
 21 24  1  0  0  0
  3 19  1  0  0  0
M  END
> <minimizedAffinity>
-10.95011

$$$$
1OM1_IQA_A_338


 24 27  0  0  0  0  0  0  0  0999 V2000
   23.0470    5.7877   20.5444 C   0  0  0  0  0  0  0  0  0  0  0  0
   22.7218    6.7152   19.6511 C   0  0  0  0  0  0  0  0  0  0  0  0
   21.8997    7.8078   19.9117 N   0  0  0  0  0  0  0  0  0  0  0  0
   21.6032    8.7536   18.9013 C   0  0  0  0  0  0  0  0  0  0  0  0
   20.8558    9.7260   19.1817 O   0  0  0  0  0  0  0  0  0  0  0  0
   22.1666    8.6040   17.5184 C   0  0  0  0  0  0  0  0  0  0  0  0
   21.8623    9.5678   16.4942 C   0  0  0  0  0  0  0  0  0  0  0  0
   22.3978    9.4291   15.1726 C   0  0  0  0  0  0  0  0  0  0  0  0
   23.2396    8.3402   14.8487 C   0  0  0  0  0  0  0  0  0  0  0  0
   23.5601    7.3576   15.8588 C   0  0  0  0  0  0  0  0  0  0  0  0
   23.0352    7.4573   17.2281 C   0  0  0  0  0  0  0  0  0  0  0  0
   23.3085    6.4899   18.3503 N   0  0  0  0  0  0  0  0  0  0  0  0
   24.0730    5.2968   18.4623 C   0  0  0  0  0  0  0  0  0  0  0  0
   23.9411    4.8233   19.8142 C   0  0  0  0  0  0  0  0  0  0  0  0
   24.6191    3.6062   20.2419 C   0  0  0  0  0  0  0  0  0  0  0  0
   25.4238    2.8959   19.2681 C   0  0  0  0  0  0  0  0  0  0  0  0
   25.5463    3.3718   17.9328 C   0  0  0  0  0  0  0  0  0  0  0  0
   24.8795    4.5688   17.5085 C   0  0  0  0  0  0  0  0  0  0  0  0
   21.5189    7.9244   20.8120 H   0  0  0  0  0  0  0  0  0  0  0  0
   22.4651    5.9047   22.0453 C   0  0  0  0  0  0  0  0  0  0  0  0
   20.8866    3.9122   22.4103 O   0  0  0  0  0  0  0  0  0  0  0  0
   21.2130    5.2721   22.6680 C   0  0  0  0  0  0  0  0  0  0  0  0
   20.4083    5.9557   23.4442 O   0  0  0  0  0  0  0  0  0  0  0  0
   21.4399    3.3938   21.8598 H   0  0  0  0  0  0  0  0  0  0  0  0
 21 22  1  0  0  0
 22 23  2  0  0  0
 22 20  1  0  0  0
 20  1  1  0  0  0
  1  2  2  0  0  0
  1 14  1  0  0  0
  2  3  1  0  0  0
  2 12  1  0  0  0
  3  4  1  0  0  0
  4  5  2  0  0  0
  4  6  1  0  0  0
  6  7  2  0  0  0
  6 11  1  0  0  0
  7  8  1  0  0  0
  8  9  2  0  0  0
  9 10  1  0  0  0
 10 11  2  0  0  0
 11 12  1  0  0  0
 12 13  1  0  0  0
 13 14  2  0  0  0
 13 18  1  0  0  0
 14 15  1  0  0  0
 15 16  2  0  0  0
 16 17  1  0  0  0
 17 18  2  0  0  0
 21 24  1  0  0  0
  3 19  1  0  0  0
M  END
> <minimizedAffinity>
-10.71443

$$$$
1OM1_IQA_A_338


 24 27  0  0  0  0  0  0  0  0999 V2000
   24.3167    5.2264   17.8178 C   0  0  0  0  0  0  0  0  0  0  0  0
   23.6992    5.4739   18.9673 C   0  0  0  0  0  0  0  0  0  0  0  0
   23.6966    4.6148   20.0626 N   0  0  0  0  0  0  0  0  0  0  0  0
   23.0131    4.9558   21.2541 C   0  0  0  0  0  0  0  0  0  0  0  0
   23.0379    4.1492   22.2193 O   0  0  0  0  0  0  0  0  0  0  0  0
   22.2697    6.2544   21.3698 C   0  0  0  0  0  0  0  0  0  0  0  0
   21.5759    6.5969   22.5830 C   0  0  0  0  0  0  0  0  0  0  0  0
   20.8649    7.8354   22.6980 C   0  0  0  0  0  0  0  0  0  0  0  0
   20.8326    8.7486   21.6189 C   0  0  0  0  0  0  0  0  0  0  0  0
   21.5204    8.4283   20.3889 C   0  0  0  0  0  0  0  0  0  0  0  0
   22.2631    7.1708   20.2236 C   0  0  0  0  0  0  0  0  0  0  0  0
   23.0112    6.7440   18.9874 N   0  0  0  0  0  0  0  0  0  0  0  0
   23.2325    7.3340   17.7132 C   0  0  0  0  0  0  0  0  0  0  0  0
   24.0435    6.4238   16.9495 C   0  0  0  0  0  0  0  0  0  0  0  0
   24.4441    6.7534   15.5877 C   0  0  0  0  0  0  0  0  0  0  0  0
   24.0024    8.0178   15.0341 C   0  0  0  0  0  0  0  0  0  0  0  0
   23.1989    8.9103   15.7972 C   0  0  0  0  0  0  0  0  0  0  0  0
   22.8021    8.5884   17.1375 C   0  0  0  0  0  0  0  0  0  0  0  0
   24.1774    3.7575   20.0076 H   0  0  0  0  0  0  0  0  0  0  0  0
   25.1291    3.8424   17.6449 C   0  0  0  0  0  0  0  0  0  0  0  0
   25.7737    2.6321   19.8162 O   0  0  0  0  0  0  0  0  0  0  0  0
   26.1663    3.1878   18.5674 C   0  0  0  0  0  0  0  0  0  0  0  0
   27.4346    3.1239   18.2434 O   0  0  0  0  0  0  0  0  0  0  0  0
   24.8750    2.6603   20.0797 H   0  0  0  0  0  0  0  0  0  0  0  0
 21 22  1  0  0  0
 22 23  2  0  0  0
 22 20  1  0  0  0
 20  1  1  0  0  0
  1  2  2  0  0  0
  1 14  1  0  0  0
  2  3  1  0  0  0
  2 12  1  0  0  0
  3  4  1  0  0  0
  4  5  2  0  0  0
  4  6  1  0  0  0
  6  7  2  0  0  0
  6 11  1  0  0  0
  7  8  1  0  0  0
  8  9  2  0  0  0
  9 10  1  0  0  0
 10 11  2  0  0  0
 11 12  1  0  0  0
 12 13  1  0  0  0
 13 14  2  0  0  0
 13 18  1  0  0  0
 14 15  1  0  0  0
 15 16  2  0  0  0
 16 17  1  0  0  0
 17 18  2  0  0  0
 21 24  1  0  0  0
  3 19  1  0  0  0
M  END
> <minimizedAffinity>
-10.69981

$$$$
1OM1_IQA_A_338


 24 27  0  0  0  0  0  0  0  0999 V2000
   22.1090    8.3115   18.3778 C   0  0  0  0  0  0  0  0  0  0  0  0
   22.7210    7.2243   18.8331 C   0  0  0  0  0  0  0  0  0  0  0  0
   22.6570    6.7756   20.1492 N   0  0  0  0  0  0  0  0  0  0  0  0
   23.3396    5.6032   20.5530 C   0  0  0  0  0  0  0  0  0  0  0  0
   23.2534    5.2344   21.7528 O   0  0  0  0  0  0  0  0  0  0  0  0
   24.1536    4.8107   19.5725 C   0  0  0  0  0  0  0  0  0  0  0  0
   24.8461    3.6196   19.9874 C   0  0  0  0  0  0  0  0  0  0  0  0
   25.6244    2.8599   19.0549 C   0  0  0  0  0  0  0  0  0  0  0  0
   25.7260    3.2660   17.7043 C   0  0  0  0  0  0  0  0  0  0  0  0
   25.0410    4.4592   17.2620 C   0  0  0  0  0  0  0  0  0  0  0  0
   24.2308    5.2709   18.1811 C   0  0  0  0  0  0  0  0  0  0  0  0
   23.4797    6.5264   17.8210 N   0  0  0  0  0  0  0  0  0  0  0  0
   23.3127    7.2679   16.6198 C   0  0  0  0  0  0  0  0  0  0  0  0
   22.4638    8.3902   16.9181 C   0  0  0  0  0  0  0  0  0  0  0  0
   22.1045    9.3442   15.8767 C   0  0  0  0  0  0  0  0  0  0  0  0
   22.6263    9.1257   14.5424 C   0  0  0  0  0  0  0  0  0  0  0  0
   23.4668    8.0134   14.2582 C   0  0  0  0  0  0  0  0  0  0  0  0
   23.8230    7.0732   15.2812 C   0  0  0  0  0  0  0  0  0  0  0  0
   22.1293    7.2811   20.8088 H   0  0  0  0  0  0  0  0  0  0  0  0
   21.2222    9.1974   19.3946 C   0  0  0  0  0  0  0  0  0  0  0  0
   19.1590    8.6334   20.8158 O   0  0  0  0  0  0  0  0  0  0  0  0
   20.5676    8.8069   20.7267 C   0  0  0  0  0  0  0  0  0  0  0  0
   21.2740    8.6277   21.8158 O   0  0  0  0  0  0  0  0  0  0  0  0
   18.6231    8.7536   20.0566 H   0  0  0  0  0  0  0  0  0  0  0  0
 21 22  1  0  0  0
 22 23  2  0  0  0
 22 20  1  0  0  0
 20  1  1  0  0  0
  1  2  2  0  0  0
  1 14  1  0  0  0
  2  3  1  0  0  0
  2 12  1  0  0  0
  3  4  1  0  0  0
  4  5  2  0  0  0
  4  6  1  0  0  0
  6  7  2  0  0  0
  6 11  1  0  0  0
  7  8  1  0  0  0
  8  9  2  0  0  0
  9 10  1  0  0  0
 10 11  2  0  0  0
 11 12  1  0  0  0
 12 13  1  0  0  0
 13 14  2  0  0  0
 13 18  1  0  0  0
 14 15  1  0  0  0
 15 16  2  0  0  0
 16 17  1  0  0  0
 17 18  2  0  0  0
 21 24  1  0  0  0
  3 19  1  0  0  0
M  END
> <minimizedAffinity>
-10.51839

$$$$
1OM1_IQA_A_338


 24 27  0  0  0  0  0  0  0  0999 V2000
   21.2853    8.2661   19.6586 C   0  0  0  0  0  0  0  0  0  0  0  0
   22.0864    7.2083   19.6016 C   0  0  0  0  0  0  0  0  0  0  0  0
   22.2327    6.2734   20.6224 N   0  0  0  0  0  0  0  0  0  0  0  0
   23.1089    5.1709   20.4803 C   0  0  0  0  0  0  0  0  0  0  0  0
   23.2095    4.3503   21.4287 O   0  0  0  0  0  0  0  0  0  0  0  0
   23.9070    4.9795   19.2238 C   0  0  0  0  0  0  0  0  0  0  0  0
   24.7967    3.8574   19.0838 C   0  0  0  0  0  0  0  0  0  0  0  0
   25.5605    3.6706   17.8861 C   0  0  0  0  0  0  0  0  0  0  0  0
   25.4531    4.5871   16.8147 C   0  0  0  0  0  0  0  0  0  0  0  0
   24.5673    5.7231   16.9302 C   0  0  0  0  0  0  0  0  0  0  0  0
   23.7635    5.9568   18.1383 C   0  0  0  0  0  0  0  0  0  0  0  0
   22.8135    7.1054   18.3575 N   0  0  0  0  0  0  0  0  0  0  0  0
   22.4132    8.2204   17.5719 C   0  0  0  0  0  0  0  0  0  0  0  0
   21.4592    8.9726   18.3421 C   0  0  0  0  0  0  0  0  0  0  0  0
   20.8588   10.1840   17.7981 C   0  0  0  0  0  0  0  0  0  0  0  0
   21.2514   10.6010   16.4668 C   0  0  0  0  0  0  0  0  0  0  0  0
   22.1973    9.8507   15.7139 C   0  0  0  0  0  0  0  0  0  0  0  0
   22.7907    8.6586   16.2469 C   0  0  0  0  0  0  0  0  0  0  0  0
   21.7192    6.3806   21.4555 H   0  0  0  0  0  0  0  0  0  0  0  0
   20.4071    8.5152   20.9897 C   0  0  0  0  0  0  0  0  0  0  0  0
   20.8236    9.7302   23.2136 O   0  0  0  0  0  0  0  0  0  0  0  0
   20.8340    8.5218   22.4639 C   0  0  0  0  0  0  0  0  0  0  0  0
   21.2235    7.4293   23.0740 O   0  0  0  0  0  0  0  0  0  0  0  0
   20.5509   10.5301   22.8090 H   0  0  0  0  0  0  0  0  0  0  0  0
 21 22  1  0  0  0
 22 23  2  0  0  0
 22 20  1  0  0  0
 20  1  1  0  0  0
  1  2  2  0  0  0
  1 14  1  0  0  0
  2  3  1  0  0  0
  2 12  1  0  0  0
  3  4  1  0  0  0
  4  5  2  0  0  0
  4  6  1  0  0  0
  6  7  2  0  0  0
  6 11  1  0  0  0
  7  8  1  0  0  0
  8  9  2  0  0  0
  9 10  1  0  0  0
 10 11  2  0  0  0
 11 12  1  0  0  0
 12 13  1  0  0  0
 13 14  2  0  0  0
 13 18  1  0  0  0
 14 15  1  0  0  0
 15 16  2  0  0  0
 16 17  1  0  0  0
 17 18  2  0  0  0
 21 24  1  0  0  0
  3 19  1  0  0  0
M  END
> <minimizedAffinity>
-10.45972

$$$$
1OM1_IQA_A_338


 24 27  0  0  0  0  0  0  0  0999 V2000
   22.3017    8.3047   18.1270 C   0  0  0  0  0  0  0  0  0  0  0  0
   23.0923    7.2763   17.8414 C   0  0  0  0  0  0  0  0  0  0  0  0
   23.7157    7.0777   16.6129 N   0  0  0  0  0  0  0  0  0  0  0  0
   24.5458    5.9530   16.3907 C   0  0  0  0  0  0  0  0  0  0  0  0
   25.0895    5.8138   15.2647 O   0  0  0  0  0  0  0  0  0  0  0  0
   24.7764    4.9410   17.4746 C   0  0  0  0  0  0  0  0  0  0  0  0
   25.6209    3.7990   17.2443 C   0  0  0  0  0  0  0  0  0  0  0  0
   25.8439    2.8303   18.2761 C   0  0  0  0  0  0  0  0  0  0  0  0
   25.2381    2.9792   19.5450 C   0  0  0  0  0  0  0  0  0  0  0  0
   24.3846    4.1167   19.8019 C   0  0  0  0  0  0  0  0  0  0  0  0
   24.1261    5.1365   18.7756 C   0  0  0  0  0  0  0  0  0  0  0  0
   23.2561    6.3553   18.9422 N   0  0  0  0  0  0  0  0  0  0  0  0
   22.4821    6.8779   20.0139 C   0  0  0  0  0  0  0  0  0  0  0  0
   21.8692    8.0946   19.5523 C   0  0  0  0  0  0  0  0  0  0  0  0
   21.0075    8.8707   20.4349 C   0  0  0  0  0  0  0  0  0  0  0  0
   20.7913    8.3798   21.7812 C   0  0  0  0  0  0  0  0  0  0  0  0
   21.4008    7.1740   22.2275 C   0  0  0  0  0  0  0  0  0  0  0  0
   22.2487    6.4075   21.3609 C   0  0  0  0  0  0  0  0  0  0  0  0
   23.5771    7.7290   15.8878 H   0  0  0  0  0  0  0  0  0  0  0  0
   22.0227    9.4192   16.9934 C   0  0  0  0  0  0  0  0  0  0  0  0
   20.9124   11.7267   16.7995 O   0  0  0  0  0  0  0  0  0  0  0  0
   20.7930   10.3100   16.7701 C   0  0  0  0  0  0  0  0  0  0  0  0
   19.6043    9.8027   16.5529 O   0  0  0  0  0  0  0  0  0  0  0  0
   21.7474   12.1234   16.9523 H   0  0  0  0  0  0  0  0  0  0  0  0
 21 22  1  0  0  0
 22 23  2  0  0  0
 22 20  1  0  0  0
 20  1  1  0  0  0
  1  2  2  0  0  0
  1 14  1  0  0  0
  2  3  1  0  0  0
  2 12  1  0  0  0
  3  4  1  0  0  0
  4  5  2  0  0  0
  4  6  1  0  0  0
  6  7  2  0  0  0
  6 11  1  0  0  0
  7  8  1  0  0  0
  8  9  2  0  0  0
  9 10  1  0  0  0
 10 11  2  0  0  0
 11 12  1  0  0  0
 12 13  1  0  0  0
 13 14  2  0  0  0
 13 18  1  0  0  0
 14 15  1  0  0  0
 15 16  2  0  0  0
 16 17  1  0  0  0
 17 18  2  0  0  0
 21 24  1  0  0  0
  3 19  1  0  0  0
M  END
> <minimizedAffinity>
-10.09518

$$$$
