2FQY_ADN_A_400


 24 26  0  0  0  0  0  0  0  0999 V2000
   31.7575   59.8796   13.0971 C   0  0  0  0  0  0  0  0  0  0  0  0
   31.6488   59.9381   11.6339 O   0  0  0  0  0  0  0  0  0  0  0  0
   33.2636   60.1397   13.4335 C   0  0  0  0  0  0  0  0  0  0  0  0
   33.6487   59.5974   14.7174 O   0  0  0  0  0  0  0  0  0  0  0  0
   33.9334   59.4465   12.2247 C   0  0  0  0  0  0  0  0  0  0  0  0
   33.9605   58.0141   12.4152 O   0  0  0  0  0  0  0  0  0  0  0  0
   32.9959   59.8195   11.0685 C   0  0  0  0  0  0  0  0  0  0  0  0
   33.4472   58.6489   14.7414 H   0  0  0  0  0  0  0  0  0  0  0  0
   33.0583   57.6906   12.5642 H   0  0  0  0  0  0  0  0  0  0  0  0
   33.4169   61.0963   10.4381 N   0  0  0  0  0  0  0  0  0  0  0  0
   32.9784   62.3752   10.7408 C   0  0  0  0  0  0  0  0  0  0  0  0
   33.5260   63.2528    9.9455 N   0  0  0  0  0  0  0  0  0  0  0  0
   34.3298   62.6052    9.0749 C   0  0  0  0  0  0  0  0  0  0  0  0
   35.1466   63.0118    8.0076 C   0  0  0  0  0  0  0  0  0  0  0  0
   35.3104   64.3616    7.7398 N   0  0  0  0  0  0  0  0  0  0  0  0
   35.7679   62.0654    7.2800 N   0  0  0  0  0  0  0  0  0  0  0  0
   35.7116   60.7497    7.6112 C   0  0  0  0  0  0  0  0  0  0  0  0
   34.9991   60.3275    8.6355 N   0  0  0  0  0  0  0  0  0  0  0  0
   34.2803   61.2119    9.3760 C   0  0  0  0  0  0  0  0  0  0  0  0
   34.8435   65.0326    8.2885 H   0  0  0  0  0  0  0  0  0  0  0  0
   35.8937   64.6496    7.0009 H   0  0  0  0  0  0  0  0  0  0  0  0
   31.1736   62.2017   13.3632 O   0  0  0  0  0  0  0  0  0  0  0  0
   30.8247   60.8900   13.7738 C   0  0  0  0  0  0  0  0  0  0  0  0
   30.5838   62.8421   13.7910 H   0  0  0  0  0  0  0  0  0  0  0  0
 22 23  1  0  0  0
 23  1  1  0  0  0
  1  2  1  0  0  0
  1  3  1  0  0  0
  2  7  1  0  0  0
  3  4  1  0  0  0
  3  5  1  0  0  0
  5  6  1  0  0  0
  5  7  1  0  0  0
  7 10  1  0  0  0
 10 11  1  0  0  0
 10 19  1  0  0  0
 11 12  2  0  0  0
 12 13  1  0  0  0
 13 14  1  0  0  0
 13 19  2  0  0  0
 14 15  1  0  0  0
 14 16  2  0  0  0
 16 17  1  0  0  0
 17 18  2  0  0  0
 18 19  1  0  0  0
 22 24  1  0  0  0
  4  8  1  0  0  0
  6  9  1  0  0  0
 15 20  1  0  0  0
 15 21  1  0  0  0
M  END
> <minimizedAffinity>
-9.63938

$$$$
2FQY_ADN_A_400


 24 26  0  0  0  0  0  0  0  0999 V2000
   32.4370   60.4825   12.4051 C   0  0  0  0  0  0  0  0  0  0  0  0
   32.2601   60.1872   10.9776 O   0  0  0  0  0  0  0  0  0  0  0  0
   33.9633   60.3040   12.7017 C   0  0  0  0  0  0  0  0  0  0  0  0
   34.2302   60.0219   14.0945 O   0  0  0  0  0  0  0  0  0  0  0  0
   34.2893   59.1355   11.7432 C   0  0  0  0  0  0  0  0  0  0  0  0
   33.8566   57.8796   12.3125 O   0  0  0  0  0  0  0  0  0  0  0  0
   33.4544   59.4821   10.5033 C   0  0  0  0  0  0  0  0  0  0  0  0
   33.7302   59.2365   14.3669 H   0  0  0  0  0  0  0  0  0  0  0  0
   32.9096   57.9267   12.5175 H   0  0  0  0  0  0  0  0  0  0  0  0
   34.2302   60.3322    9.5650 N   0  0  0  0  0  0  0  0  0  0  0  0
   35.2137   59.9317    8.6750 C   0  0  0  0  0  0  0  0  0  0  0  0
   35.7169   60.9592    8.0479 N   0  0  0  0  0  0  0  0  0  0  0  0
   35.1129   62.0795    8.4992 C   0  0  0  0  0  0  0  0  0  0  0  0
   35.2454   63.4474    8.2112 C   0  0  0  0  0  0  0  0  0  0  0  0
   36.0963   63.8597    7.1980 N   0  0  0  0  0  0  0  0  0  0  0  0
   34.5176   64.3257    8.9254 N   0  0  0  0  0  0  0  0  0  0  0  0
   33.5916   63.9235    9.8335 C   0  0  0  0  0  0  0  0  0  0  0  0
   33.3968   62.6482   10.0993 N   0  0  0  0  0  0  0  0  0  0  0  0
   34.1451   61.7003    9.4759 C   0  0  0  0  0  0  0  0  0  0  0  0
   36.6170   63.1951    6.6915 H   0  0  0  0  0  0  0  0  0  0  0  0
   36.1802   64.8171    6.9848 H   0  0  0  0  0  0  0  0  0  0  0  0
   30.6631   61.7878   13.3815 O   0  0  0  0  0  0  0  0  0  0  0  0
   31.9332   61.8861   12.7585 C   0  0  0  0  0  0  0  0  0  0  0  0
   30.3433   62.6757   13.6056 H   0  0  0  0  0  0  0  0  0  0  0  0
 22 23  1  0  0  0
 23  1  1  0  0  0
  1  2  1  0  0  0
  1  3  1  0  0  0
  2  7  1  0  0  0
  3  4  1  0  0  0
  3  5  1  0  0  0
  5  6  1  0  0  0
  5  7  1  0  0  0
  7 10  1  0  0  0
 10 11  1  0  0  0
 10 19  1  0  0  0
 11 12  2  0  0  0
 12 13  1  0  0  0
 13 14  1  0  0  0
 13 19  2  0  0  0
 14 15  1  0  0  0
 14 16  2  0  0  0
 16 17  1  0  0  0
 17 18  2  0  0  0
 18 19  1  0  0  0
 22 24  1  0  0  0
  4  8  1  0  0  0
  6  9  1  0  0  0
 15 20  1  0  0  0
 15 21  1  0  0  0
M  END
> <minimizedAffinity>
-8.21595

$$$$
