2FQY_ADN_A_400
  RCSB PDB12061705353D
Coordinates from PDB:2FQY:A:400 Model:1 without hydrogens
 19 21  0  0  0  0            999 V2000
   31.3630   62.3670   13.1940   O 0  0  0  0  0  0  0  0  0  0  0  0
   31.0520   61.0970   13.7430   C 0  0  0  0  0  0  0  0  0  0  0  0
   31.9130   60.0250   13.0660   C 0  0  0  0  0  0  0  0  0  0  0  0
   31.7390   60.0320   11.6080   O 0  0  0  0  0  0  0  0  0  0  0  0
   33.4420   60.2370   13.3240   C 0  0  0  0  0  0  0  0  0  0  0  0
   33.8650   59.7290   14.6100   O 0  0  0  0  0  0  0  0  0  0  0  0
   34.0280   59.4720   12.1150   C 0  0  0  0  0  0  0  0  0  0  0  0
   34.0090   58.0480   12.3610   O 0  0  0  0  0  0  0  0  0  0  0  0
   33.0530   59.8380   10.9880   C 0  0  0  0  0  0  0  0  0  0  0  0
   33.4930   61.0720   10.2890   N 0  0  0  0  0  0  0  0  0  0  0  0
   33.1090   62.3770   10.5520   C 0  0  0  0  0  0  0  0  0  0  0  0
   33.6560   63.2010    9.7010   N 0  0  0  0  0  0  0  0  0  0  0  0
   34.4050   62.4900    8.8310   C 0  0  0  0  0  0  0  0  0  0  0  0
   35.1950   62.8230    7.7190   C 0  0  0  0  0  0  0  0  0  0  0  0
   35.3940   64.1540    7.3880   N 0  0  0  0  0  0  0  0  0  0  0  0
   35.7570   61.8260    7.0110   N 0  0  0  0  0  0  0  0  0  0  0  0
   35.6690   60.5280    7.4000   C 0  0  0  0  0  0  0  0  0  0  0  0
   34.9810   60.1740    8.4660   N 0  0  0  0  0  0  0  0  0  0  0  0
   34.3200   61.1130    9.1930   C 0  0  0  0  0  0  0  0  0  0  0  0
  1  2  1  0  0  0  0
  2  3  1  0  0  0  0
  3  4  1  0  0  0  0
  3  5  1  0  0  0  0
  4  9  1  0  0  0  0
  5  6  1  0  0  0  0
  5  7  1  0  0  0  0
  7  8  1  0  0  0  0
  7  9  1  0  0  0  0
  9 10  1  0  0  0  0
 10 11  1  0  0  0  0
 10 19  1  0  0  0  0
 11 12  2  0  0  0  0
 12 13  1  0  0  0  0
 13 14  1  0  0  0  0
 13 19  2  0  0  0  0
 14 15  1  0  0  0  0
 14 16  2  0  0  0  0
 16 17  1  0  0  0  0
 17 18  2  0  0  0  0
 18 19  1  0  0  0  0
A    1
O5'
A    2
C5'
A    3
C4'
A    4
O4'
A    5
C3'
A    6
O3'
A    7
C2'
A    8
O2'
A    9
C1'
A   10
N9
A   11
C8
A   12
N7
A   13
C5
A   14
C6
A   15
N6
A   16
N1
A   17
C2
A   18
N3
A   19
C4
M  END
>  <InstanceId>
2FQY_ADN_A_400

>  <ChemCompId>
ADN

>  <PdbId>
2FQY

>  <ChainId>
A

>  <ResidueNumber>
400

>  <InsertionCode>


>  <Model>
1

>  <AltIds>


>  <MissingHeavyAtoms>
0

>  <ObservedFormula>
C10 N5 O4

>  <Name>
ADENOSINE

>  <SystematicName>
(2R,3R,4S,5R)-2-(6-aminopurin-9-yl)-5-(hydroxymethyl)oxolane-3,4-diol

>  <Synonyms>


>  <Type>
NON-POLYMER

>  <Formula>
C10 H13 N5 O4

>  <MolecularWeight>
267.241

>  <ModifiedDate>
2011-06-04

>  <Parent>


>  <OneLetterCode>


>  <SubcomponentList>


>  <AmbiguousFlag>
N

>  <InChI>
InChI=1S/C10H13N5O4/c11-8-5-9(13-2-12-8)15(3-14-5)10-7(18)6(17)4(1-16)19-10/h2-4,6-7,10,16-18H,1H2,(H2,11,12,13)/t4-,6-,7-,10-/m1/s1

>  <InChIKey>
OIRDTQYFTABQOQ-KQYNXXCUSA-N

>  <SMILES>
c1nc(c2c(n1)n(cn2)[C@H]3[C@@H]([C@@H]([C@H](O3)CO)O)O)N

$$$$
