1RPF_C3P_A_125


 27 28  0  0  0  0  0  0  0  0999 V2000
  -12.2598   52.1917    6.6959 C   0  0  0  0  0  0  0  0  0  0  0  0
  -11.3451   53.2086    6.1618 O   0  0  0  0  0  0  0  0  0  0  0  0
  -11.5766   50.8836    6.4313 C   0  0  0  0  0  0  0  0  0  0  0  0
  -10.4939   51.1923    5.4009 C   0  0  0  0  0  0  0  0  0  0  0  0
  -10.6568   50.4346    4.1833 O   0  0  0  0  0  0  0  0  0  0  0  0
  -10.1652   52.6334    5.6297 C   0  0  0  0  0  0  0  0  0  0  0  0
  -11.5531   50.5674    3.8373 H   0  0  0  0  0  0  0  0  0  0  0  0
   -9.0737   52.9512    6.5053 N   0  0  0  0  0  0  0  0  0  0  0  0
   -7.8762   52.4268    6.2243 C   0  0  0  0  0  0  0  0  0  0  0  0
   -6.8232   52.7980    6.9698 N   0  0  0  0  0  0  0  0  0  0  0  0
   -6.9671   53.6237    8.0042 C   0  0  0  0  0  0  0  0  0  0  0  0
   -8.2263   54.1406    8.3093 C   0  0  0  0  0  0  0  0  0  0  0  0
   -9.2390   53.8268    7.5372 C   0  0  0  0  0  0  0  0  0  0  0  0
   -7.8032   51.6592    5.2924 O   0  0  0  0  0  0  0  0  0  0  0  0
   -5.9746   54.0318    8.7817 N   0  0  0  0  0  0  0  0  0  0  0  0
   -5.0591   53.7065    8.6228 H   0  0  0  0  0  0  0  0  0  0  0  0
   -6.1528   54.6604    9.5181 H   0  0  0  0  0  0  0  0  0  0  0  0
  -11.9408   51.7595    9.0489 O   0  0  0  0  0  0  0  0  0  0  0  0
  -12.8527   52.3276    8.1220 C   0  0  0  0  0  0  0  0  0  0  0  0
  -12.3007   51.8383    9.9462 H   0  0  0  0  0  0  0  0  0  0  0  0
  -12.4123   49.8344    6.0785 O   0  0  0  0  0  0  0  0  0  0  0  0
  -12.5885   48.5126    6.9784 P   0  0  0  0  0  0  0  0  0  0  0  0
  -13.9843   48.0192    6.8106 O   0  0  0  0  0  0  0  0  0  0  0  0
  -12.4077   48.9363    8.4143 O   0  0  0  0  0  0  0  0  0  0  0  0
  -11.4883   47.6133    6.5316 O   0  0  0  0  0  0  0  0  0  0  0  0
  -12.5066   48.1648    8.9940 H   0  0  0  0  0  0  0  0  0  0  0  0
  -11.5253   46.7836    7.0327 H   0  0  0  0  0  0  0  0  0  0  0  0
 22 23  2  0  0  0
 22 24  1  0  0  0
 22 25  1  0  0  0
 22 21  1  0  0  0
 18 19  1  0  0  0
 19  1  1  0  0  0
  1  2  1  0  0  0
  1  3  1  0  0  0
  2  6  1  0  0  0
  3 21  1  0  0  0
  3  4  1  0  0  0
  4  5  1  0  0  0
  4  6  1  0  0  0
  6  8  1  0  0  0
  8  9  1  0  0  0
  8 13  1  0  0  0
  9 10  1  0  0  0
  9 14  2  0  0  0
 10 11  2  0  0  0
 11 12  1  0  0  0
 11 15  1  0  0  0
 12 13  2  0  0  0
 24 26  1  0  0  0
 25 27  1  0  0  0
 18 20  1  0  0  0
  5  7  1  0  0  0
 15 16  1  0  0  0
 15 17  1  0  0  0
M  END
> <minimizedAffinity>
-7.05708

$$$$
1RPF_C3P_A_125


 27 28  0  0  0  0  0  0  0  0999 V2000
  -10.1398   51.4838    5.1809 C   0  0  0  0  0  0  0  0  0  0  0  0
  -11.2056   50.8218    4.4180 O   0  0  0  0  0  0  0  0  0  0  0  0
  -10.8094   51.9761    6.4287 C   0  0  0  0  0  0  0  0  0  0  0  0
  -12.3059   51.9235    6.1340 C   0  0  0  0  0  0  0  0  0  0  0  0
  -12.9380   53.2161    6.2482 O   0  0  0  0  0  0  0  0  0  0  0  0
  -12.4433   50.8455    5.1062 C   0  0  0  0  0  0  0  0  0  0  0  0
  -12.4680   53.8563    5.6913 H   0  0  0  0  0  0  0  0  0  0  0  0
  -12.7369   49.5138    5.5528 N   0  0  0  0  0  0  0  0  0  0  0  0
  -13.6410   48.8103    4.8631 C   0  0  0  0  0  0  0  0  0  0  0  0
  -13.8495   47.5281    5.2020 N   0  0  0  0  0  0  0  0  0  0  0  0
  -13.2185   46.9767    6.2365 C   0  0  0  0  0  0  0  0  0  0  0  0
  -12.3005   47.7283    6.9700 C   0  0  0  0  0  0  0  0  0  0  0  0
  -12.0519   48.9597    6.5932 C   0  0  0  0  0  0  0  0  0  0  0  0
  -14.2083   49.3654    3.9504 O   0  0  0  0  0  0  0  0  0  0  0  0
  -13.3749   45.7200    6.6271 N   0  0  0  0  0  0  0  0  0  0  0  0
  -14.0072   45.1324    6.1537 H   0  0  0  0  0  0  0  0  0  0  0  0
  -12.8586   45.3741    7.3907 H   0  0  0  0  0  0  0  0  0  0  0  0
   -7.7740   51.7708    5.5623 O   0  0  0  0  0  0  0  0  0  0  0  0
   -8.7793   50.7797    5.4193 C   0  0  0  0  0  0  0  0  0  0  0  0
   -6.9167   51.3425    5.7121 H   0  0  0  0  0  0  0  0  0  0  0  0
  -10.3670   53.2035    6.8990 O   0  0  0  0  0  0  0  0  0  0  0  0
   -9.6979   53.3978    8.3491 P   0  0  0  0  0  0  0  0  0  0  0  0
   -9.1465   54.7800    8.4247 O   0  0  0  0  0  0  0  0  0  0  0  0
   -8.5475   52.4263    8.4314 O   0  0  0  0  0  0  0  0  0  0  0  0
  -10.7826   53.0424    9.3060 O   0  0  0  0  0  0  0  0  0  0  0  0
   -8.1139   52.5110    9.2950 H   0  0  0  0  0  0  0  0  0  0  0  0
  -10.4554   53.1349   10.2145 H   0  0  0  0  0  0  0  0  0  0  0  0
 22 23  2  0  0  0
 22 24  1  0  0  0
 22 25  1  0  0  0
 22 21  1  0  0  0
 18 19  1  0  0  0
 19  1  1  0  0  0
  1  2  1  0  0  0
  1  3  1  0  0  0
  2  6  1  0  0  0
  3 21  1  0  0  0
  3  4  1  0  0  0
  4  5  1  0  0  0
  4  6  1  0  0  0
  6  8  1  0  0  0
  8  9  1  0  0  0
  8 13  1  0  0  0
  9 10  1  0  0  0
  9 14  2  0  0  0
 10 11  2  0  0  0
 11 12  1  0  0  0
 11 15  1  0  0  0
 12 13  2  0  0  0
 24 26  1  0  0  0
 25 27  1  0  0  0
 18 20  1  0  0  0
  5  7  1  0  0  0
 15 16  1  0  0  0
 15 17  1  0  0  0
M  END
> <minimizedAffinity>
-7.02175

$$$$
1RPF_C3P_A_125


 27 28  0  0  0  0  0  0  0  0999 V2000
  -12.5612   52.2296    6.3876 C   0  0  0  0  0  0  0  0  0  0  0  0
  -11.4845   52.9318    5.6779 O   0  0  0  0  0  0  0  0  0  0  0  0
  -12.0235   50.8522    6.6354 C   0  0  0  0  0  0  0  0  0  0  0  0
  -10.8237   50.7111    5.7028 C   0  0  0  0  0  0  0  0  0  0  0  0
  -10.9696   49.6145    4.7756 O   0  0  0  0  0  0  0  0  0  0  0  0
  -10.3418   52.1131    5.5046 C   0  0  0  0  0  0  0  0  0  0  0  0
  -11.8085   49.7052    4.2971 H   0  0  0  0  0  0  0  0  0  0  0  0
   -9.3017   52.6024    6.3637 N   0  0  0  0  0  0  0  0  0  0  0  0
   -8.0554   52.1721    6.1410 C   0  0  0  0  0  0  0  0  0  0  0  0
   -7.0561   52.7002    6.8654 N   0  0  0  0  0  0  0  0  0  0  0  0
   -7.2961   53.5898    7.8262 C   0  0  0  0  0  0  0  0  0  0  0  0
   -8.6036   54.0089    8.0728 C   0  0  0  0  0  0  0  0  0  0  0  0
   -9.5676   53.5395    7.3176 C   0  0  0  0  0  0  0  0  0  0  0  0
   -7.8933   51.3416    5.2766 O   0  0  0  0  0  0  0  0  0  0  0  0
   -6.3611   54.1515    8.5788 N   0  0  0  0  0  0  0  0  0  0  0  0
   -5.4164   53.9020    8.4581 H   0  0  0  0  0  0  0  0  0  0  0  0
   -6.6111   54.8183    9.2586 H   0  0  0  0  0  0  0  0  0  0  0  0
  -13.0861   52.0226    8.7342 O   0  0  0  0  0  0  0  0  0  0  0  0
  -13.2573   52.8754    7.6132 C   0  0  0  0  0  0  0  0  0  0  0  0
  -13.5177   52.4160    9.5087 H   0  0  0  0  0  0  0  0  0  0  0  0
  -12.9472   49.8230    6.5305 O   0  0  0  0  0  0  0  0  0  0  0  0
  -12.9058   48.5092    7.4582 P   0  0  0  0  0  0  0  0  0  0  0  0
  -11.9729   47.5293    6.8342 O   0  0  0  0  0  0  0  0  0  0  0  0
  -14.2930   47.9182    7.4379 O   0  0  0  0  0  0  0  0  0  0  0  0
  -12.5512   49.0239    8.8102 O   0  0  0  0  0  0  0  0  0  0  0  0
  -14.3122   47.1195    7.9880 H   0  0  0  0  0  0  0  0  0  0  0  0
  -12.5055   48.2842    9.4360 H   0  0  0  0  0  0  0  0  0  0  0  0
 22 23  2  0  0  0
 22 24  1  0  0  0
 22 25  1  0  0  0
 22 21  1  0  0  0
 18 19  1  0  0  0
 19  1  1  0  0  0
  1  2  1  0  0  0
  1  3  1  0  0  0
  2  6  1  0  0  0
  3 21  1  0  0  0
  3  4  1  0  0  0
  4  5  1  0  0  0
  4  6  1  0  0  0
  6  8  1  0  0  0
  8  9  1  0  0  0
  8 13  1  0  0  0
  9 10  1  0  0  0
  9 14  2  0  0  0
 10 11  2  0  0  0
 11 12  1  0  0  0
 11 15  1  0  0  0
 12 13  2  0  0  0
 24 26  1  0  0  0
 25 27  1  0  0  0
 18 20  1  0  0  0
  5  7  1  0  0  0
 15 16  1  0  0  0
 15 17  1  0  0  0
M  END
> <minimizedAffinity>
-6.92546

$$$$
1RPF_C3P_A_125


 27 28  0  0  0  0  0  0  0  0999 V2000
   -9.9437   51.2052    6.2573 C   0  0  0  0  0  0  0  0  0  0  0  0
  -10.0622   52.5136    6.9132 O   0  0  0  0  0  0  0  0  0  0  0  0
  -11.3136   50.6032    6.3506 C   0  0  0  0  0  0  0  0  0  0  0  0
  -12.0465   51.4242    7.4079 C   0  0  0  0  0  0  0  0  0  0  0  0
  -12.4951   50.6205    8.5197 O   0  0  0  0  0  0  0  0  0  0  0  0
  -11.3817   52.7633    7.3634 C   0  0  0  0  0  0  0  0  0  0  0  0
  -11.7452   50.1241    8.8832 H   0  0  0  0  0  0  0  0  0  0  0  0
  -11.9573   53.7810    6.5313 N   0  0  0  0  0  0  0  0  0  0  0  0
  -11.9619   55.0355    6.9939 C   0  0  0  0  0  0  0  0  0  0  0  0
  -12.3988   56.0147    6.1861 N   0  0  0  0  0  0  0  0  0  0  0  0
  -12.8734   55.7467    4.9715 C   0  0  0  0  0  0  0  0  0  0  0  0
  -12.8943   54.4306    4.5097 C   0  0  0  0  0  0  0  0  0  0  0  0
  -12.4047   53.4867    5.2775 C   0  0  0  0  0  0  0  0  0  0  0  0
  -11.5473   55.2231    8.1146 O   0  0  0  0  0  0  0  0  0  0  0  0
  -13.3202   56.6608    4.1224 N   0  0  0  0  0  0  0  0  0  0  0  0
  -13.3336   57.6100    4.3831 H   0  0  0  0  0  0  0  0  0  0  0  0
  -13.6386   56.3906    3.2308 H   0  0  0  0  0  0  0  0  0  0  0  0
  -10.2712   50.6904    3.9222 O   0  0  0  0  0  0  0  0  0  0  0  0
   -9.2800   51.0735    4.8624 C   0  0  0  0  0  0  0  0  0  0  0  0
   -9.8681   50.6045    3.0442 H   0  0  0  0  0  0  0  0  0  0  0  0
  -11.3503   49.2342    6.5700 O   0  0  0  0  0  0  0  0  0  0  0  0
  -12.4304   48.2635    5.8777 P   0  0  0  0  0  0  0  0  0  0  0  0
  -13.7867   48.6761    6.3360 O   0  0  0  0  0  0  0  0  0  0  0  0
  -12.1607   46.8730    6.3951 O   0  0  0  0  0  0  0  0  0  0  0  0
  -12.1407   48.3698    4.4205 O   0  0  0  0  0  0  0  0  0  0  0  0
  -12.7935   46.2527    6.0004 H   0  0  0  0  0  0  0  0  0  0  0  0
  -12.7569   47.8067    3.9264 H   0  0  0  0  0  0  0  0  0  0  0  0
 22 23  2  0  0  0
 22 24  1  0  0  0
 22 25  1  0  0  0
 22 21  1  0  0  0
 18 19  1  0  0  0
 19  1  1  0  0  0
  1  2  1  0  0  0
  1  3  1  0  0  0
  2  6  1  0  0  0
  3 21  1  0  0  0
  3  4  1  0  0  0
  4  5  1  0  0  0
  4  6  1  0  0  0
  6  8  1  0  0  0
  8  9  1  0  0  0
  8 13  1  0  0  0
  9 10  1  0  0  0
  9 14  2  0  0  0
 10 11  2  0  0  0
 11 12  1  0  0  0
 11 15  1  0  0  0
 12 13  2  0  0  0
 24 26  1  0  0  0
 25 27  1  0  0  0
 18 20  1  0  0  0
  5  7  1  0  0  0
 15 16  1  0  0  0
 15 17  1  0  0  0
M  END
> <minimizedAffinity>
-6.33553

$$$$
1RPF_C3P_A_125


 27 28  0  0  0  0  0  0  0  0999 V2000
  -13.3321   51.0474    7.8892 C   0  0  0  0  0  0  0  0  0  0  0  0
  -13.0534   52.4671    7.6385 O   0  0  0  0  0  0  0  0  0  0  0  0
  -12.7456   50.3271    6.7123 C   0  0  0  0  0  0  0  0  0  0  0  0
  -12.5152   51.4012    5.6528 C   0  0  0  0  0  0  0  0  0  0  0  0
  -13.2387   51.1380    4.4318 O   0  0  0  0  0  0  0  0  0  0  0  0
  -12.3288   52.6611    6.4371 C   0  0  0  0  0  0  0  0  0  0  0  0
  -14.1780   51.0060    4.6346 H   0  0  0  0  0  0  0  0  0  0  0  0
  -10.9926   53.0600    6.7754 N   0  0  0  0  0  0  0  0  0  0  0  0
  -10.7657   54.3601    6.9898 C   0  0  0  0  0  0  0  0  0  0  0  0
   -9.5479   54.7372    7.4106 N   0  0  0  0  0  0  0  0  0  0  0  0
   -8.5644   53.8522    7.5581 C   0  0  0  0  0  0  0  0  0  0  0  0
   -8.8019   52.5019    7.3011 C   0  0  0  0  0  0  0  0  0  0  0  0
  -10.0112   52.1307    6.9547 C   0  0  0  0  0  0  0  0  0  0  0  0
  -11.6839   55.1277    6.8139 O   0  0  0  0  0  0  0  0  0  0  0  0
   -7.3407   54.1524    7.9687 N   0  0  0  0  0  0  0  0  0  0  0  0
   -7.1039   55.0869    8.1684 H   0  0  0  0  0  0  0  0  0  0  0  0
   -6.6684   53.4410    8.0739 H   0  0  0  0  0  0  0  0  0  0  0  0
  -12.5304   49.0852    9.0433 O   0  0  0  0  0  0  0  0  0  0  0  0
  -13.0051   50.4044    9.2615 C   0  0  0  0  0  0  0  0  0  0  0  0
  -12.3220   48.6714    9.8955 H   0  0  0  0  0  0  0  0  0  0  0  0
  -13.4680   49.2322    6.2620 O   0  0  0  0  0  0  0  0  0  0  0  0
  -12.7741   47.8767    5.7430 P   0  0  0  0  0  0  0  0  0  0  0  0
  -13.7919   46.7893    5.7828 O   0  0  0  0  0  0  0  0  0  0  0  0
  -11.6852   47.5395    6.7303 O   0  0  0  0  0  0  0  0  0  0  0  0
  -12.2119   48.2370    4.4116 O   0  0  0  0  0  0  0  0  0  0  0  0
  -11.2389   46.7241    6.4533 H   0  0  0  0  0  0  0  0  0  0  0  0
  -11.7708   47.4635    4.0268 H   0  0  0  0  0  0  0  0  0  0  0  0
 22 23  2  0  0  0
 22 24  1  0  0  0
 22 25  1  0  0  0
 22 21  1  0  0  0
 18 19  1  0  0  0
 19  1  1  0  0  0
  1  2  1  0  0  0
  1  3  1  0  0  0
  2  6  1  0  0  0
  3 21  1  0  0  0
  3  4  1  0  0  0
  4  5  1  0  0  0
  4  6  1  0  0  0
  6  8  1  0  0  0
  8  9  1  0  0  0
  8 13  1  0  0  0
  9 10  1  0  0  0
  9 14  2  0  0  0
 10 11  2  0  0  0
 11 12  1  0  0  0
 11 15  1  0  0  0
 12 13  2  0  0  0
 24 26  1  0  0  0
 25 27  1  0  0  0
 18 20  1  0  0  0
  5  7  1  0  0  0
 15 16  1  0  0  0
 15 17  1  0  0  0
M  END
> <minimizedAffinity>
-6.29666

$$$$
1RPF_C3P_A_125


 27 28  0  0  0  0  0  0  0  0999 V2000
  -12.6363   51.0733    4.9679 C   0  0  0  0  0  0  0  0  0  0  0  0
  -11.2205   51.1220    4.5814 O   0  0  0  0  0  0  0  0  0  0  0  0
  -12.6561   50.3111    6.2588 C   0  0  0  0  0  0  0  0  0  0  0  0
  -11.2998   49.6159    6.3405 C   0  0  0  0  0  0  0  0  0  0  0  0
  -11.4183   48.1797    6.4219 O   0  0  0  0  0  0  0  0  0  0  0  0
  -10.3884   50.4866    5.5353 C   0  0  0  0  0  0  0  0  0  0  0  0
  -11.9614   47.8578    5.6855 H   0  0  0  0  0  0  0  0  0  0  0  0
   -9.6332   51.4970    6.2195 N   0  0  0  0  0  0  0  0  0  0  0  0
   -8.3119   51.5312    6.0176 C   0  0  0  0  0  0  0  0  0  0  0  0
   -7.6059   52.5335    6.5647 N   0  0  0  0  0  0  0  0  0  0  0  0
   -8.1891   53.4449    7.3403 C   0  0  0  0  0  0  0  0  0  0  0  0
   -9.5634   53.3824    7.5712 C   0  0  0  0  0  0  0  0  0  0  0  0
  -10.2583   52.4400    6.9803 C   0  0  0  0  0  0  0  0  0  0  0  0
   -7.8256   50.6639    5.3289 O   0  0  0  0  0  0  0  0  0  0  0  0
   -7.5560   54.4592    7.9118 N   0  0  0  0  0  0  0  0  0  0  0  0
   -6.5847   54.5643    7.7906 H   0  0  0  0  0  0  0  0  0  0  0  0
   -8.0570   55.1075    8.4576 H   0  0  0  0  0  0  0  0  0  0  0  0
  -14.5060   52.2283    5.9653 O   0  0  0  0  0  0  0  0  0  0  0  0
  -13.5035   52.3584    4.9696 C   0  0  0  0  0  0  0  0  0  0  0  0
  -15.0562   53.0272    5.9765 H   0  0  0  0  0  0  0  0  0  0  0  0
  -13.7393   49.4630    6.4347 O   0  0  0  0  0  0  0  0  0  0  0  0
  -14.4692   48.7079    5.2159 P   0  0  0  0  0  0  0  0  0  0  0  0
  -15.5467   49.5968    4.6975 O   0  0  0  0  0  0  0  0  0  0  0  0
  -15.1139   47.4727    5.7927 O   0  0  0  0  0  0  0  0  0  0  0  0
  -13.3622   48.3607    4.2817 O   0  0  0  0  0  0  0  0  0  0  0  0
  -15.5676   46.9854    5.0873 H   0  0  0  0  0  0  0  0  0  0  0  0
  -13.7236   47.8968    3.5104 H   0  0  0  0  0  0  0  0  0  0  0  0
 22 23  2  0  0  0
 22 24  1  0  0  0
 22 25  1  0  0  0
 22 21  1  0  0  0
 18 19  1  0  0  0
 19  1  1  0  0  0
  1  2  1  0  0  0
  1  3  1  0  0  0
  2  6  1  0  0  0
  3 21  1  0  0  0
  3  4  1  0  0  0
  4  5  1  0  0  0
  4  6  1  0  0  0
  6  8  1  0  0  0
  8  9  1  0  0  0
  8 13  1  0  0  0
  9 10  1  0  0  0
  9 14  2  0  0  0
 10 11  2  0  0  0
 11 12  1  0  0  0
 11 15  1  0  0  0
 12 13  2  0  0  0
 24 26  1  0  0  0
 25 27  1  0  0  0
 18 20  1  0  0  0
  5  7  1  0  0  0
 15 16  1  0  0  0
 15 17  1  0  0  0
M  END
> <minimizedAffinity>
-6.13805

$$$$
1RPF_C3P_A_125


 27 28  0  0  0  0  0  0  0  0999 V2000
  -13.1139   51.1272    6.4937 C   0  0  0  0  0  0  0  0  0  0  0  0
  -14.2377   50.1857    6.5760 O   0  0  0  0  0  0  0  0  0  0  0  0
  -12.0549   50.3952    5.7253 C   0  0  0  0  0  0  0  0  0  0  0  0
  -12.4739   48.9279    5.7539 C   0  0  0  0  0  0  0  0  0  0  0  0
  -11.4795   48.0804    6.3672 O   0  0  0  0  0  0  0  0  0  0  0  0
  -13.9616   48.9705    5.9030 C   0  0  0  0  0  0  0  0  0  0  0  0
  -11.2589   48.4251    7.2467 H   0  0  0  0  0  0  0  0  0  0  0  0
  -14.7657   48.9195    4.7155 N   0  0  0  0  0  0  0  0  0  0  0  0
  -15.1880   47.7209    4.2998 C   0  0  0  0  0  0  0  0  0  0  0  0
  -16.0277   47.6648    3.2537 N   0  0  0  0  0  0  0  0  0  0  0  0
  -16.3917   48.7668    2.6016 C   0  0  0  0  0  0  0  0  0  0  0  0
  -15.9203   50.0101    3.0231 C   0  0  0  0  0  0  0  0  0  0  0  0
  -15.1538   50.0649    4.0859 C   0  0  0  0  0  0  0  0  0  0  0  0
  -14.8057   46.7479    4.9082 O   0  0  0  0  0  0  0  0  0  0  0  0
  -17.2151   48.7863    1.5634 N   0  0  0  0  0  0  0  0  0  0  0  0
  -17.5858   47.9442    1.2132 H   0  0  0  0  0  0  0  0  0  0  0  0
  -17.4561   49.6429    1.1423 H   0  0  0  0  0  0  0  0  0  0  0  0
  -12.2353   53.3750    6.4711 O   0  0  0  0  0  0  0  0  0  0  0  0
  -13.3374   52.5925    6.0392 C   0  0  0  0  0  0  0  0  0  0  0  0
  -12.3632   54.2953    6.1925 H   0  0  0  0  0  0  0  0  0  0  0  0
  -10.7515   50.6207    6.1420 O   0  0  0  0  0  0  0  0  0  0  0  0
   -9.6067   51.1963    5.1692 P   0  0  0  0  0  0  0  0  0  0  0  0
   -8.2878   50.7156    5.6688 O   0  0  0  0  0  0  0  0  0  0  0  0
   -9.6406   52.6984    5.2983 O   0  0  0  0  0  0  0  0  0  0  0  0
  -10.0233   50.7554    3.8088 O   0  0  0  0  0  0  0  0  0  0  0  0
   -8.9619   53.0876    4.7248 H   0  0  0  0  0  0  0  0  0  0  0  0
   -9.3768   51.0665    3.1560 H   0  0  0  0  0  0  0  0  0  0  0  0
 22 23  2  0  0  0
 22 24  1  0  0  0
 22 25  1  0  0  0
 22 21  1  0  0  0
 18 19  1  0  0  0
 19  1  1  0  0  0
  1  2  1  0  0  0
  1  3  1  0  0  0
  2  6  1  0  0  0
  3 21  1  0  0  0
  3  4  1  0  0  0
  4  5  1  0  0  0
  4  6  1  0  0  0
  6  8  1  0  0  0
  8  9  1  0  0  0
  8 13  1  0  0  0
  9 10  1  0  0  0
  9 14  2  0  0  0
 10 11  2  0  0  0
 11 12  1  0  0  0
 11 15  1  0  0  0
 12 13  2  0  0  0
 24 26  1  0  0  0
 25 27  1  0  0  0
 18 20  1  0  0  0
  5  7  1  0  0  0
 15 16  1  0  0  0
 15 17  1  0  0  0
M  END
> <minimizedAffinity>
-6.00828

$$$$
1RPF_C3P_A_125


 27 28  0  0  0  0  0  0  0  0999 V2000
  -13.3884   48.8407    6.9859 C   0  0  0  0  0  0  0  0  0  0  0  0
  -12.7011   49.8412    7.8123 O   0  0  0  0  0  0  0  0  0  0  0  0
  -13.9159   49.6092    5.8116 C   0  0  0  0  0  0  0  0  0  0  0  0
  -13.8505   51.0770    6.2246 C   0  0  0  0  0  0  0  0  0  0  0  0
  -15.1442   51.7166    6.2005 O   0  0  0  0  0  0  0  0  0  0  0  0
  -12.7420   51.1305    7.2273 C   0  0  0  0  0  0  0  0  0  0  0  0
  -15.7687   51.2032    6.7365 H   0  0  0  0  0  0  0  0  0  0  0  0
  -11.4233   51.4588    6.7663 N   0  0  0  0  0  0  0  0  0  0  0  0
  -10.8216   52.5238    7.3062 C   0  0  0  0  0  0  0  0  0  0  0  0
   -9.5492   52.7825    6.9647 N   0  0  0  0  0  0  0  0  0  0  0  0
   -8.9110   52.0362    6.0658 C   0  0  0  0  0  0  0  0  0  0  0  0
   -9.5580   50.9460    5.4840 C   0  0  0  0  0  0  0  0  0  0  0  0
  -10.7778   50.6587    5.8708 C   0  0  0  0  0  0  0  0  0  0  0  0
  -11.4539   53.1867    8.0960 O   0  0  0  0  0  0  0  0  0  0  0  0
   -7.6579   52.2328    5.6817 N   0  0  0  0  0  0  0  0  0  0  0  0
   -7.1415   52.9844    6.0526 H   0  0  0  0  0  0  0  0  0  0  0  0
   -7.2435   51.6271    5.0255 H   0  0  0  0  0  0  0  0  0  0  0  0
  -12.4010   47.5124    5.2294 O   0  0  0  0  0  0  0  0  0  0  0  0
  -12.6955   47.5037    6.6174 C   0  0  0  0  0  0  0  0  0  0  0  0
  -11.9665   46.6801    4.9858 H   0  0  0  0  0  0  0  0  0  0  0  0
  -15.1580   49.2066    5.3440 O   0  0  0  0  0  0  0  0  0  0  0  0
  -15.4956   49.0435    3.7795 P   0  0  0  0  0  0  0  0  0  0  0  0
  -16.6896   48.1614    3.6516 O   0  0  0  0  0  0  0  0  0  0  0  0
  -14.3195   48.3390    3.1515 O   0  0  0  0  0  0  0  0  0  0  0  0
  -15.6237   50.4419    3.2825 O   0  0  0  0  0  0  0  0  0  0  0  0
  -14.4828   48.2200    2.2028 H   0  0  0  0  0  0  0  0  0  0  0  0
  -15.8295   50.4306    2.3347 H   0  0  0  0  0  0  0  0  0  0  0  0
 22 23  2  0  0  0
 22 24  1  0  0  0
 22 25  1  0  0  0
 22 21  1  0  0  0
 18 19  1  0  0  0
 19  1  1  0  0  0
  1  2  1  0  0  0
  1  3  1  0  0  0
  2  6  1  0  0  0
  3 21  1  0  0  0
  3  4  1  0  0  0
  4  5  1  0  0  0
  4  6  1  0  0  0
  6  8  1  0  0  0
  8  9  1  0  0  0
  8 13  1  0  0  0
  9 10  1  0  0  0
  9 14  2  0  0  0
 10 11  2  0  0  0
 11 12  1  0  0  0
 11 15  1  0  0  0
 12 13  2  0  0  0
 24 26  1  0  0  0
 25 27  1  0  0  0
 18 20  1  0  0  0
  5  7  1  0  0  0
 15 16  1  0  0  0
 15 17  1  0  0  0
M  END
> <minimizedAffinity>
-5.96451

$$$$
1RPF_C3P_A_125


 27 28  0  0  0  0  0  0  0  0999 V2000
  -13.4965   50.2358    7.8663 C   0  0  0  0  0  0  0  0  0  0  0  0
  -13.0771   51.5292    7.3120 O   0  0  0  0  0  0  0  0  0  0  0  0
  -13.1228   49.2298    6.8194 C   0  0  0  0  0  0  0  0  0  0  0  0
  -12.8747   50.0389    5.5493 C   0  0  0  0  0  0  0  0  0  0  0  0
  -13.7446   49.6485    4.4658 O   0  0  0  0  0  0  0  0  0  0  0  0
  -12.4603   51.3880    6.0448 C   0  0  0  0  0  0  0  0  0  0  0  0
  -14.6675   49.6880    4.7618 H   0  0  0  0  0  0  0  0  0  0  0  0
  -11.0586   51.6570    6.1928 N   0  0  0  0  0  0  0  0  0  0  0  0
  -10.2402   51.2552    5.2146 C   0  0  0  0  0  0  0  0  0  0  0  0
   -8.9426   51.5920    5.2861 N   0  0  0  0  0  0  0  0  0  0  0  0
   -8.4599   52.2603    6.3313 C   0  0  0  0  0  0  0  0  0  0  0  0
   -9.3158   52.6474    7.3626 C   0  0  0  0  0  0  0  0  0  0  0  0
  -10.5939   52.3737    7.2554 C   0  0  0  0  0  0  0  0  0  0  0  0
  -10.7223   50.6258    4.3011 O   0  0  0  0  0  0  0  0  0  0  0  0
   -7.1933   52.6253    6.4682 N   0  0  0  0  0  0  0  0  0  0  0  0
   -6.5344   52.3853    5.7772 H   0  0  0  0  0  0  0  0  0  0  0  0
   -6.9113   53.1365    7.2609 H   0  0  0  0  0  0  0  0  0  0  0  0
  -12.1924   50.7824    9.8222 O   0  0  0  0  0  0  0  0  0  0  0  0
  -13.1110   49.8290    9.3119 C   0  0  0  0  0  0  0  0  0  0  0  0
  -11.9430   50.5388   10.7274 H   0  0  0  0  0  0  0  0  0  0  0  0
  -14.0129   48.1786    6.6570 O   0  0  0  0  0  0  0  0  0  0  0  0
  -13.6559   46.8469    5.8279 P   0  0  0  0  0  0  0  0  0  0  0  0
  -14.6445   46.7095    4.7217 O   0  0  0  0  0  0  0  0  0  0  0  0
  -13.8392   45.6847    6.7711 O   0  0  0  0  0  0  0  0  0  0  0  0
  -12.2263   47.0217    5.4480 O   0  0  0  0  0  0  0  0  0  0  0  0
  -13.6330   44.8574    6.3086 H   0  0  0  0  0  0  0  0  0  0  0  0
  -11.9305   46.2510    4.9386 H   0  0  0  0  0  0  0  0  0  0  0  0
 22 23  2  0  0  0
 22 24  1  0  0  0
 22 25  1  0  0  0
 22 21  1  0  0  0
 18 19  1  0  0  0
 19  1  1  0  0  0
  1  2  1  0  0  0
  1  3  1  0  0  0
  2  6  1  0  0  0
  3 21  1  0  0  0
  3  4  1  0  0  0
  4  5  1  0  0  0
  4  6  1  0  0  0
  6  8  1  0  0  0
  8  9  1  0  0  0
  8 13  1  0  0  0
  9 10  1  0  0  0
  9 14  2  0  0  0
 10 11  2  0  0  0
 11 12  1  0  0  0
 11 15  1  0  0  0
 12 13  2  0  0  0
 24 26  1  0  0  0
 25 27  1  0  0  0
 18 20  1  0  0  0
  5  7  1  0  0  0
 15 16  1  0  0  0
 15 17  1  0  0  0
M  END
> <minimizedAffinity>
-5.88142

$$$$
1RPF_C3P_A_125


 27 28  0  0  0  0  0  0  0  0999 V2000
  -12.6686   52.6360    5.2681 C   0  0  0  0  0  0  0  0  0  0  0  0
  -11.8170   53.8240    5.4082 O   0  0  0  0  0  0  0  0  0  0  0  0
  -11.7868   51.4843    5.6475 C   0  0  0  0  0  0  0  0  0  0  0  0
  -10.3624   52.0303    5.5982 C   0  0  0  0  0  0  0  0  0  0  0  0
   -9.5284   51.3163    4.6611 O   0  0  0  0  0  0  0  0  0  0  0  0
  -10.5175   53.4939    5.8647 C   0  0  0  0  0  0  0  0  0  0  0  0
   -9.9565   51.3049    3.7908 H   0  0  0  0  0  0  0  0  0  0  0  0
  -10.3829   53.9569    7.2163 N   0  0  0  0  0  0  0  0  0  0  0  0
   -9.1487   54.0585    7.7203 C   0  0  0  0  0  0  0  0  0  0  0  0
   -8.9980   54.5897    8.9440 N   0  0  0  0  0  0  0  0  0  0  0  0
  -10.0510   54.9564    9.6713 C   0  0  0  0  0  0  0  0  0  0  0  0
  -11.3371   54.8168    9.1494 C   0  0  0  0  0  0  0  0  0  0  0  0
  -11.4740   54.3593    7.9279 C   0  0  0  0  0  0  0  0  0  0  0  0
   -8.2273   53.6848    7.0313 O   0  0  0  0  0  0  0  0  0  0  0  0
   -9.9772   55.4866   10.8836 N   0  0  0  0  0  0  0  0  0  0  0  0
   -9.1003   55.6141   11.3125 H   0  0  0  0  0  0  0  0  0  0  0  0
  -10.7993   55.7530   11.3552 H   0  0  0  0  0  0  0  0  0  0  0  0
  -14.0091   51.8995    7.1350 O   0  0  0  0  0  0  0  0  0  0  0  0
  -14.0836   52.5945    5.9002 C   0  0  0  0  0  0  0  0  0  0  0  0
  -14.8894   51.8666    7.5411 H   0  0  0  0  0  0  0  0  0  0  0  0
  -11.9742   50.3222    4.9141 O   0  0  0  0  0  0  0  0  0  0  0  0
  -12.3324   48.9068    5.5897 P   0  0  0  0  0  0  0  0  0  0  0  0
  -13.6473   49.0401    6.2777 O   0  0  0  0  0  0  0  0  0  0  0  0
  -11.2779   48.6441    6.6351 O   0  0  0  0  0  0  0  0  0  0  0  0
  -12.2448   47.9305    4.4681 O   0  0  0  0  0  0  0  0  0  0  0  0
  -11.4573   47.7954    7.0693 H   0  0  0  0  0  0  0  0  0  0  0  0
  -12.4496   47.0412    4.7968 H   0  0  0  0  0  0  0  0  0  0  0  0
 22 23  2  0  0  0
 22 24  1  0  0  0
 22 25  1  0  0  0
 22 21  1  0  0  0
 18 19  1  0  0  0
 19  1  1  0  0  0
  1  2  1  0  0  0
  1  3  1  0  0  0
  2  6  1  0  0  0
  3 21  1  0  0  0
  3  4  1  0  0  0
  4  5  1  0  0  0
  4  6  1  0  0  0
  6  8  1  0  0  0
  8  9  1  0  0  0
  8 13  1  0  0  0
  9 10  1  0  0  0
  9 14  2  0  0  0
 10 11  2  0  0  0
 11 12  1  0  0  0
 11 15  1  0  0  0
 12 13  2  0  0  0
 24 26  1  0  0  0
 25 27  1  0  0  0
 18 20  1  0  0  0
  5  7  1  0  0  0
 15 16  1  0  0  0
 15 17  1  0  0  0
M  END
> <minimizedAffinity>
-5.85257

$$$$
