5WUK_73K_A_502
  RCSB PDB12061720103D
Coordinates from PDB:5WUK:A:502 Model:1 without hydrogens
 26 29  0  0  0  0            999 V2000
   17.6340  -18.9620  -20.8850   C 0  0  0  0  0  0  0  0  0  0  0  0
   18.5010  -19.8570  -21.4130   C 0  0  0  0  0  0  0  0  0  0  0  0
   19.8940  -19.3860  -21.5910   C 0  0  0  0  0  0  0  0  0  0  0  0
   21.5160  -18.1310  -21.4670   C 0  0  0  0  0  0  0  0  0  0  0  0
   19.1010  -15.0810  -18.1600   C 0  0  0  0  0  0  0  0  0  0  0  0
   18.1280  -15.4090  -17.2940   C 0  0  0  0  0  0  0  0  0  0  0  0
   18.7990  -15.2590  -15.9810   C 0  0  0  0  0  0  0  0  0  0  0  0
   20.0430  -14.8540  -16.3140   C 0  0  0  0  0  0  0  0  0  0  0  0
   18.3390  -21.6440  -23.1850   C 0  0  0  0  0  0  0  0  0  0  0  0
   17.8480  -22.8680  -23.6670   C 0  0  0  0  0  0  0  0  0  0  0  0
   17.0060  -23.6410  -22.8350   C 0  0  0  0  0  0  0  0  0  0  0  0
   16.6470  -23.1930  -21.5490   C 0  0  0  0  0  0  0  0  0  0  0  0
   17.1730  -21.9900  -21.0530   C 0  0  0  0  0  0  0  0  0  0  0  0
   17.8260  -26.1830  -23.5230   C 0  0  0  0  0  0  0  0  0  0  0  0
   20.2310  -18.1760  -21.2250   N 0  0  0  0  0  0  0  0  0  0  0  0
   19.3850  -17.3010  -20.6800   C 0  0  0  0  0  0  0  0  0  0  0  0
   18.1510  -17.6660  -20.5090   N 0  0  0  0  0  0  0  0  0  0  0  0
   18.0190  -21.2130  -21.8770   C 0  0  0  0  0  0  0  0  0  0  0  0
   19.8070  -16.1000  -20.3110   N 0  0  0  0  0  0  0  0  0  0  0  0
   18.9940  -15.0570  -19.6770   C 0  0  0  0  0  0  0  0  0  0  0  0
   20.8560  -20.0880  -22.0490   N 0  0  0  0  0  0  0  0  0  0  0  0
   21.9870  -19.2130  -21.9590   N 0  0  0  0  0  0  0  0  0  0  0  0
   20.2870  -14.7300  -17.6320   O 0  0  0  0  0  0  0  0  0  0  0  0
   16.3280  -25.1720  -23.4550   S 0  0  0  0  0  0  0  0  0  0  0  0
   15.8540  -24.9500  -24.8090   O 0  0  0  0  0  0  0  0  0  0  0  0
   15.3790  -25.7000  -22.4900   O 0  0  0  0  0  0  0  0  0  0  0  0
 20  5  1  0  0  0  0
 20 19  1  0  0  0  0
 23  5  1  0  0  0  0
 23  8  1  0  0  0  0
 17  1  1  0  0  0  0
 17 16  2  0  0  0  0
  5  6  2  0  0  0  0
  1  2  2  0  0  0  0
  8  7  2  0  0  0  0
 19 16  1  0  0  0  0
 16 15  1  0  0  0  0
 14 24  1  0  0  0  0
  6  7  1  0  0  0  0
  2 18  1  0  0  0  0
  2  3  1  0  0  0  0
 13 18  2  0  0  0  0
 13 12  1  0  0  0  0
 18  9  1  0  0  0  0
 12 11  2  0  0  0  0
 15  3  1  0  0  0  0
 15  4  1  0  0  0  0
  9 10  2  0  0  0  0
 11 10  1  0  0  0  0
 11 24  1  0  0  0  0
 26 24  2  0  0  0  0
  3 21  2  0  0  0  0
 24 25  2  0  0  0  0
  4 22  2  0  0  0  0
 21 22  1  0  0  0  0
A    1
C1
A    2
C2
A    3
C3
A    4
C12
A    5
C13
A    6
C14
A    7
C15
A    8
C16
A    9
C18
A   10
C19
A   11
C20
A   12
C21
A   13
C22
A   14
C25
A   15
N4
A   16
C5
A   17
N6
A   18
C7
A   19
N8
A   20
C9
A   21
N10
A   22
N11
A   23
O17
A   24
S23
A   25
O24
A   26
O26
M  END
>  <InstanceId>
5WUK_73K_A_502

>  <ChemCompId>
73K

>  <PdbId>
5WUK

>  <ChainId>
A

>  <ResidueNumber>
502

>  <InsertionCode>


>  <Model>
1

>  <AltIds>


>  <MissingHeavyAtoms>
0

>  <ObservedFormula>
C17 N5 O3 S

>  <Name>
N-(furan-2-ylmethyl)-8-(4-methylsulfonylphenyl)-[1,2,4]triazolo[4,3-c]pyrimidin-5-amine

>  <SystematicName>
~{N}-(furan-2-ylmethyl)-8-(4-methylsulfonylphenyl)-[1,2,4]triazolo[4,3-c]pyrimidin-5-amine

>  <Synonyms>


>  <Type>
NON-POLYMER

>  <Formula>
C17 H15 N5 O3 S

>  <MolecularWeight>
369.398

>  <ModifiedDate>
2017-01-26

>  <Parent>


>  <OneLetterCode>


>  <SubcomponentList>


>  <AmbiguousFlag>
N

>  <InChI>
InChI=1S/C17H15N5O3S/c1-26(23,24)14-6-4-12(5-7-14)15-10-19-17(22-11-20-21-16(15)22)18-9-13-3-2-8-25-13/h2-8,10-11H,9H2,1H3,(H,18,19)

>  <InChIKey>
DYIRSNMPIZZNBK-UHFFFAOYSA-N

>  <SMILES>
CS(=O)(=O)c1ccc(cc1)c2cnc(n3c2nnc3)NCc4ccco4

$$$$
