5M04_GDP_A_401
  RCSB PDB12061718573D
Coordinates from PDB:5M04:A:401 Model:1 without hydrogens
 28 30  0  0  0  0            999 V2000
   -5.9340   38.8090    7.8470   P 0  0  0  0  0  0  0  0  0  0  0  0
   -5.9840   38.6470    6.3550   O 0  0  0  0  0  0  0  0  0  0  0  0
   -5.7480   37.5220    8.6220   O 0  0  0  0  0  0  0  0  0  0  0  0
   -7.0330   39.6770    8.3130   O 0  0  0  0  0  0  0  0  0  0  0  0
   -4.6310   39.7230    8.1850   O 0  0  0  0  0  0  0  0  0  0  0  0
   -3.6190   40.5090    7.1590   P 0  0  0  0  0  0  0  0  0  0  0  0
   -2.7960   39.6650    6.1930   O 0  0  0  0  0  0  0  0  0  0  0  0
   -4.3930   41.6640    6.6460   O 0  0  0  0  0  0  0  0  0  0  0  0
   -2.5450   41.0440    8.1560   O 0  0  0  0  0  0  0  0  0  0  0  0
   -2.9690   41.9550    9.1700   C 0  0  0  0  0  0  0  0  0  0  0  0
   -1.9460   43.0310    9.4150   C 0  0  0  0  0  0  0  0  0  0  0  0
   -0.8590   42.4180   10.1050   O 0  0  0  0  0  0  0  0  0  0  0  0
   -1.3920   43.6570    8.1670   C 0  0  0  0  0  0  0  0  0  0  0  0
   -1.0860   45.0430    8.4070   O 0  0  0  0  0  0  0  0  0  0  0  0
   -0.0560   42.9670    7.9820   C 0  0  0  0  0  0  0  0  0  0  0  0
    0.9110   43.7620    7.2470   O 0  0  0  0  0  0  0  0  0  0  0  0
    0.3530   42.6070    9.4070   C 0  0  0  0  0  0  0  0  0  0  0  0
    1.1620   41.3310    9.4040   N 0  0  0  0  0  0  0  0  0  0  0  0
    0.8190   40.1280    8.8640   C 0  0  0  0  0  0  0  0  0  0  0  0
    1.7910   39.2090    9.0140   N 0  0  0  0  0  0  0  0  0  0  0  0
    2.7760   39.8290    9.6840   C 0  0  0  0  0  0  0  0  0  0  0  0
    4.0790   39.4810   10.2150   C 0  0  0  0  0  0  0  0  0  0  0  0
    4.6250   38.3410   10.0680   O 0  0  0  0  0  0  0  0  0  0  0  0
    4.7480   40.4750   10.8480   N 0  0  0  0  0  0  0  0  0  0  0  0
    4.2900   41.7420   11.0340   C 0  0  0  0  0  0  0  0  0  0  0  0
    5.0360   42.6610   11.7050   N 0  0  0  0  0  0  0  0  0  0  0  0
    3.0880   42.1230   10.6070   N 0  0  0  0  0  0  0  0  0  0  0  0
    2.3280   41.2250    9.9460   C 0  0  0  0  0  0  0  0  0  0  0  0
  1  2  2  0  0  0  0
  1  3  1  0  0  0  0
  1  4  1  0  0  0  0
  1  5  1  0  0  0  0
  5  6  1  0  0  0  0
  6  7  2  0  0  0  0
  6  8  1  0  0  0  0
  6  9  1  0  0  0  0
  9 10  1  0  0  0  0
 10 11  1  0  0  0  0
 11 12  1  0  0  0  0
 11 13  1  0  0  0  0
 12 17  1  0  0  0  0
 13 14  1  0  0  0  0
 13 15  1  0  0  0  0
 15 16  1  0  0  0  0
 15 17  1  0  0  0  0
 17 18  1  0  0  0  0
 18 19  1  0  0  0  0
 18 28  1  0  0  0  0
 19 20  2  0  0  0  0
 20 21  1  0  0  0  0
 21 22  1  0  0  0  0
 21 28  2  0  0  0  0
 22 23  2  0  0  0  0
 22 24  1  0  0  0  0
 24 25  1  0  0  0  0
 25 26  1  0  0  0  0
 25 27  2  0  0  0  0
 27 28  1  0  0  0  0
A    1
PB
A    2
O1B
A    3
O2B
A    4
O3B
A    5
O3A
A    6
PA
A    7
O1A
A    8
O2A
A    9
O5'
A   10
C5'
A   11
C4'
A   12
O4'
A   13
C3'
A   14
O3'
A   15
C2'
A   16
O2'
A   17
C1'
A   18
N9
A   19
C8
A   20
N7
A   21
C5
A   22
C6
A   23
O6
A   24
N1
A   25
C2
A   26
N2
A   27
N3
A   28
C4
M  END
>  <InstanceId>
5M04_GDP_A_401

>  <ChemCompId>
GDP

>  <PdbId>
5M04

>  <ChainId>
A

>  <ResidueNumber>
401

>  <InsertionCode>


>  <Model>
1

>  <AltIds>


>  <MissingHeavyAtoms>
0

>  <ObservedFormula>
C10 N5 O11 P2

>  <Name>
GUANOSINE-5'-DIPHOSPHATE

>  <SystematicName>
[(2R,3S,4R,5R)-5-(2-azanyl-6-oxidanylidene-1H-purin-9-yl)-3,4-bis(oxidanyl)oxolan-2-yl]methyl phosphono hydrogen phosphate

>  <Synonyms>


>  <Type>
RNA LINKING

>  <Formula>
C10 H15 N5 O11 P2

>  <MolecularWeight>
443.201

>  <ModifiedDate>
2014-05-12

>  <Parent>
G

>  <OneLetterCode>
G

>  <SubcomponentList>


>  <AmbiguousFlag>
N

>  <InChI>
InChI=1S/C10H15N5O11P2/c11-10-13-7-4(8(18)14-10)12-2-15(7)9-6(17)5(16)3(25-9)1-24-28(22,23)26-27(19,20)21/h2-3,5-6,9,16-17H,1H2,(H,22,23)(H2,19,20,21)(H3,11,13,14,18)/t3-,5-,6-,9-/m1/s1

>  <InChIKey>
QGWNDRXFNXRZMB-UUOKFMHZSA-N

>  <SMILES>
c1nc2c(n1[C@H]3[C@@H]([C@@H]([C@H](O3)CO[P@](=O)(O)OP(=O)(O)O)O)O)N=C(NC2=O)N

$$$$
