2F80_017_B_301
  RCSB PDB12061705323D
Coordinates from PDB:2F80:B:301 Model:1 without hydrogens
 38 41  0  0  0  0            999 V2000
   21.1430   28.7980   14.0100   N 0  0  0  0  0  0  0  0  0  0  0  0
   20.5620   27.6460   14.4460   C 0  0  0  0  0  0  0  0  0  0  0  0
   19.2200   27.4510   14.1280   C 0  0  0  0  0  0  0  0  0  0  0  0
   18.5750   26.2900   14.5490   C 0  0  0  0  0  0  0  0  0  0  0  0
   19.3070   25.3530   15.2830   C 0  0  0  0  0  0  0  0  0  0  0  0
   20.6580   25.5150   15.6220   C 0  0  0  0  0  0  0  0  0  0  0  0
   21.2920   26.6990   15.1850   C 0  0  0  0  0  0  0  0  0  0  0  0
   18.4080   23.8460   15.8120   S 0  0  0  0  0  0  0  0  0  0  0  0
   17.2190   23.5220   14.8850   O 0  0  0  0  0  0  0  0  0  0  0  0
   19.4760   22.6930   15.9630   O 0  0  0  0  0  0  0  0  0  0  0  0
   17.8200   24.1710   17.4900   N 0  0  0  0  0  0  0  0  0  0  0  0
   18.8420   24.5720   18.5060   C 0  0  0  0  0  0  0  0  0  0  0  0
   18.5320   23.9580   19.8970   C 0  0  0  0  0  0  0  0  0  0  0  0
   18.3170   22.4680   19.6970   C 0  0  0  0  0  0  0  0  0  0  0  0
   19.7340   24.2060   20.8030   C 0  0  0  0  0  0  0  0  0  0  0  0
   16.5610   25.0320   17.5180   C 0  0  0  0  0  0  0  0  0  0  0  0
   15.4090   24.0820   18.0090   C 0  0  0  0  0  0  0  0  0  0  0  0
   14.2840   24.8750   18.3430   O 0  0  0  0  0  0  0  0  0  0  0  0
   15.0610   22.9430   17.0100   C 0  0  0  0  0  0  0  0  0  0  0  0
   14.1470   22.0380   17.6660   N 0  0  0  0  0  0  0  0  0  0  0  0
   14.4610   20.7880   18.0620   C 0  0  0  0  0  0  0  0  0  0  0  0
   15.5720   20.2090   17.7850   O 0  0  0  0  0  0  0  0  0  0  0  0
   13.4090   20.1960   18.8200   O 0  0  0  0  0  0  0  0  0  0  0  0
   13.5140   18.7410   19.0150   C 0  0  0  0  0  0  0  0  0  0  0  0
   12.8390   18.3920   20.3620   C 0  0  0  0  0  0  0  0  0  0  0  0
   11.4100   18.6260   20.1590   O 0  0  0  0  0  0  0  0  0  0  0  0
   11.1950   18.2080   18.8220   C 0  0  0  0  0  0  0  0  0  0  0  0
   10.2770   19.0030   18.0950   O 0  0  0  0  0  0  0  0  0  0  0  0
   11.1260   19.5880   17.0830   C 0  0  0  0  0  0  0  0  0  0  0  0
   12.2140   18.5700   16.7260   C 0  0  0  0  0  0  0  0  0  0  0  0
   12.4780   18.0440   18.1150   C 0  0  0  0  0  0  0  0  0  0  0  0
   14.3430   23.3390   15.6960   C 0  0  0  0  0  0  0  0  0  0  0  0
   12.5470   21.8390   14.6860   C 0  0  0  0  0  0  0  0  0  0  0  0
   12.1480   20.7570   13.8910   C 0  0  0  0  0  0  0  0  0  0  0  0
   13.1250   19.9890   13.2360   C 0  0  0  0  0  0  0  0  0  0  0  0
   14.4820   20.3080   13.3800   C 0  0  0  0  0  0  0  0  0  0  0  0
   14.8810   21.3940   14.1770   C 0  0  0  0  0  0  0  0  0  0  0  0
   13.9040   22.1590   14.8300   C 0  0  0  0  0  0  0  0  0  0  0  0
  1  2  1  0  0  0  0
  2  3  2  0  0  0  0
  2  7  1  0  0  0  0
  3  4  1  0  0  0  0
  4  5  2  0  0  0  0
  5  6  1  0  0  0  0
  5  8  1  0  0  0  0
  6  7  2  0  0  0  0
  8  9  2  0  0  0  0
  8 10  2  0  0  0  0
  8 11  1  0  0  0  0
 11 12  1  0  0  0  0
 11 16  1  0  0  0  0
 12 13  1  0  0  0  0
 13 14  1  0  0  0  0
 13 15  1  0  0  0  0
 16 17  1  0  0  0  0
 17 18  1  0  0  0  0
 17 19  1  0  0  0  0
 19 20  1  0  0  0  0
 19 32  1  0  0  0  0
 20 21  1  0  0  0  0
 21 22  2  0  0  0  0
 21 23  1  0  0  0  0
 23 24  1  0  0  0  0
 24 25  1  0  0  0  0
 24 31  1  0  0  0  0
 25 26  1  0  0  0  0
 26 27  1  0  0  0  0
 27 28  1  0  0  0  0
 27 31  1  0  0  0  0
 28 29  1  0  0  0  0
 29 30  1  0  0  0  0
 30 31  1  0  0  0  0
 32 38  1  0  0  0  0
 33 34  2  0  0  0  0
 33 38  1  0  0  0  0
 34 35  1  0  0  0  0
 35 36  2  0  0  0  0
 36 37  1  0  0  0  0
 37 38  2  0  0  0  0
A    1
N1
A    2
C2
A    3
C3
A    4
C4
A    5
C5
A    6
C6
A    7
C7
A    8
S8
A    9
O9
A   10
O10
A   11
N11
A   12
C12
A   13
C13
A   14
C14
A   15
C15
A   16
C16
A   17
C17
A   18
O18
A   19
C19
A   20
N20
A   21
C21
A   22
O22
A   23
O23
A   24
C24
A   25
C25
A   26
O26
A   27
C27
A   28
O28
A   29
C29
A   30
C30
A   31
C31
A   32
C32
A   33
C33
A   34
C34
A   35
C35
A   36
C36
A   37
C37
A   38
C38
M  END
>  <InstanceId>
2F80_017_B_301

>  <ChemCompId>
017

>  <PdbId>
2F80

>  <ChainId>
B

>  <ResidueNumber>
301

>  <InsertionCode>


>  <Model>
1

>  <AltIds>


>  <MissingHeavyAtoms>
0

>  <ObservedFormula>
C27 N3 O7 S

>  <Name>
(3R,3AS,6AR)-HEXAHYDROFURO[2,3-B]FURAN-3-YL(1S,2R)-3-[[(4-AMINOPHENYL)SULFONYL](ISOBUTYL)AMINO]-1-BENZYL-2-HYDROXYPROPYLCARBAMATE

>  <SystematicName>
[(3R,3aS,6aR)-2,3,3a,4,5,6a-hexahydrofuro[2,3-b]furan-3-yl] N-[(2S,3R)-4-[(4-aminophenyl)sulfonyl-(2-methylpropyl)amino]-3-hydroxy-1-phenyl-butan-2-yl]carbamate

>  <Synonyms>
Darunavir, TMC114, UIC-94017

>  <Type>
NON-POLYMER

>  <Formula>
C27 H37 N3 O7 S

>  <MolecularWeight>
547.664

>  <ModifiedDate>
2011-06-04

>  <Parent>


>  <OneLetterCode>


>  <SubcomponentList>


>  <AmbiguousFlag>
N

>  <InChI>
InChI=1S/C27H37N3O7S/c1-18(2)15-30(38(33,34)21-10-8-20(28)9-11-21)16-24(31)23(14-19-6-4-3-5-7-19)29-27(32)37-25-17-36-26-22(25)12-13-35-26/h3-11,18,22-26,31H,12-17,28H2,1-2H3,(H,29,32)/t22-,23-,24+,25-,26+/m0/s1

>  <InChIKey>
CJBJHOAVZSMMDJ-HEXNFIEUSA-N

>  <SMILES>
CC(C)C[N@@](C[C@H]([C@H](Cc1ccccc1)NC(=O)O[C@H]2CO[C@@H]3[C@H]2CCO3)O)S(=O)(=O)c4ccc(cc4)N

$$$$
