3OZR_OZR_A_224


 29 30  0  0  0  0  0  0  0  0999 V2000
  -21.4967   30.2309    6.9591 N   0  0  0  0  0  0  0  0  0  0  0  0
  -22.7899   30.6025    6.8038 C   0  0  0  0  0  0  0  0  0  0  0  0
  -23.1628   31.7391    7.1649 O   0  0  0  0  0  0  0  0  0  0  0  0
  -21.2195   29.3099    6.7487 H   0  0  0  0  0  0  0  0  0  0  0  0
  -23.7911   29.6554    6.2399 C   0  0  0  0  0  0  0  0  0  0  0  0
  -23.6775   28.2675    6.5030 C   0  0  0  0  0  0  0  0  0  0  0  0
  -24.6409   27.4001    5.9841 C   0  0  0  0  0  0  0  0  0  0  0  0
  -25.6943   27.8579    5.1857 C   0  0  0  0  0  0  0  0  0  0  0  0
  -25.7809   29.2472    4.9447 C   0  0  0  0  0  0  0  0  0  0  0  0
  -24.8590   30.1332    5.4703 C   0  0  0  0  0  0  0  0  0  0  0  0
  -22.6716   27.7107    7.2205 O   0  0  0  0  0  0  0  0  0  0  0  0
  -24.5690   26.0416    6.1952 O   0  0  0  0  0  0  0  0  0  0  0  0
  -22.0022   28.2535    7.5882 H   0  0  0  0  0  0  0  0  0  0  0  0
  -23.8817   25.6852    6.7230 H   0  0  0  0  0  0  0  0  0  0  0  0
  -26.8540   29.8611    4.1475 N   0  0  0  0  0  0  0  0  0  0  0  0
  -27.4684   30.8262    4.5454 O   0  0  0  0  0  0  0  0  0  0  0  0
  -27.0680   29.3292    3.0946 O   0  0  0  0  0  0  0  0  0  0  0  0
  -20.5290   31.1844    7.4321 C   0  0  0  0  0  0  0  0  0  0  0  0
  -20.2818   29.7738    9.4405 C   0  0  0  0  0  0  0  0  0  0  0  0
  -20.1237   30.9558    8.8439 C   0  0  0  0  0  0  0  0  0  0  0  0
  -21.1222   28.9494   11.6373 C   0  0  0  0  0  0  0  0  0  0  0  0
  -20.7464   29.3403   13.0994 C   0  0  0  0  0  0  0  0  0  0  0  0
  -20.1645   30.7475   12.8754 C   0  0  0  0  0  0  0  0  0  0  0  0
  -19.5144   30.7146   11.5833 O   0  0  0  0  0  0  0  0  0  0  0  0
  -19.8939   29.5117   10.8617 C   0  0  0  0  0  0  0  0  0  0  0  0
  -21.3152   27.5794   11.2645 O   0  0  0  0  0  0  0  0  0  0  0  0
  -19.7286   28.4719   13.5623 O   0  0  0  0  0  0  0  0  0  0  0  0
  -20.4872   27.0902   11.3912 H   0  0  0  0  0  0  0  0  0  0  0  0
  -18.9825   28.4888   12.9426 H   0  0  0  0  0  0  0  0  0  0  0  0
 21 22  1  0  0  0
 21 25  1  0  0  0
 21 26  1  0  0  0
 22 23  1  0  0  0
 22 27  1  0  0  0
 23 24  1  0  0  0
 24 25  1  0  0  0
 25 19  1  0  0  0
 19 20  2  0  0  0
 20 18  1  0  0  0
 18  1  1  0  0  0
  1  2  1  0  0  0
  2  5  1  0  0  0
  2  3  2  0  0  0
  5  6  2  0  0  0
  5 10  1  0  0  0
  6  7  1  0  0  0
  6 11  1  0  0  0
  7  8  2  0  0  0
  7 12  1  0  0  0
  8  9  1  0  0  0
  9 10  2  0  0  0
  9 15  1  0  0  0
 15 16  2  0  0  0
 15 17  1  0  0  0
 26 28  1  0  0  0
 27 29  1  0  0  0
  1  4  1  0  0  0
 11 13  1  0  0  0
 12 14  1  0  0  0
M  CHG 1  15   1
M  CHG 1  17  -1
M  END
> <minimizedAffinity>
-8.35569

$$$$
3OZR_OZR_A_224


 29 30  0  0  0  0  0  0  0  0999 V2000
  -21.2562   29.4694    8.5694 N   0  0  0  0  0  0  0  0  0  0  0  0
  -21.8212   29.9331    7.4290 C   0  0  0  0  0  0  0  0  0  0  0  0
  -21.3647   30.9557    6.8746 O   0  0  0  0  0  0  0  0  0  0  0  0
  -21.6633   28.7121    9.0490 H   0  0  0  0  0  0  0  0  0  0  0  0
  -23.0124   29.2597    6.8418 C   0  0  0  0  0  0  0  0  0  0  0  0
  -23.1589   27.8550    6.9578 C   0  0  0  0  0  0  0  0  0  0  0  0
  -24.2956   27.2473    6.4206 C   0  0  0  0  0  0  0  0  0  0  0  0
  -25.2755   27.9806    5.7433 C   0  0  0  0  0  0  0  0  0  0  0  0
  -25.1012   29.3792    5.6476 C   0  0  0  0  0  0  0  0  0  0  0  0
  -24.0013   30.0121    6.1961 C   0  0  0  0  0  0  0  0  0  0  0  0
  -22.2486   27.0429    7.5481 O   0  0  0  0  0  0  0  0  0  0  0  0
  -24.4797   25.8848    6.4907 O   0  0  0  0  0  0  0  0  0  0  0  0
  -21.4702   27.4059    7.9226 H   0  0  0  0  0  0  0  0  0  0  0  0
  -23.8513   25.3493    6.9337 H   0  0  0  0  0  0  0  0  0  0  0  0
  -26.0701   30.2684    4.9883 N   0  0  0  0  0  0  0  0  0  0  0  0
  -26.4871   30.0392    3.8743 O   0  0  0  0  0  0  0  0  0  0  0  0
  -26.3986   31.2239    5.6335 O   0  0  0  0  0  0  0  0  0  0  0  0
  -20.0602   30.0855    9.0785 C   0  0  0  0  0  0  0  0  0  0  0  0
  -19.4279   30.9664   11.2940 C   0  0  0  0  0  0  0  0  0  0  0  0
  -20.2994   30.9189   10.2859 C   0  0  0  0  0  0  0  0  0  0  0  0
  -20.8401   31.2044   13.3339 C   0  0  0  0  0  0  0  0  0  0  0  0
  -21.2859   32.4625   14.1402 C   0  0  0  0  0  0  0  0  0  0  0  0
  -21.1377   33.5545   13.0656 C   0  0  0  0  0  0  0  0  0  0  0  0
  -20.0138   33.1620   12.2435 O   0  0  0  0  0  0  0  0  0  0  0  0
  -19.6413   31.7865   12.5273 C   0  0  0  0  0  0  0  0  0  0  0  0
  -20.4108   30.0118   14.0020 O   0  0  0  0  0  0  0  0  0  0  0  0
  -20.3590   32.6934   15.1851 O   0  0  0  0  0  0  0  0  0  0  0  0
  -19.6153   30.2019   14.5235 H   0  0  0  0  0  0  0  0  0  0  0  0
  -19.4642   32.7552   14.8158 H   0  0  0  0  0  0  0  0  0  0  0  0
 21 22  1  0  0  0
 21 25  1  0  0  0
 21 26  1  0  0  0
 22 23  1  0  0  0
 22 27  1  0  0  0
 23 24  1  0  0  0
 24 25  1  0  0  0
 25 19  1  0  0  0
 19 20  2  0  0  0
 20 18  1  0  0  0
 18  1  1  0  0  0
  1  2  1  0  0  0
  2  5  1  0  0  0
  2  3  2  0  0  0
  5  6  2  0  0  0
  5 10  1  0  0  0
  6  7  1  0  0  0
  6 11  1  0  0  0
  7  8  2  0  0  0
  7 12  1  0  0  0
  8  9  1  0  0  0
  9 10  2  0  0  0
  9 15  1  0  0  0
 15 16  2  0  0  0
 15 17  1  0  0  0
 26 28  1  0  0  0
 27 29  1  0  0  0
  1  4  1  0  0  0
 11 13  1  0  0  0
 12 14  1  0  0  0
M  CHG 1  15   1
M  CHG 1  17  -1
M  END
> <minimizedAffinity>
-8.32650

$$$$
3OZR_OZR_A_224


 29 30  0  0  0  0  0  0  0  0999 V2000
  -20.0669   28.8647   10.4986 N   0  0  0  0  0  0  0  0  0  0  0  0
  -21.2336   28.2362   10.2187 C   0  0  0  0  0  0  0  0  0  0  0  0
  -21.7594   27.4846   11.0673 O   0  0  0  0  0  0  0  0  0  0  0  0
  -19.6122   29.3931    9.8033 H   0  0  0  0  0  0  0  0  0  0  0  0
  -21.8852   28.3979    8.8896 C   0  0  0  0  0  0  0  0  0  0  0  0
  -22.6928   27.3573    8.3671 C   0  0  0  0  0  0  0  0  0  0  0  0
  -23.3135   27.5399    7.1296 C   0  0  0  0  0  0  0  0  0  0  0  0
  -23.1339   28.7055    6.3775 C   0  0  0  0  0  0  0  0  0  0  0  0
  -22.3253   29.7249    6.9278 C   0  0  0  0  0  0  0  0  0  0  0  0
  -21.7227   29.5846    8.1641 C   0  0  0  0  0  0  0  0  0  0  0  0
  -22.8943   26.1688    8.9865 O   0  0  0  0  0  0  0  0  0  0  0  0
  -24.0949   26.5552    6.5685 O   0  0  0  0  0  0  0  0  0  0  0  0
  -22.4979   26.0011    9.8187 H   0  0  0  0  0  0  0  0  0  0  0  0
  -24.2455   25.7552    7.0326 H   0  0  0  0  0  0  0  0  0  0  0  0
  -22.0793   31.0095    6.2544 N   0  0  0  0  0  0  0  0  0  0  0  0
  -22.1562   32.0628    6.8477 O   0  0  0  0  0  0  0  0  0  0  0  0
  -21.8088   30.9251    5.0895 O   0  0  0  0  0  0  0  0  0  0  0  0
  -19.4933   28.7589   11.8135 C   0  0  0  0  0  0  0  0  0  0  0  0
  -20.7921   30.2434   13.2947 C   0  0  0  0  0  0  0  0  0  0  0  0
  -19.6653   29.9904   12.6280 C   0  0  0  0  0  0  0  0  0  0  0  0
  -21.7891   32.5276   13.2774 C   0  0  0  0  0  0  0  0  0  0  0  0
  -21.3601   33.8470   13.9892 C   0  0  0  0  0  0  0  0  0  0  0  0
  -19.8677   33.5629   14.2363 C   0  0  0  0  0  0  0  0  0  0  0  0
  -19.7624   32.1407   14.4802 O   0  0  0  0  0  0  0  0  0  0  0  0
  -21.0024   31.4765   14.1158 C   0  0  0  0  0  0  0  0  0  0  0  0
  -23.1654   32.1334   13.2178 O   0  0  0  0  0  0  0  0  0  0  0  0
  -22.0380   33.9446   15.2283 O   0  0  0  0  0  0  0  0  0  0  0  0
  -23.4993   31.9881   14.1168 H   0  0  0  0  0  0  0  0  0  0  0  0
  -21.8771   33.1422   15.7490 H   0  0  0  0  0  0  0  0  0  0  0  0
 21 22  1  0  0  0
 21 25  1  0  0  0
 21 26  1  0  0  0
 22 23  1  0  0  0
 22 27  1  0  0  0
 23 24  1  0  0  0
 24 25  1  0  0  0
 25 19  1  0  0  0
 19 20  2  0  0  0
 20 18  1  0  0  0
 18  1  1  0  0  0
  1  2  1  0  0  0
  2  5  1  0  0  0
  2  3  2  0  0  0
  5  6  2  0  0  0
  5 10  1  0  0  0
  6  7  1  0  0  0
  6 11  1  0  0  0
  7  8  2  0  0  0
  7 12  1  0  0  0
  8  9  1  0  0  0
  9 10  2  0  0  0
  9 15  1  0  0  0
 15 16  2  0  0  0
 15 17  1  0  0  0
 26 28  1  0  0  0
 27 29  1  0  0  0
  1  4  1  0  0  0
 11 13  1  0  0  0
 12 14  1  0  0  0
M  CHG 1  15   1
M  CHG 1  17  -1
M  END
> <minimizedAffinity>
-8.22087

$$$$
3OZR_OZR_A_224


 29 30  0  0  0  0  0  0  0  0999 V2000
  -21.5599   30.3881    6.9629 N   0  0  0  0  0  0  0  0  0  0  0  0
  -22.8634   30.6918    6.7548 C   0  0  0  0  0  0  0  0  0  0  0  0
  -23.2906   31.8353    7.0221 O   0  0  0  0  0  0  0  0  0  0  0  0
  -21.2406   29.4667    6.8279 H   0  0  0  0  0  0  0  0  0  0  0  0
  -23.8120   29.6637    6.2444 C   0  0  0  0  0  0  0  0  0  0  0  0
  -23.6453   28.3048    6.6101 C   0  0  0  0  0  0  0  0  0  0  0  0
  -24.5604   27.3610    6.1392 C   0  0  0  0  0  0  0  0  0  0  0  0
  -25.6156   27.7135    5.2914 C   0  0  0  0  0  0  0  0  0  0  0  0
  -25.7558   29.0767    4.9481 C   0  0  0  0  0  0  0  0  0  0  0  0
  -24.8831   30.0377    5.4236 C   0  0  0  0  0  0  0  0  0  0  0  0
  -22.6317   27.8456    7.3836 O   0  0  0  0  0  0  0  0  0  0  0  0
  -24.4356   26.0257    6.4502 O   0  0  0  0  0  0  0  0  0  0  0  0
  -21.9935   28.4422    7.7223 H   0  0  0  0  0  0  0  0  0  0  0  0
  -23.7448   25.7386    7.0144 H   0  0  0  0  0  0  0  0  0  0  0  0
  -26.8374   29.5840    4.0897 N   0  0  0  0  0  0  0  0  0  0  0  0
  -27.1677   29.0080    3.0766 O   0  0  0  0  0  0  0  0  0  0  0  0
  -27.3480   30.6004    4.4687 O   0  0  0  0  0  0  0  0  0  0  0  0
  -20.6430   31.4144    7.3817 C   0  0  0  0  0  0  0  0  0  0  0  0
  -20.0869   30.4882    9.5992 C   0  0  0  0  0  0  0  0  0  0  0  0
  -20.5101   31.5133    8.8589 C   0  0  0  0  0  0  0  0  0  0  0  0
  -18.5311   30.0562   11.4979 C   0  0  0  0  0  0  0  0  0  0  0  0
  -18.7947   29.6009   12.9658 C   0  0  0  0  0  0  0  0  0  0  0  0
  -20.1686   28.9248   12.8100 C   0  0  0  0  0  0  0  0  0  0  0  0
  -20.8699   29.6670   11.7850 O   0  0  0  0  0  0  0  0  0  0  0  0
  -19.9505   30.5503   11.0880 C   0  0  0  0  0  0  0  0  0  0  0  0
  -17.5809   31.0873   11.2028 O   0  0  0  0  0  0  0  0  0  0  0  0
  -18.9178   30.7459   13.7893 O   0  0  0  0  0  0  0  0  0  0  0  0
  -17.8652   31.9171   11.6170 H   0  0  0  0  0  0  0  0  0  0  0  0
  -19.5999   31.3328   13.4272 H   0  0  0  0  0  0  0  0  0  0  0  0
 21 22  1  0  0  0
 21 25  1  0  0  0
 21 26  1  0  0  0
 22 23  1  0  0  0
 22 27  1  0  0  0
 23 24  1  0  0  0
 24 25  1  0  0  0
 25 19  1  0  0  0
 19 20  2  0  0  0
 20 18  1  0  0  0
 18  1  1  0  0  0
  1  2  1  0  0  0
  2  5  1  0  0  0
  2  3  2  0  0  0
  5  6  2  0  0  0
  5 10  1  0  0  0
  6  7  1  0  0  0
  6 11  1  0  0  0
  7  8  2  0  0  0
  7 12  1  0  0  0
  8  9  1  0  0  0
  9 10  2  0  0  0
  9 15  1  0  0  0
 15 16  2  0  0  0
 15 17  1  0  0  0
 26 28  1  0  0  0
 27 29  1  0  0  0
  1  4  1  0  0  0
 11 13  1  0  0  0
 12 14  1  0  0  0
M  CHG 1  15   1
M  CHG 1  17  -1
M  END
> <minimizedAffinity>
-8.18165

$$$$
3OZR_OZR_A_224


 29 30  0  0  0  0  0  0  0  0999 V2000
  -20.3223   30.9077    8.1109 N   0  0  0  0  0  0  0  0  0  0  0  0
  -20.8485   31.3815    9.2656 C   0  0  0  0  0  0  0  0  0  0  0  0
  -21.4399   32.4821    9.2793 O   0  0  0  0  0  0  0  0  0  0  0  0
  -19.7886   30.0804    8.1150 H   0  0  0  0  0  0  0  0  0  0  0  0
  -20.6980   30.6226   10.5379 C   0  0  0  0  0  0  0  0  0  0  0  0
  -20.6480   29.2065   10.5144 C   0  0  0  0  0  0  0  0  0  0  0  0
  -20.4825   28.5160   11.7168 C   0  0  0  0  0  0  0  0  0  0  0  0
  -20.3984   29.1802   12.9450 C   0  0  0  0  0  0  0  0  0  0  0  0
  -20.4486   30.5920   12.9338 C   0  0  0  0  0  0  0  0  0  0  0  0
  -20.5814   31.3035   11.7559 C   0  0  0  0  0  0  0  0  0  0  0  0
  -20.7697   28.4611    9.3892 O   0  0  0  0  0  0  0  0  0  0  0  0
  -20.4441   27.1404   11.7529 O   0  0  0  0  0  0  0  0  0  0  0  0
  -20.8826   28.8808    8.5591 H   0  0  0  0  0  0  0  0  0  0  0  0
  -20.4970   26.6492   10.9568 H   0  0  0  0  0  0  0  0  0  0  0  0
  -20.3420   31.4115   14.1508 N   0  0  0  0  0  0  0  0  0  0  0  0
  -19.5156   32.2911   14.2541 O   0  0  0  0  0  0  0  0  0  0  0  0
  -21.1235   31.1336   15.0165 O   0  0  0  0  0  0  0  0  0  0  0  0
  -20.5449   31.6154    6.8785 C   0  0  0  0  0  0  0  0  0  0  0  0
  -22.4868   30.1370    6.5207 C   0  0  0  0  0  0  0  0  0  0  0  0
  -21.5908   30.9919    6.0260 C   0  0  0  0  0  0  0  0  0  0  0  0
  -24.9456   29.7936    6.3008 C   0  0  0  0  0  0  0  0  0  0  0  0
  -25.7754   28.5947    5.7478 C   0  0  0  0  0  0  0  0  0  0  0  0
  -24.7587   27.4500    5.9060 C   0  0  0  0  0  0  0  0  0  0  0  0
  -23.4545   28.0341    5.6802 O   0  0  0  0  0  0  0  0  0  0  0  0
  -23.5463   29.4842    5.6899 C   0  0  0  0  0  0  0  0  0  0  0  0
  -25.2983   31.1457    5.9840 O   0  0  0  0  0  0  0  0  0  0  0  0
  -26.0395   28.8109    4.3738 O   0  0  0  0  0  0  0  0  0  0  0  0
  -25.2260   31.2828    5.0265 H   0  0  0  0  0  0  0  0  0  0  0  0
  -25.2049   28.9659    3.9045 H   0  0  0  0  0  0  0  0  0  0  0  0
 21 22  1  0  0  0
 21 25  1  0  0  0
 21 26  1  0  0  0
 22 23  1  0  0  0
 22 27  1  0  0  0
 23 24  1  0  0  0
 24 25  1  0  0  0
 25 19  1  0  0  0
 19 20  2  0  0  0
 20 18  1  0  0  0
 18  1  1  0  0  0
  1  2  1  0  0  0
  2  5  1  0  0  0
  2  3  2  0  0  0
  5  6  2  0  0  0
  5 10  1  0  0  0
  6  7  1  0  0  0
  6 11  1  0  0  0
  7  8  2  0  0  0
  7 12  1  0  0  0
  8  9  1  0  0  0
  9 10  2  0  0  0
  9 15  1  0  0  0
 15 16  2  0  0  0
 15 17  1  0  0  0
 26 28  1  0  0  0
 27 29  1  0  0  0
  1  4  1  0  0  0
 11 13  1  0  0  0
 12 14  1  0  0  0
M  CHG 1  15   1
M  CHG 1  17  -1
M  END
> <minimizedAffinity>
-7.33811

$$$$
3OZR_OZR_A_224


 29 30  0  0  0  0  0  0  0  0999 V2000
  -22.8705   28.2157    7.5552 N   0  0  0  0  0  0  0  0  0  0  0  0
  -23.9655   27.7751    6.8906 C   0  0  0  0  0  0  0  0  0  0  0  0
  -24.2982   26.5726    6.9593 O   0  0  0  0  0  0  0  0  0  0  0  0
  -22.5629   29.1436    7.4382 H   0  0  0  0  0  0  0  0  0  0  0  0
  -24.7637   28.7015    6.0410 C   0  0  0  0  0  0  0  0  0  0  0  0
  -25.6452   28.1798    5.0617 C   0  0  0  0  0  0  0  0  0  0  0  0
  -26.4018   29.0662    4.2924 C   0  0  0  0  0  0  0  0  0  0  0  0
  -26.2895   30.4529    4.4382 C   0  0  0  0  0  0  0  0  0  0  0  0
  -25.4043   30.9407    5.4252 C   0  0  0  0  0  0  0  0  0  0  0  0
  -24.6651   30.0866    6.2222 C   0  0  0  0  0  0  0  0  0  0  0  0
  -25.7950   26.8582    4.8020 O   0  0  0  0  0  0  0  0  0  0  0  0
  -27.2607   28.6138    3.3163 O   0  0  0  0  0  0  0  0  0  0  0  0
  -25.3078   26.2261    5.2929 H   0  0  0  0  0  0  0  0  0  0  0  0
  -27.3709   27.6934    3.1792 H   0  0  0  0  0  0  0  0  0  0  0  0
  -25.2148   32.3734    5.7001 N   0  0  0  0  0  0  0  0  0  0  0  0
  -25.7978   33.2246    5.0654 O   0  0  0  0  0  0  0  0  0  0  0  0
  -24.4434   32.6201    6.5840 O   0  0  0  0  0  0  0  0  0  0  0  0
  -22.1581   27.3255    8.4321 C   0  0  0  0  0  0  0  0  0  0  0  0
  -20.8788   29.0018    9.7118 C   0  0  0  0  0  0  0  0  0  0  0  0
  -21.7266   27.9727    9.6988 C   0  0  0  0  0  0  0  0  0  0  0  0
  -20.6796   28.7292   12.1813 C   0  0  0  0  0  0  0  0  0  0  0  0
  -20.7498   29.7663   13.3436 C   0  0  0  0  0  0  0  0  0  0  0  0
  -21.5418   30.8984   12.6654 C   0  0  0  0  0  0  0  0  0  0  0  0
  -21.1497   30.8874   11.2728 O   0  0  0  0  0  0  0  0  0  0  0  0
  -20.4165   29.6704   10.9681 C   0  0  0  0  0  0  0  0  0  0  0  0
  -19.6961   27.6873   12.1783 O   0  0  0  0  0  0  0  0  0  0  0  0
  -19.4403   30.2139   13.6428 O   0  0  0  0  0  0  0  0  0  0  0  0
  -18.8096   28.0795   12.1443 H   0  0  0  0  0  0  0  0  0  0  0  0
  -19.0213   30.5504   12.8352 H   0  0  0  0  0  0  0  0  0  0  0  0
 21 22  1  0  0  0
 21 25  1  0  0  0
 21 26  1  0  0  0
 22 23  1  0  0  0
 22 27  1  0  0  0
 23 24  1  0  0  0
 24 25  1  0  0  0
 25 19  1  0  0  0
 19 20  2  0  0  0
 20 18  1  0  0  0
 18  1  1  0  0  0
  1  2  1  0  0  0
  2  5  1  0  0  0
  2  3  2  0  0  0
  5  6  2  0  0  0
  5 10  1  0  0  0
  6  7  1  0  0  0
  6 11  1  0  0  0
  7  8  2  0  0  0
  7 12  1  0  0  0
  8  9  1  0  0  0
  9 10  2  0  0  0
  9 15  1  0  0  0
 15 16  2  0  0  0
 15 17  1  0  0  0
 26 28  1  0  0  0
 27 29  1  0  0  0
  1  4  1  0  0  0
 11 13  1  0  0  0
 12 14  1  0  0  0
M  CHG 1  15   1
M  CHG 1  17  -1
M  END
> <minimizedAffinity>
-7.25845

$$$$
3OZR_OZR_A_224


 29 30  0  0  0  0  0  0  0  0999 V2000
  -21.6700   31.1282    5.9230 N   0  0  0  0  0  0  0  0  0  0  0  0
  -22.1999   30.2232    6.7804 C   0  0  0  0  0  0  0  0  0  0  0  0
  -21.7154   30.0853    7.9239 O   0  0  0  0  0  0  0  0  0  0  0  0
  -21.9994   31.1817    4.9968 H   0  0  0  0  0  0  0  0  0  0  0  0
  -23.3361   29.3555    6.3641 C   0  0  0  0  0  0  0  0  0  0  0  0
  -23.3364   27.9798    6.7045 C   0  0  0  0  0  0  0  0  0  0  0  0
  -24.4233   27.1898    6.3246 C   0  0  0  0  0  0  0  0  0  0  0  0
  -25.4942   27.7099    5.5901 C   0  0  0  0  0  0  0  0  0  0  0  0
  -25.4650   29.0854    5.2694 C   0  0  0  0  0  0  0  0  0  0  0  0
  -24.4168   29.8986    5.6582 C   0  0  0  0  0  0  0  0  0  0  0  0
  -22.3297   27.3619    7.3688 O   0  0  0  0  0  0  0  0  0  0  0  0
  -24.4669   25.8448    6.6149 O   0  0  0  0  0  0  0  0  0  0  0  0
  -21.5797   27.8518    7.6437 H   0  0  0  0  0  0  0  0  0  0  0  0
  -23.7732   25.4485    7.1046 H   0  0  0  0  0  0  0  0  0  0  0  0
  -26.5400   29.7626    4.5278 N   0  0  0  0  0  0  0  0  0  0  0  0
  -26.6543   30.9685    4.5345 O   0  0  0  0  0  0  0  0  0  0  0  0
  -27.2820   29.0314    3.9345 O   0  0  0  0  0  0  0  0  0  0  0  0
  -20.6251   32.0108    6.3684 C   0  0  0  0  0  0  0  0  0  0  0  0
  -19.9870   32.9179    4.1651 C   0  0  0  0  0  0  0  0  0  0  0  0
  -19.6336   32.3266    5.3069 C   0  0  0  0  0  0  0  0  0  0  0  0
  -17.9240   34.2062    3.6206 C   0  0  0  0  0  0  0  0  0  0  0  0
  -17.4515   34.8897    2.3010 C   0  0  0  0  0  0  0  0  0  0  0  0
  -18.7997   35.0835    1.5843 C   0  0  0  0  0  0  0  0  0  0  0  0
  -19.6233   33.9554    1.9613 O   0  0  0  0  0  0  0  0  0  0  0  0
  -19.0173   33.2415    3.0724 C   0  0  0  0  0  0  0  0  0  0  0  0
  -17.0123   33.4562    4.4325 O   0  0  0  0  0  0  0  0  0  0  0  0
  -16.6502   33.9791    1.5708 O   0  0  0  0  0  0  0  0  0  0  0  0
  -16.6788   32.6978    3.9279 H   0  0  0  0  0  0  0  0  0  0  0  0
  -17.1403   33.1529    1.4365 H   0  0  0  0  0  0  0  0  0  0  0  0
 21 22  1  0  0  0
 21 25  1  0  0  0
 21 26  1  0  0  0
 22 23  1  0  0  0
 22 27  1  0  0  0
 23 24  1  0  0  0
 24 25  1  0  0  0
 25 19  1  0  0  0
 19 20  2  0  0  0
 20 18  1  0  0  0
 18  1  1  0  0  0
  1  2  1  0  0  0
  2  5  1  0  0  0
  2  3  2  0  0  0
  5  6  2  0  0  0
  5 10  1  0  0  0
  6  7  1  0  0  0
  6 11  1  0  0  0
  7  8  2  0  0  0
  7 12  1  0  0  0
  8  9  1  0  0  0
  9 10  2  0  0  0
  9 15  1  0  0  0
 15 16  2  0  0  0
 15 17  1  0  0  0
 26 28  1  0  0  0
 27 29  1  0  0  0
  1  4  1  0  0  0
 11 13  1  0  0  0
 12 14  1  0  0  0
M  CHG 1  15   1
M  CHG 1  17  -1
M  END
> <minimizedAffinity>
-7.06224

$$$$
3OZR_OZR_A_224


 29 30  0  0  0  0  0  0  0  0999 V2000
  -22.7253   32.3900    7.4757 N   0  0  0  0  0  0  0  0  0  0  0  0
  -22.6409   31.4463    6.5076 C   0  0  0  0  0  0  0  0  0  0  0  0
  -21.5227   31.0545    6.1106 O   0  0  0  0  0  0  0  0  0  0  0  0
  -23.6025   32.7559    7.7325 H   0  0  0  0  0  0  0  0  0  0  0  0
  -23.8703   30.8918    5.8764 C   0  0  0  0  0  0  0  0  0  0  0  0
  -24.7513   31.7495    5.1718 C   0  0  0  0  0  0  0  0  0  0  0  0
  -25.8859   31.2042    4.5674 C   0  0  0  0  0  0  0  0  0  0  0  0
  -26.1941   29.8434    4.6660 C   0  0  0  0  0  0  0  0  0  0  0  0
  -25.2940   29.0150    5.3727 C   0  0  0  0  0  0  0  0  0  0  0  0
  -24.1473   29.5214    5.9556 C   0  0  0  0  0  0  0  0  0  0  0  0
  -24.5767   33.0884    5.0563 O   0  0  0  0  0  0  0  0  0  0  0  0
  -26.7832   31.9944    3.8851 O   0  0  0  0  0  0  0  0  0  0  0  0
  -23.8297   33.4988    5.4457 H   0  0  0  0  0  0  0  0  0  0  0  0
  -26.6220   32.9127    3.7913 H   0  0  0  0  0  0  0  0  0  0  0  0
  -25.4850   27.5644    5.5257 N   0  0  0  0  0  0  0  0  0  0  0  0
  -26.4897   27.0112    5.1360 O   0  0  0  0  0  0  0  0  0  0  0  0
  -24.5812   26.9904    6.0651 O   0  0  0  0  0  0  0  0  0  0  0  0
  -21.5310   32.8564    8.1278 C   0  0  0  0  0  0  0  0  0  0  0  0
  -20.7516   31.1822    9.7630 C   0  0  0  0  0  0  0  0  0  0  0  0
  -21.3764   32.3328    9.5103 C   0  0  0  0  0  0  0  0  0  0  0  0
  -19.1578   30.9532   11.6655 C   0  0  0  0  0  0  0  0  0  0  0  0
  -18.9670   29.8227   12.7224 C   0  0  0  0  0  0  0  0  0  0  0  0
  -19.5921   28.6300   11.9770 C   0  0  0  0  0  0  0  0  0  0  0  0
  -20.6737   29.1718   11.1834 O   0  0  0  0  0  0  0  0  0  0  0  0
  -20.5864   30.6216   11.1405 C   0  0  0  0  0  0  0  0  0  0  0  0
  -19.1148   32.3344   12.0441 O   0  0  0  0  0  0  0  0  0  0  0  0
  -19.7407   30.1268   13.8684 O   0  0  0  0  0  0  0  0  0  0  0  0
  -19.8367   32.5224   12.6641 H   0  0  0  0  0  0  0  0  0  0  0  0
  -20.6630   30.2736   13.6063 H   0  0  0  0  0  0  0  0  0  0  0  0
 21 22  1  0  0  0
 21 25  1  0  0  0
 21 26  1  0  0  0
 22 23  1  0  0  0
 22 27  1  0  0  0
 23 24  1  0  0  0
 24 25  1  0  0  0
 25 19  1  0  0  0
 19 20  2  0  0  0
 20 18  1  0  0  0
 18  1  1  0  0  0
  1  2  1  0  0  0
  2  5  1  0  0  0
  2  3  2  0  0  0
  5  6  2  0  0  0
  5 10  1  0  0  0
  6  7  1  0  0  0
  6 11  1  0  0  0
  7  8  2  0  0  0
  7 12  1  0  0  0
  8  9  1  0  0  0
  9 10  2  0  0  0
  9 15  1  0  0  0
 15 16  2  0  0  0
 15 17  1  0  0  0
 26 28  1  0  0  0
 27 29  1  0  0  0
  1  4  1  0  0  0
 11 13  1  0  0  0
 12 14  1  0  0  0
M  CHG 1  15   1
M  CHG 1  17  -1
M  END
> <minimizedAffinity>
-6.81990

$$$$
3OZR_OZR_A_224


 29 30  0  0  0  0  0  0  0  0999 V2000
  -21.5107   28.5946    8.8617 N   0  0  0  0  0  0  0  0  0  0  0  0
  -22.4498   27.7854    8.3157 C   0  0  0  0  0  0  0  0  0  0  0  0
  -22.5632   26.6042    8.7073 O   0  0  0  0  0  0  0  0  0  0  0  0
  -21.3681   29.4989    8.4995 H   0  0  0  0  0  0  0  0  0  0  0  0
  -23.3310   28.2743    7.2194 C   0  0  0  0  0  0  0  0  0  0  0  0
  -24.2087   27.3752    6.5640 C   0  0  0  0  0  0  0  0  0  0  0  0
  -25.0433   27.8601    5.5550 C   0  0  0  0  0  0  0  0  0  0  0  0
  -25.0136   29.1990    5.1511 C   0  0  0  0  0  0  0  0  0  0  0  0
  -24.1299   30.0700    5.8264 C   0  0  0  0  0  0  0  0  0  0  0  0
  -23.3137   29.6247    6.8495 C   0  0  0  0  0  0  0  0  0  0  0  0
  -24.2835   26.0505    6.8400 O   0  0  0  0  0  0  0  0  0  0  0  0
  -25.9027   27.0270    4.8748 O   0  0  0  0  0  0  0  0  0  0  0  0
  -23.7424   25.6800    7.5093 H   0  0  0  0  0  0  0  0  0  0  0  0
  -25.9593   26.1212    5.1076 H   0  0  0  0  0  0  0  0  0  0  0  0
  -24.0219   31.5047    5.5196 N   0  0  0  0  0  0  0  0  0  0  0  0
  -24.6346   32.0062    4.6029 O   0  0  0  0  0  0  0  0  0  0  0  0
  -23.2842   32.1201    6.2368 O   0  0  0  0  0  0  0  0  0  0  0  0
  -20.7224   28.1303    9.9716 C   0  0  0  0  0  0  0  0  0  0  0  0
  -20.9851   29.1726   12.1918 C   0  0  0  0  0  0  0  0  0  0  0  0
  -20.4414   29.1910   10.9744 C   0  0  0  0  0  0  0  0  0  0  0  0
  -21.3329   31.5802   12.7344 C   0  0  0  0  0  0  0  0  0  0  0  0
  -20.4650   32.5923   13.5433 C   0  0  0  0  0  0  0  0  0  0  0  0
  -19.0813   31.9268   13.4367 C   0  0  0  0  0  0  0  0  0  0  0  0
  -19.3191   30.4997   13.4282 O   0  0  0  0  0  0  0  0  0  0  0  0
  -20.7316   30.2282   13.2215 C   0  0  0  0  0  0  0  0  0  0  0  0
  -22.7563   31.5353   12.8923 O   0  0  0  0  0  0  0  0  0  0  0  0
  -20.8918   32.5908   14.8932 O   0  0  0  0  0  0  0  0  0  0  0  0
  -22.9727   31.2921   13.8061 H   0  0  0  0  0  0  0  0  0  0  0  0
  -20.8698   31.6845   15.2382 H   0  0  0  0  0  0  0  0  0  0  0  0
 21 22  1  0  0  0
 21 25  1  0  0  0
 21 26  1  0  0  0
 22 23  1  0  0  0
 22 27  1  0  0  0
 23 24  1  0  0  0
 24 25  1  0  0  0
 25 19  1  0  0  0
 19 20  2  0  0  0
 20 18  1  0  0  0
 18  1  1  0  0  0
  1  2  1  0  0  0
  2  5  1  0  0  0
  2  3  2  0  0  0
  5  6  2  0  0  0
  5 10  1  0  0  0
  6  7  1  0  0  0
  6 11  1  0  0  0
  7  8  2  0  0  0
  7 12  1  0  0  0
  8  9  1  0  0  0
  9 10  2  0  0  0
  9 15  1  0  0  0
 15 16  2  0  0  0
 15 17  1  0  0  0
 26 28  1  0  0  0
 27 29  1  0  0  0
  1  4  1  0  0  0
 11 13  1  0  0  0
 12 14  1  0  0  0
M  CHG 1  15   1
M  CHG 1  17  -1
M  END
> <minimizedAffinity>
-6.79599

$$$$
3OZR_OZR_A_224


 29 30  0  0  0  0  0  0  0  0999 V2000
  -20.3405   31.0770    8.1311 N   0  0  0  0  0  0  0  0  0  0  0  0
  -20.6112   30.1095    9.0396 C   0  0  0  0  0  0  0  0  0  0  0  0
  -21.0833   29.0144    8.6666 O   0  0  0  0  0  0  0  0  0  0  0  0
  -20.0438   31.9664    8.4315 H   0  0  0  0  0  0  0  0  0  0  0  0
  -20.3893   30.3469   10.4928 C   0  0  0  0  0  0  0  0  0  0  0  0
  -20.2652   29.2470   11.3777 C   0  0  0  0  0  0  0  0  0  0  0  0
  -20.0336   29.4924   12.7327 C   0  0  0  0  0  0  0  0  0  0  0  0
  -19.9542   30.7914   13.2455 C   0  0  0  0  0  0  0  0  0  0  0  0
  -20.0791   31.8658   12.3367 C   0  0  0  0  0  0  0  0  0  0  0  0
  -20.2785   31.6531   10.9854 C   0  0  0  0  0  0  0  0  0  0  0  0
  -20.3753   27.9508   10.9978 O   0  0  0  0  0  0  0  0  0  0  0  0
  -19.9217   28.4614   13.6381 O   0  0  0  0  0  0  0  0  0  0  0  0
  -20.5308   27.7377   10.0987 H   0  0  0  0  0  0  0  0  0  0  0  0
  -19.9684   27.5729   13.3444 H   0  0  0  0  0  0  0  0  0  0  0  0
  -19.9857   33.2773   12.7405 N   0  0  0  0  0  0  0  0  0  0  0  0
  -19.7100   33.5964   13.8760 O   0  0  0  0  0  0  0  0  0  0  0  0
  -20.2088   34.0679   11.8673 O   0  0  0  0  0  0  0  0  0  0  0  0
  -20.4872   30.8025    6.7267 C   0  0  0  0  0  0  0  0  0  0  0  0
  -19.3234   32.6354    5.5560 C   0  0  0  0  0  0  0  0  0  0  0  0
  -20.4637   32.0277    5.8853 C   0  0  0  0  0  0  0  0  0  0  0  0
  -17.7753   34.2724    4.4903 C   0  0  0  0  0  0  0  0  0  0  0  0
  -17.9233   35.7981    4.2040 C   0  0  0  0  0  0  0  0  0  0  0  0
  -18.9937   36.1784    5.2425 C   0  0  0  0  0  0  0  0  0  0  0  0
  -19.8654   35.0300    5.3630 O   0  0  0  0  0  0  0  0  0  0  0  0
  -19.2639   33.8745    4.7193 C   0  0  0  0  0  0  0  0  0  0  0  0
  -17.2065   33.3890    3.5161 O   0  0  0  0  0  0  0  0  0  0  0  0
  -18.4419   35.9747    2.8985 O   0  0  0  0  0  0  0  0  0  0  0  0
  -17.7606   33.3858    2.7199 H   0  0  0  0  0  0  0  0  0  0  0  0
  -19.2665   35.4720    2.8075 H   0  0  0  0  0  0  0  0  0  0  0  0
 21 22  1  0  0  0
 21 25  1  0  0  0
 21 26  1  0  0  0
 22 23  1  0  0  0
 22 27  1  0  0  0
 23 24  1  0  0  0
 24 25  1  0  0  0
 25 19  1  0  0  0
 19 20  2  0  0  0
 20 18  1  0  0  0
 18  1  1  0  0  0
  1  2  1  0  0  0
  2  5  1  0  0  0
  2  3  2  0  0  0
  5  6  2  0  0  0
  5 10  1  0  0  0
  6  7  1  0  0  0
  6 11  1  0  0  0
  7  8  2  0  0  0
  7 12  1  0  0  0
  8  9  1  0  0  0
  9 10  2  0  0  0
  9 15  1  0  0  0
 15 16  2  0  0  0
 15 17  1  0  0  0
 26 28  1  0  0  0
 27 29  1  0  0  0
  1  4  1  0  0  0
 11 13  1  0  0  0
 12 14  1  0  0  0
M  CHG 1  15   1
M  CHG 1  17  -1
M  END
> <minimizedAffinity>
-6.63491

$$$$
