4TWP_AXI_A_601
  RCSB PDB12061714513D
Coordinates from PDB:4TWP:A:601 Model:1 without hydrogens
 28 31  0  0  0  0            999 V2000
   62.0220   19.2470   46.7580   O 0  0  0  0  0  0  0  0  0  0  0  0
   62.4410   19.2240   47.8990   C 0  0  0  0  0  0  0  0  0  0  0  0
   62.4980   20.4290   48.6620   N 0  0  0  0  0  0  0  0  0  0  0  0
   62.0520   21.6740   48.0700   C 0  0  0  0  0  0  0  0  0  0  0  0
   62.9000   17.9420   48.5020   C 0  0  0  0  0  0  0  0  0  0  0  0
   64.1850   17.8490   49.0220   C 0  0  0  0  0  0  0  0  0  0  0  0
   64.6240   16.6610   49.5860   C 0  0  0  0  0  0  0  0  0  0  0  0
   63.7750   15.5550   49.6320   C 0  0  0  0  0  0  0  0  0  0  0  0
   62.0460   16.8310   48.5450   C 0  0  0  0  0  0  0  0  0  0  0  0
   62.4850   15.6480   49.1080   C 0  0  0  0  0  0  0  0  0  0  0  0
   60.3880   16.9320   47.8840   S 0  0  0  0  0  0  0  0  0  0  0  0
   59.3910   15.7140   48.7410   C 0  0  0  0  0  0  0  0  0  0  0  0
   59.3110   15.7500   50.1410   C 0  0  0  0  0  0  0  0  0  0  0  0
   58.5370   14.7940   50.8280   C 0  0  0  0  0  0  0  0  0  0  0  0
   58.7100   14.7330   48.0280   C 0  0  0  0  0  0  0  0  0  0  0  0
   57.9160   13.7580   48.7300   C 0  0  0  0  0  0  0  0  0  0  0  0
   57.1460   12.6910   48.2980   N 0  0  0  0  0  0  0  0  0  0  0  0
   56.5920   12.0680   49.3930   N 0  0  0  0  0  0  0  0  0  0  0  0
   56.9880   12.7120   50.5070   C 0  0  0  0  0  0  0  0  0  0  0  0
   57.8360   13.7940   50.1000   C 0  0  0  0  0  0  0  0  0  0  0  0
   56.6090   12.3550   51.9180   C 0  0  0  0  0  0  0  0  0  0  0  0
   57.3130   12.8630   52.9770   C 0  0  0  0  0  0  0  0  0  0  0  0
   57.0670   12.3110   54.3540   C 0  0  0  0  0  0  0  0  0  0  0  0
   57.6910   12.8560   55.4080   N 0  0  0  0  0  0  0  0  0  0  0  0
   57.5010   12.3940   56.6560   C 0  0  0  0  0  0  0  0  0  0  0  0
   56.6410   11.3290   56.8630   C 0  0  0  0  0  0  0  0  0  0  0  0
   55.9830   10.7480   55.7900   C 0  0  0  0  0  0  0  0  0  0  0  0
   56.1980   11.2450   54.5130   C 0  0  0  0  0  0  0  0  0  0  0  0
  1  2  2  0  0  0  0
  2  3  1  0  0  0  0
  2  5  1  0  0  0  0
  3  4  1  0  0  0  0
  5  6  1  0  0  0  0
  5  9  2  0  0  0  0
  6  7  2  0  0  0  0
  7  8  1  0  0  0  0
  8 10  2  0  0  0  0
  9 10  1  0  0  0  0
  9 11  1  0  0  0  0
 11 12  1  0  0  0  0
 12 13  1  0  0  0  0
 12 15  2  0  0  0  0
 13 14  2  0  0  0  0
 14 20  1  0  0  0  0
 15 16  1  0  0  0  0
 16 17  2  0  0  0  0
 16 20  1  0  0  0  0
 17 18  1  0  0  0  0
 18 19  1  0  0  0  0
 19 20  2  0  0  0  0
 19 21  1  0  0  0  0
 21 22  2  0  0  0  0
 22 23  1  0  0  0  0
 23 24  2  0  0  0  0
 23 28  1  0  0  0  0
 24 25  1  0  0  0  0
 25 26  2  0  0  0  0
 26 27  1  0  0  0  0
 27 28  2  0  0  0  0
A    1
O81
A    2
C80
A    3
N82
A    4
C88
A    5
C23
A    6
C22
A    7
C21
A    8
C20
A    9
C18
A   10
C19
A   11
S24
A   12
C07
A   13
C08
A   14
C09
A   15
C12
A   16
C11
A   17
N15
A   18
N14
A   19
C13
A   20
C10
A   21
C16
A   22
C17
A   23
C02
A   24
N03
A   25
C04
A   26
C05
A   27
C06
A   28
C01
M  END
>  <InstanceId>
4TWP_AXI_A_601

>  <ChemCompId>
AXI

>  <PdbId>
4TWP

>  <ChainId>
A

>  <ResidueNumber>
601

>  <InsertionCode>


>  <Model>
1

>  <AltIds>


>  <MissingHeavyAtoms>
0

>  <ObservedFormula>
C22 N4 O S

>  <Name>
AXITINIB

>  <SystematicName>
N-methyl-2-[[3-[(E)-2-pyridin-2-ylethenyl]-2H-indazol-6-yl]sulfanyl]benzamide

>  <Synonyms>
N-METHYL-2-(3-((E)-2-PYRIDIN-2-YL-VINYL)-1H-INDAZOL-6-YLSULFANYL)-BENZAMIDE

>  <Type>
non-polymer

>  <Formula>
C22 H18 N4 O S

>  <MolecularWeight>
386.47

>  <ModifiedDate>
2014-04-28

>  <Parent>


>  <OneLetterCode>


>  <SubcomponentList>


>  <AmbiguousFlag>
N

>  <InChI>
InChI=1S/C22H18N4OS/c1-23-22(27)18-7-2-3-8-21(18)28-16-10-11-17-19(25-26-20(17)14-16)12-9-15-6-4-5-13-24-15/h2-14H,1H3,(H,23,27)(H,25,26)/b12-9+

>  <InChIKey>
RITAVMQDGBJQJZ-FMIVXFBMSA-N

>  <SMILES>
CNC(=O)c1ccccc1Sc2ccc3c(c2)n[nH]c3/C=C/c4ccccn4

$$$$
