5NK6_90W_A_1001


 37 40  0  0  0  0  0  0  0  0999 V2000
  -86.6588  -13.9439    5.2257 N   0  0  0  0  0  0  0  0  0  0  0  0
  -86.7966  -13.6890    4.2848 H   0  0  0  0  0  0  0  0  0  0  0  0
  -83.7238  -13.3841    7.3731 C   0  0  0  0  0  0  0  0  0  0  0  0
  -85.0467  -13.4309    6.9533 C   0  0  0  0  0  0  0  0  0  0  0  0
  -82.7070  -13.7980    6.5208 C   0  0  0  0  0  0  0  0  0  0  0  0
  -83.0394  -14.2493    5.2454 C   0  0  0  0  0  0  0  0  0  0  0  0
  -84.3704  -14.2915    4.8346 C   0  0  0  0  0  0  0  0  0  0  0  0
  -85.3935  -13.8959    5.6906 C   0  0  0  0  0  0  0  0  0  0  0  0
  -83.9366  -13.6685    9.6851 N   0  0  0  0  0  0  0  0  0  0  0  0
  -83.4926  -12.9241    8.6642 C   0  0  0  0  0  0  0  0  0  0  0  0
  -82.9186  -11.8507    8.8327 O   0  0  0  0  0  0  0  0  0  0  0  0
  -84.3839  -14.5303    9.5221 H   0  0  0  0  0  0  0  0  0  0  0  0
  -85.0569  -12.5811   11.5777 C   0  0  0  0  0  0  0  0  0  0  0  0
  -84.8371  -12.1632   13.0135 C   0  0  0  0  0  0  0  0  0  0  0  0
  -84.6866  -13.4093   13.8822 C   0  0  0  0  0  0  0  0  0  0  0  0
  -83.7186  -13.1375   14.9092 O   0  0  0  0  0  0  0  0  0  0  0  0
  -84.2726  -14.6283   13.0320 C   0  0  0  0  0  0  0  0  0  0  0  0
  -83.1952  -14.2408   12.0206 C   0  0  0  0  0  0  0  0  0  0  0  0
  -83.7408  -13.1691   11.0588 C   0  0  0  0  0  0  0  0  0  0  0  0
  -82.8662  -12.9198   14.5007 H   0  0  0  0  0  0  0  0  0  0  0  0
  -87.7537  -14.3073    5.9248 C   0  0  0  0  0  0  0  0  0  0  0  0
  -87.8977  -15.1624    7.3891 S   0  0  0  0  0  0  0  0  0  0  0  0
  -88.9909  -14.0063    5.4874 N   0  0  0  0  0  0  0  0  0  0  0  0
  -89.9881  -14.4503    6.3027 C   0  0  0  0  0  0  0  0  0  0  0  0
  -89.5687  -15.1131    7.4152 C   0  0  0  0  0  0  0  0  0  0  0  0
  -90.2614  -15.6966    8.4332 C   0  0  0  0  0  0  0  0  0  0  0  0
  -89.7067  -15.8304    9.5206 O   0  0  0  0  0  0  0  0  0  0  0  0
  -91.5290  -16.1318    8.2284 N   0  0  0  0  0  0  0  0  0  0  0  0
  -91.9619  -16.0175    7.3516 H   0  0  0  0  0  0  0  0  0  0  0  0
  -92.1966  -16.7326    9.2607 C   0  0  0  0  0  0  0  0  0  0  0  0
  -92.8993  -15.9631   10.1954 C   0  0  0  0  0  0  0  0  0  0  0  0
  -92.9345  -14.2356   10.1234 Cl  0  0  0  0  0  0  0  0  0  0  0  0
  -93.5859  -16.6040   11.2264 C   0  0  0  0  0  0  0  0  0  0  0  0
  -93.5803  -17.9924   11.3286 C   0  0  0  0  0  0  0  0  0  0  0  0
  -92.8899  -18.7565   10.3949 C   0  0  0  0  0  0  0  0  0  0  0  0
  -92.1962  -18.1316    9.3594 C   0  0  0  0  0  0  0  0  0  0  0  0
  -91.5151  -18.9272    8.4404 C   0  0  0  0  0  0  0  0  0  0  0  0
  7  6  2  0  0  0
  7  8  1  0  0  0
  6  5  1  0  0  0
  1  8  1  0  0  0
  1 21  1  0  0  0
 23 21  2  0  0  0
 23 24  1  0  0  0
  8  4  2  0  0  0
 21 22  1  0  0  0
 24 25  2  0  0  0
  5  3  2  0  0  0
  4  3  1  0  0  0
 25 22  1  0  0  0
 25 26  1  0  0  0
  3 10  1  0  0  0
 28 26  1  0  0  0
 28 30  1  0  0  0
 37 36  1  0  0  0
 26 27  2  0  0  0
 10  9  1  0  0  0
 10 11  2  0  0  0
 30 36  2  0  0  0
 30 31  1  0  0  0
 36 35  1  0  0  0
  9 19  1  0  0  0
 31 32  1  0  0  0
 31 33  2  0  0  0
 35 34  2  0  0  0
 19 18  1  0  0  0
 19 13  1  0  0  0
 18 17  1  0  0  0
 13 14  1  0  0  0
 33 34  1  0  0  0
 17 15  1  0  0  0
 14 15  1  0  0  0
 15 16  1  0  0  0
 16 20  1  0  0  0
  9 12  1  0  0  0
  1  2  1  0  0  0
 28 29  1  0  0  0
M  END
> <minimizedAffinity>
-10.42330

$$$$
5NK6_90W_A_1001


 37 40  0  0  0  0  0  0  0  0999 V2000
  -85.7489  -14.8946    8.5096 N   0  0  0  0  0  0  0  0  0  0  0  0
  -84.8852  -14.8941    8.0371 H   0  0  0  0  0  0  0  0  0  0  0  0
  -89.2270  -14.9477    7.3100 C   0  0  0  0  0  0  0  0  0  0  0  0
  -88.1253  -15.1364    8.1342 C   0  0  0  0  0  0  0  0  0  0  0  0
  -89.0741  -14.3380    6.0706 C   0  0  0  0  0  0  0  0  0  0  0  0
  -87.8025  -13.9308    5.6729 C   0  0  0  0  0  0  0  0  0  0  0  0
  -86.7039  -14.1256    6.5078 C   0  0  0  0  0  0  0  0  0  0  0  0
  -86.8546  -14.7186    7.7575 C   0  0  0  0  0  0  0  0  0  0  0  0
  -90.4567  -16.3598    8.7120 N   0  0  0  0  0  0  0  0  0  0  0  0
  -90.4544  -15.3824    7.7965 C   0  0  0  0  0  0  0  0  0  0  0  0
  -91.4905  -14.8844    7.3622 O   0  0  0  0  0  0  0  0  0  0  0  0
  -89.6113  -16.7336    9.0509 H   0  0  0  0  0  0  0  0  0  0  0  0
  -91.6989  -18.3915    9.3024 C   0  0  0  0  0  0  0  0  0  0  0  0
  -93.0111  -18.8587    9.8891 C   0  0  0  0  0  0  0  0  0  0  0  0
  -93.0788  -18.4498   11.3581 C   0  0  0  0  0  0  0  0  0  0  0  0
  -94.4359  -18.0969   11.6734 O   0  0  0  0  0  0  0  0  0  0  0  0
  -92.1147  -17.2814   11.6510 C   0  0  0  0  0  0  0  0  0  0  0  0
  -92.1812  -16.2347   10.5402 C   0  0  0  0  0  0  0  0  0  0  0  0
  -91.7534  -16.8638    9.2013 C   0  0  0  0  0  0  0  0  0  0  0  0
  -94.7150  -17.3545   11.1150 H   0  0  0  0  0  0  0  0  0  0  0  0
  -85.7116  -15.0712    9.8465 C   0  0  0  0  0  0  0  0  0  0  0  0
  -85.9387  -13.9606   11.1156 S   0  0  0  0  0  0  0  0  0  0  0  0
  -85.4539  -16.2790   10.3824 N   0  0  0  0  0  0  0  0  0  0  0  0
  -85.4440  -16.2878   11.7448 C   0  0  0  0  0  0  0  0  0  0  0  0
  -85.6994  -15.0854   12.3293 C   0  0  0  0  0  0  0  0  0  0  0  0
  -85.7616  -14.7131   13.6385 C   0  0  0  0  0  0  0  0  0  0  0  0
  -85.2465  -15.4420   14.4819 O   0  0  0  0  0  0  0  0  0  0  0  0
  -86.3985  -13.5684   13.9882 N   0  0  0  0  0  0  0  0  0  0  0  0
  -86.8066  -12.9929   13.3015 H   0  0  0  0  0  0  0  0  0  0  0  0
  -86.4648  -13.2264   15.3114 C   0  0  0  0  0  0  0  0  0  0  0  0
  -87.4521  -13.7754   16.1382 C   0  0  0  0  0  0  0  0  0  0  0  0
  -88.6483  -14.8711   15.5388 Cl  0  0  0  0  0  0  0  0  0  0  0  0
  -87.4838  -13.4227   17.4871 C   0  0  0  0  0  0  0  0  0  0  0  0
  -86.5455  -12.5388   18.0130 C   0  0  0  0  0  0  0  0  0  0  0  0
  -85.5598  -12.0011   17.1936 C   0  0  0  0  0  0  0  0  0  0  0  0
  -85.5152  -12.3413   15.8422 C   0  0  0  0  0  0  0  0  0  0  0  0
  -84.5139  -11.7847   15.0491 C   0  0  0  0  0  0  0  0  0  0  0  0
  7  6  2  0  0  0
  7  8  1  0  0  0
  6  5  1  0  0  0
  1  8  1  0  0  0
  1 21  1  0  0  0
 23 21  2  0  0  0
 23 24  1  0  0  0
  8  4  2  0  0  0
 21 22  1  0  0  0
 24 25  2  0  0  0
  5  3  2  0  0  0
  4  3  1  0  0  0
 25 22  1  0  0  0
 25 26  1  0  0  0
  3 10  1  0  0  0
 28 26  1  0  0  0
 28 30  1  0  0  0
 37 36  1  0  0  0
 26 27  2  0  0  0
 10  9  1  0  0  0
 10 11  2  0  0  0
 30 36  2  0  0  0
 30 31  1  0  0  0
 36 35  1  0  0  0
  9 19  1  0  0  0
 31 32  1  0  0  0
 31 33  2  0  0  0
 35 34  2  0  0  0
 19 18  1  0  0  0
 19 13  1  0  0  0
 18 17  1  0  0  0
 13 14  1  0  0  0
 33 34  1  0  0  0
 17 15  1  0  0  0
 14 15  1  0  0  0
 15 16  1  0  0  0
 16 20  1  0  0  0
  9 12  1  0  0  0
  1  2  1  0  0  0
 28 29  1  0  0  0
M  END
> <minimizedAffinity>
-10.13634

$$$$
5NK6_90W_A_1001


 37 40  0  0  0  0  0  0  0  0999 V2000
  -85.7372  -14.8875    8.4878 N   0  0  0  0  0  0  0  0  0  0  0  0
  -84.8773  -14.8855    8.0084 H   0  0  0  0  0  0  0  0  0  0  0  0
  -89.2235  -14.9200    7.3115 C   0  0  0  0  0  0  0  0  0  0  0  0
  -88.1161  -15.1228    8.1246 C   0  0  0  0  0  0  0  0  0  0  0  0
  -89.0791  -14.2889    6.0817 C   0  0  0  0  0  0  0  0  0  0  0  0
  -87.8102  -13.8749    5.6823 C   0  0  0  0  0  0  0  0  0  0  0  0
  -86.7059  -14.0841    6.5062 C   0  0  0  0  0  0  0  0  0  0  0  0
  -86.8481  -14.6986    7.7465 C   0  0  0  0  0  0  0  0  0  0  0  0
  -90.4480  -16.3989    8.6475 N   0  0  0  0  0  0  0  0  0  0  0  0
  -90.4476  -15.3630    7.7989 C   0  0  0  0  0  0  0  0  0  0  0  0
  -91.4834  -14.8179    7.4246 O   0  0  0  0  0  0  0  0  0  0  0  0
  -89.6026  -16.8102    8.9397 H   0  0  0  0  0  0  0  0  0  0  0  0
  -91.6650  -18.4331    9.2802 C   0  0  0  0  0  0  0  0  0  0  0  0
  -92.9771  -18.9049    9.8636 C   0  0  0  0  0  0  0  0  0  0  0  0
  -93.0702  -18.4557   11.3194 C   0  0  0  0  0  0  0  0  0  0  0  0
  -94.4367  -18.1163   11.6076 O   0  0  0  0  0  0  0  0  0  0  0  0
  -92.1288  -17.2639   11.5908 C   0  0  0  0  0  0  0  0  0  0  0  0
  -92.1977  -16.2503   10.4498 C   0  0  0  0  0  0  0  0  0  0  0  0
  -91.7426  -16.9100    9.1349 C   0  0  0  0  0  0  0  0  0  0  0  0
  -94.7204  -17.3946   11.0249 H   0  0  0  0  0  0  0  0  0  0  0  0
  -85.6901  -15.0790    9.8222 C   0  0  0  0  0  0  0  0  0  0  0  0
  -86.0074  -14.0072   11.1053 S   0  0  0  0  0  0  0  0  0  0  0  0
  -85.3400  -16.2701   10.3429 N   0  0  0  0  0  0  0  0  0  0  0  0
  -85.3335  -16.2969   11.7051 C   0  0  0  0  0  0  0  0  0  0  0  0
  -85.6841  -15.1263   12.3047 C   0  0  0  0  0  0  0  0  0  0  0  0
  -85.7792  -14.7780   13.6185 C   0  0  0  0  0  0  0  0  0  0  0  0
  -85.1724  -15.4482   14.4496 O   0  0  0  0  0  0  0  0  0  0  0  0
  -86.5465  -13.7225   13.9861 N   0  0  0  0  0  0  0  0  0  0  0  0
  -87.0271  -13.1933   13.3092 H   0  0  0  0  0  0  0  0  0  0  0  0
  -86.6419  -13.4049   15.3137 C   0  0  0  0  0  0  0  0  0  0  0  0
  -85.7464  -12.4982   15.8930 C   0  0  0  0  0  0  0  0  0  0  0  0
  -84.4662  -11.7662   14.9899 Cl  0  0  0  0  0  0  0  0  0  0  0  0
  -85.8793  -12.1794   17.2443 C   0  0  0  0  0  0  0  0  0  0  0  0
  -86.8906  -12.7492   18.0130 C   0  0  0  0  0  0  0  0  0  0  0  0
  -87.7851  -13.6424   17.4349 C   0  0  0  0  0  0  0  0  0  0  0  0
  -87.6649  -13.9740   16.0860 C   0  0  0  0  0  0  0  0  0  0  0  0
  -88.5784  -14.8722   15.5381 C   0  0  0  0  0  0  0  0  0  0  0  0
  7  6  2  0  0  0
  7  8  1  0  0  0
  6  5  1  0  0  0
  1  8  1  0  0  0
  1 21  1  0  0  0
 23 21  2  0  0  0
 23 24  1  0  0  0
  8  4  2  0  0  0
 21 22  1  0  0  0
 24 25  2  0  0  0
  5  3  2  0  0  0
  4  3  1  0  0  0
 25 22  1  0  0  0
 25 26  1  0  0  0
  3 10  1  0  0  0
 28 26  1  0  0  0
 28 30  1  0  0  0
 37 36  1  0  0  0
 26 27  2  0  0  0
 10  9  1  0  0  0
 10 11  2  0  0  0
 30 36  2  0  0  0
 30 31  1  0  0  0
 36 35  1  0  0  0
  9 19  1  0  0  0
 31 32  1  0  0  0
 31 33  2  0  0  0
 35 34  2  0  0  0
 19 18  1  0  0  0
 19 13  1  0  0  0
 18 17  1  0  0  0
 13 14  1  0  0  0
 33 34  1  0  0  0
 17 15  1  0  0  0
 14 15  1  0  0  0
 15 16  1  0  0  0
 16 20  1  0  0  0
  9 12  1  0  0  0
  1  2  1  0  0  0
 28 29  1  0  0  0
M  END
> <minimizedAffinity>
-10.07741

$$$$
5NK6_90W_A_1001


 37 40  0  0  0  0  0  0  0  0999 V2000
  -85.7146  -14.9000    8.5466 N   0  0  0  0  0  0  0  0  0  0  0  0
  -85.0789  -15.6001    8.2726 H   0  0  0  0  0  0  0  0  0  0  0  0
  -89.1789  -14.9823    7.3095 C   0  0  0  0  0  0  0  0  0  0  0  0
  -88.0861  -15.1537    8.1491 C   0  0  0  0  0  0  0  0  0  0  0  0
  -89.0134  -14.3944    6.0611 C   0  0  0  0  0  0  0  0  0  0  0  0
  -87.7382  -13.9916    5.6704 C   0  0  0  0  0  0  0  0  0  0  0  0
  -86.6487  -14.1690    6.5209 C   0  0  0  0  0  0  0  0  0  0  0  0
  -86.8121  -14.7399    7.7792 C   0  0  0  0  0  0  0  0  0  0  0  0
  -90.4235  -16.4031    8.6893 N   0  0  0  0  0  0  0  0  0  0  0  0
  -90.4108  -15.4108    7.7900 C   0  0  0  0  0  0  0  0  0  0  0  0
  -91.4415  -14.8941    7.3649 O   0  0  0  0  0  0  0  0  0  0  0  0
  -89.5822  -16.7920    9.0212 H   0  0  0  0  0  0  0  0  0  0  0  0
  -91.6877  -18.4299    9.2492 C   0  0  0  0  0  0  0  0  0  0  0  0
  -93.0048  -18.8916    9.8294 C   0  0  0  0  0  0  0  0  0  0  0  0
  -93.0673  -18.5045   11.3045 C   0  0  0  0  0  0  0  0  0  0  0  0
  -94.4203  -18.1417   11.6259 O   0  0  0  0  0  0  0  0  0  0  0  0
  -92.0904  -17.3514   11.6148 C   0  0  0  0  0  0  0  0  0  0  0  0
  -92.1458  -16.2871   10.5201 C   0  0  0  0  0  0  0  0  0  0  0  0
  -91.7254  -16.9003    9.1716 C   0  0  0  0  0  0  0  0  0  0  0  0
  -94.6915  -17.3877   11.0791 H   0  0  0  0  0  0  0  0  0  0  0  0
  -85.4032  -14.1940    9.6531 C   0  0  0  0  0  0  0  0  0  0  0  0
  -84.6246  -14.6734   11.0883 S   0  0  0  0  0  0  0  0  0  0  0  0
  -85.7168  -12.8889    9.7576 N   0  0  0  0  0  0  0  0  0  0  0  0
  -85.3414  -12.3237   10.9391 C   0  0  0  0  0  0  0  0  0  0  0  0
  -84.7134  -13.1655   11.8051 C   0  0  0  0  0  0  0  0  0  0  0  0
  -84.2148  -12.9652   13.0572 C   0  0  0  0  0  0  0  0  0  0  0  0
  -83.3845  -13.7581   13.4929 O   0  0  0  0  0  0  0  0  0  0  0  0
  -84.6503  -11.9184   13.8007 N   0  0  0  0  0  0  0  0  0  0  0  0
  -85.3160  -11.2899   13.4386 H   0  0  0  0  0  0  0  0  0  0  0  0
  -84.1493  -11.7501   15.0629 C   0  0  0  0  0  0  0  0  0  0  0  0
  -82.9756  -11.0155   15.2688 C   0  0  0  0  0  0  0  0  0  0  0  0
  -82.0847  -10.3201   13.9599 Cl  0  0  0  0  0  0  0  0  0  0  0  0
  -82.4986  -10.8448   16.5682 C   0  0  0  0  0  0  0  0  0  0  0  0
  -83.1786  -11.3922   17.6527 C   0  0  0  0  0  0  0  0  0  0  0  0
  -84.3489  -12.1138   17.4484 C   0  0  0  0  0  0  0  0  0  0  0  0
  -84.8383  -12.2960   16.1557 C   0  0  0  0  0  0  0  0  0  0  0  0
  -86.0142  -13.0241   15.9863 C   0  0  0  0  0  0  0  0  0  0  0  0
  7  6  2  0  0  0
  7  8  1  0  0  0
  6  5  1  0  0  0
  1  8  1  0  0  0
  1 21  1  0  0  0
 23 21  2  0  0  0
 23 24  1  0  0  0
  8  4  2  0  0  0
 21 22  1  0  0  0
 24 25  2  0  0  0
  5  3  2  0  0  0
  4  3  1  0  0  0
 25 22  1  0  0  0
 25 26  1  0  0  0
  3 10  1  0  0  0
 28 26  1  0  0  0
 28 30  1  0  0  0
 37 36  1  0  0  0
 26 27  2  0  0  0
 10  9  1  0  0  0
 10 11  2  0  0  0
 30 36  2  0  0  0
 30 31  1  0  0  0
 36 35  1  0  0  0
  9 19  1  0  0  0
 31 32  1  0  0  0
 31 33  2  0  0  0
 35 34  2  0  0  0
 19 18  1  0  0  0
 19 13  1  0  0  0
 18 17  1  0  0  0
 13 14  1  0  0  0
 33 34  1  0  0  0
 17 15  1  0  0  0
 14 15  1  0  0  0
 15 16  1  0  0  0
 16 20  1  0  0  0
  9 12  1  0  0  0
  1  2  1  0  0  0
 28 29  1  0  0  0
M  END
> <minimizedAffinity>
-9.73421

$$$$
5NK6_90W_A_1001


 37 40  0  0  0  0  0  0  0  0999 V2000
  -91.2709  -14.8254   13.1425 N   0  0  0  0  0  0  0  0  0  0  0  0
  -91.8056  -15.2576   13.8472 H   0  0  0  0  0  0  0  0  0  0  0  0
  -91.4010  -15.2582    9.4909 C   0  0  0  0  0  0  0  0  0  0  0  0
  -90.8892  -15.1551   10.7777 C   0  0  0  0  0  0  0  0  0  0  0  0
  -92.7693  -15.1484    9.2740 C   0  0  0  0  0  0  0  0  0  0  0  0
  -93.6081  -14.9270   10.3640 C   0  0  0  0  0  0  0  0  0  0  0  0
  -93.0836  -14.8247   11.6510 C   0  0  0  0  0  0  0  0  0  0  0  0
  -91.7164  -14.9525   11.8758 C   0  0  0  0  0  0  0  0  0  0  0  0
  -89.3075  -14.8511    8.5301 N   0  0  0  0  0  0  0  0  0  0  0  0
  -90.4858  -15.4847    8.4695 C   0  0  0  0  0  0  0  0  0  0  0  0
  -90.7864  -16.2286    7.5387 O   0  0  0  0  0  0  0  0  0  0  0  0
  -89.0880  -14.2690    9.2931 H   0  0  0  0  0  0  0  0  0  0  0  0
  -88.5462  -13.9452    6.3808 C   0  0  0  0  0  0  0  0  0  0  0  0
  -87.4873  -14.1275    5.3179 C   0  0  0  0  0  0  0  0  0  0  0  0
  -86.1239  -13.7619    5.8988 C   0  0  0  0  0  0  0  0  0  0  0  0
  -85.1363  -14.6437    5.3395 O   0  0  0  0  0  0  0  0  0  0  0  0
  -86.1397  -13.8452    7.4392 C   0  0  0  0  0  0  0  0  0  0  0  0
  -86.8824  -15.0964    7.9050 C   0  0  0  0  0  0  0  0  0  0  0  0
  -88.3459  -15.0446    7.4288 C   0  0  0  0  0  0  0  0  0  0  0  0
  -85.3538  -15.5604    5.5700 H   0  0  0  0  0  0  0  0  0  0  0  0
  -90.1637  -14.1637   13.5376 C   0  0  0  0  0  0  0  0  0  0  0  0
  -88.7176  -14.7393   14.2256 S   0  0  0  0  0  0  0  0  0  0  0  0
  -90.0752  -12.8251   13.4254 N   0  0  0  0  0  0  0  0  0  0  0  0
  -88.8971  -12.3098   13.8758 C   0  0  0  0  0  0  0  0  0  0  0  0
  -88.0138  -13.2282   14.3544 C   0  0  0  0  0  0  0  0  0  0  0  0
  -86.7668  -13.0898   14.8860 C   0  0  0  0  0  0  0  0  0  0  0  0
  -86.0893  -14.0981   15.0656 O   0  0  0  0  0  0  0  0  0  0  0  0
  -86.3057  -11.8597   15.2213 N   0  0  0  0  0  0  0  0  0  0  0  0
  -86.8593  -11.0596   15.0710 H   0  0  0  0  0  0  0  0  0  0  0  0
  -85.0580  -11.7489   15.7720 C   0  0  0  0  0  0  0  0  0  0  0  0
  -83.9384  -11.5405   14.9579 C   0  0  0  0  0  0  0  0  0  0  0  0
  -84.0586  -11.4490   13.2352 Cl  0  0  0  0  0  0  0  0  0  0  0  0
  -82.6815  -11.4128   15.5487 C   0  0  0  0  0  0  0  0  0  0  0  0
  -82.5350  -11.4866   16.9312 C   0  0  0  0  0  0  0  0  0  0  0  0
  -83.6484  -11.6844   17.7397 C   0  0  0  0  0  0  0  0  0  0  0  0
  -84.9118  -11.8165   17.1652 C   0  0  0  0  0  0  0  0  0  0  0  0
  -86.0066  -12.0133   18.0044 C   0  0  0  0  0  0  0  0  0  0  0  0
  7  6  2  0  0  0
  7  8  1  0  0  0
  6  5  1  0  0  0
  1  8  1  0  0  0
  1 21  1  0  0  0
 23 21  2  0  0  0
 23 24  1  0  0  0
  8  4  2  0  0  0
 21 22  1  0  0  0
 24 25  2  0  0  0
  5  3  2  0  0  0
  4  3  1  0  0  0
 25 22  1  0  0  0
 25 26  1  0  0  0
  3 10  1  0  0  0
 28 26  1  0  0  0
 28 30  1  0  0  0
 37 36  1  0  0  0
 26 27  2  0  0  0
 10  9  1  0  0  0
 10 11  2  0  0  0
 30 36  2  0  0  0
 30 31  1  0  0  0
 36 35  1  0  0  0
  9 19  1  0  0  0
 31 32  1  0  0  0
 31 33  2  0  0  0
 35 34  2  0  0  0
 19 18  1  0  0  0
 19 13  1  0  0  0
 18 17  1  0  0  0
 13 14  1  0  0  0
 33 34  1  0  0  0
 17 15  1  0  0  0
 14 15  1  0  0  0
 15 16  1  0  0  0
 16 20  1  0  0  0
  9 12  1  0  0  0
  1  2  1  0  0  0
 28 29  1  0  0  0
M  END
> <minimizedAffinity>
-9.70731

$$$$
5NK6_90W_A_1001


 37 40  0  0  0  0  0  0  0  0999 V2000
  -85.7349  -14.8027    8.6728 N   0  0  0  0  0  0  0  0  0  0  0  0
  -84.8588  -14.8222    8.2242 H   0  0  0  0  0  0  0  0  0  0  0  0
  -89.1736  -14.9346    7.3703 C   0  0  0  0  0  0  0  0  0  0  0  0
  -88.0948  -15.0893    8.2309 C   0  0  0  0  0  0  0  0  0  0  0  0
  -88.9922  -14.3473    6.1238 C   0  0  0  0  0  0  0  0  0  0  0  0
  -87.7155  -13.9282    5.7563 C   0  0  0  0  0  0  0  0  0  0  0  0
  -86.6400  -14.0889    6.6279 C   0  0  0  0  0  0  0  0  0  0  0  0
  -86.8197  -14.6592    7.8843 C   0  0  0  0  0  0  0  0  0  0  0  0
  -90.4237  -16.3185    8.7822 N   0  0  0  0  0  0  0  0  0  0  0  0
  -90.4085  -15.3786    7.8283 C   0  0  0  0  0  0  0  0  0  0  0  0
  -91.4383  -14.9234    7.3360 O   0  0  0  0  0  0  0  0  0  0  0  0
  -89.5836  -16.6582    9.1671 H   0  0  0  0  0  0  0  0  0  0  0  0
  -91.6746  -18.3634    9.3050 C   0  0  0  0  0  0  0  0  0  0  0  0
  -92.9939  -18.8440    9.8643 C   0  0  0  0  0  0  0  0  0  0  0  0
  -93.0780  -18.4736   11.3426 C   0  0  0  0  0  0  0  0  0  0  0  0
  -94.4382  -18.1273   11.6515 O   0  0  0  0  0  0  0  0  0  0  0  0
  -92.1161  -17.3145   11.6770 C   0  0  0  0  0  0  0  0  0  0  0  0
  -92.1689  -16.2390   10.5932 C   0  0  0  0  0  0  0  0  0  0  0  0
  -91.7264  -16.8335    9.2433 C   0  0  0  0  0  0  0  0  0  0  0  0
  -94.7101  -17.3702   11.1096 H   0  0  0  0  0  0  0  0  0  0  0  0
  -85.7338  -14.9221   10.0165 C   0  0  0  0  0  0  0  0  0  0  0  0
  -85.8251  -16.3049   11.0041 S   0  0  0  0  0  0  0  0  0  0  0  0
  -85.6603  -13.8384   10.8119 N   0  0  0  0  0  0  0  0  0  0  0  0
  -85.6782  -14.1282   12.1430 C   0  0  0  0  0  0  0  0  0  0  0  0
  -85.7617  -15.4536   12.4417 C   0  0  0  0  0  0  0  0  0  0  0  0
  -85.8127  -16.1085   13.6354 C   0  0  0  0  0  0  0  0  0  0  0  0
  -85.1051  -15.7085   14.5559 O   0  0  0  0  0  0  0  0  0  0  0  0
  -86.6190  -17.1885   13.7821 N   0  0  0  0  0  0  0  0  0  0  0  0
  -87.1817  -17.4980   13.0358 H   0  0  0  0  0  0  0  0  0  0  0  0
  -86.6376  -17.8413   14.9845 C   0  0  0  0  0  0  0  0  0  0  0  0
  -87.4735  -17.4021   16.0180 C   0  0  0  0  0  0  0  0  0  0  0  0
  -88.4873  -16.0110   15.8522 Cl  0  0  0  0  0  0  0  0  0  0  0  0
  -87.4851  -18.0983   17.2264 C   0  0  0  0  0  0  0  0  0  0  0  0
  -86.6807  -19.2199   17.4084 C   0  0  0  0  0  0  0  0  0  0  0  0
  -85.8578  -19.6610   16.3786 C   0  0  0  0  0  0  0  0  0  0  0  0
  -85.8322  -18.9751   15.1650 C   0  0  0  0  0  0  0  0  0  0  0  0
  -84.9964  -19.4442   14.1537 C   0  0  0  0  0  0  0  0  0  0  0  0
  7  6  2  0  0  0
  7  8  1  0  0  0
  6  5  1  0  0  0
  1  8  1  0  0  0
  1 21  1  0  0  0
 23 21  2  0  0  0
 23 24  1  0  0  0
  8  4  2  0  0  0
 21 22  1  0  0  0
 24 25  2  0  0  0
  5  3  2  0  0  0
  4  3  1  0  0  0
 25 22  1  0  0  0
 25 26  1  0  0  0
  3 10  1  0  0  0
 28 26  1  0  0  0
 28 30  1  0  0  0
 37 36  1  0  0  0
 26 27  2  0  0  0
 10  9  1  0  0  0
 10 11  2  0  0  0
 30 36  2  0  0  0
 30 31  1  0  0  0
 36 35  1  0  0  0
  9 19  1  0  0  0
 31 32  1  0  0  0
 31 33  2  0  0  0
 35 34  2  0  0  0
 19 18  1  0  0  0
 19 13  1  0  0  0
 18 17  1  0  0  0
 13 14  1  0  0  0
 33 34  1  0  0  0
 17 15  1  0  0  0
 14 15  1  0  0  0
 15 16  1  0  0  0
 16 20  1  0  0  0
  9 12  1  0  0  0
  1  2  1  0  0  0
 28 29  1  0  0  0
M  END
> <minimizedAffinity>
-9.56808

$$$$
5NK6_90W_A_1001


 37 40  0  0  0  0  0  0  0  0999 V2000
  -85.3951  -13.9738    7.5949 N   0  0  0  0  0  0  0  0  0  0  0  0
  -84.8958  -14.0135    6.7474 H   0  0  0  0  0  0  0  0  0  0  0  0
  -84.5036  -13.0618   11.0463 C   0  0  0  0  0  0  0  0  0  0  0  0
  -85.2317  -13.5521    9.9702 C   0  0  0  0  0  0  0  0  0  0  0  0
  -83.2388  -12.5224   10.8444 C   0  0  0  0  0  0  0  0  0  0  0  0
  -82.7249  -12.4772    9.5503 C   0  0  0  0  0  0  0  0  0  0  0  0
  -83.4646  -12.9717    8.4777 C   0  0  0  0  0  0  0  0  0  0  0  0
  -84.7235  -13.5298    8.6771 C   0  0  0  0  0  0  0  0  0  0  0  0
  -86.2223  -13.8755   12.4086 N   0  0  0  0  0  0  0  0  0  0  0  0
  -85.0982  -13.1558   12.2992 C   0  0  0  0  0  0  0  0  0  0  0  0
  -84.5994  -12.5644   13.2540 O   0  0  0  0  0  0  0  0  0  0  0  0
  -86.5946  -14.3484   11.6295 H   0  0  0  0  0  0  0  0  0  0  0  0
  -88.1962  -13.1452   13.6695 C   0  0  0  0  0  0  0  0  0  0  0  0
  -88.8898  -13.3141   15.0017 C   0  0  0  0  0  0  0  0  0  0  0  0
  -89.4033  -14.7464   15.1230 C   0  0  0  0  0  0  0  0  0  0  0  0
  -89.2701  -15.1665   16.4909 O   0  0  0  0  0  0  0  0  0  0  0  0
  -88.6385  -15.6896   14.1713 C   0  0  0  0  0  0  0  0  0  0  0  0
  -87.1414  -15.3867   14.1984 C   0  0  0  0  0  0  0  0  0  0  0  0
  -86.8901  -13.9441   13.7217 C   0  0  0  0  0  0  0  0  0  0  0  0
  -88.3360  -15.1318   16.7503 H   0  0  0  0  0  0  0  0  0  0  0  0
  -86.6845  -14.3687    7.5612 C   0  0  0  0  0  0  0  0  0  0  0  0
  -87.6719  -15.0272    8.7807 S   0  0  0  0  0  0  0  0  0  0  0  0
  -87.4099  -14.2825    6.4303 N   0  0  0  0  0  0  0  0  0  0  0  0
  -88.6906  -14.7289    6.5604 C   0  0  0  0  0  0  0  0  0  0  0  0
  -89.0193  -15.1780    7.8025 C   0  0  0  0  0  0  0  0  0  0  0  0
  -90.1779  -15.6971    8.2974 C   0  0  0  0  0  0  0  0  0  0  0  0
  -91.2337  -15.4190    7.7353 O   0  0  0  0  0  0  0  0  0  0  0  0
  -90.1506  -16.4872    9.3988 N   0  0  0  0  0  0  0  0  0  0  0  0
  -89.2968  -16.7027    9.8391 H   0  0  0  0  0  0  0  0  0  0  0  0
  -91.3295  -16.9801    9.8883 C   0  0  0  0  0  0  0  0  0  0  0  0
  -92.0808  -16.2401   10.8089 C   0  0  0  0  0  0  0  0  0  0  0  0
  -91.5550  -14.7023   11.3998 Cl  0  0  0  0  0  0  0  0  0  0  0  0
  -93.2878  -16.7595   11.2764 C   0  0  0  0  0  0  0  0  0  0  0  0
  -93.7481  -17.9968   10.8342 C   0  0  0  0  0  0  0  0  0  0  0  0
  -93.0060  -18.7270    9.9131 C   0  0  0  0  0  0  0  0  0  0  0  0
  -91.7961  -18.2234    9.4374 C   0  0  0  0  0  0  0  0  0  0  0  0
  -91.0776  -18.9807    8.5145 C   0  0  0  0  0  0  0  0  0  0  0  0
  7  6  2  0  0  0
  7  8  1  0  0  0
  6  5  1  0  0  0
  1  8  1  0  0  0
  1 21  1  0  0  0
 23 21  2  0  0  0
 23 24  1  0  0  0
  8  4  2  0  0  0
 21 22  1  0  0  0
 24 25  2  0  0  0
  5  3  2  0  0  0
  4  3  1  0  0  0
 25 22  1  0  0  0
 25 26  1  0  0  0
  3 10  1  0  0  0
 28 26  1  0  0  0
 28 30  1  0  0  0
 37 36  1  0  0  0
 26 27  2  0  0  0
 10  9  1  0  0  0
 10 11  2  0  0  0
 30 36  2  0  0  0
 30 31  1  0  0  0
 36 35  1  0  0  0
  9 19  1  0  0  0
 31 32  1  0  0  0
 31 33  2  0  0  0
 35 34  2  0  0  0
 19 18  1  0  0  0
 19 13  1  0  0  0
 18 17  1  0  0  0
 13 14  1  0  0  0
 33 34  1  0  0  0
 17 15  1  0  0  0
 14 15  1  0  0  0
 15 16  1  0  0  0
 16 20  1  0  0  0
  9 12  1  0  0  0
  1  2  1  0  0  0
 28 29  1  0  0  0
M  END
> <minimizedAffinity>
-9.37418

$$$$
5NK6_90W_A_1001


 37 40  0  0  0  0  0  0  0  0999 V2000
  -87.7323  -12.5432   14.0167 N   0  0  0  0  0  0  0  0  0  0  0  0
  -88.0279  -11.6453   14.2918 H   0  0  0  0  0  0  0  0  0  0  0  0
  -89.5954  -15.6041   14.8521 C   0  0  0  0  0  0  0  0  0  0  0  0
  -89.0651  -14.5585   14.1078 C   0  0  0  0  0  0  0  0  0  0  0  0
  -89.3308  -15.6950   16.2135 C   0  0  0  0  0  0  0  0  0  0  0  0
  -88.5361  -14.7194   16.8115 C   0  0  0  0  0  0  0  0  0  0  0  0
  -88.0096  -13.6743   16.0548 C   0  0  0  0  0  0  0  0  0  0  0  0
  -88.2561  -13.5891   14.6881 C   0  0  0  0  0  0  0  0  0  0  0  0
  -90.3569  -16.4932   12.8270 N   0  0  0  0  0  0  0  0  0  0  0  0
  -90.3713  -16.5308   14.1656 C   0  0  0  0  0  0  0  0  0  0  0  0
  -91.0594  -17.3314   14.7945 O   0  0  0  0  0  0  0  0  0  0  0  0
  -89.7878  -15.8483   12.3479 H   0  0  0  0  0  0  0  0  0  0  0  0
  -92.4789  -16.7167   11.6159 C   0  0  0  0  0  0  0  0  0  0  0  0
  -93.2827  -17.6937   10.7889 C   0  0  0  0  0  0  0  0  0  0  0  0
  -92.5594  -17.9493    9.4693 C   0  0  0  0  0  0  0  0  0  0  0  0
  -92.7492  -19.3257    9.1021 O   0  0  0  0  0  0  0  0  0  0  0  0
  -91.0605  -17.6028    9.5851 C   0  0  0  0  0  0  0  0  0  0  0  0
  -90.4885  -18.1136   10.9064 C   0  0  0  0  0  0  0  0  0  0  0  0
  -91.2124  -17.4389   12.0863 C   0  0  0  0  0  0  0  0  0  0  0  0
  -92.3800  -19.8984    9.7925 H   0  0  0  0  0  0  0  0  0  0  0  0
  -86.8426  -12.6078   13.0047 C   0  0  0  0  0  0  0  0  0  0  0  0
  -87.0853  -12.7215   11.3242 S   0  0  0  0  0  0  0  0  0  0  0  0
  -85.5173  -12.5962   13.2408 N   0  0  0  0  0  0  0  0  0  0  0  0
  -84.7550  -12.6758   12.1144 C   0  0  0  0  0  0  0  0  0  0  0  0
  -85.4560  -12.7479   10.9499 C   0  0  0  0  0  0  0  0  0  0  0  0
  -85.0462  -12.8464    9.6541 C   0  0  0  0  0  0  0  0  0  0  0  0
  -84.5350  -11.8641    9.1232 O   0  0  0  0  0  0  0  0  0  0  0  0
  -85.2232  -14.0055    8.9735 N   0  0  0  0  0  0  0  0  0  0  0  0
  -85.6338  -14.7856    9.4118 H   0  0  0  0  0  0  0  0  0  0  0  0
  -84.8215  -14.0731    7.6672 C   0  0  0  0  0  0  0  0  0  0  0  0
  -83.4621  -14.1669    7.3462 C   0  0  0  0  0  0  0  0  0  0  0  0
  -82.2291  -14.1660    8.5587 Cl  0  0  0  0  0  0  0  0  0  0  0  0
  -83.0834  -14.2530    6.0067 C   0  0  0  0  0  0  0  0  0  0  0  0
  -84.0405  -14.2503    4.9957 C   0  0  0  0  0  0  0  0  0  0  0  0
  -85.3907  -14.1664    5.3155 C   0  0  0  0  0  0  0  0  0  0  0  0
  -85.7864  -14.0772    6.6494 C   0  0  0  0  0  0  0  0  0  0  0  0
  -87.1477  -13.9949    6.9351 C   0  0  0  0  0  0  0  0  0  0  0  0
  7  6  2  0  0  0
  7  8  1  0  0  0
  6  5  1  0  0  0
  1  8  1  0  0  0
  1 21  1  0  0  0
 23 21  2  0  0  0
 23 24  1  0  0  0
  8  4  2  0  0  0
 21 22  1  0  0  0
 24 25  2  0  0  0
  5  3  2  0  0  0
  4  3  1  0  0  0
 25 22  1  0  0  0
 25 26  1  0  0  0
  3 10  1  0  0  0
 28 26  1  0  0  0
 28 30  1  0  0  0
 37 36  1  0  0  0
 26 27  2  0  0  0
 10  9  1  0  0  0
 10 11  2  0  0  0
 30 36  2  0  0  0
 30 31  1  0  0  0
 36 35  1  0  0  0
  9 19  1  0  0  0
 31 32  1  0  0  0
 31 33  2  0  0  0
 35 34  2  0  0  0
 19 18  1  0  0  0
 19 13  1  0  0  0
 18 17  1  0  0  0
 13 14  1  0  0  0
 33 34  1  0  0  0
 17 15  1  0  0  0
 14 15  1  0  0  0
 15 16  1  0  0  0
 16 20  1  0  0  0
  9 12  1  0  0  0
  1  2  1  0  0  0
 28 29  1  0  0  0
M  END
> <minimizedAffinity>
-9.29244

$$$$
5NK6_90W_A_1001


 37 40  0  0  0  0  0  0  0  0999 V2000
  -91.0796  -15.4561    7.9635 N   0  0  0  0  0  0  0  0  0  0  0  0
  -91.6148  -15.8897    7.2602 H   0  0  0  0  0  0  0  0  0  0  0  0
  -91.7156  -14.5964   11.4842 C   0  0  0  0  0  0  0  0  0  0  0  0
  -91.0380  -14.7902   10.2876 C   0  0  0  0  0  0  0  0  0  0  0  0
  -93.0787  -14.8556   11.5633 C   0  0  0  0  0  0  0  0  0  0  0  0
  -93.7432  -15.3171   10.4291 C   0  0  0  0  0  0  0  0  0  0  0  0
  -93.0530  -15.5084    9.2337 C   0  0  0  0  0  0  0  0  0  0  0  0
  -91.6922  -15.2326    9.1442 C   0  0  0  0  0  0  0  0  0  0  0  0
  -89.8215  -13.4883   12.2943 N   0  0  0  0  0  0  0  0  0  0  0  0
  -90.9678  -14.1285   12.5584 C   0  0  0  0  0  0  0  0  0  0  0  0
  -91.3585  -14.3333   13.7054 O   0  0  0  0  0  0  0  0  0  0  0  0
  -89.5374  -13.3280   11.3654 H   0  0  0  0  0  0  0  0  0  0  0  0
  -88.1573  -14.1995   13.9508 C   0  0  0  0  0  0  0  0  0  0  0  0
  -87.2626  -13.6673   15.0466 C   0  0  0  0  0  0  0  0  0  0  0  0
  -86.1932  -12.7692   14.4304 C   0  0  0  0  0  0  0  0  0  0  0  0
  -85.9327  -11.6816   15.3330 O   0  0  0  0  0  0  0  0  0  0  0  0
  -86.6363  -12.2530   13.0457 C   0  0  0  0  0  0  0  0  0  0  0  0
  -88.1023  -11.8240   13.0729 C   0  0  0  0  0  0  0  0  0  0  0  0
  -88.9943  -13.0289   13.4254 C   0  0  0  0  0  0  0  0  0  0  0  0
  -86.7471  -11.1725   15.4694 H   0  0  0  0  0  0  0  0  0  0  0  0
  -89.8047  -15.1431    7.6529 C   0  0  0  0  0  0  0  0  0  0  0  0
  -88.3623  -15.3892    8.5215 S   0  0  0  0  0  0  0  0  0  0  0  0
  -89.5015  -14.5255    6.4956 N   0  0  0  0  0  0  0  0  0  0  0  0
  -88.1722  -14.2726    6.3366 C   0  0  0  0  0  0  0  0  0  0  0  0
  -87.3811  -14.6881    7.3634 C   0  0  0  0  0  0  0  0  0  0  0  0
  -86.0355  -14.6006    7.5588 C   0  0  0  0  0  0  0  0  0  0  0  0
  -85.4831  -15.4617    8.2381 O   0  0  0  0  0  0  0  0  0  0  0  0
  -85.3385  -13.5684    7.0231 N   0  0  0  0  0  0  0  0  0  0  0  0
  -85.7940  -12.8854    6.4798 H   0  0  0  0  0  0  0  0  0  0  0  0
  -83.9913  -13.4919    7.2502 C   0  0  0  0  0  0  0  0  0  0  0  0
  -83.5032  -13.0091    8.4702 C   0  0  0  0  0  0  0  0  0  0  0  0
  -84.5545  -12.4560    9.7269 Cl  0  0  0  0  0  0  0  0  0  0  0  0
  -82.1253  -12.9599    8.6805 C   0  0  0  0  0  0  0  0  0  0  0  0
  -81.2400  -13.3879    7.6949 C   0  0  0  0  0  0  0  0  0  0  0  0
  -81.7256  -13.8758    6.4872 C   0  0  0  0  0  0  0  0  0  0  0  0
  -83.1001  -13.9296    6.2597 C   0  0  0  0  0  0  0  0  0  0  0  0
  -83.5531  -14.4245    5.0386 C   0  0  0  0  0  0  0  0  0  0  0  0
  7  6  2  0  0  0
  7  8  1  0  0  0
  6  5  1  0  0  0
  1  8  1  0  0  0
  1 21  1  0  0  0
 23 21  2  0  0  0
 23 24  1  0  0  0
  8  4  2  0  0  0
 21 22  1  0  0  0
 24 25  2  0  0  0
  5  3  2  0  0  0
  4  3  1  0  0  0
 25 22  1  0  0  0
 25 26  1  0  0  0
  3 10  1  0  0  0
 28 26  1  0  0  0
 28 30  1  0  0  0
 37 36  1  0  0  0
 26 27  2  0  0  0
 10  9  1  0  0  0
 10 11  2  0  0  0
 30 36  2  0  0  0
 30 31  1  0  0  0
 36 35  1  0  0  0
  9 19  1  0  0  0
 31 32  1  0  0  0
 31 33  2  0  0  0
 35 34  2  0  0  0
 19 18  1  0  0  0
 19 13  1  0  0  0
 18 17  1  0  0  0
 13 14  1  0  0  0
 33 34  1  0  0  0
 17 15  1  0  0  0
 14 15  1  0  0  0
 15 16  1  0  0  0
 16 20  1  0  0  0
  9 12  1  0  0  0
  1  2  1  0  0  0
 28 29  1  0  0  0
M  END
> <minimizedAffinity>
-9.05267

$$$$
5NK6_90W_A_1001


 37 40  0  0  0  0  0  0  0  0999 V2000
  -86.7366  -12.7676   14.0867 N   0  0  0  0  0  0  0  0  0  0  0  0
  -86.6855  -11.8400   14.4126 H   0  0  0  0  0  0  0  0  0  0  0  0
  -89.0955  -15.4129   15.0746 C   0  0  0  0  0  0  0  0  0  0  0  0
  -88.3468  -14.5618   14.2725 C   0  0  0  0  0  0  0  0  0  0  0  0
  -88.9891  -15.3398   16.4584 C   0  0  0  0  0  0  0  0  0  0  0  0
  -88.1289  -14.3980   17.0187 C   0  0  0  0  0  0  0  0  0  0  0  0
  -87.3826  -13.5486   16.2040 C   0  0  0  0  0  0  0  0  0  0  0  0
  -87.4716  -13.6303   14.8179 C   0  0  0  0  0  0  0  0  0  0  0  0
  -90.2841  -16.0498   13.1633 N   0  0  0  0  0  0  0  0  0  0  0  0
  -89.9210  -16.3220   14.4233 C   0  0  0  0  0  0  0  0  0  0  0  0
  -90.3111  -17.3233   15.0193 O   0  0  0  0  0  0  0  0  0  0  0  0
  -89.9481  -15.2456   12.7055 H   0  0  0  0  0  0  0  0  0  0  0  0
  -92.3459  -16.1901   11.8408 C   0  0  0  0  0  0  0  0  0  0  0  0
  -93.2076  -17.1681   11.0757 C   0  0  0  0  0  0  0  0  0  0  0  0
  -92.4446  -17.6557    9.8469 C   0  0  0  0  0  0  0  0  0  0  0  0
  -92.7686  -19.0383    9.6253 O   0  0  0  0  0  0  0  0  0  0  0  0
  -90.9249  -17.4593   10.0266 C   0  0  0  0  0  0  0  0  0  0  0  0
  -90.4904  -17.8658   11.4337 C   0  0  0  0  0  0  0  0  0  0  0  0
  -91.1984  -16.9812   12.4766 C   0  0  0  0  0  0  0  0  0  0  0  0
  -92.5067  -19.5599   10.4000 H   0  0  0  0  0  0  0  0  0  0  0  0
  -86.0646  -13.0522   12.9521 C   0  0  0  0  0  0  0  0  0  0  0  0
  -86.1853  -12.3749   11.3957 S   0  0  0  0  0  0  0  0  0  0  0  0
  -85.1257  -14.0166   12.9222 N   0  0  0  0  0  0  0  0  0  0  0  0
  -84.5464  -14.1855   11.7006 C   0  0  0  0  0  0  0  0  0  0  0  0
  -85.0071  -13.3542   10.7261 C   0  0  0  0  0  0  0  0  0  0  0  0
  -84.6801  -13.2395    9.4084 C   0  0  0  0  0  0  0  0  0  0  0  0
  -84.5982  -12.1163    8.9188 O   0  0  0  0  0  0  0  0  0  0  0  0
  -84.4708  -14.3523    8.6626 N   0  0  0  0  0  0  0  0  0  0  0  0
  -84.5390  -15.2467    9.0683 H   0  0  0  0  0  0  0  0  0  0  0  0
  -84.1631  -14.2114    7.3368 C   0  0  0  0  0  0  0  0  0  0  0  0
  -85.1786  -14.0805    6.3822 C   0  0  0  0  0  0  0  0  0  0  0  0
  -86.8536  -14.1250    6.8099 Cl  0  0  0  0  0  0  0  0  0  0  0  0
  -84.8348  -13.9197    5.0402 C   0  0  0  0  0  0  0  0  0  0  0  0
  -83.4994  -13.8848    4.6478 C   0  0  0  0  0  0  0  0  0  0  0  0
  -82.4914  -14.0056    5.5972 C   0  0  0  0  0  0  0  0  0  0  0  0
  -82.8178  -14.1695    6.9428 C   0  0  0  0  0  0  0  0  0  0  0  0
  -81.7830  -14.2871    7.8684 C   0  0  0  0  0  0  0  0  0  0  0  0
  7  6  2  0  0  0
  7  8  1  0  0  0
  6  5  1  0  0  0
  1  8  1  0  0  0
  1 21  1  0  0  0
 23 21  2  0  0  0
 23 24  1  0  0  0
  8  4  2  0  0  0
 21 22  1  0  0  0
 24 25  2  0  0  0
  5  3  2  0  0  0
  4  3  1  0  0  0
 25 22  1  0  0  0
 25 26  1  0  0  0
  3 10  1  0  0  0
 28 26  1  0  0  0
 28 30  1  0  0  0
 37 36  1  0  0  0
 26 27  2  0  0  0
 10  9  1  0  0  0
 10 11  2  0  0  0
 30 36  2  0  0  0
 30 31  1  0  0  0
 36 35  1  0  0  0
  9 19  1  0  0  0
 31 32  1  0  0  0
 31 33  2  0  0  0
 35 34  2  0  0  0
 19 18  1  0  0  0
 19 13  1  0  0  0
 18 17  1  0  0  0
 13 14  1  0  0  0
 33 34  1  0  0  0
 17 15  1  0  0  0
 14 15  1  0  0  0
 15 16  1  0  0  0
 16 20  1  0  0  0
  9 12  1  0  0  0
  1  2  1  0  0  0
 28 29  1  0  0  0
M  END
> <minimizedAffinity>
-8.87988

$$$$
