1HVS_A77_A_800


 64 67  0  0  0  0  0  0  0  0999 V2000
    6.2036    0.0158   15.3620 C   0  0  0  0  0  0  0  0  0  0  0  0
    7.3653   -0.6969   15.7405 O   0  0  0  0  0  0  0  0  0  0  0  0
    7.3408   -1.5851   15.3515 H   0  0  0  0  0  0  0  0  0  0  0  0
    5.2883   -0.4653   17.3449 O   0  0  0  0  0  0  0  0  0  0  0  0
    4.9758   -0.6081   15.9921 C   0  0  0  0  0  0  0  0  0  0  0  0
    5.4345    0.4724   17.5457 H   0  0  0  0  0  0  0  0  0  0  0  0
    4.7709   -2.1004   15.7996 C   0  0  0  0  0  0  0  0  0  0  0  0
    5.8315   -2.8920   16.4641 N   0  0  0  0  0  0  0  0  0  0  0  0
    6.4603   -3.9219   15.8629 C   0  0  0  0  0  0  0  0  0  0  0  0
    6.2658   -4.1990   14.6897 O   0  0  0  0  0  0  0  0  0  0  0  0
    6.0886   -2.6560   17.3847 H   0  0  0  0  0  0  0  0  0  0  0  0
    7.4560   -4.7284   16.6827 C   0  0  0  0  0  0  0  0  0  0  0  0
    6.8588   -6.0256   16.9597 N   0  0  0  0  0  0  0  0  0  0  0  0
    6.5071   -6.4239   18.1928 C   0  0  0  0  0  0  0  0  0  0  0  0
    6.8714   -5.8388   19.1964 O   0  0  0  0  0  0  0  0  0  0  0  0
    5.7672   -7.5132   18.2962 N   0  0  0  0  0  0  0  0  0  0  0  0
    5.3269   -8.2201   17.0854 C   0  0  0  0  0  0  0  0  0  0  0  0
    6.7051   -6.6411   16.2068 H   0  0  0  0  0  0  0  0  0  0  0  0
    5.4140   -8.0215   19.6150 C   0  0  0  0  0  0  0  0  0  0  0  0
    4.0222   -7.6180   20.0352 C   0  0  0  0  0  0  0  0  0  0  0  0
    2.9716   -8.5034   19.8008 C   0  0  0  0  0  0  0  0  0  0  0  0
    3.8686   -6.4139   20.5715 N   0  0  0  0  0  0  0  0  0  0  0  0
    1.6806   -8.1397   20.0952 C   0  0  0  0  0  0  0  0  0  0  0  0
    2.6118   -6.0740   20.8119 C   0  0  0  0  0  0  0  0  0  0  0  0
    1.4981   -6.8796   20.6075 C   0  0  0  0  0  0  0  0  0  0  0  0
    8.7713   -4.9642   15.9523 C   0  0  0  0  0  0  0  0  0  0  0  0
    9.5101   -3.6476   15.6595 C   0  0  0  0  0  0  0  0  0  0  0  0
    9.6601   -5.9412   16.7495 C   0  0  0  0  0  0  0  0  0  0  0  0
    3.3976   -2.4462   16.4018 C   0  0  0  0  0  0  0  0  0  0  0  0
    2.9345   -3.8850   16.1670 C   0  0  0  0  0  0  0  0  0  0  0  0
    2.8488   -4.7883   17.2271 C   0  0  0  0  0  0  0  0  0  0  0  0
    2.4357   -6.0893   17.0153 C   0  0  0  0  0  0  0  0  0  0  0  0
    2.1027   -6.5266   15.7603 C   0  0  0  0  0  0  0  0  0  0  0  0
    2.1726   -5.6458   14.6968 C   0  0  0  0  0  0  0  0  0  0  0  0
    2.5844   -4.3335   14.8975 C   0  0  0  0  0  0  0  0  0  0  0  0
    6.2611    0.1858   13.8923 C   0  0  0  0  0  0  0  0  0  0  0  0
    4.2045    0.4503   12.6202 C   0  0  0  0  0  0  0  0  0  0  0  0
    4.2927   -0.6703   12.1391 O   0  0  0  0  0  0  0  0  0  0  0  0
    5.0817    0.9257   13.4888 N   0  0  0  0  0  0  0  0  0  0  0  0
    4.9274    1.8173   13.8767 H   0  0  0  0  0  0  0  0  0  0  0  0
    3.0824    1.4187   12.2679 C   0  0  0  0  0  0  0  0  0  0  0  0
    3.8264    3.4999   11.1845 C   0  0  0  0  0  0  0  0  0  0  0  0
    3.6339    4.1777   12.1787 O   0  0  0  0  0  0  0  0  0  0  0  0
    4.3437    4.0521   10.0655 N   0  0  0  0  0  0  0  0  0  0  0  0
    4.7225    3.2708    8.8824 C   0  0  0  0  0  0  0  0  0  0  0  0
    3.5365    2.1947   11.1554 N   0  0  0  0  0  0  0  0  0  0  0  0
    3.6449    1.7283   10.2952 H   0  0  0  0  0  0  0  0  0  0  0  0
    4.5696    5.4605    9.9826 C   0  0  0  0  0  0  0  0  0  0  0  0
    6.0284    5.7271   10.1866 C   0  0  0  0  0  0  0  0  0  0  0  0
    6.5726    5.7937   11.4580 C   0  0  0  0  0  0  0  0  0  0  0  0
    6.7292    5.8519    9.0850 N   0  0  0  0  0  0  0  0  0  0  0  0
    7.9285    5.9824   11.5818 C   0  0  0  0  0  0  0  0  0  0  0  0
    8.0263    6.0445    9.2311 C   0  0  0  0  0  0  0  0  0  0  0  0
    8.6808    6.1102   10.4394 C   0  0  0  0  0  0  0  0  0  0  0  0
    1.7711    0.7040   11.9170 C   0  0  0  0  0  0  0  0  0  0  0  0
    0.9504    0.2613   13.1537 C   0  0  0  0  0  0  0  0  0  0  0  0
    0.9086    1.5495   10.9787 C   0  0  0  0  0  0  0  0  0  0  0  0
    7.5164    1.0147   13.5992 C   0  0  0  0  0  0  0  0  0  0  0  0
    7.8070    1.1111   12.1417 C   0  0  0  0  0  0  0  0  0  0  0  0
    8.1326   -0.0160   11.4139 C   0  0  0  0  0  0  0  0  0  0  0  0
    8.4400    0.0934   10.0848 C   0  0  0  0  0  0  0  0  0  0  0  0
    8.4266    1.3304    9.4940 C   0  0  0  0  0  0  0  0  0  0  0  0
    8.0832    2.4580   10.2153 C   0  0  0  0  0  0  0  0  0  0  0  0
    7.7676    2.3516   11.5419 C   0  0  0  0  0  0  0  0  0  0  0  0
 42 43  2  0  0  0
 42 44  1  0  0  0
 42 46  1  0  0  0
 44 45  1  0  0  0
 44 48  1  0  0  0
 48 49  1  0  0  0
 49 50  1  0  0  0
 49 51  2  0  0  0
 50 52  2  0  0  0
 51 53  1  0  0  0
 52 54  1  0  0  0
 53 54  2  0  0  0
 46 41  1  0  0  0
 41 37  1  0  0  0
 41 55  1  0  0  0
 37 38  2  0  0  0
 37 39  1  0  0  0
 55 56  1  0  0  0
 55 57  1  0  0  0
 39 36  1  0  0  0
 36 58  1  0  0  0
 36  1  1  0  0  0
 58 59  1  0  0  0
 59 60  2  0  0  0
 59 64  1  0  0  0
 60 61  1  0  0  0
 61 62  2  0  0  0
 62 63  1  0  0  0
 63 64  2  0  0  0
  1  2  1  0  0  0
  1  5  1  0  0  0
  4  5  1  0  0  0
  5  7  1  0  0  0
  8  7  1  0  0  0
  8  9  1  0  0  0
  7 29  1  0  0  0
 29 30  1  0  0  0
 30 31  2  0  0  0
 30 35  1  0  0  0
 31 32  1  0  0  0
 32 33  2  0  0  0
 33 34  1  0  0  0
 34 35  2  0  0  0
 13 12  1  0  0  0
 13 14  1  0  0  0
 12  9  1  0  0  0
 12 26  1  0  0  0
  9 10  2  0  0  0
 26 27  1  0  0  0
 26 28  1  0  0  0
 14 15  2  0  0  0
 14 16  1  0  0  0
 16 17  1  0  0  0
 16 19  1  0  0  0
 19 20  1  0  0  0
 20 21  1  0  0  0
 20 22  2  0  0  0
 21 23  2  0  0  0
 22 24  1  0  0  0
 23 25  1  0  0  0
 24 25  2  0  0  0
 46 47  1  0  0  0
 39 40  1  0  0  0
  2  3  1  0  0  0
  4  6  1  0  0  0
  8 11  1  0  0  0
 13 18  1  0  0  0
M  END
> <minimizedAffinity>
-10.63270

$$$$
1HVS_A77_A_800


 64 67  0  0  0  0  0  0  0  0999 V2000
    5.6077   -0.7857   16.3852 C   0  0  0  0  0  0  0  0  0  0  0  0
    5.3384   -0.6488   17.7670 O   0  0  0  0  0  0  0  0  0  0  0  0
    4.3833   -0.7232   17.9192 H   0  0  0  0  0  0  0  0  0  0  0  0
    3.6856    0.0498   15.6050 O   0  0  0  0  0  0  0  0  0  0  0  0
    5.0390    0.3911   15.6201 C   0  0  0  0  0  0  0  0  0  0  0  0
    3.3681   -0.0538   16.5156 H   0  0  0  0  0  0  0  0  0  0  0  0
    5.4188    0.5247   14.1559 C   0  0  0  0  0  0  0  0  0  0  0  0
    4.4638    1.3805   13.4151 N   0  0  0  0  0  0  0  0  0  0  0  0
    3.4759    0.8786   12.6474 C   0  0  0  0  0  0  0  0  0  0  0  0
    3.2420   -0.3190   12.6002 O   0  0  0  0  0  0  0  0  0  0  0  0
    4.5544    2.3583   13.4864 H   0  0  0  0  0  0  0  0  0  0  0  0
    2.6249    1.8545   11.8492 C   0  0  0  0  0  0  0  0  0  0  0  0
    3.4459    2.3842   10.7714 N   0  0  0  0  0  0  0  0  0  0  0  0
    3.8341    3.6680   10.7070 C   0  0  0  0  0  0  0  0  0  0  0  0
    3.3418    4.5346   11.4061 O   0  0  0  0  0  0  0  0  0  0  0  0
    4.7610    3.9832    9.8203 N   0  0  0  0  0  0  0  0  0  0  0  0
    5.3558    2.9377    8.9759 C   0  0  0  0  0  0  0  0  0  0  0  0
    3.7306    1.7721   10.0549 H   0  0  0  0  0  0  0  0  0  0  0  0
    5.1688    5.3734    9.6679 C   0  0  0  0  0  0  0  0  0  0  0  0
    6.5474    5.6343   10.2227 C   0  0  0  0  0  0  0  0  0  0  0  0
    6.6965    5.7723   11.6017 C   0  0  0  0  0  0  0  0  0  0  0  0
    7.5436    5.7607    9.3552 N   0  0  0  0  0  0  0  0  0  0  0  0
    7.9202    6.0900   12.1377 C   0  0  0  0  0  0  0  0  0  0  0  0
    8.7036    6.1026    9.8941 C   0  0  0  0  0  0  0  0  0  0  0  0
    8.9521    6.2703   11.2509 C   0  0  0  0  0  0  0  0  0  0  0  0
    1.3992    1.1995   11.2263 C   0  0  0  0  0  0  0  0  0  0  0  0
    0.3041    0.9206   12.2694 C   0  0  0  0  0  0  0  0  0  0  0  0
    0.8619    2.0616   10.0652 C   0  0  0  0  0  0  0  0  0  0  0  0
    6.8271    1.1438   14.1123 C   0  0  0  0  0  0  0  0  0  0  0  0
    7.4839    1.1547   12.7310 C   0  0  0  0  0  0  0  0  0  0  0  0
    7.9248    2.3496   12.1607 C   0  0  0  0  0  0  0  0  0  0  0  0
    8.5135    2.3612   10.9111 C   0  0  0  0  0  0  0  0  0  0  0  0
    8.6768    1.2021   10.1991 C   0  0  0  0  0  0  0  0  0  0  0  0
    8.2546    0.0058   10.7489 C   0  0  0  0  0  0  0  0  0  0  0  0
    7.6631   -0.0193   12.0065 C   0  0  0  0  0  0  0  0  0  0  0  0
    5.2147   -2.1610   16.0029 C   0  0  0  0  0  0  0  0  0  0  0  0
    6.7970   -4.0015   15.8385 C   0  0  0  0  0  0  0  0  0  0  0  0
    6.6119   -4.1261   14.6363 O   0  0  0  0  0  0  0  0  0  0  0  0
    6.1965   -3.0699   16.5607 N   0  0  0  0  0  0  0  0  0  0  0  0
    6.4256   -2.9908   17.5149 H   0  0  0  0  0  0  0  0  0  0  0  0
    7.7308   -4.9062   16.6325 C   0  0  0  0  0  0  0  0  0  0  0  0
    6.6671   -6.5107   18.1664 C   0  0  0  0  0  0  0  0  0  0  0  0
    7.0574   -5.9328   19.1656 O   0  0  0  0  0  0  0  0  0  0  0  0
    5.8800   -7.6039   18.2676 N   0  0  0  0  0  0  0  0  0  0  0  0
    5.2689   -8.2668   17.1096 C   0  0  0  0  0  0  0  0  0  0  0  0
    6.9971   -6.0953   16.9388 N   0  0  0  0  0  0  0  0  0  0  0  0
    6.7108   -6.6555   16.1816 H   0  0  0  0  0  0  0  0  0  0  0  0
    5.5815   -8.1741   19.5432 C   0  0  0  0  0  0  0  0  0  0  0  0
    4.2053   -7.7490   19.9507 C   0  0  0  0  0  0  0  0  0  0  0  0
    3.9248   -6.4272   20.2527 C   0  0  0  0  0  0  0  0  0  0  0  0
    3.3087   -8.7061   19.9602 N   0  0  0  0  0  0  0  0  0  0  0  0
    2.6299   -6.0860   20.5632 C   0  0  0  0  0  0  0  0  0  0  0  0
    2.0760   -8.3550   20.2733 C   0  0  0  0  0  0  0  0  0  0  0  0
    1.6751   -7.0737   20.5734 C   0  0  0  0  0  0  0  0  0  0  0  0
    9.0121   -5.2555   15.8647 C   0  0  0  0  0  0  0  0  0  0  0  0
    9.8398   -4.0190   15.4347 C   0  0  0  0  0  0  0  0  0  0  0  0
    9.8846   -6.2346   16.6516 C   0  0  0  0  0  0  0  0  0  0  0  0
    3.8481   -2.4178   16.6473 C   0  0  0  0  0  0  0  0  0  0  0  0
    3.2097   -3.6676   16.1486 C   0  0  0  0  0  0  0  0  0  0  0  0
    2.7898   -3.7673   14.8372 C   0  0  0  0  0  0  0  0  0  0  0  0
    2.1653   -4.9054   14.4039 C   0  0  0  0  0  0  0  0  0  0  0  0
    1.9585   -5.9334   15.2870 C   0  0  0  0  0  0  0  0  0  0  0  0
    2.3940   -5.8439   16.5953 C   0  0  0  0  0  0  0  0  0  0  0  0
    3.0257   -4.7113   17.0300 C   0  0  0  0  0  0  0  0  0  0  0  0
 42 43  2  0  0  0
 42 44  1  0  0  0
 42 46  1  0  0  0
 44 45  1  0  0  0
 44 48  1  0  0  0
 48 49  1  0  0  0
 49 50  1  0  0  0
 49 51  2  0  0  0
 50 52  2  0  0  0
 51 53  1  0  0  0
 52 54  1  0  0  0
 53 54  2  0  0  0
 46 41  1  0  0  0
 41 37  1  0  0  0
 41 55  1  0  0  0
 37 38  2  0  0  0
 37 39  1  0  0  0
 55 56  1  0  0  0
 55 57  1  0  0  0
 39 36  1  0  0  0
 36 58  1  0  0  0
 36  1  1  0  0  0
 58 59  1  0  0  0
 59 60  2  0  0  0
 59 64  1  0  0  0
 60 61  1  0  0  0
 61 62  2  0  0  0
 62 63  1  0  0  0
 63 64  2  0  0  0
  1  2  1  0  0  0
  1  5  1  0  0  0
  4  5  1  0  0  0
  5  7  1  0  0  0
  8  7  1  0  0  0
  8  9  1  0  0  0
  7 29  1  0  0  0
 29 30  1  0  0  0
 30 31  2  0  0  0
 30 35  1  0  0  0
 31 32  1  0  0  0
 32 33  2  0  0  0
 33 34  1  0  0  0
 34 35  2  0  0  0
 13 12  1  0  0  0
 13 14  1  0  0  0
 12  9  1  0  0  0
 12 26  1  0  0  0
  9 10  2  0  0  0
 26 27  1  0  0  0
 26 28  1  0  0  0
 14 15  2  0  0  0
 14 16  1  0  0  0
 16 17  1  0  0  0
 16 19  1  0  0  0
 19 20  1  0  0  0
 20 21  1  0  0  0
 20 22  2  0  0  0
 21 23  2  0  0  0
 22 24  1  0  0  0
 23 25  1  0  0  0
 24 25  2  0  0  0
 46 47  1  0  0  0
 39 40  1  0  0  0
  2  3  1  0  0  0
  4  6  1  0  0  0
  8 11  1  0  0  0
 13 18  1  0  0  0
M  END
> <minimizedAffinity>
-10.42837

$$$$
1HVS_A77_A_800


 64 67  0  0  0  0  0  0  0  0999 V2000
    4.5188   -1.3528   15.1293 C   0  0  0  0  0  0  0  0  0  0  0  0
    3.7969   -1.6402   13.9474 O   0  0  0  0  0  0  0  0  0  0  0  0
    4.4172   -1.7711   13.2133 H   0  0  0  0  0  0  0  0  0  0  0  0
    4.3420    0.7843   15.7639 O   0  0  0  0  0  0  0  0  0  0  0  0
    5.2082   -0.0095   15.0103 C   0  0  0  0  0  0  0  0  0  0  0  0
    4.2725    0.4244   16.6620 H   0  0  0  0  0  0  0  0  0  0  0  0
    5.2365    0.6448   13.6403 C   0  0  0  0  0  0  0  0  0  0  0  0
    4.0125    1.4379   13.3835 N   0  0  0  0  0  0  0  0  0  0  0  0
    3.1577    1.1585   12.3791 C   0  0  0  0  0  0  0  0  0  0  0  0
    3.2865    0.1649   11.6812 O   0  0  0  0  0  0  0  0  0  0  0  0
    3.8145    2.2022   13.9716 H   0  0  0  0  0  0  0  0  0  0  0  0
    1.9922    2.1081   12.1473 C   0  0  0  0  0  0  0  0  0  0  0  0
    2.3196    2.9453   11.0036 N   0  0  0  0  0  0  0  0  0  0  0  0
    3.2449    3.9174   11.0460 C   0  0  0  0  0  0  0  0  0  0  0  0
    3.7097    4.3309   12.0925 O   0  0  0  0  0  0  0  0  0  0  0  0
    3.6229    4.4526    9.8991 N   0  0  0  0  0  0  0  0  0  0  0  0
    3.0624    3.9541    8.6354 C   0  0  0  0  0  0  0  0  0  0  0  0
    1.8396    2.7918   10.1578 H   0  0  0  0  0  0  0  0  0  0  0  0
    4.5763    5.5542    9.8980 C   0  0  0  0  0  0  0  0  0  0  0  0
    5.8837    5.1851    9.2417 C   0  0  0  0  0  0  0  0  0  0  0  0
    6.5151    4.0046    9.6297 C   0  0  0  0  0  0  0  0  0  0  0  0
    6.3850    6.0340    8.3534 N   0  0  0  0  0  0  0  0  0  0  0  0
    7.7446    3.6751    9.1145 C   0  0  0  0  0  0  0  0  0  0  0  0
    7.5864    5.7116    7.9000 C   0  0  0  0  0  0  0  0  0  0  0  0
    8.2993    4.5652    8.2293 C   0  0  0  0  0  0  0  0  0  0  0  0
    0.6891    1.3826   11.8396 C   0  0  0  0  0  0  0  0  0  0  0  0
    0.0905    0.7204   13.0918 C   0  0  0  0  0  0  0  0  0  0  0  0
   -0.3182    2.3459   11.1781 C   0  0  0  0  0  0  0  0  0  0  0  0
    6.4750    1.5576   13.6044 C   0  0  0  0  0  0  0  0  0  0  0  0
    7.5160    1.1902   12.5457 C   0  0  0  0  0  0  0  0  0  0  0  0
    7.3589    0.0498   11.7570 C   0  0  0  0  0  0  0  0  0  0  0  0
    8.3010   -0.2858   10.8041 C   0  0  0  0  0  0  0  0  0  0  0  0
    9.4138    0.4898   10.6109 C   0  0  0  0  0  0  0  0  0  0  0  0
    9.5852    1.6288   11.3758 C   0  0  0  0  0  0  0  0  0  0  0  0
    8.6430    1.9784   12.3361 C   0  0  0  0  0  0  0  0  0  0  0  0
    5.3197   -2.5563   15.4493 C   0  0  0  0  0  0  0  0  0  0  0  0
    4.4498   -4.7398   16.0765 C   0  0  0  0  0  0  0  0  0  0  0  0
    5.0928   -4.7587   17.1164 O   0  0  0  0  0  0  0  0  0  0  0  0
    4.4747   -3.7153   15.2400 N   0  0  0  0  0  0  0  0  0  0  0  0
    3.8963   -3.7410   14.4438 H   0  0  0  0  0  0  0  0  0  0  0  0
    3.5589   -5.8924   15.6307 C   0  0  0  0  0  0  0  0  0  0  0  0
    4.0941   -8.2866   15.8310 C   0  0  0  0  0  0  0  0  0  0  0  0
    3.7208   -8.5442   14.7000 O   0  0  0  0  0  0  0  0  0  0  0  0
    4.6249   -9.2494   16.6158 N   0  0  0  0  0  0  0  0  0  0  0  0
    5.2133   -8.9816   17.9333 C   0  0  0  0  0  0  0  0  0  0  0  0
    3.9953   -7.0545   16.3414 N   0  0  0  0  0  0  0  0  0  0  0  0
    4.2440   -6.9373   17.2868 H   0  0  0  0  0  0  0  0  0  0  0  0
    4.6561  -10.6107   16.1829 C   0  0  0  0  0  0  0  0  0  0  0  0
    3.2805  -11.1876   16.3082 C   0  0  0  0  0  0  0  0  0  0  0  0
    2.6899  -11.8644   15.2547 C   0  0  0  0  0  0  0  0  0  0  0  0
    2.7174  -11.0302   17.4822 N   0  0  0  0  0  0  0  0  0  0  0  0
    1.4490  -12.4235   15.4477 C   0  0  0  0  0  0  0  0  0  0  0  0
    1.5216  -11.5655   17.6381 C   0  0  0  0  0  0  0  0  0  0  0  0
    0.8448  -12.2739   16.6724 C   0  0  0  0  0  0  0  0  0  0  0  0
    2.0718   -5.6312   15.9017 C   0  0  0  0  0  0  0  0  0  0  0  0
    1.8137   -4.5424   16.9727 C   0  0  0  0  0  0  0  0  0  0  0  0
    1.3194   -5.3002   14.6120 C   0  0  0  0  0  0  0  0  0  0  0  0
    6.4852   -2.5802   14.4544 C   0  0  0  0  0  0  0  0  0  0  0  0
    7.6986   -3.2371   15.0151 C   0  0  0  0  0  0  0  0  0  0  0  0
    8.6662   -2.4928   15.6598 C   0  0  0  0  0  0  0  0  0  0  0  0
    9.7968   -3.1030   16.1317 C   0  0  0  0  0  0  0  0  0  0  0  0
    9.9551   -4.4525   15.9493 C   0  0  0  0  0  0  0  0  0  0  0  0
    8.9800   -5.2033   15.3208 C   0  0  0  0  0  0  0  0  0  0  0  0
    7.8452   -4.5983   14.8549 C   0  0  0  0  0  0  0  0  0  0  0  0
 42 43  2  0  0  0
 42 44  1  0  0  0
 42 46  1  0  0  0
 44 45  1  0  0  0
 44 48  1  0  0  0
 48 49  1  0  0  0
 49 50  1  0  0  0
 49 51  2  0  0  0
 50 52  2  0  0  0
 51 53  1  0  0  0
 52 54  1  0  0  0
 53 54  2  0  0  0
 46 41  1  0  0  0
 41 37  1  0  0  0
 41 55  1  0  0  0
 37 38  2  0  0  0
 37 39  1  0  0  0
 55 56  1  0  0  0
 55 57  1  0  0  0
 39 36  1  0  0  0
 36 58  1  0  0  0
 36  1  1  0  0  0
 58 59  1  0  0  0
 59 60  2  0  0  0
 59 64  1  0  0  0
 60 61  1  0  0  0
 61 62  2  0  0  0
 62 63  1  0  0  0
 63 64  2  0  0  0
  1  2  1  0  0  0
  1  5  1  0  0  0
  4  5  1  0  0  0
  5  7  1  0  0  0
  8  7  1  0  0  0
  8  9  1  0  0  0
  7 29  1  0  0  0
 29 30  1  0  0  0
 30 31  2  0  0  0
 30 35  1  0  0  0
 31 32  1  0  0  0
 32 33  2  0  0  0
 33 34  1  0  0  0
 34 35  2  0  0  0
 13 12  1  0  0  0
 13 14  1  0  0  0
 12  9  1  0  0  0
 12 26  1  0  0  0
  9 10  2  0  0  0
 26 27  1  0  0  0
 26 28  1  0  0  0
 14 15  2  0  0  0
 14 16  1  0  0  0
 16 17  1  0  0  0
 16 19  1  0  0  0
 19 20  1  0  0  0
 20 21  1  0  0  0
 20 22  2  0  0  0
 21 23  2  0  0  0
 22 24  1  0  0  0
 23 25  1  0  0  0
 24 25  2  0  0  0
 46 47  1  0  0  0
 39 40  1  0  0  0
  2  3  1  0  0  0
  4  6  1  0  0  0
  8 11  1  0  0  0
 13 18  1  0  0  0
M  END
> <minimizedAffinity>
-9.31509

$$$$
1HVS_A77_A_800


 64 67  0  0  0  0  0  0  0  0999 V2000
    5.9569   -0.9117   15.9901 C   0  0  0  0  0  0  0  0  0  0  0  0
    5.2330   -0.3433   17.0642 O   0  0  0  0  0  0  0  0  0  0  0  0
    4.2915   -0.3029   16.8340 H   0  0  0  0  0  0  0  0  0  0  0  0
    5.2526    1.1064   15.3326 O   0  0  0  0  0  0  0  0  0  0  0  0
    5.9295    0.0126   14.7906 C   0  0  0  0  0  0  0  0  0  0  0  0
    5.7362    1.4348   16.1066 H   0  0  0  0  0  0  0  0  0  0  0  0
    5.0877   -0.4097   13.5995 C   0  0  0  0  0  0  0  0  0  0  0  0
    4.1491    0.6572   13.1826 N   0  0  0  0  0  0  0  0  0  0  0  0
    3.0977    0.4295   12.3701 C   0  0  0  0  0  0  0  0  0  0  0  0
    2.7928   -0.6972   12.0115 O   0  0  0  0  0  0  0  0  0  0  0  0
    4.2994    1.5723   13.5130 H   0  0  0  0  0  0  0  0  0  0  0  0
    2.2669    1.6232   11.9244 C   0  0  0  0  0  0  0  0  0  0  0  0
    2.9221    2.2161   10.7688 N   0  0  0  0  0  0  0  0  0  0  0  0
    3.2968    3.5045   10.7179 C   0  0  0  0  0  0  0  0  0  0  0  0
    2.9118    4.3287   11.5270 O   0  0  0  0  0  0  0  0  0  0  0  0
    4.0845    3.8738    9.7240 N   0  0  0  0  0  0  0  0  0  0  0  0
    4.5498    2.8796    8.7468 C   0  0  0  0  0  0  0  0  0  0  0  0
    3.0992    1.6453    9.9864 H   0  0  0  0  0  0  0  0  0  0  0  0
    4.4659    5.2733    9.5891 C   0  0  0  0  0  0  0  0  0  0  0  0
    3.8663    5.9192    8.3644 C   0  0  0  0  0  0  0  0  0  0  0  0
    2.4816    5.8949    8.2077 C   0  0  0  0  0  0  0  0  0  0  0  0
    4.7018    6.4426    7.4761 N   0  0  0  0  0  0  0  0  0  0  0  0
    1.9045    6.4005    7.0687 C   0  0  0  0  0  0  0  0  0  0  0  0
    4.1234    6.8897    6.3723 C   0  0  0  0  0  0  0  0  0  0  0  0
    2.7573    6.9037    6.1184 C   0  0  0  0  0  0  0  0  0  0  0  0
    0.8510    1.2398   11.5151 C   0  0  0  0  0  0  0  0  0  0  0  0
   -0.0915    1.1449   12.7266 C   0  0  0  0  0  0  0  0  0  0  0  0
    0.3113    2.2277   10.4602 C   0  0  0  0  0  0  0  0  0  0  0  0
    6.0623   -0.7338   12.4535 C   0  0  0  0  0  0  0  0  0  0  0  0
    6.9477    0.4325   12.0112 C   0  0  0  0  0  0  0  0  0  0  0  0
    8.3067    0.2402   11.7590 C   0  0  0  0  0  0  0  0  0  0  0  0
    9.1083    1.2937   11.3645 C   0  0  0  0  0  0  0  0  0  0  0  0
    8.5912    2.5535   11.2136 C   0  0  0  0  0  0  0  0  0  0  0  0
    7.2454    2.7647   11.4503 C   0  0  0  0  0  0  0  0  0  0  0  0
    6.4279    1.7122   11.8453 C   0  0  0  0  0  0  0  0  0  0  0  0
    5.4871   -2.3082   15.8439 C   0  0  0  0  0  0  0  0  0  0  0  0
    6.9560   -4.2407   16.0050 C   0  0  0  0  0  0  0  0  0  0  0  0
    6.7501   -4.5633   14.8437 O   0  0  0  0  0  0  0  0  0  0  0  0
    6.4199   -3.1623   16.5523 N   0  0  0  0  0  0  0  0  0  0  0  0
    6.6641   -2.9305   17.4775 H   0  0  0  0  0  0  0  0  0  0  0  0
    7.8437   -5.0462   16.9451 C   0  0  0  0  0  0  0  0  0  0  0  0
    6.7269   -6.7001   18.3860 C   0  0  0  0  0  0  0  0  0  0  0  0
    6.9490   -6.0747   19.4080 O   0  0  0  0  0  0  0  0  0  0  0  0
    6.0182   -7.8495   18.4236 N   0  0  0  0  0  0  0  0  0  0  0  0
    5.6032   -8.5799   17.2202 C   0  0  0  0  0  0  0  0  0  0  0  0
    7.1704   -6.2832   17.1953 N   0  0  0  0  0  0  0  0  0  0  0  0
    7.0207   -6.8783   16.4254 H   0  0  0  0  0  0  0  0  0  0  0  0
    5.6118   -8.4173   19.6702 C   0  0  0  0  0  0  0  0  0  0  0  0
    4.1579   -8.1293   19.8794 C   0  0  0  0  0  0  0  0  0  0  0  0
    3.6941   -6.8290   19.9846 C   0  0  0  0  0  0  0  0  0  0  0  0
    3.3824   -9.1863   19.9165 N   0  0  0  0  0  0  0  0  0  0  0  0
    2.3413   -6.6240   20.1170 C   0  0  0  0  0  0  0  0  0  0  0  0
    2.0895   -8.9633   20.0565 C   0  0  0  0  0  0  0  0  0  0  0  0
    1.5117   -7.7186   20.1526 C   0  0  0  0  0  0  0  0  0  0  0  0
    9.2386   -5.3089   16.3633 C   0  0  0  0  0  0  0  0  0  0  0  0
    9.7912   -4.1388   15.5121 C   0  0  0  0  0  0  0  0  0  0  0  0
   10.2366   -5.6909   17.4574 C   0  0  0  0  0  0  0  0  0  0  0  0
    4.1113   -2.3767   16.5156 C   0  0  0  0  0  0  0  0  0  0  0  0
    3.3027   -3.5333   16.0396 C   0  0  0  0  0  0  0  0  0  0  0  0
    2.8024   -3.5590   14.7531 C   0  0  0  0  0  0  0  0  0  0  0  0
    2.0244   -4.6076   14.3428 C   0  0  0  0  0  0  0  0  0  0  0  0
    1.7462   -5.6200   15.2243 C   0  0  0  0  0  0  0  0  0  0  0  0
    2.2606   -5.6063   16.5067 C   0  0  0  0  0  0  0  0  0  0  0  0
    3.0451   -4.5640   16.9179 C   0  0  0  0  0  0  0  0  0  0  0  0
 42 43  2  0  0  0
 42 44  1  0  0  0
 42 46  1  0  0  0
 44 45  1  0  0  0
 44 48  1  0  0  0
 48 49  1  0  0  0
 49 50  1  0  0  0
 49 51  2  0  0  0
 50 52  2  0  0  0
 51 53  1  0  0  0
 52 54  1  0  0  0
 53 54  2  0  0  0
 46 41  1  0  0  0
 41 37  1  0  0  0
 41 55  1  0  0  0
 37 38  2  0  0  0
 37 39  1  0  0  0
 55 56  1  0  0  0
 55 57  1  0  0  0
 39 36  1  0  0  0
 36 58  1  0  0  0
 36  1  1  0  0  0
 58 59  1  0  0  0
 59 60  2  0  0  0
 59 64  1  0  0  0
 60 61  1  0  0  0
 61 62  2  0  0  0
 62 63  1  0  0  0
 63 64  2  0  0  0
  1  2  1  0  0  0
  1  5  1  0  0  0
  4  5  1  0  0  0
  5  7  1  0  0  0
  8  7  1  0  0  0
  8  9  1  0  0  0
  7 29  1  0  0  0
 29 30  1  0  0  0
 30 31  2  0  0  0
 30 35  1  0  0  0
 31 32  1  0  0  0
 32 33  2  0  0  0
 33 34  1  0  0  0
 34 35  2  0  0  0
 13 12  1  0  0  0
 13 14  1  0  0  0
 12  9  1  0  0  0
 12 26  1  0  0  0
  9 10  2  0  0  0
 26 27  1  0  0  0
 26 28  1  0  0  0
 14 15  2  0  0  0
 14 16  1  0  0  0
 16 17  1  0  0  0
 16 19  1  0  0  0
 19 20  1  0  0  0
 20 21  1  0  0  0
 20 22  2  0  0  0
 21 23  2  0  0  0
 22 24  1  0  0  0
 23 25  1  0  0  0
 24 25  2  0  0  0
 46 47  1  0  0  0
 39 40  1  0  0  0
  2  3  1  0  0  0
  4  6  1  0  0  0
  8 11  1  0  0  0
 13 18  1  0  0  0
M  END
> <minimizedAffinity>
-9.17408

$$$$
1HVS_A77_A_800


 64 67  0  0  0  0  0  0  0  0999 V2000
    6.0944   -2.4987   14.2409 C   0  0  0  0  0  0  0  0  0  0  0  0
    6.6034   -1.3180   14.8303 O   0  0  0  0  0  0  0  0  0  0  0  0
    6.1271   -1.1374   15.6558 H   0  0  0  0  0  0  0  0  0  0  0  0
    4.5760   -3.2557   12.7840 O   0  0  0  0  0  0  0  0  0  0  0  0
    4.6674   -2.2836   13.7814 C   0  0  0  0  0  0  0  0  0  0  0  0
    4.7697   -4.1273   13.1632 H   0  0  0  0  0  0  0  0  0  0  0  0
    4.3475   -0.9772   13.0765 C   0  0  0  0  0  0  0  0  0  0  0  0
    5.5174   -0.4494   12.3376 N   0  0  0  0  0  0  0  0  0  0  0  0
    5.7134    0.8670   12.1232 C   0  0  0  0  0  0  0  0  0  0  0  0
    4.9887    1.7154   12.6191 O   0  0  0  0  0  0  0  0  0  0  0  0
    6.1806   -1.0875   11.9879 H   0  0  0  0  0  0  0  0  0  0  0  0
    6.8940    1.2824   11.2586 C   0  0  0  0  0  0  0  0  0  0  0  0
    6.7277    2.6879   10.9220 N   0  0  0  0  0  0  0  0  0  0  0  0
    6.1332    3.1073    9.7934 C   0  0  0  0  0  0  0  0  0  0  0  0
    5.9010    2.3595    8.8612 O   0  0  0  0  0  0  0  0  0  0  0  0
    5.8303    4.3897    9.7017 N   0  0  0  0  0  0  0  0  0  0  0  0
    6.1102    5.2932   10.8265 C   0  0  0  0  0  0  0  0  0  0  0  0
    7.0674    3.3640   11.5518 H   0  0  0  0  0  0  0  0  0  0  0  0
    5.2431    4.9049    8.4720 C   0  0  0  0  0  0  0  0  0  0  0  0
    3.7700    4.5973    8.3630 C   0  0  0  0  0  0  0  0  0  0  0  0
    2.9384    4.9292    9.4313 C   0  0  0  0  0  0  0  0  0  0  0  0
    3.3514    3.9843    7.2630 N   0  0  0  0  0  0  0  0  0  0  0  0
    1.6074    4.5927    9.4033 C   0  0  0  0  0  0  0  0  0  0  0  0
    2.0734    3.6390    7.2770 C   0  0  0  0  0  0  0  0  0  0  0  0
    1.1670    3.9167    8.2930 C   0  0  0  0  0  0  0  0  0  0  0  0
    8.2322    1.1255   11.9683 C   0  0  0  0  0  0  0  0  0  0  0  0
    9.3754    0.8348   10.9816 C   0  0  0  0  0  0  0  0  0  0  0  0
    8.5342    2.3719   12.8258 C   0  0  0  0  0  0  0  0  0  0  0  0
    3.1922   -1.2648   12.1013 C   0  0  0  0  0  0  0  0  0  0  0  0
    2.0474   -0.2511   12.1414 C   0  0  0  0  0  0  0  0  0  0  0  0
    1.3349   -0.0268   13.3201 C   0  0  0  0  0  0  0  0  0  0  0  0
    0.2975    0.8847   13.3561 C   0  0  0  0  0  0  0  0  0  0  0  0
   -0.0599    1.5889   12.2366 C   0  0  0  0  0  0  0  0  0  0  0  0
    0.6381    1.3882   11.0601 C   0  0  0  0  0  0  0  0  0  0  0  0
    1.6855    0.4756   11.0117 C   0  0  0  0  0  0  0  0  0  0  0  0
    6.4005   -3.6111   15.1689 C   0  0  0  0  0  0  0  0  0  0  0  0
    4.8902   -5.1861   16.2441 C   0  0  0  0  0  0  0  0  0  0  0  0
    5.4429   -5.0616   17.3276 O   0  0  0  0  0  0  0  0  0  0  0  0
    5.2619   -4.5082   15.1707 N   0  0  0  0  0  0  0  0  0  0  0  0
    4.7447   -4.6172   14.3401 H   0  0  0  0  0  0  0  0  0  0  0  0
    3.7222   -6.1365   16.0127 C   0  0  0  0  0  0  0  0  0  0  0  0
    4.1568   -8.4689   16.6683 C   0  0  0  0  0  0  0  0  0  0  0  0
    4.2566   -8.8555   15.5170 O   0  0  0  0  0  0  0  0  0  0  0  0
    4.3472   -9.3213   17.6987 N   0  0  0  0  0  0  0  0  0  0  0  0
    4.3726   -8.8951   19.1028 C   0  0  0  0  0  0  0  0  0  0  0  0
    3.8563   -7.1991   16.9609 N   0  0  0  0  0  0  0  0  0  0  0  0
    3.7154   -6.9767   17.9095 H   0  0  0  0  0  0  0  0  0  0  0  0
    4.5562  -10.7154   17.4652 C   0  0  0  0  0  0  0  0  0  0  0  0
    6.0072  -11.0247   17.6637 C   0  0  0  0  0  0  0  0  0  0  0  0
    6.9801  -10.4251   16.8820 C   0  0  0  0  0  0  0  0  0  0  0  0
    6.2680  -11.8617   18.6392 N   0  0  0  0  0  0  0  0  0  0  0  0
    8.2995  -10.7031   17.1493 C   0  0  0  0  0  0  0  0  0  0  0  0
    7.5413  -12.1214   18.8676 C   0  0  0  0  0  0  0  0  0  0  0  0
    8.5933  -11.5736   18.1708 C   0  0  0  0  0  0  0  0  0  0  0  0
    2.3594   -5.4507   16.1726 C   0  0  0  0  0  0  0  0  0  0  0  0
    2.3822   -4.2298   17.1254 C   0  0  0  0  0  0  0  0  0  0  0  0
    1.7695   -5.0589   14.8170 C   0  0  0  0  0  0  0  0  0  0  0  0
    7.6252   -4.3318   14.5948 C   0  0  0  0  0  0  0  0  0  0  0  0
    8.6485   -4.6312   15.6346 C   0  0  0  0  0  0  0  0  0  0  0  0
    9.5255   -3.6533   16.0597 C   0  0  0  0  0  0  0  0  0  0  0  0
   10.4891   -3.9538   16.9840 C   0  0  0  0  0  0  0  0  0  0  0  0
   10.5736   -5.2323   17.4717 C   0  0  0  0  0  0  0  0  0  0  0  0
    9.6856   -6.2086   17.0621 C   0  0  0  0  0  0  0  0  0  0  0  0
    8.7162   -5.9101   16.1445 C   0  0  0  0  0  0  0  0  0  0  0  0
 42 43  2  0  0  0
 42 44  1  0  0  0
 42 46  1  0  0  0
 44 45  1  0  0  0
 44 48  1  0  0  0
 48 49  1  0  0  0
 49 50  1  0  0  0
 49 51  2  0  0  0
 50 52  2  0  0  0
 51 53  1  0  0  0
 52 54  1  0  0  0
 53 54  2  0  0  0
 46 41  1  0  0  0
 41 37  1  0  0  0
 41 55  1  0  0  0
 37 38  2  0  0  0
 37 39  1  0  0  0
 55 56  1  0  0  0
 55 57  1  0  0  0
 39 36  1  0  0  0
 36 58  1  0  0  0
 36  1  1  0  0  0
 58 59  1  0  0  0
 59 60  2  0  0  0
 59 64  1  0  0  0
 60 61  1  0  0  0
 61 62  2  0  0  0
 62 63  1  0  0  0
 63 64  2  0  0  0
  1  2  1  0  0  0
  1  5  1  0  0  0
  4  5  1  0  0  0
  5  7  1  0  0  0
  8  7  1  0  0  0
  8  9  1  0  0  0
  7 29  1  0  0  0
 29 30  1  0  0  0
 30 31  2  0  0  0
 30 35  1  0  0  0
 31 32  1  0  0  0
 32 33  2  0  0  0
 33 34  1  0  0  0
 34 35  2  0  0  0
 13 12  1  0  0  0
 13 14  1  0  0  0
 12  9  1  0  0  0
 12 26  1  0  0  0
  9 10  2  0  0  0
 26 27  1  0  0  0
 26 28  1  0  0  0
 14 15  2  0  0  0
 14 16  1  0  0  0
 16 17  1  0  0  0
 16 19  1  0  0  0
 19 20  1  0  0  0
 20 21  1  0  0  0
 20 22  2  0  0  0
 21 23  2  0  0  0
 22 24  1  0  0  0
 23 25  1  0  0  0
 24 25  2  0  0  0
 46 47  1  0  0  0
 39 40  1  0  0  0
  2  3  1  0  0  0
  4  6  1  0  0  0
  8 11  1  0  0  0
 13 18  1  0  0  0
M  END
> <minimizedAffinity>
-8.97189

$$$$
1HVS_A77_A_800


 64 67  0  0  0  0  0  0  0  0999 V2000
    6.5818   -0.5948   13.6457 C   0  0  0  0  0  0  0  0  0  0  0  0
    6.6721   -1.7535   12.8395 O   0  0  0  0  0  0  0  0  0  0  0  0
    5.8243   -1.9033   12.3926 H   0  0  0  0  0  0  0  0  0  0  0  0
    6.3449   -0.2692   15.8455 O   0  0  0  0  0  0  0  0  0  0  0  0
    5.6186   -0.8258   14.7914 C   0  0  0  0  0  0  0  0  0  0  0  0
    6.5466    0.6582   15.6450 H   0  0  0  0  0  0  0  0  0  0  0  0
    5.3645   -2.2617   15.2148 C   0  0  0  0  0  0  0  0  0  0  0  0
    6.4583   -2.7874   16.0635 N   0  0  0  0  0  0  0  0  0  0  0  0
    6.7648   -4.0984   16.1321 C   0  0  0  0  0  0  0  0  0  0  0  0
    6.2243   -4.9248   15.4138 O   0  0  0  0  0  0  0  0  0  0  0  0
    6.9844   -2.1520   16.6008 H   0  0  0  0  0  0  0  0  0  0  0  0
    7.8373   -4.5311   17.1202 C   0  0  0  0  0  0  0  0  0  0  0  0
    7.7105   -5.9670   17.3159 N   0  0  0  0  0  0  0  0  0  0  0  0
    7.0537   -6.5117   18.3526 C   0  0  0  0  0  0  0  0  0  0  0  0
    6.7195   -5.8630   19.3271 O   0  0  0  0  0  0  0  0  0  0  0  0
    6.8034   -7.8078   18.3055 N   0  0  0  0  0  0  0  0  0  0  0  0
    7.2065   -8.5917   17.1296 C   0  0  0  0  0  0  0  0  0  0  0  0
    8.1262   -6.5683   16.6564 H   0  0  0  0  0  0  0  0  0  0  0  0
    6.1508   -8.4568   19.4347 C   0  0  0  0  0  0  0  0  0  0  0  0
    4.6460   -8.3972   19.3436 C   0  0  0  0  0  0  0  0  0  0  0  0
    4.0261   -8.9042   18.2028 C   0  0  0  0  0  0  0  0  0  0  0  0
    3.9934   -7.8222   20.3458 N   0  0  0  0  0  0  0  0  0  0  0  0
    2.6660   -8.7953   18.0472 C   0  0  0  0  0  0  0  0  0  0  0  0
    2.6893   -7.6973   20.1547 C   0  0  0  0  0  0  0  0  0  0  0  0
    1.9806   -8.1615   19.0532 C   0  0  0  0  0  0  0  0  0  0  0  0
    9.2490   -4.2484   16.6237 C   0  0  0  0  0  0  0  0  0  0  0  0
   10.3065   -5.0252   17.4256 C   0  0  0  0  0  0  0  0  0  0  0  0
    9.3570   -4.5485   15.1143 C   0  0  0  0  0  0  0  0  0  0  0  0
    4.0384   -2.2714   15.9957 C   0  0  0  0  0  0  0  0  0  0  0  0
    3.1594   -3.5004   15.7581 C   0  0  0  0  0  0  0  0  0  0  0  0
    2.8072   -4.3402   16.8154 C   0  0  0  0  0  0  0  0  0  0  0  0
    2.0177   -5.4532   16.6011 C   0  0  0  0  0  0  0  0  0  0  0  0
    1.5630   -5.7626   15.3462 C   0  0  0  0  0  0  0  0  0  0  0  0
    1.8932   -4.9395   14.2855 C   0  0  0  0  0  0  0  0  0  0  0  0
    2.6849   -3.8152   14.4888 C   0  0  0  0  0  0  0  0  0  0  0  0
    6.3659    0.5507   12.7328 C   0  0  0  0  0  0  0  0  0  0  0  0
    3.9721    0.6179   12.3050 C   0  0  0  0  0  0  0  0  0  0  0  0
    4.0375   -0.2857   11.4837 O   0  0  0  0  0  0  0  0  0  0  0  0
    5.0282    1.0561   12.9702 N   0  0  0  0  0  0  0  0  0  0  0  0
    4.9006    1.7531   13.6537 H   0  0  0  0  0  0  0  0  0  0  0  0
    2.6733    1.3379   12.6449 C   0  0  0  0  0  0  0  0  0  0  0  0
    2.9909    3.2417   11.1173 C   0  0  0  0  0  0  0  0  0  0  0  0
    3.9091    3.7100   11.7673 O   0  0  0  0  0  0  0  0  0  0  0  0
    2.5988    3.8236    9.9630 N   0  0  0  0  0  0  0  0  0  0  0  0
    1.5930    3.2402    9.0676 C   0  0  0  0  0  0  0  0  0  0  0  0
    2.3363    2.1447   11.5128 N   0  0  0  0  0  0  0  0  0  0  0  0
    1.5561    1.8689   10.9794 H   0  0  0  0  0  0  0  0  0  0  0  0
    3.1721    5.0610    9.5366 C   0  0  0  0  0  0  0  0  0  0  0  0
    4.0796    4.7968    8.3759 C   0  0  0  0  0  0  0  0  0  0  0  0
    5.1167    3.8844    8.4718 C   0  0  0  0  0  0  0  0  0  0  0  0
    3.7898    5.4604    7.2824 N   0  0  0  0  0  0  0  0  0  0  0  0
    5.8803    3.6399    7.3553 C   0  0  0  0  0  0  0  0  0  0  0  0
    4.5452    5.2169    6.2284 C   0  0  0  0  0  0  0  0  0  0  0  0
    5.5892    4.3215    6.1985 C   0  0  0  0  0  0  0  0  0  0  0  0
    1.5269    0.3713   12.9684 C   0  0  0  0  0  0  0  0  0  0  0  0
    1.6637   -0.3212   14.3472 C   0  0  0  0  0  0  0  0  0  0  0  0
    0.1663    1.0597   12.8495 C   0  0  0  0  0  0  0  0  0  0  0  0
    7.3971    1.6161   13.1205 C   0  0  0  0  0  0  0  0  0  0  0  0
    7.8643    2.4086   11.9493 C   0  0  0  0  0  0  0  0  0  0  0  0
    7.6903    3.7777   11.9127 C   0  0  0  0  0  0  0  0  0  0  0  0
    8.0848    4.4879   10.8112 C   0  0  0  0  0  0  0  0  0  0  0  0
    8.6443    3.8230    9.7508 C   0  0  0  0  0  0  0  0  0  0  0  0
    8.8366    2.4553    9.7920 C   0  0  0  0  0  0  0  0  0  0  0  0
    8.4509    1.7431   10.8943 C   0  0  0  0  0  0  0  0  0  0  0  0
 42 43  2  0  0  0
 42 44  1  0  0  0
 42 46  1  0  0  0
 44 45  1  0  0  0
 44 48  1  0  0  0
 48 49  1  0  0  0
 49 50  1  0  0  0
 49 51  2  0  0  0
 50 52  2  0  0  0
 51 53  1  0  0  0
 52 54  1  0  0  0
 53 54  2  0  0  0
 46 41  1  0  0  0
 41 37  1  0  0  0
 41 55  1  0  0  0
 37 38  2  0  0  0
 37 39  1  0  0  0
 55 56  1  0  0  0
 55 57  1  0  0  0
 39 36  1  0  0  0
 36 58  1  0  0  0
 36  1  1  0  0  0
 58 59  1  0  0  0
 59 60  2  0  0  0
 59 64  1  0  0  0
 60 61  1  0  0  0
 61 62  2  0  0  0
 62 63  1  0  0  0
 63 64  2  0  0  0
  1  2  1  0  0  0
  1  5  1  0  0  0
  4  5  1  0  0  0
  5  7  1  0  0  0
  8  7  1  0  0  0
  8  9  1  0  0  0
  7 29  1  0  0  0
 29 30  1  0  0  0
 30 31  2  0  0  0
 30 35  1  0  0  0
 31 32  1  0  0  0
 32 33  2  0  0  0
 33 34  1  0  0  0
 34 35  2  0  0  0
 13 12  1  0  0  0
 13 14  1  0  0  0
 12  9  1  0  0  0
 12 26  1  0  0  0
  9 10  2  0  0  0
 26 27  1  0  0  0
 26 28  1  0  0  0
 14 15  2  0  0  0
 14 16  1  0  0  0
 16 17  1  0  0  0
 16 19  1  0  0  0
 19 20  1  0  0  0
 20 21  1  0  0  0
 20 22  2  0  0  0
 21 23  2  0  0  0
 22 24  1  0  0  0
 23 25  1  0  0  0
 24 25  2  0  0  0
 46 47  1  0  0  0
 39 40  1  0  0  0
  2  3  1  0  0  0
  4  6  1  0  0  0
  8 11  1  0  0  0
 13 18  1  0  0  0
M  END
> <minimizedAffinity>
-8.93149

$$$$
1HVS_A77_A_800


 64 67  0  0  0  0  0  0  0  0999 V2000
    5.1615   -1.7808   15.9802 C   0  0  0  0  0  0  0  0  0  0  0  0
    4.6930   -2.3562   14.7760 O   0  0  0  0  0  0  0  0  0  0  0  0
    5.4473   -2.5683   14.2041 H   0  0  0  0  0  0  0  0  0  0  0  0
    4.7945    0.4123   16.2181 O   0  0  0  0  0  0  0  0  0  0  0  0
    5.7856   -0.4279   15.7081 C   0  0  0  0  0  0  0  0  0  0  0  0
    4.6395    0.1999   17.1518 H   0  0  0  0  0  0  0  0  0  0  0  0
    5.9392   -0.0059   14.2575 C   0  0  0  0  0  0  0  0  0  0  0  0
    4.8252    0.8643   13.8163 N   0  0  0  0  0  0  0  0  0  0  0  0
    4.0246    0.5561   12.7763 C   0  0  0  0  0  0  0  0  0  0  0  0
    4.1040   -0.5163   12.1979 O   0  0  0  0  0  0  0  0  0  0  0  0
    4.6621    1.7041   14.3034 H   0  0  0  0  0  0  0  0  0  0  0  0
    2.9827    1.5785   12.3487 C   0  0  0  0  0  0  0  0  0  0  0  0
    3.4916    2.2698   11.1743 N   0  0  0  0  0  0  0  0  0  0  0  0
    3.8559    3.5621   11.1833 C   0  0  0  0  0  0  0  0  0  0  0  0
    3.5713    4.3142   12.0974 O   0  0  0  0  0  0  0  0  0  0  0  0
    4.5163    4.0189   10.1345 N   0  0  0  0  0  0  0  0  0  0  0  0
    4.8603    3.1119    9.0306 C   0  0  0  0  0  0  0  0  0  0  0  0
    3.5728    1.7659   10.3324 H   0  0  0  0  0  0  0  0  0  0  0  0
    4.8769    5.4289   10.0686 C   0  0  0  0  0  0  0  0  0  0  0  0
    6.3409    5.6637   10.3480 C   0  0  0  0  0  0  0  0  0  0  0  0
    6.7528    5.8071   11.6718 C   0  0  0  0  0  0  0  0  0  0  0  0
    7.1558    5.7631    9.3053 N   0  0  0  0  0  0  0  0  0  0  0  0
    8.0624    6.1018   11.9616 C   0  0  0  0  0  0  0  0  0  0  0  0
    8.4038    6.0834    9.6098 C   0  0  0  0  0  0  0  0  0  0  0  0
    8.9097    6.2543   10.8928 C   0  0  0  0  0  0  0  0  0  0  0  0
    1.6483    0.9449   11.9783 C   0  0  0  0  0  0  0  0  0  0  0  0
    0.9658    0.2916   13.1916 C   0  0  0  0  0  0  0  0  0  0  0  0
    0.7271    1.9863   11.3095 C   0  0  0  0  0  0  0  0  0  0  0  0
    7.2753    0.7501   14.1492 C   0  0  0  0  0  0  0  0  0  0  0  0
    7.7595    1.0017   12.7203 C   0  0  0  0  0  0  0  0  0  0  0  0
    8.1383   -0.0607   11.8985 C   0  0  0  0  0  0  0  0  0  0  0  0
    8.5806    0.1658   10.6096 C   0  0  0  0  0  0  0  0  0  0  0  0
    8.6615    1.4376   10.1065 C   0  0  0  0  0  0  0  0  0  0  0  0
    8.2833    2.5042   10.9008 C   0  0  0  0  0  0  0  0  0  0  0  0
    7.8341    2.2891   12.1985 C   0  0  0  0  0  0  0  0  0  0  0  0
    5.9529   -2.8208   16.6763 C   0  0  0  0  0  0  0  0  0  0  0  0
    4.5808   -4.8242   16.5290 C   0  0  0  0  0  0  0  0  0  0  0  0
    4.9693   -5.0740   15.3968 O   0  0  0  0  0  0  0  0  0  0  0  0
    5.0225   -3.7885   17.2233 N   0  0  0  0  0  0  0  0  0  0  0  0
    4.7068   -3.6702   18.1483 H   0  0  0  0  0  0  0  0  0  0  0  0
    3.5456   -5.6723   17.2570 C   0  0  0  0  0  0  0  0  0  0  0  0
    4.5951   -7.8987   17.2755 C   0  0  0  0  0  0  0  0  0  0  0  0
    4.2414   -8.1603   16.1391 O   0  0  0  0  0  0  0  0  0  0  0  0
    5.3532   -8.7691   17.9772 N   0  0  0  0  0  0  0  0  0  0  0  0
    5.9218   -8.4620   19.2948 C   0  0  0  0  0  0  0  0  0  0  0  0
    4.2519   -6.7528   17.8733 N   0  0  0  0  0  0  0  0  0  0  0  0
    4.5070   -6.6435   18.8179 H   0  0  0  0  0  0  0  0  0  0  0  0
    5.6615  -10.0606   17.4494 C   0  0  0  0  0  0  0  0  0  0  0  0
    7.1169  -10.3347   17.6666 C   0  0  0  0  0  0  0  0  0  0  0  0
    8.0852   -9.4466   17.2299 C   0  0  0  0  0  0  0  0  0  0  0  0
    7.3820  -11.4406   18.3200 N   0  0  0  0  0  0  0  0  0  0  0  0
    9.4024   -9.7227   17.5098 C   0  0  0  0  0  0  0  0  0  0  0  0
    8.6545  -11.6888   18.5653 C   0  0  0  0  0  0  0  0  0  0  0  0
    9.7001  -10.8739   18.1979 C   0  0  0  0  0  0  0  0  0  0  0  0
    2.7645   -4.8780   18.3116 C   0  0  0  0  0  0  0  0  0  0  0  0
    1.6071   -4.0316   17.7259 C   0  0  0  0  0  0  0  0  0  0  0  0
    2.2485   -5.7887   19.4268 C   0  0  0  0  0  0  0  0  0  0  0  0
    6.8261   -3.4897   15.6091 C   0  0  0  0  0  0  0  0  0  0  0  0
    8.1435   -3.9304   16.1462 C   0  0  0  0  0  0  0  0  0  0  0  0
    9.2707   -3.1536   15.9675 C   0  0  0  0  0  0  0  0  0  0  0  0
   10.4829   -3.5913   16.4281 C   0  0  0  0  0  0  0  0  0  0  0  0
   10.5607   -4.8065   17.0581 C   0  0  0  0  0  0  0  0  0  0  0  0
    9.4312   -5.5779   17.2548 C   0  0  0  0  0  0  0  0  0  0  0  0
    8.2166   -5.1401   16.8030 C   0  0  0  0  0  0  0  0  0  0  0  0
 42 43  2  0  0  0
 42 44  1  0  0  0
 42 46  1  0  0  0
 44 45  1  0  0  0
 44 48  1  0  0  0
 48 49  1  0  0  0
 49 50  1  0  0  0
 49 51  2  0  0  0
 50 52  2  0  0  0
 51 53  1  0  0  0
 52 54  1  0  0  0
 53 54  2  0  0  0
 46 41  1  0  0  0
 41 37  1  0  0  0
 41 55  1  0  0  0
 37 38  2  0  0  0
 37 39  1  0  0  0
 55 56  1  0  0  0
 55 57  1  0  0  0
 39 36  1  0  0  0
 36 58  1  0  0  0
 36  1  1  0  0  0
 58 59  1  0  0  0
 59 60  2  0  0  0
 59 64  1  0  0  0
 60 61  1  0  0  0
 61 62  2  0  0  0
 62 63  1  0  0  0
 63 64  2  0  0  0
  1  2  1  0  0  0
  1  5  1  0  0  0
  4  5  1  0  0  0
  5  7  1  0  0  0
  8  7  1  0  0  0
  8  9  1  0  0  0
  7 29  1  0  0  0
 29 30  1  0  0  0
 30 31  2  0  0  0
 30 35  1  0  0  0
 31 32  1  0  0  0
 32 33  2  0  0  0
 33 34  1  0  0  0
 34 35  2  0  0  0
 13 12  1  0  0  0
 13 14  1  0  0  0
 12  9  1  0  0  0
 12 26  1  0  0  0
  9 10  2  0  0  0
 26 27  1  0  0  0
 26 28  1  0  0  0
 14 15  2  0  0  0
 14 16  1  0  0  0
 16 17  1  0  0  0
 16 19  1  0  0  0
 19 20  1  0  0  0
 20 21  1  0  0  0
 20 22  2  0  0  0
 21 23  2  0  0  0
 22 24  1  0  0  0
 23 25  1  0  0  0
 24 25  2  0  0  0
 46 47  1  0  0  0
 39 40  1  0  0  0
  2  3  1  0  0  0
  4  6  1  0  0  0
  8 11  1  0  0  0
 13 18  1  0  0  0
M  END
> <minimizedAffinity>
-8.75925

$$$$
1HVS_A77_A_800


 64 67  0  0  0  0  0  0  0  0999 V2000
    6.2483   -2.2515   13.0570 C   0  0  0  0  0  0  0  0  0  0  0  0
    5.4161   -3.1497   12.3489 O   0  0  0  0  0  0  0  0  0  0  0  0
    4.5016   -2.8269   12.3683 H   0  0  0  0  0  0  0  0  0  0  0  0
    6.8242   -1.3355   15.0141 O   0  0  0  0  0  0  0  0  0  0  0  0
    5.9031   -2.2667   14.5316 C   0  0  0  0  0  0  0  0  0  0  0  0
    6.6954   -0.4881   14.5600 H   0  0  0  0  0  0  0  0  0  0  0  0
    6.1985   -3.5382   15.3073 C   0  0  0  0  0  0  0  0  0  0  0  0
    5.0635   -4.4883   15.2602 N   0  0  0  0  0  0  0  0  0  0  0  0
    4.6989   -5.2445   16.3150 C   0  0  0  0  0  0  0  0  0  0  0  0
    5.2196   -5.1142   17.4118 O   0  0  0  0  0  0  0  0  0  0  0  0
    4.5531   -4.5711   14.4224 H   0  0  0  0  0  0  0  0  0  0  0  0
    3.5860   -6.2619   16.1146 C   0  0  0  0  0  0  0  0  0  0  0  0
    3.6797   -7.2423   17.1852 N   0  0  0  0  0  0  0  0  0  0  0  0
    4.3027   -8.4237   17.0466 C   0  0  0  0  0  0  0  0  0  0  0  0
    4.6286   -8.8663   15.9603 O   0  0  0  0  0  0  0  0  0  0  0  0
    4.5279   -9.1286   18.1407 N   0  0  0  0  0  0  0  0  0  0  0  0
    4.1349   -8.5952   19.4524 C   0  0  0  0  0  0  0  0  0  0  0  0
    3.2664   -7.0295   18.0530 H   0  0  0  0  0  0  0  0  0  0  0  0
    5.1427  -10.4452   18.0353 C   0  0  0  0  0  0  0  0  0  0  0  0
    6.6344  -10.4049   18.2581 C   0  0  0  0  0  0  0  0  0  0  0  0
    7.4713  -10.2832   17.1502 C   0  0  0  0  0  0  0  0  0  0  0  0
    7.0717  -10.5310   19.5047 N   0  0  0  0  0  0  0  0  0  0  0  0
    8.8352  -10.3240   17.3048 C   0  0  0  0  0  0  0  0  0  0  0  0
    8.3884  -10.6040   19.6220 C   0  0  0  0  0  0  0  0  0  0  0  0
    9.3046  -10.5006   18.5823 C   0  0  0  0  0  0  0  0  0  0  0  0
    2.1973   -5.6393   16.1693 C   0  0  0  0  0  0  0  0  0  0  0  0
    2.1572   -4.4034   17.0837 C   0  0  0  0  0  0  0  0  0  0  0  0
    1.7043   -5.3013   14.7470 C   0  0  0  0  0  0  0  0  0  0  0  0
    7.4464   -4.1737   14.6691 C   0  0  0  0  0  0  0  0  0  0  0  0
    8.5462   -4.5669   15.6568 C   0  0  0  0  0  0  0  0  0  0  0  0
    9.5427   -3.6574   16.0133 C   0  0  0  0  0  0  0  0  0  0  0  0
   10.5393   -4.0131   16.9012 C   0  0  0  0  0  0  0  0  0  0  0  0
   10.5768   -5.2672   17.4518 C   0  0  0  0  0  0  0  0  0  0  0  0
    9.5944   -6.1814   17.1187 C   0  0  0  0  0  0  0  0  0  0  0  0
    8.5849   -5.8346   16.2283 C   0  0  0  0  0  0  0  0  0  0  0  0
    6.2268   -0.9689   12.3175 C   0  0  0  0  0  0  0  0  0  0  0  0
    3.9689   -0.0800   12.4900 C   0  0  0  0  0  0  0  0  0  0  0  0
    3.5619   -0.7862   11.5785 O   0  0  0  0  0  0  0  0  0  0  0  0
    5.2165   -0.1268   12.9271 N   0  0  0  0  0  0  0  0  0  0  0  0
    5.4690    0.4325   13.6970 H   0  0  0  0  0  0  0  0  0  0  0  0
    3.0879    0.9304   13.2137 C   0  0  0  0  0  0  0  0  0  0  0  0
    3.1045    2.7267   11.5309 C   0  0  0  0  0  0  0  0  0  0  0  0
    4.2476    3.0620   11.7871 O   0  0  0  0  0  0  0  0  0  0  0  0
    2.4146    3.3356   10.5420 N   0  0  0  0  0  0  0  0  0  0  0  0
    1.0881    2.8945   10.0951 C   0  0  0  0  0  0  0  0  0  0  0  0
    2.4875    1.7535   12.2096 N   0  0  0  0  0  0  0  0  0  0  0  0
    1.5396    1.5896   12.0004 H   0  0  0  0  0  0  0  0  0  0  0  0
    2.9645    4.4593    9.8518 C   0  0  0  0  0  0  0  0  0  0  0  0
    3.5320    3.9929    8.5476 C   0  0  0  0  0  0  0  0  0  0  0  0
    4.8483    3.5749    8.4487 C   0  0  0  0  0  0  0  0  0  0  0  0
    2.6854    3.9821    7.5460 N   0  0  0  0  0  0  0  0  0  0  0  0
    5.2969    3.1017    7.2386 C   0  0  0  0  0  0  0  0  0  0  0  0
    3.1439    3.5350    6.3924 C   0  0  0  0  0  0  0  0  0  0  0  0
    4.4235    3.0776    6.1784 C   0  0  0  0  0  0  0  0  0  0  0  0
    2.0048    0.2647   14.0723 C   0  0  0  0  0  0  0  0  0  0  0  0
    0.6227    0.1784   13.3785 C   0  0  0  0  0  0  0  0  0  0  0  0
    2.4470   -1.1176   14.5551 C   0  0  0  0  0  0  0  0  0  0  0  0
    7.6096   -0.3353   12.5055 C   0  0  0  0  0  0  0  0  0  0  0  0
    7.8420    0.8083   11.5802 C   0  0  0  0  0  0  0  0  0  0  0  0
    7.9772    2.0921   12.0696 C   0  0  0  0  0  0  0  0  0  0  0  0
    8.1468    3.1393   11.2049 C   0  0  0  0  0  0  0  0  0  0  0  0
    8.1729    2.8962    9.8559 C   0  0  0  0  0  0  0  0  0  0  0  0
    8.0564    1.6102    9.3638 C   0  0  0  0  0  0  0  0  0  0  0  0
    7.8948    0.5602   10.2253 C   0  0  0  0  0  0  0  0  0  0  0  0
 42 43  2  0  0  0
 42 44  1  0  0  0
 42 46  1  0  0  0
 44 45  1  0  0  0
 44 48  1  0  0  0
 48 49  1  0  0  0
 49 50  1  0  0  0
 49 51  2  0  0  0
 50 52  2  0  0  0
 51 53  1  0  0  0
 52 54  1  0  0  0
 53 54  2  0  0  0
 46 41  1  0  0  0
 41 37  1  0  0  0
 41 55  1  0  0  0
 37 38  2  0  0  0
 37 39  1  0  0  0
 55 56  1  0  0  0
 55 57  1  0  0  0
 39 36  1  0  0  0
 36 58  1  0  0  0
 36  1  1  0  0  0
 58 59  1  0  0  0
 59 60  2  0  0  0
 59 64  1  0  0  0
 60 61  1  0  0  0
 61 62  2  0  0  0
 62 63  1  0  0  0
 63 64  2  0  0  0
  1  2  1  0  0  0
  1  5  1  0  0  0
  4  5  1  0  0  0
  5  7  1  0  0  0
  8  7  1  0  0  0
  8  9  1  0  0  0
  7 29  1  0  0  0
 29 30  1  0  0  0
 30 31  2  0  0  0
 30 35  1  0  0  0
 31 32  1  0  0  0
 32 33  2  0  0  0
 33 34  1  0  0  0
 34 35  2  0  0  0
 13 12  1  0  0  0
 13 14  1  0  0  0
 12  9  1  0  0  0
 12 26  1  0  0  0
  9 10  2  0  0  0
 26 27  1  0  0  0
 26 28  1  0  0  0
 14 15  2  0  0  0
 14 16  1  0  0  0
 16 17  1  0  0  0
 16 19  1  0  0  0
 19 20  1  0  0  0
 20 21  1  0  0  0
 20 22  2  0  0  0
 21 23  2  0  0  0
 22 24  1  0  0  0
 23 25  1  0  0  0
 24 25  2  0  0  0
 46 47  1  0  0  0
 39 40  1  0  0  0
  2  3  1  0  0  0
  4  6  1  0  0  0
  8 11  1  0  0  0
 13 18  1  0  0  0
M  END
> <minimizedAffinity>
-8.69284

$$$$
1HVS_A77_A_800


 64 67  0  0  0  0  0  0  0  0999 V2000
    5.7607   -2.6457   14.3466 C   0  0  0  0  0  0  0  0  0  0  0  0
    6.9279   -2.2568   13.6488 O   0  0  0  0  0  0  0  0  0  0  0  0
    7.5518   -1.8447   14.2668 H   0  0  0  0  0  0  0  0  0  0  0  0
    3.8798   -2.0300   15.3879 O   0  0  0  0  0  0  0  0  0  0  0  0
    5.0111   -1.4249   14.8381 C   0  0  0  0  0  0  0  0  0  0  0  0
    4.1513   -2.6616   16.0723 H   0  0  0  0  0  0  0  0  0  0  0  0
    4.4664   -0.4687   13.7919 C   0  0  0  0  0  0  0  0  0  0  0  0
    5.5176   -0.0318   12.8446 N   0  0  0  0  0  0  0  0  0  0  0  0
    5.5272    1.1905   12.2762 C   0  0  0  0  0  0  0  0  0  0  0  0
    4.7230    2.0537   12.5909 O   0  0  0  0  0  0  0  0  0  0  0  0
    6.2406   -0.6613   12.6204 H   0  0  0  0  0  0  0  0  0  0  0  0
    6.5975    1.4871   11.2367 C   0  0  0  0  0  0  0  0  0  0  0  0
    6.3734    2.8351   10.7378 N   0  0  0  0  0  0  0  0  0  0  0  0
    5.9349    3.0948    9.4955 C   0  0  0  0  0  0  0  0  0  0  0  0
    5.9164    2.2494    8.6197 O   0  0  0  0  0  0  0  0  0  0  0  0
    5.5474    4.3292    9.2291 N   0  0  0  0  0  0  0  0  0  0  0  0
    5.5693    5.3504   10.2857 C   0  0  0  0  0  0  0  0  0  0  0  0
    6.5519    3.5933   11.3398 H   0  0  0  0  0  0  0  0  0  0  0  0
    5.1245    4.6757    7.8788 C   0  0  0  0  0  0  0  0  0  0  0  0
    3.6276    4.8254    7.7635 C   0  0  0  0  0  0  0  0  0  0  0  0
    2.8449    3.6738    7.6995 C   0  0  0  0  0  0  0  0  0  0  0  0
    3.1387    6.0567    7.6868 N   0  0  0  0  0  0  0  0  0  0  0  0
    1.4876    3.7684    7.5134 C   0  0  0  0  0  0  0  0  0  0  0  0
    1.8339    6.1191    7.4712 C   0  0  0  0  0  0  0  0  0  0  0  0
    0.9709    5.0334    7.3852 C   0  0  0  0  0  0  0  0  0  0  0  0
    8.0088    1.4263   11.8057 C   0  0  0  0  0  0  0  0  0  0  0  0
    9.0547    1.1299   10.7179 C   0  0  0  0  0  0  0  0  0  0  0  0
    8.3392    2.7300   12.5616 C   0  0  0  0  0  0  0  0  0  0  0  0
    3.3525   -1.2161   13.0374 C   0  0  0  0  0  0  0  0  0  0  0  0
    2.1641   -0.3491   12.6182 C   0  0  0  0  0  0  0  0  0  0  0  0
    2.0241    0.0779   11.2971 C   0  0  0  0  0  0  0  0  0  0  0  0
    0.9540    0.8652   10.9186 C   0  0  0  0  0  0  0  0  0  0  0  0
    0.0054    1.2489   11.8296 C   0  0  0  0  0  0  0  0  0  0  0  0
    0.1203    0.8301   13.1423 C   0  0  0  0  0  0  0  0  0  0  0  0
    1.1911    0.0356   13.5350 C   0  0  0  0  0  0  0  0  0  0  0  0
    6.1644   -3.6907   15.3147 C   0  0  0  0  0  0  0  0  0  0  0  0
    4.8384   -5.2784   16.5949 C   0  0  0  0  0  0  0  0  0  0  0  0
    5.5483   -5.1588   17.5833 O   0  0  0  0  0  0  0  0  0  0  0  0
    5.0416   -4.5921   15.4824 N   0  0  0  0  0  0  0  0  0  0  0  0
    4.4050   -4.6977   14.7389 H   0  0  0  0  0  0  0  0  0  0  0  0
    3.6515   -6.2316   16.5362 C   0  0  0  0  0  0  0  0  0  0  0  0
    4.2353   -8.5352   15.8948 C   0  0  0  0  0  0  0  0  0  0  0  0
    3.7775   -8.4210   14.7713 O   0  0  0  0  0  0  0  0  0  0  0  0
    4.8403   -9.6808   16.2776 N   0  0  0  0  0  0  0  0  0  0  0  0
    5.5271   -9.8380   17.5649 C   0  0  0  0  0  0  0  0  0  0  0  0
    4.1594   -7.5446   16.7899 N   0  0  0  0  0  0  0  0  0  0  0  0
    4.4804   -7.7351   17.7009 H   0  0  0  0  0  0  0  0  0  0  0  0
    4.8568  -10.8215   15.4173 C   0  0  0  0  0  0  0  0  0  0  0  0
    3.5082  -11.4701   15.4517 C   0  0  0  0  0  0  0  0  0  0  0  0
    2.8477  -11.6844   16.6496 C   0  0  0  0  0  0  0  0  0  0  0  0
    3.0086  -11.7747   14.2779 N   0  0  0  0  0  0  0  0  0  0  0  0
    1.5865  -12.2302   16.6145 C   0  0  0  0  0  0  0  0  0  0  0  0
    1.8020  -12.3085   14.2722 C   0  0  0  0  0  0  0  0  0  0  0  0
    1.0437  -12.5513   15.3940 C   0  0  0  0  0  0  0  0  0  0  0  0
    2.5578   -5.8796   17.5526 C   0  0  0  0  0  0  0  0  0  0  0  0
    2.8431   -6.4002   18.9832 C   0  0  0  0  0  0  0  0  0  0  0  0
    2.2822   -4.3754   17.5771 C   0  0  0  0  0  0  0  0  0  0  0  0
    7.3394   -4.4418   14.6790 C   0  0  0  0  0  0  0  0  0  0  0  0
    8.4822   -4.6106   15.6190 C   0  0  0  0  0  0  0  0  0  0  0  0
    9.3538   -3.5674   15.8602 C   0  0  0  0  0  0  0  0  0  0  0  0
   10.4248   -3.7498   16.6925 C   0  0  0  0  0  0  0  0  0  0  0  0
   10.6209   -4.9764   17.2725 C   0  0  0  0  0  0  0  0  0  0  0  0
    9.7400   -6.0170   17.0478 C   0  0  0  0  0  0  0  0  0  0  0  0
    8.6640   -5.8364   16.2228 C   0  0  0  0  0  0  0  0  0  0  0  0
 42 43  2  0  0  0
 42 44  1  0  0  0
 42 46  1  0  0  0
 44 45  1  0  0  0
 44 48  1  0  0  0
 48 49  1  0  0  0
 49 50  1  0  0  0
 49 51  2  0  0  0
 50 52  2  0  0  0
 51 53  1  0  0  0
 52 54  1  0  0  0
 53 54  2  0  0  0
 46 41  1  0  0  0
 41 37  1  0  0  0
 41 55  1  0  0  0
 37 38  2  0  0  0
 37 39  1  0  0  0
 55 56  1  0  0  0
 55 57  1  0  0  0
 39 36  1  0  0  0
 36 58  1  0  0  0
 36  1  1  0  0  0
 58 59  1  0  0  0
 59 60  2  0  0  0
 59 64  1  0  0  0
 60 61  1  0  0  0
 61 62  2  0  0  0
 62 63  1  0  0  0
 63 64  2  0  0  0
  1  2  1  0  0  0
  1  5  1  0  0  0
  4  5  1  0  0  0
  5  7  1  0  0  0
  8  7  1  0  0  0
  8  9  1  0  0  0
  7 29  1  0  0  0
 29 30  1  0  0  0
 30 31  2  0  0  0
 30 35  1  0  0  0
 31 32  1  0  0  0
 32 33  2  0  0  0
 33 34  1  0  0  0
 34 35  2  0  0  0
 13 12  1  0  0  0
 13 14  1  0  0  0
 12  9  1  0  0  0
 12 26  1  0  0  0
  9 10  2  0  0  0
 26 27  1  0  0  0
 26 28  1  0  0  0
 14 15  2  0  0  0
 14 16  1  0  0  0
 16 17  1  0  0  0
 16 19  1  0  0  0
 19 20  1  0  0  0
 20 21  1  0  0  0
 20 22  2  0  0  0
 21 23  2  0  0  0
 22 24  1  0  0  0
 23 25  1  0  0  0
 24 25  2  0  0  0
 46 47  1  0  0  0
 39 40  1  0  0  0
  2  3  1  0  0  0
  4  6  1  0  0  0
  8 11  1  0  0  0
 13 18  1  0  0  0
M  END
> <minimizedAffinity>
-8.50057

$$$$
1HVS_A77_A_800


 64 67  0  0  0  0  0  0  0  0999 V2000
    5.8337    0.3490   14.0391 C   0  0  0  0  0  0  0  0  0  0  0  0
    6.4645   -0.6562   13.2695 O   0  0  0  0  0  0  0  0  0  0  0  0
    5.7903   -1.2008   12.8339 H   0  0  0  0  0  0  0  0  0  0  0  0
    6.0380   -0.1517   16.2091 O   0  0  0  0  0  0  0  0  0  0  0  0
    5.0824   -0.2711   15.1987 C   0  0  0  0  0  0  0  0  0  0  0  0
    6.2813    0.7813   16.3154 H   0  0  0  0  0  0  0  0  0  0  0  0
    4.7835   -1.7581   15.1252 C   0  0  0  0  0  0  0  0  0  0  0  0
    5.7778   -2.5575   15.8772 N   0  0  0  0  0  0  0  0  0  0  0  0
    6.5356   -3.5117   15.3004 C   0  0  0  0  0  0  0  0  0  0  0  0
    6.5228   -3.7031   14.0945 O   0  0  0  0  0  0  0  0  0  0  0  0
    5.8902   -2.3846   16.8398 H   0  0  0  0  0  0  0  0  0  0  0  0
    7.4445   -4.3406   16.1952 C   0  0  0  0  0  0  0  0  0  0  0  0
    6.7540   -5.5831   16.5041 N   0  0  0  0  0  0  0  0  0  0  0  0
    6.3310   -5.9009   17.7382 C   0  0  0  0  0  0  0  0  0  0  0  0
    6.6947   -5.2945   18.7292 O   0  0  0  0  0  0  0  0  0  0  0  0
    5.5181   -6.9351   17.8589 N   0  0  0  0  0  0  0  0  0  0  0  0
    5.0785   -7.6677   16.6632 C   0  0  0  0  0  0  0  0  0  0  0  0
    6.5888   -6.2217   15.7732 H   0  0  0  0  0  0  0  0  0  0  0  0
    5.0833   -7.3586   19.1833 C   0  0  0  0  0  0  0  0  0  0  0  0
    4.7850   -8.8362   19.2475 C   0  0  0  0  0  0  0  0  0  0  0  0
    3.4774   -9.2421   19.5088 C   0  0  0  0  0  0  0  0  0  0  0  0
    5.8020   -9.6743   19.0917 N   0  0  0  0  0  0  0  0  0  0  0  0
    3.1821  -10.5752   19.6547 C   0  0  0  0  0  0  0  0  0  0  0  0
    5.4977  -10.9499   19.2732 C   0  0  0  0  0  0  0  0  0  0  0  0
    4.2309  -11.4534   19.5428 C   0  0  0  0  0  0  0  0  0  0  0  0
    8.7687   -4.6929   15.5306 C   0  0  0  0  0  0  0  0  0  0  0  0
    9.7363   -3.4979   15.5082 C   0  0  0  0  0  0  0  0  0  0  0  0
    9.4055   -5.9178   16.2192 C   0  0  0  0  0  0  0  0  0  0  0  0
    3.3798   -1.9637   15.7217 C   0  0  0  0  0  0  0  0  0  0  0  0
    2.8389   -3.3908   15.6199 C   0  0  0  0  0  0  0  0  0  0  0  0
    2.7099   -4.1873   16.7585 C   0  0  0  0  0  0  0  0  0  0  0  0
    2.2263   -5.4780   16.6669 C   0  0  0  0  0  0  0  0  0  0  0  0
    1.8641   -6.0098   15.4573 C   0  0  0  0  0  0  0  0  0  0  0  0
    1.9760   -5.2352   14.3175 C   0  0  0  0  0  0  0  0  0  0  0  0
    2.4588   -3.9342   14.3969 C   0  0  0  0  0  0  0  0  0  0  0  0
    5.1126    1.2293   13.0919 C   0  0  0  0  0  0  0  0  0  0  0  0
    5.8848    3.0158   11.6324 C   0  0  0  0  0  0  0  0  0  0  0  0
    4.8610    3.6647   11.7932 O   0  0  0  0  0  0  0  0  0  0  0  0
    6.1004    1.8600   12.2388 N   0  0  0  0  0  0  0  0  0  0  0  0
    6.9660    1.4105   12.1055 H   0  0  0  0  0  0  0  0  0  0  0  0
    7.0156    3.4636   10.7150 C   0  0  0  0  0  0  0  0  0  0  0  0
    5.8971    3.1068    8.5516 C   0  0  0  0  0  0  0  0  0  0  0  0
    5.9844    1.8932    8.6186 O   0  0  0  0  0  0  0  0  0  0  0  0
    5.2710    3.6945    7.5088 N   0  0  0  0  0  0  0  0  0  0  0  0
    5.0153    5.1376    7.4319 C   0  0  0  0  0  0  0  0  0  0  0  0
    6.4122    3.9028    9.4947 N   0  0  0  0  0  0  0  0  0  0  0  0
    6.3727    4.8735    9.3356 H   0  0  0  0  0  0  0  0  0  0  0  0
    4.7986    2.9168    6.4072 C   0  0  0  0  0  0  0  0  0  0  0  0
    3.3934    3.3275    6.0952 C   0  0  0  0  0  0  0  0  0  0  0  0
    3.0115    3.6465    4.8031 C   0  0  0  0  0  0  0  0  0  0  0  0
    2.5734    3.3227    7.1187 N   0  0  0  0  0  0  0  0  0  0  0  0
    1.6938    3.9593    4.5671 C   0  0  0  0  0  0  0  0  0  0  0  0
    1.3171    3.6383    6.8680 C   0  0  0  0  0  0  0  0  0  0  0  0
    0.8182    3.9547    5.6257 C   0  0  0  0  0  0  0  0  0  0  0  0
    7.8624    4.5885   11.3238 C   0  0  0  0  0  0  0  0  0  0  0  0
    8.8091    5.2769   10.3095 C   0  0  0  0  0  0  0  0  0  0  0  0
    6.9876    5.6272   12.0273 C   0  0  0  0  0  0  0  0  0  0  0  0
    4.2109    0.3181   12.2519 C   0  0  0  0  0  0  0  0  0  0  0  0
    2.7692    0.6686   12.3812 C   0  0  0  0  0  0  0  0  0  0  0  0
    1.9448   -0.0475   13.2260 C   0  0  0  0  0  0  0  0  0  0  0  0
    0.6128    0.2574   13.3021 C   0  0  0  0  0  0  0  0  0  0  0  0
    0.1128    1.2720   12.5275 C   0  0  0  0  0  0  0  0  0  0  0  0
    0.9387    2.0027   11.6948 C   0  0  0  0  0  0  0  0  0  0  0  0
    2.2720    1.7061   11.6219 C   0  0  0  0  0  0  0  0  0  0  0  0
 42 43  2  0  0  0
 42 44  1  0  0  0
 42 46  1  0  0  0
 44 45  1  0  0  0
 44 48  1  0  0  0
 48 49  1  0  0  0
 49 50  1  0  0  0
 49 51  2  0  0  0
 50 52  2  0  0  0
 51 53  1  0  0  0
 52 54  1  0  0  0
 53 54  2  0  0  0
 46 41  1  0  0  0
 41 37  1  0  0  0
 41 55  1  0  0  0
 37 38  2  0  0  0
 37 39  1  0  0  0
 55 56  1  0  0  0
 55 57  1  0  0  0
 39 36  1  0  0  0
 36 58  1  0  0  0
 36  1  1  0  0  0
 58 59  1  0  0  0
 59 60  2  0  0  0
 59 64  1  0  0  0
 60 61  1  0  0  0
 61 62  2  0  0  0
 62 63  1  0  0  0
 63 64  2  0  0  0
  1  2  1  0  0  0
  1  5  1  0  0  0
  4  5  1  0  0  0
  5  7  1  0  0  0
  8  7  1  0  0  0
  8  9  1  0  0  0
  7 29  1  0  0  0
 29 30  1  0  0  0
 30 31  2  0  0  0
 30 35  1  0  0  0
 31 32  1  0  0  0
 32 33  2  0  0  0
 33 34  1  0  0  0
 34 35  2  0  0  0
 13 12  1  0  0  0
 13 14  1  0  0  0
 12  9  1  0  0  0
 12 26  1  0  0  0
  9 10  2  0  0  0
 26 27  1  0  0  0
 26 28  1  0  0  0
 14 15  2  0  0  0
 14 16  1  0  0  0
 16 17  1  0  0  0
 16 19  1  0  0  0
 19 20  1  0  0  0
 20 21  1  0  0  0
 20 22  2  0  0  0
 21 23  2  0  0  0
 22 24  1  0  0  0
 23 25  1  0  0  0
 24 25  2  0  0  0
 46 47  1  0  0  0
 39 40  1  0  0  0
  2  3  1  0  0  0
  4  6  1  0  0  0
  8 11  1  0  0  0
 13 18  1  0  0  0
M  END
> <minimizedAffinity>
-8.44216

$$$$
