6ELP_BA8_A_301
  RCSB PDB05261800313D
Coordinates from PDB:6ELP:A:301 Model:1 without hydrogens
 28 31  0  0  0  0            999 V2000
    1.2430   33.7370   25.6920   C 0  0  0  0  0  0  0  0  0  0  0  0
    0.0670   33.3460   26.3560   C 0  0  0  0  0  0  0  0  0  0  0  0
   -1.1860   33.7240   25.8570   C 0  0  0  0  0  0  0  0  0  0  0  0
   -0.1110   35.8300   22.8520   C 0  0  0  0  0  0  0  0  0  0  0  0
   -0.6690   35.6420   21.6070   C 0  0  0  0  0  0  0  0  0  0  0  0
   -0.3960   36.7870   20.8510   C 0  0  0  0  0  0  0  0  0  0  0  0
    1.0910   37.6900   23.9870   C 0  0  0  0  0  0  0  0  0  0  0  0
    2.4810   37.6350   24.1380   C 0  0  0  0  0  0  0  0  0  0  0  0
    3.1170   38.1740   25.2670   C 0  0  0  0  0  0  0  0  0  0  0  0
    2.3380   38.7410   26.2720   C 0  0  0  0  0  0  0  0  0  0  0  0
    2.6130   33.2690   26.1810   C 0  0  0  0  0  0  0  0  0  0  0  0
    6.2470   30.2720   25.1000   C 0  0  0  0  0  0  0  0  0  0  0  0
    7.0470   32.3700   25.9850   C 0  0  0  0  0  0  0  0  0  0  0  0
    5.8340   32.9030   25.8110   N 0  0  0  0  0  0  0  0  0  0  0  0
    4.9940   30.8810   24.9090   C 0  0  0  0  0  0  0  0  0  0  0  0
   -1.2790   34.5260   24.7160   C 0  0  0  0  0  0  0  0  0  0  0  0
   -0.1090   34.9220   24.0330   C 0  0  0  0  0  0  0  0  0  0  0  0
    1.1400   34.5120   24.5430   C 0  0  0  0  0  0  0  0  0  0  0  0
    0.1340   32.6520   27.5230   O 0  0  0  0  0  0  0  0  0  0  0  0
    0.2890   37.6280   21.5810   N 0  0  0  0  0  0  0  0  0  0  0  0
    0.4570   37.0840   22.8660   N 0  0  0  0  0  0  0  0  0  0  0  0
    0.9450   38.7840   26.1310   C 0  0  0  0  0  0  0  0  0  0  0  0
    0.3130   38.2250   25.0270   C 0  0  0  0  0  0  0  0  0  0  0  0
    3.4130   36.8970   22.8810  Cl 0  0  0  0  0  0  0  0  0  0  0  0
   -2.5090   34.8400   24.2490   O 0  0  0  0  0  0  0  0  0  0  0  0
    7.2900   31.0400   25.6300   C 0  0  0  0  0  0  0  0  0  0  0  0
    4.8150   32.2080   25.3050   C 0  0  0  0  0  0  0  0  0  0  0  0
    3.4960   32.8810   24.9890   C 0  0  0  0  0  0  0  0  0  0  0  0
  6 20  2  0  0  0  0
  6  5  1  0  0  0  0
 20 21  1  0  0  0  0
  5  4  2  0  0  0  0
  4 21  1  0  0  0  0
  4 17  1  0  0  0  0
 21  7  1  0  0  0  0
 24  8  1  0  0  0  0
  7  8  2  0  0  0  0
  7 23  1  0  0  0  0
 17 18  2  0  0  0  0
 17 16  1  0  0  0  0
  8  9  1  0  0  0  0
 25 16  1  0  0  0  0
 18  1  1  0  0  0  0
 16  3  2  0  0  0  0
 15 12  2  0  0  0  0
 15 27  1  0  0  0  0
 28 27  1  0  0  0  0
 28 11  1  0  0  0  0
 23 22  2  0  0  0  0
 12 26  1  0  0  0  0
  9 10  2  0  0  0  0
 27 14  2  0  0  0  0
 26 13  2  0  0  0  0
  1 11  1  0  0  0  0
  1  2  2  0  0  0  0
 14 13  1  0  0  0  0
  3  2  1  0  0  0  0
 22 10  1  0  0  0  0
  2 19  1  0  0  0  0
A    1
C1
A    2
C2
A    3
C3
A    4
C8
A    5
C9
A    6
C10
A    7
C13
A    8
C14
A    9
C15
A   10
C16
A   11
C21
A   12
C22
A   13
C24
A   14
N25
A   15
C27
A   16
C4
A   17
C5
A   18
C6
A   19
O7
A   20
N11
A   21
N12
A   22
C17
A   23
C18
A   24
CL
A   25
O20
A   26
C23
A   27
C26
A   28
C28
M  END
>  <InstanceId>
6ELP_BA8_A_301

>  <ChemCompId>
BA8

>  <PdbId>
6ELP

>  <ChainId>
A

>  <ResidueNumber>
301

>  <InsertionCode>


>  <Model>
1

>  <AltIds>


>  <MissingHeavyAtoms>
0

>  <ObservedFormula>
C22 N3 O2 Cl

>  <Name>
4-[2-(2-chlorophenyl)pyrazol-3-yl]-6-(2-pyridin-2-ylethyl)benzene-1,3-diol

>  <SystematicName>
4-[2-(2-chlorophenyl)pyrazol-3-yl]-6-(2-pyridin-2-ylethyl)benzene-1,3-diol

>  <Synonyms>


>  <Type>
NON-POLYMER

>  <Formula>
C22 H18 Cl N3 O2

>  <MolecularWeight>
391.85

>  <ModifiedDate>
2018-05-25

>  <Parent>


>  <OneLetterCode>


>  <SubcomponentList>


>  <AmbiguousFlag>
N

>  <InChI>
InChI=1S/C22H18ClN3O2/c23-18-6-1-2-7-20(18)26-19(10-12-25-26)17-13-15(21(27)14-22(17)28)8-9-16-5-3-4-11-24-16/h1-7,10-14,27-28H,8-9H2

>  <InChIKey>
XKWFQNKDUUWEFR-UHFFFAOYSA-N

>  <SMILES>
c1ccc(c(c1)n2c(ccn2)c3cc(c(cc3O)O)CCc4ccccn4)Cl

$$$$
