5N25_8HK_A_302


 18 19  0  0  0  0  0  0  0  0999 V2000
   -3.7491    3.5199   14.9406 C   0  0  0  0  0  0  0  0  0  0  0  0
   -5.6323    2.5485   16.0520 C   0  0  0  0  0  0  0  0  0  0  0  0
   -5.8560    4.6475   14.9176 C   0  0  0  0  0  0  0  0  0  0  0  0
   -6.4230    3.6213   15.6614 C   0  0  0  0  0  0  0  0  0  0  0  0
   -4.5036    4.6266   14.5606 C   0  0  0  0  0  0  0  0  0  0  0  0
   -4.2984    2.4871   15.6789 C   0  0  0  0  0  0  0  0  0  0  0  0
   -6.0626    1.7306   18.4663 O   0  0  0  0  0  0  0  0  0  0  0  0
   -5.4327   -0.0385   16.8914 N   0  0  0  0  0  0  0  0  0  0  0  0
   -6.2859    1.2956   17.1164 S   0  0  0  0  0  0  0  0  0  0  0  0
   -7.6302    1.0211   16.6947 O   0  0  0  0  0  0  0  0  0  0  0  0
   -5.5708   -0.3736   15.9379 H   0  0  0  0  0  0  0  0  0  0  0  0
   -5.7395   -0.7536   17.5509 H   0  0  0  0  0  0  0  0  0  0  0  0
   -3.8526    5.7770   13.8771 C   0  0  0  0  0  0  0  0  0  0  0  0
   -3.9801    5.9810   12.5053 C   0  0  0  0  0  0  0  0  0  0  0  0
   -2.3033    7.6129   13.8694 C   0  0  0  0  0  0  0  0  0  0  0  0
   -2.5026    7.7240   12.5092 C   0  0  0  0  0  0  0  0  0  0  0  0
   -2.9891    6.6301   14.5574 C   0  0  0  0  0  0  0  0  0  0  0  0
   -3.3228    6.9270   11.8191 N   0  0  0  0  0  0  0  0  0  0  0  0
 18 14  2  0  0  0
 18 16  1  0  0  0
 14 13  1  0  0  0
 16 15  2  0  0  0
 13 17  2  0  0  0
 13  5  1  0  0  0
 15 17  1  0  0  0
  5  3  2  0  0  0
  5  1  1  0  0  0
  3  4  1  0  0  0
  1  6  2  0  0  0
  4  2  2  0  0  0
  6  2  1  0  0  0
  2  9  1  0  0  0
  8  9  1  0  0  0
 10  9  2  0  0  0
  9  7  2  0  0  0
  8 11  1  0  0  0
  8 12  1  0  0  0
M  END
> <minimizedAffinity>
-7.30457

$$$$
5N25_8HK_A_302


 18 19  0  0  0  0  0  0  0  0999 V2000
   -5.7340    4.4163   14.9868 C   0  0  0  0  0  0  0  0  0  0  0  0
   -5.2545    2.3429   16.0805 C   0  0  0  0  0  0  0  0  0  0  0  0
   -3.5064    3.5509   14.9725 C   0  0  0  0  0  0  0  0  0  0  0  0
   -3.9189    2.4534   15.7164 C   0  0  0  0  0  0  0  0  0  0  0  0
   -4.4097    4.5427   14.5758 C   0  0  0  0  0  0  0  0  0  0  0  0
   -6.1616    3.3316   15.7310 C   0  0  0  0  0  0  0  0  0  0  0  0
   -5.3522   -0.2389   16.1682 O   0  0  0  0  0  0  0  0  0  0  0  0
   -7.4366    0.8791   16.8103 N   0  0  0  0  0  0  0  0  0  0  0  0
   -5.8400    0.8919   16.9062 S   0  0  0  0  0  0  0  0  0  0  0  0
   -5.4948    1.0093   18.2944 O   0  0  0  0  0  0  0  0  0  0  0  0
   -7.8146    1.6733   17.3268 H   0  0  0  0  0  0  0  0  0  0  0  0
   -7.7943    0.0118   17.2107 H   0  0  0  0  0  0  0  0  0  0  0  0
   -4.0098    5.6547   13.6714 C   0  0  0  0  0  0  0  0  0  0  0  0
   -4.6013    5.8318   12.4231 C   0  0  0  0  0  0  0  0  0  0  0  0
   -2.5166    7.4366   13.0664 C   0  0  0  0  0  0  0  0  0  0  0  0
   -3.1737    7.5236   11.8569 C   0  0  0  0  0  0  0  0  0  0  0  0
   -2.9437    6.4933   13.9815 C   0  0  0  0  0  0  0  0  0  0  0  0
   -4.2014    6.7393   11.5208 N   0  0  0  0  0  0  0  0  0  0  0  0
 18 14  2  0  0  0
 18 16  1  0  0  0
 14 13  1  0  0  0
 16 15  2  0  0  0
 13 17  2  0  0  0
 13  5  1  0  0  0
 15 17  1  0  0  0
  5  3  2  0  0  0
  5  1  1  0  0  0
  3  4  1  0  0  0
  1  6  2  0  0  0
  4  2  2  0  0  0
  6  2  1  0  0  0
  2  9  1  0  0  0
  8  9  1  0  0  0
 10  9  2  0  0  0
  9  7  2  0  0  0
  8 11  1  0  0  0
  8 12  1  0  0  0
M  END
> <minimizedAffinity>
-7.20602

$$$$
5N25_8HK_A_302


 18 19  0  0  0  0  0  0  0  0999 V2000
   -3.9857    1.4017   13.2042 C   0  0  0  0  0  0  0  0  0  0  0  0
   -2.7183    2.9429   11.8836 C   0  0  0  0  0  0  0  0  0  0  0  0
   -3.4032    3.5388   14.1014 C   0  0  0  0  0  0  0  0  0  0  0  0
   -2.7400    3.8614   12.9250 C   0  0  0  0  0  0  0  0  0  0  0  0
   -4.0562    2.3113   14.2560 C   0  0  0  0  0  0  0  0  0  0  0  0
   -3.3266    1.7051   12.0266 C   0  0  0  0  0  0  0  0  0  0  0  0
   -0.9689    4.3344   10.5853 O   0  0  0  0  0  0  0  0  0  0  0  0
   -3.1289    4.1038    9.4504 N   0  0  0  0  0  0  0  0  0  0  0  0
   -2.0043    3.3750   10.3237 S   0  0  0  0  0  0  0  0  0  0  0  0
   -1.6595    2.1564    9.6480 O   0  0  0  0  0  0  0  0  0  0  0  0
   -3.8812    3.4457    9.2473 H   0  0  0  0  0  0  0  0  0  0  0  0
   -2.7199    4.4332    8.5760 H   0  0  0  0  0  0  0  0  0  0  0  0
   -4.8784    2.0035   15.4575 C   0  0  0  0  0  0  0  0  0  0  0  0
   -4.6464    0.8699   16.2325 C   0  0  0  0  0  0  0  0  0  0  0  0
   -6.8071    2.3866   16.8375 C   0  0  0  0  0  0  0  0  0  0  0  0
   -6.4851    1.2424   17.5369 C   0  0  0  0  0  0  0  0  0  0  0  0
   -5.9915    2.7695   15.7897 C   0  0  0  0  0  0  0  0  0  0  0  0
   -5.4259    0.4803   17.2516 N   0  0  0  0  0  0  0  0  0  0  0  0
 18 14  2  0  0  0
 18 16  1  0  0  0
 14 13  1  0  0  0
 16 15  2  0  0  0
 13 17  2  0  0  0
 13  5  1  0  0  0
 15 17  1  0  0  0
  5  3  2  0  0  0
  5  1  1  0  0  0
  3  4  1  0  0  0
  1  6  2  0  0  0
  4  2  2  0  0  0
  6  2  1  0  0  0
  2  9  1  0  0  0
  8  9  1  0  0  0
 10  9  2  0  0  0
  9  7  2  0  0  0
  8 11  1  0  0  0
  8 12  1  0  0  0
M  END
> <minimizedAffinity>
-6.95775

$$$$
5N25_8HK_A_302


 18 19  0  0  0  0  0  0  0  0999 V2000
   -3.1593    3.9174   14.9885 C   0  0  0  0  0  0  0  0  0  0  0  0
   -2.1431    4.0708   12.8277 C   0  0  0  0  0  0  0  0  0  0  0  0
   -3.8678    2.4574   13.2342 C   0  0  0  0  0  0  0  0  0  0  0  0
   -2.9602    3.0476   12.3649 C   0  0  0  0  0  0  0  0  0  0  0  0
   -3.9704    2.8668   14.5680 C   0  0  0  0  0  0  0  0  0  0  0  0
   -2.2520    4.5191   14.1352 C   0  0  0  0  0  0  0  0  0  0  0  0
   -1.3882    4.7324   10.4455 O   0  0  0  0  0  0  0  0  0  0  0  0
    0.3808    3.7675   11.8405 N   0  0  0  0  0  0  0  0  0  0  0  0
   -0.8816    4.7483   11.7887 S   0  0  0  0  0  0  0  0  0  0  0  0
   -0.4741    6.0020   12.3564 O   0  0  0  0  0  0  0  0  0  0  0  0
    0.7646    3.7569   12.7854 H   0  0  0  0  0  0  0  0  0  0  0  0
    1.0929    4.0951   11.1878 H   0  0  0  0  0  0  0  0  0  0  0  0
   -4.8438    2.1592   15.5431 C   0  0  0  0  0  0  0  0  0  0  0  0
   -4.5471    0.8756   15.9946 C   0  0  0  0  0  0  0  0  0  0  0  0
   -6.9049    1.9653   16.7617 C   0  0  0  0  0  0  0  0  0  0  0  0
   -6.5119    0.7008   17.1478 C   0  0  0  0  0  0  0  0  0  0  0  0
   -6.0583    2.7000   15.9536 C   0  0  0  0  0  0  0  0  0  0  0  0
   -5.3548    0.1458   16.7773 N   0  0  0  0  0  0  0  0  0  0  0  0
 18 14  2  0  0  0
 18 16  1  0  0  0
 14 13  1  0  0  0
 16 15  2  0  0  0
 13 17  2  0  0  0
 13  5  1  0  0  0
 15 17  1  0  0  0
  5  3  2  0  0  0
  5  1  1  0  0  0
  3  4  1  0  0  0
  1  6  2  0  0  0
  4  2  2  0  0  0
  6  2  1  0  0  0
  2  9  1  0  0  0
  8  9  1  0  0  0
 10  9  2  0  0  0
  9  7  2  0  0  0
  8 11  1  0  0  0
  8 12  1  0  0  0
M  END
> <minimizedAffinity>
-6.88578

$$$$
5N25_8HK_A_302


 18 19  0  0  0  0  0  0  0  0999 V2000
   -5.4911    3.6422   14.2096 C   0  0  0  0  0  0  0  0  0  0  0  0
   -5.5398    1.8967   15.8455 C   0  0  0  0  0  0  0  0  0  0  0  0
   -3.9084    1.8555   14.0906 C   0  0  0  0  0  0  0  0  0  0  0  0
   -4.4577    1.2817   15.2295 C   0  0  0  0  0  0  0  0  0  0  0  0
   -4.4274    3.0354   13.5470 C   0  0  0  0  0  0  0  0  0  0  0  0
   -6.0484    3.0863   15.3471 C   0  0  0  0  0  0  0  0  0  0  0  0
   -7.7251    0.9386   16.8401 O   0  0  0  0  0  0  0  0  0  0  0  0
   -6.3162    2.1360   18.4487 N   0  0  0  0  0  0  0  0  0  0  0  0
   -6.3508    1.1209   17.2131 S   0  0  0  0  0  0  0  0  0  0  0  0
   -5.5788   -0.0313   17.5830 O   0  0  0  0  0  0  0  0  0  0  0  0
   -5.3498    2.2865   18.7382 H   0  0  0  0  0  0  0  0  0  0  0  0
   -6.8468    1.7433   19.2264 H   0  0  0  0  0  0  0  0  0  0  0  0
   -3.9342    3.5910   12.2577 C   0  0  0  0  0  0  0  0  0  0  0  0
   -4.5243    3.2543   11.0420 C   0  0  0  0  0  0  0  0  0  0  0  0
   -2.2829    4.7732   10.9745 C   0  0  0  0  0  0  0  0  0  0  0  0
   -2.9465    4.3794    9.8314 C   0  0  0  0  0  0  0  0  0  0  0  0
   -2.7865    4.3754   12.1984 C   0  0  0  0  0  0  0  0  0  0  0  0
   -4.0510    3.6283    9.8445 N   0  0  0  0  0  0  0  0  0  0  0  0
 18 14  2  0  0  0
 18 16  1  0  0  0
 14 13  1  0  0  0
 16 15  2  0  0  0
 13 17  2  0  0  0
 13  5  1  0  0  0
 15 17  1  0  0  0
  5  3  2  0  0  0
  5  1  1  0  0  0
  3  4  1  0  0  0
  1  6  2  0  0  0
  4  2  2  0  0  0
  6  2  1  0  0  0
  2  9  1  0  0  0
  8  9  1  0  0  0
 10  9  2  0  0  0
  9  7  2  0  0  0
  8 11  1  0  0  0
  8 12  1  0  0  0
M  END
> <minimizedAffinity>
-6.78263

$$$$
5N25_8HK_A_302


 18 19  0  0  0  0  0  0  0  0999 V2000
   -3.1315    3.6969   14.9182 C   0  0  0  0  0  0  0  0  0  0  0  0
   -3.3036    5.4809   13.3329 C   0  0  0  0  0  0  0  0  0  0  0  0
   -5.2791    4.5707   14.3389 C   0  0  0  0  0  0  0  0  0  0  0  0
   -4.6850    5.4819   13.4758 C   0  0  0  0  0  0  0  0  0  0  0  0
   -4.5156    3.6472   15.0608 C   0  0  0  0  0  0  0  0  0  0  0  0
   -2.5227    4.6001   14.0656 C   0  0  0  0  0  0  0  0  0  0  0  0
   -3.5729    7.1315   11.3617 O   0  0  0  0  0  0  0  0  0  0  0  0
   -1.6622    5.6100   11.1590 N   0  0  0  0  0  0  0  0  0  0  0  0
   -2.5265    6.5313   12.1401 S   0  0  0  0  0  0  0  0  0  0  0  0
   -1.6119    7.3872   12.8411 O   0  0  0  0  0  0  0  0  0  0  0  0
   -0.9079    5.1679   11.6843 H   0  0  0  0  0  0  0  0  0  0  0  0
   -1.2669    6.1838   10.4141 H   0  0  0  0  0  0  0  0  0  0  0  0
   -5.1447    2.5823   15.8882 C   0  0  0  0  0  0  0  0  0  0  0  0
   -4.4373    1.4506   16.2861 C   0  0  0  0  0  0  0  0  0  0  0  0
   -7.0820    1.5479   16.8616 C   0  0  0  0  0  0  0  0  0  0  0  0
   -6.2872    0.4747   17.2061 C   0  0  0  0  0  0  0  0  0  0  0  0
   -6.5008    2.6119   16.1986 C   0  0  0  0  0  0  0  0  0  0  0  0
   -4.9825    0.4074   16.9284 N   0  0  0  0  0  0  0  0  0  0  0  0
 18 14  2  0  0  0
 18 16  1  0  0  0
 14 13  1  0  0  0
 16 15  2  0  0  0
 13 17  2  0  0  0
 13  5  1  0  0  0
 15 17  1  0  0  0
  5  3  2  0  0  0
  5  1  1  0  0  0
  3  4  1  0  0  0
  1  6  2  0  0  0
  4  2  2  0  0  0
  6  2  1  0  0  0
  2  9  1  0  0  0
  8  9  1  0  0  0
 10  9  2  0  0  0
  9  7  2  0  0  0
  8 11  1  0  0  0
  8 12  1  0  0  0
M  END
> <minimizedAffinity>
-6.61566

$$$$
5N25_8HK_A_302


 18 19  0  0  0  0  0  0  0  0999 V2000
   -2.0455    4.9640   14.3019 C   0  0  0  0  0  0  0  0  0  0  0  0
   -3.7573    3.4219   14.9477 C   0  0  0  0  0  0  0  0  0  0  0  0
   -4.3053    5.7133   14.5094 C   0  0  0  0  0  0  0  0  0  0  0  0
   -4.7065    4.4323   14.8646 C   0  0  0  0  0  0  0  0  0  0  0  0
   -2.9644    6.0083   14.2414 C   0  0  0  0  0  0  0  0  0  0  0  0
   -2.4281    3.6813   14.6508 C   0  0  0  0  0  0  0  0  0  0  0  0
   -4.7268    1.0873   14.4070 O   0  0  0  0  0  0  0  0  0  0  0  0
   -5.4024    1.9887   16.5836 N   0  0  0  0  0  0  0  0  0  0  0  0
   -4.2100    1.8145   15.5318 S   0  0  0  0  0  0  0  0  0  0  0  0
   -3.0861    1.2752   16.2432 O   0  0  0  0  0  0  0  0  0  0  0  0
   -5.0656    2.5035   17.3972 H   0  0  0  0  0  0  0  0  0  0  0  0
   -5.7345    1.0697   16.8763 H   0  0  0  0  0  0  0  0  0  0  0  0
   -2.5007    7.3992   13.9868 C   0  0  0  0  0  0  0  0  0  0  0  0
   -2.3120    7.8829   12.6946 C   0  0  0  0  0  0  0  0  0  0  0  0
   -1.5757    9.4788   14.7552 C   0  0  0  0  0  0  0  0  0  0  0  0
   -1.4307    9.8562   13.4366 C   0  0  0  0  0  0  0  0  0  0  0  0
   -2.1192    8.2382   15.0292 C   0  0  0  0  0  0  0  0  0  0  0  0
   -1.7851    9.0820   12.4074 N   0  0  0  0  0  0  0  0  0  0  0  0
 18 14  2  0  0  0
 18 16  1  0  0  0
 14 13  1  0  0  0
 16 15  2  0  0  0
 13 17  2  0  0  0
 13  5  1  0  0  0
 15 17  1  0  0  0
  5  3  2  0  0  0
  5  1  1  0  0  0
  3  4  1  0  0  0
  1  6  2  0  0  0
  4  2  2  0  0  0
  6  2  1  0  0  0
  2  9  1  0  0  0
  8  9  1  0  0  0
 10  9  2  0  0  0
  9  7  2  0  0  0
  8 11  1  0  0  0
  8 12  1  0  0  0
M  END
> <minimizedAffinity>
-6.56332

$$$$
5N25_8HK_A_302


 18 19  0  0  0  0  0  0  0  0999 V2000
   -5.0016    4.1658   13.9391 C   0  0  0  0  0  0  0  0  0  0  0  0
   -4.2626    4.1415   11.6634 C   0  0  0  0  0  0  0  0  0  0  0  0
   -4.7474    2.0842   12.7928 C   0  0  0  0  0  0  0  0  0  0  0  0
   -4.3451    2.7553   11.6457 C   0  0  0  0  0  0  0  0  0  0  0  0
   -5.0634    2.7751   13.9675 C   0  0  0  0  0  0  0  0  0  0  0  0
   -4.6062    4.8507   12.8042 C   0  0  0  0  0  0  0  0  0  0  0  0
   -4.0280    4.2972    9.0937 O   0  0  0  0  0  0  0  0  0  0  0  0
   -2.0241    4.9610   10.3388 N   0  0  0  0  0  0  0  0  0  0  0  0
   -3.6210    5.0178   10.2668 S   0  0  0  0  0  0  0  0  0  0  0  0
   -4.0075    6.3938   10.3987 O   0  0  0  0  0  0  0  0  0  0  0  0
   -1.7029    5.4661   11.1647 H   0  0  0  0  0  0  0  0  0  0  0  0
   -1.6305    5.3920    9.5023 H   0  0  0  0  0  0  0  0  0  0  0  0
   -5.3701    2.0656   15.2391 C   0  0  0  0  0  0  0  0  0  0  0  0
   -4.8132    0.8245   15.5376 C   0  0  0  0  0  0  0  0  0  0  0  0
   -6.6735    1.8111   17.2409 C   0  0  0  0  0  0  0  0  0  0  0  0
   -6.0603    0.5916   17.4380 C   0  0  0  0  0  0  0  0  0  0  0  0
   -6.3202    2.5541   16.1306 C   0  0  0  0  0  0  0  0  0  0  0  0
   -5.1433    0.0874   16.6079 N   0  0  0  0  0  0  0  0  0  0  0  0
 18 14  2  0  0  0
 18 16  1  0  0  0
 14 13  1  0  0  0
 16 15  2  0  0  0
 13 17  2  0  0  0
 13  5  1  0  0  0
 15 17  1  0  0  0
  5  3  2  0  0  0
  5  1  1  0  0  0
  3  4  1  0  0  0
  1  6  2  0  0  0
  4  2  2  0  0  0
  6  2  1  0  0  0
  2  9  1  0  0  0
  8  9  1  0  0  0
 10  9  2  0  0  0
  9  7  2  0  0  0
  8 11  1  0  0  0
  8 12  1  0  0  0
M  END
> <minimizedAffinity>
-6.51618

$$$$
5N25_8HK_A_302


 18 19  0  0  0  0  0  0  0  0999 V2000
   -4.4555    5.4239   14.2976 C   0  0  0  0  0  0  0  0  0  0  0  0
   -4.0473    3.1692   14.9867 C   0  0  0  0  0  0  0  0  0  0  0  0
   -2.2235    4.7073   14.7619 C   0  0  0  0  0  0  0  0  0  0  0  0
   -2.6878    3.4375   15.0781 C   0  0  0  0  0  0  0  0  0  0  0  0
   -3.0957    5.7188   14.3457 C   0  0  0  0  0  0  0  0  0  0  0  0
   -4.9359    4.1655   14.6124 C   0  0  0  0  0  0  0  0  0  0  0  0
   -5.9530    1.6496   15.8482 O   0  0  0  0  0  0  0  0  0  0  0  0
   -3.6970    0.8081   16.3056 N   0  0  0  0  0  0  0  0  0  0  0  0
   -4.6552    1.5281   15.2464 S   0  0  0  0  0  0  0  0  0  0  0  0
   -4.5350    0.8159   14.0060 O   0  0  0  0  0  0  0  0  0  0  0  0
   -2.7639    0.7069   15.9061 H   0  0  0  0  0  0  0  0  0  0  0  0
   -4.0718   -0.1132   16.5318 H   0  0  0  0  0  0  0  0  0  0  0  0
   -2.6002    7.0425   13.8804 C   0  0  0  0  0  0  0  0  0  0  0  0
   -2.1398    8.0070   14.7733 C   0  0  0  0  0  0  0  0  0  0  0  0
   -2.3354    8.7009   12.1627 C   0  0  0  0  0  0  0  0  0  0  0  0
   -1.8948    9.5776   13.1319 C   0  0  0  0  0  0  0  0  0  0  0  0
   -2.6881    7.4204   12.5441 C   0  0  0  0  0  0  0  0  0  0  0  0
   -1.7944    9.2547   14.4241 N   0  0  0  0  0  0  0  0  0  0  0  0
 18 14  2  0  0  0
 18 16  1  0  0  0
 14 13  1  0  0  0
 16 15  2  0  0  0
 13 17  2  0  0  0
 13  5  1  0  0  0
 15 17  1  0  0  0
  5  3  2  0  0  0
  5  1  1  0  0  0
  3  4  1  0  0  0
  1  6  2  0  0  0
  4  2  2  0  0  0
  6  2  1  0  0  0
  2  9  1  0  0  0
  8  9  1  0  0  0
 10  9  2  0  0  0
  9  7  2  0  0  0
  8 11  1  0  0  0
  8 12  1  0  0  0
M  END
> <minimizedAffinity>
-6.29098

$$$$
5N25_8HK_A_302


 18 19  0  0  0  0  0  0  0  0999 V2000
   -3.5593    4.6175   13.8004 C   0  0  0  0  0  0  0  0  0  0  0  0
   -3.6086    2.8914   12.1441 C   0  0  0  0  0  0  0  0  0  0  0  0
   -2.0512    4.7022   11.9484 C   0  0  0  0  0  0  0  0  0  0  0  0
   -2.5759    3.5148   11.4559 C   0  0  0  0  0  0  0  0  0  0  0  0
   -2.5466    5.2871   13.1187 C   0  0  0  0  0  0  0  0  0  0  0  0
   -4.0913    3.4321   13.3260 C   0  0  0  0  0  0  0  0  0  0  0  0
   -3.6403    1.0671   10.3128 O   0  0  0  0  0  0  0  0  0  0  0  0
   -5.8557    1.8757   10.9798 N   0  0  0  0  0  0  0  0  0  0  0  0
   -4.3931    1.4552   11.4721 S   0  0  0  0  0  0  0  0  0  0  0  0
   -4.5555    0.5068   12.5372 O   0  0  0  0  0  0  0  0  0  0  0  0
   -6.4170    2.1577   11.7834 H   0  0  0  0  0  0  0  0  0  0  0  0
   -6.2996    1.0829   10.5164 H   0  0  0  0  0  0  0  0  0  0  0  0
   -2.0846    6.6216   13.5876 C   0  0  0  0  0  0  0  0  0  0  0  0
   -1.0162    7.2802   12.9839 C   0  0  0  0  0  0  0  0  0  0  0  0
   -2.0865    8.3952   15.2079 C   0  0  0  0  0  0  0  0  0  0  0  0
   -1.0252    8.9604   14.5324 C   0  0  0  0  0  0  0  0  0  0  0  0
   -2.6208    7.2154   14.7261 C   0  0  0  0  0  0  0  0  0  0  0  0
   -0.4824    8.4240   13.4361 N   0  0  0  0  0  0  0  0  0  0  0  0
 18 14  2  0  0  0
 18 16  1  0  0  0
 14 13  1  0  0  0
 16 15  2  0  0  0
 13 17  2  0  0  0
 13  5  1  0  0  0
 15 17  1  0  0  0
  5  3  2  0  0  0
  5  1  1  0  0  0
  3  4  1  0  0  0
  1  6  2  0  0  0
  4  2  2  0  0  0
  6  2  1  0  0  0
  2  9  1  0  0  0
  8  9  1  0  0  0
 10  9  2  0  0  0
  9  7  2  0  0  0
  8 11  1  0  0  0
  8 12  1  0  0  0
M  END
> <minimizedAffinity>
-6.06367

$$$$
