4CL6_7SB_A_501


 21 23  0  0  0  0  0  0  0  0999 V2000
  -37.0287   54.3928    7.1182 N   0  0  0  0  0  0  0  0  0  0  0  0
  -38.4599   55.0902    8.5961 N   0  0  0  0  0  0  0  0  0  0  0  0
  -37.7040   55.2610    6.5584 N   0  0  0  0  0  0  0  0  0  0  0  0
  -37.4817   54.2150    8.3510 C   0  0  0  0  0  0  0  0  0  0  0  0
  -38.5998   55.7360    7.4172 C   0  0  0  0  0  0  0  0  0  0  0  0
  -36.2731   53.9089    6.7131 H   0  0  0  0  0  0  0  0  0  0  0  0
  -35.6671   52.4741   10.6636 C   0  0  0  0  0  0  0  0  0  0  0  0
  -36.5456   51.5410   10.3422 C   0  0  0  0  0  0  0  0  0  0  0  0
  -35.9127   53.5702    9.9776 C   0  0  0  0  0  0  0  0  0  0  0  0
  -37.3861   52.1288    9.3725 O   0  0  0  0  0  0  0  0  0  0  0  0
  -36.9698   53.3546    9.2191 C   0  0  0  0  0  0  0  0  0  0  0  0
  -39.4633   56.7326    7.1268 N   0  0  0  0  0  0  0  0  0  0  0  0
  -40.4229   56.5275    7.0467 H   0  0  0  0  0  0  0  0  0  0  0  0
  -39.0024   58.1319    6.9248 C   0  0  0  0  0  0  0  0  0  0  0  0
  -37.4020   59.5932    1.2287 Cl  0  0  0  0  0  0  0  0  0  0  0  0
  -37.0463   59.2516    4.0160 C   0  0  0  0  0  0  0  0  0  0  0  0
  -39.2607   58.7043    3.2479 C   0  0  0  0  0  0  0  0  0  0  0  0
  -37.4163   58.9084    5.3134 C   0  0  0  0  0  0  0  0  0  0  0  0
  -39.6411   58.3612    4.5596 C   0  0  0  0  0  0  0  0  0  0  0  0
  -37.9621   59.1460    2.9603 C   0  0  0  0  0  0  0  0  0  0  0  0
  -38.7079   58.4707    5.6042 C   0  0  0  0  0  0  0  0  0  0  0  0
 15 20  1  0  0  0
  9  7  1  0  0  0
  7  8  2  0  0  0
 10  8  1  0  0  0
  9 11  2  0  0  0
 20 16  2  0  0  0
 16 18  1  0  0  0
 20 17  1  0  0  0
 17 19  2  0  0  0
 18 21  2  0  0  0
 19 21  1  0  0  0
 21 14  1  0  0  0
 14 12  1  0  0  0
  3  1  1  0  0  0
  4  1  1  0  0  0
  5  2  1  0  0  0
  2  4  2  0  0  0
 12  5  1  0  0  0
  5  3  2  0  0  0
 11 10  1  0  0  0
  4 11  1  0  0  0
  1  6  1  0  0  0
 12 13  1  0  0  0
M  END
> <minimizedAffinity>
-9.87508

$$$$
4CL6_7SB_A_501


 21 23  0  0  0  0  0  0  0  0999 V2000
  -37.0172   54.4601    7.0988 N   0  0  0  0  0  0  0  0  0  0  0  0
  -38.5011   55.1020    8.5497 N   0  0  0  0  0  0  0  0  0  0  0  0
  -37.7063   55.3117    6.5304 N   0  0  0  0  0  0  0  0  0  0  0  0
  -37.4914   54.2589    8.3200 C   0  0  0  0  0  0  0  0  0  0  0  0
  -38.6348   55.7525    7.3726 C   0  0  0  0  0  0  0  0  0  0  0  0
  -36.2385   54.0026    6.7070 H   0  0  0  0  0  0  0  0  0  0  0  0
  -35.6599   52.5438   10.6384 C   0  0  0  0  0  0  0  0  0  0  0  0
  -36.5374   51.6054   10.3299 C   0  0  0  0  0  0  0  0  0  0  0  0
  -35.9121   53.6330    9.9439 C   0  0  0  0  0  0  0  0  0  0  0  0
  -37.3845   52.1822    9.3594 O   0  0  0  0  0  0  0  0  0  0  0  0
  -36.9725   53.4077    9.1929 C   0  0  0  0  0  0  0  0  0  0  0  0
  -39.5218   56.7246    7.0703 N   0  0  0  0  0  0  0  0  0  0  0  0
  -40.4722   56.4906    6.9645 H   0  0  0  0  0  0  0  0  0  0  0  0
  -39.1003   58.1396    6.8930 C   0  0  0  0  0  0  0  0  0  0  0  0
  -37.4925   59.6050    1.2000 Cl  0  0  0  0  0  0  0  0  0  0  0  0
  -39.2223   58.7308    3.2630 C   0  0  0  0  0  0  0  0  0  0  0  0
  -36.9878   59.2171    4.0137 C   0  0  0  0  0  0  0  0  0  0  0  0
  -39.5849   58.4054    4.5671 C   0  0  0  0  0  0  0  0  0  0  0  0
  -37.3485   58.8836    5.3335 C   0  0  0  0  0  0  0  0  0  0  0  0
  -37.9183   59.1509    2.9677 C   0  0  0  0  0  0  0  0  0  0  0  0
  -38.6617   58.4677    5.6103 C   0  0  0  0  0  0  0  0  0  0  0  0
 15 20  1  0  0  0
  9  7  1  0  0  0
  7  8  2  0  0  0
 10  8  1  0  0  0
  9 11  2  0  0  0
 20 16  2  0  0  0
 16 18  1  0  0  0
 20 17  1  0  0  0
 17 19  2  0  0  0
 18 21  2  0  0  0
 19 21  1  0  0  0
 21 14  1  0  0  0
 14 12  1  0  0  0
  3  1  1  0  0  0
  4  1  1  0  0  0
  5  2  1  0  0  0
  2  4  2  0  0  0
 12  5  1  0  0  0
  5  3  2  0  0  0
 11 10  1  0  0  0
  4 11  1  0  0  0
  1  6  1  0  0  0
 12 13  1  0  0  0
M  END
> <minimizedAffinity>
-9.87268

$$$$
4CL6_7SB_A_501


 21 23  0  0  0  0  0  0  0  0999 V2000
  -39.1305   55.4099    8.4988 N   0  0  0  0  0  0  0  0  0  0  0  0
  -37.3480   55.8602    7.3418 N   0  0  0  0  0  0  0  0  0  0  0  0
  -39.3687   56.4611    7.8975 N   0  0  0  0  0  0  0  0  0  0  0  0
  -37.8904   55.0259    8.2321 C   0  0  0  0  0  0  0  0  0  0  0  0
  -38.3126   56.7894    7.1609 C   0  0  0  0  0  0  0  0  0  0  0  0
  -39.7619   54.9323    9.0840 H   0  0  0  0  0  0  0  0  0  0  0  0
  -35.8432   52.5443    9.3818 C   0  0  0  0  0  0  0  0  0  0  0  0
  -36.9906   51.8891    9.3907 C   0  0  0  0  0  0  0  0  0  0  0  0
  -36.0391   53.7771    8.9645 C   0  0  0  0  0  0  0  0  0  0  0  0
  -37.9567   52.8095    8.9306 O   0  0  0  0  0  0  0  0  0  0  0  0
  -37.3257   53.9304    8.7187 C   0  0  0  0  0  0  0  0  0  0  0  0
  -38.2707   57.8655    6.3464 N   0  0  0  0  0  0  0  0  0  0  0  0
  -39.0961   58.3774    6.1853 H   0  0  0  0  0  0  0  0  0  0  0  0
  -37.0101   58.2975    5.6865 C   0  0  0  0  0  0  0  0  0  0  0  0
  -37.8158   59.9621   -0.1206 Cl  0  0  0  0  0  0  0  0  0  0  0  0
  -38.5360   59.5680    2.5883 C   0  0  0  0  0  0  0  0  0  0  0  0
  -36.2962   58.8569    2.0683 C   0  0  0  0  0  0  0  0  0  0  0  0
  -38.3424   59.1931    3.9149 C   0  0  0  0  0  0  0  0  0  0  0  0
  -36.0975   58.4711    3.4080 C   0  0  0  0  0  0  0  0  0  0  0  0
  -37.5108   59.4135    1.6452 C   0  0  0  0  0  0  0  0  0  0  0  0
  -37.1362   58.6369    4.3395 C   0  0  0  0  0  0  0  0  0  0  0  0
 15 20  1  0  0  0
  9  7  1  0  0  0
  7  8  2  0  0  0
 10  8  1  0  0  0
  9 11  2  0  0  0
 20 16  2  0  0  0
 16 18  1  0  0  0
 20 17  1  0  0  0
 17 19  2  0  0  0
 18 21  2  0  0  0
 19 21  1  0  0  0
 21 14  1  0  0  0
 14 12  1  0  0  0
  3  1  1  0  0  0
  4  1  1  0  0  0
  5  2  1  0  0  0
  2  4  2  0  0  0
 12  5  1  0  0  0
  5  3  2  0  0  0
 11 10  1  0  0  0
  4 11  1  0  0  0
  1  6  1  0  0  0
 12 13  1  0  0  0
M  END
> <minimizedAffinity>
-9.37891

$$$$
4CL6_7SB_A_501


 21 23  0  0  0  0  0  0  0  0999 V2000
  -36.4950   59.0116    5.3793 N   0  0  0  0  0  0  0  0  0  0  0  0
  -38.5940   58.4990    5.1550 N   0  0  0  0  0  0  0  0  0  0  0  0
  -36.9112   58.7666    6.5150 N   0  0  0  0  0  0  0  0  0  0  0  0
  -37.4958   58.9102    4.5163 C   0  0  0  0  0  0  0  0  0  0  0  0
  -38.1966   58.4371    6.4453 C   0  0  0  0  0  0  0  0  0  0  0  0
  -35.5664   59.2454    5.1506 H   0  0  0  0  0  0  0  0  0  0  0  0
  -37.8348   59.6845    1.2062 C   0  0  0  0  0  0  0  0  0  0  0  0
  -36.7017   59.0074    1.1472 C   0  0  0  0  0  0  0  0  0  0  0  0
  -38.2559   59.7375    2.4521 C   0  0  0  0  0  0  0  0  0  0  0  0
  -36.4249   58.6143    2.4742 O   0  0  0  0  0  0  0  0  0  0  0  0
  -37.3807   59.1071    3.2111 C   0  0  0  0  0  0  0  0  0  0  0  0
  -38.9358   58.0673    7.5130 N   0  0  0  0  0  0  0  0  0  0  0  0
  -39.1693   58.7415    8.1913 H   0  0  0  0  0  0  0  0  0  0  0  0
  -39.4064   56.6679    7.6908 C   0  0  0  0  0  0  0  0  0  0  0  0
  -35.0944   52.6441    9.2266 Cl  0  0  0  0  0  0  0  0  0  0  0  0
  -36.9429   54.7482    9.6369 C   0  0  0  0  0  0  0  0  0  0  0  0
  -36.8758   53.9464    7.3685 C   0  0  0  0  0  0  0  0  0  0  0  0
  -37.9334   55.6593    9.2810 C   0  0  0  0  0  0  0  0  0  0  0  0
  -37.8737   54.8702    7.0025 C   0  0  0  0  0  0  0  0  0  0  0  0
  -36.4045   53.8703    8.6862 C   0  0  0  0  0  0  0  0  0  0  0  0
  -38.4034   55.7399    7.9706 C   0  0  0  0  0  0  0  0  0  0  0  0
 15 20  1  0  0  0
  9  7  1  0  0  0
  7  8  2  0  0  0
 10  8  1  0  0  0
  9 11  2  0  0  0
 20 16  2  0  0  0
 16 18  1  0  0  0
 20 17  1  0  0  0
 17 19  2  0  0  0
 18 21  2  0  0  0
 19 21  1  0  0  0
 21 14  1  0  0  0
 14 12  1  0  0  0
  3  1  1  0  0  0
  4  1  1  0  0  0
  5  2  1  0  0  0
  2  4  2  0  0  0
 12  5  1  0  0  0
  5  3  2  0  0  0
 11 10  1  0  0  0
  4 11  1  0  0  0
  1  6  1  0  0  0
 12 13  1  0  0  0
M  END
> <minimizedAffinity>
-9.37588

$$$$
4CL6_7SB_A_501


 21 23  0  0  0  0  0  0  0  0999 V2000
  -36.5202   59.2053    5.5525 N   0  0  0  0  0  0  0  0  0  0  0  0
  -38.4203   58.1695    5.3634 N   0  0  0  0  0  0  0  0  0  0  0  0
  -36.8412   58.8668    6.6950 N   0  0  0  0  0  0  0  0  0  0  0  0
  -37.4750   58.8461    4.7063 C   0  0  0  0  0  0  0  0  0  0  0  0
  -37.9997   58.2178    6.6468 C   0  0  0  0  0  0  0  0  0  0  0  0
  -35.6866   59.6688    5.3082 H   0  0  0  0  0  0  0  0  0  0  0  0
  -38.0218   59.6189    1.4238 C   0  0  0  0  0  0  0  0  0  0  0  0
  -36.8488   59.0223    1.3051 C   0  0  0  0  0  0  0  0  0  0  0  0
  -38.3864   59.6336    2.6883 C   0  0  0  0  0  0  0  0  0  0  0  0
  -36.4835   58.6397    2.6137 O   0  0  0  0  0  0  0  0  0  0  0  0
  -37.4352   59.0599    3.3992 C   0  0  0  0  0  0  0  0  0  0  0  0
  -38.6019   57.6754    7.7269 N   0  0  0  0  0  0  0  0  0  0  0  0
  -38.6931   58.2140    8.5460 H   0  0  0  0  0  0  0  0  0  0  0  0
  -39.1308   56.2857    7.7111 C   0  0  0  0  0  0  0  0  0  0  0  0
  -35.2326   51.9047    9.3703 Cl  0  0  0  0  0  0  0  0  0  0  0  0
  -37.1722   53.1706    7.7431 C   0  0  0  0  0  0  0  0  0  0  0  0
  -36.6091   54.4149    9.7249 C   0  0  0  0  0  0  0  0  0  0  0  0
  -38.0549   54.1789    7.3661 C   0  0  0  0  0  0  0  0  0  0  0  0
  -37.5050   55.4349    9.3504 C   0  0  0  0  0  0  0  0  0  0  0  0
  -36.4281   53.2778    8.9260 C   0  0  0  0  0  0  0  0  0  0  0  0
  -38.2397   55.3108    8.1593 C   0  0  0  0  0  0  0  0  0  0  0  0
 15 20  1  0  0  0
  9  7  1  0  0  0
  7  8  2  0  0  0
 10  8  1  0  0  0
  9 11  2  0  0  0
 20 16  2  0  0  0
 16 18  1  0  0  0
 20 17  1  0  0  0
 17 19  2  0  0  0
 18 21  2  0  0  0
 19 21  1  0  0  0
 21 14  1  0  0  0
 14 12  1  0  0  0
  3  1  1  0  0  0
  4  1  1  0  0  0
  5  2  1  0  0  0
  2  4  2  0  0  0
 12  5  1  0  0  0
  5  3  2  0  0  0
 11 10  1  0  0  0
  4 11  1  0  0  0
  1  6  1  0  0  0
 12 13  1  0  0  0
M  END
> <minimizedAffinity>
-9.00833

$$$$
4CL6_7SB_A_501


 21 23  0  0  0  0  0  0  0  0999 V2000
  -39.5970   58.0754    4.6102 N   0  0  0  0  0  0  0  0  0  0  0  0
  -37.5507   57.9405    5.3267 N   0  0  0  0  0  0  0  0  0  0  0  0
  -39.6675   57.6746    5.7754 N   0  0  0  0  0  0  0  0  0  0  0  0
  -38.3227   58.2072    4.2703 C   0  0  0  0  0  0  0  0  0  0  0  0
  -38.4408   57.5768    6.2765 C   0  0  0  0  0  0  0  0  0  0  0  0
  -40.3657   58.2669    4.0257 H   0  0  0  0  0  0  0  0  0  0  0  0
  -37.8267   59.6561    1.2165 C   0  0  0  0  0  0  0  0  0  0  0  0
  -36.8282   58.7909    1.2017 C   0  0  0  0  0  0  0  0  0  0  0  0
  -38.4883   59.5511    2.3495 C   0  0  0  0  0  0  0  0  0  0  0  0
  -36.9042   58.1025    2.4315 O   0  0  0  0  0  0  0  0  0  0  0  0
  -37.9043   58.6247    3.0845 C   0  0  0  0  0  0  0  0  0  0  0  0
  -38.1765   57.2085    7.5484 N   0  0  0  0  0  0  0  0  0  0  0  0
  -37.5159   57.7206    8.0685 H   0  0  0  0  0  0  0  0  0  0  0  0
  -38.8574   56.0492    8.1837 C   0  0  0  0  0  0  0  0  0  0  0  0
  -35.2701   51.2391    9.2501 Cl  0  0  0  0  0  0  0  0  0  0  0  0
  -37.2728   52.7381    7.9254 C   0  0  0  0  0  0  0  0  0  0  0  0
  -36.2935   53.8786    9.8051 C   0  0  0  0  0  0  0  0  0  0  0  0
  -38.0835   53.8434    7.6826 C   0  0  0  0  0  0  0  0  0  0  0  0
  -37.1155   54.9969    9.5668 C   0  0  0  0  0  0  0  0  0  0  0  0
  -36.3576   52.7425    8.9869 C   0  0  0  0  0  0  0  0  0  0  0  0
  -38.0245   54.9748    8.4957 C   0  0  0  0  0  0  0  0  0  0  0  0
 15 20  1  0  0  0
  9  7  1  0  0  0
  7  8  2  0  0  0
 10  8  1  0  0  0
  9 11  2  0  0  0
 20 16  2  0  0  0
 16 18  1  0  0  0
 20 17  1  0  0  0
 17 19  2  0  0  0
 18 21  2  0  0  0
 19 21  1  0  0  0
 21 14  1  0  0  0
 14 12  1  0  0  0
  3  1  1  0  0  0
  4  1  1  0  0  0
  5  2  1  0  0  0
  2  4  2  0  0  0
 12  5  1  0  0  0
  5  3  2  0  0  0
 11 10  1  0  0  0
  4 11  1  0  0  0
  1  6  1  0  0  0
 12 13  1  0  0  0
M  END
> <minimizedAffinity>
-8.78072

$$$$
4CL6_7SB_A_501


 21 23  0  0  0  0  0  0  0  0999 V2000
  -39.2294   57.9914    6.6412 N   0  0  0  0  0  0  0  0  0  0  0  0
  -38.0251   56.2074    6.3481 N   0  0  0  0  0  0  0  0  0  0  0  0
  -39.5893   57.1889    7.5070 N   0  0  0  0  0  0  0  0  0  0  0  0
  -38.3090   57.4234    5.8751 C   0  0  0  0  0  0  0  0  0  0  0  0
  -38.8807   56.0714    7.3854 C   0  0  0  0  0  0  0  0  0  0  0  0
  -39.5717   58.9084    6.5362 H   0  0  0  0  0  0  0  0  0  0  0  0
  -37.3535   59.3389    3.2125 C   0  0  0  0  0  0  0  0  0  0  0  0
  -36.3531   58.4757    3.2183 C   0  0  0  0  0  0  0  0  0  0  0  0
  -38.1855   59.0607    4.1937 C   0  0  0  0  0  0  0  0  0  0  0  0
  -36.6143   57.5993    4.2935 O   0  0  0  0  0  0  0  0  0  0  0  0
  -37.7130   58.0214    4.8539 C   0  0  0  0  0  0  0  0  0  0  0  0
  -39.0018   55.0118    8.2136 N   0  0  0  0  0  0  0  0  0  0  0  0
  -39.4827   55.1217    9.0656 H   0  0  0  0  0  0  0  0  0  0  0  0
  -38.4275   53.6834    7.8722 C   0  0  0  0  0  0  0  0  0  0  0  0
  -33.4984   51.8213   10.9349 Cl  0  0  0  0  0  0  0  0  0  0  0  0
  -35.7607   51.5574    9.2541 C   0  0  0  0  0  0  0  0  0  0  0  0
  -35.4353   53.7882   10.0970 C   0  0  0  0  0  0  0  0  0  0  0  0
  -36.8809   51.9913    8.5507 C   0  0  0  0  0  0  0  0  0  0  0  0
  -36.5710   54.2306    9.3915 C   0  0  0  0  0  0  0  0  0  0  0  0
  -35.0145   52.4530   10.0322 C   0  0  0  0  0  0  0  0  0  0  0  0
  -37.3043   53.3184    8.6142 C   0  0  0  0  0  0  0  0  0  0  0  0
 15 20  1  0  0  0
  9  7  1  0  0  0
  7  8  2  0  0  0
 10  8  1  0  0  0
  9 11  2  0  0  0
 20 16  2  0  0  0
 16 18  1  0  0  0
 20 17  1  0  0  0
 17 19  2  0  0  0
 18 21  2  0  0  0
 19 21  1  0  0  0
 21 14  1  0  0  0
 14 12  1  0  0  0
  3  1  1  0  0  0
  4  1  1  0  0  0
  5  2  1  0  0  0
  2  4  2  0  0  0
 12  5  1  0  0  0
  5  3  2  0  0  0
 11 10  1  0  0  0
  4 11  1  0  0  0
  1  6  1  0  0  0
 12 13  1  0  0  0
M  END
> <minimizedAffinity>
-7.63224

$$$$
4CL6_7SB_A_501


 21 23  0  0  0  0  0  0  0  0999 V2000
  -38.5496   57.8331    7.5641 N   0  0  0  0  0  0  0  0  0  0  0  0
  -37.9978   55.9020    6.7361 N   0  0  0  0  0  0  0  0  0  0  0  0
  -39.0341   56.9854    8.3190 N   0  0  0  0  0  0  0  0  0  0  0  0
  -37.9469   57.2238    6.5530 C   0  0  0  0  0  0  0  0  0  0  0  0
  -38.7243   55.7743    7.8685 C   0  0  0  0  0  0  0  0  0  0  0  0
  -38.6024   58.8077    7.6926 H   0  0  0  0  0  0  0  0  0  0  0  0
  -36.9682   59.0532    3.8389 C   0  0  0  0  0  0  0  0  0  0  0  0
  -35.8170   58.4709    4.1242 C   0  0  0  0  0  0  0  0  0  0  0  0
  -37.8848   58.6718    4.7031 C   0  0  0  0  0  0  0  0  0  0  0  0
  -36.0696   57.6640    5.2544 O   0  0  0  0  0  0  0  0  0  0  0  0
  -37.3211   57.8508    5.5677 C   0  0  0  0  0  0  0  0  0  0  0  0
  -39.0670   54.6293    8.4968 N   0  0  0  0  0  0  0  0  0  0  0  0
  -39.6942   54.6674    9.2547 H   0  0  0  0  0  0  0  0  0  0  0  0
  -38.5217   53.3122    8.0735 C   0  0  0  0  0  0  0  0  0  0  0  0
  -33.2868   51.9954   10.9027 Cl  0  0  0  0  0  0  0  0  0  0  0  0
  -35.4295   53.6328   10.0424 C   0  0  0  0  0  0  0  0  0  0  0  0
  -35.5807   51.3569    9.2741 C   0  0  0  0  0  0  0  0  0  0  0  0
  -36.6299   53.9246    9.4007 C   0  0  0  0  0  0  0  0  0  0  0  0
  -36.7925   51.6488    8.6186 C   0  0  0  0  0  0  0  0  0  0  0  0
  -34.8905   52.3399    9.9962 C   0  0  0  0  0  0  0  0  0  0  0  0
  -37.3187   52.9501    8.6792 C   0  0  0  0  0  0  0  0  0  0  0  0
 15 20  1  0  0  0
  9  7  1  0  0  0
  7  8  2  0  0  0
 10  8  1  0  0  0
  9 11  2  0  0  0
 20 16  2  0  0  0
 16 18  1  0  0  0
 20 17  1  0  0  0
 17 19  2  0  0  0
 18 21  2  0  0  0
 19 21  1  0  0  0
 21 14  1  0  0  0
 14 12  1  0  0  0
  3  1  1  0  0  0
  4  1  1  0  0  0
  5  2  1  0  0  0
  2  4  2  0  0  0
 12  5  1  0  0  0
  5  3  2  0  0  0
 11 10  1  0  0  0
  4 11  1  0  0  0
  1  6  1  0  0  0
 12 13  1  0  0  0
M  END
> <minimizedAffinity>
-7.31208

$$$$
