5T9W_78E_A_300
  RCSB PDB12061719333D
Coordinates from PDB:5T9W:A:300 Model:1 without hydrogens
 40 42  0  0  0  0            999 V2000
    5.7200  -19.6850   -0.8560   N 0  0  0  0  0  0  0  0  0  0  0  0
    6.3350  -19.4910    1.9960   C 0  0  0  0  0  0  0  0  0  0  0  0
    6.4590  -20.6720   -0.1620   N 0  0  0  0  0  0  0  0  0  0  0  0
    4.8180  -18.9000    0.0130   C 0  0  0  0  0  0  0  0  0  0  0  0
    4.2100  -17.7040   -0.7240   C 0  0  0  0  0  0  0  0  0  0  0  0
    2.1980  -16.3480   -0.7880   C 0  0  0  0  0  0  0  0  0  0  0  0
    1.6340  -17.7640   -2.8160   C 0  0  0  0  0  0  0  0  0  0  0  0
    5.0170  -25.0320   -5.5030   C 0  0  0  0  0  0  0  0  0  0  0  0
    2.0630  -16.3990   -2.3230   C 0  0  0  0  0  0  0  0  0  0  0  0
    2.3090  -18.4560   -3.7480   C 0  0  0  0  0  0  0  0  0  0  0  0
    5.5200  -18.3870    1.3080   C 0  0  0  0  0  0  0  0  0  0  0  0
    7.2570  -20.1730    0.9690   C 0  0  0  0  0  0  0  0  0  0  0  0
    1.8800  -19.7560   -4.2050   C 0  0  0  0  0  0  0  0  0  0  0  0
    2.9670  -17.4300   -0.2670   O 0  0  0  0  0  0  0  0  0  0  0  0
    2.5480  -20.4630   -5.1280   C 0  0  0  0  0  0  0  0  0  0  0  0
    4.8000  -17.0850   -1.6010   O 0  0  0  0  0  0  0  0  0  0  0  0
    4.6730  -25.6070   -4.4720   O 0  0  0  0  0  0  0  0  0  0  0  0
    2.1010  -21.8230   -5.6100   C 0  0  0  0  0  0  0  0  0  0  0  0
    3.3010  -22.7440   -5.8280   C 0  0  0  0  0  0  0  0  0  0  0  0
    2.9550  -24.0210   -6.6090   C 0  0  0  0  0  0  0  0  0  0  0  0
    4.0960  -25.0550   -6.7220   C 0  0  0  0  0  0  0  0  0  0  0  0
    6.1770  -24.3700   -5.6350   N 0  0  0  0  0  0  0  0  0  0  0  0
    7.1920  -24.1830   -4.5980   C 0  0  0  0  0  0  0  0  0  0  0  0
    6.7400  -22.9790   -3.7630   C 0  0  0  0  0  0  0  0  0  0  0  0
    6.9930  -21.8300   -4.1270   O 0  0  0  0  0  0  0  0  0  0  0  0
    8.6730  -24.2360   -5.0610   C 0  0  0  0  0  0  0  0  0  0  0  0
    9.0170  -25.3600   -6.0540   C 0  0  0  0  0  0  0  0  0  0  0  0
    9.6060  -24.2960   -3.8310   C 0  0  0  0  0  0  0  0  0  0  0  0
    6.0390  -23.2580   -2.6690   N 0  0  0  0  0  0  0  0  0  0  0  0
    5.4560  -22.2940   -1.7550   C 0  0  0  0  0  0  0  0  0  0  0  0
    4.1610  -22.9980   -1.2720   C 0  0  0  0  0  0  0  0  0  0  0  0
    3.3120  -22.1710   -0.3160   C 0  0  0  0  0  0  0  0  0  0  0  0
    2.3730  -21.2320   -0.8060   C 0  0  0  0  0  0  0  0  0  0  0  0
    1.5910  -20.4700    0.0930   C 0  0  0  0  0  0  0  0  0  0  0  0
    3.4580  -22.3550    1.0710   C 0  0  0  0  0  0  0  0  0  0  0  0
    2.6900  -21.5940    1.9700   C 0  0  0  0  0  0  0  0  0  0  0  0
    1.7530  -20.6560    1.4820   C 0  0  0  0  0  0  0  0  0  0  0  0
    2.8590  -21.7830    3.3110   O 0  0  0  0  0  0  0  0  0  0  0  0
    6.3680  -21.9620   -0.5510   C 0  0  0  0  0  0  0  0  0  0  0  0
    6.9730  -22.8560    0.0270   O 0  0  0  0  0  0  0  0  0  0  0  0
 21 20  1  0  0  0  0
 21  8  1  0  0  0  0
 20 19  1  0  0  0  0
 27 26  1  0  0  0  0
 19 18  1  0  0  0  0
 22  8  1  0  0  0  0
 22 23  1  0  0  0  0
 18 15  1  0  0  0  0
  8 17  2  0  0  0  0
 15 13  2  0  0  0  0
 26 23  1  0  0  0  0
 26 28  1  0  0  0  0
 23 24  1  0  0  0  0
 13 10  1  0  0  0  0
 25 24  2  0  0  0  0
 24 29  1  0  0  0  0
 10  7  2  0  0  0  0
  7  9  1  0  0  0  0
 29 30  1  0  0  0  0
  9  6  1  0  0  0  0
 30 31  1  0  0  0  0
 30 39  1  0  0  0  0
 16  5  2  0  0  0  0
 31 32  1  0  0  0  0
  1  3  1  0  0  0  0
  1  4  1  0  0  0  0
 33 32  2  0  0  0  0
 33 34  1  0  0  0  0
  6 14  1  0  0  0  0
  5 14  1  0  0  0  0
  5  4  1  0  0  0  0
 39  3  1  0  0  0  0
 39 40  2  0  0  0  0
 32 35  1  0  0  0  0
  3 12  1  0  0  0  0
  4 11  1  0  0  0  0
 34 37  2  0  0  0  0
 12  2  1  0  0  0  0
 35 36  2  0  0  0  0
 11  2  1  0  0  0  0
 37 36  1  0  0  0  0
 36 38  1  0  0  0  0
A    1
N2
A    2
C2
A    3
N1
A    4
C4
A    5
C5
A    6
C16
A    7
C18
A    8
C15
A    9
C17
A   10
C19
A   11
C1
A   12
C3
A   13
C20
A   14
O1
A   15
C21
A   16
O2
A   17
O5
A   18
C22
A   19
C23
A   20
C29
A   21
C30
A   22
N4
A   23
C10
A   24
C9
A   25
O4
A   26
C11
A   27
C13
A   28
C12
A   29
N3
A   30
C7
A   31
C8
A   32
C14
A   33
C28
A   34
C27
A   35
C24
A   36
C25
A   37
C26
A   38
O6
A   39
C6
A   40
O3
M  END
>  <InstanceId>
5T9W_78E_A_300

>  <ChemCompId>
78E

>  <PdbId>
5T9W

>  <ChainId>
A

>  <ResidueNumber>
300

>  <InsertionCode>


>  <Model>
1

>  <AltIds>


>  <MissingHeavyAtoms>
0

>  <ObservedFormula>
C30 N4 O6

>  <Name>
3-[(3-hydroxyphenyl)methyl]-6-(propan-2-yl)-19-oxa-1,4,7,25-tetraazabicyclo[19.3.1]pentacosa-13,15-diene-2,5,8,20-tetrone

>  <SystematicName>
(3S,6S,13E,15E,21S)-3-[(3-hydroxyphenyl)methyl]-6-propan-2-yl-19-oxa-1,4,7,25-tetrazabicyclo[19.3.1]pentacosa-13,15-diene-2,5,8,20-tetrone

>  <Synonyms>


>  <Type>
peptide-like

>  <Formula>
C30 H42 N4 O6

>  <MolecularWeight>
554.678

>  <ModifiedDate>
2017-01-20

>  <Parent>


>  <OneLetterCode>


>  <SubcomponentList>
78D VAL MTY

>  <AmbiguousFlag>
N

>  <InChI>
InChI=1S/C30H42N4O6/c1-21(2)27-28(37)31-25(20-22-13-11-14-23(35)19-22)29(38)34-17-12-15-24(33-34)30(39)40-18-10-8-6-4-3-5-7-9-16-26(36)32-27/h3-4,6,8,11,13-14,19,21,24-25,27,33,35H,5,7,9-10,12,15-18,20H2,1-2H3,(H,31,37)(H,32,36)/b4-3+,8-6+/t24-,25-,27-/m0/s1

>  <InChIKey>
ZXIFDXMZMTULOX-WDJUPVIMSA-N

>  <SMILES>
CC(C)[C@H]1C(=O)N[C@H](C(=O)N2CCC[C@H](N2)C(=O)OCC/C=C/C=C/CCCCC(=O)N1)Cc3cccc(c3)O

$$$$
