6FMJ_DV5_C_301
  RCSB PDB04141810343D
Coordinates from PDB:6FMJ:C:301 Model:1 without hydrogens
 30 32  0  0  0  0            999 V2000
   10.6630   54.4820   95.8830   C 0  0  0  0  0  0  0  0  0  0  0  0
   11.6320   54.5530   94.7000   C 0  0  0  0  0  0  0  0  0  0  0  0
   11.9780   55.6390   94.2370   O 0  0  0  0  0  0  0  0  0  0  0  0
   12.0270   53.3630   94.2260   N 0  0  0  0  0  0  0  0  0  0  0  0
   12.9570   53.2560   93.0900   C 0  0  0  0  0  0  0  0  0  0  0  0
   13.4950   51.8220   93.0310   C 0  0  0  0  0  0  0  0  0  0  0  0
   12.2760   53.5580   91.7340   C 0  0  0  0  0  0  0  0  0  0  0  0
   10.6900   53.1310   91.5710   S 0  0  0  0  0  0  0  0  0  0  0  0
   12.9880   54.0720   90.7060   N 0  0  0  0  0  0  0  0  0  0  0  0
   14.4130   54.5020   90.7790   C 0  0  0  0  0  0  0  0  0  0  0  0
   14.6260   55.4320   89.6070   C 0  0  0  0  0  0  0  0  0  0  0  0
   14.2200   56.7550   89.9530   O 0  0  0  0  0  0  0  0  0  0  0  0
   13.6970   54.8950   88.5500   C 0  0  0  0  0  0  0  0  0  0  0  0
   12.4870   54.3550   89.3030   C 0  0  0  0  0  0  0  0  0  0  0  0
   12.0790   53.1890   88.6340   C 0  0  0  0  0  0  0  0  0  0  0  0
   12.5680   52.1050   88.9480   O 0  0  0  0  0  0  0  0  0  0  0  0
   11.1750   53.3200   87.6390   N 0  0  0  0  0  0  0  0  0  0  0  0
   10.7250   52.1550   86.8660   C 0  0  0  0  0  0  0  0  0  0  0  0
   11.5280   51.9860   85.7190   C 0  0  0  0  0  0  0  0  0  0  0  0
   11.5080   50.7470   85.0750   C 0  0  0  0  0  0  0  0  0  0  0  0
   12.2790   50.4990   83.9390   C 0  0  0  0  0  0  0  0  0  0  0  0
   12.3460   52.9800   85.1710   C 0  0  0  0  0  0  0  0  0  0  0  0
   13.1170   52.7320   84.0330   C 0  0  0  0  0  0  0  0  0  0  0  0
   13.0920   51.4950   83.3890   C 0  0  0  0  0  0  0  0  0  0  0  0
   13.8390   51.2920   82.2930   C 0  0  0  0  0  0  0  0  0  0  0  0
   15.4200   51.8230   82.1110   S 0  0  0  0  0  0  0  0  0  0  0  0
   15.6160   51.2240   80.5620   C 0  0  0  0  0  0  0  0  0  0  0  0
   14.4680   50.6390   80.2150   N 0  0  0  0  0  0  0  0  0  0  0  0
   13.5040   50.6780   81.1440   C 0  0  0  0  0  0  0  0  0  0  0  0
   12.1550   50.0280   80.8180   C 0  0  0  0  0  0  0  0  0  0  0  0
 28 27  2  0  0  0  0
 28 29  1  0  0  0  0
 27 26  1  0  0  0  0
 30 29  1  0  0  0  0
 29 25  2  0  0  0  0
 26 25  1  0  0  0  0
 25 24  1  0  0  0  0
 24 21  2  0  0  0  0
 24 23  1  0  0  0  0
 21 20  1  0  0  0  0
 23 22  2  0  0  0  0
 20 19  2  0  0  0  0
 22 19  1  0  0  0  0
 19 18  1  0  0  0  0
 18 17  1  0  0  0  0
 17 15  1  0  0  0  0
 13 14  1  0  0  0  0
 13 11  1  0  0  0  0
 15 16  2  0  0  0  0
 15 14  1  0  0  0  0
 14  9  1  0  0  0  0
 11 12  1  0  0  0  0
 11 10  1  0  0  0  0
  9 10  1  0  0  0  0
  9  7  1  0  0  0  0
  8  7  2  0  0  0  0
  7  5  1  0  0  0  0
  6  5  1  0  0  0  0
  5  4  1  0  0  0  0
  4  2  1  0  0  0  0
  3  2  2  0  0  0  0
  2  1  1  0  0  0  0
A    1
CAA
A    2
CAT
A    3
OAD
A    4
NAR
A    5
CBB
A    6
CAC
A    7
CAV
A    8
SAG
A    9
N
A   10
CD2
A   11
CG
A   12
OD1
A   13
CB
A   14
CA
A   15
C
A   16
O
A   17
NAQ
A   18
CAM
A   19
CAX
A   20
CAI
A   21
CAK
A   22
CAH
A   23
CAJ
A   24
CAY
A   25
CAZ
A   26
SAS
A   27
CAL
A   28
NAP
A   29
CAW
A   30
CAB
M  END
>  <InstanceId>
6FMJ_DV5_C_301

>  <ChemCompId>
DV5

>  <PdbId>
6FMJ

>  <ChainId>
C

>  <ResidueNumber>
301

>  <InsertionCode>


>  <Model>
1

>  <AltIds>


>  <MissingHeavyAtoms>
0

>  <ObservedFormula>
C21 N4 O3 S2

>  <Name>
(2~{S},4~{R})-1-[(2~{S})-2-acetamidopropanethioyl]-~{N}-[[4-(4-methyl-1,3-thiazol-5-yl)phenyl]methyl]-4-oxidanyl-pyrrolidine-2-carboxamide

>  <SystematicName>
(2~{S},4~{R})-1-[(2~{S})-2-acetamidopropanethioyl]-~{N}-[[4-(4-methyl-1,3-thiazol-5-yl)phenyl]methyl]-4-oxidanyl-pyrrolidine-2-carboxamide

>  <Synonyms>


>  <Type>
NON-POLYMER

>  <Formula>
C21 H26 N4 O3 S2

>  <MolecularWeight>
446.586

>  <ModifiedDate>
2018-04-06

>  <Parent>


>  <OneLetterCode>


>  <SubcomponentList>


>  <AmbiguousFlag>
N

>  <InChI>
InChI=1S/C21H26N4O3S2/c1-12-19(30-11-23-12)16-6-4-15(5-7-16)9-22-20(28)18-8-17(27)10-25(18)21(29)13(2)24-14(3)26/h4-7,11,13,17-18,27H,8-10H2,1-3H3,(H,22,28)(H,24,26)/t13-,17+,18-/m0/s1

>  <InChIKey>
WHYNNQMYHZONCV-VHSSKADRSA-N

>  <SMILES>
Cc1c(scn1)c2ccc(cc2)CNC(=O)[C@@H]3C[C@H](CN3C(=S)[C@H](C)NC(=O)C)O

$$$$
