6FMJ_DV5_C_301


 33 35  0  0  0  0  0  0  0  0999 V2000
   11.8984   52.9023   88.8572 C   0  0  0  0  0  0  0  0  0  0  0  0
   12.2493   51.8309   89.3487 O   0  0  0  0  0  0  0  0  0  0  0  0
   11.1708   52.9799   87.7219 N   0  0  0  0  0  0  0  0  0  0  0  0
   10.9133   53.8630   87.3709 H   0  0  0  0  0  0  0  0  0  0  0  0
   12.7645   53.9057   90.8924 N   0  0  0  0  0  0  0  0  0  0  0  0
   14.1850   54.3505   90.9660 C   0  0  0  0  0  0  0  0  0  0  0  0
   14.4120   55.2160   89.7482 C   0  0  0  0  0  0  0  0  0  0  0  0
   13.9907   56.5528   90.0133 O   0  0  0  0  0  0  0  0  0  0  0  0
   13.5056   54.6140   88.7067 C   0  0  0  0  0  0  0  0  0  0  0  0
   12.2864   54.1068   89.4675 C   0  0  0  0  0  0  0  0  0  0  0  0
   13.0591   56.5506   90.2835 H   0  0  0  0  0  0  0  0  0  0  0  0
   12.0381   53.4437   91.9349 C   0  0  0  0  0  0  0  0  0  0  0  0
   12.6866   52.4431   93.0763 S   0  0  0  0  0  0  0  0  0  0  0  0
   10.5824   53.9202   92.1528 C   0  0  0  0  0  0  0  0  0  0  0  0
   10.3512   54.0329   93.6638 C   0  0  0  0  0  0  0  0  0  0  0  0
    7.7653   52.2696   90.1765 C   0  0  0  0  0  0  0  0  0  0  0  0
    8.7243   53.3666   90.6459 C   0  0  0  0  0  0  0  0  0  0  0  0
    8.6823   54.4911   90.1487 O   0  0  0  0  0  0  0  0  0  0  0  0
    9.5919   52.9856   91.5939 N   0  0  0  0  0  0  0  0  0  0  0  0
    9.5661   52.0586   91.9244 H   0  0  0  0  0  0  0  0  0  0  0  0
   10.7576   51.7679   87.0026 C   0  0  0  0  0  0  0  0  0  0  0  0
   11.4948   51.6294   85.8083 C   0  0  0  0  0  0  0  0  0  0  0  0
   11.5829   50.3617   85.2292 C   0  0  0  0  0  0  0  0  0  0  0  0
   12.2989   50.1418   84.0522 C   0  0  0  0  0  0  0  0  0  0  0  0
   12.1453   52.6802   85.1524 C   0  0  0  0  0  0  0  0  0  0  0  0
   12.8612   52.4602   83.9734 C   0  0  0  0  0  0  0  0  0  0  0  0
   12.9441   51.1938   83.3946 C   0  0  0  0  0  0  0  0  0  0  0  0
   13.6336   51.0180   82.2570 C   0  0  0  0  0  0  0  0  0  0  0  0
   13.1207   50.0656   80.9746 S   0  0  0  0  0  0  0  0  0  0  0  0
   14.4647   50.3417   80.0186 C   0  0  0  0  0  0  0  0  0  0  0  0
   15.2787   51.1482   80.7024 N   0  0  0  0  0  0  0  0  0  0  0  0
   14.8369   51.5115   81.9135 C   0  0  0  0  0  0  0  0  0  0  0  0
   15.7179   52.4363   82.7603 C   0  0  0  0  0  0  0  0  0  0  0  0
 31 30  2  0  0  0
 31 32  1  0  0  0
 30 29  1  0  0  0
 33 32  1  0  0  0
 32 28  2  0  0  0
 29 28  1  0  0  0
 28 27  1  0  0  0
 27 24  2  0  0  0
 27 26  1  0  0  0
 24 23  1  0  0  0
 26 25  2  0  0  0
 23 22  2  0  0  0
 25 22  1  0  0  0
 22 21  1  0  0  0
 21  3  1  0  0  0
  3  1  1  0  0  0
  9 10  1  0  0  0
  9  7  1  0  0  0
  1  2  2  0  0  0
  1 10  1  0  0  0
 10  5  1  0  0  0
  7  8  1  0  0  0
  7  6  1  0  0  0
  5  6  1  0  0  0
  5 12  1  0  0  0
 13 12  2  0  0  0
 12 14  1  0  0  0
 15 14  1  0  0  0
 14 19  1  0  0  0
 19 17  1  0  0  0
 18 17  2  0  0  0
 17 16  1  0  0  0
 19 20  1  0  0  0
  8 11  1  0  0  0
  3  4  1  0  0  0
M  END
> <minimizedAffinity>
-7.95401

$$$$
6FMJ_DV5_C_301


 33 35  0  0  0  0  0  0  0  0999 V2000
   11.8752   52.9052   88.8845 C   0  0  0  0  0  0  0  0  0  0  0  0
   12.2303   51.8786   89.4614 O   0  0  0  0  0  0  0  0  0  0  0  0
   11.1343   52.8876   87.7552 N   0  0  0  0  0  0  0  0  0  0  0  0
   10.8740   53.7382   87.3334 H   0  0  0  0  0  0  0  0  0  0  0  0
   12.4350   54.1508   90.8930 N   0  0  0  0  0  0  0  0  0  0  0  0
   13.8550   54.4812   91.2016 C   0  0  0  0  0  0  0  0  0  0  0  0
   14.4149   55.1146   89.9490 C   0  0  0  0  0  0  0  0  0  0  0  0
   14.1069   56.5073   89.9259 O   0  0  0  0  0  0  0  0  0  0  0  0
   13.6672   54.4289   88.8357 C   0  0  0  0  0  0  0  0  0  0  0  0
   12.2722   54.1562   89.3854 C   0  0  0  0  0  0  0  0  0  0  0  0
   13.1465   56.6271   89.9903 H   0  0  0  0  0  0  0  0  0  0  0  0
   11.4698   53.9272   91.8130 C   0  0  0  0  0  0  0  0  0  0  0  0
    9.9307   53.5152   91.3820 S   0  0  0  0  0  0  0  0  0  0  0  0
   11.8012   53.9535   93.3240 C   0  0  0  0  0  0  0  0  0  0  0  0
   12.1146   52.5168   93.7564 C   0  0  0  0  0  0  0  0  0  0  0  0
    9.5341   55.9628   95.6456 C   0  0  0  0  0  0  0  0  0  0  0  0
   10.7904   55.5837   94.8572 C   0  0  0  0  0  0  0  0  0  0  0  0
   11.7912   56.2984   94.8905 O   0  0  0  0  0  0  0  0  0  0  0  0
   10.6836   54.4568   94.1392 N   0  0  0  0  0  0  0  0  0  0  0  0
    9.8376   53.9538   94.1576 H   0  0  0  0  0  0  0  0  0  0  0  0
   10.7107   51.6197   87.1467 C   0  0  0  0  0  0  0  0  0  0  0  0
   11.4035   51.3987   85.9384 C   0  0  0  0  0  0  0  0  0  0  0  0
   11.7914   52.5096   85.1862 C   0  0  0  0  0  0  0  0  0  0  0  0
   12.4740   52.3738   83.9770 C   0  0  0  0  0  0  0  0  0  0  0  0
   11.7388   50.1363   85.4368 C   0  0  0  0  0  0  0  0  0  0  0  0
   12.4232   50.0005   84.2268 C   0  0  0  0  0  0  0  0  0  0  0  0
   12.8133   51.1118   83.4795 C   0  0  0  0  0  0  0  0  0  0  0  0
   13.4766   50.9467   82.3248 C   0  0  0  0  0  0  0  0  0  0  0  0
   12.9402   49.9967   81.0503 S   0  0  0  0  0  0  0  0  0  0  0  0
   14.2587   50.2877   80.0637 C   0  0  0  0  0  0  0  0  0  0  0  0
   15.0828   51.0970   80.7318 N   0  0  0  0  0  0  0  0  0  0  0  0
   14.6675   51.4510   81.9549 C   0  0  0  0  0  0  0  0  0  0  0  0
   15.5617   52.3784   82.7850 C   0  0  0  0  0  0  0  0  0  0  0  0
 31 30  2  0  0  0
 31 32  1  0  0  0
 30 29  1  0  0  0
 33 32  1  0  0  0
 32 28  2  0  0  0
 29 28  1  0  0  0
 28 27  1  0  0  0
 27 24  2  0  0  0
 27 26  1  0  0  0
 24 23  1  0  0  0
 26 25  2  0  0  0
 23 22  2  0  0  0
 25 22  1  0  0  0
 22 21  1  0  0  0
 21  3  1  0  0  0
  3  1  1  0  0  0
  9 10  1  0  0  0
  9  7  1  0  0  0
  1  2  2  0  0  0
  1 10  1  0  0  0
 10  5  1  0  0  0
  7  8  1  0  0  0
  7  6  1  0  0  0
  5  6  1  0  0  0
  5 12  1  0  0  0
 13 12  2  0  0  0
 12 14  1  0  0  0
 15 14  1  0  0  0
 14 19  1  0  0  0
 19 17  1  0  0  0
 18 17  2  0  0  0
 17 16  1  0  0  0
 19 20  1  0  0  0
  8 11  1  0  0  0
  3  4  1  0  0  0
M  END
> <minimizedAffinity>
-7.84658

$$$$
6FMJ_DV5_C_301


 33 35  0  0  0  0  0  0  0  0999 V2000
   11.4444   53.7835   89.1910 C   0  0  0  0  0  0  0  0  0  0  0  0
   10.2627   53.8074   89.5314 O   0  0  0  0  0  0  0  0  0  0  0  0
   11.9240   52.9052   88.2839 N   0  0  0  0  0  0  0  0  0  0  0  0
   12.8785   52.9292   88.0440 H   0  0  0  0  0  0  0  0  0  0  0  0
   13.0876   54.0617   90.9578 N   0  0  0  0  0  0  0  0  0  0  0  0
   14.5433   54.0549   90.6387 C   0  0  0  0  0  0  0  0  0  0  0  0
   14.7256   55.0464   89.5128 C   0  0  0  0  0  0  0  0  0  0  0  0
   14.8581   56.3653   90.0400 O   0  0  0  0  0  0  0  0  0  0  0  0
   13.4350   54.9543   88.7417 C   0  0  0  0  0  0  0  0  0  0  0  0
   12.3552   54.6759   89.7805 C   0  0  0  0  0  0  0  0  0  0  0  0
   14.0819   56.5763   90.5821 H   0  0  0  0  0  0  0  0  0  0  0  0
   12.5422   53.6269   92.1159 C   0  0  0  0  0  0  0  0  0  0  0  0
   12.2764   54.6405   93.3912 S   0  0  0  0  0  0  0  0  0  0  0  0
   12.0507   52.1665   92.2551 C   0  0  0  0  0  0  0  0  0  0  0  0
   10.5728   52.2098   92.6593 C   0  0  0  0  0  0  0  0  0  0  0  0
   14.4838   49.9073   94.1371 C   0  0  0  0  0  0  0  0  0  0  0  0
   13.8199   50.6127   92.9517 C   0  0  0  0  0  0  0  0  0  0  0  0
   14.2399   50.4462   91.8074 O   0  0  0  0  0  0  0  0  0  0  0  0
   12.7960   51.4141   93.2775 N   0  0  0  0  0  0  0  0  0  0  0  0
   12.5362   51.5015   94.2230 H   0  0  0  0  0  0  0  0  0  0  0  0
   11.0442   51.9147   87.6497 C   0  0  0  0  0  0  0  0  0  0  0  0
   11.5338   51.5681   86.3733 C   0  0  0  0  0  0  0  0  0  0  0  0
   11.8872   52.5980   85.4989 C   0  0  0  0  0  0  0  0  0  0  0  0
   12.3728   52.3371   84.2173 C   0  0  0  0  0  0  0  0  0  0  0  0
   11.6981   50.2556   85.9173 C   0  0  0  0  0  0  0  0  0  0  0  0
   12.1854   49.9944   84.6346 C   0  0  0  0  0  0  0  0  0  0  0  0
   12.5418   51.0248   83.7647 C   0  0  0  0  0  0  0  0  0  0  0  0
   13.0142   50.7395   82.5416 C   0  0  0  0  0  0  0  0  0  0  0  0
   12.2405   49.7445   81.4344 S   0  0  0  0  0  0  0  0  0  0  0  0
   13.4103   49.8808   80.2472 C   0  0  0  0  0  0  0  0  0  0  0  0
   14.3693   50.6762   80.7251 N   0  0  0  0  0  0  0  0  0  0  0  0
   14.1625   51.1377   81.9653 C   0  0  0  0  0  0  0  0  0  0  0  0
   15.2215   52.0568   82.5837 C   0  0  0  0  0  0  0  0  0  0  0  0
 31 30  2  0  0  0
 31 32  1  0  0  0
 30 29  1  0  0  0
 33 32  1  0  0  0
 32 28  2  0  0  0
 29 28  1  0  0  0
 28 27  1  0  0  0
 27 24  2  0  0  0
 27 26  1  0  0  0
 24 23  1  0  0  0
 26 25  2  0  0  0
 23 22  2  0  0  0
 25 22  1  0  0  0
 22 21  1  0  0  0
 21  3  1  0  0  0
  3  1  1  0  0  0
  9 10  1  0  0  0
  9  7  1  0  0  0
  1  2  2  0  0  0
  1 10  1  0  0  0
 10  5  1  0  0  0
  7  8  1  0  0  0
  7  6  1  0  0  0
  5  6  1  0  0  0
  5 12  1  0  0  0
 13 12  2  0  0  0
 12 14  1  0  0  0
 15 14  1  0  0  0
 14 19  1  0  0  0
 19 17  1  0  0  0
 18 17  2  0  0  0
 17 16  1  0  0  0
 19 20  1  0  0  0
  8 11  1  0  0  0
  3  4  1  0  0  0
M  END
> <minimizedAffinity>
-7.72301

$$$$
6FMJ_DV5_C_301


 33 35  0  0  0  0  0  0  0  0999 V2000
   11.7965   52.8393   88.9056 C   0  0  0  0  0  0  0  0  0  0  0  0
   12.3104   51.7640   89.2097 O   0  0  0  0  0  0  0  0  0  0  0  0
   10.8615   52.9523   87.9374 N   0  0  0  0  0  0  0  0  0  0  0  0
   10.4793   53.8365   87.7340 H   0  0  0  0  0  0  0  0  0  0  0  0
   12.7396   53.7471   90.9515 N   0  0  0  0  0  0  0  0  0  0  0  0
   14.1616   54.1911   90.9916 C   0  0  0  0  0  0  0  0  0  0  0  0
   14.3414   55.1138   89.8083 C   0  0  0  0  0  0  0  0  0  0  0  0
   13.9299   56.4356   90.1525 O   0  0  0  0  0  0  0  0  0  0  0  0
   13.3959   54.5597   88.7750 C   0  0  0  0  0  0  0  0  0  0  0  0
   12.2070   54.0143   89.5570 C   0  0  0  0  0  0  0  0  0  0  0  0
   13.0094   56.4185   90.4578 H   0  0  0  0  0  0  0  0  0  0  0  0
   12.0540   53.2345   91.9979 C   0  0  0  0  0  0  0  0  0  0  0  0
   10.6147   53.8710   92.4955 S   0  0  0  0  0  0  0  0  0  0  0  0
   12.5507   51.9563   92.7144 C   0  0  0  0  0  0  0  0  0  0  0  0
   11.4366   50.9079   92.6205 C   0  0  0  0  0  0  0  0  0  0  0  0
   13.9364   51.7971   96.2670 C   0  0  0  0  0  0  0  0  0  0  0  0
   13.7317   51.4162   94.7985 C   0  0  0  0  0  0  0  0  0  0  0  0
   14.3564   50.4808   94.3002 O   0  0  0  0  0  0  0  0  0  0  0  0
   12.8598   52.1883   94.1348 N   0  0  0  0  0  0  0  0  0  0  0  0
   12.4155   52.9280   94.6086 H   0  0  0  0  0  0  0  0  0  0  0  0
   10.4059   51.7771   87.1833 C   0  0  0  0  0  0  0  0  0  0  0  0
   11.1652   51.6246   86.0047 C   0  0  0  0  0  0  0  0  0  0  0  0
   11.5903   50.3414   85.6539 C   0  0  0  0  0  0  0  0  0  0  0  0
   12.3504   50.1091   84.5073 C   0  0  0  0  0  0  0  0  0  0  0  0
   11.5218   52.6737   85.1505 C   0  0  0  0  0  0  0  0  0  0  0  0
   12.2819   52.4409   84.0020 C   0  0  0  0  0  0  0  0  0  0  0  0
   12.7016   51.1577   83.6514 C   0  0  0  0  0  0  0  0  0  0  0  0
   13.4241   50.9673   82.5369 C   0  0  0  0  0  0  0  0  0  0  0  0
   14.9538   51.6056   82.2777 S   0  0  0  0  0  0  0  0  0  0  0  0
   15.1416   50.9623   80.7456 C   0  0  0  0  0  0  0  0  0  0  0  0
   14.0295   50.2813   80.4626 N   0  0  0  0  0  0  0  0  0  0  0  0
   13.0973   50.2857   81.4243 C   0  0  0  0  0  0  0  0  0  0  0  0
   11.7905   49.5260   81.1720 C   0  0  0  0  0  0  0  0  0  0  0  0
 31 30  2  0  0  0
 31 32  1  0  0  0
 30 29  1  0  0  0
 33 32  1  0  0  0
 32 28  2  0  0  0
 29 28  1  0  0  0
 28 27  1  0  0  0
 27 24  2  0  0  0
 27 26  1  0  0  0
 24 23  1  0  0  0
 26 25  2  0  0  0
 23 22  2  0  0  0
 25 22  1  0  0  0
 22 21  1  0  0  0
 21  3  1  0  0  0
  3  1  1  0  0  0
  9 10  1  0  0  0
  9  7  1  0  0  0
  1  2  2  0  0  0
  1 10  1  0  0  0
 10  5  1  0  0  0
  7  8  1  0  0  0
  7  6  1  0  0  0
  5  6  1  0  0  0
  5 12  1  0  0  0
 13 12  2  0  0  0
 12 14  1  0  0  0
 15 14  1  0  0  0
 14 19  1  0  0  0
 19 17  1  0  0  0
 18 17  2  0  0  0
 17 16  1  0  0  0
 19 20  1  0  0  0
  8 11  1  0  0  0
  3  4  1  0  0  0
M  END
> <minimizedAffinity>
-7.19679

$$$$
6FMJ_DV5_C_301


 33 35  0  0  0  0  0  0  0  0999 V2000
   12.6654   53.7588   88.1371 C   0  0  0  0  0  0  0  0  0  0  0  0
   13.7472   54.1281   88.5911 O   0  0  0  0  0  0  0  0  0  0  0  0
   12.4373   53.6281   86.8122 N   0  0  0  0  0  0  0  0  0  0  0  0
   11.5536   53.3264   86.5003 H   0  0  0  0  0  0  0  0  0  0  0  0
   11.3962   52.0009   89.2318 N   0  0  0  0  0  0  0  0  0  0  0  0
   11.5972   51.7195   90.6813 C   0  0  0  0  0  0  0  0  0  0  0  0
   11.4714   53.0518   91.3836 C   0  0  0  0  0  0  0  0  0  0  0  0
   10.0984   53.3408   91.6408 O   0  0  0  0  0  0  0  0  0  0  0  0
   11.9996   54.0391   90.3762 C   0  0  0  0  0  0  0  0  0  0  0  0
   11.6008   53.4874   89.0127 C   0  0  0  0  0  0  0  0  0  0  0  0
    9.6032   53.3264   90.8069 H   0  0  0  0  0  0  0  0  0  0  0  0
   11.0541   51.0826   88.3003 C   0  0  0  0  0  0  0  0  0  0  0  0
    9.6971   51.2413   87.3742 S   0  0  0  0  0  0  0  0  0  0  0  0
   11.9852   49.8848   87.9965 C   0  0  0  0  0  0  0  0  0  0  0  0
   11.7148   49.4396   86.5550 C   0  0  0  0  0  0  0  0  0  0  0  0
   12.2505   47.1553   90.6508 C   0  0  0  0  0  0  0  0  0  0  0  0
   12.6593   48.3601   89.7995 C   0  0  0  0  0  0  0  0  0  0  0  0
   13.7405   48.9182   89.9808 O   0  0  0  0  0  0  0  0  0  0  0  0
   11.7479   48.7424   88.8939 N   0  0  0  0  0  0  0  0  0  0  0  0
   10.8995   48.2473   88.8274 H   0  0  0  0  0  0  0  0  0  0  0  0
   13.4866   53.9290   85.8295 C   0  0  0  0  0  0  0  0  0  0  0  0
   13.3848   53.0632   84.7209 C   0  0  0  0  0  0  0  0  0  0  0  0
   14.4794   52.9608   83.8597 C   0  0  0  0  0  0  0  0  0  0  0  0
   14.4543   52.1316   82.7380 C   0  0  0  0  0  0  0  0  0  0  0  0
   12.2592   52.2880   84.4217 C   0  0  0  0  0  0  0  0  0  0  0  0
   12.2345   51.4570   83.2993 C   0  0  0  0  0  0  0  0  0  0  0  0
   13.3307   51.3531   82.4430 C   0  0  0  0  0  0  0  0  0  0  0  0
   13.2772   50.5393   81.3775 C   0  0  0  0  0  0  0  0  0  0  0  0
   12.1541   49.3088   81.1793 S   0  0  0  0  0  0  0  0  0  0  0  0
   12.7393   48.7905   79.7009 C   0  0  0  0  0  0  0  0  0  0  0  0
   13.7837   49.5627   79.3951 N   0  0  0  0  0  0  0  0  0  0  0  0
   14.0812   50.5046   80.2997 C   0  0  0  0  0  0  0  0  0  0  0  0
   15.2699   51.4304   80.0195 C   0  0  0  0  0  0  0  0  0  0  0  0
 31 30  2  0  0  0
 31 32  1  0  0  0
 30 29  1  0  0  0
 33 32  1  0  0  0
 32 28  2  0  0  0
 29 28  1  0  0  0
 28 27  1  0  0  0
 27 24  2  0  0  0
 27 26  1  0  0  0
 24 23  1  0  0  0
 26 25  2  0  0  0
 23 22  2  0  0  0
 25 22  1  0  0  0
 22 21  1  0  0  0
 21  3  1  0  0  0
  3  1  1  0  0  0
  9 10  1  0  0  0
  9  7  1  0  0  0
  1  2  2  0  0  0
  1 10  1  0  0  0
 10  5  1  0  0  0
  7  8  1  0  0  0
  7  6  1  0  0  0
  5  6  1  0  0  0
  5 12  1  0  0  0
 13 12  2  0  0  0
 12 14  1  0  0  0
 15 14  1  0  0  0
 14 19  1  0  0  0
 19 17  1  0  0  0
 18 17  2  0  0  0
 17 16  1  0  0  0
 19 20  1  0  0  0
  8 11  1  0  0  0
  3  4  1  0  0  0
M  END
> <minimizedAffinity>
-6.90340

$$$$
6FMJ_DV5_C_301


 33 35  0  0  0  0  0  0  0  0999 V2000
   11.5387   51.0012   89.6675 C   0  0  0  0  0  0  0  0  0  0  0  0
   10.6034   50.2027   89.6500 O   0  0  0  0  0  0  0  0  0  0  0  0
   11.6997   51.9560   88.7257 N   0  0  0  0  0  0  0  0  0  0  0  0
   12.4648   52.5725   88.7868 H   0  0  0  0  0  0  0  0  0  0  0  0
   11.9634   51.3155   92.0381 N   0  0  0  0  0  0  0  0  0  0  0  0
   12.0776   50.1379   92.9442 C   0  0  0  0  0  0  0  0  0  0  0  0
   13.0753   49.2085   92.2924 C   0  0  0  0  0  0  0  0  0  0  0  0
   14.4033   49.5938   92.6429 O   0  0  0  0  0  0  0  0  0  0  0  0
   12.8708   49.4402   90.8182 C   0  0  0  0  0  0  0  0  0  0  0  0
   12.5077   50.9140   90.6809 C   0  0  0  0  0  0  0  0  0  0  0  0
   14.5509   50.5170   92.3848 H   0  0  0  0  0  0  0  0  0  0  0  0
   11.4900   52.5304   92.3959 C   0  0  0  0  0  0  0  0  0  0  0  0
    9.8750   52.8211   92.5731 S   0  0  0  0  0  0  0  0  0  0  0  0
   12.4619   53.6803   92.7522 C   0  0  0  0  0  0  0  0  0  0  0  0
   11.8770   54.4272   93.9561 C   0  0  0  0  0  0  0  0  0  0  0  0
   13.7271   55.6484   89.7369 C   0  0  0  0  0  0  0  0  0  0  0  0
   13.7029   54.5817   90.8346 C   0  0  0  0  0  0  0  0  0  0  0  0
   14.6011   53.7449   90.9158 O   0  0  0  0  0  0  0  0  0  0  0  0
   12.6374   54.6355   91.6460 N   0  0  0  0  0  0  0  0  0  0  0  0
   11.9558   55.3305   91.4987 H   0  0  0  0  0  0  0  0  0  0  0  0
   10.7513   52.0892   87.6121 C   0  0  0  0  0  0  0  0  0  0  0  0
   11.4061   51.8785   86.3809 C   0  0  0  0  0  0  0  0  0  0  0  0
   11.4355   50.5825   85.8614 C   0  0  0  0  0  0  0  0  0  0  0  0
   12.0689   50.2917   84.6528 C   0  0  0  0  0  0  0  0  0  0  0  0
   12.0287   52.8833   85.6324 C   0  0  0  0  0  0  0  0  0  0  0  0
   12.6619   52.5922   84.4219 C   0  0  0  0  0  0  0  0  0  0  0  0
   12.6862   51.2978   83.9029 C   0  0  0  0  0  0  0  0  0  0  0  0
   13.2964   51.0534   82.7332 C   0  0  0  0  0  0  0  0  0  0  0  0
   12.6977   50.0292   81.5468 S   0  0  0  0  0  0  0  0  0  0  0  0
   13.9730   50.2445   80.4867 C   0  0  0  0  0  0  0  0  0  0  0  0
   14.8312   51.0870   81.0648 N   0  0  0  0  0  0  0  0  0  0  0  0
   14.4730   51.5220   82.2798 C   0  0  0  0  0  0  0  0  0  0  0  0
   15.4091   52.4920   83.0088 C   0  0  0  0  0  0  0  0  0  0  0  0
 31 30  2  0  0  0
 31 32  1  0  0  0
 30 29  1  0  0  0
 33 32  1  0  0  0
 32 28  2  0  0  0
 29 28  1  0  0  0
 28 27  1  0  0  0
 27 24  2  0  0  0
 27 26  1  0  0  0
 24 23  1  0  0  0
 26 25  2  0  0  0
 23 22  2  0  0  0
 25 22  1  0  0  0
 22 21  1  0  0  0
 21  3  1  0  0  0
  3  1  1  0  0  0
  9 10  1  0  0  0
  9  7  1  0  0  0
  1  2  2  0  0  0
  1 10  1  0  0  0
 10  5  1  0  0  0
  7  8  1  0  0  0
  7  6  1  0  0  0
  5  6  1  0  0  0
  5 12  1  0  0  0
 13 12  2  0  0  0
 12 14  1  0  0  0
 15 14  1  0  0  0
 14 19  1  0  0  0
 19 17  1  0  0  0
 18 17  2  0  0  0
 17 16  1  0  0  0
 19 20  1  0  0  0
  8 11  1  0  0  0
  3  4  1  0  0  0
M  END
> <minimizedAffinity>
-6.88759

$$$$
6FMJ_DV5_C_301


 33 35  0  0  0  0  0  0  0  0999 V2000
    9.3182   51.9272   83.8282 C   0  0  0  0  0  0  0  0  0  0  0  0
    8.4940   51.0231   83.9549 O   0  0  0  0  0  0  0  0  0  0  0  0
    9.5310   52.8585   84.7831 N   0  0  0  0  0  0  0  0  0  0  0  0
   10.2047   53.5606   84.6333 H   0  0  0  0  0  0  0  0  0  0  0  0
   10.8656   50.7842   82.3456 N   0  0  0  0  0  0  0  0  0  0  0  0
   10.3893   50.2217   81.0504 C   0  0  0  0  0  0  0  0  0  0  0  0
    9.6427   51.3407   80.3619 C   0  0  0  0  0  0  0  0  0  0  0  0
   10.5572   52.1738   79.6516 O   0  0  0  0  0  0  0  0  0  0  0  0
    9.0461   52.1267   81.4998 C   0  0  0  0  0  0  0  0  0  0  0  0
   10.0559   52.0327   82.6374 C   0  0  0  0  0  0  0  0  0  0  0  0
   11.2280   52.5136   80.2645 H   0  0  0  0  0  0  0  0  0  0  0  0
   11.8709   50.2755   83.0929 C   0  0  0  0  0  0  0  0  0  0  0  0
   11.7170   48.8493   83.9095 S   0  0  0  0  0  0  0  0  0  0  0  0
   13.2527   50.9703   83.1315 C   0  0  0  0  0  0  0  0  0  0  0  0
   13.1127   52.2368   83.9833 C   0  0  0  0  0  0  0  0  0  0  0  0
   15.3320   52.0720   80.1266 C   0  0  0  0  0  0  0  0  0  0  0  0
   15.0059   51.7032   81.5762 C   0  0  0  0  0  0  0  0  0  0  0  0
   15.8823   51.7177   82.4394 O   0  0  0  0  0  0  0  0  0  0  0  0
   13.7300   51.3542   81.7929 N   0  0  0  0  0  0  0  0  0  0  0  0
   13.0970   51.3547   81.0389 H   0  0  0  0  0  0  0  0  0  0  0  0
    8.7735   52.8404   86.0413 C   0  0  0  0  0  0  0  0  0  0  0  0
    9.6415   53.0068   87.1403 C   0  0  0  0  0  0  0  0  0  0  0  0
    9.1820   53.7323   88.2415 C   0  0  0  0  0  0  0  0  0  0  0  0
    9.9825   53.9463   89.3639 C   0  0  0  0  0  0  0  0  0  0  0  0
   10.9391   52.4882   87.2107 C   0  0  0  0  0  0  0  0  0  0  0  0
   11.7401   52.7016   88.3349 C   0  0  0  0  0  0  0  0  0  0  0  0
   11.2772   53.4229   89.4354 C   0  0  0  0  0  0  0  0  0  0  0  0
   12.0696   53.6030   90.5031 C   0  0  0  0  0  0  0  0  0  0  0  0
   12.0312   52.6512   91.8841 S   0  0  0  0  0  0  0  0  0  0  0  0
   13.2327   53.4878   92.6923 C   0  0  0  0  0  0  0  0  0  0  0  0
   13.6310   54.4798   91.8936 N   0  0  0  0  0  0  0  0  0  0  0  0
   13.0022   54.5494   90.7131 C   0  0  0  0  0  0  0  0  0  0  0  0
   13.4041   55.6641   89.7413 C   0  0  0  0  0  0  0  0  0  0  0  0
 31 30  2  0  0  0
 31 32  1  0  0  0
 30 29  1  0  0  0
 33 32  1  0  0  0
 32 28  2  0  0  0
 29 28  1  0  0  0
 28 27  1  0  0  0
 27 24  2  0  0  0
 27 26  1  0  0  0
 24 23  1  0  0  0
 26 25  2  0  0  0
 23 22  2  0  0  0
 25 22  1  0  0  0
 22 21  1  0  0  0
 21  3  1  0  0  0
  3  1  1  0  0  0
  9 10  1  0  0  0
  9  7  1  0  0  0
  1  2  2  0  0  0
  1 10  1  0  0  0
 10  5  1  0  0  0
  7  8  1  0  0  0
  7  6  1  0  0  0
  5  6  1  0  0  0
  5 12  1  0  0  0
 13 12  2  0  0  0
 12 14  1  0  0  0
 15 14  1  0  0  0
 14 19  1  0  0  0
 19 17  1  0  0  0
 18 17  2  0  0  0
 17 16  1  0  0  0
 19 20  1  0  0  0
  8 11  1  0  0  0
  3  4  1  0  0  0
M  END
> <minimizedAffinity>
-6.77208

$$$$
6FMJ_DV5_C_301


 33 35  0  0  0  0  0  0  0  0999 V2000
    8.3472   52.0754   86.9416 C   0  0  0  0  0  0  0  0  0  0  0  0
    7.9280   52.9100   86.1414 O   0  0  0  0  0  0  0  0  0  0  0  0
    8.7062   50.8269   86.5717 N   0  0  0  0  0  0  0  0  0  0  0  0
    9.0382   50.1969   87.2515 H   0  0  0  0  0  0  0  0  0  0  0  0
    9.6739   53.2136   88.6279 N   0  0  0  0  0  0  0  0  0  0  0  0
    9.2323   54.5296   89.1701 C   0  0  0  0  0  0  0  0  0  0  0  0
    7.7928   54.3427   89.5906 C   0  0  0  0  0  0  0  0  0  0  0  0
    7.7352   53.7933   90.9057 O   0  0  0  0  0  0  0  0  0  0  0  0
    7.2625   53.3279   88.6120 C   0  0  0  0  0  0  0  0  0  0  0  0
    8.4340   52.4026   88.3051 C   0  0  0  0  0  0  0  0  0  0  0  0
    8.2274   52.9577   90.9289 H   0  0  0  0  0  0  0  0  0  0  0  0
   10.9600   52.8191   88.4925 C   0  0  0  0  0  0  0  0  0  0  0  0
   11.5025   51.3845   89.1022 S   0  0  0  0  0  0  0  0  0  0  0  0
   11.9594   53.6628   87.6660 C   0  0  0  0  0  0  0  0  0  0  0  0
   12.2324   52.9111   86.3584 C   0  0  0  0  0  0  0  0  0  0  0  0
   14.7975   54.9442   89.8726 C   0  0  0  0  0  0  0  0  0  0  0  0
   13.4074   54.8755   89.2352 C   0  0  0  0  0  0  0  0  0  0  0  0
   12.5354   55.6870   89.5431 O   0  0  0  0  0  0  0  0  0  0  0  0
   13.2381   53.8700   88.3651 N   0  0  0  0  0  0  0  0  0  0  0  0
   13.9868   53.2553   88.1895 H   0  0  0  0  0  0  0  0  0  0  0  0
    8.6092   50.3942   85.1715 C   0  0  0  0  0  0  0  0  0  0  0  0
    9.8459   50.5681   84.5163 C   0  0  0  0  0  0  0  0  0  0  0  0
    9.9417   51.5598   83.5377 C   0  0  0  0  0  0  0  0  0  0  0  0
   11.1280   51.7891   82.8403 C   0  0  0  0  0  0  0  0  0  0  0  0
   10.9958   49.8166   84.7819 C   0  0  0  0  0  0  0  0  0  0  0  0
   12.1838   50.0470   84.0844 C   0  0  0  0  0  0  0  0  0  0  0  0
   12.2782   51.0410   83.1105 C   0  0  0  0  0  0  0  0  0  0  0  0
   13.4369   51.2417   82.4643 C   0  0  0  0  0  0  0  0  0  0  0  0
   13.9195   50.3967   81.0976 S   0  0  0  0  0  0  0  0  0  0  0  0
   15.3886   51.1785   80.9327 C   0  0  0  0  0  0  0  0  0  0  0  0
   15.4818   52.0614   81.9288 N   0  0  0  0  0  0  0  0  0  0  0  0
   14.4331   52.0954   82.7613 C   0  0  0  0  0  0  0  0  0  0  0  0
   14.4674   53.0837   83.9320 C   0  0  0  0  0  0  0  0  0  0  0  0
 31 30  2  0  0  0
 31 32  1  0  0  0
 30 29  1  0  0  0
 33 32  1  0  0  0
 32 28  2  0  0  0
 29 28  1  0  0  0
 28 27  1  0  0  0
 27 24  2  0  0  0
 27 26  1  0  0  0
 24 23  1  0  0  0
 26 25  2  0  0  0
 23 22  2  0  0  0
 25 22  1  0  0  0
 22 21  1  0  0  0
 21  3  1  0  0  0
  3  1  1  0  0  0
  9 10  1  0  0  0
  9  7  1  0  0  0
  1  2  2  0  0  0
  1 10  1  0  0  0
 10  5  1  0  0  0
  7  8  1  0  0  0
  7  6  1  0  0  0
  5  6  1  0  0  0
  5 12  1  0  0  0
 13 12  2  0  0  0
 12 14  1  0  0  0
 15 14  1  0  0  0
 14 19  1  0  0  0
 19 17  1  0  0  0
 18 17  2  0  0  0
 17 16  1  0  0  0
 19 20  1  0  0  0
  8 11  1  0  0  0
  3  4  1  0  0  0
M  END
> <minimizedAffinity>
-6.62867

$$$$
6FMJ_DV5_C_301


 33 35  0  0  0  0  0  0  0  0999 V2000
   11.2700   52.2439   88.3181 C   0  0  0  0  0  0  0  0  0  0  0  0
   12.1594   51.4321   88.5686 O   0  0  0  0  0  0  0  0  0  0  0  0
   11.3475   53.5438   88.6768 N   0  0  0  0  0  0  0  0  0  0  0  0
   10.6088   54.1538   88.4501 H   0  0  0  0  0  0  0  0  0  0  0  0
   10.3822   51.3082   86.2601 N   0  0  0  0  0  0  0  0  0  0  0  0
    9.9696   49.8775   86.2012 C   0  0  0  0  0  0  0  0  0  0  0  0
    9.0515   49.6618   87.3821 C   0  0  0  0  0  0  0  0  0  0  0  0
    7.7209   50.0486   87.0436 O   0  0  0  0  0  0  0  0  0  0  0  0
    9.5851   50.6055   88.4278 C   0  0  0  0  0  0  0  0  0  0  0  0
   10.1040   51.8163   87.6615 C   0  0  0  0  0  0  0  0  0  0  0  0
    7.7176   50.9733   86.7505 H   0  0  0  0  0  0  0  0  0  0  0  0
   10.8792   52.0188   85.2227 C   0  0  0  0  0  0  0  0  0  0  0  0
    9.9177   52.9648   84.2715 S   0  0  0  0  0  0  0  0  0  0  0  0
   12.4011   52.0486   84.9463 C   0  0  0  0  0  0  0  0  0  0  0  0
   12.8975   53.4707   85.2302 C   0  0  0  0  0  0  0  0  0  0  0  0
   13.1911   50.2537   81.6720 C   0  0  0  0  0  0  0  0  0  0  0  0
   12.8469   50.4313   83.1531 C   0  0  0  0  0  0  0  0  0  0  0  0
   12.6776   49.4529   83.8793 O   0  0  0  0  0  0  0  0  0  0  0  0
   12.7296   51.7053   83.5530 N   0  0  0  0  0  0  0  0  0  0  0  0
   12.8664   52.4287   82.8994 H   0  0  0  0  0  0  0  0  0  0  0  0
   12.5164   54.0619   89.3996 C   0  0  0  0  0  0  0  0  0  0  0  0
   12.2553   54.1125   90.7846 C   0  0  0  0  0  0  0  0  0  0  0  0
   13.2533   54.6060   91.6277 C   0  0  0  0  0  0  0  0  0  0  0  0
   13.0743   54.6818   93.0092 C   0  0  0  0  0  0  0  0  0  0  0  0
   11.0563   53.7063   91.3802 C   0  0  0  0  0  0  0  0  0  0  0  0
   10.8766   53.7833   92.7633 C   0  0  0  0  0  0  0  0  0  0  0  0
   11.8733   54.2806   93.6028 C   0  0  0  0  0  0  0  0  0  0  0  0
   11.6657   54.3485   94.9267 C   0  0  0  0  0  0  0  0  0  0  0  0
   11.6671   53.0238   95.9561 S   0  0  0  0  0  0  0  0  0  0  0  0
   11.3363   53.8955   97.3443 C   0  0  0  0  0  0  0  0  0  0  0  0
   11.2242   55.1772   96.9903 N   0  0  0  0  0  0  0  0  0  0  0  0
   11.3957   55.4259   95.6855 C   0  0  0  0  0  0  0  0  0  0  0  0
   11.2804   56.8754   95.2015 C   0  0  0  0  0  0  0  0  0  0  0  0
 31 30  2  0  0  0
 31 32  1  0  0  0
 30 29  1  0  0  0
 33 32  1  0  0  0
 32 28  2  0  0  0
 29 28  1  0  0  0
 28 27  1  0  0  0
 27 24  2  0  0  0
 27 26  1  0  0  0
 24 23  1  0  0  0
 26 25  2  0  0  0
 23 22  2  0  0  0
 25 22  1  0  0  0
 22 21  1  0  0  0
 21  3  1  0  0  0
  3  1  1  0  0  0
  9 10  1  0  0  0
  9  7  1  0  0  0
  1  2  2  0  0  0
  1 10  1  0  0  0
 10  5  1  0  0  0
  7  8  1  0  0  0
  7  6  1  0  0  0
  5  6  1  0  0  0
  5 12  1  0  0  0
 13 12  2  0  0  0
 12 14  1  0  0  0
 15 14  1  0  0  0
 14 19  1  0  0  0
 19 17  1  0  0  0
 18 17  2  0  0  0
 17 16  1  0  0  0
 19 20  1  0  0  0
  8 11  1  0  0  0
  3  4  1  0  0  0
M  END
> <minimizedAffinity>
-6.56648

$$$$
6FMJ_DV5_C_301


 33 35  0  0  0  0  0  0  0  0999 V2000
   13.1763   54.1563   90.8634 C   0  0  0  0  0  0  0  0  0  0  0  0
   14.3145   53.7499   91.0917 O   0  0  0  0  0  0  0  0  0  0  0  0
   12.7700   54.5324   89.6314 N   0  0  0  0  0  0  0  0  0  0  0  0
   11.8468   54.8484   89.5012 H   0  0  0  0  0  0  0  0  0  0  0  0
   11.7334   52.9258   92.3810 N   0  0  0  0  0  0  0  0  0  0  0  0
   12.1191   52.7516   93.8099 C   0  0  0  0  0  0  0  0  0  0  0  0
   12.4563   54.1337   94.3197 C   0  0  0  0  0  0  0  0  0  0  0  0
   11.2678   54.8053   94.7334 O   0  0  0  0  0  0  0  0  0  0  0  0
   13.0195   54.8340   93.1110 C   0  0  0  0  0  0  0  0  0  0  0  0
   12.2554   54.2721   91.9180 C   0  0  0  0  0  0  0  0  0  0  0  0
   10.6411   54.8386   93.9937 H   0  0  0  0  0  0  0  0  0  0  0  0
   11.0113   52.0421   91.6559 C   0  0  0  0  0  0  0  0  0  0  0  0
    9.3780   52.1915   91.4713 S   0  0  0  0  0  0  0  0  0  0  0  0
   11.7119   50.9001   90.8822 C   0  0  0  0  0  0  0  0  0  0  0  0
   10.7015   50.3281   89.8816 C   0  0  0  0  0  0  0  0  0  0  0  0
   13.7499   48.5022   93.0416 C   0  0  0  0  0  0  0  0  0  0  0  0
   13.4526   49.6855   92.1170 C   0  0  0  0  0  0  0  0  0  0  0  0
   14.3516   50.4484   91.7659 O   0  0  0  0  0  0  0  0  0  0  0  0
   12.1654   49.8136   91.7657 N   0  0  0  0  0  0  0  0  0  0  0  0
   11.5075   49.1654   92.1069 H   0  0  0  0  0  0  0  0  0  0  0  0
   13.6837   54.4774   88.4827 C   0  0  0  0  0  0  0  0  0  0  0  0
   13.0654   53.8297   87.3932 C   0  0  0  0  0  0  0  0  0  0  0  0
   12.0026   52.9627   87.6563 C   0  0  0  0  0  0  0  0  0  0  0  0
   11.3437   52.2797   86.6337 C   0  0  0  0  0  0  0  0  0  0  0  0
   13.4387   53.9984   86.0554 C   0  0  0  0  0  0  0  0  0  0  0  0
   12.7782   53.3154   85.0316 C   0  0  0  0  0  0  0  0  0  0  0  0
   11.7141   52.4534   85.2965 C   0  0  0  0  0  0  0  0  0  0  0  0
   11.0959   51.8184   84.2890 C   0  0  0  0  0  0  0  0  0  0  0  0
    9.7438   52.4037   83.4866 S   0  0  0  0  0  0  0  0  0  0  0  0
    9.5913   51.0994   82.4511 C   0  0  0  0  0  0  0  0  0  0  0  0
   10.5707   50.2426   82.7460 N   0  0  0  0  0  0  0  0  0  0  0  0
   11.3821   50.6238   83.7410 C   0  0  0  0  0  0  0  0  0  0  0  0
   12.5309   49.6907   84.1388 C   0  0  0  0  0  0  0  0  0  0  0  0
 31 30  2  0  0  0
 31 32  1  0  0  0
 30 29  1  0  0  0
 33 32  1  0  0  0
 32 28  2  0  0  0
 29 28  1  0  0  0
 28 27  1  0  0  0
 27 24  2  0  0  0
 27 26  1  0  0  0
 24 23  1  0  0  0
 26 25  2  0  0  0
 23 22  2  0  0  0
 25 22  1  0  0  0
 22 21  1  0  0  0
 21  3  1  0  0  0
  3  1  1  0  0  0
  9 10  1  0  0  0
  9  7  1  0  0  0
  1  2  2  0  0  0
  1 10  1  0  0  0
 10  5  1  0  0  0
  7  8  1  0  0  0
  7  6  1  0  0  0
  5  6  1  0  0  0
  5 12  1  0  0  0
 13 12  2  0  0  0
 12 14  1  0  0  0
 15 14  1  0  0  0
 14 19  1  0  0  0
 19 17  1  0  0  0
 18 17  2  0  0  0
 17 16  1  0  0  0
 19 20  1  0  0  0
  8 11  1  0  0  0
  3  4  1  0  0  0
M  END
> <minimizedAffinity>
-6.51588

$$$$
