2PBW_DOQ_A_401
  RCSB PDB12061706373D
Coordinates from PDB:2PBW:A:401 Model:1 without hydrogens
 22 22  0  0  0  0            999 V2000
   -6.1740  -31.0290   81.8850   O 0  0  0  0  0  0  0  0  0  0  0  0
   -5.6640  -32.0940   82.2960   C 0  0  0  0  0  0  0  0  0  0  0  0
   -5.0050  -32.2330   83.3500   O 0  0  0  0  0  0  0  0  0  0  0  0
   -5.8400  -33.3360   81.4200   C 0  0  0  0  0  0  0  0  0  0  0  0
   -6.9150  -34.2480   82.0140   C 0  0  0  0  0  0  0  0  0  0  0  0
   -4.5030  -34.0760   81.3500   C 0  0  0  0  0  0  0  0  0  0  0  0
   -3.8360  -34.1580   80.1350   C 0  0  0  0  0  0  0  0  0  0  0  0
   -2.6110  -34.8100   80.0470   C 0  0  0  0  0  0  0  0  0  0  0  0
   -1.9500  -34.8900   78.8260   C 0  0  0  0  0  0  0  0  0  0  0  0
   -0.5810  -35.5670   78.7530   C 0  0  0  0  0  0  0  0  0  0  0  0
   -2.5670  -34.2740   77.5680   C 0  0  0  0  0  0  0  0  0  0  0  0
   -1.5600  -34.1610   76.4250   C 0  0  0  0  0  0  0  0  0  0  0  0
   -2.4070  -34.0110   75.2300   N 0  0  0  0  0  0  0  0  0  0  0  0
   -3.7380  -34.5460   75.5630   C 0  0  0  0  0  0  0  0  0  0  0  0
   -4.7620  -33.4080   75.5990   C 0  0  0  0  0  0  0  0  0  0  0  0
   -4.4040  -32.3070   75.1300   O 0  0  0  0  0  0  0  0  0  0  0  0
   -5.8850  -33.6650   76.0810   O 0  0  0  0  0  0  0  0  0  0  0  0
   -3.6030  -35.2050   76.9370   C 0  0  0  0  0  0  0  0  0  0  0  0
   -3.0160  -36.6140   76.8170   C 0  0  0  0  0  0  0  0  0  0  0  0
   -4.0540  -37.6130   76.3010   C 0  0  0  0  0  0  0  0  0  0  0  0
   -5.2580  -37.3140   76.4550   O 0  0  0  0  0  0  0  0  0  0  0  0
   -3.6200  -38.6610   75.7740   O 0  0  0  0  0  0  0  0  0  0  0  0
  1  2  2  0  0  0  0
  2  3  1  0  0  0  0
  2  4  1  0  0  0  0
  4  5  1  0  0  0  0
  4  6  1  0  0  0  0
  6  7  2  0  0  0  0
  7  8  1  0  0  0  0
  8  9  2  0  0  0  0
  9 10  1  0  0  0  0
  9 11  1  0  0  0  0
 11 12  1  0  0  0  0
 11 18  1  0  0  0  0
 12 13  1  0  0  0  0
 13 14  1  0  0  0  0
 14 15  1  0  0  0  0
 14 18  1  0  0  0  0
 15 16  2  0  0  0  0
 15 17  1  0  0  0  0
 18 19  1  0  0  0  0
 19 20  1  0  0  0  0
 20 21  1  0  0  0  0
 20 22  2  0  0  0  0
A    1
OAD
A    2
CAQ
A    3
OAG
A    4
CAS
A    5
CAB
A    6
CAK
A    7
CAI
A    8
CAJ
A    9
CAP
A   10
CAA
A   11
CAT
A   12
CAL
A   13
N
A   14
CA
A   15
C
A   16
OXT
A   17
O
A   18
CB
A   19
CG
A   20
CD
A   21
OE2
A   22
OE1
M  END
>  <InstanceId>
2PBW_DOQ_A_401

>  <ChemCompId>
DOQ

>  <PdbId>
2PBW

>  <ChainId>
A

>  <ResidueNumber>
401

>  <InsertionCode>


>  <Model>
1

>  <AltIds>


>  <MissingHeavyAtoms>
0

>  <ObservedFormula>
C15 N O6

>  <Name>
(2S,3S,4S)-2-CARBOXY-4-[(1Z,3E,5R)-5-CARBOXY-1-METHYL-1,3-HEXADIENYL]-3-PYRROLIDINEACETIC ACID

>  <SystematicName>
(2S,3S,4S)-3-(carboxymethyl)-4-[(2Z,4E,6R)-7-hydroxy-6-methyl-7-oxo-hepta-2,4-dien-2-yl]pyrrolidine-2-carboxylic acid

>  <Synonyms>
(2S,3S,4S)-3-CARBOXYMETHYL-4-[(1Z,3E,5R)-5-CARBOXY-1-METHYL-HEXA-1,3-DIENYL]-PYRROLIDINE-2-CARBOXYLIC ACID; DOMOIC ACID

>  <Type>
NON-POLYMER

>  <Formula>
C15 H21 N O6

>  <MolecularWeight>
311.33

>  <ModifiedDate>
2011-06-04

>  <Parent>


>  <OneLetterCode>


>  <SubcomponentList>


>  <AmbiguousFlag>
N

>  <InChI>
InChI=1S/C15H21NO6/c1-8(4-3-5-9(2)14(19)20)11-7-16-13(15(21)22)10(11)6-12(17)18/h3-5,9-11,13,16H,6-7H2,1-2H3,(H,17,18)(H,19,20)(H,21,22)/b5-3+,8-4-/t9-,10+,11-,13+/m1/s1

>  <InChIKey>
VZFRNCSOCOPNDB-AOKDLOFSSA-N

>  <SMILES>
C[C@H](\C=C\C=C(\C)/[C@H]1CN[C@@H]([C@H]1CC(=O)O)C(=O)O)C(=O)O

$$$$
