2PBW_DOQ_A_401


 26 26  0  0  0  0  0  0  0  0999 V2000
   -2.5644  -34.2573   77.8078 C   0  0  0  0  0  0  0  0  0  0  0  0
   -1.3613  -34.2334   76.8669 C   0  0  0  0  0  0  0  0  0  0  0  0
   -1.9597  -33.9839   75.5449 N   0  0  0  0  0  0  0  0  0  0  0  0
   -3.3747  -34.3850   75.6186 C   0  0  0  0  0  0  0  0  0  0  0  0
   -3.5552  -35.0707   76.9742 C   0  0  0  0  0  0  0  0  0  0  0  0
   -1.4778  -34.5349   74.8346 H   0  0  0  0  0  0  0  0  0  0  0  0
   -4.2723  -33.1495   75.5054 C   0  0  0  0  0  0  0  0  0  0  0  0
   -5.4301  -33.2448   75.9643 O   0  0  0  0  0  0  0  0  0  0  0  0
   -3.7791  -32.1317   74.9758 O   0  0  0  0  0  0  0  0  0  0  0  0
   -2.8980  -32.1495   74.6574 H   0  0  0  0  0  0  0  0  0  0  0  0
   -3.1387  -34.8685   80.2018 C   0  0  0  0  0  0  0  0  0  0  0  0
   -2.2480  -34.9477   79.1367 C   0  0  0  0  0  0  0  0  0  0  0  0
   -0.9286  -35.7002   79.3119 C   0  0  0  0  0  0  0  0  0  0  0  0
   -4.8230  -33.4177   81.1372 C   0  0  0  0  0  0  0  0  0  0  0  0
   -4.3217  -34.1497   80.0692 C   0  0  0  0  0  0  0  0  0  0  0  0
   -6.1165  -32.6216   80.9558 C   0  0  0  0  0  0  0  0  0  0  0  0
   -6.5529  -32.6547   79.4900 C   0  0  0  0  0  0  0  0  0  0  0  0
   -8.1795  -32.5253   82.1326 O   0  0  0  0  0  0  0  0  0  0  0  0
   -7.1996  -33.2442   81.8391 C   0  0  0  0  0  0  0  0  0  0  0  0
   -7.0136  -34.4215   82.2184 O   0  0  0  0  0  0  0  0  0  0  0  0
   -6.2461  -34.8854   81.9471 H   0  0  0  0  0  0  0  0  0  0  0  0
   -3.0967  -36.5305   76.9187 C   0  0  0  0  0  0  0  0  0  0  0  0
   -4.2812  -37.4857   76.7566 C   0  0  0  0  0  0  0  0  0  0  0  0
   -5.0298  -37.3027   75.7723 O   0  0  0  0  0  0  0  0  0  0  0  0
   -4.4192  -38.3717   77.6286 O   0  0  0  0  0  0  0  0  0  0  0  0
   -4.8479  -36.6105   75.1676 H   0  0  0  0  0  0  0  0  0  0  0  0
 18 19  2  0  0  0
 19 20  1  0  0  0
 19 16  1  0  0  0
 16 17  1  0  0  0
 16 14  1  0  0  0
 14 15  2  0  0  0
 15 11  1  0  0  0
 11 12  2  0  0  0
 12 13  1  0  0  0
 12  1  1  0  0  0
  1  2  1  0  0  0
  1  5  1  0  0  0
  2  3  1  0  0  0
  3  4  1  0  0  0
  4  7  1  0  0  0
  4  5  1  0  0  0
  7  8  2  0  0  0
  7  9  1  0  0  0
  5 22  1  0  0  0
 22 23  1  0  0  0
 23 24  1  0  0  0
 23 25  2  0  0  0
 20 21  1  0  0  0
  3  6  1  0  0  0
  9 10  1  0  0  0
 24 26  1  0  0  0
M  END
> <minimizedAffinity>
-9.44791

$$$$
2PBW_DOQ_A_401


 26 26  0  0  0  0  0  0  0  0999 V2000
   -1.8960  -35.3376   77.4353 C   0  0  0  0  0  0  0  0  0  0  0  0
   -1.4416  -33.9457   76.9998 C   0  0  0  0  0  0  0  0  0  0  0  0
    0.0226  -34.0715   76.9088 N   0  0  0  0  0  0  0  0  0  0  0  0
    0.4189  -35.2207   77.7401 C   0  0  0  0  0  0  0  0  0  0  0  0
   -0.8389  -35.6588   78.4925 C   0  0  0  0  0  0  0  0  0  0  0  0
    0.4676  -33.2213   77.2546 H   0  0  0  0  0  0  0  0  0  0  0  0
    0.9462  -36.3495   76.8497 C   0  0  0  0  0  0  0  0  0  0  0  0
    1.3170  -37.3968   77.4206 O   0  0  0  0  0  0  0  0  0  0  0  0
    0.9549  -36.1483   75.6173 O   0  0  0  0  0  0  0  0  0  0  0  0
    0.6573  -35.3287   75.2742 H   0  0  0  0  0  0  0  0  0  0  0  0
   -3.9523  -36.5209   78.3329 C   0  0  0  0  0  0  0  0  0  0  0  0
   -3.3046  -35.3271   78.0339 C   0  0  0  0  0  0  0  0  0  0  0  0
   -4.0237  -33.9991   78.2727 C   0  0  0  0  0  0  0  0  0  0  0  0
   -3.4678  -38.3555   76.8443 C   0  0  0  0  0  0  0  0  0  0  0  0
   -3.3262  -37.7362   78.0789 C   0  0  0  0  0  0  0  0  0  0  0  0
   -2.7518  -39.6826   76.5875 C   0  0  0  0  0  0  0  0  0  0  0  0
   -1.2378  -39.4655   76.5564 C   0  0  0  0  0  0  0  0  0  0  0  0
   -2.1771  -41.1425   78.3731 O   0  0  0  0  0  0  0  0  0  0  0  0
   -3.1183  -40.6585   77.7074 C   0  0  0  0  0  0  0  0  0  0  0  0
   -4.3330  -40.9146   77.8605 O   0  0  0  0  0  0  0  0  0  0  0  0
   -4.9714  -40.5024   77.3125 H   0  0  0  0  0  0  0  0  0  0  0  0
   -1.0732  -34.7866   79.7289 C   0  0  0  0  0  0  0  0  0  0  0  0
   -0.8155  -35.5638   81.0217 C   0  0  0  0  0  0  0  0  0  0  0  0
   -0.2197  -34.9601   81.9401 O   0  0  0  0  0  0  0  0  0  0  0  0
   -1.2098  -36.7501   81.0588 O   0  0  0  0  0  0  0  0  0  0  0  0
    0.0394  -34.0673   81.8228 H   0  0  0  0  0  0  0  0  0  0  0  0
 18 19  2  0  0  0
 19 20  1  0  0  0
 19 16  1  0  0  0
 16 17  1  0  0  0
 16 14  1  0  0  0
 14 15  2  0  0  0
 15 11  1  0  0  0
 11 12  2  0  0  0
 12 13  1  0  0  0
 12  1  1  0  0  0
  1  2  1  0  0  0
  1  5  1  0  0  0
  2  3  1  0  0  0
  3  4  1  0  0  0
  4  7  1  0  0  0
  4  5  1  0  0  0
  7  8  2  0  0  0
  7  9  1  0  0  0
  5 22  1  0  0  0
 22 23  1  0  0  0
 23 24  1  0  0  0
 23 25  2  0  0  0
 20 21  1  0  0  0
  3  6  1  0  0  0
  9 10  1  0  0  0
 24 26  1  0  0  0
M  END
> <minimizedAffinity>
-8.48774

$$$$
2PBW_DOQ_A_401


 26 26  0  0  0  0  0  0  0  0999 V2000
   -3.9182  -35.4365   77.7933 C   0  0  0  0  0  0  0  0  0  0  0  0
   -4.2607  -35.8149   76.3536 C   0  0  0  0  0  0  0  0  0  0  0  0
   -3.2860  -36.8703   76.0310 N   0  0  0  0  0  0  0  0  0  0  0  0
   -2.1529  -36.7228   76.9601 C   0  0  0  0  0  0  0  0  0  0  0  0
   -2.3909  -35.4176   77.7218 C   0  0  0  0  0  0  0  0  0  0  0  0
   -2.9638  -36.7650   75.0690 H   0  0  0  0  0  0  0  0  0  0  0  0
   -2.1072  -37.9163   77.9184 C   0  0  0  0  0  0  0  0  0  0  0  0
   -1.3493  -37.8221   78.9068 O   0  0  0  0  0  0  0  0  0  0  0  0
   -2.8402  -38.8915   77.6517 O   0  0  0  0  0  0  0  0  0  0  0  0
   -3.3791  -38.8768   76.8853 H   0  0  0  0  0  0  0  0  0  0  0  0
   -4.5351  -33.6810   79.5174 C   0  0  0  0  0  0  0  0  0  0  0  0
   -4.4797  -34.0668   78.1824 C   0  0  0  0  0  0  0  0  0  0  0  0
   -5.0186  -33.1271   77.1033 C   0  0  0  0  0  0  0  0  0  0  0  0
   -2.8957  -34.2954   81.1761 C   0  0  0  0  0  0  0  0  0  0  0  0
   -4.0890  -34.5448   80.5116 C   0  0  0  0  0  0  0  0  0  0  0  0
   -2.4399  -35.2531   82.2784 C   0  0  0  0  0  0  0  0  0  0  0  0
   -1.0999  -35.8880   81.9021 C   0  0  0  0  0  0  0  0  0  0  0  0
   -1.4085  -33.5864   83.6231 O   0  0  0  0  0  0  0  0  0  0  0  0
   -2.2982  -34.4639   83.5814 C   0  0  0  0  0  0  0  0  0  0  0  0
   -3.0714  -34.7697   84.5158 O   0  0  0  0  0  0  0  0  0  0  0  0
   -3.7107  -35.4437   84.3933 H   0  0  0  0  0  0  0  0  0  0  0  0
   -1.9341  -34.2091   76.9002 C   0  0  0  0  0  0  0  0  0  0  0  0
   -0.4520  -34.3077   76.5322 C   0  0  0  0  0  0  0  0  0  0  0  0
   -0.1701  -34.3713   75.3160 O   0  0  0  0  0  0  0  0  0  0  0  0
    0.3671  -34.3296   77.4772 O   0  0  0  0  0  0  0  0  0  0  0  0
   -0.8531  -34.3476   74.6749 H   0  0  0  0  0  0  0  0  0  0  0  0
 18 19  2  0  0  0
 19 20  1  0  0  0
 19 16  1  0  0  0
 16 17  1  0  0  0
 16 14  1  0  0  0
 14 15  2  0  0  0
 15 11  1  0  0  0
 11 12  2  0  0  0
 12 13  1  0  0  0
 12  1  1  0  0  0
  1  2  1  0  0  0
  1  5  1  0  0  0
  2  3  1  0  0  0
  3  4  1  0  0  0
  4  7  1  0  0  0
  4  5  1  0  0  0
  7  8  2  0  0  0
  7  9  1  0  0  0
  5 22  1  0  0  0
 22 23  1  0  0  0
 23 24  1  0  0  0
 23 25  2  0  0  0
 20 21  1  0  0  0
  3  6  1  0  0  0
  9 10  1  0  0  0
 24 26  1  0  0  0
M  END
> <minimizedAffinity>
-7.92746

$$$$
2PBW_DOQ_A_401


 26 26  0  0  0  0  0  0  0  0999 V2000
   -3.6820  -35.4094   77.6838 C   0  0  0  0  0  0  0  0  0  0  0  0
   -3.7637  -36.1027   76.3252 C   0  0  0  0  0  0  0  0  0  0  0  0
   -2.6591  -37.0755   76.3651 N   0  0  0  0  0  0  0  0  0  0  0  0
   -1.7001  -36.6121   77.3822 C   0  0  0  0  0  0  0  0  0  0  0  0
   -2.1699  -35.2208   77.8111 C   0  0  0  0  0  0  0  0  0  0  0  0
   -2.2041  -37.1238   75.4535 H   0  0  0  0  0  0  0  0  0  0  0  0
   -1.6936  -37.5789   78.5697 C   0  0  0  0  0  0  0  0  0  0  0  0
   -1.7596  -38.7987   78.3091 O   0  0  0  0  0  0  0  0  0  0  0  0
   -1.6088  -37.0805   79.7116 O   0  0  0  0  0  0  0  0  0  0  0  0
   -1.5638  -36.1503   79.8147 H   0  0  0  0  0  0  0  0  0  0  0  0
   -4.8789  -33.5271   78.8916 C   0  0  0  0  0  0  0  0  0  0  0  0
   -4.4188  -34.0679   77.6958 C   0  0  0  0  0  0  0  0  0  0  0  0
   -4.6858  -33.3308   76.3831 C   0  0  0  0  0  0  0  0  0  0  0  0
   -4.6508  -33.5213   81.2925 C   0  0  0  0  0  0  0  0  0  0  0  0
   -4.6812  -34.2094   80.0869 C   0  0  0  0  0  0  0  0  0  0  0  0
   -4.4505  -34.3011   82.5932 C   0  0  0  0  0  0  0  0  0  0  0  0
   -3.3687  -33.6341   83.4446 C   0  0  0  0  0  0  0  0  0  0  0  0
   -6.5411  -33.3479   83.2022 O   0  0  0  0  0  0  0  0  0  0  0  0
   -5.7767  -34.3253   83.3558 C   0  0  0  0  0  0  0  0  0  0  0  0
   -5.9886  -35.3138   84.0924 O   0  0  0  0  0  0  0  0  0  0  0  0
   -5.3559  -36.0029   84.1452 H   0  0  0  0  0  0  0  0  0  0  0  0
   -1.7043  -34.1518   76.8188 C   0  0  0  0  0  0  0  0  0  0  0  0
   -0.2189  -34.3045   76.4845 C   0  0  0  0  0  0  0  0  0  0  0  0
    0.5934  -34.1698   77.4251 O   0  0  0  0  0  0  0  0  0  0  0  0
    0.0729  -34.5409   75.2914 O   0  0  0  0  0  0  0  0  0  0  0  0
    0.2823  -33.9932   78.2911 H   0  0  0  0  0  0  0  0  0  0  0  0
 18 19  2  0  0  0
 19 20  1  0  0  0
 19 16  1  0  0  0
 16 17  1  0  0  0
 16 14  1  0  0  0
 14 15  2  0  0  0
 15 11  1  0  0  0
 11 12  2  0  0  0
 12 13  1  0  0  0
 12  1  1  0  0  0
  1  2  1  0  0  0
  1  5  1  0  0  0
  2  3  1  0  0  0
  3  4  1  0  0  0
  4  7  1  0  0  0
  4  5  1  0  0  0
  7  8  2  0  0  0
  7  9  1  0  0  0
  5 22  1  0  0  0
 22 23  1  0  0  0
 23 24  1  0  0  0
 23 25  2  0  0  0
 20 21  1  0  0  0
  3  6  1  0  0  0
  9 10  1  0  0  0
 24 26  1  0  0  0
M  END
> <minimizedAffinity>
-7.77405

$$$$
2PBW_DOQ_A_401


 26 26  0  0  0  0  0  0  0  0999 V2000
   -3.1840  -35.3151   78.6153 C   0  0  0  0  0  0  0  0  0  0  0  0
   -2.9039  -36.7342   78.1243 C   0  0  0  0  0  0  0  0  0  0  0  0
   -1.6535  -37.0985   78.8112 N   0  0  0  0  0  0  0  0  0  0  0  0
   -0.9843  -35.8463   79.2021 C   0  0  0  0  0  0  0  0  0  0  0  0
   -1.7795  -34.7141   78.5494 C   0  0  0  0  0  0  0  0  0  0  0  0
   -1.0536  -37.6329   78.1829 H   0  0  0  0  0  0  0  0  0  0  0  0
   -0.9865  -35.7095   80.7273 C   0  0  0  0  0  0  0  0  0  0  0  0
   -1.1583  -36.7538   81.3909 O   0  0  0  0  0  0  0  0  0  0  0  0
   -0.8028  -34.5678   81.1987 O   0  0  0  0  0  0  0  0  0  0  0  0
   -0.6823  -33.8375   80.6242 H   0  0  0  0  0  0  0  0  0  0  0  0
   -5.0186  -33.6073   78.2254 C   0  0  0  0  0  0  0  0  0  0  0  0
   -4.1588  -34.5673   77.7025 C   0  0  0  0  0  0  0  0  0  0  0  0
   -4.2176  -34.8997   76.2113 C   0  0  0  0  0  0  0  0  0  0  0  0
   -6.1960  -33.1538   80.2807 C   0  0  0  0  0  0  0  0  0  0  0  0
   -5.0056  -33.3277   79.5874 C   0  0  0  0  0  0  0  0  0  0  0  0
   -6.1508  -32.8658   81.7824 C   0  0  0  0  0  0  0  0  0  0  0  0
   -4.7021  -32.6861   82.2398 C   0  0  0  0  0  0  0  0  0  0  0  0
   -7.5365  -31.5113   83.1590 O   0  0  0  0  0  0  0  0  0  0  0  0
   -6.9494  -31.5902   82.0580 C   0  0  0  0  0  0  0  0  0  0  0  0
   -6.9713  -30.7287   81.1514 O   0  0  0  0  0  0  0  0  0  0  0  0
   -6.4987  -30.8740   80.3555 H   0  0  0  0  0  0  0  0  0  0  0  0
   -1.3728  -34.5282   77.0851 C   0  0  0  0  0  0  0  0  0  0  0  0
    0.0667  -34.9855   76.8394 C   0  0  0  0  0  0  0  0  0  0  0  0
    0.9798  -34.2149   77.2071 O   0  0  0  0  0  0  0  0  0  0  0  0
    0.2226  -36.0919   76.2773 O   0  0  0  0  0  0  0  0  0  0  0  0
    0.7680  -33.4020   77.6223 H   0  0  0  0  0  0  0  0  0  0  0  0
 18 19  2  0  0  0
 19 20  1  0  0  0
 19 16  1  0  0  0
 16 17  1  0  0  0
 16 14  1  0  0  0
 14 15  2  0  0  0
 15 11  1  0  0  0
 11 12  2  0  0  0
 12 13  1  0  0  0
 12  1  1  0  0  0
  1  2  1  0  0  0
  1  5  1  0  0  0
  2  3  1  0  0  0
  3  4  1  0  0  0
  4  7  1  0  0  0
  4  5  1  0  0  0
  7  8  2  0  0  0
  7  9  1  0  0  0
  5 22  1  0  0  0
 22 23  1  0  0  0
 23 24  1  0  0  0
 23 25  2  0  0  0
 20 21  1  0  0  0
  3  6  1  0  0  0
  9 10  1  0  0  0
 24 26  1  0  0  0
M  END
> <minimizedAffinity>
-7.67988

$$$$
2PBW_DOQ_A_401


 26 26  0  0  0  0  0  0  0  0999 V2000
   -3.0766  -35.4258   78.5036 C   0  0  0  0  0  0  0  0  0  0  0  0
   -2.7711  -34.4649   77.3562 C   0  0  0  0  0  0  0  0  0  0  0  0
   -3.0407  -35.2667   76.1511 N   0  0  0  0  0  0  0  0  0  0  0  0
   -2.9577  -36.6853   76.5377 C   0  0  0  0  0  0  0  0  0  0  0  0
   -2.4320  -36.7075   77.9742 C   0  0  0  0  0  0  0  0  0  0  0  0
   -2.3468  -35.0601   75.4326 H   0  0  0  0  0  0  0  0  0  0  0  0
   -4.3439  -37.3300   76.4511 C   0  0  0  0  0  0  0  0  0  0  0  0
   -4.7529  -37.9352   77.4644 O   0  0  0  0  0  0  0  0  0  0  0  0
   -4.9718  -37.1932   75.3803 O   0  0  0  0  0  0  0  0  0  0  0  0
   -4.5865  -36.7215   74.6683 H   0  0  0  0  0  0  0  0  0  0  0  0
   -3.2280  -34.4947   80.8583 C   0  0  0  0  0  0  0  0  0  0  0  0
   -2.4382  -34.9783   79.8208 C   0  0  0  0  0  0  0  0  0  0  0  0
   -0.9193  -35.0266   79.9892 C   0  0  0  0  0  0  0  0  0  0  0  0
   -5.3010  -33.3108   81.2011 C   0  0  0  0  0  0  0  0  0  0  0  0
   -4.6066  -34.4043   80.7011 C   0  0  0  0  0  0  0  0  0  0  0  0
   -6.8147  -33.2296   80.9963 C   0  0  0  0  0  0  0  0  0  0  0  0
   -7.5272  -33.1983   82.3497 C   0  0  0  0  0  0  0  0  0  0  0  0
   -6.9978  -30.8674   80.8050 O   0  0  0  0  0  0  0  0  0  0  0  0
   -7.1320  -31.9575   80.2076 C   0  0  0  0  0  0  0  0  0  0  0  0
   -7.5215  -32.1047   79.0282 O   0  0  0  0  0  0  0  0  0  0  0  0
   -7.5919  -32.9642   78.6618 H   0  0  0  0  0  0  0  0  0  0  0  0
   -0.9082  -36.5622   78.0056 C   0  0  0  0  0  0  0  0  0  0  0  0
   -0.2251  -37.6172   77.1326 C   0  0  0  0  0  0  0  0  0  0  0  0
   -0.3309  -38.8097   77.4926 O   0  0  0  0  0  0  0  0  0  0  0  0
    0.3990  -37.2063   76.1296 O   0  0  0  0  0  0  0  0  0  0  0  0
   -0.8208  -39.0252   78.2617 H   0  0  0  0  0  0  0  0  0  0  0  0
 18 19  2  0  0  0
 19 20  1  0  0  0
 19 16  1  0  0  0
 16 17  1  0  0  0
 16 14  1  0  0  0
 14 15  2  0  0  0
 15 11  1  0  0  0
 11 12  2  0  0  0
 12 13  1  0  0  0
 12  1  1  0  0  0
  1  2  1  0  0  0
  1  5  1  0  0  0
  2  3  1  0  0  0
  3  4  1  0  0  0
  4  7  1  0  0  0
  4  5  1  0  0  0
  7  8  2  0  0  0
  7  9  1  0  0  0
  5 22  1  0  0  0
 22 23  1  0  0  0
 23 24  1  0  0  0
 23 25  2  0  0  0
 20 21  1  0  0  0
  3  6  1  0  0  0
  9 10  1  0  0  0
 24 26  1  0  0  0
M  END
> <minimizedAffinity>
-7.61216

$$$$
2PBW_DOQ_A_401


 26 26  0  0  0  0  0  0  0  0999 V2000
   -1.9926  -34.8629   77.7855 C   0  0  0  0  0  0  0  0  0  0  0  0
   -1.9515  -35.2535   79.2616 C   0  0  0  0  0  0  0  0  0  0  0  0
   -1.0352  -36.4056   79.2902 N   0  0  0  0  0  0  0  0  0  0  0  0
   -0.9988  -36.9738   77.9321 C   0  0  0  0  0  0  0  0  0  0  0  0
   -2.0797  -36.2432   77.1332 C   0  0  0  0  0  0  0  0  0  0  0  0
   -1.3743  -37.1044   79.9513 H   0  0  0  0  0  0  0  0  0  0  0  0
    0.3842  -36.7529   77.3127 C   0  0  0  0  0  0  0  0  0  0  0  0
    0.4746  -36.8631   76.0717 O   0  0  0  0  0  0  0  0  0  0  0  0
    1.3187  -36.4650   78.0894 O   0  0  0  0  0  0  0  0  0  0  0  0
    1.1599  -36.4034   79.0108 H   0  0  0  0  0  0  0  0  0  0  0  0
   -4.1678  -33.7209   78.4174 C   0  0  0  0  0  0  0  0  0  0  0  0
   -3.2128  -34.0031   77.4466 C   0  0  0  0  0  0  0  0  0  0  0  0
   -3.4068  -33.4787   76.0235 C   0  0  0  0  0  0  0  0  0  0  0  0
   -4.6619  -33.6178   80.7757 C   0  0  0  0  0  0  0  0  0  0  0  0
   -4.0252  -34.2291   79.7039 C   0  0  0  0  0  0  0  0  0  0  0  0
   -4.5018  -34.2105   82.1768 C   0  0  0  0  0  0  0  0  0  0  0  0
   -3.6019  -33.3126   83.0277 C   0  0  0  0  0  0  0  0  0  0  0  0
   -5.9370  -34.3292   84.0679 O   0  0  0  0  0  0  0  0  0  0  0  0
   -5.8860  -34.3242   82.8187 C   0  0  0  0  0  0  0  0  0  0  0  0
   -6.8631  -34.4235   82.0441 O   0  0  0  0  0  0  0  0  0  0  0  0
   -6.7292  -34.4100   81.1168 H   0  0  0  0  0  0  0  0  0  0  0  0
   -3.4622  -36.8456   77.3979 C   0  0  0  0  0  0  0  0  0  0  0  0
   -3.9455  -37.6849   76.2131 C   0  0  0  0  0  0  0  0  0  0  0  0
   -3.4099  -38.8027   76.0508 O   0  0  0  0  0  0  0  0  0  0  0  0
   -4.8327  -37.1843   75.4874 O   0  0  0  0  0  0  0  0  0  0  0  0
   -2.7502  -39.0972   76.6475 H   0  0  0  0  0  0  0  0  0  0  0  0
 18 19  2  0  0  0
 19 20  1  0  0  0
 19 16  1  0  0  0
 16 17  1  0  0  0
 16 14  1  0  0  0
 14 15  2  0  0  0
 15 11  1  0  0  0
 11 12  2  0  0  0
 12 13  1  0  0  0
 12  1  1  0  0  0
  1  2  1  0  0  0
  1  5  1  0  0  0
  2  3  1  0  0  0
  3  4  1  0  0  0
  4  7  1  0  0  0
  4  5  1  0  0  0
  7  8  2  0  0  0
  7  9  1  0  0  0
  5 22  1  0  0  0
 22 23  1  0  0  0
 23 24  1  0  0  0
 23 25  2  0  0  0
 20 21  1  0  0  0
  3  6  1  0  0  0
  9 10  1  0  0  0
 24 26  1  0  0  0
M  END
> <minimizedAffinity>
-7.36126

$$$$
2PBW_DOQ_A_401


 26 26  0  0  0  0  0  0  0  0999 V2000
   -5.1001  -32.5845   81.8972 C   0  0  0  0  0  0  0  0  0  0  0  0
   -4.9206  -31.5836   83.0371 C   0  0  0  0  0  0  0  0  0  0  0  0
   -4.0514  -32.2947   83.9894 N   0  0  0  0  0  0  0  0  0  0  0  0
   -4.1787  -33.7353   83.7115 C   0  0  0  0  0  0  0  0  0  0  0  0
   -5.3079  -33.8760   82.6891 C   0  0  0  0  0  0  0  0  0  0  0  0
   -4.3466  -32.0967   84.9455 H   0  0  0  0  0  0  0  0  0  0  0  0
   -2.8603  -34.2752   83.1500 C   0  0  0  0  0  0  0  0  0  0  0  0
   -2.0087  -33.4342   82.7923 O   0  0  0  0  0  0  0  0  0  0  0  0
   -2.7249  -35.5158   83.1028 O   0  0  0  0  0  0  0  0  0  0  0  0
   -3.4189  -36.0742   83.3934 H   0  0  0  0  0  0  0  0  0  0  0  0
   -6.3513  -32.6525   79.6916 C   0  0  0  0  0  0  0  0  0  0  0  0
   -6.3148  -32.2584   81.0248 C   0  0  0  0  0  0  0  0  0  0  0  0
   -7.4829  -31.4625   81.6077 C   0  0  0  0  0  0  0  0  0  0  0  0
   -5.0413  -33.2913   77.7701 C   0  0  0  0  0  0  0  0  0  0  0  0
   -5.2758  -33.3383   79.1378 C   0  0  0  0  0  0  0  0  0  0  0  0
   -3.8393  -34.0404   77.1919 C   0  0  0  0  0  0  0  0  0  0  0  0
   -4.0198  -35.5479   77.3793 C   0  0  0  0  0  0  0  0  0  0  0  0
   -4.7361  -33.2140   75.1516 O   0  0  0  0  0  0  0  0  0  0  0  0
   -3.7280  -33.7071   75.7028 C   0  0  0  0  0  0  0  0  0  0  0  0
   -2.6414  -33.9718   75.1428 O   0  0  0  0  0  0  0  0  0  0  0  0
   -1.9371  -34.3418   75.6379 H   0  0  0  0  0  0  0  0  0  0  0  0
   -6.6776  -33.8400   83.3725 C   0  0  0  0  0  0  0  0  0  0  0  0
   -6.6031  -34.3649   84.8080 C   0  0  0  0  0  0  0  0  0  0  0  0
   -6.5315  -35.6038   84.9585 O   0  0  0  0  0  0  0  0  0  0  0  0
   -6.6318  -33.5150   85.7252 O   0  0  0  0  0  0  0  0  0  0  0  0
   -6.5153  -36.1665   84.2094 H   0  0  0  0  0  0  0  0  0  0  0  0
 18 19  2  0  0  0
 19 20  1  0  0  0
 19 16  1  0  0  0
 16 17  1  0  0  0
 16 14  1  0  0  0
 14 15  2  0  0  0
 15 11  1  0  0  0
 11 12  2  0  0  0
 12 13  1  0  0  0
 12  1  1  0  0  0
  1  2  1  0  0  0
  1  5  1  0  0  0
  2  3  1  0  0  0
  3  4  1  0  0  0
  4  7  1  0  0  0
  4  5  1  0  0  0
  7  8  2  0  0  0
  7  9  1  0  0  0
  5 22  1  0  0  0
 22 23  1  0  0  0
 23 24  1  0  0  0
 23 25  2  0  0  0
 20 21  1  0  0  0
  3  6  1  0  0  0
  9 10  1  0  0  0
 24 26  1  0  0  0
M  END
> <minimizedAffinity>
-7.35640

$$$$
2PBW_DOQ_A_401


 26 26  0  0  0  0  0  0  0  0999 V2000
   -4.7986  -33.7120   80.9655 C   0  0  0  0  0  0  0  0  0  0  0  0
   -5.8589  -34.7943   81.1593 C   0  0  0  0  0  0  0  0  0  0  0  0
   -7.1068  -34.0312   81.3279 N   0  0  0  0  0  0  0  0  0  0  0  0
   -6.7375  -32.6708   81.7541 C   0  0  0  0  0  0  0  0  0  0  0  0
   -5.2327  -32.7018   82.0281 C   0  0  0  0  0  0  0  0  0  0  0  0
   -7.6918  -34.4721   82.0377 H   0  0  0  0  0  0  0  0  0  0  0  0
   -7.0723  -31.6693   80.6450 C   0  0  0  0  0  0  0  0  0  0  0  0
   -7.1275  -32.1118   79.4782 O   0  0  0  0  0  0  0  0  0  0  0  0
   -7.2797  -30.4864   80.9871 O   0  0  0  0  0  0  0  0  0  0  0  0
   -7.2164  -30.2415   81.8893 H   0  0  0  0  0  0  0  0  0  0  0  0
   -2.6545  -34.8392   80.2124 C   0  0  0  0  0  0  0  0  0  0  0  0
   -3.3835  -34.2324   81.2295 C   0  0  0  0  0  0  0  0  0  0  0  0
   -2.7763  -34.1198   82.6282 C   0  0  0  0  0  0  0  0  0  0  0  0
   -2.8692  -34.1176   77.9212 C   0  0  0  0  0  0  0  0  0  0  0  0
   -3.2128  -34.9873   78.9475 C   0  0  0  0  0  0  0  0  0  0  0  0
   -3.4852  -34.3168   76.5352 C   0  0  0  0  0  0  0  0  0  0  0  0
   -4.0220  -35.7428   76.3987 C   0  0  0  0  0  0  0  0  0  0  0  0
   -4.9092  -32.9711   75.1894 O   0  0  0  0  0  0  0  0  0  0  0  0
   -4.6231  -33.3094   76.3586 C   0  0  0  0  0  0  0  0  0  0  0  0
   -5.1697  -32.8840   77.4001 O   0  0  0  0  0  0  0  0  0  0  0  0
   -4.8883  -33.1956   78.2377 H   0  0  0  0  0  0  0  0  0  0  0  0
   -4.9377  -33.2675   83.4199 C   0  0  0  0  0  0  0  0  0  0  0  0
   -5.1494  -32.2151   84.5106 C   0  0  0  0  0  0  0  0  0  0  0  0
   -4.2243  -31.3956   84.6985 O   0  0  0  0  0  0  0  0  0  0  0  0
   -6.2283  -32.2610   85.1416 O   0  0  0  0  0  0  0  0  0  0  0  0
   -3.4482  -31.4369   84.1751 H   0  0  0  0  0  0  0  0  0  0  0  0
 18 19  2  0  0  0
 19 20  1  0  0  0
 19 16  1  0  0  0
 16 17  1  0  0  0
 16 14  1  0  0  0
 14 15  2  0  0  0
 15 11  1  0  0  0
 11 12  2  0  0  0
 12 13  1  0  0  0
 12  1  1  0  0  0
  1  2  1  0  0  0
  1  5  1  0  0  0
  2  3  1  0  0  0
  3  4  1  0  0  0
  4  7  1  0  0  0
  4  5  1  0  0  0
  7  8  2  0  0  0
  7  9  1  0  0  0
  5 22  1  0  0  0
 22 23  1  0  0  0
 23 24  1  0  0  0
 23 25  2  0  0  0
 20 21  1  0  0  0
  3  6  1  0  0  0
  9 10  1  0  0  0
 24 26  1  0  0  0
M  END
> <minimizedAffinity>
-7.29624

$$$$
2PBW_DOQ_A_401


 26 26  0  0  0  0  0  0  0  0999 V2000
   -4.3796  -32.9842   82.2563 C   0  0  0  0  0  0  0  0  0  0  0  0
   -4.4931  -31.6643   83.0167 C   0  0  0  0  0  0  0  0  0  0  0  0
   -3.9420  -31.9806   84.3449 N   0  0  0  0  0  0  0  0  0  0  0  0
   -4.0291  -33.4399   84.5223 C   0  0  0  0  0  0  0  0  0  0  0  0
   -4.8354  -33.9682   83.3343 C   0  0  0  0  0  0  0  0  0  0  0  0
   -4.4840  -31.5085   85.0686 H   0  0  0  0  0  0  0  0  0  0  0  0
   -2.6230  -34.0462   84.5436 C   0  0  0  0  0  0  0  0  0  0  0  0
   -1.7502  -33.4332   85.1937 O   0  0  0  0  0  0  0  0  0  0  0  0
   -2.4527  -35.1160   83.9222 O   0  0  0  0  0  0  0  0  0  0  0  0
   -3.1670  -35.5077   83.4593 H   0  0  0  0  0  0  0  0  0  0  0  0
   -5.0617  -33.9416   80.0084 C   0  0  0  0  0  0  0  0  0  0  0  0
   -5.2959  -33.0286   81.0311 C   0  0  0  0  0  0  0  0  0  0  0  0
   -6.4562  -32.0405   80.9082 C   0  0  0  0  0  0  0  0  0  0  0  0
   -2.8210  -34.5651   79.3708 C   0  0  0  0  0  0  0  0  0  0  0  0
   -3.9832  -34.8157   80.0879 C   0  0  0  0  0  0  0  0  0  0  0  0
   -1.6440  -35.5346   79.4928 C   0  0  0  0  0  0  0  0  0  0  0  0
   -0.5091  -35.1032   78.5621 C   0  0  0  0  0  0  0  0  0  0  0  0
   -1.1782  -36.6257   81.5525 O   0  0  0  0  0  0  0  0  0  0  0  0
   -1.1604  -35.5334   80.9443 C   0  0  0  0  0  0  0  0  0  0  0  0
   -0.8015  -34.4341   81.4209 O   0  0  0  0  0  0  0  0  0  0  0  0
   -0.8215  -33.6635   80.8881 H   0  0  0  0  0  0  0  0  0  0  0  0
   -6.3389  -33.8033   83.5720 C   0  0  0  0  0  0  0  0  0  0  0  0
   -6.7635  -34.3973   84.9169 C   0  0  0  0  0  0  0  0  0  0  0  0
   -6.6283  -35.6315   85.0626 O   0  0  0  0  0  0  0  0  0  0  0  0
   -7.2262  -33.6046   85.7666 O   0  0  0  0  0  0  0  0  0  0  0  0
   -6.2705  -36.1488   84.3681 H   0  0  0  0  0  0  0  0  0  0  0  0
 18 19  2  0  0  0
 19 20  1  0  0  0
 19 16  1  0  0  0
 16 17  1  0  0  0
 16 14  1  0  0  0
 14 15  2  0  0  0
 15 11  1  0  0  0
 11 12  2  0  0  0
 12 13  1  0  0  0
 12  1  1  0  0  0
  1  2  1  0  0  0
  1  5  1  0  0  0
  2  3  1  0  0  0
  3  4  1  0  0  0
  4  7  1  0  0  0
  4  5  1  0  0  0
  7  8  2  0  0  0
  7  9  1  0  0  0
  5 22  1  0  0  0
 22 23  1  0  0  0
 23 24  1  0  0  0
 23 25  2  0  0  0
 20 21  1  0  0  0
  3  6  1  0  0  0
  9 10  1  0  0  0
 24 26  1  0  0  0
M  END
> <minimizedAffinity>
-7.23754

$$$$
