3UDD_34M_A_1


 29 32  0  0  0  0  0  0  0  0999 V2000
  -23.8236   -3.3564   10.5111 S   0  0  0  0  0  0  0  0  0  0  0  0
  -24.8053   -4.6929    9.9067 C   0  0  0  0  0  0  0  0  0  0  0  0
  -25.0381   -4.9332    8.6269 N   0  0  0  0  0  0  0  0  0  0  0  0
  -25.7696   -6.0183    8.6270 C   0  0  0  0  0  0  0  0  0  0  0  0
  -25.9656   -6.4951    9.7829 N   0  0  0  0  0  0  0  0  0  0  0  0
  -25.2894   -5.5914   10.6555 N   0  0  0  0  0  0  0  0  0  0  0  0
  -26.3516   -6.7231    7.4251 C   0  0  0  0  0  0  0  0  0  0  0  0
  -24.6366   -4.1825    7.5613 C   0  0  0  0  0  0  0  0  0  0  0  0
  -25.1771   -2.8990    7.3247 C   0  0  0  0  0  0  0  0  0  0  0  0
  -24.7664   -2.1563    6.2085 C   0  0  0  0  0  0  0  0  0  0  0  0
  -23.8065   -2.6800    5.3191 C   0  0  0  0  0  0  0  0  0  0  0  0
  -23.2720   -3.9732    5.5512 C   0  0  0  0  0  0  0  0  0  0  0  0
  -23.6663   -4.7020    6.6820 C   0  0  0  0  0  0  0  0  0  0  0  0
  -23.4882   -1.9150    4.1963 O   0  0  0  0  0  0  0  0  0  0  0  0
  -24.0907   -0.6491    3.8664 C   0  0  0  0  0  0  0  0  0  0  0  0
  -24.1678   -3.6455   12.2812 C   0  0  0  0  0  0  0  0  0  0  0  0
  -23.4311   -2.7008   13.1623 C   0  0  0  0  0  0  0  0  0  0  0  0
  -22.8038   -1.6543   12.8997 N   0  0  0  0  0  0  0  0  0  0  0  0
  -22.2362   -1.1202   14.0839 C   0  0  0  0  0  0  0  0  0  0  0  0
  -22.6182   -1.8376   15.0679 N   0  0  0  0  0  0  0  0  0  0  0  0
  -23.3864   -2.8755   14.4980 O   0  0  0  0  0  0  0  0  0  0  0  0
  -21.4795    0.1761   14.1753 C   0  0  0  0  0  0  0  0  0  0  0  0
  -21.1166    0.6725   15.4339 C   0  0  0  0  0  0  0  0  0  0  0  0
  -20.4701    1.9173   15.5281 C   0  0  0  0  0  0  0  0  0  0  0  0
  -20.2539    2.6906   14.3726 C   0  0  0  0  0  0  0  0  0  0  0  0
  -20.6567    2.1849   13.1101 C   0  0  0  0  0  0  0  0  0  0  0  0
  -21.3035    0.9449   13.0106 C   0  0  0  0  0  0  0  0  0  0  0  0
  -19.5921    3.9290   14.5319 O   0  0  0  0  0  0  0  0  0  0  0  0
  -19.7153    5.0013   13.5692 C   0  0  0  0  0  0  0  0  0  0  0  0
  1 16  1  0  0  0
  1  2  1  0  0  0
 16 17  1  0  0  0
 17 18  2  0  0  0
 17 21  1  0  0  0
 18 19  1  0  0  0
 19 20  2  0  0  0
 19 22  1  0  0  0
 20 21  1  0  0  0
 22 23  2  0  0  0
 22 27  1  0  0  0
 23 24  1  0  0  0
 24 25  2  0  0  0
 25 26  1  0  0  0
 25 28  1  0  0  0
 26 27  2  0  0  0
 28 29  1  0  0  0
  2  3  1  0  0  0
  2  6  2  0  0  0
  3  4  1  0  0  0
  3  8  1  0  0  0
  4  5  2  0  0  0
  4  7  1  0  0  0
  5  6  1  0  0  0
  8  9  2  0  0  0
  8 13  1  0  0  0
  9 10  1  0  0  0
 10 11  2  0  0  0
 11 12  1  0  0  0
 11 14  1  0  0  0
 12 13  2  0  0  0
 14 15  1  0  0  0
M  END
> <minimizedAffinity>
-10.72795

$$$$
3UDD_34M_A_1


 29 32  0  0  0  0  0  0  0  0999 V2000
  -25.6108   -4.3426   10.2219 S   0  0  0  0  0  0  0  0  0  0  0  0
  -24.7297   -3.9598    8.7412 C   0  0  0  0  0  0  0  0  0  0  0  0
  -24.5724   -4.7927    7.7258 N   0  0  0  0  0  0  0  0  0  0  0  0
  -23.8983   -4.1037    6.8406 C   0  0  0  0  0  0  0  0  0  0  0  0
  -23.6708   -2.9105    7.1961 N   0  0  0  0  0  0  0  0  0  0  0  0
  -24.2563   -2.8122    8.4934 N   0  0  0  0  0  0  0  0  0  0  0  0
  -23.4127   -4.5820    5.4932 C   0  0  0  0  0  0  0  0  0  0  0  0
  -24.9864   -6.0902    7.6526 C   0  0  0  0  0  0  0  0  0  0  0  0
  -24.1452   -7.1510    8.0559 C   0  0  0  0  0  0  0  0  0  0  0  0
  -24.5842   -8.4784    7.9483 C   0  0  0  0  0  0  0  0  0  0  0  0
  -25.8694   -8.7645    7.4451 C   0  0  0  0  0  0  0  0  0  0  0  0
  -26.7095   -7.6995    7.0302 C   0  0  0  0  0  0  0  0  0  0  0  0
  -26.2767   -6.3727    7.1631 C   0  0  0  0  0  0  0  0  0  0  0  0
  -26.2194  -10.1082    7.3074 O   0  0  0  0  0  0  0  0  0  0  0  0
  -27.5333  -10.5837    6.9582 C   0  0  0  0  0  0  0  0  0  0  0  0
  -24.1371   -4.6936   11.2416 C   0  0  0  0  0  0  0  0  0  0  0  0
  -23.8525   -3.6078   12.2171 C   0  0  0  0  0  0  0  0  0  0  0  0
  -22.8835   -2.8274   12.3157 N   0  0  0  0  0  0  0  0  0  0  0  0
  -23.0526   -1.9861   13.4441 C   0  0  0  0  0  0  0  0  0  0  0  0
  -24.1926   -2.2362   13.9607 N   0  0  0  0  0  0  0  0  0  0  0  0
  -24.7288   -3.2907   13.1907 O   0  0  0  0  0  0  0  0  0  0  0  0
  -22.1300   -0.8655   13.8371 C   0  0  0  0  0  0  0  0  0  0  0  0
  -21.7741   -0.7085   15.1827 C   0  0  0  0  0  0  0  0  0  0  0  0
  -20.9677    0.3780   15.5642 C   0  0  0  0  0  0  0  0  0  0  0  0
  -20.5809    1.3396   14.6125 C   0  0  0  0  0  0  0  0  0  0  0  0
  -20.9774    1.1803   13.2600 C   0  0  0  0  0  0  0  0  0  0  0  0
  -21.7830    0.0996   12.8743 C   0  0  0  0  0  0  0  0  0  0  0  0
  -19.7640    2.4038   15.0564 O   0  0  0  0  0  0  0  0  0  0  0  0
  -20.2780    3.4896   15.8617 C   0  0  0  0  0  0  0  0  0  0  0  0
  1 16  1  0  0  0
  1  2  1  0  0  0
 16 17  1  0  0  0
 17 18  2  0  0  0
 17 21  1  0  0  0
 18 19  1  0  0  0
 19 20  2  0  0  0
 19 22  1  0  0  0
 20 21  1  0  0  0
 22 23  2  0  0  0
 22 27  1  0  0  0
 23 24  1  0  0  0
 24 25  2  0  0  0
 25 26  1  0  0  0
 25 28  1  0  0  0
 26 27  2  0  0  0
 28 29  1  0  0  0
  2  3  1  0  0  0
  2  6  2  0  0  0
  3  4  1  0  0  0
  3  8  1  0  0  0
  4  5  2  0  0  0
  4  7  1  0  0  0
  5  6  1  0  0  0
  8  9  2  0  0  0
  8 13  1  0  0  0
  9 10  1  0  0  0
 10 11  2  0  0  0
 11 12  1  0  0  0
 11 14  1  0  0  0
 12 13  2  0  0  0
 14 15  1  0  0  0
M  END
> <minimizedAffinity>
-9.88510

$$$$
3UDD_34M_A_1


 29 32  0  0  0  0  0  0  0  0999 V2000
  -25.8564   -2.1221    7.5118 S   0  0  0  0  0  0  0  0  0  0  0  0
  -24.8913   -1.9447    6.0447 C   0  0  0  0  0  0  0  0  0  0  0  0
  -24.9921   -0.9327    5.1988 N   0  0  0  0  0  0  0  0  0  0  0  0
  -24.0859   -1.1786    4.2872 C   0  0  0  0  0  0  0  0  0  0  0  0
  -23.4044   -2.2193    4.5205 N   0  0  0  0  0  0  0  0  0  0  0  0
  -23.9501   -2.7324    5.7347 N   0  0  0  0  0  0  0  0  0  0  0  0
  -23.7877   -0.3569    3.0560 C   0  0  0  0  0  0  0  0  0  0  0  0
  -25.8781    0.1026    5.2545 C   0  0  0  0  0  0  0  0  0  0  0  0
  -25.5616    1.3017    5.9310 C   0  0  0  0  0  0  0  0  0  0  0  0
  -26.4986    2.3429    5.9954 C   0  0  0  0  0  0  0  0  0  0  0  0
  -27.7591    2.2051    5.3800 C   0  0  0  0  0  0  0  0  0  0  0  0
  -28.0805    0.9968    4.7100 C   0  0  0  0  0  0  0  0  0  0  0  0
  -27.1317   -0.0318    4.6260 C   0  0  0  0  0  0  0  0  0  0  0  0
  -28.6660    3.2543    5.5345 O   0  0  0  0  0  0  0  0  0  0  0  0
  -29.9008    3.1716    6.2711 C   0  0  0  0  0  0  0  0  0  0  0  0
  -25.1329   -3.7166    8.0306 C   0  0  0  0  0  0  0  0  0  0  0  0
  -24.7241   -3.7137    9.4604 C   0  0  0  0  0  0  0  0  0  0  0  0
  -24.0456   -2.8979   10.1176 N   0  0  0  0  0  0  0  0  0  0  0  0
  -23.8954   -3.3563   11.4507 C   0  0  0  0  0  0  0  0  0  0  0  0
  -24.5776   -4.4268   11.5834 N   0  0  0  0  0  0  0  0  0  0  0  0
  -25.1177   -4.6870   10.3056 O   0  0  0  0  0  0  0  0  0  0  0  0
  -23.2101   -2.6012   12.5559 C   0  0  0  0  0  0  0  0  0  0  0  0
  -23.4556   -2.9594   13.8876 C   0  0  0  0  0  0  0  0  0  0  0  0
  -22.8712   -2.2126   14.9254 C   0  0  0  0  0  0  0  0  0  0  0  0
  -22.1038   -1.0710   14.6291 C   0  0  0  0  0  0  0  0  0  0  0  0
  -21.8921   -0.7057   13.2749 C   0  0  0  0  0  0  0  0  0  0  0  0
  -22.4740   -1.4460   12.2361 C   0  0  0  0  0  0  0  0  0  0  0  0
  -21.5366   -0.3672   15.7153 O   0  0  0  0  0  0  0  0  0  0  0  0
  -20.8266    0.8808   15.5423 C   0  0  0  0  0  0  0  0  0  0  0  0
  1 16  1  0  0  0
  1  2  1  0  0  0
 16 17  1  0  0  0
 17 18  2  0  0  0
 17 21  1  0  0  0
 18 19  1  0  0  0
 19 20  2  0  0  0
 19 22  1  0  0  0
 20 21  1  0  0  0
 22 23  2  0  0  0
 22 27  1  0  0  0
 23 24  1  0  0  0
 24 25  2  0  0  0
 25 26  1  0  0  0
 25 28  1  0  0  0
 26 27  2  0  0  0
 28 29  1  0  0  0
  2  3  1  0  0  0
  2  6  2  0  0  0
  3  4  1  0  0  0
  3  8  1  0  0  0
  4  5  2  0  0  0
  4  7  1  0  0  0
  5  6  1  0  0  0
  8  9  2  0  0  0
  8 13  1  0  0  0
  9 10  1  0  0  0
 10 11  2  0  0  0
 11 12  1  0  0  0
 11 14  1  0  0  0
 12 13  2  0  0  0
 14 15  1  0  0  0
M  END
> <minimizedAffinity>
-8.89440

$$$$
3UDD_34M_A_1


 29 32  0  0  0  0  0  0  0  0999 V2000
  -24.0961   -2.7196    6.6143 S   0  0  0  0  0  0  0  0  0  0  0  0
  -25.2770   -1.4100    6.6905 C   0  0  0  0  0  0  0  0  0  0  0  0
  -25.3739   -0.4352    5.8016 N   0  0  0  0  0  0  0  0  0  0  0  0
  -26.3847    0.2848    6.2167 C   0  0  0  0  0  0  0  0  0  0  0  0
  -26.9490   -0.1840    7.2480 N   0  0  0  0  0  0  0  0  0  0  0  0
  -26.1953   -1.3545    7.5600 N   0  0  0  0  0  0  0  0  0  0  0  0
  -26.9186    1.5504    5.5893 C   0  0  0  0  0  0  0  0  0  0  0  0
  -24.5649   -0.2182    4.7252 C   0  0  0  0  0  0  0  0  0  0  0  0
  -23.3143    0.4232    4.8666 C   0  0  0  0  0  0  0  0  0  0  0  0
  -22.5110    0.6571    3.7414 C   0  0  0  0  0  0  0  0  0  0  0  0
  -22.9404    0.2476    2.4628 C   0  0  0  0  0  0  0  0  0  0  0  0
  -24.2010   -0.3868    2.3198 C   0  0  0  0  0  0  0  0  0  0  0  0
  -24.9897   -0.6416    3.4505 C   0  0  0  0  0  0  0  0  0  0  0  0
  -22.1210    0.5657    1.3791 O   0  0  0  0  0  0  0  0  0  0  0  0
  -20.6984    0.7760    1.4581 C   0  0  0  0  0  0  0  0  0  0  0  0
  -25.1032   -3.9444    7.5203 C   0  0  0  0  0  0  0  0  0  0  0  0
  -24.8381   -3.9234    8.9834 C   0  0  0  0  0  0  0  0  0  0  0  0
  -24.1245   -3.1699    9.6767 N   0  0  0  0  0  0  0  0  0  0  0  0
  -24.1663   -3.5774   11.0339 C   0  0  0  0  0  0  0  0  0  0  0  0
  -24.9938   -4.5439   11.1347 N   0  0  0  0  0  0  0  0  0  0  0  0
  -25.4371   -4.7954    9.8185 O   0  0  0  0  0  0  0  0  0  0  0  0
  -23.4974   -2.8628   12.1755 C   0  0  0  0  0  0  0  0  0  0  0  0
  -23.7594   -3.2711   13.4896 C   0  0  0  0  0  0  0  0  0  0  0  0
  -23.1906   -2.5624   14.5621 C   0  0  0  0  0  0  0  0  0  0  0  0
  -22.4223   -1.4089   14.3188 C   0  0  0  0  0  0  0  0  0  0  0  0
  -22.1939   -0.9927   12.9822 C   0  0  0  0  0  0  0  0  0  0  0  0
  -22.7602   -1.6948   11.9088 C   0  0  0  0  0  0  0  0  0  0  0  0
  -21.8712   -0.7451   15.4380 O   0  0  0  0  0  0  0  0  0  0  0  0
  -21.1083    0.4774   15.3139 C   0  0  0  0  0  0  0  0  0  0  0  0
  1 16  1  0  0  0
  1  2  1  0  0  0
 16 17  1  0  0  0
 17 18  2  0  0  0
 17 21  1  0  0  0
 18 19  1  0  0  0
 19 20  2  0  0  0
 19 22  1  0  0  0
 20 21  1  0  0  0
 22 23  2  0  0  0
 22 27  1  0  0  0
 23 24  1  0  0  0
 24 25  2  0  0  0
 25 26  1  0  0  0
 25 28  1  0  0  0
 26 27  2  0  0  0
 28 29  1  0  0  0
  2  3  1  0  0  0
  2  6  2  0  0  0
  3  4  1  0  0  0
  3  8  1  0  0  0
  4  5  2  0  0  0
  4  7  1  0  0  0
  5  6  1  0  0  0
  8  9  2  0  0  0
  8 13  1  0  0  0
  9 10  1  0  0  0
 10 11  2  0  0  0
 11 12  1  0  0  0
 11 14  1  0  0  0
 12 13  2  0  0  0
 14 15  1  0  0  0
M  END
> <minimizedAffinity>
-8.49746

$$$$
3UDD_34M_A_1


 29 32  0  0  0  0  0  0  0  0999 V2000
  -20.3780    1.9516   12.9800 S   0  0  0  0  0  0  0  0  0  0  0  0
  -20.1501    3.5482   13.6970 C   0  0  0  0  0  0  0  0  0  0  0  0
  -19.9102    4.6519   13.0086 N   0  0  0  0  0  0  0  0  0  0  0  0
  -19.8442    5.5934   13.9151 C   0  0  0  0  0  0  0  0  0  0  0  0
  -20.0709    5.1803   15.0897 N   0  0  0  0  0  0  0  0  0  0  0  0
  -20.2954    3.7801   14.9330 N   0  0  0  0  0  0  0  0  0  0  0  0
  -19.5555    7.0578   13.6864 C   0  0  0  0  0  0  0  0  0  0  0  0
  -19.7295    4.7596   11.6610 C   0  0  0  0  0  0  0  0  0  0  0  0
  -18.4682    4.5236   11.0702 C   0  0  0  0  0  0  0  0  0  0  0  0
  -18.3014    4.6644    9.6851 C   0  0  0  0  0  0  0  0  0  0  0  0
  -19.3910    5.0343    8.8710 C   0  0  0  0  0  0  0  0  0  0  0  0
  -20.6547    5.2816    9.4660 C   0  0  0  0  0  0  0  0  0  0  0  0
  -20.8234    5.1149   10.8477 C   0  0  0  0  0  0  0  0  0  0  0  0
  -19.1417    5.2162    7.5101 O   0  0  0  0  0  0  0  0  0  0  0  0
  -18.3579    4.3269    6.6920 C   0  0  0  0  0  0  0  0  0  0  0  0
  -20.7420    1.0840   14.5452 C   0  0  0  0  0  0  0  0  0  0  0  0
  -21.5766   -0.1294   14.3385 C   0  0  0  0  0  0  0  0  0  0  0  0
  -22.0458   -0.6343   13.2981 N   0  0  0  0  0  0  0  0  0  0  0  0
  -22.8151   -1.7806   13.6208 C   0  0  0  0  0  0  0  0  0  0  0  0
  -22.7162   -1.9865   14.8765 N   0  0  0  0  0  0  0  0  0  0  0  0
  -21.9267   -0.9250   15.3685 O   0  0  0  0  0  0  0  0  0  0  0  0
  -23.4680   -2.6966   12.6228 C   0  0  0  0  0  0  0  0  0  0  0  0
  -22.8933   -2.8527   11.3549 C   0  0  0  0  0  0  0  0  0  0  0  0
  -23.5372   -3.6537   10.3958 C   0  0  0  0  0  0  0  0  0  0  0  0
  -24.7855   -4.2358   10.6841 C   0  0  0  0  0  0  0  0  0  0  0  0
  -25.3668   -4.0405   11.9631 C   0  0  0  0  0  0  0  0  0  0  0  0
  -24.7297   -3.2412   12.9228 C   0  0  0  0  0  0  0  0  0  0  0  0
  -25.3781   -5.0365    9.6818 O   0  0  0  0  0  0  0  0  0  0  0  0
  -25.3784   -6.4813    9.7456 C   0  0  0  0  0  0  0  0  0  0  0  0
  1 16  1  0  0  0
  1  2  1  0  0  0
 16 17  1  0  0  0
 17 18  2  0  0  0
 17 21  1  0  0  0
 18 19  1  0  0  0
 19 20  2  0  0  0
 19 22  1  0  0  0
 20 21  1  0  0  0
 22 23  2  0  0  0
 22 27  1  0  0  0
 23 24  1  0  0  0
 24 25  2  0  0  0
 25 26  1  0  0  0
 25 28  1  0  0  0
 26 27  2  0  0  0
 28 29  1  0  0  0
  2  3  1  0  0  0
  2  6  2  0  0  0
  3  4  1  0  0  0
  3  8  1  0  0  0
  4  5  2  0  0  0
  4  7  1  0  0  0
  5  6  1  0  0  0
  8  9  2  0  0  0
  8 13  1  0  0  0
  9 10  1  0  0  0
 10 11  2  0  0  0
 11 12  1  0  0  0
 11 14  1  0  0  0
 12 13  2  0  0  0
 14 15  1  0  0  0
M  END
> <minimizedAffinity>
-8.35930

$$$$
3UDD_34M_A_1


 29 32  0  0  0  0  0  0  0  0999 V2000
  -25.1228   -2.9959    9.5126 S   0  0  0  0  0  0  0  0  0  0  0  0
  -24.4599   -3.9684    8.1973 C   0  0  0  0  0  0  0  0  0  0  0  0
  -24.2757   -3.5327    6.9620 N   0  0  0  0  0  0  0  0  0  0  0  0
  -23.7427   -4.5495    6.3339 C   0  0  0  0  0  0  0  0  0  0  0  0
  -23.5358   -5.5513    7.0792 N   0  0  0  0  0  0  0  0  0  0  0  0
  -24.0150   -5.1424    8.3593 N   0  0  0  0  0  0  0  0  0  0  0  0
  -23.3555   -4.6169    4.8759 C   0  0  0  0  0  0  0  0  0  0  0  0
  -24.6134   -2.3101    6.4605 C   0  0  0  0  0  0  0  0  0  0  0  0
  -25.8080   -1.6639    6.8489 C   0  0  0  0  0  0  0  0  0  0  0  0
  -26.1456   -0.4182    6.3010 C   0  0  0  0  0  0  0  0  0  0  0  0
  -25.2933    0.2025    5.3655 C   0  0  0  0  0  0  0  0  0  0  0  0
  -24.0992   -0.4517    4.9677 C   0  0  0  0  0  0  0  0  0  0  0  0
  -23.7527   -1.6851    5.5369 C   0  0  0  0  0  0  0  0  0  0  0  0
  -25.7188    1.4116    4.8141 O   0  0  0  0  0  0  0  0  0  0  0  0
  -25.5622    1.7850    3.4320 C   0  0  0  0  0  0  0  0  0  0  0  0
  -24.4718   -4.0312   10.8689 C   0  0  0  0  0  0  0  0  0  0  0  0
  -23.9495   -3.2189   11.9998 C   0  0  0  0  0  0  0  0  0  0  0  0
  -23.1180   -2.2886   12.0258 N   0  0  0  0  0  0  0  0  0  0  0  0
  -22.9197   -1.8538   13.3605 C   0  0  0  0  0  0  0  0  0  0  0  0
  -23.7231   -2.4993   14.1136 N   0  0  0  0  0  0  0  0  0  0  0  0
  -24.3962   -3.3983   13.2587 O   0  0  0  0  0  0  0  0  0  0  0  0
  -22.0525   -0.6980   13.7769 C   0  0  0  0  0  0  0  0  0  0  0  0
  -21.7036   -0.5519   15.1256 C   0  0  0  0  0  0  0  0  0  0  0  0
  -20.9507    0.5644   15.5298 C   0  0  0  0  0  0  0  0  0  0  0  0
  -20.6120    1.5633   14.5985 C   0  0  0  0  0  0  0  0  0  0  0  0
  -21.0013    1.4130   13.2428 C   0  0  0  0  0  0  0  0  0  0  0  0
  -21.7537    0.3026   12.8345 C   0  0  0  0  0  0  0  0  0  0  0  0
  -19.8475    2.6565   15.0646 O   0  0  0  0  0  0  0  0  0  0  0  0
  -19.9188    3.9661   14.4550 C   0  0  0  0  0  0  0  0  0  0  0  0
  1 16  1  0  0  0
  1  2  1  0  0  0
 16 17  1  0  0  0
 17 18  2  0  0  0
 17 21  1  0  0  0
 18 19  1  0  0  0
 19 20  2  0  0  0
 19 22  1  0  0  0
 20 21  1  0  0  0
 22 23  2  0  0  0
 22 27  1  0  0  0
 23 24  1  0  0  0
 24 25  2  0  0  0
 25 26  1  0  0  0
 25 28  1  0  0  0
 26 27  2  0  0  0
 28 29  1  0  0  0
  2  3  1  0  0  0
  2  6  2  0  0  0
  3  4  1  0  0  0
  3  8  1  0  0  0
  4  5  2  0  0  0
  4  7  1  0  0  0
  5  6  1  0  0  0
  8  9  2  0  0  0
  8 13  1  0  0  0
  9 10  1  0  0  0
 10 11  2  0  0  0
 11 12  1  0  0  0
 11 14  1  0  0  0
 12 13  2  0  0  0
 14 15  1  0  0  0
M  END
> <minimizedAffinity>
-8.25897

$$$$
3UDD_34M_A_1


 29 32  0  0  0  0  0  0  0  0999 V2000
  -23.8855   -4.5832    6.2148 S   0  0  0  0  0  0  0  0  0  0  0  0
  -24.3012   -4.3463    7.9137 C   0  0  0  0  0  0  0  0  0  0  0  0
  -24.8555   -5.2667    8.6853 N   0  0  0  0  0  0  0  0  0  0  0  0
  -24.9580   -4.6915    9.8563 C   0  0  0  0  0  0  0  0  0  0  0  0
  -24.4731   -3.5229    9.8890 N   0  0  0  0  0  0  0  0  0  0  0  0
  -24.0101   -3.2967    8.5587 N   0  0  0  0  0  0  0  0  0  0  0  0
  -25.5566   -5.2819   11.1106 C   0  0  0  0  0  0  0  0  0  0  0  0
  -25.2642   -6.5144    8.3160 C   0  0  0  0  0  0  0  0  0  0  0  0
  -24.3832   -7.6176    8.3642 C   0  0  0  0  0  0  0  0  0  0  0  0
  -24.8195   -8.8861    7.9561 C   0  0  0  0  0  0  0  0  0  0  0  0
  -26.1410   -9.0725    7.5025 C   0  0  0  0  0  0  0  0  0  0  0  0
  -27.0220   -7.9623    7.4442 C   0  0  0  0  0  0  0  0  0  0  0  0
  -26.5897   -6.7010    7.8770 C   0  0  0  0  0  0  0  0  0  0  0  0
  -26.4911  -10.3466    7.0540 O   0  0  0  0  0  0  0  0  0  0  0  0
  -27.8383  -10.7856    6.7957 C   0  0  0  0  0  0  0  0  0  0  0  0
  -23.0920   -2.9554    5.9784 C   0  0  0  0  0  0  0  0  0  0  0  0
  -24.0028   -1.9699    5.3376 C   0  0  0  0  0  0  0  0  0  0  0  0
  -25.0423   -1.4208    5.7567 N   0  0  0  0  0  0  0  0  0  0  0  0
  -25.5820   -0.5769    4.7536 C   0  0  0  0  0  0  0  0  0  0  0  0
  -24.7828   -0.5788    3.7585 N   0  0  0  0  0  0  0  0  0  0  0  0
  -23.7549   -1.4814    4.1062 O   0  0  0  0  0  0  0  0  0  0  0  0
  -26.7844    0.3107    4.9209 C   0  0  0  0  0  0  0  0  0  0  0  0
  -26.8263    1.2167    5.9883 C   0  0  0  0  0  0  0  0  0  0  0  0
  -27.9769    1.9992    6.1886 C   0  0  0  0  0  0  0  0  0  0  0  0
  -29.1045    1.8215    5.3658 C   0  0  0  0  0  0  0  0  0  0  0  0
  -29.0543    0.8765    4.3092 C   0  0  0  0  0  0  0  0  0  0  0  0
  -27.9100    0.0923    4.1060 C   0  0  0  0  0  0  0  0  0  0  0  0
  -30.2271    2.6436    5.6125 O   0  0  0  0  0  0  0  0  0  0  0  0
  -30.1405    3.8565    6.3955 C   0  0  0  0  0  0  0  0  0  0  0  0
  1 16  1  0  0  0
  1  2  1  0  0  0
 16 17  1  0  0  0
 17 18  2  0  0  0
 17 21  1  0  0  0
 18 19  1  0  0  0
 19 20  2  0  0  0
 19 22  1  0  0  0
 20 21  1  0  0  0
 22 23  2  0  0  0
 22 27  1  0  0  0
 23 24  1  0  0  0
 24 25  2  0  0  0
 25 26  1  0  0  0
 25 28  1  0  0  0
 26 27  2  0  0  0
 28 29  1  0  0  0
  2  3  1  0  0  0
  2  6  2  0  0  0
  3  4  1  0  0  0
  3  8  1  0  0  0
  4  5  2  0  0  0
  4  7  1  0  0  0
  5  6  1  0  0  0
  8  9  2  0  0  0
  8 13  1  0  0  0
  9 10  1  0  0  0
 10 11  2  0  0  0
 11 12  1  0  0  0
 11 14  1  0  0  0
 12 13  2  0  0  0
 14 15  1  0  0  0
M  END
> <minimizedAffinity>
-7.96518

$$$$
3UDD_34M_A_1


 29 32  0  0  0  0  0  0  0  0999 V2000
  -25.4653   -1.8199    8.0062 S   0  0  0  0  0  0  0  0  0  0  0  0
  -25.3409   -3.5775    7.9038 C   0  0  0  0  0  0  0  0  0  0  0  0
  -25.0594   -4.3700    8.9248 N   0  0  0  0  0  0  0  0  0  0  0  0
  -25.1005   -5.5772    8.4212 C   0  0  0  0  0  0  0  0  0  0  0  0
  -25.4299   -5.6038    7.1995 N   0  0  0  0  0  0  0  0  0  0  0  0
  -25.6088   -4.2313    6.8534 N   0  0  0  0  0  0  0  0  0  0  0  0
  -24.8221   -6.8740    9.1431 C   0  0  0  0  0  0  0  0  0  0  0  0
  -24.7527   -3.9941   10.1995 C   0  0  0  0  0  0  0  0  0  0  0  0
  -25.7150   -4.0537   11.2320 C   0  0  0  0  0  0  0  0  0  0  0  0
  -25.3829   -3.6386   12.5295 C   0  0  0  0  0  0  0  0  0  0  0  0
  -24.0859   -3.1666   12.8158 C   0  0  0  0  0  0  0  0  0  0  0  0
  -23.1233   -3.0969   11.7763 C   0  0  0  0  0  0  0  0  0  0  0  0
  -23.4516   -3.5367   10.4863 C   0  0  0  0  0  0  0  0  0  0  0  0
  -23.8407   -2.7123   14.1122 O   0  0  0  0  0  0  0  0  0  0  0  0
  -22.5769   -2.2038   14.5796 C   0  0  0  0  0  0  0  0  0  0  0  0
  -25.9044   -1.5521    6.2539 C   0  0  0  0  0  0  0  0  0  0  0  0
  -25.0696   -0.4996    5.6161 C   0  0  0  0  0  0  0  0  0  0  0  0
  -24.0019   -0.5767    4.9746 N   0  0  0  0  0  0  0  0  0  0  0  0
  -23.5690    0.7196    4.5977 C   0  0  0  0  0  0  0  0  0  0  0  0
  -24.4582    1.5589    4.9634 N   0  0  0  0  0  0  0  0  0  0  0  0
  -25.4382    0.7967    5.6350 O   0  0  0  0  0  0  0  0  0  0  0  0
  -22.3667    1.0194    3.7455 C   0  0  0  0  0  0  0  0  0  0  0  0
  -22.2044    0.3489    2.5264 C   0  0  0  0  0  0  0  0  0  0  0  0
  -21.0481    0.5751    1.7596 C   0  0  0  0  0  0  0  0  0  0  0  0
  -20.0292    1.4139    2.2477 C   0  0  0  0  0  0  0  0  0  0  0  0
  -20.1979    2.0597    3.4993 C   0  0  0  0  0  0  0  0  0  0  0  0
  -21.3483    1.8363    4.2690 C   0  0  0  0  0  0  0  0  0  0  0  0
  -18.8954    1.6074    1.4267 O   0  0  0  0  0  0  0  0  0  0  0  0
  -17.6205    0.9858    1.7095 C   0  0  0  0  0  0  0  0  0  0  0  0
  1 16  1  0  0  0
  1  2  1  0  0  0
 16 17  1  0  0  0
 17 18  2  0  0  0
 17 21  1  0  0  0
 18 19  1  0  0  0
 19 20  2  0  0  0
 19 22  1  0  0  0
 20 21  1  0  0  0
 22 23  2  0  0  0
 22 27  1  0  0  0
 23 24  1  0  0  0
 24 25  2  0  0  0
 25 26  1  0  0  0
 25 28  1  0  0  0
 26 27  2  0  0  0
 28 29  1  0  0  0
  2  3  1  0  0  0
  2  6  2  0  0  0
  3  4  1  0  0  0
  3  8  1  0  0  0
  4  5  2  0  0  0
  4  7  1  0  0  0
  5  6  1  0  0  0
  8  9  2  0  0  0
  8 13  1  0  0  0
  9 10  1  0  0  0
 10 11  2  0  0  0
 11 12  1  0  0  0
 11 14  1  0  0  0
 12 13  2  0  0  0
 14 15  1  0  0  0
M  END
> <minimizedAffinity>
-7.85060

$$$$
3UDD_34M_A_1


 29 32  0  0  0  0  0  0  0  0999 V2000
  -20.0955    3.6214   12.4316 S   0  0  0  0  0  0  0  0  0  0  0  0
  -18.9905    4.9880   12.5943 C   0  0  0  0  0  0  0  0  0  0  0  0
  -18.1549    5.3929   11.6521 N   0  0  0  0  0  0  0  0  0  0  0  0
  -17.5609    6.4375   12.1703 C   0  0  0  0  0  0  0  0  0  0  0  0
  -17.9888    6.7422   13.3218 N   0  0  0  0  0  0  0  0  0  0  0  0
  -18.9797    5.7547   13.6016 N   0  0  0  0  0  0  0  0  0  0  0  0
  -16.4790    7.2774   11.5345 C   0  0  0  0  0  0  0  0  0  0  0  0
  -17.9403    4.8129   10.4365 C   0  0  0  0  0  0  0  0  0  0  0  0
  -18.6729    5.2105    9.2960 C   0  0  0  0  0  0  0  0  0  0  0  0
  -18.4516    4.5824    8.0621 C   0  0  0  0  0  0  0  0  0  0  0  0
  -17.4921    3.5561    7.9477 C   0  0  0  0  0  0  0  0  0  0  0  0
  -16.7643    3.1500    9.0955 C   0  0  0  0  0  0  0  0  0  0  0  0
  -16.9704    3.7977   10.3216 C   0  0  0  0  0  0  0  0  0  0  0  0
  -17.3657    2.9322    6.7060 O   0  0  0  0  0  0  0  0  0  0  0  0
  -18.3954    2.8873    5.7000 C   0  0  0  0  0  0  0  0  0  0  0  0
  -19.8893    2.9988   14.1360 C   0  0  0  0  0  0  0  0  0  0  0  0
  -20.5997    1.7114   14.3578 C   0  0  0  0  0  0  0  0  0  0  0  0
  -21.2531    0.9903   13.5763 N   0  0  0  0  0  0  0  0  0  0  0  0
  -21.7753   -0.1288   14.2725 C   0  0  0  0  0  0  0  0  0  0  0  0
  -21.3395   -0.0912   15.4716 N   0  0  0  0  0  0  0  0  0  0  0  0
  -20.5824    1.0969   15.5572 O   0  0  0  0  0  0  0  0  0  0  0  0
  -22.5460   -1.2581   13.6463 C   0  0  0  0  0  0  0  0  0  0  0  0
  -23.0527   -2.2788   14.4609 C   0  0  0  0  0  0  0  0  0  0  0  0
  -23.7139   -3.3712   13.8728 C   0  0  0  0  0  0  0  0  0  0  0  0
  -23.8025   -3.4731   12.4722 C   0  0  0  0  0  0  0  0  0  0  0  0
  -23.2555   -2.4448   11.6626 C   0  0  0  0  0  0  0  0  0  0  0  0
  -22.5936   -1.3540   12.2438 C   0  0  0  0  0  0  0  0  0  0  0  0
  -24.4862   -4.5905   11.9422 O   0  0  0  0  0  0  0  0  0  0  0  0
  -25.8230   -4.4930   11.3988 C   0  0  0  0  0  0  0  0  0  0  0  0
  1 16  1  0  0  0
  1  2  1  0  0  0
 16 17  1  0  0  0
 17 18  2  0  0  0
 17 21  1  0  0  0
 18 19  1  0  0  0
 19 20  2  0  0  0
 19 22  1  0  0  0
 20 21  1  0  0  0
 22 23  2  0  0  0
 22 27  1  0  0  0
 23 24  1  0  0  0
 24 25  2  0  0  0
 25 26  1  0  0  0
 25 28  1  0  0  0
 26 27  2  0  0  0
 28 29  1  0  0  0
  2  3  1  0  0  0
  2  6  2  0  0  0
  3  4  1  0  0  0
  3  8  1  0  0  0
  4  5  2  0  0  0
  4  7  1  0  0  0
  5  6  1  0  0  0
  8  9  2  0  0  0
  8 13  1  0  0  0
  9 10  1  0  0  0
 10 11  2  0  0  0
 11 12  1  0  0  0
 11 14  1  0  0  0
 12 13  2  0  0  0
 14 15  1  0  0  0
M  END
> <minimizedAffinity>
-7.73832

$$$$
