3Q6Z_APR_A_1


 45 48  0  0  0  0  0  0  0  0999 V2000
   15.6109   19.4162   12.2699 O   0  0  0  0  0  0  0  0  0  0  0  0
   16.2124   19.2401   10.8115 P   0  0  0  0  0  0  0  0  0  0  0  0
   17.6459   19.6113   10.9142 O   0  0  0  0  0  0  0  0  0  0  0  0
   15.4219   19.9899    9.7975 O   0  0  0  0  0  0  0  0  0  0  0  0
   15.5165   20.9426    9.9536 H   0  0  0  0  0  0  0  0  0  0  0  0
   16.1234   17.5170   10.6371 O   0  0  0  0  0  0  0  0  0  0  0  0
   15.4889   16.5717    9.3646 P   0  0  0  0  0  0  0  0  0  0  0  0
   14.0736   16.7578    9.7913 O   0  0  0  0  0  0  0  0  0  0  0  0
   16.3406   15.4154    9.8300 O   0  0  0  0  0  0  0  0  0  0  0  0
   15.8167   14.8407   10.4097 H   0  0  0  0  0  0  0  0  0  0  0  0
   16.1241   17.6433    8.4092 O   0  0  0  0  0  0  0  0  0  0  0  0
   17.2095   17.2941    7.5860 C   0  0  0  0  0  0  0  0  0  0  0  0
   16.5680   19.4295    6.9448 O   0  0  0  0  0  0  0  0  0  0  0  0
   16.8425   20.9295    5.2855 O   0  0  0  0  0  0  0  0  0  0  0  0
   17.4236   20.5635    6.5692 C   0  0  0  0  0  0  0  0  0  0  0  0
   19.8001   20.7067    5.7677 O   0  0  0  0  0  0  0  0  0  0  0  0
   18.8296   19.9407    6.5242 C   0  0  0  0  0  0  0  0  0  0  0  0
   18.2431   18.9439    4.3480 O   0  0  0  0  0  0  0  0  0  0  0  0
   18.4783   18.6571    5.7621 C   0  0  0  0  0  0  0  0  0  0  0  0
   17.1568   18.2393    6.4117 C   0  0  0  0  0  0  0  0  0  0  0  0
   15.9616   21.3104    5.4261 H   0  0  0  0  0  0  0  0  0  0  0  0
   20.0203   21.5178    6.2520 H   0  0  0  0  0  0  0  0  0  0  0  0
   19.0766   19.2097    3.9290 H   0  0  0  0  0  0  0  0  0  0  0  0
   14.7605   18.4348   12.9147 C   0  0  0  0  0  0  0  0  0  0  0  0
   15.4587   20.4944   15.6693 C   0  0  0  0  0  0  0  0  0  0  0  0
   13.9932   20.6349   15.2962 C   0  0  0  0  0  0  0  0  0  0  0  0
   13.2991   21.2414   16.3926 O   0  0  0  0  0  0  0  0  0  0  0  0
   13.5947   19.1823   15.1130 C   0  0  0  0  0  0  0  0  0  0  0  0
   13.3597   18.6254   16.3900 O   0  0  0  0  0  0  0  0  0  0  0  0
   15.9750   19.4377   14.8532 O   0  0  0  0  0  0  0  0  0  0  0  0
   14.8509   18.5583   14.4735 C   0  0  0  0  0  0  0  0  0  0  0  0
   13.4585   20.7280   17.2000 H   0  0  0  0  0  0  0  0  0  0  0  0
   14.1442   18.7504   16.9465 H   0  0  0  0  0  0  0  0  0  0  0  0
   18.5236   24.1570   17.5731 N   0  0  0  0  0  0  0  0  0  0  0  0
   18.1668   22.9619   18.0716 C   0  0  0  0  0  0  0  0  0  0  0  0
   17.3572   22.1213   17.4192 N   0  0  0  0  0  0  0  0  0  0  0  0
   16.8634   22.4735   16.2234 C   0  0  0  0  0  0  0  0  0  0  0  0
   17.2038   23.7098   15.6389 C   0  0  0  0  0  0  0  0  0  0  0  0
   18.0784   24.5744   16.3631 C   0  0  0  0  0  0  0  0  0  0  0  0
   18.4881   25.7725   15.9087 N   0  0  0  0  0  0  0  0  0  0  0  0
   16.5644   23.7489   14.4351 N   0  0  0  0  0  0  0  0  0  0  0  0
   15.8651   22.6099   14.2945 C   0  0  0  0  0  0  0  0  0  0  0  0
   16.0520   21.8335   15.3804 N   0  0  0  0  0  0  0  0  0  0  0  0
   19.0929   26.3254   16.4544 H   0  0  0  0  0  0  0  0  0  0  0  0
   18.1831   26.0965   15.0305 H   0  0  0  0  0  0  0  0  0  0  0  0
 34 35  1  0  0  0
 34 39  2  0  0  0
 35 36  2  0  0  0
 36 37  1  0  0  0
 37 38  2  0  0  0
 37 43  1  0  0  0
 38 39  1  0  0  0
 38 41  1  0  0  0
 39 40  1  0  0  0
 41 42  2  0  0  0
 42 43  1  0  0  0
 43 25  1  0  0  0
 25 26  1  0  0  0
 25 30  1  0  0  0
 26 27  1  0  0  0
 26 28  1  0  0  0
 28 29  1  0  0  0
 28 31  1  0  0  0
 30 31  1  0  0  0
 31 24  1  0  0  0
 24  1  1  0  0  0
  1  2  1  0  0  0
  2  3  2  0  0  0
  2  4  1  0  0  0
  2  6  1  0  0  0
  6  7  1  0  0  0
  7  8  2  0  0  0
  7  9  1  0  0  0
  7 11  1  0  0  0
 11 12  1  0  0  0
 12 20  1  0  0  0
 13 15  1  0  0  0
 13 20  1  0  0  0
 14 15  1  0  0  0
 15 17  1  0  0  0
 16 17  1  0  0  0
 17 19  1  0  0  0
 18 19  1  0  0  0
 19 20  1  0  0  0
 40 44  1  0  0  0
 40 45  1  0  0  0
 27 32  1  0  0  0
 29 33  1  0  0  0
  4  5  1  0  0  0
  9 10  1  0  0  0
 14 21  1  0  0  0
 16 22  1  0  0  0
 18 23  1  0  0  0
M  END
> <minimizedAffinity>
-10.29269

$$$$
3Q6Z_APR_A_1


 45 48  0  0  0  0  0  0  0  0999 V2000
   15.7569   20.6222   12.2374 O   0  0  0  0  0  0  0  0  0  0  0  0
   16.5481   19.4021   11.6011 P   0  0  0  0  0  0  0  0  0  0  0  0
   17.0267   18.5858   12.7447 O   0  0  0  0  0  0  0  0  0  0  0  0
   17.5982   19.8635   10.6526 O   0  0  0  0  0  0  0  0  0  0  0  0
   18.2907   20.3352   11.1413 H   0  0  0  0  0  0  0  0  0  0  0  0
   15.2476   18.5403   10.8437 O   0  0  0  0  0  0  0  0  0  0  0  0
   15.1098   16.8860   10.4443 P   0  0  0  0  0  0  0  0  0  0  0  0
   13.9110   17.0856    9.5824 O   0  0  0  0  0  0  0  0  0  0  0  0
   15.0173   16.5623   11.9160 O   0  0  0  0  0  0  0  0  0  0  0  0
   14.0847   16.4943   12.1740 H   0  0  0  0  0  0  0  0  0  0  0  0
   16.5289   17.0463    9.7923 O   0  0  0  0  0  0  0  0  0  0  0  0
   16.7181   16.7271    8.4359 C   0  0  0  0  0  0  0  0  0  0  0  0
   18.1338   17.2777    6.6822 O   0  0  0  0  0  0  0  0  0  0  0  0
   19.0666   19.0571    5.6613 O   0  0  0  0  0  0  0  0  0  0  0  0
   17.8883   18.2068    5.5706 C   0  0  0  0  0  0  0  0  0  0  0  0
   16.2805   20.1140    5.2735 O   0  0  0  0  0  0  0  0  0  0  0  0
   16.5490   18.8612    5.9512 C   0  0  0  0  0  0  0  0  0  0  0  0
   17.7702   20.2529    7.5776 O   0  0  0  0  0  0  0  0  0  0  0  0
   16.8468   19.1289    7.4316 C   0  0  0  0  0  0  0  0  0  0  0  0
   17.5559   17.8429    7.8630 C   0  0  0  0  0  0  0  0  0  0  0  0
   19.8518   18.5504    5.4013 H   0  0  0  0  0  0  0  0  0  0  0  0
   16.0926   19.9416    4.3377 H   0  0  0  0  0  0  0  0  0  0  0  0
   17.3278   21.0723    7.3059 H   0  0  0  0  0  0  0  0  0  0  0  0
   14.4222   20.5149   12.7936 C   0  0  0  0  0  0  0  0  0  0  0  0
   15.5864   21.3568   15.9957 C   0  0  0  0  0  0  0  0  0  0  0  0
   14.2454   22.0285   15.7565 C   0  0  0  0  0  0  0  0  0  0  0  0
   13.7181   22.4572   17.0175 O   0  0  0  0  0  0  0  0  0  0  0  0
   13.4414   20.8825   15.1713 C   0  0  0  0  0  0  0  0  0  0  0  0
   12.9992   20.0657   16.2359 O   0  0  0  0  0  0  0  0  0  0  0  0
   15.7987   20.4885   14.8776 O   0  0  0  0  0  0  0  0  0  0  0  0
   14.4809   20.1356   14.3121 C   0  0  0  0  0  0  0  0  0  0  0  0
   13.6844   21.7033   17.6270 H   0  0  0  0  0  0  0  0  0  0  0  0
   13.7618   19.7814   16.7636 H   0  0  0  0  0  0  0  0  0  0  0  0
   19.3806   23.3190   18.8569 N   0  0  0  0  0  0  0  0  0  0  0  0
   18.6523   22.2008   19.0092 C   0  0  0  0  0  0  0  0  0  0  0  0
   17.7002   21.8371   18.1438 N   0  0  0  0  0  0  0  0  0  0  0  0
   17.4407   22.6133   17.0817 C   0  0  0  0  0  0  0  0  0  0  0  0
   18.1731   23.7963   16.8575 C   0  0  0  0  0  0  0  0  0  0  0  0
   19.1875   24.1441   17.7994 C   0  0  0  0  0  0  0  0  0  0  0  0
   19.9629   25.2381   17.6910 N   0  0  0  0  0  0  0  0  0  0  0  0
   17.6861   24.3304   15.7013 N   0  0  0  0  0  0  0  0  0  0  0  0
   16.7064   23.5291   15.2492 C   0  0  0  0  0  0  0  0  0  0  0  0
   16.5620   22.4831   16.0870 N   0  0  0  0  0  0  0  0  0  0  0  0
   20.6473   25.4260   18.3734 H   0  0  0  0  0  0  0  0  0  0  0  0
   19.8461   25.8509   16.9294 H   0  0  0  0  0  0  0  0  0  0  0  0
 34 35  1  0  0  0
 34 39  2  0  0  0
 35 36  2  0  0  0
 36 37  1  0  0  0
 37 38  2  0  0  0
 37 43  1  0  0  0
 38 39  1  0  0  0
 38 41  1  0  0  0
 39 40  1  0  0  0
 41 42  2  0  0  0
 42 43  1  0  0  0
 43 25  1  0  0  0
 25 26  1  0  0  0
 25 30  1  0  0  0
 26 27  1  0  0  0
 26 28  1  0  0  0
 28 29  1  0  0  0
 28 31  1  0  0  0
 30 31  1  0  0  0
 31 24  1  0  0  0
 24  1  1  0  0  0
  1  2  1  0  0  0
  2  3  2  0  0  0
  2  4  1  0  0  0
  2  6  1  0  0  0
  6  7  1  0  0  0
  7  8  2  0  0  0
  7  9  1  0  0  0
  7 11  1  0  0  0
 11 12  1  0  0  0
 12 20  1  0  0  0
 13 15  1  0  0  0
 13 20  1  0  0  0
 14 15  1  0  0  0
 15 17  1  0  0  0
 16 17  1  0  0  0
 17 19  1  0  0  0
 18 19  1  0  0  0
 19 20  1  0  0  0
 40 44  1  0  0  0
 40 45  1  0  0  0
 27 32  1  0  0  0
 29 33  1  0  0  0
  4  5  1  0  0  0
  9 10  1  0  0  0
 14 21  1  0  0  0
 16 22  1  0  0  0
 18 23  1  0  0  0
M  END
> <minimizedAffinity>
-10.11364

$$$$
3Q6Z_APR_A_1


 45 48  0  0  0  0  0  0  0  0999 V2000
   16.8387   16.9222    8.0585 O   0  0  0  0  0  0  0  0  0  0  0  0
   15.8388   16.7827    9.2834 P   0  0  0  0  0  0  0  0  0  0  0  0
   16.0595   15.4233    9.8369 O   0  0  0  0  0  0  0  0  0  0  0  0
   14.4393   17.1002    8.8885 O   0  0  0  0  0  0  0  0  0  0  0  0
   14.1164   16.4249    8.2716 H   0  0  0  0  0  0  0  0  0  0  0  0
   16.5318   17.9235   10.3906 O   0  0  0  0  0  0  0  0  0  0  0  0
   16.1450   19.5638   10.6652 P   0  0  0  0  0  0  0  0  0  0  0  0
   14.8837   19.5081    9.8741 O   0  0  0  0  0  0  0  0  0  0  0  0
   17.4738   19.9536   10.0641 O   0  0  0  0  0  0  0  0  0  0  0  0
   17.3540   20.1666    9.1254 H   0  0  0  0  0  0  0  0  0  0  0  0
   16.0869   19.1736   12.1848 O   0  0  0  0  0  0  0  0  0  0  0  0
   15.0816   18.3066   12.6488 C   0  0  0  0  0  0  0  0  0  0  0  0
   16.3662   19.0858   14.4166 O   0  0  0  0  0  0  0  0  0  0  0  0
   16.2843   19.4167   16.6443 O   0  0  0  0  0  0  0  0  0  0  0  0
   16.0293   20.1257   15.3986 C   0  0  0  0  0  0  0  0  0  0  0  0
   13.8423   21.0994   16.1599 O   0  0  0  0  0  0  0  0  0  0  0  0
   14.5558   20.4379   15.0854 C   0  0  0  0  0  0  0  0  0  0  0  0
   13.9389   18.3554   16.2498 O   0  0  0  0  0  0  0  0  0  0  0  0
   14.0506   18.9972   14.9409 C   0  0  0  0  0  0  0  0  0  0  0  0
   15.1805   18.3291   14.1537 C   0  0  0  0  0  0  0  0  0  0  0  0
   17.2381   19.2712   16.7441 H   0  0  0  0  0  0  0  0  0  0  0  0
   14.1639   22.0102   16.2489 H   0  0  0  0  0  0  0  0  0  0  0  0
   13.2243   18.7736   16.7551 H   0  0  0  0  0  0  0  0  0  0  0  0
   16.8033   18.0185    7.1102 C   0  0  0  0  0  0  0  0  0  0  0  0
   18.7014   19.7357    4.7090 C   0  0  0  0  0  0  0  0  0  0  0  0
   19.0474   20.2606    6.0915 C   0  0  0  0  0  0  0  0  0  0  0  0
   20.2786   20.9880    6.0087 O   0  0  0  0  0  0  0  0  0  0  0  0
   19.2101   18.9663    6.8665 C   0  0  0  0  0  0  0  0  0  0  0  0
   20.4943   18.4460    6.5906 O   0  0  0  0  0  0  0  0  0  0  0  0
   17.8422   18.6098    4.9171 O   0  0  0  0  0  0  0  0  0  0  0  0
   18.1184   18.0622    6.2606 C   0  0  0  0  0  0  0  0  0  0  0  0
   20.9614   20.4240    5.6130 H   0  0  0  0  0  0  0  0  0  0  0  0
   20.6037   18.3463    5.6320 H   0  0  0  0  0  0  0  0  0  0  0  0
   19.0180   22.8438    0.6258 N   0  0  0  0  0  0  0  0  0  0  0  0
   19.7814   21.8044    1.0013 C   0  0  0  0  0  0  0  0  0  0  0  0
   19.5368   21.0923    2.1061 N   0  0  0  0  0  0  0  0  0  0  0  0
   18.4989   21.4214    2.8885 C   0  0  0  0  0  0  0  0  0  0  0  0
   17.6527   22.4960    2.5489 C   0  0  0  0  0  0  0  0  0  0  0  0
   17.9422   23.2249    1.3564 C   0  0  0  0  0  0  0  0  0  0  0  0
   17.2044   24.2605    0.9172 N   0  0  0  0  0  0  0  0  0  0  0  0
   16.6994   22.5502    3.5223 N   0  0  0  0  0  0  0  0  0  0  0  0
   16.9520   21.5745    4.4115 C   0  0  0  0  0  0  0  0  0  0  0  0
   18.0434   20.8862    4.0219 N   0  0  0  0  0  0  0  0  0  0  0  0
   17.4539   24.7252    0.0859 H   0  0  0  0  0  0  0  0  0  0  0  0
   16.4148   24.5537    1.4270 H   0  0  0  0  0  0  0  0  0  0  0  0
 34 35  1  0  0  0
 34 39  2  0  0  0
 35 36  2  0  0  0
 36 37  1  0  0  0
 37 38  2  0  0  0
 37 43  1  0  0  0
 38 39  1  0  0  0
 38 41  1  0  0  0
 39 40  1  0  0  0
 41 42  2  0  0  0
 42 43  1  0  0  0
 43 25  1  0  0  0
 25 26  1  0  0  0
 25 30  1  0  0  0
 26 27  1  0  0  0
 26 28  1  0  0  0
 28 29  1  0  0  0
 28 31  1  0  0  0
 30 31  1  0  0  0
 31 24  1  0  0  0
 24  1  1  0  0  0
  1  2  1  0  0  0
  2  3  2  0  0  0
  2  4  1  0  0  0
  2  6  1  0  0  0
  6  7  1  0  0  0
  7  8  2  0  0  0
  7  9  1  0  0  0
  7 11  1  0  0  0
 11 12  1  0  0  0
 12 20  1  0  0  0
 13 15  1  0  0  0
 13 20  1  0  0  0
 14 15  1  0  0  0
 15 17  1  0  0  0
 16 17  1  0  0  0
 17 19  1  0  0  0
 18 19  1  0  0  0
 19 20  1  0  0  0
 40 44  1  0  0  0
 40 45  1  0  0  0
 27 32  1  0  0  0
 29 33  1  0  0  0
  4  5  1  0  0  0
  9 10  1  0  0  0
 14 21  1  0  0  0
 16 22  1  0  0  0
 18 23  1  0  0  0
M  END
> <minimizedAffinity>
-9.96994

$$$$
3Q6Z_APR_A_1


 45 48  0  0  0  0  0  0  0  0999 V2000
   16.8201   18.2050    7.9616 O   0  0  0  0  0  0  0  0  0  0  0  0
   16.0286   17.2307    8.9332 P   0  0  0  0  0  0  0  0  0  0  0  0
   16.6756   15.9021    8.7939 O   0  0  0  0  0  0  0  0  0  0  0  0
   14.5637   17.2664    8.6724 O   0  0  0  0  0  0  0  0  0  0  0  0
   14.3818   16.8892    7.7975 H   0  0  0  0  0  0  0  0  0  0  0  0
   16.4833   17.8814   10.4751 O   0  0  0  0  0  0  0  0  0  0  0  0
   16.5663   19.5031   11.0032 P   0  0  0  0  0  0  0  0  0  0  0  0
   15.3707   19.9289   10.2227 O   0  0  0  0  0  0  0  0  0  0  0  0
   17.9723   19.5838   10.4595 O   0  0  0  0  0  0  0  0  0  0  0  0
   17.9522   19.9608    9.5660 H   0  0  0  0  0  0  0  0  0  0  0  0
   16.3443   18.9215   12.4445 O   0  0  0  0  0  0  0  0  0  0  0  0
   15.0671   18.4804   12.8342 C   0  0  0  0  0  0  0  0  0  0  0  0
   13.4828   18.7079   14.5138 O   0  0  0  0  0  0  0  0  0  0  0  0
   13.1683   19.6840   16.5205 O   0  0  0  0  0  0  0  0  0  0  0  0
   13.6296   18.4272   15.9486 C   0  0  0  0  0  0  0  0  0  0  0  0
   15.6372   18.2437   17.4474 O   0  0  0  0  0  0  0  0  0  0  0  0
   15.1314   18.1268   16.0941 C   0  0  0  0  0  0  0  0  0  0  0  0
   15.5589   20.5500   15.9568 O   0  0  0  0  0  0  0  0  0  0  0  0
   15.6712   19.2806   15.2402 C   0  0  0  0  0  0  0  0  0  0  0  0
   14.7052   19.2920   14.0530 C   0  0  0  0  0  0  0  0  0  0  0  0
   12.2135   19.7744   16.3748 H   0  0  0  0  0  0  0  0  0  0  0  0
   15.2942   17.5128   17.9851 H   0  0  0  0  0  0  0  0  0  0  0  0
   16.1686   20.5504   16.7112 H   0  0  0  0  0  0  0  0  0  0  0  0
   16.6233   18.2458    6.5257 C   0  0  0  0  0  0  0  0  0  0  0  0
   18.8558   19.8719    4.3602 C   0  0  0  0  0  0  0  0  0  0  0  0
   19.1466   20.2933    5.7900 C   0  0  0  0  0  0  0  0  0  0  0  0
   20.4460   20.8948    5.8334 O   0  0  0  0  0  0  0  0  0  0  0  0
   19.1229   18.9543    6.5031 C   0  0  0  0  0  0  0  0  0  0  0  0
   20.3670   18.3195    6.2901 O   0  0  0  0  0  0  0  0  0  0  0  0
   17.8771   18.8307    4.4461 O   0  0  0  0  0  0  0  0  0  0  0  0
   17.9965   18.1953    5.7740 C   0  0  0  0  0  0  0  0  0  0  0  0
   21.0980   20.2834    5.4564 H   0  0  0  0  0  0  0  0  0  0  0  0
   20.5378   18.2543    5.3375 H   0  0  0  0  0  0  0  0  0  0  0  0
   15.1005   23.3831    4.3961 N   0  0  0  0  0  0  0  0  0  0  0  0
   15.3168   22.3185    5.1860 C   0  0  0  0  0  0  0  0  0  0  0  0
   16.3713   21.5108    5.0344 N   0  0  0  0  0  0  0  0  0  0  0  0
   17.2526   21.7513    4.0530 C   0  0  0  0  0  0  0  0  0  0  0  0
   17.0901   22.8560    3.1932 C   0  0  0  0  0  0  0  0  0  0  0  0
   15.9564   23.6996    3.3943 C   0  0  0  0  0  0  0  0  0  0  0  0
   15.6967   24.7903    2.6509 N   0  0  0  0  0  0  0  0  0  0  0  0
   18.1506   22.8292    2.3366 N   0  0  0  0  0  0  0  0  0  0  0  0
   18.9121   21.7656    2.6452 C   0  0  0  0  0  0  0  0  0  0  0  0
   18.3673   21.1143    3.6921 N   0  0  0  0  0  0  0  0  0  0  0  0
   14.8975   25.3342    2.8374 H   0  0  0  0  0  0  0  0  0  0  0  0
   16.3057   25.0447    1.9204 H   0  0  0  0  0  0  0  0  0  0  0  0
 34 35  1  0  0  0
 34 39  2  0  0  0
 35 36  2  0  0  0
 36 37  1  0  0  0
 37 38  2  0  0  0
 37 43  1  0  0  0
 38 39  1  0  0  0
 38 41  1  0  0  0
 39 40  1  0  0  0
 41 42  2  0  0  0
 42 43  1  0  0  0
 43 25  1  0  0  0
 25 26  1  0  0  0
 25 30  1  0  0  0
 26 27  1  0  0  0
 26 28  1  0  0  0
 28 29  1  0  0  0
 28 31  1  0  0  0
 30 31  1  0  0  0
 31 24  1  0  0  0
 24  1  1  0  0  0
  1  2  1  0  0  0
  2  3  2  0  0  0
  2  4  1  0  0  0
  2  6  1  0  0  0
  6  7  1  0  0  0
  7  8  2  0  0  0
  7  9  1  0  0  0
  7 11  1  0  0  0
 11 12  1  0  0  0
 12 20  1  0  0  0
 13 15  1  0  0  0
 13 20  1  0  0  0
 14 15  1  0  0  0
 15 17  1  0  0  0
 16 17  1  0  0  0
 17 19  1  0  0  0
 18 19  1  0  0  0
 19 20  1  0  0  0
 40 44  1  0  0  0
 40 45  1  0  0  0
 27 32  1  0  0  0
 29 33  1  0  0  0
  4  5  1  0  0  0
  9 10  1  0  0  0
 14 21  1  0  0  0
 16 22  1  0  0  0
 18 23  1  0  0  0
M  END
> <minimizedAffinity>
-9.31572

$$$$
3Q6Z_APR_A_1


 45 48  0  0  0  0  0  0  0  0999 V2000
   16.6466   17.8821    8.8755 O   0  0  0  0  0  0  0  0  0  0  0  0
   15.6764   17.0854    9.8469 P   0  0  0  0  0  0  0  0  0  0  0  0
   16.1558   15.6806    9.8396 O   0  0  0  0  0  0  0  0  0  0  0  0
   14.2478   17.2824    9.4786 O   0  0  0  0  0  0  0  0  0  0  0  0
   14.0756   16.8684    8.6185 H   0  0  0  0  0  0  0  0  0  0  0  0
   16.1108   17.7846   11.3733 O   0  0  0  0  0  0  0  0  0  0  0  0
   15.1818   17.9963   12.7902 P   0  0  0  0  0  0  0  0  0  0  0  0
   16.3704   18.1963   13.6661 O   0  0  0  0  0  0  0  0  0  0  0  0
   14.5555   16.6432   12.5538 O   0  0  0  0  0  0  0  0  0  0  0  0
   15.0337   15.9718   13.0650 H   0  0  0  0  0  0  0  0  0  0  0  0
   14.5748   19.2487   12.0638 O   0  0  0  0  0  0  0  0  0  0  0  0
   15.2860   20.4618   12.0445 C   0  0  0  0  0  0  0  0  0  0  0  0
   15.8300   22.2516   13.4168 O   0  0  0  0  0  0  0  0  0  0  0  0
   14.9644   23.5597   15.0349 O   0  0  0  0  0  0  0  0  0  0  0  0
   15.1097   23.5210   13.5868 C   0  0  0  0  0  0  0  0  0  0  0  0
   12.7370   24.2036   13.1235 O   0  0  0  0  0  0  0  0  0  0  0  0
   13.8177   23.3004   12.7813 C   0  0  0  0  0  0  0  0  0  0  0  0
   12.9715   21.9288   14.6457 O   0  0  0  0  0  0  0  0  0  0  0  0
   13.4863   21.8878   13.2779 C   0  0  0  0  0  0  0  0  0  0  0  0
   14.8585   21.2096   13.2826 C   0  0  0  0  0  0  0  0  0  0  0  0
   15.8325   23.7025   15.4433 H   0  0  0  0  0  0  0  0  0  0  0  0
   12.9493   25.0960   12.8082 H   0  0  0  0  0  0  0  0  0  0  0  0
   12.1014   22.3575   14.6510 H   0  0  0  0  0  0  0  0  0  0  0  0
   16.3664   18.1183    7.4726 C   0  0  0  0  0  0  0  0  0  0  0  0
   18.3333   19.6336    4.9921 C   0  0  0  0  0  0  0  0  0  0  0  0
   18.6988   20.2144    6.3471 C   0  0  0  0  0  0  0  0  0  0  0  0
   19.9581   20.8872    6.2307 O   0  0  0  0  0  0  0  0  0  0  0  0
   18.8093   18.9561    7.1877 C   0  0  0  0  0  0  0  0  0  0  0  0
   20.0719   18.3717    6.9424 O   0  0  0  0  0  0  0  0  0  0  0  0
   17.4299   18.5548    5.2551 O   0  0  0  0  0  0  0  0  0  0  0  0
   17.6829   18.0662    6.6256 C   0  0  0  0  0  0  0  0  0  0  0  0
   20.6182   20.2770    5.8662 H   0  0  0  0  0  0  0  0  0  0  0  0
   20.1780   18.2188    5.9905 H   0  0  0  0  0  0  0  0  0  0  0  0
   18.9060   22.6620    0.8772 N   0  0  0  0  0  0  0  0  0  0  0  0
   19.6415   21.6278    1.3173 C   0  0  0  0  0  0  0  0  0  0  0  0
   19.3284   20.9377    2.4187 N   0  0  0  0  0  0  0  0  0  0  0  0
   18.2468   21.2847    3.1312 C   0  0  0  0  0  0  0  0  0  0  0  0
   17.4268   22.3549    2.7213 C   0  0  0  0  0  0  0  0  0  0  0  0
   17.7900   23.0601    1.5347 C   0  0  0  0  0  0  0  0  0  0  0  0
   17.0839   24.0892    1.0325 N   0  0  0  0  0  0  0  0  0  0  0  0
   16.4172   22.4306    3.6347 N   0  0  0  0  0  0  0  0  0  0  0  0
   16.6122   21.4714    4.5557 C   0  0  0  0  0  0  0  0  0  0  0  0
   17.7223   20.7725    4.2453 N   0  0  0  0  0  0  0  0  0  0  0  0
   17.3846   24.5372    0.2091 H   0  0  0  0  0  0  0  0  0  0  0  0
   16.2664   24.3944    1.4885 H   0  0  0  0  0  0  0  0  0  0  0  0
 34 35  1  0  0  0
 34 39  2  0  0  0
 35 36  2  0  0  0
 36 37  1  0  0  0
 37 38  2  0  0  0
 37 43  1  0  0  0
 38 39  1  0  0  0
 38 41  1  0  0  0
 39 40  1  0  0  0
 41 42  2  0  0  0
 42 43  1  0  0  0
 43 25  1  0  0  0
 25 26  1  0  0  0
 25 30  1  0  0  0
 26 27  1  0  0  0
 26 28  1  0  0  0
 28 29  1  0  0  0
 28 31  1  0  0  0
 30 31  1  0  0  0
 31 24  1  0  0  0
 24  1  1  0  0  0
  1  2  1  0  0  0
  2  3  2  0  0  0
  2  4  1  0  0  0
  2  6  1  0  0  0
  6  7  1  0  0  0
  7  8  2  0  0  0
  7  9  1  0  0  0
  7 11  1  0  0  0
 11 12  1  0  0  0
 12 20  1  0  0  0
 13 15  1  0  0  0
 13 20  1  0  0  0
 14 15  1  0  0  0
 15 17  1  0  0  0
 16 17  1  0  0  0
 17 19  1  0  0  0
 18 19  1  0  0  0
 19 20  1  0  0  0
 40 44  1  0  0  0
 40 45  1  0  0  0
 27 32  1  0  0  0
 29 33  1  0  0  0
  4  5  1  0  0  0
  9 10  1  0  0  0
 14 21  1  0  0  0
 16 22  1  0  0  0
 18 23  1  0  0  0
M  END
> <minimizedAffinity>
-8.83679

$$$$
3Q6Z_APR_A_1


 45 48  0  0  0  0  0  0  0  0999 V2000
   14.5802   20.4126   11.7837 O   0  0  0  0  0  0  0  0  0  0  0  0
   15.6763   19.3110   11.4602 P   0  0  0  0  0  0  0  0  0  0  0  0
   15.5794   18.3075   12.5496 O   0  0  0  0  0  0  0  0  0  0  0  0
   17.0205   19.9171   11.2578 O   0  0  0  0  0  0  0  0  0  0  0  0
   17.3356   20.2920   12.0950 H   0  0  0  0  0  0  0  0  0  0  0  0
   15.0023   18.6033   10.0276 O   0  0  0  0  0  0  0  0  0  0  0  0
   15.4758   17.2098    9.1619 P   0  0  0  0  0  0  0  0  0  0  0  0
   14.2912   16.4134    9.5888 O   0  0  0  0  0  0  0  0  0  0  0  0
   16.7808   17.2102    9.9209 O   0  0  0  0  0  0  0  0  0  0  0  0
   16.7117   16.6142   10.6830 H   0  0  0  0  0  0  0  0  0  0  0  0
   15.3458   18.1061    7.8795 O   0  0  0  0  0  0  0  0  0  0  0  0
   16.2364   19.1755    7.6775 C   0  0  0  0  0  0  0  0  0  0  0  0
   16.6869   19.4903    5.4235 O   0  0  0  0  0  0  0  0  0  0  0  0
   18.2808   19.1160    3.8749 O   0  0  0  0  0  0  0  0  0  0  0  0
   17.8503   20.1455    4.8099 C   0  0  0  0  0  0  0  0  0  0  0  0
   20.1645   20.6379    5.6540 O   0  0  0  0  0  0  0  0  0  0  0  0
   18.7788   20.4038    6.0090 C   0  0  0  0  0  0  0  0  0  0  0  0
   19.3950   18.0182    5.9573 O   0  0  0  0  0  0  0  0  0  0  0  0
   18.6448   19.0365    6.6906 C   0  0  0  0  0  0  0  0  0  0  0  0
   17.1481   18.7460    6.5553 C   0  0  0  0  0  0  0  0  0  0  0  0
   17.6287   19.0339    3.1615 H   0  0  0  0  0  0  0  0  0  0  0  0
   20.2461   21.5032    5.2232 H   0  0  0  0  0  0  0  0  0  0  0  0
   20.3451   18.1956    6.0384 H   0  0  0  0  0  0  0  0  0  0  0  0
   14.8390   21.5983   12.5771 C   0  0  0  0  0  0  0  0  0  0  0  0
   15.9201   22.7211   15.7217 C   0  0  0  0  0  0  0  0  0  0  0  0
   14.4070   22.5891   15.7287 C   0  0  0  0  0  0  0  0  0  0  0  0
   13.9552   22.5882   17.0880 O   0  0  0  0  0  0  0  0  0  0  0  0
   14.2261   21.2317   15.0753 C   0  0  0  0  0  0  0  0  0  0  0  0
   14.4563   20.2379   16.0526 O   0  0  0  0  0  0  0  0  0  0  0  0
   16.3589   22.1740   14.4738 O   0  0  0  0  0  0  0  0  0  0  0  0
   15.3399   21.2109   14.0097 C   0  0  0  0  0  0  0  0  0  0  0  0
   14.4192   21.8946   17.5825 H   0  0  0  0  0  0  0  0  0  0  0  0
   15.3322   20.3699   16.4479 H   0  0  0  0  0  0  0  0  0  0  0  0
   19.3076   26.1813   17.4492 N   0  0  0  0  0  0  0  0  0  0  0  0
   19.3598   24.8396   17.4167 C   0  0  0  0  0  0  0  0  0  0  0  0
   18.3742   24.0918   16.9097 N   0  0  0  0  0  0  0  0  0  0  0  0
   17.2773   24.6875   16.4200 C   0  0  0  0  0  0  0  0  0  0  0  0
   17.1610   26.0919   16.4160 C   0  0  0  0  0  0  0  0  0  0  0  0
   18.2392   26.8545   16.9573 C   0  0  0  0  0  0  0  0  0  0  0  0
   18.2551   28.1991   16.9994 N   0  0  0  0  0  0  0  0  0  0  0  0
   15.9574   26.3711   15.8391 N   0  0  0  0  0  0  0  0  0  0  0  0
   15.3661   25.2075   15.5186 C   0  0  0  0  0  0  0  0  0  0  0  0
   16.1722   24.1852   15.8680 N   0  0  0  0  0  0  0  0  0  0  0  0
   19.0283   28.6704   17.3856 H   0  0  0  0  0  0  0  0  0  0  0  0
   17.4934   28.7117   16.6439 H   0  0  0  0  0  0  0  0  0  0  0  0
 34 35  1  0  0  0
 34 39  2  0  0  0
 35 36  2  0  0  0
 36 37  1  0  0  0
 37 38  2  0  0  0
 37 43  1  0  0  0
 38 39  1  0  0  0
 38 41  1  0  0  0
 39 40  1  0  0  0
 41 42  2  0  0  0
 42 43  1  0  0  0
 43 25  1  0  0  0
 25 26  1  0  0  0
 25 30  1  0  0  0
 26 27  1  0  0  0
 26 28  1  0  0  0
 28 29  1  0  0  0
 28 31  1  0  0  0
 30 31  1  0  0  0
 31 24  1  0  0  0
 24  1  1  0  0  0
  1  2  1  0  0  0
  2  3  2  0  0  0
  2  4  1  0  0  0
  2  6  1  0  0  0
  6  7  1  0  0  0
  7  8  2  0  0  0
  7  9  1  0  0  0
  7 11  1  0  0  0
 11 12  1  0  0  0
 12 20  1  0  0  0
 13 15  1  0  0  0
 13 20  1  0  0  0
 14 15  1  0  0  0
 15 17  1  0  0  0
 16 17  1  0  0  0
 17 19  1  0  0  0
 18 19  1  0  0  0
 19 20  1  0  0  0
 40 44  1  0  0  0
 40 45  1  0  0  0
 27 32  1  0  0  0
 29 33  1  0  0  0
  4  5  1  0  0  0
  9 10  1  0  0  0
 14 21  1  0  0  0
 16 22  1  0  0  0
 18 23  1  0  0  0
M  END
> <minimizedAffinity>
-8.75696

$$$$
3Q6Z_APR_A_1


 45 48  0  0  0  0  0  0  0  0999 V2000
   15.7832   20.1103   10.8184 O   0  0  0  0  0  0  0  0  0  0  0  0
   16.8529   19.6312    9.7479 P   0  0  0  0  0  0  0  0  0  0  0  0
   18.1762   20.0363   10.2845 O   0  0  0  0  0  0  0  0  0  0  0  0
   16.5276   20.1323    8.3846 O   0  0  0  0  0  0  0  0  0  0  0  0
   16.6225   21.0974    8.3638 H   0  0  0  0  0  0  0  0  0  0  0  0
   16.7192   17.9101    9.9136 O   0  0  0  0  0  0  0  0  0  0  0  0
   15.3722   16.9465   10.3289 P   0  0  0  0  0  0  0  0  0  0  0  0
   15.9370   15.7090    9.7209 O   0  0  0  0  0  0  0  0  0  0  0  0
   14.4840   17.9020    9.5692 O   0  0  0  0  0  0  0  0  0  0  0  0
   14.3437   17.5672    8.6696 H   0  0  0  0  0  0  0  0  0  0  0  0
   15.7424   17.2786   11.8180 O   0  0  0  0  0  0  0  0  0  0  0  0
   14.7685   17.1624   12.8258 C   0  0  0  0  0  0  0  0  0  0  0  0
   13.5599   18.5490   14.2398 O   0  0  0  0  0  0  0  0  0  0  0  0
   13.8287   20.2435   15.7010 O   0  0  0  0  0  0  0  0  0  0  0  0
   13.7658   18.7893   15.6748 C   0  0  0  0  0  0  0  0  0  0  0  0
   15.7486   18.4702   17.1838 O   0  0  0  0  0  0  0  0  0  0  0  0
   15.0817   18.0482   15.9680 C   0  0  0  0  0  0  0  0  0  0  0  0
   16.2900   19.9195   14.9137 O   0  0  0  0  0  0  0  0  0  0  0  0
   15.8805   18.5257   14.7491 C   0  0  0  0  0  0  0  0  0  0  0  0
   14.8468   18.4402   13.6235 C   0  0  0  0  0  0  0  0  0  0  0  0
   12.9518   20.6087   15.5045 H   0  0  0  0  0  0  0  0  0  0  0  0
   15.2412   18.1669   17.9529 H   0  0  0  0  0  0  0  0  0  0  0  0
   16.9456   19.9819   15.6258 H   0  0  0  0  0  0  0  0  0  0  0  0
   14.9136   21.2555   10.6318 C   0  0  0  0  0  0  0  0  0  0  0  0
   14.4892   22.9265   13.6888 C   0  0  0  0  0  0  0  0  0  0  0  0
   13.9085   23.7728   12.5692 C   0  0  0  0  0  0  0  0  0  0  0  0
   13.0530   24.7670   13.1451 O   0  0  0  0  0  0  0  0  0  0  0  0
   13.1204   22.7346   11.7926 C   0  0  0  0  0  0  0  0  0  0  0  0
   11.8923   22.5246   12.4586 O   0  0  0  0  0  0  0  0  0  0  0  0
   14.8482   21.6753   13.0932 O   0  0  0  0  0  0  0  0  0  0  0  0
   14.0112   21.4803   11.8921 C   0  0  0  0  0  0  0  0  0  0  0  0
   12.3891   24.3365   13.7062 H   0  0  0  0  0  0  0  0  0  0  0  0
   12.0628   22.2790   13.3814 H   0  0  0  0  0  0  0  0  0  0  0  0
   17.9210   23.2482   17.5034 N   0  0  0  0  0  0  0  0  0  0  0  0
   16.9443   22.3557   17.2720 C   0  0  0  0  0  0  0  0  0  0  0  0
   16.1438   22.4239   16.2033 N   0  0  0  0  0  0  0  0  0  0  0  0
   16.3006   23.4227   15.3225 C   0  0  0  0  0  0  0  0  0  0  0  0
   17.3112   24.3886   15.5007 C   0  0  0  0  0  0  0  0  0  0  0  0
   18.1508   24.2748   16.6492 C   0  0  0  0  0  0  0  0  0  0  0  0
   19.1575   25.1238   16.9248 N   0  0  0  0  0  0  0  0  0  0  0  0
   17.2175   25.2361   14.4366 N   0  0  0  0  0  0  0  0  0  0  0  0
   16.2033   24.8215   13.6583 C   0  0  0  0  0  0  0  0  0  0  0  0
   15.6502   23.7160   14.1958 N   0  0  0  0  0  0  0  0  0  0  0  0
   19.7033   24.9941   17.7338 H   0  0  0  0  0  0  0  0  0  0  0  0
   19.3483   25.8747   16.3174 H   0  0  0  0  0  0  0  0  0  0  0  0
 34 35  1  0  0  0
 34 39  2  0  0  0
 35 36  2  0  0  0
 36 37  1  0  0  0
 37 38  2  0  0  0
 37 43  1  0  0  0
 38 39  1  0  0  0
 38 41  1  0  0  0
 39 40  1  0  0  0
 41 42  2  0  0  0
 42 43  1  0  0  0
 43 25  1  0  0  0
 25 26  1  0  0  0
 25 30  1  0  0  0
 26 27  1  0  0  0
 26 28  1  0  0  0
 28 29  1  0  0  0
 28 31  1  0  0  0
 30 31  1  0  0  0
 31 24  1  0  0  0
 24  1  1  0  0  0
  1  2  1  0  0  0
  2  3  2  0  0  0
  2  4  1  0  0  0
  2  6  1  0  0  0
  6  7  1  0  0  0
  7  8  2  0  0  0
  7  9  1  0  0  0
  7 11  1  0  0  0
 11 12  1  0  0  0
 12 20  1  0  0  0
 13 15  1  0  0  0
 13 20  1  0  0  0
 14 15  1  0  0  0
 15 17  1  0  0  0
 16 17  1  0  0  0
 17 19  1  0  0  0
 18 19  1  0  0  0
 19 20  1  0  0  0
 40 44  1  0  0  0
 40 45  1  0  0  0
 27 32  1  0  0  0
 29 33  1  0  0  0
  4  5  1  0  0  0
  9 10  1  0  0  0
 14 21  1  0  0  0
 16 22  1  0  0  0
 18 23  1  0  0  0
M  END
> <minimizedAffinity>
-8.72524

$$$$
3Q6Z_APR_A_1


 45 48  0  0  0  0  0  0  0  0999 V2000
   16.4688   18.6621    9.0486 O   0  0  0  0  0  0  0  0  0  0  0  0
   15.6714   17.6209    9.9429 P   0  0  0  0  0  0  0  0  0  0  0  0
   16.5102   16.3972    9.9894 O   0  0  0  0  0  0  0  0  0  0  0  0
   14.2784   17.4311    9.4542 O   0  0  0  0  0  0  0  0  0  0  0  0
   14.2963   16.9975    8.5867 H   0  0  0  0  0  0  0  0  0  0  0  0
   15.7726   18.3909   11.4935 O   0  0  0  0  0  0  0  0  0  0  0  0
   15.1075   17.9284   12.9966 P   0  0  0  0  0  0  0  0  0  0  0  0
   16.3868   18.1112   13.7381 O   0  0  0  0  0  0  0  0  0  0  0  0
   14.6960   16.6119   12.3830 O   0  0  0  0  0  0  0  0  0  0  0  0
   15.3734   15.9429   12.5687 H   0  0  0  0  0  0  0  0  0  0  0  0
   14.1626   19.1706   12.8274 O   0  0  0  0  0  0  0  0  0  0  0  0
   13.8474   19.9694   13.9411 C   0  0  0  0  0  0  0  0  0  0  0  0
   13.1502   18.7978   15.8183 O   0  0  0  0  0  0  0  0  0  0  0  0
   11.2827   18.1749   16.9151 O   0  0  0  0  0  0  0  0  0  0  0  0
   12.2624   19.2517   16.8977 C   0  0  0  0  0  0  0  0  0  0  0  0
   10.5531   21.0875   17.0330 O   0  0  0  0  0  0  0  0  0  0  0  0
   11.7627   20.6150   16.3892 C   0  0  0  0  0  0  0  0  0  0  0  0
   10.2302   19.4125   14.8796 O   0  0  0  0  0  0  0  0  0  0  0  0
   11.4532   20.2112   14.9425 C   0  0  0  0  0  0  0  0  0  0  0  0
   12.6471   19.3223   14.5857 C   0  0  0  0  0  0  0  0  0  0  0  0
   11.6982   17.3651   17.2504 H   0  0  0  0  0  0  0  0  0  0  0  0
   10.7519   21.3421   17.9477 H   0  0  0  0  0  0  0  0  0  0  0  0
    9.4685   19.9693   15.1046 H   0  0  0  0  0  0  0  0  0  0  0  0
   16.2410   18.8453    7.6284 C   0  0  0  0  0  0  0  0  0  0  0  0
   18.1987   19.2616    4.7455 C   0  0  0  0  0  0  0  0  0  0  0  0
   18.7267   20.1657    5.8457 C   0  0  0  0  0  0  0  0  0  0  0  0
   20.0474   20.5926    5.4913 O   0  0  0  0  0  0  0  0  0  0  0  0
   18.7417   19.2146    7.0277 C   0  0  0  0  0  0  0  0  0  0  0  0
   19.9032   18.4156    6.9358 O   0  0  0  0  0  0  0  0  0  0  0  0
   17.1911   18.4464    5.3531 O   0  0  0  0  0  0  0  0  0  0  0  0
   17.4784   18.3610    6.7993 C   0  0  0  0  0  0  0  0  0  0  0  0
   20.6008   19.8165    5.3118 H   0  0  0  0  0  0  0  0  0  0  0  0
   19.9226   17.9713    6.0737 H   0  0  0  0  0  0  0  0  0  0  0  0
   15.0208   23.2265    3.9622 N   0  0  0  0  0  0  0  0  0  0  0  0
   15.3346   22.5593    5.0850 C   0  0  0  0  0  0  0  0  0  0  0  0
   16.2063   21.5457    5.1014 N   0  0  0  0  0  0  0  0  0  0  0  0
   16.7921   21.1588    3.9590 C   0  0  0  0  0  0  0  0  0  0  0  0
   16.5139   21.8209    2.7464 C   0  0  0  0  0  0  0  0  0  0  0  0
   15.5850   22.9042    2.7730 C   0  0  0  0  0  0  0  0  0  0  0  0
   15.2459   23.6233    1.6878 N   0  0  0  0  0  0  0  0  0  0  0  0
   17.2764   21.2083    1.7963 N   0  0  0  0  0  0  0  0  0  0  0  0
   17.9721   20.2226    2.3884 C   0  0  0  0  0  0  0  0  0  0  0  0
   17.6802   20.1972    3.7041 N   0  0  0  0  0  0  0  0  0  0  0  0
   14.5982   24.3603    1.7683 H   0  0  0  0  0  0  0  0  0  0  0  0
   15.6455   23.4125    0.8130 H   0  0  0  0  0  0  0  0  0  0  0  0
 34 35  1  0  0  0
 34 39  2  0  0  0
 35 36  2  0  0  0
 36 37  1  0  0  0
 37 38  2  0  0  0
 37 43  1  0  0  0
 38 39  1  0  0  0
 38 41  1  0  0  0
 39 40  1  0  0  0
 41 42  2  0  0  0
 42 43  1  0  0  0
 43 25  1  0  0  0
 25 26  1  0  0  0
 25 30  1  0  0  0
 26 27  1  0  0  0
 26 28  1  0  0  0
 28 29  1  0  0  0
 28 31  1  0  0  0
 30 31  1  0  0  0
 31 24  1  0  0  0
 24  1  1  0  0  0
  1  2  1  0  0  0
  2  3  2  0  0  0
  2  4  1  0  0  0
  2  6  1  0  0  0
  6  7  1  0  0  0
  7  8  2  0  0  0
  7  9  1  0  0  0
  7 11  1  0  0  0
 11 12  1  0  0  0
 12 20  1  0  0  0
 13 15  1  0  0  0
 13 20  1  0  0  0
 14 15  1  0  0  0
 15 17  1  0  0  0
 16 17  1  0  0  0
 17 19  1  0  0  0
 18 19  1  0  0  0
 19 20  1  0  0  0
 40 44  1  0  0  0
 40 45  1  0  0  0
 27 32  1  0  0  0
 29 33  1  0  0  0
  4  5  1  0  0  0
  9 10  1  0  0  0
 14 21  1  0  0  0
 16 22  1  0  0  0
 18 23  1  0  0  0
M  END
> <minimizedAffinity>
-8.70998

$$$$
3Q6Z_APR_A_1


 45 48  0  0  0  0  0  0  0  0999 V2000
   13.0608   18.8045   15.2551 O   0  0  0  0  0  0  0  0  0  0  0  0
   11.6881   19.3940   15.7917 P   0  0  0  0  0  0  0  0  0  0  0  0
   11.2494   18.4819   16.8774 O   0  0  0  0  0  0  0  0  0  0  0  0
   10.7112   19.6018   14.6882 O   0  0  0  0  0  0  0  0  0  0  0  0
   10.4466   18.7423   14.3246 H   0  0  0  0  0  0  0  0  0  0  0  0
   12.2398   20.8646   16.5271 O   0  0  0  0  0  0  0  0  0  0  0  0
   11.3706   22.2656   16.9710 P   0  0  0  0  0  0  0  0  0  0  0  0
   12.5590   22.9439   17.5606 O   0  0  0  0  0  0  0  0  0  0  0  0
   10.4346   21.4004   17.7799 O   0  0  0  0  0  0  0  0  0  0  0  0
   10.7258   21.3863   18.7051 H   0  0  0  0  0  0  0  0  0  0  0  0
   11.1006   22.4420   15.4345 O   0  0  0  0  0  0  0  0  0  0  0  0
   10.8665   23.7239   14.9057 C   0  0  0  0  0  0  0  0  0  0  0  0
   11.9862   25.2228   13.5338 O   0  0  0  0  0  0  0  0  0  0  0  0
   13.5562   25.3012   11.9190 O   0  0  0  0  0  0  0  0  0  0  0  0
   13.4356   25.3972   13.3666 C   0  0  0  0  0  0  0  0  0  0  0  0
   15.3932   23.8947   13.8364 O   0  0  0  0  0  0  0  0  0  0  0  0
   14.0238   24.2280   14.1751 C   0  0  0  0  0  0  0  0  0  0  0  0
   13.4272   22.7298   12.3115 O   0  0  0  0  0  0  0  0  0  0  0  0
   13.0855   23.1215   13.6780 C   0  0  0  0  0  0  0  0  0  0  0  0
   11.7248   23.8225   13.6693 C   0  0  0  0  0  0  0  0  0  0  0  0
   13.1563   26.0839   11.5086 H   0  0  0  0  0  0  0  0  0  0  0  0
   15.9842   24.5961   14.1520 H   0  0  0  0  0  0  0  0  0  0  0  0
   14.2890   22.2846   12.3087 H   0  0  0  0  0  0  0  0  0  0  0  0
   14.1206   18.3183   16.1169 C   0  0  0  0  0  0  0  0  0  0  0  0
   16.3436   18.9838   13.4838 C   0  0  0  0  0  0  0  0  0  0  0  0
   15.3910   20.1557   13.6448 C   0  0  0  0  0  0  0  0  0  0  0  0
   15.9359   21.2854   12.9529 O   0  0  0  0  0  0  0  0  0  0  0  0
   15.4161   20.3520   15.1491 C   0  0  0  0  0  0  0  0  0  0  0  0
   16.5834   21.0761   15.4796 O   0  0  0  0  0  0  0  0  0  0  0  0
   16.0826   18.1078   14.5854 O   0  0  0  0  0  0  0  0  0  0  0  0
   15.5052   18.9088   15.6837 C   0  0  0  0  0  0  0  0  0  0  0  0
   16.8364   21.4557   13.2709 H   0  0  0  0  0  0  0  0  0  0  0  0
   17.3609   20.6127   15.1309 H   0  0  0  0  0  0  0  0  0  0  0  0
   17.3754   19.2995    8.4570 N   0  0  0  0  0  0  0  0  0  0  0  0
   17.8851   19.9700    9.5033 C   0  0  0  0  0  0  0  0  0  0  0  0
   17.4993   19.7418   10.7629 N   0  0  0  0  0  0  0  0  0  0  0  0
   16.5591   18.8181   11.0093 C   0  0  0  0  0  0  0  0  0  0  0  0
   15.9882   18.0728    9.9584 C   0  0  0  0  0  0  0  0  0  0  0  0
   16.4342   18.3398    8.6292 C   0  0  0  0  0  0  0  0  0  0  0  0
   15.9779   17.6888    7.5439 N   0  0  0  0  0  0  0  0  0  0  0  0
   15.0985   17.2182   10.5393 N   0  0  0  0  0  0  0  0  0  0  0  0
   15.1146   17.4340   11.8657 C   0  0  0  0  0  0  0  0  0  0  0  0
   16.0067   18.4036   12.1502 N   0  0  0  0  0  0  0  0  0  0  0  0
   16.3239   17.9173    6.6510 H   0  0  0  0  0  0  0  0  0  0  0  0
   15.2978   16.9837    7.6426 H   0  0  0  0  0  0  0  0  0  0  0  0
 34 35  1  0  0  0
 34 39  2  0  0  0
 35 36  2  0  0  0
 36 37  1  0  0  0
 37 38  2  0  0  0
 37 43  1  0  0  0
 38 39  1  0  0  0
 38 41  1  0  0  0
 39 40  1  0  0  0
 41 42  2  0  0  0
 42 43  1  0  0  0
 43 25  1  0  0  0
 25 26  1  0  0  0
 25 30  1  0  0  0
 26 27  1  0  0  0
 26 28  1  0  0  0
 28 29  1  0  0  0
 28 31  1  0  0  0
 30 31  1  0  0  0
 31 24  1  0  0  0
 24  1  1  0  0  0
  1  2  1  0  0  0
  2  3  2  0  0  0
  2  4  1  0  0  0
  2  6  1  0  0  0
  6  7  1  0  0  0
  7  8  2  0  0  0
  7  9  1  0  0  0
  7 11  1  0  0  0
 11 12  1  0  0  0
 12 20  1  0  0  0
 13 15  1  0  0  0
 13 20  1  0  0  0
 14 15  1  0  0  0
 15 17  1  0  0  0
 16 17  1  0  0  0
 17 19  1  0  0  0
 18 19  1  0  0  0
 19 20  1  0  0  0
 40 44  1  0  0  0
 40 45  1  0  0  0
 27 32  1  0  0  0
 29 33  1  0  0  0
  4  5  1  0  0  0
  9 10  1  0  0  0
 14 21  1  0  0  0
 16 22  1  0  0  0
 18 23  1  0  0  0
M  END
> <minimizedAffinity>
-8.45907

$$$$
3Q6Z_APR_A_1


 45 48  0  0  0  0  0  0  0  0999 V2000
   14.0404   20.7828   14.1235 O   0  0  0  0  0  0  0  0  0  0  0  0
   13.6824   19.3876   14.7905 P   0  0  0  0  0  0  0  0  0  0  0  0
   12.2303   19.4410   15.0930 O   0  0  0  0  0  0  0  0  0  0  0  0
   14.5722   19.0867   15.9450 O   0  0  0  0  0  0  0  0  0  0  0  0
   14.3967   19.7168   16.6613 H   0  0  0  0  0  0  0  0  0  0  0  0
   13.9023   18.3236   13.4388 O   0  0  0  0  0  0  0  0  0  0  0  0
   15.3213   17.9110   12.5834 P   0  0  0  0  0  0  0  0  0  0  0  0
   15.1859   16.4519   12.8531 O   0  0  0  0  0  0  0  0  0  0  0  0
   16.1035   18.8415   13.4784 O   0  0  0  0  0  0  0  0  0  0  0  0
   16.4937   18.3358   14.2084 H   0  0  0  0  0  0  0  0  0  0  0  0
   14.5941   18.5047   11.3250 O   0  0  0  0  0  0  0  0  0  0  0  0
   15.1387   19.6177   10.6599 C   0  0  0  0  0  0  0  0  0  0  0  0
   15.9840   18.1719    9.0544 O   0  0  0  0  0  0  0  0  0  0  0  0
   17.8576   17.7454    7.8769 O   0  0  0  0  0  0  0  0  0  0  0  0
   16.6203   18.5054    7.7726 C   0  0  0  0  0  0  0  0  0  0  0  0
   17.7308   20.5906    6.9186 O   0  0  0  0  0  0  0  0  0  0  0  0
   16.7572   20.0364    7.8383 C   0  0  0  0  0  0  0  0  0  0  0  0
   18.6803   19.7303    9.3488 O   0  0  0  0  0  0  0  0  0  0  0  0
   17.2817   20.1497    9.2750 C   0  0  0  0  0  0  0  0  0  0  0  0
   16.4168   19.1322   10.0229 C   0  0  0  0  0  0  0  0  0  0  0  0
   17.6601   16.7972    7.8244 H   0  0  0  0  0  0  0  0  0  0  0  0
   17.3965   20.5175    6.0110 H   0  0  0  0  0  0  0  0  0  0  0  0
   19.2353   20.3707    8.8767 H   0  0  0  0  0  0  0  0  0  0  0  0
   13.1115   21.5541   13.3207 C   0  0  0  0  0  0  0  0  0  0  0  0
   14.8344   24.1098   14.9993 C   0  0  0  0  0  0  0  0  0  0  0  0
   15.3428   24.0156   13.5712 C   0  0  0  0  0  0  0  0  0  0  0  0
   16.0598   25.2165   13.2617 O   0  0  0  0  0  0  0  0  0  0  0  0
   14.0398   23.9242   12.7993 C   0  0  0  0  0  0  0  0  0  0  0  0
   13.5105   25.2278   12.6721 O   0  0  0  0  0  0  0  0  0  0  0  0
   13.7144   23.2220   15.0796 O   0  0  0  0  0  0  0  0  0  0  0  0
   13.1514   23.0673   13.7230 C   0  0  0  0  0  0  0  0  0  0  0  0
   15.4935   25.9848   13.4345 H   0  0  0  0  0  0  0  0  0  0  0  0
   13.4190   25.6269   13.5514 H   0  0  0  0  0  0  0  0  0  0  0  0
   19.0627   25.8654   17.3384 N   0  0  0  0  0  0  0  0  0  0  0  0
   18.1202   26.5065   16.6279 C   0  0  0  0  0  0  0  0  0  0  0  0
   17.0664   25.8783   16.0964 N   0  0  0  0  0  0  0  0  0  0  0  0
   16.9347   24.5540   16.2594 C   0  0  0  0  0  0  0  0  0  0  0  0
   17.8833   23.8214   17.0006 C   0  0  0  0  0  0  0  0  0  0  0  0
   18.9885   24.5306   17.5599 C   0  0  0  0  0  0  0  0  0  0  0  0
   19.9522   23.9494   18.2970 N   0  0  0  0  0  0  0  0  0  0  0  0
   17.4518   22.5279   16.9953 N   0  0  0  0  0  0  0  0  0  0  0  0
   16.3128   22.4687   16.2843 C   0  0  0  0  0  0  0  0  0  0  0  0
   15.9973   23.7023   15.8419 N   0  0  0  0  0  0  0  0  0  0  0  0
   20.6911   24.4914   18.6568 H   0  0  0  0  0  0  0  0  0  0  0  0
   19.9185   22.9820   18.4766 H   0  0  0  0  0  0  0  0  0  0  0  0
 34 35  1  0  0  0
 34 39  2  0  0  0
 35 36  2  0  0  0
 36 37  1  0  0  0
 37 38  2  0  0  0
 37 43  1  0  0  0
 38 39  1  0  0  0
 38 41  1  0  0  0
 39 40  1  0  0  0
 41 42  2  0  0  0
 42 43  1  0  0  0
 43 25  1  0  0  0
 25 26  1  0  0  0
 25 30  1  0  0  0
 26 27  1  0  0  0
 26 28  1  0  0  0
 28 29  1  0  0  0
 28 31  1  0  0  0
 30 31  1  0  0  0
 31 24  1  0  0  0
 24  1  1  0  0  0
  1  2  1  0  0  0
  2  3  2  0  0  0
  2  4  1  0  0  0
  2  6  1  0  0  0
  6  7  1  0  0  0
  7  8  2  0  0  0
  7  9  1  0  0  0
  7 11  1  0  0  0
 11 12  1  0  0  0
 12 20  1  0  0  0
 13 15  1  0  0  0
 13 20  1  0  0  0
 14 15  1  0  0  0
 15 17  1  0  0  0
 16 17  1  0  0  0
 17 19  1  0  0  0
 18 19  1  0  0  0
 19 20  1  0  0  0
 40 44  1  0  0  0
 40 45  1  0  0  0
 27 32  1  0  0  0
 29 33  1  0  0  0
  4  5  1  0  0  0
  9 10  1  0  0  0
 14 21  1  0  0  0
 16 22  1  0  0  0
 18 23  1  0  0  0
M  END
> <minimizedAffinity>
-8.21524

$$$$
