5DBM_58N_A_1201


 24 26  0  0  0  0  0  0  0  0999 V2000
    4.1364   57.1754   49.7469 C   0  0  0  0  0  0  0  0  0  0  0  0
    4.2196   58.5593   50.0833 C   0  0  0  0  0  0  0  0  0  0  0  0
    5.3528   59.2392   49.6273 N   0  0  0  0  0  0  0  0  0  0  0  0
    5.3235   60.4659   48.8001 C   0  0  0  0  0  0  0  0  0  0  0  0
    6.5607   61.2432   49.0778 C   0  0  0  0  0  0  0  0  0  0  0  0
    4.0396   61.2248   48.9459 C   0  0  0  0  0  0  0  0  0  0  0  0
    3.8505   61.4873   50.3604 C   0  0  0  0  0  0  0  0  0  0  0  0
    4.0804   62.6234   50.8983 O   0  0  0  0  0  0  0  0  0  0  0  0
    3.3287   60.5136   51.1723 N   0  0  0  0  0  0  0  0  0  0  0  0
    3.2106   59.1578   50.7848 C   0  0  0  0  0  0  0  0  0  0  0  0
    2.1031   58.4803   51.2640 C   0  0  0  0  0  0  0  0  0  0  0  0
    1.9798   57.1007   50.9353 C   0  0  0  0  0  0  0  0  0  0  0  0
    3.0001   56.5242   50.2099 C   0  0  0  0  0  0  0  0  0  0  0  0
    6.2337   58.8758   49.8743 H   0  0  0  0  0  0  0  0  0  0  0  0
    3.0203   60.7709   52.0711 H   0  0  0  0  0  0  0  0  0  0  0  0
    6.4012   54.8748   48.4188 N   0  0  0  0  0  0  0  0  0  0  0  0
    5.6134   55.2923   49.4264 C   0  0  0  0  0  0  0  0  0  0  0  0
    6.2835   55.7066   47.3375 N   0  0  0  0  0  0  0  0  0  0  0  0
    5.4193   56.7003   47.7086 C   0  0  0  0  0  0  0  0  0  0  0  0
    5.0317   56.4816   49.0069 C   0  0  0  0  0  0  0  0  0  0  0  0
    6.2631   52.3755   48.2961 C   0  0  0  0  0  0  0  0  0  0  0  0
    7.2033   53.6046   48.2704 C   0  0  0  0  0  0  0  0  0  0  0  0
    7.8943   53.6030   46.9093 C   0  0  0  0  0  0  0  0  0  0  0  0
    8.1844   53.4649   49.3476 C   0  0  0  0  0  0  0  0  0  0  0  0
  8  7  2  0  0  0
  9  7  1  0  0  0
  9 10  1  0  0  0
 11 10  2  0  0  0
 11 12  1  0  0  0
  7  6  1  0  0  0
 10  2  1  0  0  0
 12 13  2  0  0  0
  6  4  1  0  0  0
  2  3  1  0  0  0
  2  1  2  0  0  0
 13  1  1  0  0  0
  4  5  1  0  0  0
  4  3  1  0  0  0
  1 20  1  0  0  0
 20 17  2  0  0  0
 20 19  1  0  0  0
 17 16  1  0  0  0
 19 18  2  0  0  0
 16 18  1  0  0  0
 16 22  1  0  0  0
 23 22  1  0  0  0
 22 24  1  0  0  0
 22 21  1  0  0  0
  3 14  1  0  0  0
  9 15  1  0  0  0
M  END
> <minimizedAffinity>
-8.26228

$$$$
5DBM_58N_A_1201


 24 26  0  0  0  0  0  0  0  0999 V2000
    4.5363   57.1471   49.3412 C   0  0  0  0  0  0  0  0  0  0  0  0
    4.7200   58.5022   49.7478 C   0  0  0  0  0  0  0  0  0  0  0  0
    5.7162   59.2188   49.0782 N   0  0  0  0  0  0  0  0  0  0  0  0
    5.5026   60.5040   48.3762 C   0  0  0  0  0  0  0  0  0  0  0  0
    6.7814   61.2630   48.3973 C   0  0  0  0  0  0  0  0  0  0  0  0
    4.3051   61.2448   48.8892 C   0  0  0  0  0  0  0  0  0  0  0  0
    4.4734   61.3997   50.3221 C   0  0  0  0  0  0  0  0  0  0  0  0
    4.8452   62.4932   50.8690 O   0  0  0  0  0  0  0  0  0  0  0  0
    4.1529   60.3658   51.1634 N   0  0  0  0  0  0  0  0  0  0  0  0
    3.9233   59.0425   50.7182 C   0  0  0  0  0  0  0  0  0  0  0  0
    2.9577   58.3266   51.4041 C   0  0  0  0  0  0  0  0  0  0  0  0
    2.7371   56.9751   51.0152 C   0  0  0  0  0  0  0  0  0  0  0  0
    3.5392   56.4586   50.0205 C   0  0  0  0  0  0  0  0  0  0  0  0
    6.6254   58.8413   49.0732 H   0  0  0  0  0  0  0  0  0  0  0  0
    4.0787   60.5538   52.1269 H   0  0  0  0  0  0  0  0  0  0  0  0
    6.0239   56.1028   46.3609 N   0  0  0  0  0  0  0  0  0  0  0  0
    5.2115   56.9393   47.0323 C   0  0  0  0  0  0  0  0  0  0  0  0
    6.6101   55.2087   47.2164 N   0  0  0  0  0  0  0  0  0  0  0  0
    6.1065   55.4788   48.4596 C   0  0  0  0  0  0  0  0  0  0  0  0
    5.2119   56.5143   48.3545 C   0  0  0  0  0  0  0  0  0  0  0  0
    6.1788   54.7728   44.2424 C   0  0  0  0  0  0  0  0  0  0  0  0
    6.4779   56.1311   44.9214 C   0  0  0  0  0  0  0  0  0  0  0  0
    5.6793   57.1884   44.1636 C   0  0  0  0  0  0  0  0  0  0  0  0
    7.9136   56.3977   44.8205 C   0  0  0  0  0  0  0  0  0  0  0  0
  8  7  2  0  0  0
  9  7  1  0  0  0
  9 10  1  0  0  0
 11 10  2  0  0  0
 11 12  1  0  0  0
  7  6  1  0  0  0
 10  2  1  0  0  0
 12 13  2  0  0  0
  6  4  1  0  0  0
  2  3  1  0  0  0
  2  1  2  0  0  0
 13  1  1  0  0  0
  4  5  1  0  0  0
  4  3  1  0  0  0
  1 20  1  0  0  0
 20 17  2  0  0  0
 20 19  1  0  0  0
 17 16  1  0  0  0
 19 18  2  0  0  0
 16 18  1  0  0  0
 16 22  1  0  0  0
 23 22  1  0  0  0
 22 24  1  0  0  0
 22 21  1  0  0  0
  3 14  1  0  0  0
  9 15  1  0  0  0
M  END
> <minimizedAffinity>
-7.91640

$$$$
5DBM_58N_A_1201


 24 26  0  0  0  0  0  0  0  0999 V2000
    4.7758   58.6696   48.9944 C   0  0  0  0  0  0  0  0  0  0  0  0
    3.6950   58.6606   49.9256 C   0  0  0  0  0  0  0  0  0  0  0  0
    2.9532   57.4780   50.0002 N   0  0  0  0  0  0  0  0  0  0  0  0
    2.7181   56.7075   51.2416 C   0  0  0  0  0  0  0  0  0  0  0  0
    1.4265   55.9835   51.1016 C   0  0  0  0  0  0  0  0  0  0  0  0
    2.8541   57.5501   52.4733 C   0  0  0  0  0  0  0  0  0  0  0  0
    1.9558   58.6800   52.3258 C   0  0  0  0  0  0  0  0  0  0  0  0
    0.8274   58.7593   52.9202 O   0  0  0  0  0  0  0  0  0  0  0  0
    2.3395   59.7653   51.5812 N   0  0  0  0  0  0  0  0  0  0  0  0
    3.4520   59.7555   50.7070 C   0  0  0  0  0  0  0  0  0  0  0  0
    4.1650   60.9379   50.6131 C   0  0  0  0  0  0  0  0  0  0  0  0
    5.2599   60.9783   49.7042 C   0  0  0  0  0  0  0  0  0  0  0  0
    5.4977   59.8552   48.9417 C   0  0  0  0  0  0  0  0  0  0  0  0
    2.5587   57.1330   49.1668 H   0  0  0  0  0  0  0  0  0  0  0  0
    1.8138   60.5941   51.6586 H   0  0  0  0  0  0  0  0  0  0  0  0
    5.7462   56.5321   46.4107 N   0  0  0  0  0  0  0  0  0  0  0  0
    5.3099   57.7324   46.8341 C   0  0  0  0  0  0  0  0  0  0  0  0
    5.9607   55.6943   47.4723 N   0  0  0  0  0  0  0  0  0  0  0  0
    5.6025   56.3933   48.5927 C   0  0  0  0  0  0  0  0  0  0  0  0
    5.1595   57.6351   48.2114 C   0  0  0  0  0  0  0  0  0  0  0  0
    5.6909   54.6282   44.7819 C   0  0  0  0  0  0  0  0  0  0  0  0
    6.1688   56.0784   45.0343 C   0  0  0  0  0  0  0  0  0  0  0  0
    5.4895   56.9555   43.9858 C   0  0  0  0  0  0  0  0  0  0  0  0
    7.6238   56.1241   44.8814 C   0  0  0  0  0  0  0  0  0  0  0  0
  8  7  2  0  0  0
  9  7  1  0  0  0
  9 10  1  0  0  0
 11 10  2  0  0  0
 11 12  1  0  0  0
  7  6  1  0  0  0
 10  2  1  0  0  0
 12 13  2  0  0  0
  6  4  1  0  0  0
  2  3  1  0  0  0
  2  1  2  0  0  0
 13  1  1  0  0  0
  4  5  1  0  0  0
  4  3  1  0  0  0
  1 20  1  0  0  0
 20 17  2  0  0  0
 20 19  1  0  0  0
 17 16  1  0  0  0
 19 18  2  0  0  0
 16 18  1  0  0  0
 16 22  1  0  0  0
 23 22  1  0  0  0
 22 24  1  0  0  0
 22 21  1  0  0  0
  3 14  1  0  0  0
  9 15  1  0  0  0
M  END
> <minimizedAffinity>
-7.42678

$$$$
5DBM_58N_A_1201


 24 26  0  0  0  0  0  0  0  0999 V2000
    5.9571   55.4266   48.5688 C   0  0  0  0  0  0  0  0  0  0  0  0
    6.2066   55.1627   47.1891 C   0  0  0  0  0  0  0  0  0  0  0  0
    5.5810   56.0144   46.2739 N   0  0  0  0  0  0  0  0  0  0  0  0
    6.2837   56.7879   45.2261 C   0  0  0  0  0  0  0  0  0  0  0  0
    5.3426   56.9978   44.0937 C   0  0  0  0  0  0  0  0  0  0  0  0
    7.6072   56.1871   44.8609 C   0  0  0  0  0  0  0  0  0  0  0  0
    7.3664   54.8066   44.4846 C   0  0  0  0  0  0  0  0  0  0  0  0
    7.3378   54.4066   43.2713 O   0  0  0  0  0  0  0  0  0  0  0  0
    7.2357   53.8468   45.4547 N   0  0  0  0  0  0  0  0  0  0  0  0
    7.0436   54.1454   46.8244 C   0  0  0  0  0  0  0  0  0  0  0  0
    7.6392   53.2817   47.7269 C   0  0  0  0  0  0  0  0  0  0  0  0
    7.4238   53.5236   49.1131 C   0  0  0  0  0  0  0  0  0  0  0  0
    6.5921   54.5675   49.4567 C   0  0  0  0  0  0  0  0  0  0  0  0
    4.6025   56.1063   46.3306 H   0  0  0  0  0  0  0  0  0  0  0  0
    7.2775   52.9010   45.1845 H   0  0  0  0  0  0  0  0  0  0  0  0
    4.5659   58.4794   49.5335 N   0  0  0  0  0  0  0  0  0  0  0  0
    5.5751   57.7728   48.9926 C   0  0  0  0  0  0  0  0  0  0  0  0
    3.5261   57.6551   49.8714 N   0  0  0  0  0  0  0  0  0  0  0  0
    3.9275   56.3836   49.5642 C   0  0  0  0  0  0  0  0  0  0  0  0
    5.2035   56.4363   49.0617 C   0  0  0  0  0  0  0  0  0  0  0  0
    5.7114   60.7039   49.3914 C   0  0  0  0  0  0  0  0  0  0  0  0
    4.3715   59.9723   49.6455 C   0  0  0  0  0  0  0  0  0  0  0  0
    3.4032   60.4354   48.5600 C   0  0  0  0  0  0  0  0  0  0  0  0
    3.8784   60.3475   50.9715 C   0  0  0  0  0  0  0  0  0  0  0  0
  8  7  2  0  0  0
  9  7  1  0  0  0
  9 10  1  0  0  0
 11 10  2  0  0  0
 11 12  1  0  0  0
  7  6  1  0  0  0
 10  2  1  0  0  0
 12 13  2  0  0  0
  6  4  1  0  0  0
  2  3  1  0  0  0
  2  1  2  0  0  0
 13  1  1  0  0  0
  4  5  1  0  0  0
  4  3  1  0  0  0
  1 20  1  0  0  0
 20 17  2  0  0  0
 20 19  1  0  0  0
 17 16  1  0  0  0
 19 18  2  0  0  0
 16 18  1  0  0  0
 16 22  1  0  0  0
 23 22  1  0  0  0
 22 24  1  0  0  0
 22 21  1  0  0  0
  3 14  1  0  0  0
  9 15  1  0  0  0
M  END
> <minimizedAffinity>
-6.95982

$$$$
5DBM_58N_A_1201


 24 26  0  0  0  0  0  0  0  0999 V2000
    6.1482   55.2156   48.4670 C   0  0  0  0  0  0  0  0  0  0  0  0
    6.4063   54.9851   47.0829 C   0  0  0  0  0  0  0  0  0  0  0  0
    5.6892   55.7760   46.1804 N   0  0  0  0  0  0  0  0  0  0  0  0
    6.3000   56.6206   45.1298 C   0  0  0  0  0  0  0  0  0  0  0  0
    5.3296   56.7429   44.0094 C   0  0  0  0  0  0  0  0  0  0  0  0
    7.6718   56.1551   44.7461 C   0  0  0  0  0  0  0  0  0  0  0  0
    7.5638   54.7596   44.3634 C   0  0  0  0  0  0  0  0  0  0  0  0
    7.5605   54.3654   43.1479 O   0  0  0  0  0  0  0  0  0  0  0  0
    7.5395   53.7864   45.3287 N   0  0  0  0  0  0  0  0  0  0  0  0
    7.3350   54.0572   46.7023 C   0  0  0  0  0  0  0  0  0  0  0  0
    8.0234   53.2515   47.5924 C   0  0  0  0  0  0  0  0  0  0  0  0
    7.8014   53.4635   48.9825 C   0  0  0  0  0  0  0  0  0  0  0  0
    6.8751   54.4185   49.3422 C   0  0  0  0  0  0  0  0  0  0  0  0
    4.7071   55.7707   46.2485 H   0  0  0  0  0  0  0  0  0  0  0  0
    7.6711   52.8508   45.0518 H   0  0  0  0  0  0  0  0  0  0  0  0
    3.6882   57.0085   50.1757 N   0  0  0  0  0  0  0  0  0  0  0  0
    4.2713   55.8400   49.8517 C   0  0  0  0  0  0  0  0  0  0  0  0
    4.3593   58.0573   49.6060 N   0  0  0  0  0  0  0  0  0  0  0  0
    5.3727   57.5100   48.8673 C   0  0  0  0  0  0  0  0  0  0  0  0
    5.3047   56.1435   48.9749 C   0  0  0  0  0  0  0  0  0  0  0  0
    2.9606   56.7866   52.5636 C   0  0  0  0  0  0  0  0  0  0  0  0
    2.5797   57.3061   51.1563 C   0  0  0  0  0  0  0  0  0  0  0  0
    2.4074   58.8181   51.2759 C   0  0  0  0  0  0  0  0  0  0  0  0
    1.3239   56.6739   50.7491 C   0  0  0  0  0  0  0  0  0  0  0  0
  8  7  2  0  0  0
  9  7  1  0  0  0
  9 10  1  0  0  0
 11 10  2  0  0  0
 11 12  1  0  0  0
  7  6  1  0  0  0
 10  2  1  0  0  0
 12 13  2  0  0  0
  6  4  1  0  0  0
  2  3  1  0  0  0
  2  1  2  0  0  0
 13  1  1  0  0  0
  4  5  1  0  0  0
  4  3  1  0  0  0
  1 20  1  0  0  0
 20 17  2  0  0  0
 20 19  1  0  0  0
 17 16  1  0  0  0
 19 18  2  0  0  0
 16 18  1  0  0  0
 16 22  1  0  0  0
 23 22  1  0  0  0
 22 24  1  0  0  0
 22 21  1  0  0  0
  3 14  1  0  0  0
  9 15  1  0  0  0
M  END
> <minimizedAffinity>
-6.64258

$$$$
5DBM_58N_A_1201


 24 26  0  0  0  0  0  0  0  0999 V2000
    3.5283   56.8575   50.2803 C   0  0  0  0  0  0  0  0  0  0  0  0
    4.0154   58.0478   49.6626 C   0  0  0  0  0  0  0  0  0  0  0  0
    3.4254   59.2454   50.0774 N   0  0  0  0  0  0  0  0  0  0  0  0
    4.1669   60.4095   50.6113 C   0  0  0  0  0  0  0  0  0  0  0  0
    3.3869   61.6379   50.3039 C   0  0  0  0  0  0  0  0  0  0  0  0
    5.5988   60.4283   50.1697 C   0  0  0  0  0  0  0  0  0  0  0  0
    5.6053   60.3651   48.7201 C   0  0  0  0  0  0  0  0  0  0  0  0
    5.8133   61.3830   47.9761 O   0  0  0  0  0  0  0  0  0  0  0  0
    5.4608   59.1571   48.0882 N   0  0  0  0  0  0  0  0  0  0  0  0
    5.0268   57.9817   48.7456 C   0  0  0  0  0  0  0  0  0  0  0  0
    5.5910   56.7952   48.3104 C   0  0  0  0  0  0  0  0  0  0  0  0
    5.1393   55.5884   48.9154 C   0  0  0  0  0  0  0  0  0  0  0  0
    4.1326   55.6823   49.8521 C   0  0  0  0  0  0  0  0  0  0  0  0
    2.4461   59.3196   50.0095 H   0  0  0  0  0  0  0  0  0  0  0  0
    5.6696   59.1048   47.1275 H   0  0  0  0  0  0  0  0  0  0  0  0
    1.5463   57.1871   53.1349 N   0  0  0  0  0  0  0  0  0  0  0  0
    2.6875   57.4384   52.4680 C   0  0  0  0  0  0  0  0  0  0  0  0
    0.6774   56.4738   52.3533 N   0  0  0  0  0  0  0  0  0  0  0  0
    1.3257   56.2405   51.1712 C   0  0  0  0  0  0  0  0  0  0  0  0
    2.5804   56.7920   51.2434 C   0  0  0  0  0  0  0  0  0  0  0  0
    0.3252   59.0500   54.2836 C   0  0  0  0  0  0  0  0  0  0  0  0
    1.0632   57.7023   54.4691 C   0  0  0  0  0  0  0  0  0  0  0  0
    0.0488   56.7201   55.0493 C   0  0  0  0  0  0  0  0  0  0  0  0
    2.1766   57.9033   55.3977 C   0  0  0  0  0  0  0  0  0  0  0  0
  8  7  2  0  0  0
  9  7  1  0  0  0
  9 10  1  0  0  0
 11 10  2  0  0  0
 11 12  1  0  0  0
  7  6  1  0  0  0
 10  2  1  0  0  0
 12 13  2  0  0  0
  6  4  1  0  0  0
  2  3  1  0  0  0
  2  1  2  0  0  0
 13  1  1  0  0  0
  4  5  1  0  0  0
  4  3  1  0  0  0
  1 20  1  0  0  0
 20 17  2  0  0  0
 20 19  1  0  0  0
 17 16  1  0  0  0
 19 18  2  0  0  0
 16 18  1  0  0  0
 16 22  1  0  0  0
 23 22  1  0  0  0
 22 24  1  0  0  0
 22 21  1  0  0  0
  3 14  1  0  0  0
  9 15  1  0  0  0
M  END
> <minimizedAffinity>
-6.63110

$$$$
5DBM_58N_A_1201


 24 26  0  0  0  0  0  0  0  0999 V2000
    4.8225   58.1811   49.4834 C   0  0  0  0  0  0  0  0  0  0  0  0
    3.6979   58.2173   50.3605 C   0  0  0  0  0  0  0  0  0  0  0  0
    3.0760   56.9922   50.6189 N   0  0  0  0  0  0  0  0  0  0  0  0
    2.8509   56.4295   51.9690 C   0  0  0  0  0  0  0  0  0  0  0  0
    1.6486   55.5558   51.9138 C   0  0  0  0  0  0  0  0  0  0  0  0
    2.8325   57.4842   53.0335 C   0  0  0  0  0  0  0  0  0  0  0  0
    1.8346   58.4662   52.6523 C   0  0  0  0  0  0  0  0  0  0  0  0
    0.6726   58.5246   53.1807 O   0  0  0  0  0  0  0  0  0  0  0  0
    2.1479   59.4398   51.7394 N   0  0  0  0  0  0  0  0  0  0  0  0
    3.3028   59.3987   50.9229 C   0  0  0  0  0  0  0  0  0  0  0  0
    3.8972   60.6171   50.6446 C   0  0  0  0  0  0  0  0  0  0  0  0
    5.0313   60.6172   49.7842 C   0  0  0  0  0  0  0  0  0  0  0  0
    5.4232   59.4108   49.2452 C   0  0  0  0  0  0  0  0  0  0  0  0
    2.7653   56.4659   49.8471 H   0  0  0  0  0  0  0  0  0  0  0  0
    1.5380   60.2071   51.6473 H   0  0  0  0  0  0  0  0  0  0  0  0
    6.1778   55.0515   48.7390 N   0  0  0  0  0  0  0  0  0  0  0  0
    5.7577   55.9603   49.6377 C   0  0  0  0  0  0  0  0  0  0  0  0
    5.9797   55.5069   47.4630 N   0  0  0  0  0  0  0  0  0  0  0  0
    5.4541   56.7647   47.5805 C   0  0  0  0  0  0  0  0  0  0  0  0
    5.3515   57.0738   48.9137 C   0  0  0  0  0  0  0  0  0  0  0  0
    8.0516   53.4387   48.3282 C   0  0  0  0  0  0  0  0  0  0  0  0
    6.6407   53.6280   48.9353 C   0  0  0  0  0  0  0  0  0  0  0  0
    6.7613   53.3408   50.4297 C   0  0  0  0  0  0  0  0  0  0  0  0
    5.7269   52.6779   48.2991 C   0  0  0  0  0  0  0  0  0  0  0  0
  8  7  2  0  0  0
  9  7  1  0  0  0
  9 10  1  0  0  0
 11 10  2  0  0  0
 11 12  1  0  0  0
  7  6  1  0  0  0
 10  2  1  0  0  0
 12 13  2  0  0  0
  6  4  1  0  0  0
  2  3  1  0  0  0
  2  1  2  0  0  0
 13  1  1  0  0  0
  4  5  1  0  0  0
  4  3  1  0  0  0
  1 20  1  0  0  0
 20 17  2  0  0  0
 20 19  1  0  0  0
 17 16  1  0  0  0
 19 18  2  0  0  0
 16 18  1  0  0  0
 16 22  1  0  0  0
 23 22  1  0  0  0
 22 24  1  0  0  0
 22 21  1  0  0  0
  3 14  1  0  0  0
  9 15  1  0  0  0
M  END
> <minimizedAffinity>
-6.59643

$$$$
5DBM_58N_A_1201


 24 26  0  0  0  0  0  0  0  0999 V2000
    6.0815   55.8933   46.2907 C   0  0  0  0  0  0  0  0  0  0  0  0
    7.0678   54.8663   46.2022 C   0  0  0  0  0  0  0  0  0  0  0  0
    7.6854   54.4975   47.4009 N   0  0  0  0  0  0  0  0  0  0  0  0
    7.7335   53.1181   47.9347 C   0  0  0  0  0  0  0  0  0  0  0  0
    8.9587   52.9844   48.7670 C   0  0  0  0  0  0  0  0  0  0  0  0
    7.5661   52.0833   46.8637 C   0  0  0  0  0  0  0  0  0  0  0  0
    8.5762   52.3386   45.8538 C   0  0  0  0  0  0  0  0  0  0  0  0
    9.6486   51.6518   45.7471 O   0  0  0  0  0  0  0  0  0  0  0  0
    8.3653   53.3061   44.9058 N   0  0  0  0  0  0  0  0  0  0  0  0
    7.3406   54.2774   44.9993 C   0  0  0  0  0  0  0  0  0  0  0  0
    6.7533   54.6619   43.8066 C   0  0  0  0  0  0  0  0  0  0  0  0
    5.7541   55.6744   43.8590 C   0  0  0  0  0  0  0  0  0  0  0  0
    5.4819   56.2392   45.0863 C   0  0  0  0  0  0  0  0  0  0  0  0
    8.1197   55.2066   47.9280 H   0  0  0  0  0  0  0  0  0  0  0  0
    8.9573   53.3262   44.1194 H   0  0  0  0  0  0  0  0  0  0  0  0
    5.0538   58.1208   48.7742 N   0  0  0  0  0  0  0  0  0  0  0  0
    5.5116   57.8850   47.5312 C   0  0  0  0  0  0  0  0  0  0  0  0
    4.8384   56.9443   49.4408 N   0  0  0  0  0  0  0  0  0  0  0  0
    5.2182   55.9439   48.5881 C   0  0  0  0  0  0  0  0  0  0  0  0
    5.6749   56.5099   47.4243 C   0  0  0  0  0  0  0  0  0  0  0  0
    5.8094   60.3808   49.5504 C   0  0  0  0  0  0  0  0  0  0  0  0
    4.6104   59.4106   49.4215 C   0  0  0  0  0  0  0  0  0  0  0  0
    3.5832   60.0957   48.5240 C   0  0  0  0  0  0  0  0  0  0  0  0
    4.0551   59.1744   50.7549 C   0  0  0  0  0  0  0  0  0  0  0  0
  8  7  2  0  0  0
  9  7  1  0  0  0
  9 10  1  0  0  0
 11 10  2  0  0  0
 11 12  1  0  0  0
  7  6  1  0  0  0
 10  2  1  0  0  0
 12 13  2  0  0  0
  6  4  1  0  0  0
  2  3  1  0  0  0
  2  1  2  0  0  0
 13  1  1  0  0  0
  4  5  1  0  0  0
  4  3  1  0  0  0
  1 20  1  0  0  0
 20 17  2  0  0  0
 20 19  1  0  0  0
 17 16  1  0  0  0
 19 18  2  0  0  0
 16 18  1  0  0  0
 16 22  1  0  0  0
 23 22  1  0  0  0
 22 24  1  0  0  0
 22 21  1  0  0  0
  3 14  1  0  0  0
  9 15  1  0  0  0
M  END
> <minimizedAffinity>
-6.11344

$$$$
5DBM_58N_A_1201


 24 26  0  0  0  0  0  0  0  0999 V2000
    5.3207   56.6975   48.9003 C   0  0  0  0  0  0  0  0  0  0  0  0
    5.5050   55.5303   49.6997 C   0  0  0  0  0  0  0  0  0  0  0  0
    5.1797   55.6509   51.0539 N   0  0  0  0  0  0  0  0  0  0  0  0
    4.2246   54.7780   51.7722 C   0  0  0  0  0  0  0  0  0  0  0  0
    4.6238   54.7319   53.2042 C   0  0  0  0  0  0  0  0  0  0  0  0
    4.0546   53.4457   51.1075 C   0  0  0  0  0  0  0  0  0  0  0  0
    5.3743   52.8573   50.9742 C   0  0  0  0  0  0  0  0  0  0  0  0
    5.8098   51.9339   51.7426 O   0  0  0  0  0  0  0  0  0  0  0  0
    6.1886   53.2336   49.9374 N   0  0  0  0  0  0  0  0  0  0  0  0
    5.9450   54.3689   49.1288 C   0  0  0  0  0  0  0  0  0  0  0  0
    6.2972   54.2554   47.7952 C   0  0  0  0  0  0  0  0  0  0  0  0
    6.1130   55.3965   46.9643 C   0  0  0  0  0  0  0  0  0  0  0  0
    5.6491   56.5502   47.5586 C   0  0  0  0  0  0  0  0  0  0  0  0
    5.6176   56.3681   51.5668 H   0  0  0  0  0  0  0  0  0  0  0  0
    6.9837   52.6857   49.7457 H   0  0  0  0  0  0  0  0  0  0  0  0
    4.7288   60.0399   49.7150 N   0  0  0  0  0  0  0  0  0  0  0  0
    5.5430   59.0769   49.2460 C   0  0  0  0  0  0  0  0  0  0  0  0
    3.4963   59.5255   50.0170 N   0  0  0  0  0  0  0  0  0  0  0  0
    3.5668   58.1830   49.7626 C   0  0  0  0  0  0  0  0  0  0  0  0
    4.8341   57.8854   49.3277 C   0  0  0  0  0  0  0  0  0  0  0  0
    4.8692   62.1417   48.3572 C   0  0  0  0  0  0  0  0  0  0  0  0
    4.9242   61.5355   49.7801 C   0  0  0  0  0  0  0  0  0  0  0  0
    3.7756   62.1581   50.5695 C   0  0  0  0  0  0  0  0  0  0  0  0
    6.2121   61.8789   50.3848 C   0  0  0  0  0  0  0  0  0  0  0  0
  8  7  2  0  0  0
  9  7  1  0  0  0
  9 10  1  0  0  0
 11 10  2  0  0  0
 11 12  1  0  0  0
  7  6  1  0  0  0
 10  2  1  0  0  0
 12 13  2  0  0  0
  6  4  1  0  0  0
  2  3  1  0  0  0
  2  1  2  0  0  0
 13  1  1  0  0  0
  4  5  1  0  0  0
  4  3  1  0  0  0
  1 20  1  0  0  0
 20 17  2  0  0  0
 20 19  1  0  0  0
 17 16  1  0  0  0
 19 18  2  0  0  0
 16 18  1  0  0  0
 16 22  1  0  0  0
 23 22  1  0  0  0
 22 24  1  0  0  0
 22 21  1  0  0  0
  3 14  1  0  0  0
  9 15  1  0  0  0
M  END
> <minimizedAffinity>
-5.93021

$$$$
5DBM_58N_A_1201


 24 26  0  0  0  0  0  0  0  0999 V2000
    5.8547   55.7291   47.8094 C   0  0  0  0  0  0  0  0  0  0  0  0
    6.5924   54.5974   48.2682 C   0  0  0  0  0  0  0  0  0  0  0  0
    6.7231   54.4651   49.6538 N   0  0  0  0  0  0  0  0  0  0  0  0
    6.3258   53.2676   50.4272 C   0  0  0  0  0  0  0  0  0  0  0  0
    7.1817   53.1936   51.6412 C   0  0  0  0  0  0  0  0  0  0  0  0
    6.2920   52.0277   49.5863 C   0  0  0  0  0  0  0  0  0  0  0  0
    7.5938   51.8945   48.9593 C   0  0  0  0  0  0  0  0  0  0  0  0
    8.4856   51.0743   49.3653 O   0  0  0  0  0  0  0  0  0  0  0  0
    7.8844   52.6135   47.8288 N   0  0  0  0  0  0  0  0  0  0  0  0
    7.0982   53.6977   47.3722 C   0  0  0  0  0  0  0  0  0  0  0  0
    6.9970   53.8428   45.9996 C   0  0  0  0  0  0  0  0  0  0  0  0
    6.2554   54.9532   45.5060 C   0  0  0  0  0  0  0  0  0  0  0  0
    5.7378   55.8357   46.4294 C   0  0  0  0  0  0  0  0  0  0  0  0
    7.1072   55.2232   50.1508 H   0  0  0  0  0  0  0  0  0  0  0  0
    8.6812   52.3625   47.3079 H   0  0  0  0  0  0  0  0  0  0  0  0
    4.6880   58.6198   49.3807 N   0  0  0  0  0  0  0  0  0  0  0  0
    5.4974   58.0181   48.4901 C   0  0  0  0  0  0  0  0  0  0  0  0
    3.8734   57.7028   49.9893 N   0  0  0  0  0  0  0  0  0  0  0  0
    4.2237   56.4809   49.4830 C   0  0  0  0  0  0  0  0  0  0  0  0
    5.2513   56.6549   48.5902 C   0  0  0  0  0  0  0  0  0  0  0  0
    3.3929   60.6440   48.6695 C   0  0  0  0  0  0  0  0  0  0  0  0
    4.4534   60.0867   49.6493 C   0  0  0  0  0  0  0  0  0  0  0  0
    3.8858   60.2551   51.0563 C   0  0  0  0  0  0  0  0  0  0  0  0
    5.6859   60.8608   49.4936 C   0  0  0  0  0  0  0  0  0  0  0  0
  8  7  2  0  0  0
  9  7  1  0  0  0
  9 10  1  0  0  0
 11 10  2  0  0  0
 11 12  1  0  0  0
  7  6  1  0  0  0
 10  2  1  0  0  0
 12 13  2  0  0  0
  6  4  1  0  0  0
  2  3  1  0  0  0
  2  1  2  0  0  0
 13  1  1  0  0  0
  4  5  1  0  0  0
  4  3  1  0  0  0
  1 20  1  0  0  0
 20 17  2  0  0  0
 20 19  1  0  0  0
 17 16  1  0  0  0
 19 18  2  0  0  0
 16 18  1  0  0  0
 16 22  1  0  0  0
 23 22  1  0  0  0
 22 24  1  0  0  0
 22 21  1  0  0  0
  3 14  1  0  0  0
  9 15  1  0  0  0
M  END
> <minimizedAffinity>
-5.92233

$$$$
