1Z9Y_FUN_A_500


 25 26  0  0  0  0  0  0  0  0999 V2000
   15.4337    4.1579   15.8790 C   0  0  0  0  0  0  0  0  0  0  0  0
   15.2098    5.5220   16.0982 C   0  0  0  0  0  0  0  0  0  0  0  0
   14.5950    6.0745   17.6379 Cl  0  0  0  0  0  0  0  0  0  0  0  0
   15.4786    6.5211   15.1525 C   0  0  0  0  0  0  0  0  0  0  0  0
   16.0732    6.1406   13.9548 C   0  0  0  0  0  0  0  0  0  0  0  0
   16.2675    4.7713   13.7135 C   0  0  0  0  0  0  0  0  0  0  0  0
   15.9614    3.7796   14.6419 C   0  0  0  0  0  0  0  0  0  0  0  0
   15.6267    1.6542   16.5396 N   0  0  0  0  0  0  0  0  0  0  0  0
   15.0555    2.9071   17.0709 S   0  0  0  0  0  0  0  0  0  0  0  0
   13.5838    2.7501   17.0466 O   0  0  0  0  0  0  0  0  0  0  0  0
   15.6307    3.2592   18.3482 O   0  0  0  0  0  0  0  0  0  0  0  0
   15.4380    0.8917   17.1902 H   0  0  0  0  0  0  0  0  0  0  0  0
   16.6345    1.7617   16.4249 H   0  0  0  0  0  0  0  0  0  0  0  0
   16.8812    4.2707   12.4234 C   0  0  0  0  0  0  0  0  0  0  0  0
   17.9517    3.7112   12.4444 O   0  0  0  0  0  0  0  0  0  0  0  0
   16.2109    4.4586   11.3038 O   0  0  0  0  0  0  0  0  0  0  0  0
   18.4029    3.5934   13.2570 H   0  0  0  0  0  0  0  0  0  0  0  0
   16.3605    7.0712   12.9392 N   0  0  0  0  0  0  0  0  0  0  0  0
   16.8787    6.7949   12.1490 H   0  0  0  0  0  0  0  0  0  0  0  0
   15.8851    8.4562   13.0608 C   0  0  0  0  0  0  0  0  0  0  0  0
   15.1516    8.8310   11.8029 C   0  0  0  0  0  0  0  0  0  0  0  0
   14.1323    9.6855   11.7317 C   0  0  0  0  0  0  0  0  0  0  0  0
   13.8234    9.6737   10.2985 C   0  0  0  0  0  0  0  0  0  0  0  0
   14.7327    8.8332    9.7970 C   0  0  0  0  0  0  0  0  0  0  0  0
   15.5419    8.2252   10.6740 O   0  0  0  0  0  0  0  0  0  0  0  0
  8  9  1  0  0  0
  9 10  2  0  0  0
  9 11  2  0  0  0
  9  1  1  0  0  0
  1  2  2  0  0  0
  1  7  1  0  0  0
  2  3  1  0  0  0
  2  4  1  0  0  0
  4  5  2  0  0  0
  5 18  1  0  0  0
  5  6  1  0  0  0
 18 20  1  0  0  0
 20 21  1  0  0  0
 21 22  2  0  0  0
 21 25  1  0  0  0
 22 23  1  0  0  0
 23 24  2  0  0  0
 24 25  1  0  0  0
  6  7  2  0  0  0
  6 14  1  0  0  0
 14 15  1  0  0  0
 14 16  2  0  0  0
  8 12  1  0  0  0
  8 13  1  0  0  0
 18 19  1  0  0  0
 15 17  1  0  0  0
M  END
> <minimizedAffinity>
-8.13123

$$$$
1Z9Y_FUN_A_500


 25 26  0  0  0  0  0  0  0  0999 V2000
   15.4436    4.1193   16.0022 C   0  0  0  0  0  0  0  0  0  0  0  0
   15.2555    5.4918   16.2019 C   0  0  0  0  0  0  0  0  0  0  0  0
   14.6933    6.0854   17.7463 Cl  0  0  0  0  0  0  0  0  0  0  0  0
   15.5215    6.4676   15.2314 C   0  0  0  0  0  0  0  0  0  0  0  0
   16.0762    6.0526   14.0261 C   0  0  0  0  0  0  0  0  0  0  0  0
   16.2341    4.6752   13.8051 C   0  0  0  0  0  0  0  0  0  0  0  0
   15.9305    3.7073   14.7592 C   0  0  0  0  0  0  0  0  0  0  0  0
   15.7241    1.6560   16.7738 N   0  0  0  0  0  0  0  0  0  0  0  0
   15.0691    2.8989   17.2263 S   0  0  0  0  0  0  0  0  0  0  0  0
   13.6095    2.6683   17.1414 O   0  0  0  0  0  0  0  0  0  0  0  0
   15.5654    3.3286   18.5129 O   0  0  0  0  0  0  0  0  0  0  0  0
   15.5412    0.9111   17.4461 H   0  0  0  0  0  0  0  0  0  0  0  0
   16.7300    1.8088   16.7009 H   0  0  0  0  0  0  0  0  0  0  0  0
   16.8027    4.1380   12.5092 C   0  0  0  0  0  0  0  0  0  0  0  0
   17.8836    3.5983   12.5050 O   0  0  0  0  0  0  0  0  0  0  0  0
   16.0829    4.2726   11.4128 O   0  0  0  0  0  0  0  0  0  0  0  0
   18.3705    3.5185   13.3016 H   0  0  0  0  0  0  0  0  0  0  0  0
   16.3573    6.9582   12.9864 N   0  0  0  0  0  0  0  0  0  0  0  0
   15.7247    7.0639   12.2395 H   0  0  0  0  0  0  0  0  0  0  0  0
   17.5974    7.7456   13.0182 C   0  0  0  0  0  0  0  0  0  0  0  0
   18.6234    7.0727   12.1491 C   0  0  0  0  0  0  0  0  0  0  0  0
   18.6751    7.1479   10.8201 C   0  0  0  0  0  0  0  0  0  0  0  0
   19.8509    6.3275   10.5134 C   0  0  0  0  0  0  0  0  0  0  0  0
   20.2796    5.9452   11.7196 C   0  0  0  0  0  0  0  0  0  0  0  0
   19.5341    6.3119   12.7699 O   0  0  0  0  0  0  0  0  0  0  0  0
  8  9  1  0  0  0
  9 10  2  0  0  0
  9 11  2  0  0  0
  9  1  1  0  0  0
  1  2  2  0  0  0
  1  7  1  0  0  0
  2  3  1  0  0  0
  2  4  1  0  0  0
  4  5  2  0  0  0
  5 18  1  0  0  0
  5  6  1  0  0  0
 18 20  1  0  0  0
 20 21  1  0  0  0
 21 22  2  0  0  0
 21 25  1  0  0  0
 22 23  1  0  0  0
 23 24  2  0  0  0
 24 25  1  0  0  0
  6  7  2  0  0  0
  6 14  1  0  0  0
 14 15  1  0  0  0
 14 16  2  0  0  0
  8 12  1  0  0  0
  8 13  1  0  0  0
 18 19  1  0  0  0
 15 17  1  0  0  0
M  END
> <minimizedAffinity>
-7.78629

$$$$
1Z9Y_FUN_A_500


 25 26  0  0  0  0  0  0  0  0999 V2000
   15.5424    4.2887   16.1847 C   0  0  0  0  0  0  0  0  0  0  0  0
   15.3958    5.5927   16.6717 C   0  0  0  0  0  0  0  0  0  0  0  0
   14.8013    5.8628   18.2926 Cl  0  0  0  0  0  0  0  0  0  0  0  0
   15.7296    6.7425   15.9429 C   0  0  0  0  0  0  0  0  0  0  0  0
   16.3111    6.5739   14.6914 C   0  0  0  0  0  0  0  0  0  0  0  0
   16.4282    5.2710   14.1818 C   0  0  0  0  0  0  0  0  0  0  0  0
   16.0577    4.1339   14.8953 C   0  0  0  0  0  0  0  0  0  0  0  0
   15.6754    1.7036   16.3889 N   0  0  0  0  0  0  0  0  0  0  0  0
   15.0829    2.8501   17.1052 S   0  0  0  0  0  0  0  0  0  0  0  0
   13.6142    2.7276   16.9671 O   0  0  0  0  0  0  0  0  0  0  0  0
   15.5823    2.9542   18.4564 O   0  0  0  0  0  0  0  0  0  0  0  0
   15.4416    0.8396   16.8779 H   0  0  0  0  0  0  0  0  0  0  0  0
   16.6891    1.8113   16.3546 H   0  0  0  0  0  0  0  0  0  0  0  0
   17.0225    5.0021   12.8158 C   0  0  0  0  0  0  0  0  0  0  0  0
   16.4111    5.3151   11.8220 O   0  0  0  0  0  0  0  0  0  0  0  0
   18.2105    4.4334   12.7572 O   0  0  0  0  0  0  0  0  0  0  0  0
   15.5684    5.7178   11.8977 H   0  0  0  0  0  0  0  0  0  0  0  0
   16.6600    7.6695   13.8803 N   0  0  0  0  0  0  0  0  0  0  0  0
   15.9587    8.2547   13.5129 H   0  0  0  0  0  0  0  0  0  0  0  0
   18.0737    7.9380   13.5829 C   0  0  0  0  0  0  0  0  0  0  0  0
   18.5462    9.0721   14.4497 C   0  0  0  0  0  0  0  0  0  0  0  0
   17.9288    9.5131   15.5446 C   0  0  0  0  0  0  0  0  0  0  0  0
   18.8141   10.5985   15.9781 C   0  0  0  0  0  0  0  0  0  0  0  0
   19.7938   10.5747   15.0701 C   0  0  0  0  0  0  0  0  0  0  0  0
   19.6612    9.7040   14.0612 O   0  0  0  0  0  0  0  0  0  0  0  0
  8  9  1  0  0  0
  9 10  2  0  0  0
  9 11  2  0  0  0
  9  1  1  0  0  0
  1  2  2  0  0  0
  1  7  1  0  0  0
  2  3  1  0  0  0
  2  4  1  0  0  0
  4  5  2  0  0  0
  5 18  1  0  0  0
  5  6  1  0  0  0
 18 20  1  0  0  0
 20 21  1  0  0  0
 21 22  2  0  0  0
 21 25  1  0  0  0
 22 23  1  0  0  0
 23 24  2  0  0  0
 24 25  1  0  0  0
  6  7  2  0  0  0
  6 14  1  0  0  0
 14 15  1  0  0  0
 14 16  2  0  0  0
  8 12  1  0  0  0
  8 13  1  0  0  0
 18 19  1  0  0  0
 15 17  1  0  0  0
M  END
> <minimizedAffinity>
-7.72878

$$$$
1Z9Y_FUN_A_500


 25 26  0  0  0  0  0  0  0  0999 V2000
   18.6054    6.2949   12.0074 C   0  0  0  0  0  0  0  0  0  0  0  0
   18.3659    6.7051   13.3239 C   0  0  0  0  0  0  0  0  0  0  0  0
   19.2003    8.0952   13.9760 Cl  0  0  0  0  0  0  0  0  0  0  0  0
   17.4516    6.0814   14.1840 C   0  0  0  0  0  0  0  0  0  0  0  0
   16.6831    5.0414   13.6735 C   0  0  0  0  0  0  0  0  0  0  0  0
   16.9429    4.6012   12.3659 C   0  0  0  0  0  0  0  0  0  0  0  0
   17.8813    5.2000   11.5291 C   0  0  0  0  0  0  0  0  0  0  0  0
   19.7283    6.3410    9.6666 N   0  0  0  0  0  0  0  0  0  0  0  0
   19.7890    7.0720   10.9474 S   0  0  0  0  0  0  0  0  0  0  0  0
   21.1161    6.7890   11.5387 O   0  0  0  0  0  0  0  0  0  0  0  0
   19.4566    8.4681   10.7841 O   0  0  0  0  0  0  0  0  0  0  0  0
   20.3949    6.7483    9.0108 H   0  0  0  0  0  0  0  0  0  0  0  0
   18.7866    6.4092    9.2805 H   0  0  0  0  0  0  0  0  0  0  0  0
   16.1722    3.4561   11.7447 C   0  0  0  0  0  0  0  0  0  0  0  0
   15.3195    3.6830   10.9195 O   0  0  0  0  0  0  0  0  0  0  0  0
   16.4689    2.2294   12.1261 O   0  0  0  0  0  0  0  0  0  0  0  0
   15.1324    4.5665   10.6699 H   0  0  0  0  0  0  0  0  0  0  0  0
   15.7551    4.3434   14.4683 N   0  0  0  0  0  0  0  0  0  0  0  0
   14.7913    4.4173   14.2816 H   0  0  0  0  0  0  0  0  0  0  0  0
   16.2281    3.5040   15.5776 C   0  0  0  0  0  0  0  0  0  0  0  0
   15.6786    4.0474   16.8674 C   0  0  0  0  0  0  0  0  0  0  0  0
   15.2471    5.2935   17.0560 C   0  0  0  0  0  0  0  0  0  0  0  0
   14.8280    5.2622   18.4607 C   0  0  0  0  0  0  0  0  0  0  0  0
   15.0713    3.9998   18.8239 C   0  0  0  0  0  0  0  0  0  0  0  0
   15.6570    3.2114   17.9135 O   0  0  0  0  0  0  0  0  0  0  0  0
  8  9  1  0  0  0
  9 10  2  0  0  0
  9 11  2  0  0  0
  9  1  1  0  0  0
  1  2  2  0  0  0
  1  7  1  0  0  0
  2  3  1  0  0  0
  2  4  1  0  0  0
  4  5  2  0  0  0
  5 18  1  0  0  0
  5  6  1  0  0  0
 18 20  1  0  0  0
 20 21  1  0  0  0
 21 22  2  0  0  0
 21 25  1  0  0  0
 22 23  1  0  0  0
 23 24  2  0  0  0
 24 25  1  0  0  0
  6  7  2  0  0  0
  6 14  1  0  0  0
 14 15  1  0  0  0
 14 16  2  0  0  0
  8 12  1  0  0  0
  8 13  1  0  0  0
 18 19  1  0  0  0
 15 17  1  0  0  0
M  END
> <minimizedAffinity>
-7.18363

$$$$
1Z9Y_FUN_A_500


 25 26  0  0  0  0  0  0  0  0999 V2000
   17.4177    6.5150   10.4673 C   0  0  0  0  0  0  0  0  0  0  0  0
   17.3579    7.2430   11.6612 C   0  0  0  0  0  0  0  0  0  0  0  0
   17.7397    8.9482   11.6698 Cl  0  0  0  0  0  0  0  0  0  0  0  0
   16.9722    6.6961   12.8929 C   0  0  0  0  0  0  0  0  0  0  0  0
   16.5519    5.3711   12.9137 C   0  0  0  0  0  0  0  0  0  0  0  0
   16.6432    4.6250   11.7279 C   0  0  0  0  0  0  0  0  0  0  0  0
   17.0653    5.1639   10.5152 C   0  0  0  0  0  0  0  0  0  0  0  0
   17.8758    6.1164    7.9428 N   0  0  0  0  0  0  0  0  0  0  0  0
   17.9409    7.2128    8.9287 S   0  0  0  0  0  0  0  0  0  0  0  0
   19.3719    7.5511    9.0981 O   0  0  0  0  0  0  0  0  0  0  0  0
   17.0724    8.3095    8.5689 O   0  0  0  0  0  0  0  0  0  0  0  0
   18.1688    6.4628    7.0292 H   0  0  0  0  0  0  0  0  0  0  0  0
   16.9187    5.7687    7.8836 H   0  0  0  0  0  0  0  0  0  0  0  0
   16.2342    3.1686   11.6716 C   0  0  0  0  0  0  0  0  0  0  0  0
   15.5024    2.7834   10.7909 O   0  0  0  0  0  0  0  0  0  0  0  0
   16.7054    2.3557   12.5964 O   0  0  0  0  0  0  0  0  0  0  0  0
   15.1845    3.3868   10.1484 H   0  0  0  0  0  0  0  0  0  0  0  0
   16.1664    4.7323   14.1067 N   0  0  0  0  0  0  0  0  0  0  0  0
   16.5820    3.8782   14.3658 H   0  0  0  0  0  0  0  0  0  0  0  0
   15.1420    5.3431   14.9650 C   0  0  0  0  0  0  0  0  0  0  0  0
   15.1148    4.6175   16.2816 C   0  0  0  0  0  0  0  0  0  0  0  0
   14.9181    5.1861   17.4701 C   0  0  0  0  0  0  0  0  0  0  0  0
   14.9836    4.0339   18.3744 C   0  0  0  0  0  0  0  0  0  0  0  0
   15.1834    3.0057   17.5452 C   0  0  0  0  0  0  0  0  0  0  0  0
   15.3406    3.2979   16.2477 O   0  0  0  0  0  0  0  0  0  0  0  0
  8  9  1  0  0  0
  9 10  2  0  0  0
  9 11  2  0  0  0
  9  1  1  0  0  0
  1  2  2  0  0  0
  1  7  1  0  0  0
  2  3  1  0  0  0
  2  4  1  0  0  0
  4  5  2  0  0  0
  5 18  1  0  0  0
  5  6  1  0  0  0
 18 20  1  0  0  0
 20 21  1  0  0  0
 21 22  2  0  0  0
 21 25  1  0  0  0
 22 23  1  0  0  0
 23 24  2  0  0  0
 24 25  1  0  0  0
  6  7  2  0  0  0
  6 14  1  0  0  0
 14 15  1  0  0  0
 14 16  2  0  0  0
  8 12  1  0  0  0
  8 13  1  0  0  0
 18 19  1  0  0  0
 15 17  1  0  0  0
M  END
> <minimizedAffinity>
-6.98984

$$$$
1Z9Y_FUN_A_500


 25 26  0  0  0  0  0  0  0  0999 V2000
   16.0091    8.0403   11.0915 C   0  0  0  0  0  0  0  0  0  0  0  0
   15.2771    8.5402   12.1746 C   0  0  0  0  0  0  0  0  0  0  0  0
   13.9825    9.6830   11.9068 Cl  0  0  0  0  0  0  0  0  0  0  0  0
   15.4903    8.1583   13.5064 C   0  0  0  0  0  0  0  0  0  0  0  0
   16.4338    7.1683   13.7565 C   0  0  0  0  0  0  0  0  0  0  0  0
   17.1966    6.6883   12.6800 C   0  0  0  0  0  0  0  0  0  0  0  0
   17.0071    7.1011   11.3636 C   0  0  0  0  0  0  0  0  0  0  0  0
   14.3719    8.1571    9.0796 N   0  0  0  0  0  0  0  0  0  0  0  0
   15.7502    8.5599    9.4209 S   0  0  0  0  0  0  0  0  0  0  0  0
   16.6551    7.7339    8.5903 O   0  0  0  0  0  0  0  0  0  0  0  0
   15.9315    9.9893    9.3199 O   0  0  0  0  0  0  0  0  0  0  0  0
   14.1648    8.4332    8.1198 H   0  0  0  0  0  0  0  0  0  0  0  0
   13.7171    8.6146    9.7139 H   0  0  0  0  0  0  0  0  0  0  0  0
   18.2643    5.6324   12.8706 C   0  0  0  0  0  0  0  0  0  0  0  0
   18.1913    4.5880   12.2676 O   0  0  0  0  0  0  0  0  0  0  0  0
   19.2580    5.8967   13.6958 O   0  0  0  0  0  0  0  0  0  0  0  0
   17.4719    4.4308   11.6883 H   0  0  0  0  0  0  0  0  0  0  0  0
   16.7293    6.7362   15.0626 N   0  0  0  0  0  0  0  0  0  0  0  0
   17.6198    6.3726   15.2725 H   0  0  0  0  0  0  0  0  0  0  0  0
   15.7055    6.8290   16.1125 C   0  0  0  0  0  0  0  0  0  0  0  0
   15.5426    5.4788   16.7538 C   0  0  0  0  0  0  0  0  0  0  0  0
   14.8465    5.2321   17.8624 C   0  0  0  0  0  0  0  0  0  0  0  0
   15.0210    3.7845   18.0166 C   0  0  0  0  0  0  0  0  0  0  0  0
   15.7663    3.4523   16.9588 C   0  0  0  0  0  0  0  0  0  0  0  0
   16.1808    4.4545   16.1731 O   0  0  0  0  0  0  0  0  0  0  0  0
  8  9  1  0  0  0
  9 10  2  0  0  0
  9 11  2  0  0  0
  9  1  1  0  0  0
  1  2  2  0  0  0
  1  7  1  0  0  0
  2  3  1  0  0  0
  2  4  1  0  0  0
  4  5  2  0  0  0
  5 18  1  0  0  0
  5  6  1  0  0  0
 18 20  1  0  0  0
 20 21  1  0  0  0
 21 22  2  0  0  0
 21 25  1  0  0  0
 22 23  1  0  0  0
 23 24  2  0  0  0
 24 25  1  0  0  0
  6  7  2  0  0  0
  6 14  1  0  0  0
 14 15  1  0  0  0
 14 16  2  0  0  0
  8 12  1  0  0  0
  8 13  1  0  0  0
 18 19  1  0  0  0
 15 17  1  0  0  0
M  END
> <minimizedAffinity>
-6.93013

$$$$
1Z9Y_FUN_A_500


 25 26  0  0  0  0  0  0  0  0999 V2000
   15.4799    4.0245   15.9512 C   0  0  0  0  0  0  0  0  0  0  0  0
   16.1954    3.3799   14.9356 C   0  0  0  0  0  0  0  0  0  0  0  0
   16.5778    1.6804   15.0738 Cl  0  0  0  0  0  0  0  0  0  0  0  0
   16.6200    4.0088   13.7570 C   0  0  0  0  0  0  0  0  0  0  0  0
   16.2420    5.3308   13.5522 C   0  0  0  0  0  0  0  0  0  0  0  0
   15.5556    5.9942   14.5816 C   0  0  0  0  0  0  0  0  0  0  0  0
   15.1709    5.3747   15.7680 C   0  0  0  0  0  0  0  0  0  0  0  0
   13.6118    2.7321   17.2091 N   0  0  0  0  0  0  0  0  0  0  0  0
   14.9827    3.2243   17.4481 S   0  0  0  0  0  0  0  0  0  0  0  0
   14.8818    4.2916   18.4688 O   0  0  0  0  0  0  0  0  0  0  0  0
   15.8941    2.1458   17.7519 O   0  0  0  0  0  0  0  0  0  0  0  0
   13.2703    2.2579   18.0450 H   0  0  0  0  0  0  0  0  0  0  0  0
   13.6169    2.0789   16.4257 H   0  0  0  0  0  0  0  0  0  0  0  0
   15.1334    7.4420   14.4514 C   0  0  0  0  0  0  0  0  0  0  0  0
   14.6754    7.8431   13.4079 O   0  0  0  0  0  0  0  0  0  0  0  0
   15.2751    8.2264   15.5015 O   0  0  0  0  0  0  0  0  0  0  0  0
   14.5877    7.2599   12.6798 H   0  0  0  0  0  0  0  0  0  0  0  0
   16.6391    6.0488   12.4090 N   0  0  0  0  0  0  0  0  0  0  0  0
   15.9745    6.2966   11.7263 H   0  0  0  0  0  0  0  0  0  0  0  0
   18.0483    6.4278   12.2367 C   0  0  0  0  0  0  0  0  0  0  0  0
   18.2804    7.7543   12.9054 C   0  0  0  0  0  0  0  0  0  0  0  0
   19.1120    7.9679   13.9239 C   0  0  0  0  0  0  0  0  0  0  0  0
   18.9457    9.4058   14.1575 C   0  0  0  0  0  0  0  0  0  0  0  0
   18.0665    9.7680   13.2192 C   0  0  0  0  0  0  0  0  0  0  0  0
   17.5630    8.7911   12.4538 O   0  0  0  0  0  0  0  0  0  0  0  0
  8  9  1  0  0  0
  9 10  2  0  0  0
  9 11  2  0  0  0
  9  1  1  0  0  0
  1  2  2  0  0  0
  1  7  1  0  0  0
  2  3  1  0  0  0
  2  4  1  0  0  0
  4  5  2  0  0  0
  5 18  1  0  0  0
  5  6  1  0  0  0
 18 20  1  0  0  0
 20 21  1  0  0  0
 21 22  2  0  0  0
 21 25  1  0  0  0
 22 23  1  0  0  0
 23 24  2  0  0  0
 24 25  1  0  0  0
  6  7  2  0  0  0
  6 14  1  0  0  0
 14 15  1  0  0  0
 14 16  2  0  0  0
  8 12  1  0  0  0
  8 13  1  0  0  0
 18 19  1  0  0  0
 15 17  1  0  0  0
M  END
> <minimizedAffinity>
-6.76074

$$$$
1Z9Y_FUN_A_500


 25 26  0  0  0  0  0  0  0  0999 V2000
   15.7142    4.2277   16.3038 C   0  0  0  0  0  0  0  0  0  0  0  0
   16.3763    3.7512   15.1665 C   0  0  0  0  0  0  0  0  0  0  0  0
   16.4760    2.0330   14.8639 Cl  0  0  0  0  0  0  0  0  0  0  0  0
   16.9628    4.5780   14.1984 C   0  0  0  0  0  0  0  0  0  0  0  0
   16.8116    5.9529   14.3386 C   0  0  0  0  0  0  0  0  0  0  0  0
   16.1803    6.4388   15.4946 C   0  0  0  0  0  0  0  0  0  0  0  0
   15.6342    5.6122   16.4733 C   0  0  0  0  0  0  0  0  0  0  0  0
   13.6585    2.8278   17.0497 N   0  0  0  0  0  0  0  0  0  0  0  0
   15.0105    3.1691   17.5336 S   0  0  0  0  0  0  0  0  0  0  0  0
   14.8337    4.0060   18.7416 O   0  0  0  0  0  0  0  0  0  0  0  0
   15.8341    1.9937   17.6962 O   0  0  0  0  0  0  0  0  0  0  0  0
   13.2009    2.2141   17.7239 H   0  0  0  0  0  0  0  0  0  0  0  0
   13.7292    2.3521   16.1503 H   0  0  0  0  0  0  0  0  0  0  0  0
   16.0012    7.9219   15.7389 C   0  0  0  0  0  0  0  0  0  0  0  0
   16.9700    8.6389   15.8212 O   0  0  0  0  0  0  0  0  0  0  0  0
   14.7730    8.3889   15.8470 O   0  0  0  0  0  0  0  0  0  0  0  0
   17.8299    8.2757   15.7399 H   0  0  0  0  0  0  0  0  0  0  0  0
   17.3831    6.8602   13.4274 N   0  0  0  0  0  0  0  0  0  0  0  0
   18.1277    7.4394   13.7091 H   0  0  0  0  0  0  0  0  0  0  0  0
   16.8658    6.9410   12.0545 C   0  0  0  0  0  0  0  0  0  0  0  0
   16.0360    8.1877   11.9200 C   0  0  0  0  0  0  0  0  0  0  0  0
   16.4534    9.3369   11.3914 C   0  0  0  0  0  0  0  0  0  0  0  0
   15.2588   10.1789   11.5091 C   0  0  0  0  0  0  0  0  0  0  0  0
   14.3609    9.3593   12.0630 C   0  0  0  0  0  0  0  0  0  0  0  0
   14.7885    8.1370   12.4045 O   0  0  0  0  0  0  0  0  0  0  0  0
  8  9  1  0  0  0
  9 10  2  0  0  0
  9 11  2  0  0  0
  9  1  1  0  0  0
  1  2  2  0  0  0
  1  7  1  0  0  0
  2  3  1  0  0  0
  2  4  1  0  0  0
  4  5  2  0  0  0
  5 18  1  0  0  0
  5  6  1  0  0  0
 18 20  1  0  0  0
 20 21  1  0  0  0
 21 22  2  0  0  0
 21 25  1  0  0  0
 22 23  1  0  0  0
 23 24  2  0  0  0
 24 25  1  0  0  0
  6  7  2  0  0  0
  6 14  1  0  0  0
 14 15  1  0  0  0
 14 16  2  0  0  0
  8 12  1  0  0  0
  8 13  1  0  0  0
 18 19  1  0  0  0
 15 17  1  0  0  0
M  END
> <minimizedAffinity>
-6.74669

$$$$
1Z9Y_FUN_A_500


 25 26  0  0  0  0  0  0  0  0999 V2000
   15.4810    4.0325   15.8008 C   0  0  0  0  0  0  0  0  0  0  0  0
   16.1979    3.3220   14.8311 C   0  0  0  0  0  0  0  0  0  0  0  0
   16.5029    1.6142   15.0406 Cl  0  0  0  0  0  0  0  0  0  0  0  0
   16.6836    3.8893   13.6449 C   0  0  0  0  0  0  0  0  0  0  0  0
   16.3688    5.2177   13.3822 C   0  0  0  0  0  0  0  0  0  0  0  0
   15.6814    5.9462   14.3659 C   0  0  0  0  0  0  0  0  0  0  0  0
   15.2357    5.3868   15.5608 C   0  0  0  0  0  0  0  0  0  0  0  0
   14.9290    4.3905   18.3126 N   0  0  0  0  0  0  0  0  0  0  0  0
   14.9060    3.3088   17.3087 S   0  0  0  0  0  0  0  0  0  0  0  0
   15.9393    2.3288   17.7125 O   0  0  0  0  0  0  0  0  0  0  0  0
   13.5751    2.7800   17.1208 O   0  0  0  0  0  0  0  0  0  0  0  0
   14.6048    4.0289   19.2095 H   0  0  0  0  0  0  0  0  0  0  0  0
   14.3166    5.1481   18.0101 H   0  0  0  0  0  0  0  0  0  0  0  0
   15.3257    7.4047   14.1719 C   0  0  0  0  0  0  0  0  0  0  0  0
   15.8494    8.2479   14.8606 O   0  0  0  0  0  0  0  0  0  0  0  0
   14.4480    7.7101   13.2367 O   0  0  0  0  0  0  0  0  0  0  0  0
   16.4696    7.9978   15.5170 H   0  0  0  0  0  0  0  0  0  0  0  0
   16.8299    5.8764   12.2273 N   0  0  0  0  0  0  0  0  0  0  0  0
   17.1774    6.7954   12.2889 H   0  0  0  0  0  0  0  0  0  0  0  0
   16.7914    5.1890   10.9292 C   0  0  0  0  0  0  0  0  0  0  0  0
   17.9030    5.7179   10.0657 C   0  0  0  0  0  0  0  0  0  0  0  0
   19.0696    6.1816   10.5110 C   0  0  0  0  0  0  0  0  0  0  0  0
   19.7496    6.5454    9.2640 C   0  0  0  0  0  0  0  0  0  0  0  0
   18.8641    6.2061    8.3230 C   0  0  0  0  0  0  0  0  0  0  0  0
   17.6776    5.7513    8.7460 O   0  0  0  0  0  0  0  0  0  0  0  0
  8  9  1  0  0  0
  9 10  2  0  0  0
  9 11  2  0  0  0
  9  1  1  0  0  0
  1  2  2  0  0  0
  1  7  1  0  0  0
  2  3  1  0  0  0
  2  4  1  0  0  0
  4  5  2  0  0  0
  5 18  1  0  0  0
  5  6  1  0  0  0
 18 20  1  0  0  0
 20 21  1  0  0  0
 21 22  2  0  0  0
 21 25  1  0  0  0
 22 23  1  0  0  0
 23 24  2  0  0  0
 24 25  1  0  0  0
  6  7  2  0  0  0
  6 14  1  0  0  0
 14 15  1  0  0  0
 14 16  2  0  0  0
  8 12  1  0  0  0
  8 13  1  0  0  0
 18 19  1  0  0  0
 15 17  1  0  0  0
M  END
> <minimizedAffinity>
-6.69978

$$$$
1Z9Y_FUN_A_500


 25 26  0  0  0  0  0  0  0  0999 V2000
   18.4995    8.5473   13.2590 C   0  0  0  0  0  0  0  0  0  0  0  0
   17.9559    8.5516   14.5487 C   0  0  0  0  0  0  0  0  0  0  0  0
   18.1132    9.9659   15.5631 Cl  0  0  0  0  0  0  0  0  0  0  0  0
   17.2418    7.4791   15.1007 C   0  0  0  0  0  0  0  0  0  0  0  0
   16.9948    6.3763   14.2911 C   0  0  0  0  0  0  0  0  0  0  0  0
   17.5671    6.3497   13.0094 C   0  0  0  0  0  0  0  0  0  0  0  0
   18.3097    7.4025   12.4809 C   0  0  0  0  0  0  0  0  0  0  0  0
   18.4733   11.0113   12.4404 N   0  0  0  0  0  0  0  0  0  0  0  0
   19.4284    9.8962   12.5914 S   0  0  0  0  0  0  0  0  0  0  0  0
   19.8243    9.4845   11.2258 O   0  0  0  0  0  0  0  0  0  0  0  0
   20.5106   10.2347   13.4861 O   0  0  0  0  0  0  0  0  0  0  0  0
   18.9565   11.8232   12.0562 H   0  0  0  0  0  0  0  0  0  0  0  0
   18.0811   11.2487   13.3516 H   0  0  0  0  0  0  0  0  0  0  0  0
   17.3719    5.1742   12.0758 C   0  0  0  0  0  0  0  0  0  0  0  0
   18.0150    4.1645   12.2380 O   0  0  0  0  0  0  0  0  0  0  0  0
   16.4859    5.2922   11.1067 O   0  0  0  0  0  0  0  0  0  0  0  0
   18.6373    4.1124   12.9366 H   0  0  0  0  0  0  0  0  0  0  0  0
   16.3045    5.2456   14.7657 N   0  0  0  0  0  0  0  0  0  0  0  0
   15.4242    5.0119   14.3918 H   0  0  0  0  0  0  0  0  0  0  0  0
   16.9009    4.4145   15.8205 C   0  0  0  0  0  0  0  0  0  0  0  0
   15.8151    3.6062   16.4750 C   0  0  0  0  0  0  0  0  0  0  0  0
   14.5255    3.9379   16.5138 C   0  0  0  0  0  0  0  0  0  0  0  0
   13.9429    2.8127   17.2516 C   0  0  0  0  0  0  0  0  0  0  0  0
   14.9951    2.0237   17.4862 C   0  0  0  0  0  0  0  0  0  0  0  0
   16.1917    2.4803   17.0946 O   0  0  0  0  0  0  0  0  0  0  0  0
  8  9  1  0  0  0
  9 10  2  0  0  0
  9 11  2  0  0  0
  9  1  1  0  0  0
  1  2  2  0  0  0
  1  7  1  0  0  0
  2  3  1  0  0  0
  2  4  1  0  0  0
  4  5  2  0  0  0
  5 18  1  0  0  0
  5  6  1  0  0  0
 18 20  1  0  0  0
 20 21  1  0  0  0
 21 22  2  0  0  0
 21 25  1  0  0  0
 22 23  1  0  0  0
 23 24  2  0  0  0
 24 25  1  0  0  0
  6  7  2  0  0  0
  6 14  1  0  0  0
 14 15  1  0  0  0
 14 16  2  0  0  0
  8 12  1  0  0  0
  8 13  1  0  0  0
 18 19  1  0  0  0
 15 17  1  0  0  0
M  END
> <minimizedAffinity>
-6.44715

$$$$
