2VQT_15A_A_1865
  RCSB PDB12061707083D
Coordinates from PDB:2VQT:A:1865 Model:1 without hydrogens
 15 15  0  0  0  0            999 V2000
   26.8870   49.7360   -3.5530   O 0  0  0  0  0  0  0  0  0  0  0  0
   25.9940   49.6520   -2.5910   C 0  0  0  0  0  0  0  0  0  0  0  0
   26.3510   48.4220   -1.7190   C 0  0  0  0  0  0  0  0  0  0  0  0
   27.5270   48.5780   -0.7100   C 0  0  0  0  0  0  0  0  0  0  0  0
   27.2290   49.5370    0.2070   O 0  0  0  0  0  0  0  0  0  0  0  0
   27.9770   47.2330   -0.0400   C 0  0  0  0  0  0  0  0  0  0  0  0
   29.2890   47.1180    0.0840   O 0  0  0  0  0  0  0  0  0  0  0  0
   27.4200   45.9670   -0.7780   C 0  0  0  0  0  0  0  0  0  0  0  0
   28.0270   44.7830   -0.4910   O 0  0  0  0  0  0  0  0  0  0  0  0
   26.5860   47.3310   -2.5920   N 0  0  0  0  0  0  0  0  0  0  0  0
   27.3150   46.2420   -2.2690   C 0  0  0  0  0  0  0  0  0  0  0  0
   27.8990   45.4260   -3.1680   N 0  0  0  0  0  0  0  0  0  0  0  0
   28.1310   45.7100   -4.5470   C 0  0  0  0  0  0  0  0  0  0  0  0
   29.3210   46.6510   -4.9110   C 0  0  0  0  0  0  0  0  0  0  0  0
   30.6010   45.9580   -4.6720   N 0  0  0  0  0  0  0  0  0  0  0  0
  1  2  1  0  0  0  0
  2  3  1  0  0  0  0
  3  4  1  0  0  0  0
  3 10  1  0  0  0  0
  4  5  1  0  0  0  0
  4  6  1  0  0  0  0
  6  7  1  0  0  0  0
  6  8  1  0  0  0  0
  8  9  1  0  0  0  0
  8 11  1  0  0  0  0
 10 11  1  0  0  0  0
 11 12  2  0  0  0  0
 12 13  1  0  0  0  0
 13 14  1  0  0  0  0
 14 15  1  0  0  0  0
A    1
O6
A    2
C6
A    3
C5
A    4
C4
A    5
O4
A    6
C3
A    7
O3
A    8
C2
A    9
O2
A   10
N5
A   11
C1
A   12
N1
A   13
C7
A   14
C8
A   15
N2
M  END
>  <InstanceId>
2VQT_15A_A_1865

>  <ChemCompId>
15A

>  <PdbId>
2VQT

>  <ChainId>
A

>  <ResidueNumber>
1865

>  <InsertionCode>


>  <Model>
1

>  <AltIds>


>  <MissingHeavyAtoms>
0

>  <ObservedFormula>
C8 N3 O4

>  <Name>
(2Z,3R,4S,5R,6R)-2-[(2-aminoethyl)imino]-6-(hydroxymethyl)piperidine-3,4,5-triol

>  <SystematicName>
(2Z,3R,4S,5R,6R)-2-(2-aminoethylimino)-6-(hydroxymethyl)piperidine-3,4,5-triol

>  <Synonyms>


>  <Type>
non-polymer

>  <Formula>
C8 H17 N3 O4

>  <MolecularWeight>
219.238

>  <ModifiedDate>
2011-06-04

>  <Parent>


>  <OneLetterCode>


>  <SubcomponentList>


>  <AmbiguousFlag>


>  <InChI>
InChI=1S/C8H17N3O4/c9-1-2-10-8-7(15)6(14)5(13)4(3-12)11-8/h4-7,12-15H,1-3,9H2,(H,10,11)/t4-,5-,6+,7+/m1/s1

>  <InChIKey>
ZLIQDFHJGBHZAQ-JWXFUTCRSA-N

>  <SMILES>
C(C/N=C\1/[C@H]([C@H]([C@@H]([C@H](N1)CO)O)O)O)N

$$$$
