1ZOH_K44_A_501


 17 19  0  0  0  0  0  0  0  0999 V2000
   22.5683    7.6827   19.0053 C   0  0  0  0  0  0  0  0  0  0  0  0
   23.4144    6.6526   19.4391 C   0  0  0  0  0  0  0  0  0  0  0  0
   23.2827    6.1839   20.7389 C   0  0  0  0  0  0  0  0  0  0  0  0
   21.6159    8.2132   19.8507 C   0  0  0  0  0  0  0  0  0  0  0  0
   20.6637    8.1654   22.0936 N   0  0  0  0  0  0  0  0  0  0  0  0
   21.5084    7.7428   21.1431 C   0  0  0  0  0  0  0  0  0  0  0  0
   22.3033    6.7097   21.5750 C   0  0  0  0  0  0  0  0  0  0  0  0
   21.9155    6.5041   22.8200 N   0  0  0  0  0  0  0  0  0  0  0  0
   20.9879    7.3727   23.1047 C   0  0  0  0  0  0  0  0  0  0  0  0
   20.5081    7.2526   24.3596 N   0  0  0  0  0  0  0  0  0  0  0  0
   19.8225    8.3660   24.9909 C   0  0  0  0  0  0  0  0  0  0  0  0
   22.2696    5.6284   23.8957 C   0  0  0  0  0  0  0  0  0  0  0  0
   21.4072    6.3310   25.0956 C   0  0  0  0  0  0  0  0  0  0  0  0
   20.4768    9.6164   19.2939 Br  0  0  0  0  0  0  0  0  0  0  0  0
   22.6962    8.2898   17.2244 Br  0  0  0  0  0  0  0  0  0  0  0  0
   24.7214    6.0020   18.2215 Br  0  0  0  0  0  0  0  0  0  0  0  0
   24.3919    4.7651   21.3162 Br  0  0  0  0  0  0  0  0  0  0  0  0
  1  2  2  0  0  0
  1  4  1  0  0  0
  1 15  1  0  0  0
  2  3  1  0  0  0
  2 16  1  0  0  0
  3  7  2  0  0  0
  3 17  1  0  0  0
  4  6  2  0  0  0
  4 14  1  0  0  0
  5  6  1  0  0  0
  5  9  2  0  0  0
  6  7  1  0  0  0
  7  8  1  0  0  0
  8  9  1  0  0  0
  8 12  1  0  0  0
  9 10  1  0  0  0
 10 11  1  0  0  0
 10 13  1  0  0  0
 12 13  1  0  0  0
M  END
> <minimizedAffinity>
-7.68276

$$$$
1ZOH_K44_A_501


 17 19  0  0  0  0  0  0  0  0999 V2000
   23.0149    7.7236   18.1103 C   0  0  0  0  0  0  0  0  0  0  0  0
   21.9720    8.4038   18.7545 C   0  0  0  0  0  0  0  0  0  0  0  0
   21.6403    8.0407   20.0524 C   0  0  0  0  0  0  0  0  0  0  0  0
   23.7051    6.7198   18.7577 C   0  0  0  0  0  0  0  0  0  0  0  0
   23.8970    5.4002   20.7976 N   0  0  0  0  0  0  0  0  0  0  0  0
   23.3527    6.3646   20.0433 C   0  0  0  0  0  0  0  0  0  0  0  0
   22.3584    7.0435   20.7039 C   0  0  0  0  0  0  0  0  0  0  0  0
   22.3132    6.4712   21.8927 N   0  0  0  0  0  0  0  0  0  0  0  0
   23.1912    5.5095   21.9137 C   0  0  0  0  0  0  0  0  0  0  0  0
   23.2386    4.8528   23.0909 N   0  0  0  0  0  0  0  0  0  0  0  0
   23.8055    3.5180   23.1621 C   0  0  0  0  0  0  0  0  0  0  0  0
   21.5501    6.6149   23.0954 C   0  0  0  0  0  0  0  0  0  0  0  0
   22.0627    5.2785   23.8879 C   0  0  0  0  0  0  0  0  0  0  0  0
   25.1024    5.7753   17.9019 Br  0  0  0  0  0  0  0  0  0  0  0  0
   23.5154    8.2447   16.3683 Br  0  0  0  0  0  0  0  0  0  0  0  0
   21.0509    9.7503   17.7786 Br  0  0  0  0  0  0  0  0  0  0  0  0
   20.2632    8.9835   20.9420 Br  0  0  0  0  0  0  0  0  0  0  0  0
  1  2  2  0  0  0
  1  4  1  0  0  0
  1 15  1  0  0  0
  2  3  1  0  0  0
  2 16  1  0  0  0
  3  7  2  0  0  0
  3 17  1  0  0  0
  4  6  2  0  0  0
  4 14  1  0  0  0
  5  6  1  0  0  0
  5  9  2  0  0  0
  6  7  1  0  0  0
  7  8  1  0  0  0
  8  9  1  0  0  0
  8 12  1  0  0  0
  9 10  1  0  0  0
 10 11  1  0  0  0
 10 13  1  0  0  0
 12 13  1  0  0  0
M  END
> <minimizedAffinity>
-7.54212

$$$$
1ZOH_K44_A_501


 17 19  0  0  0  0  0  0  0  0999 V2000
   22.1422    8.3929   18.6384 C   0  0  0  0  0  0  0  0  0  0  0  0
   23.1928    7.6435   18.0907 C   0  0  0  0  0  0  0  0  0  0  0  0
   23.7340    6.6075   18.8391 C   0  0  0  0  0  0  0  0  0  0  0  0
   21.6488    8.0996   19.8927 C   0  0  0  0  0  0  0  0  0  0  0  0
   21.8692    6.6807   21.8619 N   0  0  0  0  0  0  0  0  0  0  0  0
   22.2079    7.0740   20.6266 C   0  0  0  0  0  0  0  0  0  0  0  0
   23.2130    6.3053   20.0928 C   0  0  0  0  0  0  0  0  0  0  0  0
   23.4770    5.4206   21.0364 N   0  0  0  0  0  0  0  0  0  0  0  0
   22.7081    5.6737   22.0566 C   0  0  0  0  0  0  0  0  0  0  0  0
   22.8874    4.8222   23.0871 N   0  0  0  0  0  0  0  0  0  0  0  0
   22.4684    5.1952   24.4263 C   0  0  0  0  0  0  0  0  0  0  0  0
   24.3810    4.3261   21.2218 C   0  0  0  0  0  0  0  0  0  0  0  0
   24.1150    4.0375   22.8102 C   0  0  0  0  0  0  0  0  0  0  0  0
   20.2454    9.1091   20.6597 Br  0  0  0  0  0  0  0  0  0  0  0  0
   21.3581    9.7659   17.6103 Br  0  0  0  0  0  0  0  0  0  0  0  0
   23.8352    8.1360   16.3706 Br  0  0  0  0  0  0  0  0  0  0  0  0
   25.1222    5.5654   18.0885 Br  0  0  0  0  0  0  0  0  0  0  0  0
  1  2  2  0  0  0
  1  4  1  0  0  0
  1 15  1  0  0  0
  2  3  1  0  0  0
  2 16  1  0  0  0
  3  7  2  0  0  0
  3 17  1  0  0  0
  4  6  2  0  0  0
  4 14  1  0  0  0
  5  6  1  0  0  0
  5  9  2  0  0  0
  6  7  1  0  0  0
  7  8  1  0  0  0
  8  9  1  0  0  0
  8 12  1  0  0  0
  9 10  1  0  0  0
 10 11  1  0  0  0
 10 13  1  0  0  0
 12 13  1  0  0  0
M  END
> <minimizedAffinity>
-7.39110

$$$$
1ZOH_K44_A_501


 17 19  0  0  0  0  0  0  0  0999 V2000
   22.2510    8.2693   18.6506 C   0  0  0  0  0  0  0  0  0  0  0  0
   21.7377    8.1063   19.9449 C   0  0  0  0  0  0  0  0  0  0  0  0
   22.2162    7.0633   20.7257 C   0  0  0  0  0  0  0  0  0  0  0  0
   23.2205    7.4159   18.1661 C   0  0  0  0  0  0  0  0  0  0  0  0
   24.5839    5.4489   18.6262 N   0  0  0  0  0  0  0  0  0  0  0  0
   23.6747    6.3774   18.9526 C   0  0  0  0  0  0  0  0  0  0  0  0
   23.2107    6.2233   20.2359 C   0  0  0  0  0  0  0  0  0  0  0  0
   23.8696    5.1744   20.6924 N   0  0  0  0  0  0  0  0  0  0  0  0
   24.6354    4.7293   19.7377 C   0  0  0  0  0  0  0  0  0  0  0  0
   25.3667    3.6536   20.0947 N   0  0  0  0  0  0  0  0  0  0  0  0
   25.9182    2.7738   19.0798 C   0  0  0  0  0  0  0  0  0  0  0  0
   23.9222    4.4185   21.9070 C   0  0  0  0  0  0  0  0  0  0  0  0
   24.8397    3.1655   21.3922 C   0  0  0  0  0  0  0  0  0  0  0  0
   23.9135    7.6045   16.4166 Br  0  0  0  0  0  0  0  0  0  0  0  0
   21.6531    9.7164   17.5994 Br  0  0  0  0  0  0  0  0  0  0  0  0
   20.3799    9.3053   20.5216 Br  0  0  0  0  0  0  0  0  0  0  0  0
   21.5591    6.8643   22.4879 Br  0  0  0  0  0  0  0  0  0  0  0  0
  1  2  2  0  0  0
  1  4  1  0  0  0
  1 15  1  0  0  0
  2  3  1  0  0  0
  2 16  1  0  0  0
  3  7  2  0  0  0
  3 17  1  0  0  0
  4  6  2  0  0  0
  4 14  1  0  0  0
  5  6  1  0  0  0
  5  9  2  0  0  0
  6  7  1  0  0  0
  7  8  1  0  0  0
  8  9  1  0  0  0
  8 12  1  0  0  0
  9 10  1  0  0  0
 10 11  1  0  0  0
 10 13  1  0  0  0
 12 13  1  0  0  0
M  END
> <minimizedAffinity>
-7.21389

$$$$
1ZOH_K44_A_501


 17 19  0  0  0  0  0  0  0  0999 V2000
   23.0347    5.3866   21.9134 C   0  0  0  0  0  0  0  0  0  0  0  0
   23.8862    4.8988   20.9122 C   0  0  0  0  0  0  0  0  0  0  0  0
   23.9296    5.5604   19.6928 C   0  0  0  0  0  0  0  0  0  0  0  0
   22.2627    6.5086   21.6946 C   0  0  0  0  0  0  0  0  0  0  0  0
   21.6089    8.2210   20.0883 N   0  0  0  0  0  0  0  0  0  0  0  0
   22.3101    7.1454   20.4717 C   0  0  0  0  0  0  0  0  0  0  0  0
   23.1646    6.7045   19.4913 C   0  0  0  0  0  0  0  0  0  0  0  0
   22.9730    7.5482   18.4942 N   0  0  0  0  0  0  0  0  0  0  0  0
   22.0527    8.3972   18.8523 C   0  0  0  0  0  0  0  0  0  0  0  0
   21.7761    9.3183   17.9065 N   0  0  0  0  0  0  0  0  0  0  0  0
   20.5176   10.0418   17.9353 C   0  0  0  0  0  0  0  0  0  0  0  0
   23.4760    7.7312   17.1664 C   0  0  0  0  0  0  0  0  0  0  0  0
   22.4314    8.8799   16.6504 C   0  0  0  0  0  0  0  0  0  0  0  0
   21.0924    7.1733   23.0233 Br  0  0  0  0  0  0  0  0  0  0  0  0
   23.0083    4.5329   23.5949 Br  0  0  0  0  0  0  0  0  0  0  0  0
   24.8898    3.3278   21.2846 Br  0  0  0  0  0  0  0  0  0  0  0  0
   25.1080    4.9329   18.3534 Br  0  0  0  0  0  0  0  0  0  0  0  0
  1  2  2  0  0  0
  1  4  1  0  0  0
  1 15  1  0  0  0
  2  3  1  0  0  0
  2 16  1  0  0  0
  3  7  2  0  0  0
  3 17  1  0  0  0
  4  6  2  0  0  0
  4 14  1  0  0  0
  5  6  1  0  0  0
  5  9  2  0  0  0
  6  7  1  0  0  0
  7  8  1  0  0  0
  8  9  1  0  0  0
  8 12  1  0  0  0
  9 10  1  0  0  0
 10 11  1  0  0  0
 10 13  1  0  0  0
 12 13  1  0  0  0
M  END
> <minimizedAffinity>
-7.09494

$$$$
1ZOH_K44_A_501


 17 19  0  0  0  0  0  0  0  0999 V2000
   23.4052    6.3876   19.7496 C   0  0  0  0  0  0  0  0  0  0  0  0
   22.4689    7.4215   19.6094 C   0  0  0  0  0  0  0  0  0  0  0  0
   21.6750    7.7546   20.6981 C   0  0  0  0  0  0  0  0  0  0  0  0
   23.5422    5.7211   20.9496 C   0  0  0  0  0  0  0  0  0  0  0  0
   22.7200    5.4954   23.2327 N   0  0  0  0  0  0  0  0  0  0  0  0
   22.7355    6.0581   22.0168 C   0  0  0  0  0  0  0  0  0  0  0  0
   21.8380    7.0920   21.9101 C   0  0  0  0  0  0  0  0  0  0  0  0
   21.2747    7.1533   23.1025 N   0  0  0  0  0  0  0  0  0  0  0  0
   21.7805    6.2060   23.8393 C   0  0  0  0  0  0  0  0  0  0  0  0
   21.2796    6.1758   25.0914 N   0  0  0  0  0  0  0  0  0  0  0  0
   21.3774    4.9671   25.8899 C   0  0  0  0  0  0  0  0  0  0  0  0
   20.2676    7.9421   23.7452 C   0  0  0  0  0  0  0  0  0  0  0  0
   20.1017    7.0762   25.1235 C   0  0  0  0  0  0  0  0  0  0  0  0
   24.7846    4.3103   21.1563 Br  0  0  0  0  0  0  0  0  0  0  0  0
   24.5309    5.9628   18.2973 Br  0  0  0  0  0  0  0  0  0  0  0  0
   22.3213    8.2647   17.9120 Br  0  0  0  0  0  0  0  0  0  0  0  0
   20.4403    9.1770   20.5283 Br  0  0  0  0  0  0  0  0  0  0  0  0
  1  2  2  0  0  0
  1  4  1  0  0  0
  1 15  1  0  0  0
  2  3  1  0  0  0
  2 16  1  0  0  0
  3  7  2  0  0  0
  3 17  1  0  0  0
  4  6  2  0  0  0
  4 14  1  0  0  0
  5  6  1  0  0  0
  5  9  2  0  0  0
  6  7  1  0  0  0
  7  8  1  0  0  0
  8  9  1  0  0  0
  8 12  1  0  0  0
  9 10  1  0  0  0
 10 11  1  0  0  0
 10 13  1  0  0  0
 12 13  1  0  0  0
M  END
> <minimizedAffinity>
-6.86582

$$$$
1ZOH_K44_A_501


 17 19  0  0  0  0  0  0  0  0999 V2000
   22.2645    5.7028   22.6623 C   0  0  0  0  0  0  0  0  0  0  0  0
   23.1490    4.7454   22.1462 C   0  0  0  0  0  0  0  0  0  0  0  0
   23.6951    4.9520   20.8871 C   0  0  0  0  0  0  0  0  0  0  0  0
   21.9511    6.8336   21.9371 C   0  0  0  0  0  0  0  0  0  0  0  0
   22.2730    8.0349   19.8412 N   0  0  0  0  0  0  0  0  0  0  0  0
   22.4942    7.0154   20.6821 C   0  0  0  0  0  0  0  0  0  0  0  0
   23.3906    6.1072   20.1747 C   0  0  0  0  0  0  0  0  0  0  0  0
   23.7206    6.6044   18.9971 N   0  0  0  0  0  0  0  0  0  0  0  0
   23.0436    7.7020   18.8160 C   0  0  0  0  0  0  0  0  0  0  0  0
   23.3062    8.3055   17.6386 N   0  0  0  0  0  0  0  0  0  0  0  0
   22.3624    9.2548   17.0761 C   0  0  0  0  0  0  0  0  0  0  0  0
   24.5706    6.2353   17.9059 C   0  0  0  0  0  0  0  0  0  0  0  0
   24.0891    7.3540   16.8134 C   0  0  0  0  0  0  0  0  0  0  0  0
   20.7455    8.1289   22.6047 Br  0  0  0  0  0  0  0  0  0  0  0  0
   21.5600    5.4646   24.3954 Br  0  0  0  0  0  0  0  0  0  0  0  0
   23.5002    3.2002   23.1964 Br  0  0  0  0  0  0  0  0  0  0  0  0
   24.9222    3.6857   20.2035 Br  0  0  0  0  0  0  0  0  0  0  0  0
  1  2  2  0  0  0
  1  4  1  0  0  0
  1 15  1  0  0  0
  2  3  1  0  0  0
  2 16  1  0  0  0
  3  7  2  0  0  0
  3 17  1  0  0  0
  4  6  2  0  0  0
  4 14  1  0  0  0
  5  6  1  0  0  0
  5  9  2  0  0  0
  6  7  1  0  0  0
  7  8  1  0  0  0
  8  9  1  0  0  0
  8 12  1  0  0  0
  9 10  1  0  0  0
 10 11  1  0  0  0
 10 13  1  0  0  0
 12 13  1  0  0  0
M  END
> <minimizedAffinity>
-6.62513

$$$$
1ZOH_K44_A_501


 17 19  0  0  0  0  0  0  0  0999 V2000
   21.0929    5.4964   24.4935 C   0  0  0  0  0  0  0  0  0  0  0  0
   21.6127    6.4097   23.5656 C   0  0  0  0  0  0  0  0  0  0  0  0
   22.1858    5.9224   22.3992 C   0  0  0  0  0  0  0  0  0  0  0  0
   21.1406    4.1399   24.2472 C   0  0  0  0  0  0  0  0  0  0  0  0
   21.8786    2.3970   22.7119 N   0  0  0  0  0  0  0  0  0  0  0  0
   21.7254    3.6739   23.0879 C   0  0  0  0  0  0  0  0  0  0  0  0
   22.2072    4.5541   22.1503 C   0  0  0  0  0  0  0  0  0  0  0  0
   22.6551    3.7780   21.1808 N   0  0  0  0  0  0  0  0  0  0  0  0
   22.4787    2.5384   21.5391 C   0  0  0  0  0  0  0  0  0  0  0  0
   22.8973    1.6490   20.6155 N   0  0  0  0  0  0  0  0  0  0  0  0
   23.1912    0.2796   20.9985 C   0  0  0  0  0  0  0  0  0  0  0  0
   23.2892    3.9519   19.9091 C   0  0  0  0  0  0  0  0  0  0  0  0
   23.6815    2.3937   19.6008 C   0  0  0  0  0  0  0  0  0  0  0  0
   20.4635    2.8885   25.4931 Br  0  0  0  0  0  0  0  0  0  0  0  0
   20.2592    6.1458   26.0556 Br  0  0  0  0  0  0  0  0  0  0  0  0
   21.5370    8.2592   23.9987 Br  0  0  0  0  0  0  0  0  0  0  0  0
   22.8498    7.1510   21.1240 Br  0  0  0  0  0  0  0  0  0  0  0  0
  1  2  2  0  0  0
  1  4  1  0  0  0
  1 15  1  0  0  0
  2  3  1  0  0  0
  2 16  1  0  0  0
  3  7  2  0  0  0
  3 17  1  0  0  0
  4  6  2  0  0  0
  4 14  1  0  0  0
  5  6  1  0  0  0
  5  9  2  0  0  0
  6  7  1  0  0  0
  7  8  1  0  0  0
  8  9  1  0  0  0
  8 12  1  0  0  0
  9 10  1  0  0  0
 10 11  1  0  0  0
 10 13  1  0  0  0
 12 13  1  0  0  0
M  END
> <minimizedAffinity>
-6.05270

$$$$
1ZOH_K44_A_501


 17 19  0  0  0  0  0  0  0  0999 V2000
   23.4551    5.6361   20.4275 C   0  0  0  0  0  0  0  0  0  0  0  0
   23.1120    4.8626   21.5452 C   0  0  0  0  0  0  0  0  0  0  0  0
   23.6421    3.5851   21.6604 C   0  0  0  0  0  0  0  0  0  0  0  0
   24.3115    5.1410   19.4660 C   0  0  0  0  0  0  0  0  0  0  0  0
   25.6328    3.2262   18.7400 N   0  0  0  0  0  0  0  0  0  0  0  0
   24.8185    3.8642   19.5916 C   0  0  0  0  0  0  0  0  0  0  0  0
   24.5232    3.1050   20.6971 C   0  0  0  0  0  0  0  0  0  0  0  0
   25.1884    1.9814   20.5028 N   0  0  0  0  0  0  0  0  0  0  0  0
   25.7992    2.0647   19.3556 C   0  0  0  0  0  0  0  0  0  0  0  0
   26.5216    0.9668   19.0522 N   0  0  0  0  0  0  0  0  0  0  0  0
   26.8923    0.6919   17.6755 C   0  0  0  0  0  0  0  0  0  0  0  0
   25.3679    0.7387   21.1907 C   0  0  0  0  0  0  0  0  0  0  0  0
   26.1505   -0.0941   20.0198 C   0  0  0  0  0  0  0  0  0  0  0  0
   24.7730    6.1587   17.9402 Br  0  0  0  0  0  0  0  0  0  0  0  0
   22.7891    7.3949   20.2864 Br  0  0  0  0  0  0  0  0  0  0  0  0
   21.8992    5.6079   22.8052 Br  0  0  0  0  0  0  0  0  0  0  0  0
   23.2173    2.5531   23.1872 Br  0  0  0  0  0  0  0  0  0  0  0  0
  1  2  2  0  0  0
  1  4  1  0  0  0
  1 15  1  0  0  0
  2  3  1  0  0  0
  2 16  1  0  0  0
  3  7  2  0  0  0
  3 17  1  0  0  0
  4  6  2  0  0  0
  4 14  1  0  0  0
  5  6  1  0  0  0
  5  9  2  0  0  0
  6  7  1  0  0  0
  7  8  1  0  0  0
  8  9  1  0  0  0
  8 12  1  0  0  0
  9 10  1  0  0  0
 10 11  1  0  0  0
 10 13  1  0  0  0
 12 13  1  0  0  0
M  END
> <minimizedAffinity>
-6.04632

$$$$
1ZOH_K44_A_501


 17 19  0  0  0  0  0  0  0  0999 V2000
   21.5281    6.3190   23.1604 C   0  0  0  0  0  0  0  0  0  0  0  0
   21.0427    5.3436   24.0426 C   0  0  0  0  0  0  0  0  0  0  0  0
   21.2740    4.0064   23.7515 C   0  0  0  0  0  0  0  0  0  0  0  0
   22.2313    5.9571   22.0301 C   0  0  0  0  0  0  0  0  0  0  0  0
   23.0727    4.1038   20.6895 N   0  0  0  0  0  0  0  0  0  0  0  0
   22.4405    4.6224   21.7510 C   0  0  0  0  0  0  0  0  0  0  0  0
   22.0045    3.6538   22.6216 C   0  0  0  0  0  0  0  0  0  0  0  0
   22.3958    2.5221   22.0658 N   0  0  0  0  0  0  0  0  0  0  0  0
   22.9860    2.8056   20.9401 C   0  0  0  0  0  0  0  0  0  0  0  0
   23.4365    1.7176   20.2823 N   0  0  0  0  0  0  0  0  0  0  0  0
   23.7075    1.7839   18.8574 C   0  0  0  0  0  0  0  0  0  0  0  0
   22.3051    1.1243   22.3618 C   0  0  0  0  0  0  0  0  0  0  0  0
   22.8561    0.5236   20.9431 C   0  0  0  0  0  0  0  0  0  0  0  0
   22.8786    7.2543   20.8156 Br  0  0  0  0  0  0  0  0  0  0  0  0
   21.2722    8.1414   23.5726 Br  0  0  0  0  0  0  0  0  0  0  0  0
   20.0548    5.9269   25.5585 Br  0  0  0  0  0  0  0  0  0  0  0  0
   20.6593    2.6878   24.9598 Br  0  0  0  0  0  0  0  0  0  0  0  0
  1  2  2  0  0  0
  1  4  1  0  0  0
  1 15  1  0  0  0
  2  3  1  0  0  0
  2 16  1  0  0  0
  3  7  2  0  0  0
  3 17  1  0  0  0
  4  6  2  0  0  0
  4 14  1  0  0  0
  5  6  1  0  0  0
  5  9  2  0  0  0
  6  7  1  0  0  0
  7  8  1  0  0  0
  8  9  1  0  0  0
  8 12  1  0  0  0
  9 10  1  0  0  0
 10 11  1  0  0  0
 10 13  1  0  0  0
 12 13  1  0  0  0
M  END
> <minimizedAffinity>
-6.00145

$$$$
