3D7Z_GK5_A_401


 28 31  0  0  0  0  0  0  0  0999 V2000
   39.9114   32.1935   30.1574 C   0  0  0  0  0  0  0  0  0  0  0  0
   39.7498   31.2668   31.3591 C   0  0  0  0  0  0  0  0  0  0  0  0
   38.5756   30.5035   31.5779 C   0  0  0  0  0  0  0  0  0  0  0  0
   38.4076   29.6615   32.6800 C   0  0  0  0  0  0  0  0  0  0  0  0
   39.4354   29.5304   33.6324 C   0  0  0  0  0  0  0  0  0  0  0  0
   40.5968   30.2992   33.3889 C   0  0  0  0  0  0  0  0  0  0  0  0
   40.7736   31.1566   32.2775 C   0  0  0  0  0  0  0  0  0  0  0  0
   42.1003   31.8616   32.2532 C   0  0  0  0  0  0  0  0  0  0  0  0
   43.2038   31.3000   31.6397 C   0  0  0  0  0  0  0  0  0  0  0  0
   44.4481   31.9491   31.6831 C   0  0  0  0  0  0  0  0  0  0  0  0
   44.6257   33.1582   32.3728 C   0  0  0  0  0  0  0  0  0  0  0  0
   43.5111   33.6796   33.0292 C   0  0  0  0  0  0  0  0  0  0  0  0
   42.2763   33.0322   32.9500 C   0  0  0  0  0  0  0  0  0  0  0  0
   45.9295   33.8763   32.5470 C   0  0  0  0  0  0  0  0  0  0  0  0
   46.0480   35.0929   32.7127 O   0  0  0  0  0  0  0  0  0  0  0  0
   46.9947   33.0378   32.6779 N   0  0  0  0  0  0  0  0  0  0  0  0
   46.8797   32.1114   32.3651 H   0  0  0  0  0  0  0  0  0  0  0  0
   48.3034   33.3986   33.2473 C   0  0  0  0  0  0  0  0  0  0  0  0
   49.5365   34.5503   31.3661 C   0  0  0  0  0  0  0  0  0  0  0  0
   48.9080   33.3533   30.7436 C   0  0  0  0  0  0  0  0  0  0  0  0
   49.3477   33.3157   32.1530 C   0  0  0  0  0  0  0  0  0  0  0  0
   39.3815   28.6509   34.8576 C   0  0  0  0  0  0  0  0  0  0  0  0
   40.2253   28.7978   35.7591 O   0  0  0  0  0  0  0  0  0  0  0  0
   38.3638   27.7186   34.9870 N   0  0  0  0  0  0  0  0  0  0  0  0
   37.6812   27.6763   34.2788 H   0  0  0  0  0  0  0  0  0  0  0  0
   36.8036   26.3998   36.1402 C   0  0  0  0  0  0  0  0  0  0  0  0
   37.3092   27.4051   37.1056 C   0  0  0  0  0  0  0  0  0  0  0  0
   38.2460   26.8037   36.1024 C   0  0  0  0  0  0  0  0  0  0  0  0
  1  2  1  0  0  0
 26 27  1  0  0  0
 26 28  1  0  0  0
 27 28  1  0  0  0
 28 24  1  0  0  0
 19 20  1  0  0  0
 19 21  1  0  0  0
 20 21  1  0  0  0
 21 18  1  0  0  0
  2  3  2  0  0  0
  2  7  1  0  0  0
  3  4  1  0  0  0
  4  5  2  0  0  0
  5 22  1  0  0  0
  5  6  1  0  0  0
 22 23  2  0  0  0
 22 24  1  0  0  0
  6  7  2  0  0  0
  7  8  1  0  0  0
  8  9  2  0  0  0
  8 13  1  0  0  0
  9 10  1  0  0  0
 10 11  2  0  0  0
 11 12  1  0  0  0
 11 14  1  0  0  0
 12 13  2  0  0  0
 14 15  2  0  0  0
 14 16  1  0  0  0
 16 18  1  0  0  0
 24 25  1  0  0  0
 16 17  1  0  0  0
M  END
> <minimizedAffinity>
-11.65391

$$$$
3D7Z_GK5_A_401


 28 31  0  0  0  0  0  0  0  0999 V2000
   47.9286   32.2845   33.8867 C   0  0  0  0  0  0  0  0  0  0  0  0
   48.2666   33.1231   32.6572 C   0  0  0  0  0  0  0  0  0  0  0  0
   49.5955   33.4927   32.3311 C   0  0  0  0  0  0  0  0  0  0  0  0
   49.9190   34.2711   31.2169 C   0  0  0  0  0  0  0  0  0  0  0  0
   48.9056   34.7175   30.3483 C   0  0  0  0  0  0  0  0  0  0  0  0
   47.5899   34.3321   30.6940 C   0  0  0  0  0  0  0  0  0  0  0  0
   47.2535   33.5471   31.8220 C   0  0  0  0  0  0  0  0  0  0  0  0
   45.7819   33.2789   31.9642 C   0  0  0  0  0  0  0  0  0  0  0  0
   44.9768   34.0773   32.7541 C   0  0  0  0  0  0  0  0  0  0  0  0
   43.6167   33.7707   32.9207 C   0  0  0  0  0  0  0  0  0  0  0  0
   43.0382   32.6369   32.3297 C   0  0  0  0  0  0  0  0  0  0  0  0
   43.8813   31.8165   31.5806 C   0  0  0  0  0  0  0  0  0  0  0  0
   45.2248   32.1548   31.4047 C   0  0  0  0  0  0  0  0  0  0  0  0
   41.6230   32.1830   32.5215 C   0  0  0  0  0  0  0  0  0  0  0  0
   40.9689   32.3313   33.5568 O   0  0  0  0  0  0  0  0  0  0  0  0
   41.0416   31.7287   31.3767 N   0  0  0  0  0  0  0  0  0  0  0  0
   41.6408   31.4658   30.6410 H   0  0  0  0  0  0  0  0  0  0  0  0
   39.5938   31.5972   31.1456 C   0  0  0  0  0  0  0  0  0  0  0  0
   37.6986   30.0025   31.6470 C   0  0  0  0  0  0  0  0  0  0  0  0
   38.5123   30.0432   32.8926 C   0  0  0  0  0  0  0  0  0  0  0  0
   39.1581   30.2112   31.5751 C   0  0  0  0  0  0  0  0  0  0  0  0
   49.1239   35.5538   29.1112 C   0  0  0  0  0  0  0  0  0  0  0  0
   49.5163   35.0124   28.0628 O   0  0  0  0  0  0  0  0  0  0  0  0
   48.8405   36.9104   29.1429 N   0  0  0  0  0  0  0  0  0  0  0  0
   48.4742   37.2880   29.9751 H   0  0  0  0  0  0  0  0  0  0  0  0
   50.4075   38.4047   28.2400 C   0  0  0  0  0  0  0  0  0  0  0  0
   49.1953   39.1973   28.5573 C   0  0  0  0  0  0  0  0  0  0  0  0
   49.0518   37.8042   28.0242 C   0  0  0  0  0  0  0  0  0  0  0  0
  1  2  1  0  0  0
 26 27  1  0  0  0
 26 28  1  0  0  0
 27 28  1  0  0  0
 28 24  1  0  0  0
 19 20  1  0  0  0
 19 21  1  0  0  0
 20 21  1  0  0  0
 21 18  1  0  0  0
  2  3  2  0  0  0
  2  7  1  0  0  0
  3  4  1  0  0  0
  4  5  2  0  0  0
  5 22  1  0  0  0
  5  6  1  0  0  0
 22 23  2  0  0  0
 22 24  1  0  0  0
  6  7  2  0  0  0
  7  8  1  0  0  0
  8  9  2  0  0  0
  8 13  1  0  0  0
  9 10  1  0  0  0
 10 11  2  0  0  0
 11 12  1  0  0  0
 11 14  1  0  0  0
 12 13  2  0  0  0
 14 15  2  0  0  0
 14 16  1  0  0  0
 16 18  1  0  0  0
 24 25  1  0  0  0
 16 17  1  0  0  0
M  END
> <minimizedAffinity>
-9.62733

$$$$
3D7Z_GK5_A_401


 28 31  0  0  0  0  0  0  0  0999 V2000
   43.6843   34.5572   34.5053 C   0  0  0  0  0  0  0  0  0  0  0  0
   44.5775   34.2046   33.3191 C   0  0  0  0  0  0  0  0  0  0  0  0
   45.7364   34.9520   32.9916 C   0  0  0  0  0  0  0  0  0  0  0  0
   46.5560   34.6497   31.9012 C   0  0  0  0  0  0  0  0  0  0  0  0
   46.2550   33.5518   31.0738 C   0  0  0  0  0  0  0  0  0  0  0  0
   45.0964   32.8211   31.4243 C   0  0  0  0  0  0  0  0  0  0  0  0
   44.2594   33.1224   32.5244 C   0  0  0  0  0  0  0  0  0  0  0  0
   43.0905   32.1908   32.6775 C   0  0  0  0  0  0  0  0  0  0  0  0
   41.8818   32.6282   33.1848 C   0  0  0  0  0  0  0  0  0  0  0  0
   40.8232   31.7258   33.3762 C   0  0  0  0  0  0  0  0  0  0  0  0
   40.9611   30.3572   33.0984 C   0  0  0  0  0  0  0  0  0  0  0  0
   42.2060   29.9294   32.6378 C   0  0  0  0  0  0  0  0  0  0  0  0
   43.2368   30.8480   32.4280 C   0  0  0  0  0  0  0  0  0  0  0  0
   39.9203   29.3093   33.3524 C   0  0  0  0  0  0  0  0  0  0  0  0
   39.1899   28.8168   32.4889 O   0  0  0  0  0  0  0  0  0  0  0  0
   39.9565   28.8078   34.6182 N   0  0  0  0  0  0  0  0  0  0  0  0
   40.4190   29.3441   35.3020 H   0  0  0  0  0  0  0  0  0  0  0  0
   39.3629   27.5320   35.0508 C   0  0  0  0  0  0  0  0  0  0  0  0
   38.2135   27.1414   37.2673 C   0  0  0  0  0  0  0  0  0  0  0  0
   37.2122   26.7540   36.2364 C   0  0  0  0  0  0  0  0  0  0  0  0
   38.1881   27.8277   35.9605 C   0  0  0  0  0  0  0  0  0  0  0  0
   47.0620   33.1167   29.8751 C   0  0  0  0  0  0  0  0  0  0  0  0
   46.5305   32.4158   28.9961 O   0  0  0  0  0  0  0  0  0  0  0  0
   48.3749   33.5412   29.7428 N   0  0  0  0  0  0  0  0  0  0  0  0
   48.7383   34.1448   30.4304 H   0  0  0  0  0  0  0  0  0  0  0  0
   50.6388   33.3182   29.1698 C   0  0  0  0  0  0  0  0  0  0  0  0
   50.0660   34.3371   28.2577 C   0  0  0  0  0  0  0  0  0  0  0  0
   49.2427   33.1490   28.6528 C   0  0  0  0  0  0  0  0  0  0  0  0
  1  2  1  0  0  0
 26 27  1  0  0  0
 26 28  1  0  0  0
 27 28  1  0  0  0
 28 24  1  0  0  0
 19 20  1  0  0  0
 19 21  1  0  0  0
 20 21  1  0  0  0
 21 18  1  0  0  0
  2  3  2  0  0  0
  2  7  1  0  0  0
  3  4  1  0  0  0
  4  5  2  0  0  0
  5 22  1  0  0  0
  5  6  1  0  0  0
 22 23  2  0  0  0
 22 24  1  0  0  0
  6  7  2  0  0  0
  7  8  1  0  0  0
  8  9  2  0  0  0
  8 13  1  0  0  0
  9 10  1  0  0  0
 10 11  2  0  0  0
 11 12  1  0  0  0
 11 14  1  0  0  0
 12 13  2  0  0  0
 14 15  2  0  0  0
 14 16  1  0  0  0
 16 18  1  0  0  0
 24 25  1  0  0  0
 16 17  1  0  0  0
M  END
> <minimizedAffinity>
-9.62575

$$$$
3D7Z_GK5_A_401


 28 31  0  0  0  0  0  0  0  0999 V2000
   45.8377   35.2646   33.1345 C   0  0  0  0  0  0  0  0  0  0  0  0
   44.8344   34.1665   32.7928 C   0  0  0  0  0  0  0  0  0  0  0  0
   43.5553   34.0902   33.3987 C   0  0  0  0  0  0  0  0  0  0  0  0
   42.6318   33.0835   33.1063 C   0  0  0  0  0  0  0  0  0  0  0  0
   42.9464   32.0882   32.1624 C   0  0  0  0  0  0  0  0  0  0  0  0
   44.2264   32.1893   31.5703 C   0  0  0  0  0  0  0  0  0  0  0  0
   45.1686   33.2033   31.8631 C   0  0  0  0  0  0  0  0  0  0  0  0
   46.4555   33.0828   31.0970 C   0  0  0  0  0  0  0  0  0  0  0  0
   47.6803   33.1101   31.7365 C   0  0  0  0  0  0  0  0  0  0  0  0
   48.8708   33.0578   30.9939 C   0  0  0  0  0  0  0  0  0  0  0  0
   48.8642   33.0136   29.5913 C   0  0  0  0  0  0  0  0  0  0  0  0
   47.6183   33.0407   28.9653 C   0  0  0  0  0  0  0  0  0  0  0  0
   46.4458   33.0647   29.7235 C   0  0  0  0  0  0  0  0  0  0  0  0
   50.0793   33.0440   28.7148 C   0  0  0  0  0  0  0  0  0  0  0  0
   50.1430   33.6022   27.6166 O   0  0  0  0  0  0  0  0  0  0  0  0
   51.1909   32.5346   29.3147 N   0  0  0  0  0  0  0  0  0  0  0  0
   51.0539   31.9524   30.0967 H   0  0  0  0  0  0  0  0  0  0  0  0
   52.5799   32.7804   28.8934 C   0  0  0  0  0  0  0  0  0  0  0  0
   52.5607   33.6722   31.2578 C   0  0  0  0  0  0  0  0  0  0  0  0
   52.6930   34.8742   30.3900 C   0  0  0  0  0  0  0  0  0  0  0  0
   53.2782   33.5846   29.9707 C   0  0  0  0  0  0  0  0  0  0  0  0
   42.0364   30.9559   31.7533 C   0  0  0  0  0  0  0  0  0  0  0  0
   42.3868   30.1807   30.8463 O   0  0  0  0  0  0  0  0  0  0  0  0
   40.8388   30.7634   32.4243 N   0  0  0  0  0  0  0  0  0  0  0  0
   40.6274   31.3626   33.1763 H   0  0  0  0  0  0  0  0  0  0  0  0
   38.6839   30.4580   31.5488 C   0  0  0  0  0  0  0  0  0  0  0  0
   38.6615   29.9271   32.9329 C   0  0  0  0  0  0  0  0  0  0  0  0
   39.8810   29.7330   32.0840 C   0  0  0  0  0  0  0  0  0  0  0  0
  1  2  1  0  0  0
 26 27  1  0  0  0
 26 28  1  0  0  0
 27 28  1  0  0  0
 28 24  1  0  0  0
 19 20  1  0  0  0
 19 21  1  0  0  0
 20 21  1  0  0  0
 21 18  1  0  0  0
  2  3  2  0  0  0
  2  7  1  0  0  0
  3  4  1  0  0  0
  4  5  2  0  0  0
  5 22  1  0  0  0
  5  6  1  0  0  0
 22 23  2  0  0  0
 22 24  1  0  0  0
  6  7  2  0  0  0
  7  8  1  0  0  0
  8  9  2  0  0  0
  8 13  1  0  0  0
  9 10  1  0  0  0
 10 11  2  0  0  0
 11 12  1  0  0  0
 11 14  1  0  0  0
 12 13  2  0  0  0
 14 15  2  0  0  0
 14 16  1  0  0  0
 16 18  1  0  0  0
 24 25  1  0  0  0
 16 17  1  0  0  0
M  END
> <minimizedAffinity>
-9.02623

$$$$
3D7Z_GK5_A_401


 28 31  0  0  0  0  0  0  0  0999 V2000
   47.8265   32.2415   33.8754 C   0  0  0  0  0  0  0  0  0  0  0  0
   48.1454   33.1116   32.6628 C   0  0  0  0  0  0  0  0  0  0  0  0
   49.4464   33.6132   32.4082 C   0  0  0  0  0  0  0  0  0  0  0  0
   49.7506   34.4218   31.3102 C   0  0  0  0  0  0  0  0  0  0  0  0
   48.7466   34.7656   30.3859 C   0  0  0  0  0  0  0  0  0  0  0  0
   47.4592   34.2496   30.6609 C   0  0  0  0  0  0  0  0  0  0  0  0
   47.1420   33.4331   31.7719 C   0  0  0  0  0  0  0  0  0  0  0  0
   45.6992   33.0184   31.8347 C   0  0  0  0  0  0  0  0  0  0  0  0
   45.1604   32.1416   30.9125 C   0  0  0  0  0  0  0  0  0  0  0  0
   43.7951   31.8168   30.9544 C   0  0  0  0  0  0  0  0  0  0  0  0
   42.9289   32.3899   31.8981 C   0  0  0  0  0  0  0  0  0  0  0  0
   43.4837   33.3123   32.7850 C   0  0  0  0  0  0  0  0  0  0  0  0
   44.8496   33.6001   32.7439 C   0  0  0  0  0  0  0  0  0  0  0  0
   41.4478   32.1717   31.9640 C   0  0  0  0  0  0  0  0  0  0  0  0
   40.6647   32.3614   31.0299 O   0  0  0  0  0  0  0  0  0  0  0  0
   41.0408   31.5724   33.1173 N   0  0  0  0  0  0  0  0  0  0  0  0
   41.6570   31.6068   33.8844 H   0  0  0  0  0  0  0  0  0  0  0  0
   39.7581   30.8777   33.3147 C   0  0  0  0  0  0  0  0  0  0  0  0
   38.9417   28.7764   34.4568 C   0  0  0  0  0  0  0  0  0  0  0  0
   40.1922   29.1477   35.1735 C   0  0  0  0  0  0  0  0  0  0  0  0
   40.0397   29.4500   33.7359 C   0  0  0  0  0  0  0  0  0  0  0  0
   48.9472   35.6215   29.1592 C   0  0  0  0  0  0  0  0  0  0  0  0
   49.2270   35.0851   28.0727 O   0  0  0  0  0  0  0  0  0  0  0  0
   48.7722   36.9938   29.2457 N   0  0  0  0  0  0  0  0  0  0  0  0
   48.4915   37.3717   30.1104 H   0  0  0  0  0  0  0  0  0  0  0  0
   50.3763   38.4186   28.2968 C   0  0  0  0  0  0  0  0  0  0  0  0
   49.2314   39.2713   28.6970 C   0  0  0  0  0  0  0  0  0  0  0  0
   48.9781   37.9038   28.1391 C   0  0  0  0  0  0  0  0  0  0  0  0
  1  2  1  0  0  0
 26 27  1  0  0  0
 26 28  1  0  0  0
 27 28  1  0  0  0
 28 24  1  0  0  0
 19 20  1  0  0  0
 19 21  1  0  0  0
 20 21  1  0  0  0
 21 18  1  0  0  0
  2  3  2  0  0  0
  2  7  1  0  0  0
  3  4  1  0  0  0
  4  5  2  0  0  0
  5 22  1  0  0  0
  5  6  1  0  0  0
 22 23  2  0  0  0
 22 24  1  0  0  0
  6  7  2  0  0  0
  7  8  1  0  0  0
  8  9  2  0  0  0
  8 13  1  0  0  0
  9 10  1  0  0  0
 10 11  2  0  0  0
 11 12  1  0  0  0
 11 14  1  0  0  0
 12 13  2  0  0  0
 14 15  2  0  0  0
 14 16  1  0  0  0
 16 18  1  0  0  0
 24 25  1  0  0  0
 16 17  1  0  0  0
M  END
> <minimizedAffinity>
-9.02078

$$$$
3D7Z_GK5_A_401


 28 31  0  0  0  0  0  0  0  0999 V2000
   45.4407   35.3080   33.3428 C   0  0  0  0  0  0  0  0  0  0  0  0
   44.4668   34.2001   32.9513 C   0  0  0  0  0  0  0  0  0  0  0  0
   43.1973   34.0525   33.5642 C   0  0  0  0  0  0  0  0  0  0  0  0
   42.3009   33.0355   33.2262 C   0  0  0  0  0  0  0  0  0  0  0  0
   42.6346   32.1027   32.2267 C   0  0  0  0  0  0  0  0  0  0  0  0
   43.9044   32.2744   31.6290 C   0  0  0  0  0  0  0  0  0  0  0  0
   44.8192   33.2991   31.9676 C   0  0  0  0  0  0  0  0  0  0  0  0
   46.1006   33.2592   31.1841 C   0  0  0  0  0  0  0  0  0  0  0  0
   46.1000   33.1565   29.8060 C   0  0  0  0  0  0  0  0  0  0  0  0
   47.3098   33.0589   29.1002 C   0  0  0  0  0  0  0  0  0  0  0  0
   48.5481   33.0251   29.7597 C   0  0  0  0  0  0  0  0  0  0  0  0
   48.5221   33.0764   31.1531 C   0  0  0  0  0  0  0  0  0  0  0  0
   47.3093   33.2013   31.8342 C   0  0  0  0  0  0  0  0  0  0  0  0
   49.8799   32.8355   29.0994 C   0  0  0  0  0  0  0  0  0  0  0  0
   50.1800   33.2621   27.9815 O   0  0  0  0  0  0  0  0  0  0  0  0
   50.8158   32.2826   29.9199 N   0  0  0  0  0  0  0  0  0  0  0  0
   50.4903   31.8056   30.7172 H   0  0  0  0  0  0  0  0  0  0  0  0
   52.2727   32.3375   29.7162 C   0  0  0  0  0  0  0  0  0  0  0  0
   51.9143   29.8426   29.5328 C   0  0  0  0  0  0  0  0  0  0  0  0
   53.2934   29.9988   30.0705 C   0  0  0  0  0  0  0  0  0  0  0  0
   52.7335   31.0097   29.1507 C   0  0  0  0  0  0  0  0  0  0  0  0
   41.7541   30.9671   31.7653 C   0  0  0  0  0  0  0  0  0  0  0  0
   42.2078   30.1150   30.9815 O   0  0  0  0  0  0  0  0  0  0  0  0
   40.4622   30.8595   32.2560 N   0  0  0  0  0  0  0  0  0  0  0  0
   40.1625   31.5205   32.9212 H   0  0  0  0  0  0  0  0  0  0  0  0
   38.2780   30.5586   31.4547 C   0  0  0  0  0  0  0  0  0  0  0  0
   38.3477   29.8776   32.7698 C   0  0  0  0  0  0  0  0  0  0  0  0
   39.5280   29.8320   31.8476 C   0  0  0  0  0  0  0  0  0  0  0  0
  1  2  1  0  0  0
 26 27  1  0  0  0
 26 28  1  0  0  0
 27 28  1  0  0  0
 28 24  1  0  0  0
 19 20  1  0  0  0
 19 21  1  0  0  0
 20 21  1  0  0  0
 21 18  1  0  0  0
  2  3  2  0  0  0
  2  7  1  0  0  0
  3  4  1  0  0  0
  4  5  2  0  0  0
  5 22  1  0  0  0
  5  6  1  0  0  0
 22 23  2  0  0  0
 22 24  1  0  0  0
  6  7  2  0  0  0
  7  8  1  0  0  0
  8  9  2  0  0  0
  8 13  1  0  0  0
  9 10  1  0  0  0
 10 11  2  0  0  0
 11 12  1  0  0  0
 11 14  1  0  0  0
 12 13  2  0  0  0
 14 15  2  0  0  0
 14 16  1  0  0  0
 16 18  1  0  0  0
 24 25  1  0  0  0
 16 17  1  0  0  0
M  END
> <minimizedAffinity>
-8.89901

$$$$
