3IGP_DT7_A_263


 20 21  0  0  0  0  0  0  0  0999 V2000
   -3.5677    5.0717   13.4579 C   0  0  0  0  0  0  0  0  0  0  0  0
   -6.3349    5.2041   13.6580 C   0  0  0  0  0  0  0  0  0  0  0  0
   -3.3962    3.5894   15.3878 C   0  0  0  0  0  0  0  0  0  0  0  0
   -4.1286    2.3671   15.8980 C   0  0  0  0  0  0  0  0  0  0  0  0
   -4.2479    4.3768   14.4605 C   0  0  0  0  0  0  0  0  0  0  0  0
   -4.2845    5.8401   12.5499 C   0  0  0  0  0  0  0  0  0  0  0  0
   -5.6683    5.9001   12.6517 C   0  0  0  0  0  0  0  0  0  0  0  0
   -5.6346    4.4385   14.5641 C   0  0  0  0  0  0  0  0  0  0  0  0
   -6.3680    3.6844   15.7049 C   0  0  0  0  0  0  0  0  0  0  0  0
   -5.6141    2.4547   16.0444 N   0  0  0  0  0  0  0  0  0  0  0  0
   -6.2599    2.3213   18.6899 N   0  0  0  0  0  0  0  0  0  0  0  0
   -7.5084    1.2083   16.8498 O   0  0  0  0  0  0  0  0  0  0  0  0
   -5.2125    0.3731   17.4988 O   0  0  0  0  0  0  0  0  0  0  0  0
   -6.1574    1.5179   17.3270 S   0  0  0  0  0  0  0  0  0  0  0  0
   -6.5940    1.6999   19.4266 H   0  0  0  0  0  0  0  0  0  0  0  0
   -6.9118    3.0979   18.5786 H   0  0  0  0  0  0  0  0  0  0  0  0
   -2.8640    7.6350   12.0593 C   0  0  0  0  0  0  0  0  0  0  0  0
   -3.6432    6.5281   11.5459 O   0  0  0  0  0  0  0  0  0  0  0  0
   -7.5943    7.1703   12.2941 C   0  0  0  0  0  0  0  0  0  0  0  0
   -6.3681    6.6536   11.7523 O   0  0  0  0  0  0  0  0  0  0  0  0
 17 18  1  0  0  0
 19 20  1  0  0  0
 11 14  1  0  0  0
 12 14  2  0  0  0
 13 14  2  0  0  0
  1  5  2  0  0  0
  1  6  1  0  0  0
  2  7  1  0  0  0
  2  8  2  0  0  0
  3  4  1  0  0  0
  3  5  1  0  0  0
  4 10  1  0  0  0
 18  6  1  0  0  0
 20  7  1  0  0  0
  5  8  1  0  0  0
  6  7  2  0  0  0
  8  9  1  0  0  0
  9 10  1  0  0  0
 10 14  1  0  0  0
 11 15  1  0  0  0
 11 16  1  0  0  0
M  END
> <minimizedAffinity>
-6.66711

$$$$
3IGP_DT7_A_263


 20 21  0  0  0  0  0  0  0  0999 V2000
   -4.6347    5.8525   13.9399 C   0  0  0  0  0  0  0  0  0  0  0  0
   -2.7039    3.9787   14.6301 C   0  0  0  0  0  0  0  0  0  0  0  0
   -6.4240    4.5285   14.9383 C   0  0  0  0  0  0  0  0  0  0  0  0
   -6.6229    3.7449   16.2178 C   0  0  0  0  0  0  0  0  0  0  0  0
   -4.9810    4.6852   14.6243 C   0  0  0  0  0  0  0  0  0  0  0  0
   -3.3075    6.0785   13.5990 C   0  0  0  0  0  0  0  0  0  0  0  0
   -2.3452    5.1405   13.9496 C   0  0  0  0  0  0  0  0  0  0  0  0
   -4.0171    3.7439   14.9738 C   0  0  0  0  0  0  0  0  0  0  0  0
   -4.4277    2.4387   15.7058 C   0  0  0  0  0  0  0  0  0  0  0  0
   -5.6039    2.7076   16.5661 N   0  0  0  0  0  0  0  0  0  0  0  0
   -5.4603    0.0788   17.2751 N   0  0  0  0  0  0  0  0  0  0  0  0
   -6.2151    1.9264   18.7585 O   0  0  0  0  0  0  0  0  0  0  0  0
   -7.6658    1.1933   16.8224 O   0  0  0  0  0  0  0  0  0  0  0  0
   -6.3002    1.4189   17.3860 S   0  0  0  0  0  0  0  0  0  0  0  0
   -5.9334   -0.6627   17.7916 H   0  0  0  0  0  0  0  0  0  0  0  0
   -4.5306    0.2269   17.6679 H   0  0  0  0  0  0  0  0  0  0  0  0
   -3.6349    7.3711   11.6749 C   0  0  0  0  0  0  0  0  0  0  0  0
   -2.9346    7.2233   12.9333 O   0  0  0  0  0  0  0  0  0  0  0  0
   -0.6448    4.6894   12.4147 C   0  0  0  0  0  0  0  0  0  0  0  0
   -1.0406    5.3711   13.6159 O   0  0  0  0  0  0  0  0  0  0  0  0
 17 18  1  0  0  0
 19 20  1  0  0  0
 11 14  1  0  0  0
 12 14  2  0  0  0
 13 14  2  0  0  0
  1  5  2  0  0  0
  1  6  1  0  0  0
  2  7  1  0  0  0
  2  8  2  0  0  0
  3  4  1  0  0  0
  3  5  1  0  0  0
  4 10  1  0  0  0
 18  6  1  0  0  0
 20  7  1  0  0  0
  5  8  1  0  0  0
  6  7  2  0  0  0
  8  9  1  0  0  0
  9 10  1  0  0  0
 10 14  1  0  0  0
 11 15  1  0  0  0
 11 16  1  0  0  0
M  END
> <minimizedAffinity>
-6.60810

$$$$
3IGP_DT7_A_263


 20 21  0  0  0  0  0  0  0  0999 V2000
   -4.7490    4.2283   12.4244 C   0  0  0  0  0  0  0  0  0  0  0  0
   -3.3477    1.9113   13.0431 C   0  0  0  0  0  0  0  0  0  0  0  0
   -6.3354    3.8776   14.2442 C   0  0  0  0  0  0  0  0  0  0  0  0
   -6.2600    3.4624   15.6976 C   0  0  0  0  0  0  0  0  0  0  0  0
   -5.1403    3.4175   13.4922 C   0  0  0  0  0  0  0  0  0  0  0  0
   -3.6452    3.8705   11.6613 C   0  0  0  0  0  0  0  0  0  0  0  0
   -2.9456    2.7130   11.9768 C   0  0  0  0  0  0  0  0  0  0  0  0
   -4.4406    2.2563   13.8073 C   0  0  0  0  0  0  0  0  0  0  0  0
   -4.9113    1.3527   14.9778 C   0  0  0  0  0  0  0  0  0  0  0  0
   -5.5407    2.1927   16.0239 N   0  0  0  0  0  0  0  0  0  0  0  0
   -6.2647    2.3408   18.6482 N   0  0  0  0  0  0  0  0  0  0  0  0
   -7.5899    1.2425   16.8536 O   0  0  0  0  0  0  0  0  0  0  0  0
   -5.4272    0.1972   17.6410 O   0  0  0  0  0  0  0  0  0  0  0  0
   -6.2242    1.4279   17.3527 S   0  0  0  0  0  0  0  0  0  0  0  0
   -6.6891    1.8217   19.4169 H   0  0  0  0  0  0  0  0  0  0  0  0
   -6.8163    3.1774   18.4576 H   0  0  0  0  0  0  0  0  0  0  0  0
   -2.6479    5.9010   11.0589 C   0  0  0  0  0  0  0  0  0  0  0  0
   -3.2302    4.6540   10.6093 O   0  0  0  0  0  0  0  0  0  0  0  0
   -1.8806    0.9941   10.8099 C   0  0  0  0  0  0  0  0  0  0  0  0
   -1.8576    2.3692   11.2253 O   0  0  0  0  0  0  0  0  0  0  0  0
 17 18  1  0  0  0
 19 20  1  0  0  0
 11 14  1  0  0  0
 12 14  2  0  0  0
 13 14  2  0  0  0
  1  5  2  0  0  0
  1  6  1  0  0  0
  2  7  1  0  0  0
  2  8  2  0  0  0
  3  4  1  0  0  0
  3  5  1  0  0  0
  4 10  1  0  0  0
 18  6  1  0  0  0
 20  7  1  0  0  0
  5  8  1  0  0  0
  6  7  2  0  0  0
  8  9  1  0  0  0
  9 10  1  0  0  0
 10 14  1  0  0  0
 11 15  1  0  0  0
 11 16  1  0  0  0
M  END
> <minimizedAffinity>
-6.45103

$$$$
3IGP_DT7_A_263


 20 21  0  0  0  0  0  0  0  0999 V2000
   -4.4908    5.2967   11.4081 C   0  0  0  0  0  0  0  0  0  0  0  0
   -3.0545    2.9497   11.0292 C   0  0  0  0  0  0  0  0  0  0  0  0
   -5.3916    4.5229   13.5390 C   0  0  0  0  0  0  0  0  0  0  0  0
   -4.8518    3.8174   14.7643 C   0  0  0  0  0  0  0  0  0  0  0  0
   -4.5347    4.2691   12.3529 C   0  0  0  0  0  0  0  0  0  0  0  0
   -3.7197    5.1423   10.2634 C   0  0  0  0  0  0  0  0  0  0  0  0
   -3.0004    3.9685   10.0803 C   0  0  0  0  0  0  0  0  0  0  0  0
   -3.8156    3.0917   12.1686 C   0  0  0  0  0  0  0  0  0  0  0  0
   -3.9036    1.9495   13.2153 C   0  0  0  0  0  0  0  0  0  0  0  0
   -4.1148    2.5323   14.5613 N   0  0  0  0  0  0  0  0  0  0  0  0
   -4.6876    0.0039   15.4056 N   0  0  0  0  0  0  0  0  0  0  0  0
   -2.9994    1.5125   16.4338 O   0  0  0  0  0  0  0  0  0  0  0  0
   -5.4626    2.0193   16.6897 O   0  0  0  0  0  0  0  0  0  0  0  0
   -4.3451    1.4857   15.8534 S   0  0  0  0  0  0  0  0  0  0  0  0
   -4.8154   -0.5800   16.2321 H   0  0  0  0  0  0  0  0  0  0  0  0
   -3.9222   -0.3666   14.8425 H   0  0  0  0  0  0  0  0  0  0  0  0
   -4.9613    6.6148    8.9329 C   0  0  0  0  0  0  0  0  0  0  0  0
   -3.6492    6.1407    9.3195 O   0  0  0  0  0  0  0  0  0  0  0  0
   -0.8798    3.4631    9.2445 C   0  0  0  0  0  0  0  0  0  0  0  0
   -2.2396    3.8247    8.9546 O   0  0  0  0  0  0  0  0  0  0  0  0
 17 18  1  0  0  0
 19 20  1  0  0  0
 11 14  1  0  0  0
 12 14  2  0  0  0
 13 14  2  0  0  0
  1  5  2  0  0  0
  1  6  1  0  0  0
  2  7  1  0  0  0
  2  8  2  0  0  0
  3  4  1  0  0  0
  3  5  1  0  0  0
  4 10  1  0  0  0
 18  6  1  0  0  0
 20  7  1  0  0  0
  5  8  1  0  0  0
  6  7  2  0  0  0
  8  9  1  0  0  0
  9 10  1  0  0  0
 10 14  1  0  0  0
 11 15  1  0  0  0
 11 16  1  0  0  0
M  END
> <minimizedAffinity>
-5.92281

$$$$
3IGP_DT7_A_263


 20 21  0  0  0  0  0  0  0  0999 V2000
   -4.3736    2.6668   14.8896 C   0  0  0  0  0  0  0  0  0  0  0  0
   -4.2944    1.6985   12.2875 C   0  0  0  0  0  0  0  0  0  0  0  0
   -4.4110    4.9863   14.1349 C   0  0  0  0  0  0  0  0  0  0  0  0
   -5.1290    5.7773   13.0628 C   0  0  0  0  0  0  0  0  0  0  0  0
   -4.3732    3.5400   13.7996 C   0  0  0  0  0  0  0  0  0  0  0  0
   -4.3326    1.2962   14.6693 C   0  0  0  0  0  0  0  0  0  0  0  0
   -4.2969    0.8168   13.3663 C   0  0  0  0  0  0  0  0  0  0  0  0
   -4.3353    3.0599   12.4937 C   0  0  0  0  0  0  0  0  0  0  0  0
   -4.3032    4.0481   11.2977 C   0  0  0  0  0  0  0  0  0  0  0  0
   -5.0501    5.2768   11.6560 N   0  0  0  0  0  0  0  0  0  0  0  0
   -3.6302    6.9295   10.0172 N   0  0  0  0  0  0  0  0  0  0  0  0
   -5.8349    5.9164    9.4729 O   0  0  0  0  0  0  0  0  0  0  0  0
   -5.6814    7.7316   11.2256 O   0  0  0  0  0  0  0  0  0  0  0  0
   -5.0708    6.5438   10.5551 S   0  0  0  0  0  0  0  0  0  0  0  0
   -3.7098    7.7018    9.3556 H   0  0  0  0  0  0  0  0  0  0  0  0
   -3.2145    6.1235    9.5504 H   0  0  0  0  0  0  0  0  0  0  0  0
   -5.4281    0.6740   16.6424 C   0  0  0  0  0  0  0  0  0  0  0  0
   -4.3415    0.4111   15.7226 O   0  0  0  0  0  0  0  0  0  0  0  0
   -4.2193   -0.8777   11.7621 C   0  0  0  0  0  0  0  0  0  0  0  0
   -4.2618   -0.5327   13.1561 O   0  0  0  0  0  0  0  0  0  0  0  0
 17 18  1  0  0  0
 19 20  1  0  0  0
 11 14  1  0  0  0
 12 14  2  0  0  0
 13 14  2  0  0  0
  1  5  2  0  0  0
  1  6  1  0  0  0
  2  7  1  0  0  0
  2  8  2  0  0  0
  3  4  1  0  0  0
  3  5  1  0  0  0
  4 10  1  0  0  0
 18  6  1  0  0  0
 20  7  1  0  0  0
  5  8  1  0  0  0
  6  7  2  0  0  0
  8  9  1  0  0  0
  9 10  1  0  0  0
 10 14  1  0  0  0
 11 15  1  0  0  0
 11 16  1  0  0  0
M  END
> <minimizedAffinity>
-5.91879

$$$$
3IGP_DT7_A_263


 20 21  0  0  0  0  0  0  0  0999 V2000
   -6.0511    3.3696   16.4170 C   0  0  0  0  0  0  0  0  0  0  0  0
   -3.9943    2.5709   14.7297 C   0  0  0  0  0  0  0  0  0  0  0  0
   -6.5752    5.3067   15.0299 C   0  0  0  0  0  0  0  0  0  0  0  0
   -6.7248    5.5851   13.5498 C   0  0  0  0  0  0  0  0  0  0  0  0
   -5.7427    4.1000   15.2671 C   0  0  0  0  0  0  0  0  0  0  0  0
   -5.3186    2.2295   16.7212 C   0  0  0  0  0  0  0  0  0  0  0  0
   -4.2937    1.8321   15.8725 C   0  0  0  0  0  0  0  0  0  0  0  0
   -4.7141    3.7031   14.4176 C   0  0  0  0  0  0  0  0  0  0  0  0
   -4.3671    4.5468   13.1623 C   0  0  0  0  0  0  0  0  0  0  0  0
   -5.5983    5.1920   12.6487 N   0  0  0  0  0  0  0  0  0  0  0  0
   -6.7461    7.1482   11.1356 N   0  0  0  0  0  0  0  0  0  0  0  0
   -4.3583    7.0834   11.8267 O   0  0  0  0  0  0  0  0  0  0  0  0
   -5.2196    5.4324   10.1171 O   0  0  0  0  0  0  0  0  0  0  0  0
   -5.4609    6.2444   11.3482 S   0  0  0  0  0  0  0  0  0  0  0  0
   -6.6009    7.7626   10.3345 H   0  0  0  0  0  0  0  0  0  0  0  0
   -6.9079    7.7109   11.9708 H   0  0  0  0  0  0  0  0  0  0  0  0
   -6.2205    2.2826   18.8809 C   0  0  0  0  0  0  0  0  0  0  0  0
   -5.6052    1.4843   17.8416 O   0  0  0  0  0  0  0  0  0  0  0  0
   -3.9679   -0.4272   15.3823 C   0  0  0  0  0  0  0  0  0  0  0  0
   -3.5802    0.7068   16.1747 O   0  0  0  0  0  0  0  0  0  0  0  0
 17 18  1  0  0  0
 19 20  1  0  0  0
 11 14  1  0  0  0
 12 14  2  0  0  0
 13 14  2  0  0  0
  1  5  2  0  0  0
  1  6  1  0  0  0
  2  7  1  0  0  0
  2  8  2  0  0  0
  3  4  1  0  0  0
  3  5  1  0  0  0
  4 10  1  0  0  0
 18  6  1  0  0  0
 20  7  1  0  0  0
  5  8  1  0  0  0
  6  7  2  0  0  0
  8  9  1  0  0  0
  9 10  1  0  0  0
 10 14  1  0  0  0
 11 15  1  0  0  0
 11 16  1  0  0  0
M  END
> <minimizedAffinity>
-5.86266

$$$$
3IGP_DT7_A_263


 20 21  0  0  0  0  0  0  0  0999 V2000
   -3.9109    1.9532   12.8916 C   0  0  0  0  0  0  0  0  0  0  0  0
   -3.7653    2.8414   15.5194 C   0  0  0  0  0  0  0  0  0  0  0  0
   -3.3878    4.1655   12.0065 C   0  0  0  0  0  0  0  0  0  0  0  0
   -2.4022    5.2682   12.3277 C   0  0  0  0  0  0  0  0  0  0  0  0
   -3.6103    3.2859   13.1822 C   0  0  0  0  0  0  0  0  0  0  0  0
   -4.1411    1.0607   13.9306 C   0  0  0  0  0  0  0  0  0  0  0  0
   -4.0634    1.5088   15.2428 C   0  0  0  0  0  0  0  0  0  0  0  0
   -3.5346    3.7356   14.4972 C   0  0  0  0  0  0  0  0  0  0  0  0
   -3.2309    5.2275   14.7973 C   0  0  0  0  0  0  0  0  0  0  0  0
   -2.3550    5.7737   13.7342 N   0  0  0  0  0  0  0  0  0  0  0  0
   -0.4489    7.7009   13.4401 N   0  0  0  0  0  0  0  0  0  0  0  0
   -2.8109    7.8913   12.6863 O   0  0  0  0  0  0  0  0  0  0  0  0
   -2.2715    7.9141   15.1559 O   0  0  0  0  0  0  0  0  0  0  0  0
   -1.9684    7.4064   13.7835 S   0  0  0  0  0  0  0  0  0  0  0  0
   -0.2783    8.7054   13.4868 H   0  0  0  0  0  0  0  0  0  0  0  0
   -0.2413    7.3640   12.5000 H   0  0  0  0  0  0  0  0  0  0  0  0
   -4.2289   -0.6000   12.2830 C   0  0  0  0  0  0  0  0  0  0  0  0
   -4.4298   -0.2600   13.6758 O   0  0  0  0  0  0  0  0  0  0  0  0
   -5.5746    0.7940   16.8726 C   0  0  0  0  0  0  0  0  0  0  0  0
   -4.2860    0.6247   16.2604 O   0  0  0  0  0  0  0  0  0  0  0  0
 17 18  1  0  0  0
 19 20  1  0  0  0
 11 14  1  0  0  0
 12 14  2  0  0  0
 13 14  2  0  0  0
  1  5  2  0  0  0
  1  6  1  0  0  0
  2  7  1  0  0  0
  2  8  2  0  0  0
  3  4  1  0  0  0
  3  5  1  0  0  0
  4 10  1  0  0  0
 18  6  1  0  0  0
 20  7  1  0  0  0
  5  8  1  0  0  0
  6  7  2  0  0  0
  8  9  1  0  0  0
  9 10  1  0  0  0
 10 14  1  0  0  0
 11 15  1  0  0  0
 11 16  1  0  0  0
M  END
> <minimizedAffinity>
-5.85409

$$$$
3IGP_DT7_A_263


 20 21  0  0  0  0  0  0  0  0999 V2000
   -5.5714    3.5047   14.3583 C   0  0  0  0  0  0  0  0  0  0  0  0
   -4.5328    1.0944   15.2676 C   0  0  0  0  0  0  0  0  0  0  0  0
   -4.8436    3.0733   12.0702 C   0  0  0  0  0  0  0  0  0  0  0  0
   -4.8556    1.8942   11.1215 C   0  0  0  0  0  0  0  0  0  0  0  0
   -4.9293    2.6254   13.4835 C   0  0  0  0  0  0  0  0  0  0  0  0
   -5.6910    3.1698   15.7008 C   0  0  0  0  0  0  0  0  0  0  0  0
   -5.1734    1.9618   16.1499 C   0  0  0  0  0  0  0  0  0  0  0  0
   -4.4086    1.4157   13.9338 C   0  0  0  0  0  0  0  0  0  0  0  0
   -3.6707    0.4678   12.9515 C   0  0  0  0  0  0  0  0  0  0  0  0
   -4.2581    0.6091   11.5984 N   0  0  0  0  0  0  0  0  0  0  0  0
   -4.5217   -0.4238    9.0890 N   0  0  0  0  0  0  0  0  0  0  0  0
   -2.4810    0.6847    9.9778 O   0  0  0  0  0  0  0  0  0  0  0  0
   -3.1584   -1.5901   10.8475 O   0  0  0  0  0  0  0  0  0  0  0  0
   -3.5571   -0.2444   10.3344 S   0  0  0  0  0  0  0  0  0  0  0  0
   -4.0399   -0.9478    8.3584 H   0  0  0  0  0  0  0  0  0  0  0  0
   -4.7881    0.4932    8.7304 H   0  0  0  0  0  0  0  0  0  0  0  0
   -6.6742    5.2767   15.9735 C   0  0  0  0  0  0  0  0  0  0  0  0
   -6.3265    4.0112   16.5845 O   0  0  0  0  0  0  0  0  0  0  0  0
   -6.0303    0.4165   17.6759 C   0  0  0  0  0  0  0  0  0  0  0  0
   -5.2987    1.6359   17.4708 O   0  0  0  0  0  0  0  0  0  0  0  0
 17 18  1  0  0  0
 19 20  1  0  0  0
 11 14  1  0  0  0
 12 14  2  0  0  0
 13 14  2  0  0  0
  1  5  2  0  0  0
  1  6  1  0  0  0
  2  7  1  0  0  0
  2  8  2  0  0  0
  3  4  1  0  0  0
  3  5  1  0  0  0
  4 10  1  0  0  0
 18  6  1  0  0  0
 20  7  1  0  0  0
  5  8  1  0  0  0
  6  7  2  0  0  0
  8  9  1  0  0  0
  9 10  1  0  0  0
 10 14  1  0  0  0
 11 15  1  0  0  0
 11 16  1  0  0  0
M  END
> <minimizedAffinity>
-5.82322

$$$$
3IGP_DT7_A_263


 20 21  0  0  0  0  0  0  0  0999 V2000
   -4.1664    2.4229   15.2834 C   0  0  0  0  0  0  0  0  0  0  0  0
   -3.8004    1.8393   12.5925 C   0  0  0  0  0  0  0  0  0  0  0  0
   -3.5355    4.7583   14.9685 C   0  0  0  0  0  0  0  0  0  0  0  0
   -3.8349    5.8469   13.9606 C   0  0  0  0  0  0  0  0  0  0  0  0
   -3.7580    3.4110   14.3847 C   0  0  0  0  0  0  0  0  0  0  0  0
   -4.3913    1.1312   14.8255 C   0  0  0  0  0  0  0  0  0  0  0  0
   -4.2105    0.8452   13.4785 C   0  0  0  0  0  0  0  0  0  0  0  0
   -3.5747    3.1241   13.0351 C   0  0  0  0  0  0  0  0  0  0  0  0
   -3.0896    4.2290   12.0595 C   0  0  0  0  0  0  0  0  0  0  0  0
   -3.5975    5.5443   12.5156 N   0  0  0  0  0  0  0  0  0  0  0  0
   -4.3350    7.8141   11.1975 N   0  0  0  0  0  0  0  0  0  0  0  0
   -2.3948    7.6164   12.7401 O   0  0  0  0  0  0  0  0  0  0  0  0
   -2.3302    6.4791   10.4834 O   0  0  0  0  0  0  0  0  0  0  0  0
   -3.1188    6.9162   11.6752 S   0  0  0  0  0  0  0  0  0  0  0  0
   -3.9802    8.6280   10.6955 H   0  0  0  0  0  0  0  0  0  0  0  0
   -4.8699    8.1220   12.0096 H   0  0  0  0  0  0  0  0  0  0  0  0
   -5.5760    0.6658   16.7902 C   0  0  0  0  0  0  0  0  0  0  0  0
   -4.8033    0.1391   15.6850 O   0  0  0  0  0  0  0  0  0  0  0  0
   -4.1003   -0.5995   11.6478 C   0  0  0  0  0  0  0  0  0  0  0  0
   -4.4383   -0.4263   13.0334 O   0  0  0  0  0  0  0  0  0  0  0  0
 17 18  1  0  0  0
 19 20  1  0  0  0
 11 14  1  0  0  0
 12 14  2  0  0  0
 13 14  2  0  0  0
  1  5  2  0  0  0
  1  6  1  0  0  0
  2  7  1  0  0  0
  2  8  2  0  0  0
  3  4  1  0  0  0
  3  5  1  0  0  0
  4 10  1  0  0  0
 18  6  1  0  0  0
 20  7  1  0  0  0
  5  8  1  0  0  0
  6  7  2  0  0  0
  8  9  1  0  0  0
  9 10  1  0  0  0
 10 14  1  0  0  0
 11 15  1  0  0  0
 11 16  1  0  0  0
M  END
> <minimizedAffinity>
-5.74875

$$$$
3IGP_DT7_A_263


 20 21  0  0  0  0  0  0  0  0999 V2000
   -5.8602    6.2443   12.5164 C   0  0  0  0  0  0  0  0  0  0  0  0
   -3.6514    4.7562   11.7282 C   0  0  0  0  0  0  0  0  0  0  0  0
   -6.3953    4.6879   14.3170 C   0  0  0  0  0  0  0  0  0  0  0  0
   -5.6245    3.9438   15.3861 C   0  0  0  0  0  0  0  0  0  0  0  0
   -5.5114    5.0694   13.1862 C   0  0  0  0  0  0  0  0  0  0  0  0
   -5.0930    6.6735   11.4412 C   0  0  0  0  0  0  0  0  0  0  0  0
   -3.9873    5.9279   11.0533 C   0  0  0  0  0  0  0  0  0  0  0  0
   -4.4047    4.3209   12.7962 C   0  0  0  0  0  0  0  0  0  0  0  0
   -4.0534    3.0016   13.5337 C   0  0  0  0  0  0  0  0  0  0  0  0
   -4.4609    3.1099   14.9543 N   0  0  0  0  0  0  0  0  0  0  0  0
   -5.1869    1.8061   17.2361 N   0  0  0  0  0  0  0  0  0  0  0  0
   -4.7794    0.7260   15.0337 O   0  0  0  0  0  0  0  0  0  0  0  0
   -2.8409    1.6792   16.3466 O   0  0  0  0  0  0  0  0  0  0  0  0
   -4.2762    1.7631   15.9391 S   0  0  0  0  0  0  0  0  0  0  0  0
   -5.0295    0.9643   17.7901 H   0  0  0  0  0  0  0  0  0  0  0  0
   -6.1680    1.8537   16.9612 H   0  0  0  0  0  0  0  0  0  0  0  0
   -6.8197    8.1355   10.8405 C   0  0  0  0  0  0  0  0  0  0  0  0
   -5.4061    7.8316   10.7679 O   0  0  0  0  0  0  0  0  0  0  0  0
   -3.4168    5.5563    8.8201 C   0  0  0  0  0  0  0  0  0  0  0  0
   -3.2336    6.3581    9.9980 O   0  0  0  0  0  0  0  0  0  0  0  0
 17 18  1  0  0  0
 19 20  1  0  0  0
 11 14  1  0  0  0
 12 14  2  0  0  0
 13 14  2  0  0  0
  1  5  2  0  0  0
  1  6  1  0  0  0
  2  7  1  0  0  0
  2  8  2  0  0  0
  3  4  1  0  0  0
  3  5  1  0  0  0
  4 10  1  0  0  0
 18  6  1  0  0  0
 20  7  1  0  0  0
  5  8  1  0  0  0
  6  7  2  0  0  0
  8  9  1  0  0  0
  9 10  1  0  0  0
 10 14  1  0  0  0
 11 15  1  0  0  0
 11 16  1  0  0  0
M  END
> <minimizedAffinity>
-5.71259

$$$$
