3IGP_DT7_A_263
  RCSB PDB12061709043D
Coordinates from PDB:3IGP:A:263 Model:1 without hydrogens
 18 19  0  0  0  0            999 V2000
   -4.0610    7.2340   11.1240   C 0  0  0  0  0  0  0  0  0  0  0  0
   -0.2620    4.3570   12.5330   C 0  0  0  0  0  0  0  0  0  0  0  0
   -5.2910   -0.4010   16.1810   N 0  0  0  0  0  0  0  0  0  0  0  0
   -5.2360    1.2140   18.0710   O 0  0  0  0  0  0  0  0  0  0  0  0
   -7.3450    0.9480   16.7030   O 0  0  0  0  0  0  0  0  0  0  0  0
   -4.7030    5.5210   13.2720   C 0  0  0  0  0  0  0  0  0  0  0  0
   -2.5690    3.8940   13.9890   C 0  0  0  0  0  0  0  0  0  0  0  0
   -6.3290    4.0080   14.2810   C 0  0  0  0  0  0  0  0  0  0  0  0
   -6.4400    3.2210   15.5690   C 0  0  0  0  0  0  0  0  0  0  0  0
   -3.1710    7.0700   12.2540   O 0  0  0  0  0  0  0  0  0  0  0  0
   -1.0760    5.4600   12.9630   O 0  0  0  0  0  0  0  0  0  0  0  0
   -4.9130    4.3290   13.9690   C 0  0  0  0  0  0  0  0  0  0  0  0
   -3.4100    5.8970   12.9320   C 0  0  0  0  0  0  0  0  0  0  0  0
   -2.3460    5.0820   13.2960   C 0  0  0  0  0  0  0  0  0  0  0  0
   -3.8470    3.5110   14.3320   C 0  0  0  0  0  0  0  0  0  0  0  0
   -4.1050    2.1750   15.0780   C 0  0  0  0  0  0  0  0  0  0  0  0
   -5.3080    2.3140   15.9320   N 0  0  0  0  0  0  0  0  0  0  0  0
   -5.8520    0.9620   16.7650   S 0  0  0  0  0  0  0  0  0  0  0  0
  1 10  1  0  0  0  0
  2 11  1  0  0  0  0
  3 18  1  0  0  0  0
  4 18  2  0  0  0  0
  5 18  2  0  0  0  0
  6 12  2  0  0  0  0
  6 13  1  0  0  0  0
  7 14  1  0  0  0  0
  7 15  2  0  0  0  0
  8  9  1  0  0  0  0
  8 12  1  0  0  0  0
  9 17  1  0  0  0  0
 10 13  1  0  0  0  0
 11 14  1  0  0  0  0
 12 15  1  0  0  0  0
 13 14  2  0  0  0  0
 15 16  1  0  0  0  0
 16 17  1  0  0  0  0
 17 18  1  0  0  0  0
A    1
CAA
A    2
CAB
A    3
NAD
A    4
OAE
A    5
OAF
A    6
CAG
A    7
CAH
A    8
CAI
A    9
CAJ
A   10
OAK
A   11
OAL
A   12
CAM
A   13
CAN
A   14
CAO
A   15
CAP
A   16
CAQ
A   17
NAR
A   18
SAS
M  END
>  <InstanceId>
3IGP_DT7_A_263

>  <ChemCompId>
DT7

>  <PdbId>
3IGP

>  <ChainId>
A

>  <ResidueNumber>
263

>  <InsertionCode>


>  <Model>
1

>  <AltIds>


>  <MissingHeavyAtoms>
0

>  <ObservedFormula>
C11 N2 O4 S

>  <Name>
6,7-dimethoxy-3,4-dihydroisoquinoline-2(1H)-sulfonamide

>  <SystematicName>
(2R)-6,7-dimethoxy-3,4-dihydro-1H-isoquinoline-2-sulfonamide

>  <Synonyms>


>  <Type>
NON-POLYMER

>  <Formula>
C11 H16 N2 O4 S

>  <MolecularWeight>
272.321

>  <ModifiedDate>
2011-06-04

>  <Parent>


>  <OneLetterCode>


>  <SubcomponentList>


>  <AmbiguousFlag>
N

>  <InChI>
InChI=1S/C11H16N2O4S/c1-16-10-5-8-3-4-13(18(12,14)15)7-9(8)6-11(10)17-2/h5-6H,3-4,7H2,1-2H3,(H2,12,14,15)

>  <InChIKey>
YDCHIXAESCPAOW-UHFFFAOYSA-N

>  <SMILES>
COc1cc2c(cc1OC)C[N@@](CC2)S(=O)(=O)N

$$$$
