4RRA_A3T_A_201
  RCSB PDB12061714413D
Coordinates from PDB:4RRA:A:201 Model:1 without hydrogens
 26 28  0  0  0  0            999 V2000
   11.9970   -3.1810   -3.8830   C 0  0  0  0  0  0  0  0  0  0  0  0
    9.8250   -3.6250   -2.8400   N 0  0  0  0  0  0  0  0  0  0  0  0
   11.9820   -1.8440   -3.5440   O 0  0  0  0  0  0  0  0  0  0  0  0
   17.1530    0.4620    0.5100   N 0  0  0  0  0  0  0  0  0  0  0  0
   16.1680   -0.5100    0.6500   C 0  0  0  0  0  0  0  0  0  0  0  0
   16.0760   -1.5700   -0.2970   N 0  0  0  0  0  0  0  0  0  0  0  0
   16.9990   -1.5570   -1.3060   C 0  0  0  0  0  0  0  0  0  0  0  0
   17.9450   -0.5900   -1.4060   C 0  0  0  0  0  0  0  0  0  0  0  0
   18.0130    0.4330   -0.4980   C 0  0  0  0  0  0  0  0  0  0  0  0
   18.9420    1.3810   -0.5550   N 0  0  0  0  0  0  0  0  0  0  0  0
   18.6780   -0.8920   -2.4910   N 0  0  0  0  0  0  0  0  0  0  0  0
   18.1830   -2.0070   -3.0530   C 0  0  0  0  0  0  0  0  0  0  0  0
   13.1030   -3.9590   -4.0290   N 0  0  0  0  0  0  0  0  0  0  0  0
   17.1280   -2.4310   -2.3270   N 0  0  0  0  0  0  0  0  0  0  0  0
   10.6350   -3.8600   -4.0920   C 0  0  0  0  0  0  0  0  0  0  0  0
    9.9210   -3.3810   -5.4060   C 0  0  0  0  0  0  0  0  0  0  0  0
    9.1040   -4.4680   -5.9760   O 0  0  0  0  0  0  0  0  0  0  0  0
   16.3580   -3.7260   -2.6070   C 0  0  0  0  0  0  0  0  0  0  0  0
   14.8620   -3.8020   -2.4350   C 0  0  0  0  0  0  0  0  0  0  0  0
   14.4260   -5.1980   -2.0430   O 0  0  0  0  0  0  0  0  0  0  0  0
   14.4160   -3.3860   -3.8090   C 0  0  0  0  0  0  0  0  0  0  0  0
   15.4570   -3.9490   -4.7560   C 0  0  0  0  0  0  0  0  0  0  0  0
   16.6440   -4.1970   -3.9250   O 0  0  0  0  0  0  0  0  0  0  0  0
   15.7340   -2.8230   -5.7590   C 0  0  0  0  0  0  0  0  0  0  0  0
   17.0780   -2.9770   -6.2040   O 0  0  0  0  0  0  0  0  0  0  0  0
   10.9120   -2.8440   -6.4750   C 0  0  0  0  0  0  0  0  0  0  0  0
  1  3  2  0  0  0  0
  1 13  1  0  0  0  0
  1 15  1  0  0  0  0
  2 15  1  0  0  0  0
  4  5  2  0  0  0  0
  4  9  1  0  0  0  0
  5  6  1  0  0  0  0
  6  7  2  0  0  0  0
  7  8  1  0  0  0  0
  7 14  1  0  0  0  0
  8  9  2  0  0  0  0
  8 11  1  0  0  0  0
  9 10  1  0  0  0  0
 11 12  2  0  0  0  0
 12 14  1  0  0  0  0
 13 21  1  0  0  0  0
 14 18  1  0  0  0  0
 15 16  1  0  0  0  0
 16 17  1  0  0  0  0
 16 26  1  0  0  0  0
 18 19  1  0  0  0  0
 18 23  1  0  0  0  0
 19 20  1  0  0  0  0
 19 21  1  0  0  0  0
 21 22  1  0  0  0  0
 22 23  1  0  0  0  0
 22 24  1  0  0  0  0
 24 25  1  0  0  0  0
A    1
C
A    2
N
A    3
O
A    4
N1
A    5
C2
A    6
N3
A    7
C4
A    8
C5
A    9
C6
A   10
N6
A   11
N7
A   12
C8
A   13
N8
A   14
N9
A   15
CA
A   16
CB
A   17
OG
A   18
C1'
A   19
C2'
A   20
O2'
A   21
C3'
A   22
C4'
A   23
O4'
A   24
C5'
A   25
O5'
A   26
CG2
M  END
>  <InstanceId>
4RRA_A3T_A_201

>  <ChemCompId>
A3T

>  <PdbId>
4RRA

>  <ChainId>
A

>  <ResidueNumber>
201

>  <InsertionCode>


>  <Model>
1

>  <AltIds>


>  <MissingHeavyAtoms>
0

>  <ObservedFormula>
C14 N7 O5

>  <Name>
3'-deoxy-3'-(L-threonylamino)adenosine

>  <SystematicName>
(2S,3R)-N-[(2S,3S,4R,5R)-5-(6-aminopurin-9-yl)-4-hydroxy-2-(hydroxymethyl)oxolan-3-yl]-2-azanyl-3-hydroxy-butanamide

>  <Synonyms>


>  <Type>
NON-POLYMER

>  <Formula>
C14 H21 N7 O5

>  <MolecularWeight>
367.36

>  <ModifiedDate>
2011-06-04

>  <Parent>


>  <OneLetterCode>


>  <SubcomponentList>


>  <AmbiguousFlag>
N

>  <InChI>
InChI=1S/C14H21N7O5/c1-5(23)7(15)13(25)20-8-6(2-22)26-14(10(8)24)21-4-19-9-11(16)17-3-18-12(9)21/h3-8,10,14,22-24H,2,15H2,1H3,(H,20,25)(H2,16,17,18)/t5-,6-,7+,8-,10-,14-/m1/s1

>  <InChIKey>
JYCQZCJEBNTMCV-JHJLZTHQSA-N

>  <SMILES>
C[C@H]([C@@H](C(=O)N[C@@H]1[C@H](O[C@H]([C@@H]1O)n2cnc3c2ncnc3N)CO)N)O

$$$$
