3HKY_IX6_A_579


 43 47  0  0  0  0  0  0  0  0999 V2000
  -21.1514   -6.7253   30.1527 C   0  0  0  0  0  0  0  0  0  0  0  0
  -21.3797   -7.7777   29.3247 C   0  0  0  0  0  0  0  0  0  0  0  0
  -22.6485   -7.9695   28.8199 C   0  0  0  0  0  0  0  0  0  0  0  0
  -23.7173   -7.0892   29.1202 C   0  0  0  0  0  0  0  0  0  0  0  0
  -23.4777   -6.0440   29.9875 C   0  0  0  0  0  0  0  0  0  0  0  0
  -22.1789   -5.8652   30.4618 C   0  0  0  0  0  0  0  0  0  0  0  0
  -26.0813   -7.4979   29.6352 C   0  0  0  0  0  0  0  0  0  0  0  0
  -26.3655   -3.7369   30.8896 C   0  0  0  0  0  0  0  0  0  0  0  0
  -27.7368   -4.5066   32.8497 C   0  0  0  0  0  0  0  0  0  0  0  0
  -21.9424   -4.8371   31.2818 O   0  0  0  0  0  0  0  0  0  0  0  0
  -25.1632   -7.4083   27.2475 C   0  0  0  0  0  0  0  0  0  0  0  0
  -25.0143   -7.3551   28.6227 N   0  0  0  0  0  0  0  0  0  0  0  0
  -26.1415   -8.0295   26.9029 O   0  0  0  0  0  0  0  0  0  0  0  0
  -26.5469   -6.1152   30.0369 C   0  0  0  0  0  0  0  0  0  0  0  0
  -28.2669   -5.8977   29.9178 S   0  0  0  0  0  0  0  0  0  0  0  0
  -28.8345   -6.9491   30.7220 O   0  0  0  0  0  0  0  0  0  0  0  0
  -28.5560   -5.9511   28.5052 O   0  0  0  0  0  0  0  0  0  0  0  0
  -28.7526   -4.2914   30.5402 C   0  0  0  0  0  0  0  0  0  0  0  0
  -27.7523   -3.7042   31.5507 C   0  0  0  0  0  0  0  0  0  0  0  0
  -28.1274   -2.2474   31.8146 C   0  0  0  0  0  0  0  0  0  0  0  0
  -25.7860   -5.0628   30.4078 C   0  0  0  0  0  0  0  0  0  0  0  0
  -24.3970   -5.0621   30.3769 N   0  0  0  0  0  0  0  0  0  0  0  0
  -21.0787   -4.6931   31.6156 H   0  0  0  0  0  0  0  0  0  0  0  0
  -23.9860   -4.2216   30.6832 H   0  0  0  0  0  0  0  0  0  0  0  0
  -25.5225   -7.9514   32.1071 C   0  0  0  0  0  0  0  0  0  0  0  0
  -25.5967   -8.3826   30.7882 C   0  0  0  0  0  0  0  0  0  0  0  0
  -25.0670   -8.7863   33.0960 C   0  0  0  0  0  0  0  0  0  0  0  0
  -24.6630  -10.0808   32.7924 C   0  0  0  0  0  0  0  0  0  0  0  0
  -25.1671   -9.6707   30.4929 C   0  0  0  0  0  0  0  0  0  0  0  0
  -25.2102  -10.1085   29.2458 F   0  0  0  0  0  0  0  0  0  0  0  0
  -24.6994  -10.5046   31.4709 C   0  0  0  0  0  0  0  0  0  0  0  0
  -24.1996  -10.9438   33.7372 O   0  0  0  0  0  0  0  0  0  0  0  0
  -24.2737  -10.7698   35.1439 C   0  0  0  0  0  0  0  0  0  0  0  0
  -26.1838  -10.3048   36.6794 C   0  0  0  0  0  0  0  0  0  0  0  0
  -25.6623  -11.0420   35.6826 C   0  0  0  0  0  0  0  0  0  0  0  0
  -26.5032  -12.1375   35.0994 C   0  0  0  0  0  0  0  0  0  0  0  0
  -24.2855   -6.8699   26.1948 C   0  0  0  0  0  0  0  0  0  0  0  0
  -24.0845   -5.5548   25.8630 C   0  0  0  0  0  0  0  0  0  0  0  0
  -22.9216   -6.6426   24.6369 C   0  0  0  0  0  0  0  0  0  0  0  0
  -21.9267   -6.9324   23.5360 C   0  0  0  0  0  0  0  0  0  0  0  0
  -24.7403   -4.3472   26.4768 C   0  0  0  0  0  0  0  0  0  0  0  0
  -23.5066   -7.5884   25.3936 N   0  0  0  0  0  0  0  0  0  0  0  0
  -23.2922   -5.5090   24.9352 O   0  0  0  0  0  0  0  0  0  0  0  0
  1  2  2  0  0  0
  1  6  1  0  0  0
  2  3  1  0  0  0
  3  4  2  0  0  0
  4  5  1  0  0  0
  4 12  1  0  0  0
  5  6  2  0  0  0
  5 22  1  0  0  0
  6 10  1  0  0  0
  7 26  1  0  0  0
  7 12  1  0  0  0
  7 14  1  0  0  0
  8 19  1  0  0  0
  8 21  1  0  0  0
 25 26  2  0  0  0
 25 27  1  0  0  0
 26 29  1  0  0  0
 27 28  2  0  0  0
 28 31  1  0  0  0
 28 32  1  0  0  0
 29 30  1  0  0  0
 29 31  2  0  0  0
  9 19  1  0  0  0
 34 35  2  0  0  0
 11 37  1  0  0  0
 11 12  1  0  0  0
 11 13  2  0  0  0
 37 38  2  0  0  0
 37 42  1  0  0  0
 38 41  1  0  0  0
 38 43  1  0  0  0
 39 40  1  0  0  0
 39 42  2  0  0  0
 39 43  1  0  0  0
 32 33  1  0  0  0
 33 35  1  0  0  0
 35 36  1  0  0  0
 14 15  1  0  0  0
 14 21  2  0  0  0
 15 16  2  0  0  0
 15 17  2  0  0  0
 15 18  1  0  0  0
 18 19  1  0  0  0
 19 20  1  0  0  0
 21 22  1  0  0  0
 10 23  1  0  0  0
 22 24  1  0  0  0
M  END
> <minimizedAffinity>
-10.78086

$$$$
3HKY_IX6_A_579


 43 47  0  0  0  0  0  0  0  0999 V2000
  -27.9685   -5.6671   30.4696 C   0  0  0  0  0  0  0  0  0  0  0  0
  -27.3469   -5.2430   31.6005 C   0  0  0  0  0  0  0  0  0  0  0  0
  -25.9723   -5.1342   31.6084 C   0  0  0  0  0  0  0  0  0  0  0  0
  -25.1889   -5.4299   30.4654 C   0  0  0  0  0  0  0  0  0  0  0  0
  -25.8316   -5.8899   29.3352 C   0  0  0  0  0  0  0  0  0  0  0  0
  -27.2235   -5.9665   29.3531 C   0  0  0  0  0  0  0  0  0  0  0  0
  -23.0453   -6.5953   30.2049 C   0  0  0  0  0  0  0  0  0  0  0  0
  -23.7304   -6.7927   26.2945 C   0  0  0  0  0  0  0  0  0  0  0  0
  -22.8898   -9.1608   26.2787 C   0  0  0  0  0  0  0  0  0  0  0  0
  -27.8468   -6.3879   28.2489 O   0  0  0  0  0  0  0  0  0  0  0  0
  -23.2274   -4.1271   30.8587 C   0  0  0  0  0  0  0  0  0  0  0  0
  -23.7783   -5.3553   30.5356 N   0  0  0  0  0  0  0  0  0  0  0  0
  -22.1067   -4.2156   31.3037 O   0  0  0  0  0  0  0  0  0  0  0  0
  -22.9391   -6.7002   28.6990 C   0  0  0  0  0  0  0  0  0  0  0  0
  -21.3154   -6.9468   28.1310 S   0  0  0  0  0  0  0  0  0  0  0  0
  -20.8512   -8.1226   28.8211 O   0  0  0  0  0  0  0  0  0  0  0  0
  -20.6212   -5.7180   28.4309 O   0  0  0  0  0  0  0  0  0  0  0  0
  -21.2895   -7.2001   26.3594 C   0  0  0  0  0  0  0  0  0  0  0  0
  -22.6203   -7.7351   25.8033 C   0  0  0  0  0  0  0  0  0  0  0  0
  -22.5707   -7.6694   24.2782 C   0  0  0  0  0  0  0  0  0  0  0  0
  -23.9296   -6.5700   27.7900 C   0  0  0  0  0  0  0  0  0  0  0  0
  -25.2311   -6.2040   28.1097 N   0  0  0  0  0  0  0  0  0  0  0  0
  -28.7816   -6.4491   28.2330 H   0  0  0  0  0  0  0  0  0  0  0  0
  -25.8396   -6.1572   27.3372 H   0  0  0  0  0  0  0  0  0  0  0  0
  -24.2016   -8.8956   30.2124 C   0  0  0  0  0  0  0  0  0  0  0  0
  -23.7019   -7.7943   30.8966 C   0  0  0  0  0  0  0  0  0  0  0  0
  -24.7917   -9.9347   30.8866 C   0  0  0  0  0  0  0  0  0  0  0  0
  -24.9070   -9.8993   32.2710 C   0  0  0  0  0  0  0  0  0  0  0  0
  -23.8447   -7.7588   32.2785 C   0  0  0  0  0  0  0  0  0  0  0  0
  -23.3936   -6.7191   32.9597 F   0  0  0  0  0  0  0  0  0  0  0  0
  -24.4435   -8.7847   32.9565 C   0  0  0  0  0  0  0  0  0  0  0  0
  -25.4883  -10.9028   32.9833 O   0  0  0  0  0  0  0  0  0  0  0  0
  -25.0716  -11.3844   34.2518 C   0  0  0  0  0  0  0  0  0  0  0  0
  -27.0065  -12.7440   35.0456 C   0  0  0  0  0  0  0  0  0  0  0  0
  -26.2408  -11.6461   35.1775 C   0  0  0  0  0  0  0  0  0  0  0  0
  -26.5637  -10.6883   36.2846 C   0  0  0  0  0  0  0  0  0  0  0  0
  -23.8315   -2.7865   30.7804 C   0  0  0  0  0  0  0  0  0  0  0  0
  -24.1783   -2.0883   29.6525 C   0  0  0  0  0  0  0  0  0  0  0  0
  -24.6735   -0.9328   31.2204 C   0  0  0  0  0  0  0  0  0  0  0  0
  -25.2082    0.2691   31.9656 C   0  0  0  0  0  0  0  0  0  0  0  0
  -23.9931   -2.5147   28.2210 C   0  0  0  0  0  0  0  0  0  0  0  0
  -24.1713   -2.0287   31.8173 N   0  0  0  0  0  0  0  0  0  0  0  0
  -24.6434   -1.0124   29.9940 O   0  0  0  0  0  0  0  0  0  0  0  0
  1  2  2  0  0  0
  1  6  1  0  0  0
  2  3  1  0  0  0
  3  4  2  0  0  0
  4  5  1  0  0  0
  4 12  1  0  0  0
  5  6  2  0  0  0
  5 22  1  0  0  0
  6 10  1  0  0  0
  7 26  1  0  0  0
  7 12  1  0  0  0
  7 14  1  0  0  0
  8 19  1  0  0  0
  8 21  1  0  0  0
 25 26  2  0  0  0
 25 27  1  0  0  0
 26 29  1  0  0  0
 27 28  2  0  0  0
 28 31  1  0  0  0
 28 32  1  0  0  0
 29 30  1  0  0  0
 29 31  2  0  0  0
  9 19  1  0  0  0
 34 35  2  0  0  0
 11 37  1  0  0  0
 11 12  1  0  0  0
 11 13  2  0  0  0
 37 38  2  0  0  0
 37 42  1  0  0  0
 38 41  1  0  0  0
 38 43  1  0  0  0
 39 40  1  0  0  0
 39 42  2  0  0  0
 39 43  1  0  0  0
 32 33  1  0  0  0
 33 35  1  0  0  0
 35 36  1  0  0  0
 14 15  1  0  0  0
 14 21  2  0  0  0
 15 16  2  0  0  0
 15 17  2  0  0  0
 15 18  1  0  0  0
 18 19  1  0  0  0
 19 20  1  0  0  0
 21 22  1  0  0  0
 10 23  1  0  0  0
 22 24  1  0  0  0
M  END
> <minimizedAffinity>
-9.29852

$$$$
3HKY_IX6_A_579


 43 47  0  0  0  0  0  0  0  0999 V2000
  -25.7184   -8.9153   28.3583 C   0  0  0  0  0  0  0  0  0  0  0  0
  -24.7335   -9.3758   29.1727 C   0  0  0  0  0  0  0  0  0  0  0  0
  -24.0901   -8.4907   30.0118 C   0  0  0  0  0  0  0  0  0  0  0  0
  -24.4400   -7.1188   30.0672 C   0  0  0  0  0  0  0  0  0  0  0  0
  -25.4197   -6.6602   29.2117 C   0  0  0  0  0  0  0  0  0  0  0  0
  -26.0658   -7.5852   28.3927 C   0  0  0  0  0  0  0  0  0  0  0  0
  -23.0767   -5.0856   30.2354 C   0  0  0  0  0  0  0  0  0  0  0  0
  -26.2927   -2.9575   29.2719 C   0  0  0  0  0  0  0  0  0  0  0  0
  -24.8817   -1.5328   27.7573 C   0  0  0  0  0  0  0  0  0  0  0  0
  -27.0325   -7.1440   27.5826 O   0  0  0  0  0  0  0  0  0  0  0  0
  -23.7198   -6.5122   32.2611 C   0  0  0  0  0  0  0  0  0  0  0  0
  -23.7170   -6.2374   30.9043 N   0  0  0  0  0  0  0  0  0  0  0  0
  -22.7883   -6.0100   32.8457 O   0  0  0  0  0  0  0  0  0  0  0  0
  -24.1189   -4.0057   30.0416 C   0  0  0  0  0  0  0  0  0  0  0  0
  -23.6365   -2.4540   30.6578 S   0  0  0  0  0  0  0  0  0  0  0  0
  -22.3846   -2.1648   30.0074 O   0  0  0  0  0  0  0  0  0  0  0  0
  -23.5859   -2.6173   32.0905 O   0  0  0  0  0  0  0  0  0  0  0  0
  -24.8568   -1.2041   30.2680 C   0  0  0  0  0  0  0  0  0  0  0  0
  -25.7124   -1.5539   29.0383 C   0  0  0  0  0  0  0  0  0  0  0  0
  -26.8697   -0.5608   28.9536 C   0  0  0  0  0  0  0  0  0  0  0  0
  -25.3545   -4.1357   29.5120 C   0  0  0  0  0  0  0  0  0  0  0  0
  -25.9151   -5.3522   29.1434 N   0  0  0  0  0  0  0  0  0  0  0  0
  -27.4834   -7.7438   27.0214 H   0  0  0  0  0  0  0  0  0  0  0  0
  -26.8221   -5.2823   28.7671 H   0  0  0  0  0  0  0  0  0  0  0  0
  -22.7256   -5.1118   27.6849 C   0  0  0  0  0  0  0  0  0  0  0  0
  -22.3709   -5.5467   28.9561 C   0  0  0  0  0  0  0  0  0  0  0  0
  -22.0643   -5.5710   26.5739 C   0  0  0  0  0  0  0  0  0  0  0  0
  -21.0289   -6.4890   26.7015 C   0  0  0  0  0  0  0  0  0  0  0  0
  -21.3504   -6.4831   29.0693 C   0  0  0  0  0  0  0  0  0  0  0  0
  -20.9971   -6.9296   30.2629 F   0  0  0  0  0  0  0  0  0  0  0  0
  -20.6952   -6.9556   27.9657 C   0  0  0  0  0  0  0  0  0  0  0  0
  -20.3468   -6.9770   25.6296 O   0  0  0  0  0  0  0  0  0  0  0  0
  -20.3560   -8.3188   25.1669 C   0  0  0  0  0  0  0  0  0  0  0  0
  -22.5172   -8.4771   23.9314 C   0  0  0  0  0  0  0  0  0  0  0  0
  -21.7612   -8.8506   24.9792 C   0  0  0  0  0  0  0  0  0  0  0  0
  -22.3409   -9.8292   25.9557 C   0  0  0  0  0  0  0  0  0  0  0  0
  -24.6483   -7.3492   33.0392 C   0  0  0  0  0  0  0  0  0  0  0  0
  -25.9784   -7.1217   33.2824 C   0  0  0  0  0  0  0  0  0  0  0  0
  -25.5163   -8.8570   34.1847 C   0  0  0  0  0  0  0  0  0  0  0  0
  -25.7222  -10.1169   34.9947 C   0  0  0  0  0  0  0  0  0  0  0  0
  -26.7997   -5.9417   32.8372 C   0  0  0  0  0  0  0  0  0  0  0  0
  -24.3459   -8.5031   33.6240 N   0  0  0  0  0  0  0  0  0  0  0  0
  -26.4051   -8.0348   33.9714 O   0  0  0  0  0  0  0  0  0  0  0  0
  1  2  2  0  0  0
  1  6  1  0  0  0
  2  3  1  0  0  0
  3  4  2  0  0  0
  4  5  1  0  0  0
  4 12  1  0  0  0
  5  6  2  0  0  0
  5 22  1  0  0  0
  6 10  1  0  0  0
  7 26  1  0  0  0
  7 12  1  0  0  0
  7 14  1  0  0  0
  8 19  1  0  0  0
  8 21  1  0  0  0
 25 26  2  0  0  0
 25 27  1  0  0  0
 26 29  1  0  0  0
 27 28  2  0  0  0
 28 31  1  0  0  0
 28 32  1  0  0  0
 29 30  1  0  0  0
 29 31  2  0  0  0
  9 19  1  0  0  0
 34 35  2  0  0  0
 11 37  1  0  0  0
 11 12  1  0  0  0
 11 13  2  0  0  0
 37 38  2  0  0  0
 37 42  1  0  0  0
 38 41  1  0  0  0
 38 43  1  0  0  0
 39 40  1  0  0  0
 39 42  2  0  0  0
 39 43  1  0  0  0
 32 33  1  0  0  0
 33 35  1  0  0  0
 35 36  1  0  0  0
 14 15  1  0  0  0
 14 21  2  0  0  0
 15 16  2  0  0  0
 15 17  2  0  0  0
 15 18  1  0  0  0
 18 19  1  0  0  0
 19 20  1  0  0  0
 21 22  1  0  0  0
 10 23  1  0  0  0
 22 24  1  0  0  0
M  END
> <minimizedAffinity>
-9.06474

$$$$
3HKY_IX6_A_579


 43 47  0  0  0  0  0  0  0  0999 V2000
  -25.5623   -9.2469   28.0969 C   0  0  0  0  0  0  0  0  0  0  0  0
  -24.6568   -9.6298   29.0343 C   0  0  0  0  0  0  0  0  0  0  0  0
  -23.9489   -8.6625   29.7160 C   0  0  0  0  0  0  0  0  0  0  0  0
  -24.1531   -7.2796   29.4847 C   0  0  0  0  0  0  0  0  0  0  0  0
  -25.0523   -6.9072   28.5076 C   0  0  0  0  0  0  0  0  0  0  0  0
  -25.7676   -7.9091   27.8533 C   0  0  0  0  0  0  0  0  0  0  0  0
  -22.5877   -5.3970   29.3215 C   0  0  0  0  0  0  0  0  0  0  0  0
  -25.5294   -3.1995   27.7994 C   0  0  0  0  0  0  0  0  0  0  0  0
  -23.9302   -2.2505   26.1093 C   0  0  0  0  0  0  0  0  0  0  0  0
  -26.6571   -7.5460   26.9247 O   0  0  0  0  0  0  0  0  0  0  0  0
  -23.4395   -6.3211   31.5515 C   0  0  0  0  0  0  0  0  0  0  0  0
  -23.3665   -6.3239   30.1691 N   0  0  0  0  0  0  0  0  0  0  0  0
  -22.4781   -5.8060   32.0733 O   0  0  0  0  0  0  0  0  0  0  0  0
  -23.5033   -4.2807   28.8681 C   0  0  0  0  0  0  0  0  0  0  0  0
  -22.8781   -2.6922   29.1931 S   0  0  0  0  0  0  0  0  0  0  0  0
  -21.5834   -2.6624   28.5630 O   0  0  0  0  0  0  0  0  0  0  0  0
  -22.8885   -2.5706   30.6308 O   0  0  0  0  0  0  0  0  0  0  0  0
  -23.9467   -1.4318   28.5054 C   0  0  0  0  0  0  0  0  0  0  0  0
  -24.7969   -1.9344   27.3259 C   0  0  0  0  0  0  0  0  0  0  0  0
  -25.8394   -0.8697   26.9904 C   0  0  0  0  0  0  0  0  0  0  0  0
  -24.7291   -4.3922   28.3121 C   0  0  0  0  0  0  0  0  0  0  0  0
  -25.4040   -5.5970   28.1602 N   0  0  0  0  0  0  0  0  0  0  0  0
  -27.1519   -8.1985   26.4693 H   0  0  0  0  0  0  0  0  0  0  0  0
  -26.2867   -5.5151   27.7320 H   0  0  0  0  0  0  0  0  0  0  0  0
  -22.1826   -5.9836   26.8476 C   0  0  0  0  0  0  0  0  0  0  0  0
  -21.8963   -6.1708   28.1944 C   0  0  0  0  0  0  0  0  0  0  0  0
  -21.5392   -6.7168   25.8827 C   0  0  0  0  0  0  0  0  0  0  0  0
  -20.5915   -7.6688   26.2385 C   0  0  0  0  0  0  0  0  0  0  0  0
  -20.9647   -7.1426   28.5393 C   0  0  0  0  0  0  0  0  0  0  0  0
  -20.6791   -7.3571   29.8125 F   0  0  0  0  0  0  0  0  0  0  0  0
  -20.3287   -7.8866   27.5841 C   0  0  0  0  0  0  0  0  0  0  0  0
  -19.9308   -8.4236   25.3186 O   0  0  0  0  0  0  0  0  0  0  0  0
  -20.4294   -9.5811   24.6659 C   0  0  0  0  0  0  0  0  0  0  0  0
  -22.1742   -9.0162   22.9750 C   0  0  0  0  0  0  0  0  0  0  0  0
  -20.8868   -9.2896   23.2523 C   0  0  0  0  0  0  0  0  0  0  0  0
  -19.9030   -9.2803   22.1212 C   0  0  0  0  0  0  0  0  0  0  0  0
  -24.4746   -6.8911   32.4301 C   0  0  0  0  0  0  0  0  0  0  0  0
  -25.7798   -6.4905   32.5566 C   0  0  0  0  0  0  0  0  0  0  0  0
  -25.5318   -8.0480   33.8023 C   0  0  0  0  0  0  0  0  0  0  0  0
  -25.8945   -9.0948   34.8310 C   0  0  0  0  0  0  0  0  0  0  0  0
  -26.4575   -5.3481   31.8488 C   0  0  0  0  0  0  0  0  0  0  0  0
  -24.3141   -7.9294   33.2432 N   0  0  0  0  0  0  0  0  0  0  0  0
  -26.3215   -7.2017   33.3881 O   0  0  0  0  0  0  0  0  0  0  0  0
  1  2  2  0  0  0
  1  6  1  0  0  0
  2  3  1  0  0  0
  3  4  2  0  0  0
  4  5  1  0  0  0
  4 12  1  0  0  0
  5  6  2  0  0  0
  5 22  1  0  0  0
  6 10  1  0  0  0
  7 26  1  0  0  0
  7 12  1  0  0  0
  7 14  1  0  0  0
  8 19  1  0  0  0
  8 21  1  0  0  0
 25 26  2  0  0  0
 25 27  1  0  0  0
 26 29  1  0  0  0
 27 28  2  0  0  0
 28 31  1  0  0  0
 28 32  1  0  0  0
 29 30  1  0  0  0
 29 31  2  0  0  0
  9 19  1  0  0  0
 34 35  2  0  0  0
 11 37  1  0  0  0
 11 12  1  0  0  0
 11 13  2  0  0  0
 37 38  2  0  0  0
 37 42  1  0  0  0
 38 41  1  0  0  0
 38 43  1  0  0  0
 39 40  1  0  0  0
 39 42  2  0  0  0
 39 43  1  0  0  0
 32 33  1  0  0  0
 33 35  1  0  0  0
 35 36  1  0  0  0
 14 15  1  0  0  0
 14 21  2  0  0  0
 15 16  2  0  0  0
 15 17  2  0  0  0
 15 18  1  0  0  0
 18 19  1  0  0  0
 19 20  1  0  0  0
 21 22  1  0  0  0
 10 23  1  0  0  0
 22 24  1  0  0  0
M  END
> <minimizedAffinity>
-8.54141

$$$$
3HKY_IX6_A_579


 43 47  0  0  0  0  0  0  0  0999 V2000
  -25.5241   -4.2948   27.4955 C   0  0  0  0  0  0  0  0  0  0  0  0
  -24.6745   -3.9733   28.5055 C   0  0  0  0  0  0  0  0  0  0  0  0
  -23.3844   -4.4594   28.4756 C   0  0  0  0  0  0  0  0  0  0  0  0
  -22.9103   -5.2660   27.4117 C   0  0  0  0  0  0  0  0  0  0  0  0
  -23.7937   -5.6101   26.4100 C   0  0  0  0  0  0  0  0  0  0  0  0
  -25.0836   -5.0834   26.4587 C   0  0  0  0  0  0  0  0  0  0  0  0
  -21.4771   -7.2574   27.3782 C   0  0  0  0  0  0  0  0  0  0  0  0
  -22.5647   -7.8663   23.6037 C   0  0  0  0  0  0  0  0  0  0  0  0
  -22.7839  -10.3247   24.0758 C   0  0  0  0  0  0  0  0  0  0  0  0
  -25.9309   -5.3969   25.4742 O   0  0  0  0  0  0  0  0  0  0  0  0
  -20.5574   -4.8719   27.5017 C   0  0  0  0  0  0  0  0  0  0  0  0
  -21.5956   -5.7861   27.4494 N   0  0  0  0  0  0  0  0  0  0  0  0
  -19.5356   -5.3437   27.9432 O   0  0  0  0  0  0  0  0  0  0  0  0
  -21.5729   -7.6746   25.9267 C   0  0  0  0  0  0  0  0  0  0  0  0
  -20.2610   -8.6882   25.4056 S   0  0  0  0  0  0  0  0  0  0  0  0
  -20.2586   -9.7994   26.3218 O   0  0  0  0  0  0  0  0  0  0  0  0
  -19.0951   -7.8386   25.4335 O   0  0  0  0  0  0  0  0  0  0  0  0
  -20.5170   -9.2520   23.7263 C   0  0  0  0  0  0  0  0  0  0  0  0
  -21.9977   -9.2639   23.3092 C   0  0  0  0  0  0  0  0  0  0  0  0
  -22.0761   -9.5095   21.8038 C   0  0  0  0  0  0  0  0  0  0  0  0
  -22.5054   -7.3071   25.0214 C   0  0  0  0  0  0  0  0  0  0  0  0
  -23.5008   -6.3707   25.2713 N   0  0  0  0  0  0  0  0  0  0  0  0
  -26.8040   -5.0569   25.4816 H   0  0  0  0  0  0  0  0  0  0  0  0
  -24.1084   -6.2140   24.5127 H   0  0  0  0  0  0  0  0  0  0  0  0
  -23.5566   -8.6950   27.8658 C   0  0  0  0  0  0  0  0  0  0  0  0
  -22.4988   -7.9128   28.3130 C   0  0  0  0  0  0  0  0  0  0  0  0
  -24.4485   -9.2454   28.7514 C   0  0  0  0  0  0  0  0  0  0  0  0
  -24.3126   -9.0222   30.1162 C   0  0  0  0  0  0  0  0  0  0  0  0
  -22.3872   -7.6765   29.6779 C   0  0  0  0  0  0  0  0  0  0  0  0
  -21.4010   -6.9245   30.1366 F   0  0  0  0  0  0  0  0  0  0  0  0
  -23.2799   -8.2107   30.5658 C   0  0  0  0  0  0  0  0  0  0  0  0
  -25.1742   -9.5422   31.0325 O   0  0  0  0  0  0  0  0  0  0  0  0
  -25.0440   -9.4715   32.4441 C   0  0  0  0  0  0  0  0  0  0  0  0
  -24.6674  -11.9362   32.3688 C   0  0  0  0  0  0  0  0  0  0  0  0
  -24.5602  -10.7762   33.0410 C   0  0  0  0  0  0  0  0  0  0  0  0
  -23.9276  -10.8027   34.3998 C   0  0  0  0  0  0  0  0  0  0  0  0
  -20.5580   -3.4418   27.1506 C   0  0  0  0  0  0  0  0  0  0  0  0
  -20.7705   -2.8819   25.9172 C   0  0  0  0  0  0  0  0  0  0  0  0
  -20.4721   -1.3611   27.1965 C   0  0  0  0  0  0  0  0  0  0  0  0
  -20.3288    0.0673   27.6709 C   0  0  0  0  0  0  0  0  0  0  0  0
  -21.0224   -3.6005   24.6189 C   0  0  0  0  0  0  0  0  0  0  0  0
  -20.3743   -2.4362   27.9991 N   0  0  0  0  0  0  0  0  0  0  0  0
  -20.6851   -1.6689   26.0255 O   0  0  0  0  0  0  0  0  0  0  0  0
  1  2  2  0  0  0
  1  6  1  0  0  0
  2  3  1  0  0  0
  3  4  2  0  0  0
  4  5  1  0  0  0
  4 12  1  0  0  0
  5  6  2  0  0  0
  5 22  1  0  0  0
  6 10  1  0  0  0
  7 26  1  0  0  0
  7 12  1  0  0  0
  7 14  1  0  0  0
  8 19  1  0  0  0
  8 21  1  0  0  0
 25 26  2  0  0  0
 25 27  1  0  0  0
 26 29  1  0  0  0
 27 28  2  0  0  0
 28 31  1  0  0  0
 28 32  1  0  0  0
 29 30  1  0  0  0
 29 31  2  0  0  0
  9 19  1  0  0  0
 34 35  2  0  0  0
 11 37  1  0  0  0
 11 12  1  0  0  0
 11 13  2  0  0  0
 37 38  2  0  0  0
 37 42  1  0  0  0
 38 41  1  0  0  0
 38 43  1  0  0  0
 39 40  1  0  0  0
 39 42  2  0  0  0
 39 43  1  0  0  0
 32 33  1  0  0  0
 33 35  1  0  0  0
 35 36  1  0  0  0
 14 15  1  0  0  0
 14 21  2  0  0  0
 15 16  2  0  0  0
 15 17  2  0  0  0
 15 18  1  0  0  0
 18 19  1  0  0  0
 19 20  1  0  0  0
 21 22  1  0  0  0
 10 23  1  0  0  0
 22 24  1  0  0  0
M  END
> <minimizedAffinity>
-8.31353

$$$$
3HKY_IX6_A_579


 43 47  0  0  0  0  0  0  0  0999 V2000
  -25.5198   -8.5296   28.1271 C   0  0  0  0  0  0  0  0  0  0  0  0
  -24.4944   -8.8572   28.9557 C   0  0  0  0  0  0  0  0  0  0  0  0
  -23.9738   -7.8916   29.7912 C   0  0  0  0  0  0  0  0  0  0  0  0
  -24.4907   -6.5729   29.8285 C   0  0  0  0  0  0  0  0  0  0  0  0
  -25.5103   -6.2468   28.9589 C   0  0  0  0  0  0  0  0  0  0  0  0
  -26.0287   -7.2522   28.1440 C   0  0  0  0  0  0  0  0  0  0  0  0
  -23.3901   -4.3855   29.9874 C   0  0  0  0  0  0  0  0  0  0  0  0
  -26.8334   -2.6796   28.9709 C   0  0  0  0  0  0  0  0  0  0  0  0
  -25.5927   -1.1063   27.4543 C   0  0  0  0  0  0  0  0  0  0  0  0
  -27.0337   -6.9414   27.3201 O   0  0  0  0  0  0  0  0  0  0  0  0
  -23.8741   -5.8611   32.0223 C   0  0  0  0  0  0  0  0  0  0  0  0
  -23.8908   -5.6010   30.6627 N   0  0  0  0  0  0  0  0  0  0  0  0
  -23.0178   -5.2423   32.6102 O   0  0  0  0  0  0  0  0  0  0  0  0
  -24.5554   -3.4443   29.7723 C   0  0  0  0  0  0  0  0  0  0  0  0
  -24.2744   -1.8391   30.3762 S   0  0  0  0  0  0  0  0  0  0  0  0
  -23.0608   -1.4040   29.7344 O   0  0  0  0  0  0  0  0  0  0  0  0
  -24.2193   -1.9812   31.8110 O   0  0  0  0  0  0  0  0  0  0  0  0
  -25.6352   -0.7530   29.9614 C   0  0  0  0  0  0  0  0  0  0  0  0
  -26.4280   -1.2174   28.7276 C   0  0  0  0  0  0  0  0  0  0  0  0
  -27.6979   -0.3755   28.6213 C   0  0  0  0  0  0  0  0  0  0  0  0
  -25.7598   -3.7308   29.2325 C   0  0  0  0  0  0  0  0  0  0  0  0
  -26.1623   -5.0106   28.8718 N   0  0  0  0  0  0  0  0  0  0  0  0
  -27.4014   -7.5974   26.7612 H   0  0  0  0  0  0  0  0  0  0  0  0
  -27.0670   -5.0566   28.4863 H   0  0  0  0  0  0  0  0  0  0  0  0
  -23.0070   -4.3859   27.4415 C   0  0  0  0  0  0  0  0  0  0  0  0
  -22.6194   -4.7683   28.7199 C   0  0  0  0  0  0  0  0  0  0  0  0
  -22.2826   -4.7710   26.3417 C   0  0  0  0  0  0  0  0  0  0  0  0
  -21.1483   -5.5601   26.4881 C   0  0  0  0  0  0  0  0  0  0  0  0
  -21.4974   -5.5776   28.8520 C   0  0  0  0  0  0  0  0  0  0  0  0
  -21.1089   -5.9721   30.0528 F   0  0  0  0  0  0  0  0  0  0  0  0
  -20.7776   -5.9764   27.7595 C   0  0  0  0  0  0  0  0  0  0  0  0
  -20.4004   -5.9712   25.4279 O   0  0  0  0  0  0  0  0  0  0  0  0
  -19.0663   -5.5824   25.1386 C   0  0  0  0  0  0  0  0  0  0  0  0
  -18.2584   -3.2752   25.6351 C   0  0  0  0  0  0  0  0  0  0  0  0
  -18.9535   -4.1034   24.8351 C   0  0  0  0  0  0  0  0  0  0  0  0
  -19.6042   -3.5256   23.6144 C   0  0  0  0  0  0  0  0  0  0  0  0
  -24.7007   -6.7988   32.8007 C   0  0  0  0  0  0  0  0  0  0  0  0
  -26.0270   -6.6756   33.1258 C   0  0  0  0  0  0  0  0  0  0  0  0
  -25.4024   -8.4196   33.9051 C   0  0  0  0  0  0  0  0  0  0  0  0
  -25.4795   -9.7308   34.6537 C   0  0  0  0  0  0  0  0  0  0  0  0
  -26.9475   -5.5330   32.7905 C   0  0  0  0  0  0  0  0  0  0  0  0
  -24.2910   -7.9580   33.3040 N   0  0  0  0  0  0  0  0  0  0  0  0
  -26.3536   -7.6501   33.7847 O   0  0  0  0  0  0  0  0  0  0  0  0
  1  2  2  0  0  0
  1  6  1  0  0  0
  2  3  1  0  0  0
  3  4  2  0  0  0
  4  5  1  0  0  0
  4 12  1  0  0  0
  5  6  2  0  0  0
  5 22  1  0  0  0
  6 10  1  0  0  0
  7 26  1  0  0  0
  7 12  1  0  0  0
  7 14  1  0  0  0
  8 19  1  0  0  0
  8 21  1  0  0  0
 25 26  2  0  0  0
 25 27  1  0  0  0
 26 29  1  0  0  0
 27 28  2  0  0  0
 28 31  1  0  0  0
 28 32  1  0  0  0
 29 30  1  0  0  0
 29 31  2  0  0  0
  9 19  1  0  0  0
 34 35  2  0  0  0
 11 37  1  0  0  0
 11 12  1  0  0  0
 11 13  2  0  0  0
 37 38  2  0  0  0
 37 42  1  0  0  0
 38 41  1  0  0  0
 38 43  1  0  0  0
 39 40  1  0  0  0
 39 42  2  0  0  0
 39 43  1  0  0  0
 32 33  1  0  0  0
 33 35  1  0  0  0
 35 36  1  0  0  0
 14 15  1  0  0  0
 14 21  2  0  0  0
 15 16  2  0  0  0
 15 17  2  0  0  0
 15 18  1  0  0  0
 18 19  1  0  0  0
 19 20  1  0  0  0
 21 22  1  0  0  0
 10 23  1  0  0  0
 22 24  1  0  0  0
M  END
> <minimizedAffinity>
-8.08716

$$$$
3HKY_IX6_A_579


 43 47  0  0  0  0  0  0  0  0999 V2000
  -24.5508   -7.5103   26.9530 C   0  0  0  0  0  0  0  0  0  0  0  0
  -23.5617   -7.7700   27.8471 C   0  0  0  0  0  0  0  0  0  0  0  0
  -23.5540   -7.0979   29.0512 C   0  0  0  0  0  0  0  0  0  0  0  0
  -24.5594   -6.1604   29.3943 C   0  0  0  0  0  0  0  0  0  0  0  0
  -25.5388   -5.8839   28.4636 C   0  0  0  0  0  0  0  0  0  0  0  0
  -25.5305   -6.5973   27.2658 C   0  0  0  0  0  0  0  0  0  0  0  0
  -24.4532   -3.9814   30.5177 C   0  0  0  0  0  0  0  0  0  0  0  0
  -28.1819   -3.2874   29.3283 C   0  0  0  0  0  0  0  0  0  0  0  0
  -27.5459   -0.9257   28.7517 C   0  0  0  0  0  0  0  0  0  0  0  0
  -26.4947   -6.3470   26.3753 O   0  0  0  0  0  0  0  0  0  0  0  0
  -24.4875   -6.2079   31.7802 C   0  0  0  0  0  0  0  0  0  0  0  0
  -24.4818   -5.4556   30.6181 N   0  0  0  0  0  0  0  0  0  0  0  0
  -24.0114   -5.6211   32.7240 O   0  0  0  0  0  0  0  0  0  0  0  0
  -25.8736   -3.4863   30.3522 C   0  0  0  0  0  0  0  0  0  0  0  0
  -26.3203   -2.2574   31.4969 S   0  0  0  0  0  0  0  0  0  0  0  0
  -25.3312   -1.2222   31.3411 O   0  0  0  0  0  0  0  0  0  0  0  0
  -26.3455   -2.9255   32.7755 O   0  0  0  0  0  0  0  0  0  0  0  0
  -27.9587   -1.6259   31.1499 C   0  0  0  0  0  0  0  0  0  0  0  0
  -28.3795   -1.8048   29.6810 C   0  0  0  0  0  0  0  0  0  0  0  0
  -29.8652   -1.4728   29.5577 C   0  0  0  0  0  0  0  0  0  0  0  0
  -26.8050   -3.9257   29.4785 C   0  0  0  0  0  0  0  0  0  0  0  0
  -26.6225   -5.0135   28.6338 N   0  0  0  0  0  0  0  0  0  0  0  0
  -26.5135   -6.8118   25.5620 H   0  0  0  0  0  0  0  0  0  0  0  0
  -27.3922   -5.2069   28.0511 H   0  0  0  0  0  0  0  0  0  0  0  0
  -23.8817   -2.9408   28.2332 C   0  0  0  0  0  0  0  0  0  0  0  0
  -23.4800   -3.5485   29.4165 C   0  0  0  0  0  0  0  0  0  0  0  0
  -22.9637   -2.5871   27.2767 C   0  0  0  0  0  0  0  0  0  0  0  0
  -21.6113   -2.8390   27.4731 C   0  0  0  0  0  0  0  0  0  0  0  0
  -22.1279   -3.8174   29.5911 C   0  0  0  0  0  0  0  0  0  0  0  0
  -21.7127   -4.4081   30.6990 F   0  0  0  0  0  0  0  0  0  0  0  0
  -21.2082   -3.4798   28.6367 C   0  0  0  0  0  0  0  0  0  0  0  0
  -20.6642   -2.5112   26.5523 O   0  0  0  0  0  0  0  0  0  0  0  0
  -19.2866   -2.2837   26.8072 C   0  0  0  0  0  0  0  0  0  0  0  0
  -18.8774    0.0836   26.1355 C   0  0  0  0  0  0  0  0  0  0  0  0
  -18.9933   -0.8305   27.1153 C   0  0  0  0  0  0  0  0  0  0  0  0
  -18.8425   -0.3691   28.5336 C   0  0  0  0  0  0  0  0  0  0  0  0
  -24.9342   -7.5955   31.9884 C   0  0  0  0  0  0  0  0  0  0  0  0
  -26.1984   -8.1017   31.8281 C   0  0  0  0  0  0  0  0  0  0  0  0
  -25.0305   -9.6365   32.3933 C   0  0  0  0  0  0  0  0  0  0  0  0
  -24.6565  -11.0528   32.7676 C   0  0  0  0  0  0  0  0  0  0  0  0
  -27.4401   -7.3496   31.4312 C   0  0  0  0  0  0  0  0  0  0  0  0
  -24.1593   -8.6126   32.3488 N   0  0  0  0  0  0  0  0  0  0  0  0
  -26.1738   -9.2914   32.1015 O   0  0  0  0  0  0  0  0  0  0  0  0
  1  2  2  0  0  0
  1  6  1  0  0  0
  2  3  1  0  0  0
  3  4  2  0  0  0
  4  5  1  0  0  0
  4 12  1  0  0  0
  5  6  2  0  0  0
  5 22  1  0  0  0
  6 10  1  0  0  0
  7 26  1  0  0  0
  7 12  1  0  0  0
  7 14  1  0  0  0
  8 19  1  0  0  0
  8 21  1  0  0  0
 25 26  2  0  0  0
 25 27  1  0  0  0
 26 29  1  0  0  0
 27 28  2  0  0  0
 28 31  1  0  0  0
 28 32  1  0  0  0
 29 30  1  0  0  0
 29 31  2  0  0  0
  9 19  1  0  0  0
 34 35  2  0  0  0
 11 37  1  0  0  0
 11 12  1  0  0  0
 11 13  2  0  0  0
 37 38  2  0  0  0
 37 42  1  0  0  0
 38 41  1  0  0  0
 38 43  1  0  0  0
 39 40  1  0  0  0
 39 42  2  0  0  0
 39 43  1  0  0  0
 32 33  1  0  0  0
 33 35  1  0  0  0
 35 36  1  0  0  0
 14 15  1  0  0  0
 14 21  2  0  0  0
 15 16  2  0  0  0
 15 17  2  0  0  0
 15 18  1  0  0  0
 18 19  1  0  0  0
 19 20  1  0  0  0
 21 22  1  0  0  0
 10 23  1  0  0  0
 22 24  1  0  0  0
M  END
> <minimizedAffinity>
-8.06303

$$$$
3HKY_IX6_A_579


 43 47  0  0  0  0  0  0  0  0999 V2000
  -27.8375   -5.7416   28.6806 C   0  0  0  0  0  0  0  0  0  0  0  0
  -27.8376   -4.7554   29.6147 C   0  0  0  0  0  0  0  0  0  0  0  0
  -26.7007   -3.9937   29.7844 C   0  0  0  0  0  0  0  0  0  0  0  0
  -25.5389   -4.1932   28.9984 C   0  0  0  0  0  0  0  0  0  0  0  0
  -25.5430   -5.2189   28.0764 C   0  0  0  0  0  0  0  0  0  0  0  0
  -26.7159   -5.9550   27.9141 C   0  0  0  0  0  0  0  0  0  0  0  0
  -23.1526   -4.1828   29.5695 C   0  0  0  0  0  0  0  0  0  0  0  0
  -22.3917   -5.8366   26.0360 C   0  0  0  0  0  0  0  0  0  0  0  0
  -20.7328   -7.3768   27.1273 C   0  0  0  0  0  0  0  0  0  0  0  0
  -26.7269   -6.9319   27.0025 O   0  0  0  0  0  0  0  0  0  0  0  0
  -24.4919   -2.0505   29.1093 C   0  0  0  0  0  0  0  0  0  0  0  0
  -24.3779   -3.4236   29.2435 N   0  0  0  0  0  0  0  0  0  0  0  0
  -23.6382   -1.4452   29.7146 O   0  0  0  0  0  0  0  0  0  0  0  0
  -22.5300   -4.6630   28.2765 C   0  0  0  0  0  0  0  0  0  0  0  0
  -20.8517   -4.2423   28.1135 S   0  0  0  0  0  0  0  0  0  0  0  0
  -20.2149   -4.7777   29.2892 O   0  0  0  0  0  0  0  0  0  0  0  0
  -20.8352   -2.8058   27.9798 O   0  0  0  0  0  0  0  0  0  0  0  0
  -20.1535   -4.9622   26.6311 C   0  0  0  0  0  0  0  0  0  0  0  0
  -20.9068   -6.2150   26.1519 C   0  0  0  0  0  0  0  0  0  0  0  0
  -20.3937   -6.5884   24.7627 C   0  0  0  0  0  0  0  0  0  0  0  0
  -23.1371   -5.3080   27.2570 C   0  0  0  0  0  0  0  0  0  0  0  0
  -24.5043   -5.5471   27.1964 N   0  0  0  0  0  0  0  0  0  0  0  0
  -27.5017   -7.4425   26.8724 H   0  0  0  0  0  0  0  0  0  0  0  0
  -24.7947   -6.0339   26.3915 H   0  0  0  0  0  0  0  0  0  0  0  0
  -23.3713   -6.6401   30.3060 C   0  0  0  0  0  0  0  0  0  0  0  0
  -23.4711   -5.2829   30.5871 C   0  0  0  0  0  0  0  0  0  0  0  0
  -23.6834   -7.5803   31.2554 C   0  0  0  0  0  0  0  0  0  0  0  0
  -24.1139   -7.1890   32.5173 C   0  0  0  0  0  0  0  0  0  0  0  0
  -23.9260   -4.9039   31.8443 C   0  0  0  0  0  0  0  0  0  0  0  0
  -24.0468   -3.6208   32.1405 F   0  0  0  0  0  0  0  0  0  0  0  0
  -24.2515   -5.8351   32.7916 C   0  0  0  0  0  0  0  0  0  0  0  0
  -24.4394   -8.0837   33.4899 O   0  0  0  0  0  0  0  0  0  0  0  0
  -25.7222   -8.6458   33.7203 C   0  0  0  0  0  0  0  0  0  0  0  0
  -25.2767  -10.9841   34.4661 C   0  0  0  0  0  0  0  0  0  0  0  0
  -25.6889   -9.7397   34.7667 C   0  0  0  0  0  0  0  0  0  0  0  0
  -26.1006   -9.4537   36.1795 C   0  0  0  0  0  0  0  0  0  0  0  0
  -25.5129   -1.2669   28.3938 C   0  0  0  0  0  0  0  0  0  0  0  0
  -25.7456   -1.2288   27.0431 C   0  0  0  0  0  0  0  0  0  0  0  0
  -27.0954   -0.0076   27.8950 C   0  0  0  0  0  0  0  0  0  0  0  0
  -28.2500    0.9642   27.9851 C   0  0  0  0  0  0  0  0  0  0  0  0
  -24.9888   -1.9566   25.9648 C   0  0  0  0  0  0  0  0  0  0  0  0
  -26.4138   -0.4704   28.9584 N   0  0  0  0  0  0  0  0  0  0  0  0
  -26.6695   -0.4586   26.8336 O   0  0  0  0  0  0  0  0  0  0  0  0
  1  2  2  0  0  0
  1  6  1  0  0  0
  2  3  1  0  0  0
  3  4  2  0  0  0
  4  5  1  0  0  0
  4 12  1  0  0  0
  5  6  2  0  0  0
  5 22  1  0  0  0
  6 10  1  0  0  0
  7 26  1  0  0  0
  7 12  1  0  0  0
  7 14  1  0  0  0
  8 19  1  0  0  0
  8 21  1  0  0  0
 25 26  2  0  0  0
 25 27  1  0  0  0
 26 29  1  0  0  0
 27 28  2  0  0  0
 28 31  1  0  0  0
 28 32  1  0  0  0
 29 30  1  0  0  0
 29 31  2  0  0  0
  9 19  1  0  0  0
 34 35  2  0  0  0
 11 37  1  0  0  0
 11 12  1  0  0  0
 11 13  2  0  0  0
 37 38  2  0  0  0
 37 42  1  0  0  0
 38 41  1  0  0  0
 38 43  1  0  0  0
 39 40  1  0  0  0
 39 42  2  0  0  0
 39 43  1  0  0  0
 32 33  1  0  0  0
 33 35  1  0  0  0
 35 36  1  0  0  0
 14 15  1  0  0  0
 14 21  2  0  0  0
 15 16  2  0  0  0
 15 17  2  0  0  0
 15 18  1  0  0  0
 18 19  1  0  0  0
 19 20  1  0  0  0
 21 22  1  0  0  0
 10 23  1  0  0  0
 22 24  1  0  0  0
M  END
> <minimizedAffinity>
-7.87028

$$$$
3HKY_IX6_A_579


 43 47  0  0  0  0  0  0  0  0999 V2000
  -21.3194   -9.9705   27.4648 C   0  0  0  0  0  0  0  0  0  0  0  0
  -22.4077   -9.8315   26.6638 C   0  0  0  0  0  0  0  0  0  0  0  0
  -22.6534   -8.6094   26.0742 C   0  0  0  0  0  0  0  0  0  0  0  0
  -21.7928   -7.4994   26.2599 C   0  0  0  0  0  0  0  0  0  0  0  0
  -20.7099   -7.6469   27.1012 C   0  0  0  0  0  0  0  0  0  0  0  0
  -20.4775   -8.9014   27.6631 C   0  0  0  0  0  0  0  0  0  0  0  0
  -22.2480   -5.1143   26.6137 C   0  0  0  0  0  0  0  0  0  0  0  0
  -18.4524   -4.6425   27.6960 C   0  0  0  0  0  0  0  0  0  0  0  0
  -19.1870   -3.1475   29.5775 C   0  0  0  0  0  0  0  0  0  0  0  0
  -19.4135   -9.0499   28.4576 O   0  0  0  0  0  0  0  0  0  0  0  0
  -22.2213   -6.2068   24.2990 C   0  0  0  0  0  0  0  0  0  0  0  0
  -22.1130   -6.2505   25.6784 N   0  0  0  0  0  0  0  0  0  0  0  0
  -22.8818   -5.2729   23.9074 O   0  0  0  0  0  0  0  0  0  0  0  0
  -20.8648   -4.5854   26.9256 C   0  0  0  0  0  0  0  0  0  0  0  0
  -20.7000   -2.8742   26.6710 S   0  0  0  0  0  0  0  0  0  0  0  0
  -21.7363   -2.2744   27.4713 O   0  0  0  0  0  0  0  0  0  0  0  0
  -20.8137   -2.6935   25.2440 O   0  0  0  0  0  0  0  0  0  0  0  0
  -19.0860   -2.3030   27.1924 C   0  0  0  0  0  0  0  0  0  0  0  0
  -18.4340   -3.2095   28.2506 C   0  0  0  0  0  0  0  0  0  0  0  0
  -16.9795   -2.7793   28.4290 C   0  0  0  0  0  0  0  0  0  0  0  0
  -19.7786   -5.2897   27.3105 C   0  0  0  0  0  0  0  0  0  0  0  0
  -19.7403   -6.6765   27.3826 N   0  0  0  0  0  0  0  0  0  0  0  0
  -19.2332   -9.8821   28.8487 H   0  0  0  0  0  0  0  0  0  0  0  0
  -18.8779   -7.0422   27.6856 H   0  0  0  0  0  0  0  0  0  0  0  0
  -22.5612   -5.6018   29.1223 C   0  0  0  0  0  0  0  0  0  0  0  0
  -23.0754   -5.5330   27.8332 C   0  0  0  0  0  0  0  0  0  0  0  0
  -23.3487   -5.9970   30.1740 C   0  0  0  0  0  0  0  0  0  0  0  0
  -24.6780   -6.3441   29.9653 C   0  0  0  0  0  0  0  0  0  0  0  0
  -24.3991   -5.9058   27.6329 C   0  0  0  0  0  0  0  0  0  0  0  0
  -24.9165   -5.8663   26.4167 F   0  0  0  0  0  0  0  0  0  0  0  0
  -25.1868   -6.3134   28.6741 C   0  0  0  0  0  0  0  0  0  0  0  0
  -25.4968   -6.7467   30.9752 O   0  0  0  0  0  0  0  0  0  0  0  0
  -26.1531   -8.0011   31.0764 C   0  0  0  0  0  0  0  0  0  0  0  0
  -24.6657   -9.5631   32.3294 C   0  0  0  0  0  0  0  0  0  0  0  0
  -25.1754   -9.1547   31.1537 C   0  0  0  0  0  0  0  0  0  0  0  0
  -24.7635   -9.8871   29.9122 C   0  0  0  0  0  0  0  0  0  0  0  0
  -21.6979   -7.1473   23.2940 C   0  0  0  0  0  0  0  0  0  0  0  0
  -20.3858   -7.4042   22.9901 C   0  0  0  0  0  0  0  0  0  0  0  0
  -21.4947   -8.5862   21.8017 C   0  0  0  0  0  0  0  0  0  0  0  0
  -21.8022   -9.6199   20.7421 C   0  0  0  0  0  0  0  0  0  0  0  0
  -19.1657   -6.7598   23.5912 C   0  0  0  0  0  0  0  0  0  0  0  0
  -22.4308   -7.9384   22.5183 N   0  0  0  0  0  0  0  0  0  0  0  0
  -20.3536   -8.2384   22.0992 O   0  0  0  0  0  0  0  0  0  0  0  0
  1  2  2  0  0  0
  1  6  1  0  0  0
  2  3  1  0  0  0
  3  4  2  0  0  0
  4  5  1  0  0  0
  4 12  1  0  0  0
  5  6  2  0  0  0
  5 22  1  0  0  0
  6 10  1  0  0  0
  7 26  1  0  0  0
  7 12  1  0  0  0
  7 14  1  0  0  0
  8 19  1  0  0  0
  8 21  1  0  0  0
 25 26  2  0  0  0
 25 27  1  0  0  0
 26 29  1  0  0  0
 27 28  2  0  0  0
 28 31  1  0  0  0
 28 32  1  0  0  0
 29 30  1  0  0  0
 29 31  2  0  0  0
  9 19  1  0  0  0
 34 35  2  0  0  0
 11 37  1  0  0  0
 11 12  1  0  0  0
 11 13  2  0  0  0
 37 38  2  0  0  0
 37 42  1  0  0  0
 38 41  1  0  0  0
 38 43  1  0  0  0
 39 40  1  0  0  0
 39 42  2  0  0  0
 39 43  1  0  0  0
 32 33  1  0  0  0
 33 35  1  0  0  0
 35 36  1  0  0  0
 14 15  1  0  0  0
 14 21  2  0  0  0
 15 16  2  0  0  0
 15 17  2  0  0  0
 15 18  1  0  0  0
 18 19  1  0  0  0
 19 20  1  0  0  0
 21 22  1  0  0  0
 10 23  1  0  0  0
 22 24  1  0  0  0
M  END
> <minimizedAffinity>
-7.78344

$$$$
