5I3Y_68K_A_401


 50 54  0  0  0  0  0  0  0  0999 V2000
   13.9258   41.6524   -8.9310 C   0  0  0  0  0  0  0  0  0  0  0  0
   14.1344   40.7327   -7.8889 C   0  0  0  0  0  0  0  0  0  0  0  0
   15.0726   39.7786   -8.0170 N   0  0  0  0  0  0  0  0  0  0  0  0
   13.4092   40.7983   -6.7655 N   0  0  0  0  0  0  0  0  0  0  0  0
   14.7166   41.5704  -10.0840 C   0  0  0  0  0  0  0  0  0  0  0  0
   15.6728   40.5739  -10.2038 C   0  0  0  0  0  0  0  0  0  0  0  0
   16.4783   40.4909  -11.3505 C   0  0  0  0  0  0  0  0  0  0  0  0
   15.8204   39.6711   -9.1463 C   0  0  0  0  0  0  0  0  0  0  0  0
   16.7691   38.6549   -9.2748 C   0  0  0  0  0  0  0  0  0  0  0  0
   17.5743   38.5947  -10.4153 C   0  0  0  0  0  0  0  0  0  0  0  0
   17.4234   39.4778  -11.4746 C   0  0  0  0  0  0  0  0  0  0  0  0
   12.7203   41.4943   -6.6643 H   0  0  0  0  0  0  0  0  0  0  0  0
   13.5648   40.1506   -6.0406 H   0  0  0  0  0  0  0  0  0  0  0  0
   18.2876   39.3921  -12.5934 C   0  0  0  0  0  0  0  0  0  0  0  0
   18.1097   38.5416  -13.6907 C   0  0  0  0  0  0  0  0  0  0  0  0
   19.0513   38.5325  -14.7450 C   0  0  0  0  0  0  0  0  0  0  0  0
   20.1813   39.3613  -14.7098 C   0  0  0  0  0  0  0  0  0  0  0  0
   20.3696   40.2023  -13.6005 C   0  0  0  0  0  0  0  0  0  0  0  0
   19.4335   40.2086  -12.5408 C   0  0  0  0  0  0  0  0  0  0  0  0
   19.7347   41.1905  -11.3672 C   0  0  0  0  0  0  0  0  0  0  0  0
   20.7476   40.6186  -10.3701 C   0  0  0  0  0  0  0  0  0  0  0  0
   20.6029   41.1728   -8.9511 C   0  0  0  0  0  0  0  0  0  0  0  0
   19.5104   40.8231   -8.1681 C   0  0  0  0  0  0  0  0  0  0  0  0
   19.3954   41.3338   -6.8792 C   0  0  0  0  0  0  0  0  0  0  0  0
   21.5422   41.9722   -8.4310 N   0  0  0  0  0  0  0  0  0  0  0  0
   21.4738   42.4818   -7.1997 C   0  0  0  0  0  0  0  0  0  0  0  0
   20.3889   42.1683   -6.3636 C   0  0  0  0  0  0  0  0  0  0  0  0
   20.2180   42.6280   -5.1179 N   0  0  0  0  0  0  0  0  0  0  0  0
   20.7539   42.1126   -4.0094 C   0  0  0  0  0  0  0  0  0  0  0  0
   21.4655   41.1239   -3.9559 O   0  0  0  0  0  0  0  0  0  0  0  0
   19.6434   43.4200   -5.0093 H   0  0  0  0  0  0  0  0  0  0  0  0
   20.4176   42.7878   -2.6878 C   0  0  0  0  0  0  0  0  0  0  0  0
   19.3160   42.4229   -1.9289 C   0  0  0  0  0  0  0  0  0  0  0  0
   19.0712   43.0519   -0.7119 C   0  0  0  0  0  0  0  0  0  0  0  0
   19.9254   44.0506   -0.2653 C   0  0  0  0  0  0  0  0  0  0  0  0
   19.6859   44.6607    0.9120 F   0  0  0  0  0  0  0  0  0  0  0  0
   21.0465   44.4137   -1.0160 C   0  0  0  0  0  0  0  0  0  0  0  0
   21.2918   43.7754   -2.2260 C   0  0  0  0  0  0  0  0  0  0  0  0
   12.8840   42.7696   -8.9274 C   0  0  0  0  0  0  0  0  0  0  0  0
   11.4699   42.1663   -9.0097 C   0  0  0  0  0  0  0  0  0  0  0  0
   11.4900   40.3942  -10.6399 N   0  0  0  0  0  0  0  0  0  0  0  0
   11.0978   41.6216  -10.3877 C   0  0  0  0  0  0  0  0  0  0  0  0
   10.5067   42.2978  -11.2128 O   0  0  0  0  0  0  0  0  0  0  0  0
   11.9483   39.8855   -9.9325 H   0  0  0  0  0  0  0  0  0  0  0  0
   11.2691   39.7623  -11.9309 C   0  0  0  0  0  0  0  0  0  0  0  0
   12.5453   39.9162  -12.7724 C   0  0  0  0  0  0  0  0  0  0  0  0
   12.3253   37.6644  -13.8415 C   0  0  0  0  0  0  0  0  0  0  0  0
   13.2600   38.5963  -13.0651 C   0  0  0  0  0  0  0  0  0  0  0  0
   13.7009   37.9553  -11.7397 C   0  0  0  0  0  0  0  0  0  0  0  0
   14.4535   38.8688  -13.9560 C   0  0  0  0  0  0  0  0  0  0  0  0
 16 17  2  0  0  0
 16 15  1  0  0  0
 17 18  1  0  0  0
 49 48  1  0  0  0
 15 14  2  0  0  0
 18 19  2  0  0  0
 47 48  1  0  0  0
 50 48  1  0  0  0
 48 46  1  0  0  0
 14 19  1  0  0  0
 14 11  1  0  0  0
 19 20  1  0  0  0
 11  7  2  0  0  0
 11 10  1  0  0  0
 46 45  1  0  0  0
  7  6  1  0  0  0
 20 21  1  0  0  0
 45 41  1  0  0  0
 43 42  2  0  0  0
 10  9  2  0  0  0
 21 22  1  0  0  0
  6  5  2  0  0  0
  6  8  1  0  0  0
 42 41  1  0  0  0
 42 40  1  0  0  0
  5  1  1  0  0  0
  9  8  1  0  0  0
  8  3  2  0  0  0
 40 39  1  0  0  0
 22 23  2  0  0  0
 22 25  1  0  0  0
  1 39  1  0  0  0
  1  2  2  0  0  0
 23 24  1  0  0  0
  3  2  1  0  0  0
 25 26  2  0  0  0
  2  4  1  0  0  0
 24 27  2  0  0  0
 26 27  1  0  0  0
 27 28  1  0  0  0
 28 29  1  0  0  0
 30 29  2  0  0  0
 29 32  1  0  0  0
 32 38  2  0  0  0
 32 33  1  0  0  0
 38 37  1  0  0  0
 33 34  2  0  0  0
 37 35  2  0  0  0
 34 35  1  0  0  0
 35 36  1  0  0  0
 41 44  1  0  0  0
  4 12  1  0  0  0
  4 13  1  0  0  0
 28 31  1  0  0  0
M  END
> <minimizedAffinity>
-11.21164

$$$$
5I3Y_68K_A_401


 50 54  0  0  0  0  0  0  0  0999 V2000
   13.8210   41.5618   -8.9467 C   0  0  0  0  0  0  0  0  0  0  0  0
   14.1024   40.7029   -7.8704 C   0  0  0  0  0  0  0  0  0  0  0  0
   15.0928   39.8002   -7.9766 N   0  0  0  0  0  0  0  0  0  0  0  0
   13.3950   40.7757   -6.7362 N   0  0  0  0  0  0  0  0  0  0  0  0
   14.5943   41.4752  -10.1111 C   0  0  0  0  0  0  0  0  0  0  0  0
   15.6053   40.5316  -10.2076 C   0  0  0  0  0  0  0  0  0  0  0  0
   16.3934   40.4450  -11.3661 C   0  0  0  0  0  0  0  0  0  0  0  0
   15.8251   39.6866   -9.1154 C   0  0  0  0  0  0  0  0  0  0  0  0
   16.8296   38.7226   -9.2197 C   0  0  0  0  0  0  0  0  0  0  0  0
   17.6162   38.6590  -10.3729 C   0  0  0  0  0  0  0  0  0  0  0  0
   17.3943   39.4842  -11.4659 C   0  0  0  0  0  0  0  0  0  0  0  0
   12.6682   41.4342   -6.6508 H   0  0  0  0  0  0  0  0  0  0  0  0
   13.6017   40.1708   -5.9874 H   0  0  0  0  0  0  0  0  0  0  0  0
   18.2417   39.3996  -12.5977 C   0  0  0  0  0  0  0  0  0  0  0  0
   18.0520   38.5439  -13.6890 C   0  0  0  0  0  0  0  0  0  0  0  0
   18.9773   38.5366  -14.7576 C   0  0  0  0  0  0  0  0  0  0  0  0
   20.1027   39.3723  -14.7428 C   0  0  0  0  0  0  0  0  0  0  0  0
   20.3030   40.2185  -13.6396 C   0  0  0  0  0  0  0  0  0  0  0  0
   19.3833   40.2231  -12.5657 C   0  0  0  0  0  0  0  0  0  0  0  0
   19.6966   41.2111  -11.4004 C   0  0  0  0  0  0  0  0  0  0  0  0
   20.7454   40.6587  -10.4298 C   0  0  0  0  0  0  0  0  0  0  0  0
   20.6253   41.2083   -9.0068 C   0  0  0  0  0  0  0  0  0  0  0  0
   19.6108   40.7677   -8.1666 C   0  0  0  0  0  0  0  0  0  0  0  0
   19.5173   41.2757   -6.8749 C   0  0  0  0  0  0  0  0  0  0  0  0
   21.5143   42.0928   -8.5389 N   0  0  0  0  0  0  0  0  0  0  0  0
   21.4643   42.6034   -7.3070 C   0  0  0  0  0  0  0  0  0  0  0  0
   20.4570   42.2000   -6.4144 C   0  0  0  0  0  0  0  0  0  0  0  0
   20.3101   42.6518   -5.1628 N   0  0  0  0  0  0  0  0  0  0  0  0
   20.8577   42.1224   -4.0667 C   0  0  0  0  0  0  0  0  0  0  0  0
   21.5598   41.1260   -4.0317 O   0  0  0  0  0  0  0  0  0  0  0  0
   19.7456   43.4488   -5.0393 H   0  0  0  0  0  0  0  0  0  0  0  0
   20.5491   42.7909   -2.7350 C   0  0  0  0  0  0  0  0  0  0  0  0
   21.3291   43.8165   -2.2227 C   0  0  0  0  0  0  0  0  0  0  0  0
   20.9847   44.4147   -1.0144 C   0  0  0  0  0  0  0  0  0  0  0  0
   19.8661   43.9762   -0.3196 C   0  0  0  0  0  0  0  0  0  0  0  0
   19.5350   44.5544    0.8516 F   0  0  0  0  0  0  0  0  0  0  0  0
   19.0655   42.9541   -0.8360 C   0  0  0  0  0  0  0  0  0  0  0  0
   19.4085   42.3668   -2.0481 C   0  0  0  0  0  0  0  0  0  0  0  0
   12.7153   42.6156   -8.9696 C   0  0  0  0  0  0  0  0  0  0  0  0
   13.2509   43.9224   -9.5829 C   0  0  0  0  0  0  0  0  0  0  0  0
   15.3401   44.6550   -8.6359 N   0  0  0  0  0  0  0  0  0  0  0  0
   14.0354   44.7992   -8.6084 C   0  0  0  0  0  0  0  0  0  0  0  0
   13.4813   45.5568   -7.8297 O   0  0  0  0  0  0  0  0  0  0  0  0
   15.7381   44.0428   -9.2963 H   0  0  0  0  0  0  0  0  0  0  0  0
   16.2161   45.3707   -7.7221 C   0  0  0  0  0  0  0  0  0  0  0  0
   16.8073   46.5803   -8.4623 C   0  0  0  0  0  0  0  0  0  0  0  0
   18.5653   46.1085  -10.1796 C   0  0  0  0  0  0  0  0  0  0  0  0
   18.3121   46.4796   -8.7157 C   0  0  0  0  0  0  0  0  0  0  0  0
   18.9151   45.4300   -7.7689 C   0  0  0  0  0  0  0  0  0  0  0  0
   18.9424   47.8372   -8.4878 C   0  0  0  0  0  0  0  0  0  0  0  0
 16 17  2  0  0  0
 16 15  1  0  0  0
 17 18  1  0  0  0
 49 48  1  0  0  0
 15 14  2  0  0  0
 18 19  2  0  0  0
 47 48  1  0  0  0
 50 48  1  0  0  0
 48 46  1  0  0  0
 14 19  1  0  0  0
 14 11  1  0  0  0
 19 20  1  0  0  0
 11  7  2  0  0  0
 11 10  1  0  0  0
 46 45  1  0  0  0
  7  6  1  0  0  0
 20 21  1  0  0  0
 45 41  1  0  0  0
 43 42  2  0  0  0
 10  9  2  0  0  0
 21 22  1  0  0  0
  6  5  2  0  0  0
  6  8  1  0  0  0
 42 41  1  0  0  0
 42 40  1  0  0  0
  5  1  1  0  0  0
  9  8  1  0  0  0
  8  3  2  0  0  0
 40 39  1  0  0  0
 22 23  2  0  0  0
 22 25  1  0  0  0
  1 39  1  0  0  0
  1  2  2  0  0  0
 23 24  1  0  0  0
  3  2  1  0  0  0
 25 26  2  0  0  0
  2  4  1  0  0  0
 24 27  2  0  0  0
 26 27  1  0  0  0
 27 28  1  0  0  0
 28 29  1  0  0  0
 30 29  2  0  0  0
 29 32  1  0  0  0
 32 38  2  0  0  0
 32 33  1  0  0  0
 38 37  1  0  0  0
 33 34  2  0  0  0
 37 35  2  0  0  0
 34 35  1  0  0  0
 35 36  1  0  0  0
 41 44  1  0  0  0
  4 12  1  0  0  0
  4 13  1  0  0  0
 28 31  1  0  0  0
M  END
> <minimizedAffinity>
-9.98962

$$$$
5I3Y_68K_A_401


 50 54  0  0  0  0  0  0  0  0999 V2000
   12.7889   36.5406  -12.5940 C   0  0  0  0  0  0  0  0  0  0  0  0
   13.0572   35.3670  -11.8686 C   0  0  0  0  0  0  0  0  0  0  0  0
   14.2704   35.1827  -11.3200 N   0  0  0  0  0  0  0  0  0  0  0  0
   12.1142   34.4293  -11.7148 N   0  0  0  0  0  0  0  0  0  0  0  0
   13.7900   37.5122  -12.7175 C   0  0  0  0  0  0  0  0  0  0  0  0
   15.0389   37.3014  -12.1540 C   0  0  0  0  0  0  0  0  0  0  0  0
   16.0449   38.2746  -12.2622 C   0  0  0  0  0  0  0  0  0  0  0  0
   15.2577   36.1049  -11.4643 C   0  0  0  0  0  0  0  0  0  0  0  0
   16.5216   35.8831  -10.9141 C   0  0  0  0  0  0  0  0  0  0  0  0
   17.5078   36.8678  -11.0164 C   0  0  0  0  0  0  0  0  0  0  0  0
   17.3025   38.0507  -11.7116 C   0  0  0  0  0  0  0  0  0  0  0  0
   11.2232   34.5571  -12.1136 H   0  0  0  0  0  0  0  0  0  0  0  0
   12.3118   33.6118  -11.2029 H   0  0  0  0  0  0  0  0  0  0  0  0
   18.3256   39.0291  -11.7574 C   0  0  0  0  0  0  0  0  0  0  0  0
   18.9045   39.5412  -12.9243 C   0  0  0  0  0  0  0  0  0  0  0  0
   19.9337   40.5069  -12.8442 C   0  0  0  0  0  0  0  0  0  0  0  0
   20.4011   40.9615  -11.6033 C   0  0  0  0  0  0  0  0  0  0  0  0
   19.8326   40.4349  -10.4315 C   0  0  0  0  0  0  0  0  0  0  0  0
   18.8081   39.4635  -10.5080 C   0  0  0  0  0  0  0  0  0  0  0  0
   18.2404   38.9587   -9.1459 C   0  0  0  0  0  0  0  0  0  0  0  0
   18.1316   40.0780   -8.1055 C   0  0  0  0  0  0  0  0  0  0  0  0
   16.8196   40.8625   -8.1720 C   0  0  0  0  0  0  0  0  0  0  0  0
   16.6487   41.8674   -9.1154 C   0  0  0  0  0  0  0  0  0  0  0  0
   15.4487   42.5693   -9.1641 C   0  0  0  0  0  0  0  0  0  0  0  0
   15.8060   40.5694   -7.3484 N   0  0  0  0  0  0  0  0  0  0  0  0
   14.6378   41.2142   -7.3623 C   0  0  0  0  0  0  0  0  0  0  0  0
   14.4094   42.2442   -8.2902 C   0  0  0  0  0  0  0  0  0  0  0  0
   13.2812   42.9585   -8.3867 N   0  0  0  0  0  0  0  0  0  0  0  0
   12.1815   42.6045   -9.0551 C   0  0  0  0  0  0  0  0  0  0  0  0
   12.0415   41.5825   -9.7052 O   0  0  0  0  0  0  0  0  0  0  0  0
   13.2609   43.8257   -7.9212 H   0  0  0  0  0  0  0  0  0  0  0  0
   11.0103   43.5760   -9.0441 C   0  0  0  0  0  0  0  0  0  0  0  0
    9.7307   43.1978   -9.4211 C   0  0  0  0  0  0  0  0  0  0  0  0
    8.6884   44.1180   -9.3631 C   0  0  0  0  0  0  0  0  0  0  0  0
    8.9345   45.4159   -8.9374 C   0  0  0  0  0  0  0  0  0  0  0  0
    7.9250   46.3068   -8.8842 F   0  0  0  0  0  0  0  0  0  0  0  0
   10.2176   45.8014   -8.5408 C   0  0  0  0  0  0  0  0  0  0  0  0
   11.2530   44.8755   -8.5912 C   0  0  0  0  0  0  0  0  0  0  0  0
   11.4665   36.8689  -13.2846 C   0  0  0  0  0  0  0  0  0  0  0  0
   10.6416   37.8273  -12.4062 C   0  0  0  0  0  0  0  0  0  0  0  0
   10.9282   40.1061  -13.1296 N   0  0  0  0  0  0  0  0  0  0  0  0
   10.1273   39.0657  -13.1382 C   0  0  0  0  0  0  0  0  0  0  0  0
    9.0275   39.0963  -13.6645 O   0  0  0  0  0  0  0  0  0  0  0  0
   11.8130   40.0229  -12.7060 H   0  0  0  0  0  0  0  0  0  0  0  0
   10.5501   41.3774  -13.7259 C   0  0  0  0  0  0  0  0  0  0  0  0
   10.9477   42.5047  -12.7607 C   0  0  0  0  0  0  0  0  0  0  0  0
   11.3907   44.9541  -12.5041 C   0  0  0  0  0  0  0  0  0  0  0  0
   10.5583   43.9026  -13.2431 C   0  0  0  0  0  0  0  0  0  0  0  0
    9.0561   44.1203  -13.0025 C   0  0  0  0  0  0  0  0  0  0  0  0
   10.8927   44.0275  -14.7146 C   0  0  0  0  0  0  0  0  0  0  0  0
 16 17  2  0  0  0
 16 15  1  0  0  0
 17 18  1  0  0  0
 49 48  1  0  0  0
 15 14  2  0  0  0
 18 19  2  0  0  0
 47 48  1  0  0  0
 50 48  1  0  0  0
 48 46  1  0  0  0
 14 19  1  0  0  0
 14 11  1  0  0  0
 19 20  1  0  0  0
 11  7  2  0  0  0
 11 10  1  0  0  0
 46 45  1  0  0  0
  7  6  1  0  0  0
 20 21  1  0  0  0
 45 41  1  0  0  0
 43 42  2  0  0  0
 10  9  2  0  0  0
 21 22  1  0  0  0
  6  5  2  0  0  0
  6  8  1  0  0  0
 42 41  1  0  0  0
 42 40  1  0  0  0
  5  1  1  0  0  0
  9  8  1  0  0  0
  8  3  2  0  0  0
 40 39  1  0  0  0
 22 23  2  0  0  0
 22 25  1  0  0  0
  1 39  1  0  0  0
  1  2  2  0  0  0
 23 24  1  0  0  0
  3  2  1  0  0  0
 25 26  2  0  0  0
  2  4  1  0  0  0
 24 27  2  0  0  0
 26 27  1  0  0  0
 27 28  1  0  0  0
 28 29  1  0  0  0
 30 29  2  0  0  0
 29 32  1  0  0  0
 32 38  2  0  0  0
 32 33  1  0  0  0
 38 37  1  0  0  0
 33 34  2  0  0  0
 37 35  2  0  0  0
 34 35  1  0  0  0
 35 36  1  0  0  0
 41 44  1  0  0  0
  4 12  1  0  0  0
  4 13  1  0  0  0
 28 31  1  0  0  0
M  END
> <minimizedAffinity>
-9.85414

$$$$
5I3Y_68K_A_401


 50 54  0  0  0  0  0  0  0  0999 V2000
   19.7373   39.7268   -9.7422 C   0  0  0  0  0  0  0  0  0  0  0  0
   20.2999   40.1488  -10.9591 C   0  0  0  0  0  0  0  0  0  0  0  0
   19.6879   39.8497  -12.1180 N   0  0  0  0  0  0  0  0  0  0  0  0
   21.4402   40.8499  -10.9769 N   0  0  0  0  0  0  0  0  0  0  0  0
   18.5317   39.0143   -9.7568 C   0  0  0  0  0  0  0  0  0  0  0  0
   17.9192   38.7056  -10.9615 C   0  0  0  0  0  0  0  0  0  0  0  0
   16.7046   38.0021  -10.9857 C   0  0  0  0  0  0  0  0  0  0  0  0
   18.5362   39.1293  -12.1425 C   0  0  0  0  0  0  0  0  0  0  0  0
   17.9305   38.8011  -13.3569 C   0  0  0  0  0  0  0  0  0  0  0  0
   16.7136   38.1142  -13.3645 C   0  0  0  0  0  0  0  0  0  0  0  0
   16.1033   37.6780  -12.1975 C   0  0  0  0  0  0  0  0  0  0  0  0
   21.8942   41.0728  -10.1323 H   0  0  0  0  0  0  0  0  0  0  0  0
   21.8247   41.1426  -11.8347 H   0  0  0  0  0  0  0  0  0  0  0  0
   14.8540   37.0138  -12.2601 C   0  0  0  0  0  0  0  0  0  0  0  0
   14.6764   35.6401  -12.4612 C   0  0  0  0  0  0  0  0  0  0  0  0
   13.3751   35.0913  -12.5218 C   0  0  0  0  0  0  0  0  0  0  0  0
   12.2420   35.9066  -12.3936 C   0  0  0  0  0  0  0  0  0  0  0  0
   12.4193   37.2879  -12.2094 C   0  0  0  0  0  0  0  0  0  0  0  0
   13.7194   37.8411  -12.1556 C   0  0  0  0  0  0  0  0  0  0  0  0
   13.7987   39.3828  -11.9341 C   0  0  0  0  0  0  0  0  0  0  0  0
   13.1648   39.8178  -10.6089 C   0  0  0  0  0  0  0  0  0  0  0  0
   13.9821   40.8594   -9.8418 C   0  0  0  0  0  0  0  0  0  0  0  0
   15.2705   41.1807  -10.2491 C   0  0  0  0  0  0  0  0  0  0  0  0
   15.9990   42.1317   -9.5420 C   0  0  0  0  0  0  0  0  0  0  0  0
   13.4568   41.5012   -8.7912 N   0  0  0  0  0  0  0  0  0  0  0  0
   14.1180   42.4215   -8.0866 C   0  0  0  0  0  0  0  0  0  0  0  0
   15.4269   42.7832   -8.4477 C   0  0  0  0  0  0  0  0  0  0  0  0
   16.1809   43.6862   -7.8088 N   0  0  0  0  0  0  0  0  0  0  0  0
   16.1407   45.0089   -7.9837 C   0  0  0  0  0  0  0  0  0  0  0  0
   15.4254   45.6011   -8.7738 O   0  0  0  0  0  0  0  0  0  0  0  0
   16.8252   43.3427   -7.1484 H   0  0  0  0  0  0  0  0  0  0  0  0
   17.0986   45.8554   -7.1582 C   0  0  0  0  0  0  0  0  0  0  0  0
   18.0892   45.2941   -6.3668 C   0  0  0  0  0  0  0  0  0  0  0  0
   18.9591   46.1150   -5.6555 C   0  0  0  0  0  0  0  0  0  0  0  0
   18.8264   47.4945   -5.7322 C   0  0  0  0  0  0  0  0  0  0  0  0
   19.6676   48.2883   -5.0409 F   0  0  0  0  0  0  0  0  0  0  0  0
   17.8412   48.0689   -6.5394 C   0  0  0  0  0  0  0  0  0  0  0  0
   16.9814   47.2445   -7.2555 C   0  0  0  0  0  0  0  0  0  0  0  0
   20.3347   39.9783   -8.3590 C   0  0  0  0  0  0  0  0  0  0  0  0
   19.5021   41.0380   -7.6144 C   0  0  0  0  0  0  0  0  0  0  0  0
   19.6060   43.0926   -8.8659 N   0  0  0  0  0  0  0  0  0  0  0  0
   20.0097   42.4690   -7.7833 C   0  0  0  0  0  0  0  0  0  0  0  0
   20.7707   42.9845   -6.9817 O   0  0  0  0  0  0  0  0  0  0  0  0
   18.9774   42.6374   -9.4716 H   0  0  0  0  0  0  0  0  0  0  0  0
   20.0577   44.4342   -9.1987 C   0  0  0  0  0  0  0  0  0  0  0  0
   19.0594   45.0515  -10.1902 C   0  0  0  0  0  0  0  0  0  0  0  0
   18.0492   47.2673  -10.7662 C   0  0  0  0  0  0  0  0  0  0  0  0
   19.3607   46.5066  -10.5513 C   0  0  0  0  0  0  0  0  0  0  0  0
   20.2328   46.5435  -11.8162 C   0  0  0  0  0  0  0  0  0  0  0  0
   20.0697   47.1668   -9.3877 C   0  0  0  0  0  0  0  0  0  0  0  0
 16 17  2  0  0  0
 16 15  1  0  0  0
 17 18  1  0  0  0
 49 48  1  0  0  0
 15 14  2  0  0  0
 18 19  2  0  0  0
 47 48  1  0  0  0
 50 48  1  0  0  0
 48 46  1  0  0  0
 14 19  1  0  0  0
 14 11  1  0  0  0
 19 20  1  0  0  0
 11  7  2  0  0  0
 11 10  1  0  0  0
 46 45  1  0  0  0
  7  6  1  0  0  0
 20 21  1  0  0  0
 45 41  1  0  0  0
 43 42  2  0  0  0
 10  9  2  0  0  0
 21 22  1  0  0  0
  6  5  2  0  0  0
  6  8  1  0  0  0
 42 41  1  0  0  0
 42 40  1  0  0  0
  5  1  1  0  0  0
  9  8  1  0  0  0
  8  3  2  0  0  0
 40 39  1  0  0  0
 22 23  2  0  0  0
 22 25  1  0  0  0
  1 39  1  0  0  0
  1  2  2  0  0  0
 23 24  1  0  0  0
  3  2  1  0  0  0
 25 26  2  0  0  0
  2  4  1  0  0  0
 24 27  2  0  0  0
 26 27  1  0  0  0
 27 28  1  0  0  0
 28 29  1  0  0  0
 30 29  2  0  0  0
 29 32  1  0  0  0
 32 38  2  0  0  0
 32 33  1  0  0  0
 38 37  1  0  0  0
 33 34  2  0  0  0
 37 35  2  0  0  0
 34 35  1  0  0  0
 35 36  1  0  0  0
 41 44  1  0  0  0
  4 12  1  0  0  0
  4 13  1  0  0  0
 28 31  1  0  0  0
M  END
> <minimizedAffinity>
-9.73426

$$$$
5I3Y_68K_A_401


 50 54  0  0  0  0  0  0  0  0999 V2000
   15.0659   41.9001   -8.6632 C   0  0  0  0  0  0  0  0  0  0  0  0
   14.9996   40.8062   -7.7832 C   0  0  0  0  0  0  0  0  0  0  0  0
   16.1148   40.3721   -7.1711 N   0  0  0  0  0  0  0  0  0  0  0  0
   13.8343   40.1919   -7.5447 N   0  0  0  0  0  0  0  0  0  0  0  0
   16.2964   42.5348   -8.8739 C   0  0  0  0  0  0  0  0  0  0  0  0
   17.4386   42.0677   -8.2422 C   0  0  0  0  0  0  0  0  0  0  0  0
   18.6743   42.7045   -8.4379 C   0  0  0  0  0  0  0  0  0  0  0  0
   17.3185   40.9607   -7.3965 C   0  0  0  0  0  0  0  0  0  0  0  0
   18.4719   40.4771   -6.7761 C   0  0  0  0  0  0  0  0  0  0  0  0
   19.6918   41.1311   -6.9681 C   0  0  0  0  0  0  0  0  0  0  0  0
   19.8212   42.2207   -7.8170 C   0  0  0  0  0  0  0  0  0  0  0  0
   13.0133   40.5041   -7.9893 H   0  0  0  0  0  0  0  0  0  0  0  0
   13.7984   39.4279   -6.9249 H   0  0  0  0  0  0  0  0  0  0  0  0
   21.0747   42.8663   -7.9508 C   0  0  0  0  0  0  0  0  0  0  0  0
   21.4309   44.0767   -7.3449 C   0  0  0  0  0  0  0  0  0  0  0  0
   22.7108   44.6345   -7.5659 C   0  0  0  0  0  0  0  0  0  0  0  0
   23.6407   43.9977   -8.3995 C   0  0  0  0  0  0  0  0  0  0  0  0
   23.2775   42.7919   -9.0220 C   0  0  0  0  0  0  0  0  0  0  0  0
   21.9955   42.2350   -8.8087 C   0  0  0  0  0  0  0  0  0  0  0  0
   21.7046   40.8876   -9.5382 C   0  0  0  0  0  0  0  0  0  0  0  0
   21.2044   41.0934  -10.9716 C   0  0  0  0  0  0  0  0  0  0  0  0
   20.0117   40.2110  -11.3458 C   0  0  0  0  0  0  0  0  0  0  0  0
   19.2852   39.5561  -10.3597 C   0  0  0  0  0  0  0  0  0  0  0  0
   18.2020   38.7597  -10.7169 C   0  0  0  0  0  0  0  0  0  0  0  0
   19.6288   40.0854  -12.6223 N   0  0  0  0  0  0  0  0  0  0  0  0
   18.5953   39.3353  -13.0091 C   0  0  0  0  0  0  0  0  0  0  0  0
   17.8271   38.6444  -12.0569 C   0  0  0  0  0  0  0  0  0  0  0  0
   16.7774   37.8613  -12.3346 N   0  0  0  0  0  0  0  0  0  0  0  0
   15.4916   38.2008  -12.2208 C   0  0  0  0  0  0  0  0  0  0  0  0
   15.0710   39.2731  -11.8208 O   0  0  0  0  0  0  0  0  0  0  0  0
   16.9721   36.9501  -12.6525 H   0  0  0  0  0  0  0  0  0  0  0  0
   14.4533   37.1478  -12.5801 C   0  0  0  0  0  0  0  0  0  0  0  0
   14.6332   35.8028  -12.2951 C   0  0  0  0  0  0  0  0  0  0  0  0
   13.6382   34.8849  -12.6174 C   0  0  0  0  0  0  0  0  0  0  0  0
   12.4716   35.3169  -13.2328 C   0  0  0  0  0  0  0  0  0  0  0  0
   11.5100   34.4268  -13.5468 F   0  0  0  0  0  0  0  0  0  0  0  0
   12.2752   36.6723  -13.5094 C   0  0  0  0  0  0  0  0  0  0  0  0
   13.2680   37.5862  -13.1764 C   0  0  0  0  0  0  0  0  0  0  0  0
   13.8855   42.4824   -9.4386 C   0  0  0  0  0  0  0  0  0  0  0  0
   13.1966   43.5746   -8.6002 C   0  0  0  0  0  0  0  0  0  0  0  0
   14.7828   45.2864   -8.0069 N   0  0  0  0  0  0  0  0  0  0  0  0
   13.7775   44.9745   -8.7918 C   0  0  0  0  0  0  0  0  0  0  0  0
   13.3123   45.7635   -9.5970 O   0  0  0  0  0  0  0  0  0  0  0  0
   15.1318   44.6063   -7.3865 H   0  0  0  0  0  0  0  0  0  0  0  0
   15.3971   46.6044   -8.0247 C   0  0  0  0  0  0  0  0  0  0  0  0
   16.8509   46.4569   -8.4993 C   0  0  0  0  0  0  0  0  0  0  0  0
   17.4309   48.1099   -6.7124 C   0  0  0  0  0  0  0  0  0  0  0  0
   17.8908   46.8484   -7.4486 C   0  0  0  0  0  0  0  0  0  0  0  0
   19.2453   47.0756   -8.1380 C   0  0  0  0  0  0  0  0  0  0  0  0
   17.9889   45.7447   -6.4168 C   0  0  0  0  0  0  0  0  0  0  0  0
 16 17  2  0  0  0
 16 15  1  0  0  0
 17 18  1  0  0  0
 49 48  1  0  0  0
 15 14  2  0  0  0
 18 19  2  0  0  0
 47 48  1  0  0  0
 50 48  1  0  0  0
 48 46  1  0  0  0
 14 19  1  0  0  0
 14 11  1  0  0  0
 19 20  1  0  0  0
 11  7  2  0  0  0
 11 10  1  0  0  0
 46 45  1  0  0  0
  7  6  1  0  0  0
 20 21  1  0  0  0
 45 41  1  0  0  0
 43 42  2  0  0  0
 10  9  2  0  0  0
 21 22  1  0  0  0
  6  5  2  0  0  0
  6  8  1  0  0  0
 42 41  1  0  0  0
 42 40  1  0  0  0
  5  1  1  0  0  0
  9  8  1  0  0  0
  8  3  2  0  0  0
 40 39  1  0  0  0
 22 23  2  0  0  0
 22 25  1  0  0  0
  1 39  1  0  0  0
  1  2  2  0  0  0
 23 24  1  0  0  0
  3  2  1  0  0  0
 25 26  2  0  0  0
  2  4  1  0  0  0
 24 27  2  0  0  0
 26 27  1  0  0  0
 27 28  1  0  0  0
 28 29  1  0  0  0
 30 29  2  0  0  0
 29 32  1  0  0  0
 32 38  2  0  0  0
 32 33  1  0  0  0
 38 37  1  0  0  0
 33 34  2  0  0  0
 37 35  2  0  0  0
 34 35  1  0  0  0
 35 36  1  0  0  0
 41 44  1  0  0  0
  4 12  1  0  0  0
  4 13  1  0  0  0
 28 31  1  0  0  0
M  END
> <minimizedAffinity>
-9.59682

$$$$
5I3Y_68K_A_401


 50 54  0  0  0  0  0  0  0  0999 V2000
   10.7112   43.1597  -11.2790 C   0  0  0  0  0  0  0  0  0  0  0  0
   10.3778   43.4750  -12.6075 C   0  0  0  0  0  0  0  0  0  0  0  0
   10.6965   42.6230  -13.5971 N   0  0  0  0  0  0  0  0  0  0  0  0
    9.7418   44.6164  -12.8989 N   0  0  0  0  0  0  0  0  0  0  0  0
   11.3565   41.9472  -11.0052 C   0  0  0  0  0  0  0  0  0  0  0  0
   11.6869   41.0847  -12.0390 C   0  0  0  0  0  0  0  0  0  0  0  0
   12.3231   39.8618  -11.7732 C   0  0  0  0  0  0  0  0  0  0  0  0
   11.3530   41.4607  -13.3437 C   0  0  0  0  0  0  0  0  0  0  0  0
   11.7037   40.6020  -14.3871 C   0  0  0  0  0  0  0  0  0  0  0  0
   12.3224   39.3811  -14.1057 C   0  0  0  0  0  0  0  0  0  0  0  0
   12.6698   39.0082  -12.8153 C   0  0  0  0  0  0  0  0  0  0  0  0
    9.5051   45.2455  -12.1796 H   0  0  0  0  0  0  0  0  0  0  0  0
    9.5109   44.8268  -13.8325 H   0  0  0  0  0  0  0  0  0  0  0  0
   13.2667   37.7451  -12.5823 C   0  0  0  0  0  0  0  0  0  0  0  0
   12.5753   36.5660  -12.2810 C   0  0  0  0  0  0  0  0  0  0  0  0
   13.2831   35.3640  -12.0515 C   0  0  0  0  0  0  0  0  0  0  0  0
   14.6832   35.3294  -12.1094 C   0  0  0  0  0  0  0  0  0  0  0  0
   15.3786   36.5163  -12.3943 C   0  0  0  0  0  0  0  0  0  0  0  0
   14.6741   37.7217  -12.6172 C   0  0  0  0  0  0  0  0  0  0  0  0
   15.5456   38.9744  -12.9386 C   0  0  0  0  0  0  0  0  0  0  0  0
   17.0460   38.6938  -12.8074 C   0  0  0  0  0  0  0  0  0  0  0  0
   17.6995   39.3632  -11.5965 C   0  0  0  0  0  0  0  0  0  0  0  0
   17.9787   38.6272  -10.4522 C   0  0  0  0  0  0  0  0  0  0  0  0
   18.5753   39.2506   -9.3611 C   0  0  0  0  0  0  0  0  0  0  0  0
   18.0439   40.6561  -11.6340 N   0  0  0  0  0  0  0  0  0  0  0  0
   18.6202   41.2930  -10.6128 C   0  0  0  0  0  0  0  0  0  0  0  0
   18.9209   40.6017   -9.4271 C   0  0  0  0  0  0  0  0  0  0  0  0
   19.4902   41.1426   -8.3428 N   0  0  0  0  0  0  0  0  0  0  0  0
   20.7767   41.0471   -8.0001 C   0  0  0  0  0  0  0  0  0  0  0  0
   21.6322   40.4290   -8.6107 O   0  0  0  0  0  0  0  0  0  0  0  0
   18.9055   41.6589   -7.7423 H   0  0  0  0  0  0  0  0  0  0  0  0
   21.2129   41.7322   -6.7132 C   0  0  0  0  0  0  0  0  0  0  0  0
   21.5679   43.0719   -6.6709 C   0  0  0  0  0  0  0  0  0  0  0  0
   21.9297   43.6572   -5.4614 C   0  0  0  0  0  0  0  0  0  0  0  0
   21.9440   42.8955   -4.3013 C   0  0  0  0  0  0  0  0  0  0  0  0
   22.2971   43.4628   -3.1311 F   0  0  0  0  0  0  0  0  0  0  0  0
   21.5727   41.5489   -4.3318 C   0  0  0  0  0  0  0  0  0  0  0  0
   21.2026   40.9718   -5.5409 C   0  0  0  0  0  0  0  0  0  0  0  0
   10.4287   44.0421  -10.0645 C   0  0  0  0  0  0  0  0  0  0  0  0
   11.5903   45.0307   -9.8548 C   0  0  0  0  0  0  0  0  0  0  0  0
   13.7032   43.9426   -9.4669 N   0  0  0  0  0  0  0  0  0  0  0  0
   12.6755   44.5328   -8.9016 C   0  0  0  0  0  0  0  0  0  0  0  0
   12.5746   44.6441   -7.6913 O   0  0  0  0  0  0  0  0  0  0  0  0
   13.7441   43.8947  -10.4494 H   0  0  0  0  0  0  0  0  0  0  0  0
   14.7828   43.3574   -8.6880 C   0  0  0  0  0  0  0  0  0  0  0  0
   15.1414   41.9949   -9.3009 C   0  0  0  0  0  0  0  0  0  0  0  0
   15.8952   40.6883   -7.3043 C   0  0  0  0  0  0  0  0  0  0  0  0
   14.8269   40.8035   -8.3952 C   0  0  0  0  0  0  0  0  0  0  0  0
   14.7667   39.5245   -9.2450 C   0  0  0  0  0  0  0  0  0  0  0  0
   13.5062   41.0501   -7.6970 C   0  0  0  0  0  0  0  0  0  0  0  0
 16 17  2  0  0  0
 16 15  1  0  0  0
 17 18  1  0  0  0
 49 48  1  0  0  0
 15 14  2  0  0  0
 18 19  2  0  0  0
 47 48  1  0  0  0
 50 48  1  0  0  0
 48 46  1  0  0  0
 14 19  1  0  0  0
 14 11  1  0  0  0
 19 20  1  0  0  0
 11  7  2  0  0  0
 11 10  1  0  0  0
 46 45  1  0  0  0
  7  6  1  0  0  0
 20 21  1  0  0  0
 45 41  1  0  0  0
 43 42  2  0  0  0
 10  9  2  0  0  0
 21 22  1  0  0  0
  6  5  2  0  0  0
  6  8  1  0  0  0
 42 41  1  0  0  0
 42 40  1  0  0  0
  5  1  1  0  0  0
  9  8  1  0  0  0
  8  3  2  0  0  0
 40 39  1  0  0  0
 22 23  2  0  0  0
 22 25  1  0  0  0
  1 39  1  0  0  0
  1  2  2  0  0  0
 23 24  1  0  0  0
  3  2  1  0  0  0
 25 26  2  0  0  0
  2  4  1  0  0  0
 24 27  2  0  0  0
 26 27  1  0  0  0
 27 28  1  0  0  0
 28 29  1  0  0  0
 30 29  2  0  0  0
 29 32  1  0  0  0
 32 38  2  0  0  0
 32 33  1  0  0  0
 38 37  1  0  0  0
 33 34  2  0  0  0
 37 35  2  0  0  0
 34 35  1  0  0  0
 35 36  1  0  0  0
 41 44  1  0  0  0
  4 12  1  0  0  0
  4 13  1  0  0  0
 28 31  1  0  0  0
M  END
> <minimizedAffinity>
-9.59066

$$$$
5I3Y_68K_A_401


 50 54  0  0  0  0  0  0  0  0999 V2000
   10.7701   42.8624  -10.3532 C   0  0  0  0  0  0  0  0  0  0  0  0
   10.6133   43.4568  -11.6172 C   0  0  0  0  0  0  0  0  0  0  0  0
   10.9763   42.7833  -12.7224 N   0  0  0  0  0  0  0  0  0  0  0  0
   10.1021   44.6887  -11.7332 N   0  0  0  0  0  0  0  0  0  0  0  0
   11.2871   41.5637  -10.2676 C   0  0  0  0  0  0  0  0  0  0  0  0
   11.6659   40.8873  -11.4169 C   0  0  0  0  0  0  0  0  0  0  0  0
   12.1740   39.5808  -11.3422 C   0  0  0  0  0  0  0  0  0  0  0  0
   11.5105   41.5365  -12.6456 C   0  0  0  0  0  0  0  0  0  0  0  0
   11.9108   40.8638  -13.8016 C   0  0  0  0  0  0  0  0  0  0  0  0
   12.4000   39.5578  -13.7128 C   0  0  0  0  0  0  0  0  0  0  0  0
   12.5706   38.9131  -12.4963 C   0  0  0  0  0  0  0  0  0  0  0  0
    9.8339   45.1882  -10.9284 H   0  0  0  0  0  0  0  0  0  0  0  0
    9.9945   45.0950  -12.6235 H   0  0  0  0  0  0  0  0  0  0  0  0
   13.0405   37.5773  -12.4652 C   0  0  0  0  0  0  0  0  0  0  0  0
   12.2393   36.4407  -12.3062 C   0  0  0  0  0  0  0  0  0  0  0  0
   12.8256   35.1548  -12.2743 C   0  0  0  0  0  0  0  0  0  0  0  0
   14.2131   34.9918  -12.3893 C   0  0  0  0  0  0  0  0  0  0  0  0
   15.0194   36.1334  -12.5311 C   0  0  0  0  0  0  0  0  0  0  0  0
   14.4369   37.4215  -12.5562 C   0  0  0  0  0  0  0  0  0  0  0  0
   15.4242   38.6159  -12.7316 C   0  0  0  0  0  0  0  0  0  0  0  0
   16.8130   38.1649  -13.1953 C   0  0  0  0  0  0  0  0  0  0  0  0
   17.9533   39.0564  -12.6990 C   0  0  0  0  0  0  0  0  0  0  0  0
   18.0855   39.3403  -11.3459 C   0  0  0  0  0  0  0  0  0  0  0  0
   19.1294   40.1505  -10.9111 C   0  0  0  0  0  0  0  0  0  0  0  0
   18.8594   39.5458  -13.5541 N   0  0  0  0  0  0  0  0  0  0  0  0
   19.8773   40.3236  -13.1806 C   0  0  0  0  0  0  0  0  0  0  0  0
   20.0583   40.6499  -11.8260 C   0  0  0  0  0  0  0  0  0  0  0  0
   21.0377   41.4249  -11.3441 N   0  0  0  0  0  0  0  0  0  0  0  0
   20.8947   42.6569  -10.8509 C   0  0  0  0  0  0  0  0  0  0  0  0
   19.8489   43.2805  -10.7853 O   0  0  0  0  0  0  0  0  0  0  0  0
   21.9485   41.0512  -11.3544 H   0  0  0  0  0  0  0  0  0  0  0  0
   22.1490   43.3683  -10.3648 C   0  0  0  0  0  0  0  0  0  0  0  0
   22.6926   43.1369   -9.1104 C   0  0  0  0  0  0  0  0  0  0  0  0
   23.8593   43.7914   -8.7270 C   0  0  0  0  0  0  0  0  0  0  0  0
   24.4706   44.6825   -9.5979 C   0  0  0  0  0  0  0  0  0  0  0  0
   25.5988   45.3177   -9.2245 F   0  0  0  0  0  0  0  0  0  0  0  0
   23.9385   44.9099  -10.8697 C   0  0  0  0  0  0  0  0  0  0  0  0
   22.7786   44.2461  -11.2513 C   0  0  0  0  0  0  0  0  0  0  0  0
   10.4199   43.5190   -9.0191 C   0  0  0  0  0  0  0  0  0  0  0  0
   11.4752   44.5834   -8.6671 C   0  0  0  0  0  0  0  0  0  0  0  0
   13.2111   43.1780   -7.7672 N   0  0  0  0  0  0  0  0  0  0  0  0
   12.9144   44.0713   -8.6827 C   0  0  0  0  0  0  0  0  0  0  0  0
   13.7430   44.4934   -9.4717 O   0  0  0  0  0  0  0  0  0  0  0  0
   12.5004   42.8578   -7.1659 H   0  0  0  0  0  0  0  0  0  0  0  0
   14.5560   42.6467   -7.6133 C   0  0  0  0  0  0  0  0  0  0  0  0
   14.4892   41.1155   -7.7214 C   0  0  0  0  0  0  0  0  0  0  0  0
   16.7965   40.1982   -8.0326 C   0  0  0  0  0  0  0  0  0  0  0  0
   15.4721   40.5200   -8.7304 C   0  0  0  0  0  0  0  0  0  0  0  0
   15.6832   41.5179   -9.8800 C   0  0  0  0  0  0  0  0  0  0  0  0
   14.9148   39.2108   -9.2479 C   0  0  0  0  0  0  0  0  0  0  0  0
 16 17  2  0  0  0
 16 15  1  0  0  0
 17 18  1  0  0  0
 49 48  1  0  0  0
 15 14  2  0  0  0
 18 19  2  0  0  0
 47 48  1  0  0  0
 50 48  1  0  0  0
 48 46  1  0  0  0
 14 19  1  0  0  0
 14 11  1  0  0  0
 19 20  1  0  0  0
 11  7  2  0  0  0
 11 10  1  0  0  0
 46 45  1  0  0  0
  7  6  1  0  0  0
 20 21  1  0  0  0
 45 41  1  0  0  0
 43 42  2  0  0  0
 10  9  2  0  0  0
 21 22  1  0  0  0
  6  5  2  0  0  0
  6  8  1  0  0  0
 42 41  1  0  0  0
 42 40  1  0  0  0
  5  1  1  0  0  0
  9  8  1  0  0  0
  8  3  2  0  0  0
 40 39  1  0  0  0
 22 23  2  0  0  0
 22 25  1  0  0  0
  1 39  1  0  0  0
  1  2  2  0  0  0
 23 24  1  0  0  0
  3  2  1  0  0  0
 25 26  2  0  0  0
  2  4  1  0  0  0
 24 27  2  0  0  0
 26 27  1  0  0  0
 27 28  1  0  0  0
 28 29  1  0  0  0
 30 29  2  0  0  0
 29 32  1  0  0  0
 32 38  2  0  0  0
 32 33  1  0  0  0
 38 37  1  0  0  0
 33 34  2  0  0  0
 37 35  2  0  0  0
 34 35  1  0  0  0
 35 36  1  0  0  0
 41 44  1  0  0  0
  4 12  1  0  0  0
  4 13  1  0  0  0
 28 31  1  0  0  0
M  END
> <minimizedAffinity>
-9.53665

$$$$
5I3Y_68K_A_401


 50 54  0  0  0  0  0  0  0  0999 V2000
   14.1124   38.6757  -11.5959 C   0  0  0  0  0  0  0  0  0  0  0  0
   14.5663   37.6367  -12.4264 C   0  0  0  0  0  0  0  0  0  0  0  0
   15.8598   37.5871  -12.7888 N   0  0  0  0  0  0  0  0  0  0  0  0
   13.7231   36.6914  -12.8595 N   0  0  0  0  0  0  0  0  0  0  0  0
   15.0246   39.6365  -11.1418 C   0  0  0  0  0  0  0  0  0  0  0  0
   16.3531   39.5760  -11.5335 C   0  0  0  0  0  0  0  0  0  0  0  0
   17.2773   40.5275  -11.0740 C   0  0  0  0  0  0  0  0  0  0  0  0
   16.7440   38.5344  -12.3806 C   0  0  0  0  0  0  0  0  0  0  0  0
   18.0773   38.4846  -12.7918 C   0  0  0  0  0  0  0  0  0  0  0  0
   18.9889   39.4296  -12.3135 C   0  0  0  0  0  0  0  0  0  0  0  0
   18.6052   40.4740  -11.4848 C   0  0  0  0  0  0  0  0  0  0  0  0
   12.7743   36.7210  -12.5984 H   0  0  0  0  0  0  0  0  0  0  0  0
   14.0517   35.9667  -13.4392 H   0  0  0  0  0  0  0  0  0  0  0  0
   19.5759   41.3859  -11.0031 C   0  0  0  0  0  0  0  0  0  0  0  0
   20.1504   42.4241  -11.7455 C   0  0  0  0  0  0  0  0  0  0  0  0
   21.1254   43.2637  -11.1600 C   0  0  0  0  0  0  0  0  0  0  0  0
   21.5430   43.0694   -9.8360 C   0  0  0  0  0  0  0  0  0  0  0  0
   20.9798   42.0166   -9.0960 C   0  0  0  0  0  0  0  0  0  0  0  0
   20.0096   41.1705   -9.6810 C   0  0  0  0  0  0  0  0  0  0  0  0
   19.4422   40.0436   -8.7643 C   0  0  0  0  0  0  0  0  0  0  0  0
   18.8614   40.5894   -7.4559 C   0  0  0  0  0  0  0  0  0  0  0  0
   17.4864   41.2425   -7.6114 C   0  0  0  0  0  0  0  0  0  0  0  0
   17.3758   42.5422   -8.0887 C   0  0  0  0  0  0  0  0  0  0  0  0
   16.1180   43.1203   -8.2264 C   0  0  0  0  0  0  0  0  0  0  0  0
   16.3703   40.5615   -7.3248 N   0  0  0  0  0  0  0  0  0  0  0  0
   15.1447   41.0752   -7.4449 C   0  0  0  0  0  0  0  0  0  0  0  0
   14.9708   42.3872   -7.9168 C   0  0  0  0  0  0  0  0  0  0  0  0
   13.7911   43.0015   -8.0690 N   0  0  0  0  0  0  0  0  0  0  0  0
   13.0404   42.9995   -9.1726 C   0  0  0  0  0  0  0  0  0  0  0  0
   13.3253   42.4564  -10.2265 O   0  0  0  0  0  0  0  0  0  0  0  0
   13.4449   43.5012   -7.2946 H   0  0  0  0  0  0  0  0  0  0  0  0
   11.7325   43.7764   -9.1332 C   0  0  0  0  0  0  0  0  0  0  0  0
   11.6908   45.1463   -8.9223 C   0  0  0  0  0  0  0  0  0  0  0  0
   10.4696   45.8133   -8.9264 C   0  0  0  0  0  0  0  0  0  0  0  0
    9.2945   45.1037   -9.1317 C   0  0  0  0  0  0  0  0  0  0  0  0
    8.1123   45.7503   -9.1328 F   0  0  0  0  0  0  0  0  0  0  0  0
    9.3284   43.7258   -9.3606 C   0  0  0  0  0  0  0  0  0  0  0  0
   10.5517   43.0661   -9.3654 C   0  0  0  0  0  0  0  0  0  0  0  0
   12.6712   38.8648  -11.1258 C   0  0  0  0  0  0  0  0  0  0  0  0
   11.6976   38.4495  -12.2439 C   0  0  0  0  0  0  0  0  0  0  0  0
   10.8859   40.6814  -12.6415 N   0  0  0  0  0  0  0  0  0  0  0  0
   11.3234   39.5782  -13.2031 C   0  0  0  0  0  0  0  0  0  0  0  0
   11.3921   39.4480  -14.4137 O   0  0  0  0  0  0  0  0  0  0  0  0
   10.8669   40.7409  -11.6590 H   0  0  0  0  0  0  0  0  0  0  0  0
   10.4285   41.8183  -13.4245 C   0  0  0  0  0  0  0  0  0  0  0  0
   11.2384   43.0548  -13.0055 C   0  0  0  0  0  0  0  0  0  0  0  0
   10.5957   44.6334  -14.8376 C   0  0  0  0  0  0  0  0  0  0  0  0
   10.5548   44.3843  -13.3273 C   0  0  0  0  0  0  0  0  0  0  0  0
   11.2620   45.5145  -12.5630 C   0  0  0  0  0  0  0  0  0  0  0  0
    9.0957   44.2967  -12.9325 C   0  0  0  0  0  0  0  0  0  0  0  0
 16 17  2  0  0  0
 16 15  1  0  0  0
 17 18  1  0  0  0
 49 48  1  0  0  0
 15 14  2  0  0  0
 18 19  2  0  0  0
 47 48  1  0  0  0
 50 48  1  0  0  0
 48 46  1  0  0  0
 14 19  1  0  0  0
 14 11  1  0  0  0
 19 20  1  0  0  0
 11  7  2  0  0  0
 11 10  1  0  0  0
 46 45  1  0  0  0
  7  6  1  0  0  0
 20 21  1  0  0  0
 45 41  1  0  0  0
 43 42  2  0  0  0
 10  9  2  0  0  0
 21 22  1  0  0  0
  6  5  2  0  0  0
  6  8  1  0  0  0
 42 41  1  0  0  0
 42 40  1  0  0  0
  5  1  1  0  0  0
  9  8  1  0  0  0
  8  3  2  0  0  0
 40 39  1  0  0  0
 22 23  2  0  0  0
 22 25  1  0  0  0
  1 39  1  0  0  0
  1  2  2  0  0  0
 23 24  1  0  0  0
  3  2  1  0  0  0
 25 26  2  0  0  0
  2  4  1  0  0  0
 24 27  2  0  0  0
 26 27  1  0  0  0
 27 28  1  0  0  0
 28 29  1  0  0  0
 30 29  2  0  0  0
 29 32  1  0  0  0
 32 38  2  0  0  0
 32 33  1  0  0  0
 38 37  1  0  0  0
 33 34  2  0  0  0
 37 35  2  0  0  0
 34 35  1  0  0  0
 35 36  1  0  0  0
 41 44  1  0  0  0
  4 12  1  0  0  0
  4 13  1  0  0  0
 28 31  1  0  0  0
M  END
> <minimizedAffinity>
-9.52963

$$$$
5I3Y_68K_A_401


 50 54  0  0  0  0  0  0  0  0999 V2000
   20.0346   39.5748   -9.6963 C   0  0  0  0  0  0  0  0  0  0  0  0
   20.5054   40.1676  -10.8806 C   0  0  0  0  0  0  0  0  0  0  0  0
   19.8245   40.0018  -12.0277 N   0  0  0  0  0  0  0  0  0  0  0  0
   21.6259   40.9000  -10.8784 N   0  0  0  0  0  0  0  0  0  0  0  0
   18.8470   38.8332   -9.7279 C   0  0  0  0  0  0  0  0  0  0  0  0
   18.1628   38.6638  -10.9216 C   0  0  0  0  0  0  0  0  0  0  0  0
   16.9654   37.9321  -10.9610 C   0  0  0  0  0  0  0  0  0  0  0  0
   18.6902   39.2553  -12.0736 C   0  0  0  0  0  0  0  0  0  0  0  0
   18.0126   39.0680  -13.2798 C   0  0  0  0  0  0  0  0  0  0  0  0
   16.8136   38.3506  -13.3005 C   0  0  0  0  0  0  0  0  0  0  0  0
   16.2922   37.7487  -12.1644 C   0  0  0  0  0  0  0  0  0  0  0  0
   22.1301   41.0259  -10.0422 H   0  0  0  0  0  0  0  0  0  0  0  0
   21.9459   41.3127  -11.7130 H   0  0  0  0  0  0  0  0  0  0  0  0
   15.0567   37.0599  -12.2345 C   0  0  0  0  0  0  0  0  0  0  0  0
   14.9060   35.6905  -12.4817 C   0  0  0  0  0  0  0  0  0  0  0  0
   13.6161   35.1158  -12.5450 C   0  0  0  0  0  0  0  0  0  0  0  0
   12.4676   35.9010  -12.3737 C   0  0  0  0  0  0  0  0  0  0  0  0
   12.6176   37.2786  -12.1431 C   0  0  0  0  0  0  0  0  0  0  0  0
   13.9061   37.8579  -12.0864 C   0  0  0  0  0  0  0  0  0  0  0  0
   13.9553   39.3922  -11.8116 C   0  0  0  0  0  0  0  0  0  0  0  0
   13.4658   39.7516  -10.4050 C   0  0  0  0  0  0  0  0  0  0  0  0
   14.3861   40.7169   -9.6549 C   0  0  0  0  0  0  0  0  0  0  0  0
   15.5841   41.1304  -10.2232 C   0  0  0  0  0  0  0  0  0  0  0  0
   16.4080   42.0102   -9.5289 C   0  0  0  0  0  0  0  0  0  0  0  0
   14.0355   41.2043   -8.4586 N   0  0  0  0  0  0  0  0  0  0  0  0
   14.7930   42.0517   -7.7596 C   0  0  0  0  0  0  0  0  0  0  0  0
   16.0183   42.5002   -8.2810 C   0  0  0  0  0  0  0  0  0  0  0  0
   16.8567   43.3418   -7.6637 N   0  0  0  0  0  0  0  0  0  0  0  0
   17.1738   44.5734   -8.0689 C   0  0  0  0  0  0  0  0  0  0  0  0
   16.7669   45.1166   -9.0818 O   0  0  0  0  0  0  0  0  0  0  0  0
   17.2786   43.0226   -6.8334 H   0  0  0  0  0  0  0  0  0  0  0  0
   18.1623   45.3590   -7.2193 C   0  0  0  0  0  0  0  0  0  0  0  0
   18.6403   44.8824   -6.0082 C   0  0  0  0  0  0  0  0  0  0  0  0
   19.5672   45.6272   -5.2852 C   0  0  0  0  0  0  0  0  0  0  0  0
   20.0035   46.8508   -5.7738 C   0  0  0  0  0  0  0  0  0  0  0  0
   20.8991   47.5723   -5.0716 F   0  0  0  0  0  0  0  0  0  0  0  0
   19.5391   47.3314   -7.0008 C   0  0  0  0  0  0  0  0  0  0  0  0
   18.6209   46.5789   -7.7235 C   0  0  0  0  0  0  0  0  0  0  0  0
   20.7170   39.6640   -8.3325 C   0  0  0  0  0  0  0  0  0  0  0  0
   19.7796   40.3509   -7.3226 C   0  0  0  0  0  0  0  0  0  0  0  0
   21.3057   42.2111   -7.2295 N   0  0  0  0  0  0  0  0  0  0  0  0
   20.4174   41.5120   -6.5617 C   0  0  0  0  0  0  0  0  0  0  0  0
   20.1448   41.7499   -5.3970 O   0  0  0  0  0  0  0  0  0  0  0  0
   21.4759   41.9884   -8.1732 H   0  0  0  0  0  0  0  0  0  0  0  0
   22.0463   43.3040   -6.6195 C   0  0  0  0  0  0  0  0  0  0  0  0
   22.1670   44.4416   -7.6451 C   0  0  0  0  0  0  0  0  0  0  0  0
   24.5994   44.8783   -8.0383 C   0  0  0  0  0  0  0  0  0  0  0  0
   23.3242   45.4037   -7.3731 C   0  0  0  0  0  0  0  0  0  0  0  0
   23.5144   45.5496   -5.8552 C   0  0  0  0  0  0  0  0  0  0  0  0
   23.0125   46.7421   -8.0089 C   0  0  0  0  0  0  0  0  0  0  0  0
 16 17  2  0  0  0
 16 15  1  0  0  0
 17 18  1  0  0  0
 49 48  1  0  0  0
 15 14  2  0  0  0
 18 19  2  0  0  0
 47 48  1  0  0  0
 50 48  1  0  0  0
 48 46  1  0  0  0
 14 19  1  0  0  0
 14 11  1  0  0  0
 19 20  1  0  0  0
 11  7  2  0  0  0
 11 10  1  0  0  0
 46 45  1  0  0  0
  7  6  1  0  0  0
 20 21  1  0  0  0
 45 41  1  0  0  0
 43 42  2  0  0  0
 10  9  2  0  0  0
 21 22  1  0  0  0
  6  5  2  0  0  0
  6  8  1  0  0  0
 42 41  1  0  0  0
 42 40  1  0  0  0
  5  1  1  0  0  0
  9  8  1  0  0  0
  8  3  2  0  0  0
 40 39  1  0  0  0
 22 23  2  0  0  0
 22 25  1  0  0  0
  1 39  1  0  0  0
  1  2  2  0  0  0
 23 24  1  0  0  0
  3  2  1  0  0  0
 25 26  2  0  0  0
  2  4  1  0  0  0
 24 27  2  0  0  0
 26 27  1  0  0  0
 27 28  1  0  0  0
 28 29  1  0  0  0
 30 29  2  0  0  0
 29 32  1  0  0  0
 32 38  2  0  0  0
 32 33  1  0  0  0
 38 37  1  0  0  0
 33 34  2  0  0  0
 37 35  2  0  0  0
 34 35  1  0  0  0
 35 36  1  0  0  0
 41 44  1  0  0  0
  4 12  1  0  0  0
  4 13  1  0  0  0
 28 31  1  0  0  0
M  END
> <minimizedAffinity>
-9.39996

$$$$
5I3Y_68K_A_401


 50 54  0  0  0  0  0  0  0  0999 V2000
   14.8684   40.8891   -8.8469 C   0  0  0  0  0  0  0  0  0  0  0  0
   14.6200   41.5081   -7.6098 C   0  0  0  0  0  0  0  0  0  0  0  0
   15.4219   42.5000   -7.1856 N   0  0  0  0  0  0  0  0  0  0  0  0
   13.5889   41.1219   -6.8483 N   0  0  0  0  0  0  0  0  0  0  0  0
   15.9419   41.3316   -9.6299 C   0  0  0  0  0  0  0  0  0  0  0  0
   16.7651   42.3490   -9.1726 C   0  0  0  0  0  0  0  0  0  0  0  0
   17.8364   42.8075   -9.9554 C   0  0  0  0  0  0  0  0  0  0  0  0
   16.4858   42.9120   -7.9234 C   0  0  0  0  0  0  0  0  0  0  0  0
   17.3266   43.9225   -7.4532 C   0  0  0  0  0  0  0  0  0  0  0  0
   18.3794   44.3792   -8.2506 C   0  0  0  0  0  0  0  0  0  0  0  0
   18.6712   43.8155   -9.4842 C   0  0  0  0  0  0  0  0  0  0  0  0
   12.9972   40.3962   -7.1522 H   0  0  0  0  0  0  0  0  0  0  0  0
   13.4225   41.5636   -5.9843 H   0  0  0  0  0  0  0  0  0  0  0  0
   19.7304   44.3378  -10.2660 C   0  0  0  0  0  0  0  0  0  0  0  0
   19.6735   45.5122  -11.0254 C   0  0  0  0  0  0  0  0  0  0  0  0
   20.7937   45.9266  -11.7814 C   0  0  0  0  0  0  0  0  0  0  0  0
   21.9738   45.1702  -11.7958 C   0  0  0  0  0  0  0  0  0  0  0  0
   22.0255   43.9821  -11.0479 C   0  0  0  0  0  0  0  0  0  0  0  0
   20.9044   43.5610  -10.2963 C   0  0  0  0  0  0  0  0  0  0  0  0
   21.0774   42.2353   -9.4934 C   0  0  0  0  0  0  0  0  0  0  0  0
   21.3153   41.0259  -10.4034 C   0  0  0  0  0  0  0  0  0  0  0  0
   20.0370   40.2804  -10.7924 C   0  0  0  0  0  0  0  0  0  0  0  0
   19.5447   40.3588  -12.0888 C   0  0  0  0  0  0  0  0  0  0  0  0
   18.3826   39.6727  -12.4266 C   0  0  0  0  0  0  0  0  0  0  0  0
   19.3950   39.5146   -9.9019 N   0  0  0  0  0  0  0  0  0  0  0  0
   18.2800   38.8376  -10.1834 C   0  0  0  0  0  0  0  0  0  0  0  0
   17.7317   38.8838  -11.4762 C   0  0  0  0  0  0  0  0  0  0  0  0
   16.6175   38.2510  -11.8639 N   0  0  0  0  0  0  0  0  0  0  0  0
   16.3415   36.9587  -11.6756 C   0  0  0  0  0  0  0  0  0  0  0  0
   17.0751   36.1445  -11.1410 O   0  0  0  0  0  0  0  0  0  0  0  0
   15.9384   38.7889  -12.3315 H   0  0  0  0  0  0  0  0  0  0  0  0
   15.0146   36.4394  -12.2098 C   0  0  0  0  0  0  0  0  0  0  0  0
   14.6561   35.1024  -12.1293 C   0  0  0  0  0  0  0  0  0  0  0  0
   13.4169   34.6851  -12.6056 C   0  0  0  0  0  0  0  0  0  0  0  0
   12.5465   35.6073  -13.1697 C   0  0  0  0  0  0  0  0  0  0  0  0
   11.3480   35.2017  -13.6330 F   0  0  0  0  0  0  0  0  0  0  0  0
   12.8930   36.9590  -13.2407 C   0  0  0  0  0  0  0  0  0  0  0  0
   14.1278   37.3720  -12.7544 C   0  0  0  0  0  0  0  0  0  0  0  0
   14.0532   39.7409   -9.4392 C   0  0  0  0  0  0  0  0  0  0  0  0
   13.6428   40.0814  -10.8835 C   0  0  0  0  0  0  0  0  0  0  0  0
   12.1505   41.9688  -10.9808 N   0  0  0  0  0  0  0  0  0  0  0  0
   12.2348   40.6591  -11.0175 C   0  0  0  0  0  0  0  0  0  0  0  0
   11.2497   39.9467  -11.1150 O   0  0  0  0  0  0  0  0  0  0  0  0
   12.9784   42.4981  -10.9187 H   0  0  0  0  0  0  0  0  0  0  0  0
   10.8734   42.6627  -11.0288 C   0  0  0  0  0  0  0  0  0  0  0  0
   10.4749   43.0476   -9.5958 C   0  0  0  0  0  0  0  0  0  0  0  0
    8.9968   45.0415   -9.2775 C   0  0  0  0  0  0  0  0  0  0  0  0
   10.4474   44.5554   -9.3418 C   0  0  0  0  0  0  0  0  0  0  0  0
   11.2193   45.2709  -10.4615 C   0  0  0  0  0  0  0  0  0  0  0  0
   11.0696   44.8393   -7.9909 C   0  0  0  0  0  0  0  0  0  0  0  0
 16 17  2  0  0  0
 16 15  1  0  0  0
 17 18  1  0  0  0
 49 48  1  0  0  0
 15 14  2  0  0  0
 18 19  2  0  0  0
 47 48  1  0  0  0
 50 48  1  0  0  0
 48 46  1  0  0  0
 14 19  1  0  0  0
 14 11  1  0  0  0
 19 20  1  0  0  0
 11  7  2  0  0  0
 11 10  1  0  0  0
 46 45  1  0  0  0
  7  6  1  0  0  0
 20 21  1  0  0  0
 45 41  1  0  0  0
 43 42  2  0  0  0
 10  9  2  0  0  0
 21 22  1  0  0  0
  6  5  2  0  0  0
  6  8  1  0  0  0
 42 41  1  0  0  0
 42 40  1  0  0  0
  5  1  1  0  0  0
  9  8  1  0  0  0
  8  3  2  0  0  0
 40 39  1  0  0  0
 22 23  2  0  0  0
 22 25  1  0  0  0
  1 39  1  0  0  0
  1  2  2  0  0  0
 23 24  1  0  0  0
  3  2  1  0  0  0
 25 26  2  0  0  0
  2  4  1  0  0  0
 24 27  2  0  0  0
 26 27  1  0  0  0
 27 28  1  0  0  0
 28 29  1  0  0  0
 30 29  2  0  0  0
 29 32  1  0  0  0
 32 38  2  0  0  0
 32 33  1  0  0  0
 38 37  1  0  0  0
 33 34  2  0  0  0
 37 35  2  0  0  0
 34 35  1  0  0  0
 35 36  1  0  0  0
 41 44  1  0  0  0
  4 12  1  0  0  0
  4 13  1  0  0  0
 28 31  1  0  0  0
M  END
> <minimizedAffinity>
-9.34440

$$$$
