3IOE_A7D_A_901


 31 33  0  0  0  0  0  0  0  0999 V2000
   12.4388    8.1002    2.0205 O   0  0  0  0  0  0  0  0  0  0  0  0
   14.3853    7.0858    0.1253 O   0  0  0  0  0  0  0  0  0  0  0  0
   13.7094   10.6069    0.8148 O   0  0  0  0  0  0  0  0  0  0  0  0
   13.7976    8.5352    2.0709 C   0  0  0  0  0  0  0  0  0  0  0  0
   14.4786    8.4030    0.7033 C   0  0  0  0  0  0  0  0  0  0  0  0
   13.8054   10.0639    2.1914 C   0  0  0  0  0  0  0  0  0  0  0  0
   13.7023    9.4772   -0.0842 C   0  0  0  0  0  0  0  0  0  0  0  0
   12.4114    7.1336    1.9441 H   0  0  0  0  0  0  0  0  0  0  0  0
   14.8925    6.4593    0.6649 H   0  0  0  0  0  0  0  0  0  0  0  0
   13.4213    9.5406   -5.1831 N   0  0  0  0  0  0  0  0  0  0  0  0
   12.4394    9.2619   -4.3144 C   0  0  0  0  0  0  0  0  0  0  0  0
   12.6828    9.2919   -3.0036 N   0  0  0  0  0  0  0  0  0  0  0  0
   13.9239    9.6055   -2.5291 C   0  0  0  0  0  0  0  0  0  0  0  0
   14.9626    9.8964   -3.4127 C   0  0  0  0  0  0  0  0  0  0  0  0
   14.6788    9.8541   -4.7753 C   0  0  0  0  0  0  0  0  0  0  0  0
   15.6461   10.1203   -5.6557 N   0  0  0  0  0  0  0  0  0  0  0  0
   16.0513   10.1739   -2.6980 N   0  0  0  0  0  0  0  0  0  0  0  0
   15.7293   10.0597   -1.4061 C   0  0  0  0  0  0  0  0  0  0  0  0
   14.4396    9.7178   -1.3019 N   0  0  0  0  0  0  0  0  0  0  0  0
   15.4543   10.0927   -6.6210 H   0  0  0  0  0  0  0  0  0  0  0  0
   16.5512   10.3443   -5.3399 H   0  0  0  0  0  0  0  0  0  0  0  0
   15.1503   10.4893    2.8408 C   0  0  0  0  0  0  0  0  0  0  0  0
   15.6687    9.3420    4.1529 S   0  0  0  0  0  0  0  0  0  0  0  0
   14.6157    9.8320    5.5926 C   0  0  0  0  0  0  0  0  0  0  0  0
   13.9403    8.5930    6.2312 C   0  0  0  0  0  0  0  0  0  0  0  0
   15.9280    7.7312    7.5312 O   0  0  0  0  0  0  0  0  0  0  0  0
   14.5222    8.2062    7.6059 C   0  0  0  0  0  0  0  0  0  0  0  0
   16.2400    7.5032    8.4209 H   0  0  0  0  0  0  0  0  0  0  0  0
   15.5611    9.6922    9.3357 O   0  0  0  0  0  0  0  0  0  0  0  0
   14.3598    9.4096    8.5776 C   0  0  0  0  0  0  0  0  0  0  0  0
   15.4029   10.4484    9.9222 H   0  0  0  0  0  0  0  0  0  0  0  0
 10 11  2  0  0  0
 10 15  1  0  0  0
 11 12  1  0  0  0
 12 13  2  0  0  0
 13 14  1  0  0  0
 13 19  1  0  0  0
 14 15  2  0  0  0
 14 17  1  0  0  0
 15 16  1  0  0  0
 17 18  2  0  0  0
 18 19  1  0  0  0
 19  7  1  0  0  0
 29 30  1  0  0  0
 26 27  1  0  0  0
  1  4  1  0  0  0
  2  5  1  0  0  0
 30 27  1  0  0  0
 24 25  1  0  0  0
 24 23  1  0  0  0
 25 27  1  0  0  0
 22 23  1  0  0  0
 22  6  1  0  0  0
  3  6  1  0  0  0
  3  7  1  0  0  0
  4  5  1  0  0  0
  4  6  1  0  0  0
  5  7  1  0  0  0
 16 20  1  0  0  0
 16 21  1  0  0  0
 29 31  1  0  0  0
 26 28  1  0  0  0
  1  8  1  0  0  0
  2  9  1  0  0  0
M  END
> <minimizedAffinity>
-9.50283

$$$$
3IOE_A7D_A_901


 31 33  0  0  0  0  0  0  0  0999 V2000
   12.3636    8.1593    1.9561 O   0  0  0  0  0  0  0  0  0  0  0  0
   14.3846    7.1602    0.1321 O   0  0  0  0  0  0  0  0  0  0  0  0
   13.6022   10.6750    0.7358 O   0  0  0  0  0  0  0  0  0  0  0  0
   13.7092    8.6299    2.0334 C   0  0  0  0  0  0  0  0  0  0  0  0
   14.4294    8.4898    0.6868 C   0  0  0  0  0  0  0  0  0  0  0  0
   13.6753   10.1603    2.1247 C   0  0  0  0  0  0  0  0  0  0  0  0
   13.6474    9.5290   -0.1411 C   0  0  0  0  0  0  0  0  0  0  0  0
   12.3626    7.1911    1.8975 H   0  0  0  0  0  0  0  0  0  0  0  0
   14.8929    6.5570    0.6967 H   0  0  0  0  0  0  0  0  0  0  0  0
   13.4801    9.5582   -5.2454 N   0  0  0  0  0  0  0  0  0  0  0  0
   12.4805    9.2797   -4.3970 C   0  0  0  0  0  0  0  0  0  0  0  0
   12.6944    9.3194   -3.0813 N   0  0  0  0  0  0  0  0  0  0  0  0
   13.9229    9.6428   -2.5813 C   0  0  0  0  0  0  0  0  0  0  0  0
   14.9795    9.9336   -3.4434 C   0  0  0  0  0  0  0  0  0  0  0  0
   14.7265    9.8810   -4.8116 C   0  0  0  0  0  0  0  0  0  0  0  0
   15.7118   10.1468   -5.6720 N   0  0  0  0  0  0  0  0  0  0  0  0
   16.0506   10.2216   -2.7063 N   0  0  0  0  0  0  0  0  0  0  0  0
   15.7003   10.1140   -1.4212 C   0  0  0  0  0  0  0  0  0  0  0  0
   14.4105    9.7658   -1.3436 N   0  0  0  0  0  0  0  0  0  0  0  0
   15.5418   10.1120   -6.6411 H   0  0  0  0  0  0  0  0  0  0  0  0
   16.6085   10.3777   -5.3375 H   0  0  0  0  0  0  0  0  0  0  0  0
   14.9913   10.6321    2.8005 C   0  0  0  0  0  0  0  0  0  0  0  0
   15.6575    9.3850    3.9441 S   0  0  0  0  0  0  0  0  0  0  0  0
   17.4501    9.3043    3.4948 C   0  0  0  0  0  0  0  0  0  0  0  0
   17.7042    9.9571    2.1133 C   0  0  0  0  0  0  0  0  0  0  0  0
   20.0396    9.3069    1.4015 O   0  0  0  0  0  0  0  0  0  0  0  0
   19.1644   10.4018    1.8941 C   0  0  0  0  0  0  0  0  0  0  0  0
   20.9417    9.6429    1.2823 H   0  0  0  0  0  0  0  0  0  0  0  0
   20.2285   11.5748   -0.0479 O   0  0  0  0  0  0  0  0  0  0  0  0
   19.1778   11.6353    0.9471 C   0  0  0  0  0  0  0  0  0  0  0  0
   20.1894   12.3658   -0.6079 H   0  0  0  0  0  0  0  0  0  0  0  0
 10 11  2  0  0  0
 10 15  1  0  0  0
 11 12  1  0  0  0
 12 13  2  0  0  0
 13 14  1  0  0  0
 13 19  1  0  0  0
 14 15  2  0  0  0
 14 17  1  0  0  0
 15 16  1  0  0  0
 17 18  2  0  0  0
 18 19  1  0  0  0
 19  7  1  0  0  0
 29 30  1  0  0  0
 26 27  1  0  0  0
  1  4  1  0  0  0
  2  5  1  0  0  0
 30 27  1  0  0  0
 24 25  1  0  0  0
 24 23  1  0  0  0
 25 27  1  0  0  0
 22 23  1  0  0  0
 22  6  1  0  0  0
  3  6  1  0  0  0
  3  7  1  0  0  0
  4  5  1  0  0  0
  4  6  1  0  0  0
  5  7  1  0  0  0
 16 20  1  0  0  0
 16 21  1  0  0  0
 29 31  1  0  0  0
 26 28  1  0  0  0
  1  8  1  0  0  0
  2  9  1  0  0  0
M  END
> <minimizedAffinity>
-9.24997

$$$$
3IOE_A7D_A_901


 31 33  0  0  0  0  0  0  0  0999 V2000
   12.3876    8.0540    1.9489 O   0  0  0  0  0  0  0  0  0  0  0  0
   14.4176    7.0972    0.1122 O   0  0  0  0  0  0  0  0  0  0  0  0
   13.5944   10.5962    0.7521 O   0  0  0  0  0  0  0  0  0  0  0  0
   13.7277    8.5398    2.0291 C   0  0  0  0  0  0  0  0  0  0  0  0
   14.4474    8.4217    0.6801 C   0  0  0  0  0  0  0  0  0  0  0  0
   13.6757   10.0686    2.1356 C   0  0  0  0  0  0  0  0  0  0  0  0
   13.6518    9.4596   -0.1363 C   0  0  0  0  0  0  0  0  0  0  0  0
   12.3980    7.0864    1.8807 H   0  0  0  0  0  0  0  0  0  0  0  0
   14.9339    6.4945    0.6700 H   0  0  0  0  0  0  0  0  0  0  0  0
   13.4710    9.5564   -5.2392 N   0  0  0  0  0  0  0  0  0  0  0  0
   12.4754    9.2602   -4.3921 C   0  0  0  0  0  0  0  0  0  0  0  0
   12.6925    9.2836   -3.0766 N   0  0  0  0  0  0  0  0  0  0  0  0
   13.9202    9.6080   -2.5754 C   0  0  0  0  0  0  0  0  0  0  0  0
   14.9727    9.9172   -3.4362 C   0  0  0  0  0  0  0  0  0  0  0  0
   14.7164    9.8814   -4.8044 C   0  0  0  0  0  0  0  0  0  0  0  0
   15.6977   10.1650   -5.6636 N   0  0  0  0  0  0  0  0  0  0  0  0
   16.0438   10.2020   -2.6981 N   0  0  0  0  0  0  0  0  0  0  0  0
   15.6977   10.0749   -1.4137 C   0  0  0  0  0  0  0  0  0  0  0  0
   14.4102    9.7175   -1.3374 N   0  0  0  0  0  0  0  0  0  0  0  0
   15.5254   10.1422   -6.6326 H   0  0  0  0  0  0  0  0  0  0  0  0
   16.5938   10.3972   -5.3283 H   0  0  0  0  0  0  0  0  0  0  0  0
   14.9871   10.5494    2.8143 C   0  0  0  0  0  0  0  0  0  0  0  0
   15.5600    9.3896    4.0924 S   0  0  0  0  0  0  0  0  0  0  0  0
   17.3996    9.5789    4.0506 C   0  0  0  0  0  0  0  0  0  0  0  0
   18.0841    8.2469    3.6549 C   0  0  0  0  0  0  0  0  0  0  0  0
   18.1464    7.5683    6.0879 O   0  0  0  0  0  0  0  0  0  0  0  0
   18.8859    7.5950    4.7995 C   0  0  0  0  0  0  0  0  0  0  0  0
   18.6967    7.1492    6.7679 H   0  0  0  0  0  0  0  0  0  0  0  0
   19.1638    5.1741    5.3839 O   0  0  0  0  0  0  0  0  0  0  0  0
   19.3377    6.1757    4.3523 C   0  0  0  0  0  0  0  0  0  0  0  0
   19.4604    4.3125    5.0513 H   0  0  0  0  0  0  0  0  0  0  0  0
 10 11  2  0  0  0
 10 15  1  0  0  0
 11 12  1  0  0  0
 12 13  2  0  0  0
 13 14  1  0  0  0
 13 19  1  0  0  0
 14 15  2  0  0  0
 14 17  1  0  0  0
 15 16  1  0  0  0
 17 18  2  0  0  0
 18 19  1  0  0  0
 19  7  1  0  0  0
 29 30  1  0  0  0
 26 27  1  0  0  0
  1  4  1  0  0  0
  2  5  1  0  0  0
 30 27  1  0  0  0
 24 25  1  0  0  0
 24 23  1  0  0  0
 25 27  1  0  0  0
 22 23  1  0  0  0
 22  6  1  0  0  0
  3  6  1  0  0  0
  3  7  1  0  0  0
  4  5  1  0  0  0
  4  6  1  0  0  0
  5  7  1  0  0  0
 16 20  1  0  0  0
 16 21  1  0  0  0
 29 31  1  0  0  0
 26 28  1  0  0  0
  1  8  1  0  0  0
  2  9  1  0  0  0
M  END
> <minimizedAffinity>
-9.02432

$$$$
3IOE_A7D_A_901


 31 33  0  0  0  0  0  0  0  0999 V2000
   17.3055   10.6831    4.8695 O   0  0  0  0  0  0  0  0  0  0  0  0
   15.3185   11.9828    3.2044 O   0  0  0  0  0  0  0  0  0  0  0  0
   15.5074    8.4048    3.9062 O   0  0  0  0  0  0  0  0  0  0  0  0
   15.9125   10.4742    5.1024 C   0  0  0  0  0  0  0  0  0  0  0  0
   15.0914   10.7031    3.8277 C   0  0  0  0  0  0  0  0  0  0  0  0
   15.6767    8.9680    5.2675 C   0  0  0  0  0  0  0  0  0  0  0  0
   15.5790    9.5107    2.9808 C   0  0  0  0  0  0  0  0  0  0  0  0
   17.4766   11.6318    4.7620 H   0  0  0  0  0  0  0  0  0  0  0  0
   14.9912   12.6877    3.7848 H   0  0  0  0  0  0  0  0  0  0  0  0
   14.6571   10.8963   -1.8474 N   0  0  0  0  0  0  0  0  0  0  0  0
   15.7108   11.2295   -1.0890 C   0  0  0  0  0  0  0  0  0  0  0  0
   15.7992   10.7771    0.1622 N   0  0  0  0  0  0  0  0  0  0  0  0
   14.8280    9.9734    0.6863 C   0  0  0  0  0  0  0  0  0  0  0  0
   13.7207    9.6150   -0.0817 C   0  0  0  0  0  0  0  0  0  0  0  0
   13.6548   10.1052   -1.3833 C   0  0  0  0  0  0  0  0  0  0  0  0
   12.6088    9.7911   -2.1508 N   0  0  0  0  0  0  0  0  0  0  0  0
   12.9396    8.8285    0.6562 N   0  0  0  0  0  0  0  0  0  0  0  0
   13.5167    8.6910    1.8537 C   0  0  0  0  0  0  0  0  0  0  0  0
   14.6626    9.3821    1.8727 N   0  0  0  0  0  0  0  0  0  0  0  0
   12.5540   10.1333   -3.0723 H   0  0  0  0  0  0  0  0  0  0  0  0
   11.8921    9.2173   -1.7954 H   0  0  0  0  0  0  0  0  0  0  0  0
   14.3759    8.7714    6.0925 C   0  0  0  0  0  0  0  0  0  0  0  0
   14.0788   10.1510    7.2393 S   0  0  0  0  0  0  0  0  0  0  0  0
   14.0950    9.3391    8.9013 C   0  0  0  0  0  0  0  0  0  0  0  0
   13.1018   10.0334    9.8660 C   0  0  0  0  0  0  0  0  0  0  0  0
   15.2016   11.2896   10.4957 O   0  0  0  0  0  0  0  0  0  0  0  0
   13.7548   11.0962   10.7728 C   0  0  0  0  0  0  0  0  0  0  0  0
   15.5576   11.9661   11.0928 H   0  0  0  0  0  0  0  0  0  0  0  0
   12.0409   12.4334    9.5261 O   0  0  0  0  0  0  0  0  0  0  0  0
   12.9514   12.4224   10.6524 C   0  0  0  0  0  0  0  0  0  0  0  0
   11.5688   13.2803    9.5002 H   0  0  0  0  0  0  0  0  0  0  0  0
 10 11  2  0  0  0
 10 15  1  0  0  0
 11 12  1  0  0  0
 12 13  2  0  0  0
 13 14  1  0  0  0
 13 19  1  0  0  0
 14 15  2  0  0  0
 14 17  1  0  0  0
 15 16  1  0  0  0
 17 18  2  0  0  0
 18 19  1  0  0  0
 19  7  1  0  0  0
 29 30  1  0  0  0
 26 27  1  0  0  0
  1  4  1  0  0  0
  2  5  1  0  0  0
 30 27  1  0  0  0
 24 25  1  0  0  0
 24 23  1  0  0  0
 25 27  1  0  0  0
 22 23  1  0  0  0
 22  6  1  0  0  0
  3  6  1  0  0  0
  3  7  1  0  0  0
  4  5  1  0  0  0
  4  6  1  0  0  0
  5  7  1  0  0  0
 16 20  1  0  0  0
 16 21  1  0  0  0
 29 31  1  0  0  0
 26 28  1  0  0  0
  1  8  1  0  0  0
  2  9  1  0  0  0
M  END
> <minimizedAffinity>
-8.83333

$$$$
3IOE_A7D_A_901


 31 33  0  0  0  0  0  0  0  0999 V2000
   12.7095    9.3608    3.2410 O   0  0  0  0  0  0  0  0  0  0  0  0
   15.0450    8.5513    1.7245 O   0  0  0  0  0  0  0  0  0  0  0  0
   15.0522   10.7159    4.6647 O   0  0  0  0  0  0  0  0  0  0  0  0
   13.8314    8.7679    3.8951 C   0  0  0  0  0  0  0  0  0  0  0  0
   15.1230    8.9840    3.0972 C   0  0  0  0  0  0  0  0  0  0  0  0
   14.1699    9.6170    5.1263 C   0  0  0  0  0  0  0  0  0  0  0  0
   15.2789   10.5098    3.2538 C   0  0  0  0  0  0  0  0  0  0  0  0
   12.4784    8.8377    2.4575 H   0  0  0  0  0  0  0  0  0  0  0  0
   14.9481    7.5866    1.6945 H   0  0  0  0  0  0  0  0  0  0  0  0
   18.2805   11.5298   -0.7502 N   0  0  0  0  0  0  0  0  0  0  0  0
   16.9659   11.2687   -0.7604 C   0  0  0  0  0  0  0  0  0  0  0  0
   16.3278   11.0227    0.3844 N   0  0  0  0  0  0  0  0  0  0  0  0
   16.9962   11.0341    1.5748 C   0  0  0  0  0  0  0  0  0  0  0  0
   18.3644   11.3003    1.6113 C   0  0  0  0  0  0  0  0  0  0  0  0
   19.0037   11.5503    0.3998 C   0  0  0  0  0  0  0  0  0  0  0  0
   20.3141   11.8039    0.3892 N   0  0  0  0  0  0  0  0  0  0  0  0
   18.7624   11.2592    2.8814 N   0  0  0  0  0  0  0  0  0  0  0  0
   17.6953   10.9715    3.6325 C   0  0  0  0  0  0  0  0  0  0  0  0
   16.6234   10.8373    2.8424 N   0  0  0  0  0  0  0  0  0  0  0  0
   20.7742   11.9817   -0.4628 H   0  0  0  0  0  0  0  0  0  0  0  0
   20.8206   11.8130    1.2334 H   0  0  0  0  0  0  0  0  0  0  0  0
   14.9253    8.7158    6.1405 C   0  0  0  0  0  0  0  0  0  0  0  0
   14.8889    9.4023    7.8241 S   0  0  0  0  0  0  0  0  0  0  0  0
   13.1685    9.0393    8.3987 C   0  0  0  0  0  0  0  0  0  0  0  0
   12.8800    9.7320    9.7537 C   0  0  0  0  0  0  0  0  0  0  0  0
   12.1925   12.1254    9.3264 O   0  0  0  0  0  0  0  0  0  0  0  0
   13.2774   11.2216    9.7884 C   0  0  0  0  0  0  0  0  0  0  0  0
   12.4975   13.0452    9.3696 H   0  0  0  0  0  0  0  0  0  0  0  0
   15.2057   11.7378   11.3033 O   0  0  0  0  0  0  0  0  0  0  0  0
   13.7686   11.5778   11.2204 C   0  0  0  0  0  0  0  0  0  0  0  0
   15.4544   11.9582   12.2146 H   0  0  0  0  0  0  0  0  0  0  0  0
 10 11  2  0  0  0
 10 15  1  0  0  0
 11 12  1  0  0  0
 12 13  2  0  0  0
 13 14  1  0  0  0
 13 19  1  0  0  0
 14 15  2  0  0  0
 14 17  1  0  0  0
 15 16  1  0  0  0
 17 18  2  0  0  0
 18 19  1  0  0  0
 19  7  1  0  0  0
 29 30  1  0  0  0
 26 27  1  0  0  0
  1  4  1  0  0  0
  2  5  1  0  0  0
 30 27  1  0  0  0
 24 25  1  0  0  0
 24 23  1  0  0  0
 25 27  1  0  0  0
 22 23  1  0  0  0
 22  6  1  0  0  0
  3  6  1  0  0  0
  3  7  1  0  0  0
  4  5  1  0  0  0
  4  6  1  0  0  0
  5  7  1  0  0  0
 16 20  1  0  0  0
 16 21  1  0  0  0
 29 31  1  0  0  0
 26 28  1  0  0  0
  1  8  1  0  0  0
  2  9  1  0  0  0
M  END
> <minimizedAffinity>
-8.40829

$$$$
3IOE_A7D_A_901


 31 33  0  0  0  0  0  0  0  0999 V2000
   17.6496    9.9283    1.0659 O   0  0  0  0  0  0  0  0  0  0  0  0
   16.2829   11.5399   -0.9202 O   0  0  0  0  0  0  0  0  0  0  0  0
   14.8414    8.7279    0.9087 O   0  0  0  0  0  0  0  0  0  0  0  0
   16.3920   10.5354    1.3624 C   0  0  0  0  0  0  0  0  0  0  0  0
   15.5781   10.7881    0.0876 C   0  0  0  0  0  0  0  0  0  0  0  0
   15.4918    9.4768    2.0110 C   0  0  0  0  0  0  0  0  0  0  0  0
   15.2771    9.3340   -0.3271 C   0  0  0  0  0  0  0  0  0  0  0  0
   18.2353   10.5826    0.6540 H   0  0  0  0  0  0  0  0  0  0  0  0
   16.4410   12.4416   -0.5994 H   0  0  0  0  0  0  0  0  0  0  0  0
   14.3232    9.7210   -5.3293 N   0  0  0  0  0  0  0  0  0  0  0  0
   15.5197    9.6804   -4.7267 C   0  0  0  0  0  0  0  0  0  0  0  0
   15.5927    9.5750   -3.3994 N   0  0  0  0  0  0  0  0  0  0  0  0
   14.4606    9.5058   -2.6395 C   0  0  0  0  0  0  0  0  0  0  0  0
   13.2042    9.5489   -3.2426 C   0  0  0  0  0  0  0  0  0  0  0  0
   13.1600    9.6623   -4.6297 C   0  0  0  0  0  0  0  0  0  0  0  0
   11.9775    9.7128   -5.2468 N   0  0  0  0  0  0  0  0  0  0  0  0
   12.2809    9.4559   -2.2875 N   0  0  0  0  0  0  0  0  0  0  0  0
   12.9164    9.3635   -1.1156 C   0  0  0  0  0  0  0  0  0  0  0  0
   14.2375    9.3909   -1.3273 N   0  0  0  0  0  0  0  0  0  0  0  0
   11.9370    9.7929   -6.2272 H   0  0  0  0  0  0  0  0  0  0  0  0
   11.1459    9.6699   -4.7216 H   0  0  0  0  0  0  0  0  0  0  0  0
   14.4208   10.2110    2.8626 C   0  0  0  0  0  0  0  0  0  0  0  0
   15.0668   10.7159    4.4858 S   0  0  0  0  0  0  0  0  0  0  0  0
   14.8692    9.1942    5.5189 C   0  0  0  0  0  0  0  0  0  0  0  0
   13.7571    9.3862    6.5798 C   0  0  0  0  0  0  0  0  0  0  0  0
   13.4299   11.0995    8.4077 O   0  0  0  0  0  0  0  0  0  0  0  0
   14.2633    9.9734    7.9129 C   0  0  0  0  0  0  0  0  0  0  0  0
   13.7937   11.4275    9.2449 H   0  0  0  0  0  0  0  0  0  0  0  0
   15.5232    7.9671    8.7297 O   0  0  0  0  0  0  0  0  0  0  0  0
   14.3791    8.8259    8.9562 C   0  0  0  0  0  0  0  0  0  0  0  0
   15.5453    7.2728    9.4067 H   0  0  0  0  0  0  0  0  0  0  0  0
 10 11  2  0  0  0
 10 15  1  0  0  0
 11 12  1  0  0  0
 12 13  2  0  0  0
 13 14  1  0  0  0
 13 19  1  0  0  0
 14 15  2  0  0  0
 14 17  1  0  0  0
 15 16  1  0  0  0
 17 18  2  0  0  0
 18 19  1  0  0  0
 19  7  1  0  0  0
 29 30  1  0  0  0
 26 27  1  0  0  0
  1  4  1  0  0  0
  2  5  1  0  0  0
 30 27  1  0  0  0
 24 25  1  0  0  0
 24 23  1  0  0  0
 25 27  1  0  0  0
 22 23  1  0  0  0
 22  6  1  0  0  0
  3  6  1  0  0  0
  3  7  1  0  0  0
  4  5  1  0  0  0
  4  6  1  0  0  0
  5  7  1  0  0  0
 16 20  1  0  0  0
 16 21  1  0  0  0
 29 31  1  0  0  0
 26 28  1  0  0  0
  1  8  1  0  0  0
  2  9  1  0  0  0
M  END
> <minimizedAffinity>
-8.32943

$$$$
3IOE_A7D_A_901


 31 33  0  0  0  0  0  0  0  0999 V2000
   19.0236   11.2228    4.2881 O   0  0  0  0  0  0  0  0  0  0  0  0
   17.2430   12.8585    2.6870 O   0  0  0  0  0  0  0  0  0  0  0  0
   17.4440    9.2138    2.6088 O   0  0  0  0  0  0  0  0  0  0  0  0
   17.6190   10.9679    4.2731 C   0  0  0  0  0  0  0  0  0  0  0  0
   16.9725   11.4728    2.9775 C   0  0  0  0  0  0  0  0  0  0  0  0
   17.4092    9.4625    4.0703 C   0  0  0  0  0  0  0  0  0  0  0  0
   17.6071   10.4966    1.9669 C   0  0  0  0  0  0  0  0  0  0  0  0
   19.1787   12.1719    4.4156 H   0  0  0  0  0  0  0  0  0  0  0  0
   16.8183   13.4180    3.3559 H   0  0  0  0  0  0  0  0  0  0  0  0
   13.2671    9.2158   -0.4008 N   0  0  0  0  0  0  0  0  0  0  0  0
   13.6361    8.9089    0.8507 C   0  0  0  0  0  0  0  0  0  0  0  0
   14.8127    9.3271    1.3186 N   0  0  0  0  0  0  0  0  0  0  0  0
   15.6524   10.0690    0.5387 C   0  0  0  0  0  0  0  0  0  0  0  0
   15.2925   10.3988   -0.7674 C   0  0  0  0  0  0  0  0  0  0  0  0
   14.0594    9.9454   -1.2288 C   0  0  0  0  0  0  0  0  0  0  0  0
   13.6785   10.2338   -2.4752 N   0  0  0  0  0  0  0  0  0  0  0  0
   16.2737   11.1258   -1.2983 N   0  0  0  0  0  0  0  0  0  0  0  0
   17.2304   11.2538   -0.3742 C   0  0  0  0  0  0  0  0  0  0  0  0
   16.8544   10.6160    0.7407 N   0  0  0  0  0  0  0  0  0  0  0  0
   12.8084    9.9174   -2.8097 H   0  0  0  0  0  0  0  0  0  0  0  0
   14.2678   10.7630   -3.0600 H   0  0  0  0  0  0  0  0  0  0  0  0
   16.0147    9.0889    4.6426 C   0  0  0  0  0  0  0  0  0  0  0  0
   15.9848    9.1438    6.4599 S   0  0  0  0  0  0  0  0  0  0  0  0
   14.4040   10.0273    6.8369 C   0  0  0  0  0  0  0  0  0  0  0  0
   13.5600    9.2363    7.8671 C   0  0  0  0  0  0  0  0  0  0  0  0
   15.1463    9.7459    9.7665 O   0  0  0  0  0  0  0  0  0  0  0  0
   13.7297    9.7274    9.3190 C   0  0  0  0  0  0  0  0  0  0  0  0
   15.1920   10.0617   10.6825 H   0  0  0  0  0  0  0  0  0  0  0  0
   13.9616   12.1510    9.9124 O   0  0  0  0  0  0  0  0  0  0  0  0
   13.0505   11.1191    9.4619 C   0  0  0  0  0  0  0  0  0  0  0  0
   13.4863   12.9936    9.9832 H   0  0  0  0  0  0  0  0  0  0  0  0
 10 11  2  0  0  0
 10 15  1  0  0  0
 11 12  1  0  0  0
 12 13  2  0  0  0
 13 14  1  0  0  0
 13 19  1  0  0  0
 14 15  2  0  0  0
 14 17  1  0  0  0
 15 16  1  0  0  0
 17 18  2  0  0  0
 18 19  1  0  0  0
 19  7  1  0  0  0
 29 30  1  0  0  0
 26 27  1  0  0  0
  1  4  1  0  0  0
  2  5  1  0  0  0
 30 27  1  0  0  0
 24 25  1  0  0  0
 24 23  1  0  0  0
 25 27  1  0  0  0
 22 23  1  0  0  0
 22  6  1  0  0  0
  3  6  1  0  0  0
  3  7  1  0  0  0
  4  5  1  0  0  0
  4  6  1  0  0  0
  5  7  1  0  0  0
 16 20  1  0  0  0
 16 21  1  0  0  0
 29 31  1  0  0  0
 26 28  1  0  0  0
  1  8  1  0  0  0
  2  9  1  0  0  0
M  END
> <minimizedAffinity>
-8.16464

$$$$
3IOE_A7D_A_901


 31 33  0  0  0  0  0  0  0  0999 V2000
   13.0649    7.2235    1.7225 O   0  0  0  0  0  0  0  0  0  0  0  0
   11.9055    9.0557    3.6482 O   0  0  0  0  0  0  0  0  0  0  0  0
   15.4587    8.7422    2.8691 O   0  0  0  0  0  0  0  0  0  0  0  0
   13.3579    8.6196    1.6654 C   0  0  0  0  0  0  0  0  0  0  0  0
   13.1914    9.2829    3.0379 C   0  0  0  0  0  0  0  0  0  0  0  0
   14.8743    8.7831    1.5068 C   0  0  0  0  0  0  0  0  0  0  0  0
   14.3585    8.6196    3.7960 C   0  0  0  0  0  0  0  0  0  0  0  0
   12.1083    7.0977    1.8229 H   0  0  0  0  0  0  0  0  0  0  0  0
   11.2172    9.4966    3.1260 H   0  0  0  0  0  0  0  0  0  0  0  0
   14.2508    8.4172    8.8979 N   0  0  0  0  0  0  0  0  0  0  0  0
   14.0075    7.4203    8.0356 C   0  0  0  0  0  0  0  0  0  0  0  0
   14.0804    7.6438    6.7230 N   0  0  0  0  0  0  0  0  0  0  0  0
   14.4025    8.8795    6.2401 C   0  0  0  0  0  0  0  0  0  0  0  0
   14.6571    9.9334    7.1168 C   0  0  0  0  0  0  0  0  0  0  0  0
   14.5703    9.6703    8.4814 C   0  0  0  0  0  0  0  0  0  0  0  0
   14.8007   10.6526    9.3553 N   0  0  0  0  0  0  0  0  0  0  0  0
   14.9521   11.0129    6.3951 N   0  0  0  0  0  0  0  0  0  0  0  0
   14.8837   10.6704    5.1052 C   0  0  0  0  0  0  0  0  0  0  0  0
   14.5533    9.3771    5.0095 N   0  0  0  0  0  0  0  0  0  0  0  0
   14.7416   10.4755   10.3219 H   0  0  0  0  0  0  0  0  0  0  0  0
   15.0299   11.5543    9.0332 H   0  0  0  0  0  0  0  0  0  0  0  0
   15.1442   10.1646    0.8511 C   0  0  0  0  0  0  0  0  0  0  0  0
   15.7129   10.0054   -0.8688 S   0  0  0  0  0  0  0  0  0  0  0  0
   14.3842    8.9975   -1.6689 C   0  0  0  0  0  0  0  0  0  0  0  0
   13.6531    9.8144   -2.7631 C   0  0  0  0  0  0  0  0  0  0  0  0
   12.9226    9.5877   -5.1711 O   0  0  0  0  0  0  0  0  0  0  0  0
   14.0340    9.4091   -4.2014 C   0  0  0  0  0  0  0  0  0  0  0  0
   13.2181    9.3184   -6.0549 H   0  0  0  0  0  0  0  0  0  0  0  0
   15.6674    9.9875   -6.0116 O   0  0  0  0  0  0  0  0  0  0  0  0
   15.3116   10.1896   -4.6223 C   0  0  0  0  0  0  0  0  0  0  0  0
   16.4678   10.4955   -6.2176 H   0  0  0  0  0  0  0  0  0  0  0  0
 10 11  2  0  0  0
 10 15  1  0  0  0
 11 12  1  0  0  0
 12 13  2  0  0  0
 13 14  1  0  0  0
 13 19  1  0  0  0
 14 15  2  0  0  0
 14 17  1  0  0  0
 15 16  1  0  0  0
 17 18  2  0  0  0
 18 19  1  0  0  0
 19  7  1  0  0  0
 29 30  1  0  0  0
 26 27  1  0  0  0
  1  4  1  0  0  0
  2  5  1  0  0  0
 30 27  1  0  0  0
 24 25  1  0  0  0
 24 23  1  0  0  0
 25 27  1  0  0  0
 22 23  1  0  0  0
 22  6  1  0  0  0
  3  6  1  0  0  0
  3  7  1  0  0  0
  4  5  1  0  0  0
  4  6  1  0  0  0
  5  7  1  0  0  0
 16 20  1  0  0  0
 16 21  1  0  0  0
 29 31  1  0  0  0
 26 28  1  0  0  0
  1  8  1  0  0  0
  2  9  1  0  0  0
M  END
> <minimizedAffinity>
-7.81003

$$$$
3IOE_A7D_A_901


 31 33  0  0  0  0  0  0  0  0999 V2000
   12.3422    9.0433    4.0480 O   0  0  0  0  0  0  0  0  0  0  0  0
   13.2559    7.4276    1.8198 O   0  0  0  0  0  0  0  0  0  0  0  0
   13.9790   10.9702    2.3276 O   0  0  0  0  0  0  0  0  0  0  0  0
   13.7276    8.9924    3.7068 C   0  0  0  0  0  0  0  0  0  0  0  0
   13.9272    8.6359    2.2287 C   0  0  0  0  0  0  0  0  0  0  0  0
   14.2653   10.4282    3.6778 C   0  0  0  0  0  0  0  0  0  0  0  0
   13.3590    9.9088    1.5702 C   0  0  0  0  0  0  0  0  0  0  0  0
   11.9818    8.1431    4.0718 H   0  0  0  0  0  0  0  0  0  0  0  0
   13.6584    6.6669    2.2672 H   0  0  0  0  0  0  0  0  0  0  0  0
   17.1497   11.0169   -1.6678 N   0  0  0  0  0  0  0  0  0  0  0  0
   17.1387   11.1781   -0.3372 C   0  0  0  0  0  0  0  0  0  0  0  0
   16.0591   10.8334    0.3655 N   0  0  0  0  0  0  0  0  0  0  0  0
   14.9581   10.3140   -0.2524 C   0  0  0  0  0  0  0  0  0  0  0  0
   14.9440   10.1392   -1.6357 C   0  0  0  0  0  0  0  0  0  0  0  0
   16.0845   10.5111   -2.3427 C   0  0  0  0  0  0  0  0  0  0  0  0
   16.1109   10.3659   -3.6693 N   0  0  0  0  0  0  0  0  0  0  0  0
   13.7687    9.6143   -1.9767 N   0  0  0  0  0  0  0  0  0  0  0  0
   13.0516    9.4631   -0.8593 C   0  0  0  0  0  0  0  0  0  0  0  0
   13.7720    9.8843    0.1870 N   0  0  0  0  0  0  0  0  0  0  0  0
   16.9131   10.6262   -4.1771 H   0  0  0  0  0  0  0  0  0  0  0  0
   15.3281    9.9984   -4.1399 H   0  0  0  0  0  0  0  0  0  0  0  0
   15.7986   10.3735    3.9173 C   0  0  0  0  0  0  0  0  0  0  0  0
   16.2090    9.7754    5.5849 S   0  0  0  0  0  0  0  0  0  0  0  0
   14.7815   10.3508    6.6109 C   0  0  0  0  0  0  0  0  0  0  0  0
   14.2408    9.2033    7.4997 C   0  0  0  0  0  0  0  0  0  0  0  0
   15.3746    9.6592    9.7111 O   0  0  0  0  0  0  0  0  0  0  0  0
   14.0806    9.5885    8.9844 C   0  0  0  0  0  0  0  0  0  0  0  0
   15.2132    9.9044   10.6357 H   0  0  0  0  0  0  0  0  0  0  0  0
   14.0315   11.9881    9.7048 O   0  0  0  0  0  0  0  0  0  0  0  0
   13.2825   10.9201    9.0753 C   0  0  0  0  0  0  0  0  0  0  0  0
   13.4875   12.7907    9.7343 H   0  0  0  0  0  0  0  0  0  0  0  0
 10 11  2  0  0  0
 10 15  1  0  0  0
 11 12  1  0  0  0
 12 13  2  0  0  0
 13 14  1  0  0  0
 13 19  1  0  0  0
 14 15  2  0  0  0
 14 17  1  0  0  0
 15 16  1  0  0  0
 17 18  2  0  0  0
 18 19  1  0  0  0
 19  7  1  0  0  0
 29 30  1  0  0  0
 26 27  1  0  0  0
  1  4  1  0  0  0
  2  5  1  0  0  0
 30 27  1  0  0  0
 24 25  1  0  0  0
 24 23  1  0  0  0
 25 27  1  0  0  0
 22 23  1  0  0  0
 22  6  1  0  0  0
  3  6  1  0  0  0
  3  7  1  0  0  0
  4  5  1  0  0  0
  4  6  1  0  0  0
  5  7  1  0  0  0
 16 20  1  0  0  0
 16 21  1  0  0  0
 29 31  1  0  0  0
 26 28  1  0  0  0
  1  8  1  0  0  0
  2  9  1  0  0  0
M  END
> <minimizedAffinity>
-7.72445

$$$$
3IOE_A7D_A_901


 31 33  0  0  0  0  0  0  0  0999 V2000
   19.1005   12.5529    0.4742 O   0  0  0  0  0  0  0  0  0  0  0  0
   19.8867   10.3622    2.2040 O   0  0  0  0  0  0  0  0  0  0  0  0
   16.4741   11.5476    1.6755 O   0  0  0  0  0  0  0  0  0  0  0  0
   18.4846   11.2710    0.3494 C   0  0  0  0  0  0  0  0  0  0  0  0
   18.5558   10.4855    1.6645 C   0  0  0  0  0  0  0  0  0  0  0  0
   16.9665   11.4755    0.2786 C   0  0  0  0  0  0  0  0  0  0  0  0
   17.6153   11.3419    2.5357 C   0  0  0  0  0  0  0  0  0  0  0  0
   20.0635   12.4459    0.5207 H   0  0  0  0  0  0  0  0  0  0  0  0
   20.4260    9.8146    1.6123 H   0  0  0  0  0  0  0  0  0  0  0  0
   13.9587    8.7224    4.9543 N   0  0  0  0  0  0  0  0  0  0  0  0
   13.8688    9.3499    3.7733 C   0  0  0  0  0  0  0  0  0  0  0  0
   14.9280    9.9916    3.2789 N   0  0  0  0  0  0  0  0  0  0  0  0
   16.1109   10.0187    3.9601 C   0  0  0  0  0  0  0  0  0  0  0  0
   16.2286    9.3760    5.1920 C   0  0  0  0  0  0  0  0  0  0  0  0
   15.1049    8.7171    5.6837 C   0  0  0  0  0  0  0  0  0  0  0  0
   15.1727    8.0938    6.8621 N   0  0  0  0  0  0  0  0  0  0  0  0
   17.4734    9.5471    5.6331 N   0  0  0  0  0  0  0  0  0  0  0  0
   18.1295   10.2763    4.7256 C   0  0  0  0  0  0  0  0  0  0  0  0
   17.3059   10.5608    3.7098 N   0  0  0  0  0  0  0  0  0  0  0  0
   14.3830    7.6254    7.2174 H   0  0  0  0  0  0  0  0  0  0  0  0
   16.0124    8.1026    7.3760 H   0  0  0  0  0  0  0  0  0  0  0  0
   16.3479   10.2474   -0.4430 C   0  0  0  0  0  0  0  0  0  0  0  0
   14.5300   10.2828   -0.4154 S   0  0  0  0  0  0  0  0  0  0  0  0
   14.0566    9.0231   -1.6845 C   0  0  0  0  0  0  0  0  0  0  0  0
   13.2063    9.6636   -2.8096 C   0  0  0  0  0  0  0  0  0  0  0  0
   12.5814    9.5051   -5.2525 O   0  0  0  0  0  0  0  0  0  0  0  0
   13.6220    9.2274   -4.2291 C   0  0  0  0  0  0  0  0  0  0  0  0
   12.8962    9.2114   -6.1217 H   0  0  0  0  0  0  0  0  0  0  0  0
   15.0929   10.2544   -5.9787 O   0  0  0  0  0  0  0  0  0  0  0  0
   14.9835    9.8915   -4.5808 C   0  0  0  0  0  0  0  0  0  0  0  0
   15.9580   10.6623   -6.1401 H   0  0  0  0  0  0  0  0  0  0  0  0
 10 11  2  0  0  0
 10 15  1  0  0  0
 11 12  1  0  0  0
 12 13  2  0  0  0
 13 14  1  0  0  0
 13 19  1  0  0  0
 14 15  2  0  0  0
 14 17  1  0  0  0
 15 16  1  0  0  0
 17 18  2  0  0  0
 18 19  1  0  0  0
 19  7  1  0  0  0
 29 30  1  0  0  0
 26 27  1  0  0  0
  1  4  1  0  0  0
  2  5  1  0  0  0
 30 27  1  0  0  0
 24 25  1  0  0  0
 24 23  1  0  0  0
 25 27  1  0  0  0
 22 23  1  0  0  0
 22  6  1  0  0  0
  3  6  1  0  0  0
  3  7  1  0  0  0
  4  5  1  0  0  0
  4  6  1  0  0  0
  5  7  1  0  0  0
 16 20  1  0  0  0
 16 21  1  0  0  0
 29 31  1  0  0  0
 26 28  1  0  0  0
  1  8  1  0  0  0
  2  9  1  0  0  0
M  END
> <minimizedAffinity>
-7.55819

$$$$
