1FKF_FK5_A_108
  RCSB PDB12061702303D
Coordinates from PDB:1FKF:A:108 Model:1 without hydrogens
 57 60  0  0  0  0            999 V2000
   19.9640   28.6220   21.7930   C 0  0  0  0  0  0  0  0  0  0  0  0
   18.5910   29.2420   21.9360   C 0  0  0  0  0  0  0  0  0  0  0  0
   17.9380   29.3520   20.5600   C 0  0  0  0  0  0  0  0  0  0  0  0
   18.5160   30.5100   19.7600   C 0  0  0  0  0  0  0  0  0  0  0  0
   18.2610   31.8130   20.4910   C 0  0  0  0  0  0  0  0  0  0  0  0
   18.9790   31.7220   21.8230   C 0  0  0  0  0  0  0  0  0  0  0  0
   17.8950   30.6410   23.7950   C 0  0  0  0  0  0  0  0  0  0  0  0
   17.7270   31.9530   24.5080   C 0  0  0  0  0  0  0  0  0  0  0  0
   18.8060   32.4190   25.5090   C 0  0  0  0  0  0  0  0  0  0  0  0
   19.4320   31.2870   26.3300   C 0  0  0  0  0  0  0  0  0  0  0  0
   20.7730   31.7490   26.9050   C 0  0  0  0  0  0  0  0  0  0  0  0
   21.7070   32.4720   25.8960   C 0  0  0  0  0  0  0  0  0  0  0  0
   20.8790   33.6410   25.2510   C 0  0  0  0  0  0  0  0  0  0  0  0
   21.5660   34.5170   24.1940   C 0  0  0  0  0  0  0  0  0  0  0  0
   22.4060   33.6820   23.2140   C 0  0  0  0  0  0  0  0  0  0  0  0
   22.9260   34.3970   21.9400   C 0  0  0  0  0  0  0  0  0  0  0  0
   24.3210   34.9710   22.2430   C 0  0  0  0  0  0  0  0  0  0  0  0
   25.4080   33.9470   22.0600   C 0  0  0  0  0  0  0  0  0  0  0  0
   25.8990   33.3360   23.1300   C 0  0  0  0  0  0  0  0  0  0  0  0
   26.9510   32.2370   23.1200   C 0  0  0  0  0  0  0  0  0  0  0  0
   26.2180   30.9100   23.2540   C 0  0  0  0  0  0  0  0  0  0  0  0
   25.8400   30.2250   21.9470   C 0  0  0  0  0  0  0  0  0  0  0  0
   24.7690   29.1740   22.0980   C 0  0  0  0  0  0  0  0  0  0  0  0
   23.3240   29.8180   22.1860   C 0  0  0  0  0  0  0  0  0  0  0  0
   22.2610   28.6870   22.3830   C 0  0  0  0  0  0  0  0  0  0  0  0
   22.5700   27.8480   23.6200   C 0  0  0  0  0  0  0  0  0  0  0  0
   22.8810   26.5760   23.4040   C 0  0  0  0  0  0  0  0  0  0  0  0
   23.3210   25.6110   24.4740   C 0  0  0  0  0  0  0  0  0  0  0  0
   22.4380   24.3560   24.4770   C 0  0  0  0  0  0  0  0  0  0  0  0
   22.9750   23.1330   25.2060   C 0  0  0  0  0  0  0  0  0  0  0  0
   24.4100   22.9100   24.7880   C 0  0  0  0  0  0  0  0  0  0  0  0
   25.2350   24.1580   25.0320   C 0  0  0  0  0  0  0  0  0  0  0  0
   24.7350   25.2290   24.0860   C 0  0  0  0  0  0  0  0  0  0  0  0
   18.5230   30.8230   27.4590   C 0  0  0  0  0  0  0  0  0  0  0  0
   21.9960   35.5410   21.5020   C 0  0  0  0  0  0  0  0  0  0  0  0
   25.8170   33.7330   20.5880   C 0  0  0  0  0  0  0  0  0  0  0  0
   27.9510   32.4400   24.3030   C 0  0  0  0  0  0  0  0  0  0  0  0
   29.0060   31.3510   24.5630   C 0  0  0  0  0  0  0  0  0  0  0  0
   29.7520   30.7690   23.6420   C 0  0  0  0  0  0  0  0  0  0  0  0
   22.9720   30.6050   20.8880   C 0  0  0  0  0  0  0  0  0  0  0  0
   22.4990   28.5170   25.0010   C 0  0  0  0  0  0  0  0  0  0  0  0
   24.0480   32.0940   26.5080   C 0  0  0  0  0  0  0  0  0  0  0  0
   21.6490   36.6540   25.3160   C 0  0  0  0  0  0  0  0  0  0  0  0
   21.1770   21.6790   25.9230   C 0  0  0  0  0  0  0  0  0  0  0  0
   18.4770   30.5550   22.5810   N 0  0  0  0  0  0  0  0  0  0  0  0
   20.9240   29.2730   22.4600   O 0  0  0  0  0  0  0  0  0  0  0  0
   20.1220   27.6470   21.0710   O 0  0  0  0  0  0  0  0  0  0  0  0
   17.4580   29.6280   24.3760   O 0  0  0  0  0  0  0  0  0  0  0  0
   16.7190   32.6250   24.2810   O 0  0  0  0  0  0  0  0  0  0  0  0
   19.7730   33.0000   24.6040   O 0  0  0  0  0  0  0  0  0  0  0  0
   18.3300   33.4250   26.3710   O 0  0  0  0  0  0  0  0  0  0  0  0
   22.9130   32.9900   26.5240   O 0  0  0  0  0  0  0  0  0  0  0  0
   22.3750   35.4860   24.8800   O 0  0  0  0  0  0  0  0  0  0  0  0
   25.9310   30.4410   24.3640   O 0  0  0  0  0  0  0  0  0  0  0  0
   24.8450   28.2870   20.9730   O 0  0  0  0  0  0  0  0  0  0  0  0
   22.2310   21.9230   24.9790   O 0  0  0  0  0  0  0  0  0  0  0  0
   24.8980   21.8360   25.5700   O 0  0  0  0  0  0  0  0  0  0  0  0
  1  2  1  0  0  0  0
  1 46  1  0  0  0  0
  1 47  2  0  0  0  0
  2  3  1  0  0  0  0
  2 45  1  0  0  0  0
  3  4  1  0  0  0  0
  4  5  1  0  0  0  0
  5  6  1  0  0  0  0
  6 45  1  0  0  0  0
  7  8  1  0  0  0  0
  7 45  1  0  0  0  0
  7 48  2  0  0  0  0
  8  9  1  0  0  0  0
  8 49  2  0  0  0  0
  9 10  1  0  0  0  0
  9 50  1  0  0  0  0
  9 51  1  0  0  0  0
 10 11  1  0  0  0  0
 10 34  1  0  0  0  0
 11 12  1  0  0  0  0
 12 13  1  0  0  0  0
 12 52  1  0  0  0  0
 13 14  1  0  0  0  0
 13 50  1  0  0  0  0
 14 15  1  0  0  0  0
 14 53  1  0  0  0  0
 15 16  1  0  0  0  0
 16 17  1  0  0  0  0
 16 35  1  0  0  0  0
 17 18  1  0  0  0  0
 18 19  2  0  0  0  0
 18 36  1  0  0  0  0
 19 20  1  0  0  0  0
 20 21  1  0  0  0  0
 20 37  1  0  0  0  0
 21 22  1  0  0  0  0
 21 54  2  0  0  0  0
 22 23  1  0  0  0  0
 23 24  1  0  0  0  0
 23 55  1  0  0  0  0
 24 25  1  0  0  0  0
 24 40  1  0  0  0  0
 25 26  1  0  0  0  0
 25 46  1  0  0  0  0
 26 27  2  0  0  0  0
 26 41  1  0  0  0  0
 27 28  1  0  0  0  0
 28 29  1  0  0  0  0
 28 33  1  0  0  0  0
 29 30  1  0  0  0  0
 30 31  1  0  0  0  0
 30 56  1  0  0  0  0
 31 32  1  0  0  0  0
 31 57  1  0  0  0  0
 32 33  1  0  0  0  0
 37 38  1  0  0  0  0
 38 39  2  0  0  0  0
 42 52  1  0  0  0  0
 43 53  1  0  0  0  0
 44 56  1  0  0  0  0
A    1
C1
A    2
C2
A    3
C3
A    4
C4
A    5
C5
A    6
C6
A    7
C8
A    8
C9
A    9
C10
A   10
C11
A   11
C12
A   12
C13
A   13
C14
A   14
C15
A   15
C16
A   16
C17
A   17
C18
A   18
C19
A   19
C20
A   20
C21
A   21
C22
A   22
C23
A   23
C24
A   24
C25
A   25
C26
A   26
C27
A   27
C28
A   28
C29
A   29
C30
A   30
C31
A   31
C32
A   32
C33
A   33
C34
A   34
C35
A   35
C36
A   36
C37
A   37
C38
A   38
C39
A   39
C40
A   40
C41
A   41
C42
A   42
C43
A   43
C44
A   44
C45
A   45
N7
A   46
O1
A   47
O2
A   48
O3
A   49
O4
A   50
O5
A   51
O6
A   52
O7
A   53
O8
A   54
O9
A   55
O10
A   56
O11
A   57
O12
M  END
>  <InstanceId>
1FKF_FK5_A_108

>  <ChemCompId>
FK5

>  <PdbId>
1FKF

>  <ChainId>
A

>  <ResidueNumber>
108

>  <InsertionCode>


>  <Model>
1

>  <AltIds>


>  <MissingHeavyAtoms>
0

>  <ObservedFormula>
C44 N O12

>  <Name>
8-DEETHYL-8-[BUT-3-ENYL]-ASCOMYCIN

>  <SystematicName>


>  <Synonyms>
K506

>  <Type>
NON-POLYMER

>  <Formula>
C44 H69 N O12

>  <MolecularWeight>
804.018

>  <ModifiedDate>
2011-06-04

>  <Parent>


>  <OneLetterCode>


>  <SubcomponentList>


>  <AmbiguousFlag>
N

>  <InChI>
InChI=1S/C44H69NO12/c1-10-13-31-19-25(2)18-26(3)20-37(54-8)40-38(55-9)22-28(5)44(52,57-40)41(49)42(50)45-17-12-11-14-32(45)43(51)56-39(29(6)34(47)24-35(31)48)27(4)21-30-15-16-33(46)36(23-30)53-7/h10,19,21,26,28-34,36-40,46-47,52H,1,11-18,20,22-24H2,2-9H3/b25-19+,27-21+/t26-,28+,29+,30-,31+,32-,33+,34-,36+,37-,38-,39+,40+,44+/m0/s1

>  <InChIKey>
QJJXYPPXXYFBGM-LFZNUXCKSA-N

>  <SMILES>
C[C@@H]1C[C@@H]([C@@H]2[C@H](C[C@H]([C@@](O2)(C(=O)C(=O)N3CCCC[C@H]3C(=O)O[C@@H]([C@@H]([C@H](CC(=O)[C@@H](\C=C(\C1)/C)CC=C)O)C)/C(=C/[C@@H]4CC[C@H]([C@@H](C4)OC)O)/C)O)C)OC)OC

$$$$
