5AML_51J_A_266
  RCSB PDB12061716513D
Coordinates from PDB:5AML:A:266 Model:1 without hydrogens
 21 21  0  0  0  0            999 V2000
   -6.2510    5.9320   14.9740   O 0  0  0  0  0  0  0  0  0  0  0  0
   -5.6280    5.5060   13.7570   S 0  0  0  0  0  0  0  0  0  0  0  0
   -6.3120    5.7830   12.5660   O 0  0  0  0  0  0  0  0  0  0  0  0
   -4.2310    6.3380   13.6400   N 0  0  0  0  0  0  0  0  0  0  0  0
   -3.3990    6.3880   14.8350   C 0  0  0  0  0  0  0  0  0  0  0  0
   -2.4740    7.5090   14.7990   C 0  0  0  0  0  0  0  0  0  0  0  0
   -1.7400    8.4230   14.7690   C 0  0  0  0  0  0  0  0  0  0  0  0
   -0.8400    9.5600   14.7250   C 0  0  0  0  0  0  0  0  0  0  0  0
   -5.2670    3.8860   13.8640   C 0  0  0  0  0  0  0  0  0  0  0  0
   -4.5170    3.1520   12.8300   C 0  0  0  0  0  0  0  0  0  0  0  0
   -4.3040    1.8020   13.0520   C 0  0  0  0  0  0  0  0  0  0  0  0
   -4.1150    3.7680   11.5380   C 0  0  0  0  0  0  0  0  0  0  0  0
   -4.5970    3.3040   10.4770   O 0  0  0  0  0  0  0  0  0  0  0  0
   -3.3490    4.7410   11.5530   O 0  0  0  0  0  0  0  0  0  0  0  0
   -5.6790    3.1550   15.0090   C 0  0  0  0  0  0  0  0  0  0  0  0
   -5.3640    1.7980   15.2430   C 0  0  0  0  0  0  0  0  0  0  0  0
   -4.6860    1.1370   14.1970   C 0  0  0  0  0  0  0  0  0  0  0  0
   -5.9180    0.9820   16.6330   S 0  0  0  0  0  0  0  0  0  0  0  0
   -7.3430    1.3090   16.7330   O 0  0  0  0  0  0  0  0  0  0  0  0
   -5.0780    1.3780   17.7110   O 0  0  0  0  0  0  0  0  0  0  0  0
   -5.7290   -0.5660   16.4200   N 0  0  0  0  0  0  0  0  0  0  0  0
  1  2  2  0  0  0  0
  2  3  2  0  0  0  0
  2  4  1  0  0  0  0
  2  9  1  0  0  0  0
  4  5  1  0  0  0  0
  5  6  1  0  0  0  0
  6  7  3  0  0  0  0
  7  8  1  0  0  0  0
  9 10  1  0  0  0  0
  9 15  2  0  0  0  0
 10 11  2  0  0  0  0
 10 12  1  0  0  0  0
 11 17  1  0  0  0  0
 12 13  1  0  0  0  0
 12 14  2  0  0  0  0
 15 16  1  0  0  0  0
 16 17  2  0  0  0  0
 16 18  1  0  0  0  0
 18 19  2  0  0  0  0
 18 20  2  0  0  0  0
 18 21  1  0  0  0  0
A    1
O14
A    2
S13
A    3
O15
A    4
N16
A    5
C19
A    6
C20
A    7
C21
A    8
C29
A    9
C11
A   10
C10
A   11
C9
A   12
C17
A   13
O17
A   14
O18
A   15
C12
A   16
C7
A   17
C8
A   18
S1
A   19
O6
A   20
O5
A   21
N7
M  END
>  <InstanceId>
5AML_51J_A_266

>  <ChemCompId>
51J

>  <PdbId>
5AML

>  <ChainId>
A

>  <ResidueNumber>
266

>  <InsertionCode>


>  <Model>
1

>  <AltIds>


>  <MissingHeavyAtoms>
0

>  <ObservedFormula>
C11 N2 O6 S2

>  <Name>
2-(BUT-2-YN-1-YLSULFAMOYL)-4-SULFAMOYLBENZOIC ACID

>  <SystematicName>
2-(but-2-ynylsulfamoyl)-4-sulfamoyl-benzoic acid

>  <Synonyms>


>  <Type>
non-polymer

>  <Formula>
C11 H12 N2 O6 S2

>  <MolecularWeight>
332.353

>  <ModifiedDate>
2015-04-03

>  <Parent>


>  <OneLetterCode>


>  <SubcomponentList>


>  <AmbiguousFlag>
N

>  <InChI>
InChI=1S/C11H12N2O6S2/c1-2-3-6-13-21(18,19)10-7-8(20(12,16)17)4-5-9(10)11(14)15/h4-5,7,13H,6H2,1H3,(H,14,15)(H2,12,16,17)

>  <InChIKey>
GHPHHBCAYUNOIJ-UHFFFAOYSA-N

>  <SMILES>
CC#CCNS(=O)(=O)c1cc(ccc1C(=O)O)S(=O)(=O)N

$$$$
