4GKM_683_A_404


 23 24  0  0  0  0  0  0  0  0999 V2000
  -26.9506  -27.9374    7.6052 N   0  0  0  0  0  0  0  0  0  0  0  0
  -27.0480  -27.3545    8.3926 H   0  0  0  0  0  0  0  0  0  0  0  0
  -27.9688  -30.1421    7.7039 C   0  0  0  0  0  0  0  0  0  0  0  0
  -27.8954  -31.5101    7.9490 C   0  0  0  0  0  0  0  0  0  0  0  0
  -26.6908  -32.0815    8.3275 C   0  0  0  0  0  0  0  0  0  0  0  0
  -26.5926  -33.5482    8.5821 C   0  0  0  0  0  0  0  0  0  0  0  0
  -25.5631  -31.2943    8.4758 C   0  0  0  0  0  0  0  0  0  0  0  0
  -25.6410  -29.9328    8.2456 C   0  0  0  0  0  0  0  0  0  0  0  0
  -26.8327  -29.3462    7.8474 C   0  0  0  0  0  0  0  0  0  0  0  0
  -29.6908  -29.6892    6.1105 O   0  0  0  0  0  0  0  0  0  0  0  0
  -29.2618  -29.5290    7.2857 C   0  0  0  0  0  0  0  0  0  0  0  0
  -29.9370  -28.8596    8.1139 O   0  0  0  0  0  0  0  0  0  0  0  0
  -29.6207  -28.7390    8.9876 H   0  0  0  0  0  0  0  0  0  0  0  0
  -26.9396  -27.3011    6.3203 C   0  0  0  0  0  0  0  0  0  0  0  0
  -26.2423  -27.8328    5.2445 C   0  0  0  0  0  0  0  0  0  0  0  0
  -26.2394  -27.2055    4.0104 C   0  0  0  0  0  0  0  0  0  0  0  0
  -26.9668  -26.0403    3.8460 C   0  0  0  0  0  0  0  0  0  0  0  0
  -27.6839  -25.5066    4.9042 C   0  0  0  0  0  0  0  0  0  0  0  0
  -27.6775  -26.1333    6.1444 C   0  0  0  0  0  0  0  0  0  0  0  0
  -28.4527  -25.5236    7.2661 C   0  0  0  0  0  0  0  0  0  0  0  0
  -29.5482  -26.0396    7.6167 O   0  0  0  0  0  0  0  0  0  0  0  0
  -28.0325  -24.4930    7.8538 O   0  0  0  0  0  0  0  0  0  0  0  0
  -27.2189  -24.1059    7.5966 H   0  0  0  0  0  0  0  0  0  0  0  0
 21 20  2  0  0  0
 22 20  1  0  0  0
 20 19  1  0  0  0
 10 11  2  0  0  0
 11  3  1  0  0  0
 11 12  1  0  0  0
  1  9  1  0  0  0
  1 14  1  0  0  0
 19 18  2  0  0  0
 19 14  1  0  0  0
  3  9  2  0  0  0
  3  4  1  0  0  0
  9  8  1  0  0  0
  4  5  2  0  0  0
  8  7  2  0  0  0
 18 17  1  0  0  0
 14 15  2  0  0  0
  5  7  1  0  0  0
  5  6  1  0  0  0
 17 16  2  0  0  0
 15 16  1  0  0  0
 12 13  1  0  0  0
  1  2  1  0  0  0
 22 23  1  0  0  0
M  END
> <minimizedAffinity>
-8.93216

$$$$
4GKM_683_A_404


 23 24  0  0  0  0  0  0  0  0999 V2000
  -27.0179  -28.0805    7.6611 N   0  0  0  0  0  0  0  0  0  0  0  0
  -27.1327  -27.5195    8.4619 H   0  0  0  0  0  0  0  0  0  0  0  0
  -27.7710  -26.2332    6.2727 C   0  0  0  0  0  0  0  0  0  0  0  0
  -27.8311  -25.5713    5.0499 C   0  0  0  0  0  0  0  0  0  0  0  0
  -27.1582  -26.0838    3.9520 C   0  0  0  0  0  0  0  0  0  0  0  0
  -27.2025  -25.3800    2.6374 C   0  0  0  0  0  0  0  0  0  0  0  0
  -26.4376  -27.2593    4.0637 C   0  0  0  0  0  0  0  0  0  0  0  0
  -26.3905  -27.9234    5.2760 C   0  0  0  0  0  0  0  0  0  0  0  0
  -27.0412  -27.4157    6.3903 C   0  0  0  0  0  0  0  0  0  0  0  0
  -29.4901  -26.2721    7.9318 O   0  0  0  0  0  0  0  0  0  0  0  0
  -28.4853  -25.6759    7.4567 C   0  0  0  0  0  0  0  0  0  0  0  0
  -28.0752  -24.6119    7.9948 O   0  0  0  0  0  0  0  0  0  0  0  0
  -27.3290  -24.1669    7.6439 H   0  0  0  0  0  0  0  0  0  0  0  0
  -26.8428  -29.4881    7.8708 C   0  0  0  0  0  0  0  0  0  0  0  0
  -25.6204  -30.0271    8.2468 C   0  0  0  0  0  0  0  0  0  0  0  0
  -25.4663  -31.3888    8.4435 C   0  0  0  0  0  0  0  0  0  0  0  0
  -26.5609  -32.2197    8.2844 C   0  0  0  0  0  0  0  0  0  0  0  0
  -27.7927  -31.6958    7.9282 C   0  0  0  0  0  0  0  0  0  0  0  0
  -27.9423  -30.3297    7.7223 C   0  0  0  0  0  0  0  0  0  0  0  0
  -29.2822  -29.8009    7.3278 C   0  0  0  0  0  0  0  0  0  0  0  0
  -29.6988  -29.9794    6.1514 O   0  0  0  0  0  0  0  0  0  0  0  0
  -29.9921  -29.1667    8.1512 O   0  0  0  0  0  0  0  0  0  0  0  0
  -29.6866  -29.0316    9.0266 H   0  0  0  0  0  0  0  0  0  0  0  0
 21 20  2  0  0  0
 22 20  1  0  0  0
 20 19  1  0  0  0
 10 11  2  0  0  0
 11  3  1  0  0  0
 11 12  1  0  0  0
  1  9  1  0  0  0
  1 14  1  0  0  0
 19 18  2  0  0  0
 19 14  1  0  0  0
  3  9  2  0  0  0
  3  4  1  0  0  0
  9  8  1  0  0  0
  4  5  2  0  0  0
  8  7  2  0  0  0
 18 17  1  0  0  0
 14 15  2  0  0  0
  5  7  1  0  0  0
  5  6  1  0  0  0
 17 16  2  0  0  0
 15 16  1  0  0  0
 12 13  1  0  0  0
  1  2  1  0  0  0
 22 23  1  0  0  0
M  END
> <minimizedAffinity>
-8.85419

$$$$
4GKM_683_A_404


 23 24  0  0  0  0  0  0  0  0999 V2000
  -27.4153  -31.9701    7.1405 N   0  0  0  0  0  0  0  0  0  0  0  0
  -27.6158  -31.9584    6.1768 H   0  0  0  0  0  0  0  0  0  0  0  0
  -27.7318  -29.6468    7.7801 C   0  0  0  0  0  0  0  0  0  0  0  0
  -27.2561  -28.4522    8.3127 C   0  0  0  0  0  0  0  0  0  0  0  0
  -25.9551  -28.3743    8.7841 C   0  0  0  0  0  0  0  0  0  0  0  0
  -25.4338  -27.1048    9.3690 C   0  0  0  0  0  0  0  0  0  0  0  0
  -25.1225  -29.4768    8.7148 C   0  0  0  0  0  0  0  0  0  0  0  0
  -25.5922  -30.6591    8.1724 C   0  0  0  0  0  0  0  0  0  0  0  0
  -26.8967  -30.7618    7.7135 C   0  0  0  0  0  0  0  0  0  0  0  0
  -29.4019  -29.4606    6.0815 O   0  0  0  0  0  0  0  0  0  0  0  0
  -29.1347  -29.7340    7.2834 C   0  0  0  0  0  0  0  0  0  0  0  0
  -30.0564  -30.0966    8.0638 O   0  0  0  0  0  0  0  0  0  0  0  0
  -29.8607  -30.3003    8.9572 H   0  0  0  0  0  0  0  0  0  0  0  0
  -27.6680  -33.1936    7.8442 C   0  0  0  0  0  0  0  0  0  0  0  0
  -26.9260  -33.5670    8.9561 C   0  0  0  0  0  0  0  0  0  0  0  0
  -27.1806  -34.7527    9.6238 C   0  0  0  0  0  0  0  0  0  0  0  0
  -28.2110  -35.5646    9.1845 C   0  0  0  0  0  0  0  0  0  0  0  0
  -28.9738  -35.1974    8.0881 C   0  0  0  0  0  0  0  0  0  0  0  0
  -28.7101  -34.0112    7.4140 C   0  0  0  0  0  0  0  0  0  0  0  0
  -29.5452  -33.6525    6.2289 C   0  0  0  0  0  0  0  0  0  0  0  0
  -29.7576  -34.5152    5.3345 O   0  0  0  0  0  0  0  0  0  0  0  0
  -30.0256  -32.4956    6.1060 O   0  0  0  0  0  0  0  0  0  0  0  0
  -29.8703  -31.8511    6.7682 H   0  0  0  0  0  0  0  0  0  0  0  0
 21 20  2  0  0  0
 22 20  1  0  0  0
 20 19  1  0  0  0
 10 11  2  0  0  0
 11  3  1  0  0  0
 11 12  1  0  0  0
  1  9  1  0  0  0
  1 14  1  0  0  0
 19 18  2  0  0  0
 19 14  1  0  0  0
  3  9  2  0  0  0
  3  4  1  0  0  0
  9  8  1  0  0  0
  4  5  2  0  0  0
  8  7  2  0  0  0
 18 17  1  0  0  0
 14 15  2  0  0  0
  5  7  1  0  0  0
  5  6  1  0  0  0
 17 16  2  0  0  0
 15 16  1  0  0  0
 12 13  1  0  0  0
  1  2  1  0  0  0
 22 23  1  0  0  0
M  END
> <minimizedAffinity>
-8.66104

$$$$
4GKM_683_A_404


 23 24  0  0  0  0  0  0  0  0999 V2000
  -27.4768  -27.6594    7.3168 N   0  0  0  0  0  0  0  0  0  0  0  0
  -27.9607  -27.1280    7.9897 H   0  0  0  0  0  0  0  0  0  0  0  0
  -25.8672  -29.1721    8.3307 C   0  0  0  0  0  0  0  0  0  0  0  0
  -25.4535  -30.4514    8.6902 C   0  0  0  0  0  0  0  0  0  0  0  0
  -26.2638  -31.5424    8.4185 C   0  0  0  0  0  0  0  0  0  0  0  0
  -25.8405  -32.9188    8.8083 C   0  0  0  0  0  0  0  0  0  0  0  0
  -27.4773  -31.3660    7.7784 C   0  0  0  0  0  0  0  0  0  0  0  0
  -27.8805  -30.0957    7.4090 C   0  0  0  0  0  0  0  0  0  0  0  0
  -27.0924  -28.9899    7.6899 C   0  0  0  0  0  0  0  0  0  0  0  0
  -25.4705  -27.0034    9.2519 O   0  0  0  0  0  0  0  0  0  0  0  0
  -25.0009  -27.9971    8.6332 C   0  0  0  0  0  0  0  0  0  0  0  0
  -23.7899  -28.0020    8.2821 O   0  0  0  0  0  0  0  0  0  0  0  0
  -23.4384  -28.7390    7.8223 H   0  0  0  0  0  0  0  0  0  0  0  0
  -27.2203  -27.0330    6.0527 C   0  0  0  0  0  0  0  0  0  0  0  0
  -26.4690  -27.6547    5.0651 C   0  0  0  0  0  0  0  0  0  0  0  0
  -26.2281  -27.0363    3.8503 C   0  0  0  0  0  0  0  0  0  0  0  0
  -26.7695  -25.7855    3.6129 C   0  0  0  0  0  0  0  0  0  0  0  0
  -27.5378  -25.1592    4.5805 C   0  0  0  0  0  0  0  0  0  0  0  0
  -27.7703  -25.7783    5.8027 C   0  0  0  0  0  0  0  0  0  0  0  0
  -28.5937  -25.0689    6.8270 C   0  0  0  0  0  0  0  0  0  0  0  0
  -29.8411  -24.9791    6.6679 O   0  0  0  0  0  0  0  0  0  0  0  0
  -28.0549  -24.5474    7.8378 O   0  0  0  0  0  0  0  0  0  0  0  0
  -27.1282  -24.6116    7.9603 H   0  0  0  0  0  0  0  0  0  0  0  0
 21 20  2  0  0  0
 22 20  1  0  0  0
 20 19  1  0  0  0
 10 11  2  0  0  0
 11  3  1  0  0  0
 11 12  1  0  0  0
  1  9  1  0  0  0
  1 14  1  0  0  0
 19 18  2  0  0  0
 19 14  1  0  0  0
  3  9  2  0  0  0
  3  4  1  0  0  0
  9  8  1  0  0  0
  4  5  2  0  0  0
  8  7  2  0  0  0
 18 17  1  0  0  0
 14 15  2  0  0  0
  5  7  1  0  0  0
  5  6  1  0  0  0
 17 16  2  0  0  0
 15 16  1  0  0  0
 12 13  1  0  0  0
  1  2  1  0  0  0
 22 23  1  0  0  0
M  END
> <minimizedAffinity>
-8.65150

$$$$
4GKM_683_A_404


 23 24  0  0  0  0  0  0  0  0999 V2000
  -27.5288  -31.1155    7.1685 N   0  0  0  0  0  0  0  0  0  0  0  0
  -27.9860  -30.9853    6.3064 H   0  0  0  0  0  0  0  0  0  0  0  0
  -28.5026  -33.3409    7.2494 C   0  0  0  0  0  0  0  0  0  0  0  0
  -28.5697  -34.6248    7.7824 C   0  0  0  0  0  0  0  0  0  0  0  0
  -27.6892  -35.0055    8.7826 C   0  0  0  0  0  0  0  0  0  0  0  0
  -27.7399  -36.3819    9.3560 C   0  0  0  0  0  0  0  0  0  0  0  0
  -26.7519  -34.1089    9.2634 C   0  0  0  0  0  0  0  0  0  0  0  0
  -26.6959  -32.8289    8.7426 C   0  0  0  0  0  0  0  0  0  0  0  0
  -27.5555  -32.4360    7.7280 C   0  0  0  0  0  0  0  0  0  0  0  0
  -30.2061  -31.9440    6.3243 O   0  0  0  0  0  0  0  0  0  0  0  0
  -29.4422  -32.9348    6.1654 C   0  0  0  0  0  0  0  0  0  0  0  0
  -29.4634  -33.5752    5.0795 O   0  0  0  0  0  0  0  0  0  0  0  0
  -28.8969  -34.3118    4.9588 H   0  0  0  0  0  0  0  0  0  0  0  0
  -26.8965  -29.9679    7.7511 C   0  0  0  0  0  0  0  0  0  0  0  0
  -25.5732  -29.9926    8.1688 C   0  0  0  0  0  0  0  0  0  0  0  0
  -24.9772  -28.8770    8.7316 C   0  0  0  0  0  0  0  0  0  0  0  0
  -25.7122  -27.7115    8.8548 C   0  0  0  0  0  0  0  0  0  0  0  0
  -27.0283  -27.6641    8.4252 C   0  0  0  0  0  0  0  0  0  0  0  0
  -27.6269  -28.7882    7.8693 C   0  0  0  0  0  0  0  0  0  0  0  0
  -29.0512  -28.7045    7.4275 C   0  0  0  0  0  0  0  0  0  0  0  0
  -29.4102  -27.7693    6.6621 O   0  0  0  0  0  0  0  0  0  0  0  0
  -29.8986  -29.5470    7.8227 O   0  0  0  0  0  0  0  0  0  0  0  0
  -29.6363  -30.2437    8.3917 H   0  0  0  0  0  0  0  0  0  0  0  0
 21 20  2  0  0  0
 22 20  1  0  0  0
 20 19  1  0  0  0
 10 11  2  0  0  0
 11  3  1  0  0  0
 11 12  1  0  0  0
  1  9  1  0  0  0
  1 14  1  0  0  0
 19 18  2  0  0  0
 19 14  1  0  0  0
  3  9  2  0  0  0
  3  4  1  0  0  0
  9  8  1  0  0  0
  4  5  2  0  0  0
  8  7  2  0  0  0
 18 17  1  0  0  0
 14 15  2  0  0  0
  5  7  1  0  0  0
  5  6  1  0  0  0
 17 16  2  0  0  0
 15 16  1  0  0  0
 12 13  1  0  0  0
  1  2  1  0  0  0
 22 23  1  0  0  0
M  END
> <minimizedAffinity>
-8.62362

$$$$
4GKM_683_A_404


 23 24  0  0  0  0  0  0  0  0999 V2000
  -27.5426  -28.2640    7.0971 N   0  0  0  0  0  0  0  0  0  0  0  0
  -28.1548  -27.7929    7.7073 H   0  0  0  0  0  0  0  0  0  0  0  0
  -28.5170  -27.5643    4.9833 C   0  0  0  0  0  0  0  0  0  0  0  0
  -28.3973  -27.0530    3.6944 C   0  0  0  0  0  0  0  0  0  0  0  0
  -27.1522  -26.6867    3.2083 C   0  0  0  0  0  0  0  0  0  0  0  0
  -27.0085  -26.1257    1.8335 C   0  0  0  0  0  0  0  0  0  0  0  0
  -26.0249  -26.8402    3.9952 C   0  0  0  0  0  0  0  0  0  0  0  0
  -26.1437  -27.3617    5.2706 C   0  0  0  0  0  0  0  0  0  0  0  0
  -27.3833  -27.7157    5.7814 C   0  0  0  0  0  0  0  0  0  0  0  0
  -30.0943  -29.1425    5.8381 O   0  0  0  0  0  0  0  0  0  0  0  0
  -29.8577  -27.9478    5.5106 C   0  0  0  0  0  0  0  0  0  0  0  0
  -30.7548  -27.0717    5.6436 O   0  0  0  0  0  0  0  0  0  0  0  0
  -30.5818  -26.1834    5.4010 H   0  0  0  0  0  0  0  0  0  0  0  0
  -26.8909  -29.4363    7.6042 C   0  0  0  0  0  0  0  0  0  0  0  0
  -27.3588  -30.7133    7.3275 C   0  0  0  0  0  0  0  0  0  0  0  0
  -26.7199  -31.8356    7.8263 C   0  0  0  0  0  0  0  0  0  0  0  0
  -25.5801  -31.6757    8.5939 C   0  0  0  0  0  0  0  0  0  0  0  0
  -25.0887  -30.4090    8.8634 C   0  0  0  0  0  0  0  0  0  0  0  0
  -25.7373  -29.2838    8.3693 C   0  0  0  0  0  0  0  0  0  0  0  0
  -25.1860  -27.9331    8.6893 C   0  0  0  0  0  0  0  0  0  0  0  0
  -23.9656  -27.6949    8.4812 O   0  0  0  0  0  0  0  0  0  0  0  0
  -25.9218  -27.0364    9.1779 O   0  0  0  0  0  0  0  0  0  0  0  0
  -26.8294  -27.2089    9.3343 H   0  0  0  0  0  0  0  0  0  0  0  0
 21 20  2  0  0  0
 22 20  1  0  0  0
 20 19  1  0  0  0
 10 11  2  0  0  0
 11  3  1  0  0  0
 11 12  1  0  0  0
  1  9  1  0  0  0
  1 14  1  0  0  0
 19 18  2  0  0  0
 19 14  1  0  0  0
  3  9  2  0  0  0
  3  4  1  0  0  0
  9  8  1  0  0  0
  4  5  2  0  0  0
  8  7  2  0  0  0
 18 17  1  0  0  0
 14 15  2  0  0  0
  5  7  1  0  0  0
  5  6  1  0  0  0
 17 16  2  0  0  0
 15 16  1  0  0  0
 12 13  1  0  0  0
  1  2  1  0  0  0
 22 23  1  0  0  0
M  END
> <minimizedAffinity>
-8.52665

$$$$
4GKM_683_A_404


 23 24  0  0  0  0  0  0  0  0999 V2000
  -27.3235  -27.7152    7.3983 N   0  0  0  0  0  0  0  0  0  0  0  0
  -27.6561  -27.1577    8.1385 H   0  0  0  0  0  0  0  0  0  0  0  0
  -28.0531  -25.9494    5.8961 C   0  0  0  0  0  0  0  0  0  0  0  0
  -28.1169  -25.3725    4.6311 C   0  0  0  0  0  0  0  0  0  0  0  0
  -27.4753  -25.9772    3.5618 C   0  0  0  0  0  0  0  0  0  0  0  0
  -27.5238  -25.3651    2.2021 C   0  0  0  0  0  0  0  0  0  0  0  0
  -26.7825  -27.1605    3.7443 C   0  0  0  0  0  0  0  0  0  0  0  0
  -26.7320  -27.7400    4.9990 C   0  0  0  0  0  0  0  0  0  0  0  0
  -27.3512  -27.1396    6.0849 C   0  0  0  0  0  0  0  0  0  0  0  0
  -29.9540  -25.5148    7.2770 O   0  0  0  0  0  0  0  0  0  0  0  0
  -28.7336  -25.2931    7.0488 C   0  0  0  0  0  0  0  0  0  0  0  0
  -28.0833  -24.5244    7.8078 O   0  0  0  0  0  0  0  0  0  0  0  0
  -27.1765  -24.3579    7.6407 H   0  0  0  0  0  0  0  0  0  0  0  0
  -26.8553  -29.0290    7.7311 C   0  0  0  0  0  0  0  0  0  0  0  0
  -27.6052  -30.1652    7.4610 C   0  0  0  0  0  0  0  0  0  0  0  0
  -27.1406  -31.4270    7.7903 C   0  0  0  0  0  0  0  0  0  0  0  0
  -25.8942  -31.5532    8.3772 C   0  0  0  0  0  0  0  0  0  0  0  0
  -25.1246  -30.4309    8.6361 C   0  0  0  0  0  0  0  0  0  0  0  0
  -25.5974  -29.1648    8.3130 C   0  0  0  0  0  0  0  0  0  0  0  0
  -24.7457  -27.9761    8.6169 C   0  0  0  0  0  0  0  0  0  0  0  0
  -25.2191  -27.0324    9.3059 O   0  0  0  0  0  0  0  0  0  0  0  0
  -23.5677  -27.8995    8.1805 O   0  0  0  0  0  0  0  0  0  0  0  0
  -23.2116  -28.5984    7.6679 H   0  0  0  0  0  0  0  0  0  0  0  0
 21 20  2  0  0  0
 22 20  1  0  0  0
 20 19  1  0  0  0
 10 11  2  0  0  0
 11  3  1  0  0  0
 11 12  1  0  0  0
  1  9  1  0  0  0
  1 14  1  0  0  0
 19 18  2  0  0  0
 19 14  1  0  0  0
  3  9  2  0  0  0
  3  4  1  0  0  0
  9  8  1  0  0  0
  4  5  2  0  0  0
  8  7  2  0  0  0
 18 17  1  0  0  0
 14 15  2  0  0  0
  5  7  1  0  0  0
  5  6  1  0  0  0
 17 16  2  0  0  0
 15 16  1  0  0  0
 12 13  1  0  0  0
  1  2  1  0  0  0
 22 23  1  0  0  0
M  END
> <minimizedAffinity>
-8.25526

$$$$
4GKM_683_A_404


 23 24  0  0  0  0  0  0  0  0999 V2000
  -27.8716  -28.5981    6.9721 N   0  0  0  0  0  0  0  0  0  0  0  0
  -28.6713  -28.2829    7.4522 H   0  0  0  0  0  0  0  0  0  0  0  0
  -28.5281  -27.5838    4.8632 C   0  0  0  0  0  0  0  0  0  0  0  0
  -28.2176  -26.9257    3.6769 C   0  0  0  0  0  0  0  0  0  0  0  0
  -26.9042  -26.5798    3.4009 C   0  0  0  0  0  0  0  0  0  0  0  0
  -26.5564  -25.8633    2.1394 C   0  0  0  0  0  0  0  0  0  0  0  0
  -25.8978  -26.8988    4.2947 C   0  0  0  0  0  0  0  0  0  0  0  0
  -26.2061  -27.5654    5.4666 C   0  0  0  0  0  0  0  0  0  0  0  0
  -27.5168  -27.9023    5.7691 C   0  0  0  0  0  0  0  0  0  0  0  0
  -30.7195  -27.0969    5.6816 O   0  0  0  0  0  0  0  0  0  0  0  0
  -29.9424  -27.9457    5.1657 C   0  0  0  0  0  0  0  0  0  0  0  0
  -30.3681  -29.1005    4.8914 O   0  0  0  0  0  0  0  0  0  0  0  0
  -29.7929  -29.7330    4.5080 H   0  0  0  0  0  0  0  0  0  0  0  0
  -27.1673  -29.7111    7.5389 C   0  0  0  0  0  0  0  0  0  0  0  0
  -25.8414  -29.6141    7.9373 C   0  0  0  0  0  0  0  0  0  0  0  0
  -25.1741  -30.6983    8.4810 C   0  0  0  0  0  0  0  0  0  0  0  0
  -25.8541  -31.8911    8.6505 C   0  0  0  0  0  0  0  0  0  0  0  0
  -27.1834  -31.9992    8.2761 C   0  0  0  0  0  0  0  0  0  0  0  0
  -27.8481  -30.9120    7.7219 C   0  0  0  0  0  0  0  0  0  0  0  0
  -29.2778  -31.0679    7.3191 C   0  0  0  0  0  0  0  0  0  0  0  0
  -29.6099  -32.0205    6.5631 O   0  0  0  0  0  0  0  0  0  0  0  0
  -30.1506  -30.2511    7.7131 O   0  0  0  0  0  0  0  0  0  0  0  0
  -29.9084  -29.5416    8.2751 H   0  0  0  0  0  0  0  0  0  0  0  0
 21 20  2  0  0  0
 22 20  1  0  0  0
 20 19  1  0  0  0
 10 11  2  0  0  0
 11  3  1  0  0  0
 11 12  1  0  0  0
  1  9  1  0  0  0
  1 14  1  0  0  0
 19 18  2  0  0  0
 19 14  1  0  0  0
  3  9  2  0  0  0
  3  4  1  0  0  0
  9  8  1  0  0  0
  4  5  2  0  0  0
  8  7  2  0  0  0
 18 17  1  0  0  0
 14 15  2  0  0  0
  5  7  1  0  0  0
  5  6  1  0  0  0
 17 16  2  0  0  0
 15 16  1  0  0  0
 12 13  1  0  0  0
  1  2  1  0  0  0
 22 23  1  0  0  0
M  END
> <minimizedAffinity>
-8.06828

$$$$
4GKM_683_A_404


 23 24  0  0  0  0  0  0  0  0999 V2000
  -27.3005  -27.0713    6.5761 N   0  0  0  0  0  0  0  0  0  0  0  0
  -27.7919  -26.4620    7.1732 H   0  0  0  0  0  0  0  0  0  0  0  0
  -27.6809  -29.3396    7.3618 C   0  0  0  0  0  0  0  0  0  0  0  0
  -27.2290  -30.5235    7.9372 C   0  0  0  0  0  0  0  0  0  0  0  0
  -25.8964  -30.6542    8.2950 C   0  0  0  0  0  0  0  0  0  0  0  0
  -25.3935  -31.9210    8.9016 C   0  0  0  0  0  0  0  0  0  0  0  0
  -25.0158  -29.6064    8.0947 C   0  0  0  0  0  0  0  0  0  0  0  0
  -25.4695  -28.4255    7.5358 C   0  0  0  0  0  0  0  0  0  0  0  0
  -26.7948  -28.2830    7.1535 C   0  0  0  0  0  0  0  0  0  0  0  0
  -30.0204  -29.2525    7.8396 O   0  0  0  0  0  0  0  0  0  0  0  0
  -29.1118  -29.2029    6.9663 C   0  0  0  0  0  0  0  0  0  0  0  0
  -29.4148  -29.0225    5.7557 O   0  0  0  0  0  0  0  0  0  0  0  0
  -28.7418  -28.9853    5.1048 H   0  0  0  0  0  0  0  0  0  0  0  0
  -27.1551  -26.6670    5.2081 C   0  0  0  0  0  0  0  0  0  0  0  0
  -26.1104  -27.1222    4.4158 C   0  0  0  0  0  0  0  0  0  0  0  0
  -25.9822  -26.7211    3.0971 C   0  0  0  0  0  0  0  0  0  0  0  0
  -26.9298  -25.8697    2.5575 C   0  0  0  0  0  0  0  0  0  0  0  0
  -27.9894  -25.4213    3.3289 C   0  0  0  0  0  0  0  0  0  0  0  0
  -28.1105  -25.8181    4.6551 C   0  0  0  0  0  0  0  0  0  0  0  0
  -29.2592  -25.3060    5.4605 C   0  0  0  0  0  0  0  0  0  0  0  0
  -30.0643  -26.1230    5.9837 O   0  0  0  0  0  0  0  0  0  0  0  0
  -29.4407  -24.0695    5.6095 O   0  0  0  0  0  0  0  0  0  0  0  0
  -28.8450  -23.4585    5.2225 H   0  0  0  0  0  0  0  0  0  0  0  0
 21 20  2  0  0  0
 22 20  1  0  0  0
 20 19  1  0  0  0
 10 11  2  0  0  0
 11  3  1  0  0  0
 11 12  1  0  0  0
  1  9  1  0  0  0
  1 14  1  0  0  0
 19 18  2  0  0  0
 19 14  1  0  0  0
  3  9  2  0  0  0
  3  4  1  0  0  0
  9  8  1  0  0  0
  4  5  2  0  0  0
  8  7  2  0  0  0
 18 17  1  0  0  0
 14 15  2  0  0  0
  5  7  1  0  0  0
  5  6  1  0  0  0
 17 16  2  0  0  0
 15 16  1  0  0  0
 12 13  1  0  0  0
  1  2  1  0  0  0
 22 23  1  0  0  0
M  END
> <minimizedAffinity>
-7.79818

$$$$
4GKM_683_A_404


 23 24  0  0  0  0  0  0  0  0999 V2000
  -28.2823  -33.3261    8.0209 N   0  0  0  0  0  0  0  0  0  0  0  0
  -29.1871  -33.1946    7.6559 H   0  0  0  0  0  0  0  0  0  0  0  0
  -28.6941  -35.7209    7.9687 C   0  0  0  0  0  0  0  0  0  0  0  0
  -28.3994  -37.0188    8.3757 C   0  0  0  0  0  0  0  0  0  0  0  0
  -27.3483  -37.2481    9.2494 C   0  0  0  0  0  0  0  0  0  0  0  0
  -27.0118  -38.6344    9.6857 C   0  0  0  0  0  0  0  0  0  0  0  0
  -26.5988  -36.1893    9.7297 C   0  0  0  0  0  0  0  0  0  0  0  0
  -26.9018  -34.8988    9.3354 C   0  0  0  0  0  0  0  0  0  0  0  0
  -27.9372  -34.6516    8.4468 C   0  0  0  0  0  0  0  0  0  0  0  0
  -29.5911  -34.9870    5.8792 O   0  0  0  0  0  0  0  0  0  0  0  0
  -29.8175  -35.4751    7.0199 C   0  0  0  0  0  0  0  0  0  0  0  0
  -30.9974  -35.7697    7.3530 O   0  0  0  0  0  0  0  0  0  0  0  0
  -31.1684  -36.1324    8.1999 H   0  0  0  0  0  0  0  0  0  0  0  0
  -27.4288  -32.1753    8.0785 C   0  0  0  0  0  0  0  0  0  0  0  0
  -26.0846  -32.2749    8.4091 C   0  0  0  0  0  0  0  0  0  0  0  0
  -25.2736  -31.1542    8.4626 C   0  0  0  0  0  0  0  0  0  0  0  0
  -25.8133  -29.9178    8.1560 C   0  0  0  0  0  0  0  0  0  0  0  0
  -27.1485  -29.8033    7.8053 C   0  0  0  0  0  0  0  0  0  0  0  0
  -27.9625  -30.9287    7.7614 C   0  0  0  0  0  0  0  0  0  0  0  0
  -29.4001  -30.7667    7.3904 C   0  0  0  0  0  0  0  0  0  0  0  0
  -30.0805  -29.8506    7.9263 O   0  0  0  0  0  0  0  0  0  0  0  0
  -29.9427  -31.5430    6.5616 O   0  0  0  0  0  0  0  0  0  0  0  0
  -29.4410  -32.2253    6.1608 H   0  0  0  0  0  0  0  0  0  0  0  0
 21 20  2  0  0  0
 22 20  1  0  0  0
 20 19  1  0  0  0
 10 11  2  0  0  0
 11  3  1  0  0  0
 11 12  1  0  0  0
  1  9  1  0  0  0
  1 14  1  0  0  0
 19 18  2  0  0  0
 19 14  1  0  0  0
  3  9  2  0  0  0
  3  4  1  0  0  0
  9  8  1  0  0  0
  4  5  2  0  0  0
  8  7  2  0  0  0
 18 17  1  0  0  0
 14 15  2  0  0  0
  5  7  1  0  0  0
  5  6  1  0  0  0
 17 16  2  0  0  0
 15 16  1  0  0  0
 12 13  1  0  0  0
  1  2  1  0  0  0
 22 23  1  0  0  0
M  END
> <minimizedAffinity>
-7.74415

$$$$
