5YAS_FAC_A_300


 13 12  0  0  0  0  0  0  0  0999 V2000
   13.2489   52.1343   16.3525 C   0  0  0  0  0  0  0  0  0  0  0  0
   13.4001   52.3808   14.9556 O   0  0  0  0  0  0  0  0  0  0  0  0
   13.1676   50.7294   16.5313 O   0  0  0  0  0  0  0  0  0  0  0  0
   13.4714   53.2602   14.6401 H   0  0  0  0  0  0  0  0  0  0  0  0
   13.0653   50.3717   17.3913 H   0  0  0  0  0  0  0  0  0  0  0  0
   14.4352   52.7122   17.0986 C   0  0  0  0  0  0  0  0  0  0  0  0
   14.3461   52.4626   18.4529 F   0  0  0  0  0  0  0  0  0  0  0  0
   14.4768   54.0620   16.8541 F   0  0  0  0  0  0  0  0  0  0  0  0
   15.5583   52.1176   16.6243 F   0  0  0  0  0  0  0  0  0  0  0  0
   11.9211   52.6829   16.7923 C   0  0  0  0  0  0  0  0  0  0  0  0
   11.2205   51.7967   17.5946 F   0  0  0  0  0  0  0  0  0  0  0  0
   11.2814   52.8576   15.6442 F   0  0  0  0  0  0  0  0  0  0  0  0
   12.0482   53.8966   17.4043 F   0  0  0  0  0  0  0  0  0  0  0  0
  1  2  1  0  0  0
  1  3  1  0  0  0
  1  6  1  0  0  0
  1 10  1  0  0  0
  6  7  1  0  0  0
  6  8  1  0  0  0
  6  9  1  0  0  0
 10 11  1  0  0  0
 10 12  1  0  0  0
 10 13  1  0  0  0
  2  4  1  0  0  0
  3  5  1  0  0  0
M  END
> <minimizedAffinity>
-5.99086

$$$$
5YAS_FAC_A_300


 13 12  0  0  0  0  0  0  0  0999 V2000
   13.2396   52.1230   16.3261 C   0  0  0  0  0  0  0  0  0  0  0  0
   13.1967   50.7084   16.5051 O   0  0  0  0  0  0  0  0  0  0  0  0
   13.4888   52.3716   14.9518 O   0  0  0  0  0  0  0  0  0  0  0  0
   13.0409   50.3483   17.3560 H   0  0  0  0  0  0  0  0  0  0  0  0
   13.5517   53.2526   14.6390 H   0  0  0  0  0  0  0  0  0  0  0  0
   11.9187   52.7272   16.7598 C   0  0  0  0  0  0  0  0  0  0  0  0
   11.2227   51.8699   17.5874 F   0  0  0  0  0  0  0  0  0  0  0  0
   11.1902   53.0143   15.6328 F   0  0  0  0  0  0  0  0  0  0  0  0
   12.1847   53.8665   17.4460 F   0  0  0  0  0  0  0  0  0  0  0  0
   14.4323   52.6609   17.0647 C   0  0  0  0  0  0  0  0  0  0  0  0
   14.5601   54.0346   16.9367 F   0  0  0  0  0  0  0  0  0  0  0  0
   15.4468   52.0537   16.4649 F   0  0  0  0  0  0  0  0  0  0  0  0
   14.4260   52.2936   18.3795 F   0  0  0  0  0  0  0  0  0  0  0  0
  1  2  1  0  0  0
  1  3  1  0  0  0
  1  6  1  0  0  0
  1 10  1  0  0  0
  6  7  1  0  0  0
  6  8  1  0  0  0
  6  9  1  0  0  0
 10 11  1  0  0  0
 10 12  1  0  0  0
 10 13  1  0  0  0
  2  4  1  0  0  0
  3  5  1  0  0  0
M  END
> <minimizedAffinity>
-5.97026

$$$$
5YAS_FAC_A_300


 13 12  0  0  0  0  0  0  0  0999 V2000
   13.2137   51.9309   17.2930 C   0  0  0  0  0  0  0  0  0  0  0  0
   13.3174   50.6204   16.7391 O   0  0  0  0  0  0  0  0  0  0  0  0
   13.4082   51.8185   18.6937 O   0  0  0  0  0  0  0  0  0  0  0  0
   13.2163   50.4924   15.8164 H   0  0  0  0  0  0  0  0  0  0  0  0
   13.3755   52.5833   19.2341 H   0  0  0  0  0  0  0  0  0  0  0  0
   14.2621   52.8286   16.6662 C   0  0  0  0  0  0  0  0  0  0  0  0
   14.3145   54.0549   17.2970 F   0  0  0  0  0  0  0  0  0  0  0  0
   13.9565   52.9777   15.3366 F   0  0  0  0  0  0  0  0  0  0  0  0
   15.4679   52.2226   16.8024 F   0  0  0  0  0  0  0  0  0  0  0  0
   11.8031   52.4150   17.1107 C   0  0  0  0  0  0  0  0  0  0  0  0
   10.9852   52.0800   18.1778 F   0  0  0  0  0  0  0  0  0  0  0  0
   11.4110   51.7714   16.0199 F   0  0  0  0  0  0  0  0  0  0  0  0
   11.7524   53.7564   16.8618 F   0  0  0  0  0  0  0  0  0  0  0  0
  1  2  1  0  0  0
  1  3  1  0  0  0
  1  6  1  0  0  0
  1 10  1  0  0  0
  6  7  1  0  0  0
  6  8  1  0  0  0
  6  9  1  0  0  0
 10 11  1  0  0  0
 10 12  1  0  0  0
 10 13  1  0  0  0
  2  4  1  0  0  0
  3  5  1  0  0  0
M  END
> <minimizedAffinity>
-5.95131

$$$$
5YAS_FAC_A_300


 13 12  0  0  0  0  0  0  0  0999 V2000
   13.8195   51.8511   17.0601 C   0  0  0  0  0  0  0  0  0  0  0  0
   13.2982   50.6643   16.4645 O   0  0  0  0  0  0  0  0  0  0  0  0
   15.2292   51.7090   17.1310 O   0  0  0  0  0  0  0  0  0  0  0  0
   12.3750   50.5725   16.3332 H   0  0  0  0  0  0  0  0  0  0  0  0
   15.7515   52.3955   17.4969 H   0  0  0  0  0  0  0  0  0  0  0  0
   13.4330   53.0506   16.2177 C   0  0  0  0  0  0  0  0  0  0  0  0
   13.9740   54.2147   16.7243 F   0  0  0  0  0  0  0  0  0  0  0  0
   12.0632   53.1248   16.1838 F   0  0  0  0  0  0  0  0  0  0  0  0
   13.9207   52.8583   14.9667 F   0  0  0  0  0  0  0  0  0  0  0  0
   13.3406   51.9205   18.4825 C   0  0  0  0  0  0  0  0  0  0  0  0
   14.0673   52.8219   19.2435 F   0  0  0  0  0  0  0  0  0  0  0  0
   13.5472   50.6867   18.9218 F   0  0  0  0  0  0  0  0  0  0  0  0
   12.0038   52.1871   18.5581 F   0  0  0  0  0  0  0  0  0  0  0  0
  1  2  1  0  0  0
  1  3  1  0  0  0
  1  6  1  0  0  0
  1 10  1  0  0  0
  6  7  1  0  0  0
  6  8  1  0  0  0
  6  9  1  0  0  0
 10 11  1  0  0  0
 10 12  1  0  0  0
 10 13  1  0  0  0
  2  4  1  0  0  0
  3  5  1  0  0  0
M  END
> <minimizedAffinity>
-5.90546

$$$$
5YAS_FAC_A_300


 13 12  0  0  0  0  0  0  0  0999 V2000
   14.1308   51.9917   17.0472 C   0  0  0  0  0  0  0  0  0  0  0  0
   15.4476   51.7608   16.5494 O   0  0  0  0  0  0  0  0  0  0  0  0
   13.3671   50.8240   16.7909 O   0  0  0  0  0  0  0  0  0  0  0  0
   16.1020   52.4266   16.6289 H   0  0  0  0  0  0  0  0  0  0  0  0
   12.4672   50.7866   17.0494 H   0  0  0  0  0  0  0  0  0  0  0  0
   14.1969   52.2861   18.5328 C   0  0  0  0  0  0  0  0  0  0  0  0
   14.2140   53.6446   18.7747 F   0  0  0  0  0  0  0  0  0  0  0  0
   15.3244   51.6877   19.0367 F   0  0  0  0  0  0  0  0  0  0  0  0
   13.0902   51.7593   19.1137 F   0  0  0  0  0  0  0  0  0  0  0  0
   13.4983   53.0844   16.2328 C   0  0  0  0  0  0  0  0  0  0  0  0
   14.1313   54.3054   16.4010 F   0  0  0  0  0  0  0  0  0  0  0  0
   12.2678   53.1406   16.7232 F   0  0  0  0  0  0  0  0  0  0  0  0
   13.4210   52.7550   14.9102 F   0  0  0  0  0  0  0  0  0  0  0  0
  1  2  1  0  0  0
  1  3  1  0  0  0
  1  6  1  0  0  0
  1 10  1  0  0  0
  6  7  1  0  0  0
  6  8  1  0  0  0
  6  9  1  0  0  0
 10 11  1  0  0  0
 10 12  1  0  0  0
 10 13  1  0  0  0
  2  4  1  0  0  0
  3  5  1  0  0  0
M  END
> <minimizedAffinity>
-5.71871

$$$$
5YAS_FAC_A_300


 13 12  0  0  0  0  0  0  0  0999 V2000
   14.0799   51.9853   17.0363 C   0  0  0  0  0  0  0  0  0  0  0  0
   15.4108   51.8602   16.5383 O   0  0  0  0  0  0  0  0  0  0  0  0
   13.4110   50.7612   16.7779 O   0  0  0  0  0  0  0  0  0  0  0  0
   16.0104   52.5757   16.6190 H   0  0  0  0  0  0  0  0  0  0  0  0
   12.5169   50.6523   17.0361 H   0  0  0  0  0  0  0  0  0  0  0  0
   14.1224   52.2815   18.5223 C   0  0  0  0  0  0  0  0  0  0  0  0
   13.0074   51.7836   19.1652 F   0  0  0  0  0  0  0  0  0  0  0  0
   14.2109   53.6414   18.6840 F   0  0  0  0  0  0  0  0  0  0  0  0
   15.2221   51.6780   19.0382 F   0  0  0  0  0  0  0  0  0  0  0  0
   13.3629   53.0258   16.2235 C   0  0  0  0  0  0  0  0  0  0  0  0
   13.2608   52.6771   14.8864 F   0  0  0  0  0  0  0  0  0  0  0  0
   14.1427   54.0898   16.3559 F   0  0  0  0  0  0  0  0  0  0  0  0
   12.1360   53.3228   16.7434 F   0  0  0  0  0  0  0  0  0  0  0  0
  1  2  1  0  0  0
  1  3  1  0  0  0
  1  6  1  0  0  0
  1 10  1  0  0  0
  6  7  1  0  0  0
  6  8  1  0  0  0
  6  9  1  0  0  0
 10 11  1  0  0  0
 10 12  1  0  0  0
 10 13  1  0  0  0
  2  4  1  0  0  0
  3  5  1  0  0  0
M  END
> <minimizedAffinity>
-5.71653

$$$$
5YAS_FAC_A_300


 13 12  0  0  0  0  0  0  0  0999 V2000
   13.0621   52.1841   17.3668 C   0  0  0  0  0  0  0  0  0  0  0  0
   13.5254   50.8594   17.6231 O   0  0  0  0  0  0  0  0  0  0  0  0
   11.9322   52.4084   18.1947 O   0  0  0  0  0  0  0  0  0  0  0  0
   14.2721   50.5273   17.1648 H   0  0  0  0  0  0  0  0  0  0  0  0
   11.4865   53.2321   18.1660 H   0  0  0  0  0  0  0  0  0  0  0  0
   14.1686   53.1740   17.6725 C   0  0  0  0  0  0  0  0  0  0  0  0
   13.8289   54.4478   17.2645 F   0  0  0  0  0  0  0  0  0  0  0  0
   15.3093   52.7480   17.0395 F   0  0  0  0  0  0  0  0  0  0  0  0
   14.3583   53.1885   19.0155 F   0  0  0  0  0  0  0  0  0  0  0  0
   12.5560   52.2468   15.9536 C   0  0  0  0  0  0  0  0  0  0  0  0
   13.5425   52.6141   15.0526 F   0  0  0  0  0  0  0  0  0  0  0  0
   11.6264   53.1899   16.0168 F   0  0  0  0  0  0  0  0  0  0  0  0
   11.9604   51.0789   15.5729 F   0  0  0  0  0  0  0  0  0  0  0  0
  1  2  1  0  0  0
  1  3  1  0  0  0
  1  6  1  0  0  0
  1 10  1  0  0  0
  6  7  1  0  0  0
  6  8  1  0  0  0
  6  9  1  0  0  0
 10 11  1  0  0  0
 10 12  1  0  0  0
 10 13  1  0  0  0
  2  4  1  0  0  0
  3  5  1  0  0  0
M  END
> <minimizedAffinity>
-5.62116

$$$$
5YAS_FAC_A_300


 13 12  0  0  0  0  0  0  0  0999 V2000
   12.9839   52.0339   16.9609 C   0  0  0  0  0  0  0  0  0  0  0  0
   11.7659   52.7154   16.6662 O   0  0  0  0  0  0  0  0  0  0  0  0
   12.8863   50.7294   16.4120 O   0  0  0  0  0  0  0  0  0  0  0  0
   11.6428   53.5994   16.9515 H   0  0  0  0  0  0  0  0  0  0  0  0
   13.5981   50.1273   16.5055 H   0  0  0  0  0  0  0  0  0  0  0  0
   14.1474   52.7950   16.3570 C   0  0  0  0  0  0  0  0  0  0  0  0
   14.1319   52.7243   14.9789 F   0  0  0  0  0  0  0  0  0  0  0  0
   15.3100   52.2658   16.8585 F   0  0  0  0  0  0  0  0  0  0  0  0
   14.0315   54.0961   16.7224 F   0  0  0  0  0  0  0  0  0  0  0  0
   13.0782   51.8485   18.4489 C   0  0  0  0  0  0  0  0  0  0  0  0
   13.5659   50.5994   18.7980 F   0  0  0  0  0  0  0  0  0  0  0  0
   11.8170   51.9678   18.8397 F   0  0  0  0  0  0  0  0  0  0  0  0
   13.8087   52.8383   19.0408 F   0  0  0  0  0  0  0  0  0  0  0  0
  1  2  1  0  0  0
  1  3  1  0  0  0
  1  6  1  0  0  0
  1 10  1  0  0  0
  6  7  1  0  0  0
  6  8  1  0  0  0
  6  9  1  0  0  0
 10 11  1  0  0  0
 10 12  1  0  0  0
 10 13  1  0  0  0
  2  4  1  0  0  0
  3  5  1  0  0  0
M  END
> <minimizedAffinity>
-5.57994

$$$$
5YAS_FAC_A_300


 13 12  0  0  0  0  0  0  0  0999 V2000
   13.3284   52.0487   17.2245 C   0  0  0  0  0  0  0  0  0  0  0  0
   13.0847   50.6682   16.9602 O   0  0  0  0  0  0  0  0  0  0  0  0
   12.0716   52.7062   17.2503 O   0  0  0  0  0  0  0  0  0  0  0  0
   13.8021   50.0679   16.9053 H   0  0  0  0  0  0  0  0  0  0  0  0
   12.0285   53.6282   17.4118 H   0  0  0  0  0  0  0  0  0  0  0  0
   14.0461   52.1897   18.5522 C   0  0  0  0  0  0  0  0  0  0  0  0
   15.3094   51.6365   18.5008 F   0  0  0  0  0  0  0  0  0  0  0  0
   13.2852   51.5769   19.5159 F   0  0  0  0  0  0  0  0  0  0  0  0
   14.1665   53.5130   18.8246 F   0  0  0  0  0  0  0  0  0  0  0  0
   14.0747   52.6326   16.0585 C   0  0  0  0  0  0  0  0  0  0  0  0
   15.3588   52.1252   15.9429 F   0  0  0  0  0  0  0  0  0  0  0  0
   14.1229   53.9232   16.3580 F   0  0  0  0  0  0  0  0  0  0  0  0
   13.3872   52.4866   14.8882 F   0  0  0  0  0  0  0  0  0  0  0  0
  1  2  1  0  0  0
  1  3  1  0  0  0
  1  6  1  0  0  0
  1 10  1  0  0  0
  6  7  1  0  0  0
  6  8  1  0  0  0
  6  9  1  0  0  0
 10 11  1  0  0  0
 10 12  1  0  0  0
 10 13  1  0  0  0
  2  4  1  0  0  0
  3  5  1  0  0  0
M  END
> <minimizedAffinity>
-5.56697

$$$$
5YAS_FAC_A_300


 13 12  0  0  0  0  0  0  0  0999 V2000
   13.6455   52.5373   16.9943 C   0  0  0  0  0  0  0  0  0  0  0  0
   14.4058   51.7693   16.0631 O   0  0  0  0  0  0  0  0  0  0  0  0
   13.9527   53.9041   16.7713 O   0  0  0  0  0  0  0  0  0  0  0  0
   14.3348   50.8350   16.0580 H   0  0  0  0  0  0  0  0  0  0  0  0
   13.5454   54.5671   17.2933 H   0  0  0  0  0  0  0  0  0  0  0  0
   12.1686   52.2680   16.7843 C   0  0  0  0  0  0  0  0  0  0  0  0
   11.4378   52.5699   17.9153 F   0  0  0  0  0  0  0  0  0  0  0  0
   12.0195   50.9462   16.4468 F   0  0  0  0  0  0  0  0  0  0  0  0
   11.7387   53.0595   15.7701 F   0  0  0  0  0  0  0  0  0  0  0  0
   14.1348   52.2261   18.3804 C   0  0  0  0  0  0  0  0  0  0  0  0
   14.2599   53.3606   19.1659 F   0  0  0  0  0  0  0  0  0  0  0  0
   15.3291   51.6955   18.1573 F   0  0  0  0  0  0  0  0  0  0  0  0
   13.3557   51.2906   18.9981 F   0  0  0  0  0  0  0  0  0  0  0  0
  1  2  1  0  0  0
  1  3  1  0  0  0
  1  6  1  0  0  0
  1 10  1  0  0  0
  6  7  1  0  0  0
  6  8  1  0  0  0
  6  9  1  0  0  0
 10 11  1  0  0  0
 10 12  1  0  0  0
 10 13  1  0  0  0
  2  4  1  0  0  0
  3  5  1  0  0  0
M  END
> <minimizedAffinity>
-5.55094

$$$$
