6EDR_ZNA_A_401


 55 59  0  0  0  0  0  0  0  0999 V2000
  -15.2735    4.0151   -3.2805 O   0  0  0  0  0  0  0  0  0  0  0  0
  -14.4537    3.4151   -4.5479 P   0  0  0  0  0  0  0  0  0  0  0  0
  -15.2896    3.4769   -5.7630 O   0  0  0  0  0  0  0  0  0  0  0  0
  -13.1264    4.0818   -4.5445 O   0  0  0  0  0  0  0  0  0  0  0  0
  -14.7939    3.1172   -6.5151 H   0  0  0  0  0  0  0  0  0  0  0  0
  -14.3291    1.8470   -4.1327 O   0  0  0  0  0  0  0  0  0  0  0  0
  -13.4828    1.3667   -3.0705 C   0  0  0  0  0  0  0  0  0  0  0  0
  -11.5051   -2.0109   -4.2891 C   0  0  0  0  0  0  0  0  0  0  0  0
  -12.3934   -1.1708   -2.9500 S   0  0  0  0  0  0  0  0  0  0  0  0
  -11.3357   -0.8663   -5.3468 C   0  0  0  0  0  0  0  0  0  0  0  0
  -10.0300   -0.2999   -5.1705 O   0  0  0  0  0  0  0  0  0  0  0  0
  -12.3724    0.2606   -5.0882 C   0  0  0  0  0  0  0  0  0  0  0  0
  -12.0032    1.4553   -5.8125 O   0  0  0  0  0  0  0  0  0  0  0  0
  -12.3044    0.5337   -3.5836 C   0  0  0  0  0  0  0  0  0  0  0  0
   -9.9476    0.0483   -4.2689 H   0  0  0  0  0  0  0  0  0  0  0  0
  -11.1151    1.7360   -5.5419 H   0  0  0  0  0  0  0  0  0  0  0  0
  -12.3950   -5.6108   -5.0644 C   0  0  0  0  0  0  0  0  0  0  0  0
  -11.6951   -4.4200   -4.7990 C   0  0  0  0  0  0  0  0  0  0  0  0
  -13.8008   -5.5343   -5.0735 C   0  0  0  0  0  0  0  0  0  0  0  0
  -14.4692   -4.3296   -4.8265 C   0  0  0  0  0  0  0  0  0  0  0  0
  -13.7613   -3.1573   -4.5713 C   0  0  0  0  0  0  0  0  0  0  0  0
  -12.3650   -3.1956   -4.5717 N   0  0  0  0  0  0  0  0  0  0  0  0
  -11.6371   -3.6556   -5.0490 H   0  0  0  0  0  0  0  0  0  0  0  0
  -11.8391   -7.8223   -4.3743 N   0  0  0  0  0  0  0  0  0  0  0  0
  -11.7561   -6.8526   -5.3026 C   0  0  0  0  0  0  0  0  0  0  0  0
  -11.1483   -7.0453   -6.3589 O   0  0  0  0  0  0  0  0  0  0  0  0
  -12.3263   -7.6593   -3.5345 H   0  0  0  0  0  0  0  0  0  0  0  0
  -11.4128   -8.6951   -4.5348 H   0  0  0  0  0  0  0  0  0  0  0  0
  -15.1780    5.5207   -2.7106 P   0  0  0  0  0  0  0  0  0  0  0  0
  -14.4176    6.3514   -3.6658 O   0  0  0  0  0  0  0  0  0  0  0  0
  -14.6990    5.4136   -1.3170 O   0  0  0  0  0  0  0  0  0  0  0  0
  -14.8503    6.3246   -4.5335 H   0  0  0  0  0  0  0  0  0  0  0  0
  -16.7282    6.0757   -2.7202 O   0  0  0  0  0  0  0  0  0  0  0  0
  -17.4028    6.6023   -1.5582 C   0  0  0  0  0  0  0  0  0  0  0  0
  -18.2863    5.5441   -0.8545 C   0  0  0  0  0  0  0  0  0  0  0  0
  -17.8043    4.1841   -0.9271 O   0  0  0  0  0  0  0  0  0  0  0  0
  -18.3600    5.7830    0.6460 C   0  0  0  0  0  0  0  0  0  0  0  0
  -19.1242    6.9705    0.9669 O   0  0  0  0  0  0  0  0  0  0  0  0
  -19.0850    4.5182    1.0727 C   0  0  0  0  0  0  0  0  0  0  0  0
  -20.5113    4.6820    0.9329 O   0  0  0  0  0  0  0  0  0  0  0  0
  -18.5710    3.4522    0.0787 C   0  0  0  0  0  0  0  0  0  0  0  0
  -20.0064    6.9045    0.5691 H   0  0  0  0  0  0  0  0  0  0  0  0
  -20.7214    4.9170    0.0155 H   0  0  0  0  0  0  0  0  0  0  0  0
  -17.7067    2.4285    0.7589 N   0  0  0  0  0  0  0  0  0  0  0  0
  -16.5066    2.7000    1.2664 C   0  0  0  0  0  0  0  0  0  0  0  0
  -16.0120    1.5839    1.7935 N   0  0  0  0  0  0  0  0  0  0  0  0
  -16.8988    0.6057    1.6192 C   0  0  0  0  0  0  0  0  0  0  0  0
  -17.9570    1.1314    0.9724 C   0  0  0  0  0  0  0  0  0  0  0  0
  -19.0203    0.3580    0.6604 N   0  0  0  0  0  0  0  0  0  0  0  0
  -19.0216   -1.0067    1.0124 C   0  0  0  0  0  0  0  0  0  0  0  0
  -17.9005   -1.5235    1.6878 N   0  0  0  0  0  0  0  0  0  0  0  0
  -16.8748   -0.6948    1.9670 C   0  0  0  0  0  0  0  0  0  0  0  0
  -15.7867   -1.1294    2.6053 N   0  0  0  0  0  0  0  0  0  0  0  0
  -15.0486   -0.5075    2.7995 H   0  0  0  0  0  0  0  0  0  0  0  0
  -15.7220   -2.0720    2.8821 H   0  0  0  0  0  0  0  0  0  0  0  0
 11 10  1  0  0  0
 13 12  1  0  0  0
 10 12  1  0  0  0
 10  8  1  0  0  0
 12 14  1  0  0  0
 21 20  2  0  0  0
 21 22  1  0  0  0
  8 22  1  0  0  0
  8  9  1  0  0  0
 20 19  1  0  0  0
 22 18  2  0  0  0
 14  9  1  0  0  0
 14  7  1  0  0  0
 19 17  2  0  0  0
 18 17  1  0  0  0
 17 25  1  0  0  0
  7  6  1  0  0  0
 38 37  1  0  0  0
 25 24  1  0  0  0
 25 26  2  0  0  0
 40 39  1  0  0  0
  6  2  1  0  0  0
 37 35  1  0  0  0
 37 39  1  0  0  0
 34 35  1  0  0  0
 34 33  1  0  0  0
 35 36  1  0  0  0
 39 41  1  0  0  0
  4  2  2  0  0  0
  2  1  1  0  0  0
  2  3  1  0  0  0
  1 29  1  0  0  0
 33 29  1  0  0  0
 41 36  1  0  0  0
 41 44  1  0  0  0
 31 29  2  0  0  0
 29 30  1  0  0  0
 44 45  1  0  0  0
 44 48  1  0  0  0
 49 48  2  0  0  0
 49 50  1  0  0  0
 45 46  2  0  0  0
 48 47  1  0  0  0
 50 51  2  0  0  0
 46 47  1  0  0  0
 47 52  2  0  0  0
 51 52  1  0  0  0
 52 53  1  0  0  0
 24 27  1  0  0  0
 24 28  1  0  0  0
 22 23  1  0  0  0
 11 15  1  0  0  0
 13 16  1  0  0  0
  3  5  1  0  0  0
 30 32  1  0  0  0
 38 42  1  0  0  0
 40 43  1  0  0  0
 53 54  1  0  0  0
 53 55  1  0  0  0
M  END
> <minimizedAffinity>
-10.73738

$$$$
6EDR_ZNA_A_401


 55 59  0  0  0  0  0  0  0  0999 V2000
  -12.9865   -4.4473    1.7563 O   0  0  0  0  0  0  0  0  0  0  0  0
  -13.0666   -3.2453    2.8458 P   0  0  0  0  0  0  0  0  0  0  0  0
  -14.0322   -3.5916    3.9073 O   0  0  0  0  0  0  0  0  0  0  0  0
  -11.6657   -2.9189    3.2163 O   0  0  0  0  0  0  0  0  0  0  0  0
  -14.0747   -2.8697    4.5538 H   0  0  0  0  0  0  0  0  0  0  0  0
  -13.7364   -2.0566    1.9596 O   0  0  0  0  0  0  0  0  0  0  0  0
  -15.1577   -1.8549    1.8379 C   0  0  0  0  0  0  0  0  0  0  0  0
  -16.2095   -0.2314   -1.7763 C   0  0  0  0  0  0  0  0  0  0  0  0
  -16.5441   -0.3209    0.0036 S   0  0  0  0  0  0  0  0  0  0  0  0
  -15.1599   -1.3785   -1.9766 C   0  0  0  0  0  0  0  0  0  0  0  0
  -15.8678   -2.5443   -2.4200 O   0  0  0  0  0  0  0  0  0  0  0  0
  -14.4839   -1.7292   -0.6233 C   0  0  0  0  0  0  0  0  0  0  0  0
  -13.7938   -2.9949   -0.7225 O   0  0  0  0  0  0  0  0  0  0  0  0
  -15.6320   -1.8505    0.3817 C   0  0  0  0  0  0  0  0  0  0  0  0
  -16.5288   -2.7935   -1.7552 H   0  0  0  0  0  0  0  0  0  0  0  0
  -14.4223   -3.6864   -0.9826 H   0  0  0  0  0  0  0  0  0  0  0  0
  -14.6753    2.8048   -3.4435 C   0  0  0  0  0  0  0  0  0  0  0  0
  -15.0816    1.4936   -3.1372 C   0  0  0  0  0  0  0  0  0  0  0  0
  -15.0688    3.8185   -2.5491 C   0  0  0  0  0  0  0  0  0  0  0  0
  -15.8315    3.5335   -1.4106 C   0  0  0  0  0  0  0  0  0  0  0  0
  -16.2208    2.2284   -1.1178 C   0  0  0  0  0  0  0  0  0  0  0  0
  -15.8325    1.1971   -1.9762 N   0  0  0  0  0  0  0  0  0  0  0  0
  -15.0628    0.9529   -2.5393 H   0  0  0  0  0  0  0  0  0  0  0  0
  -14.5550    3.5578   -5.7006 N   0  0  0  0  0  0  0  0  0  0  0  0
  -13.9177    3.1362   -4.5938 C   0  0  0  0  0  0  0  0  0  0  0  0
  -12.6866    3.0567   -4.5703 O   0  0  0  0  0  0  0  0  0  0  0  0
  -15.5376    3.6180   -5.7100 H   0  0  0  0  0  0  0  0  0  0  0  0
  -14.0389    3.8062   -6.5013 H   0  0  0  0  0  0  0  0  0  0  0  0
  -11.6464   -5.0181    1.0643 P   0  0  0  0  0  0  0  0  0  0  0  0
  -10.8055   -5.6587    2.0955 O   0  0  0  0  0  0  0  0  0  0  0  0
  -11.0803   -3.9108    0.2665 O   0  0  0  0  0  0  0  0  0  0  0  0
  -11.3098   -6.3627    2.5324 H   0  0  0  0  0  0  0  0  0  0  0  0
  -12.1660   -6.2136    0.0583 O   0  0  0  0  0  0  0  0  0  0  0  0
  -11.5367   -6.5389   -1.1991 C   0  0  0  0  0  0  0  0  0  0  0  0
  -12.3892   -6.1105   -2.4178 C   0  0  0  0  0  0  0  0  0  0  0  0
  -12.6917   -4.7002   -2.4999 O   0  0  0  0  0  0  0  0  0  0  0  0
  -11.6604   -6.3634   -3.7288 C   0  0  0  0  0  0  0  0  0  0  0  0
  -11.5422   -7.7776   -4.0169 O   0  0  0  0  0  0  0  0  0  0  0  0
  -12.6133   -5.6738   -4.6901 C   0  0  0  0  0  0  0  0  0  0  0  0
  -13.6851   -6.5638   -5.0643 O   0  0  0  0  0  0  0  0  0  0  0  0
  -13.1669   -4.4897   -3.8655 C   0  0  0  0  0  0  0  0  0  0  0  0
  -12.4231   -8.1837   -4.0106 H   0  0  0  0  0  0  0  0  0  0  0  0
  -14.1465   -6.8674   -4.2669 H   0  0  0  0  0  0  0  0  0  0  0  0
  -12.6833   -3.1692   -4.3947 N   0  0  0  0  0  0  0  0  0  0  0  0
  -12.9289   -2.7377   -5.6297 C   0  0  0  0  0  0  0  0  0  0  0  0
  -12.3656   -1.5422   -5.7759 N   0  0  0  0  0  0  0  0  0  0  0  0
  -11.7629   -1.2170   -4.6337 C   0  0  0  0  0  0  0  0  0  0  0  0
  -11.9596   -2.2325   -3.7707 C   0  0  0  0  0  0  0  0  0  0  0  0
  -11.4534   -2.1734   -2.5192 N   0  0  0  0  0  0  0  0  0  0  0  0
  -10.7143   -1.0436   -2.1149 C   0  0  0  0  0  0  0  0  0  0  0  0
  -10.5280   -0.0006   -3.0409 N   0  0  0  0  0  0  0  0  0  0  0  0
  -11.0607   -0.1265   -4.2727 C   0  0  0  0  0  0  0  0  0  0  0  0
  -10.9162    0.8304   -5.1912 N   0  0  0  0  0  0  0  0  0  0  0  0
  -11.3134    0.7186   -6.0851 H   0  0  0  0  0  0  0  0  0  0  0  0
  -10.4125    1.6482   -4.9751 H   0  0  0  0  0  0  0  0  0  0  0  0
 11 10  1  0  0  0
 13 12  1  0  0  0
 10 12  1  0  0  0
 10  8  1  0  0  0
 12 14  1  0  0  0
 21 20  2  0  0  0
 21 22  1  0  0  0
  8 22  1  0  0  0
  8  9  1  0  0  0
 20 19  1  0  0  0
 22 18  2  0  0  0
 14  9  1  0  0  0
 14  7  1  0  0  0
 19 17  2  0  0  0
 18 17  1  0  0  0
 17 25  1  0  0  0
  7  6  1  0  0  0
 38 37  1  0  0  0
 25 24  1  0  0  0
 25 26  2  0  0  0
 40 39  1  0  0  0
  6  2  1  0  0  0
 37 35  1  0  0  0
 37 39  1  0  0  0
 34 35  1  0  0  0
 34 33  1  0  0  0
 35 36  1  0  0  0
 39 41  1  0  0  0
  4  2  2  0  0  0
  2  1  1  0  0  0
  2  3  1  0  0  0
  1 29  1  0  0  0
 33 29  1  0  0  0
 41 36  1  0  0  0
 41 44  1  0  0  0
 31 29  2  0  0  0
 29 30  1  0  0  0
 44 45  1  0  0  0
 44 48  1  0  0  0
 49 48  2  0  0  0
 49 50  1  0  0  0
 45 46  2  0  0  0
 48 47  1  0  0  0
 50 51  2  0  0  0
 46 47  1  0  0  0
 47 52  2  0  0  0
 51 52  1  0  0  0
 52 53  1  0  0  0
 24 27  1  0  0  0
 24 28  1  0  0  0
 22 23  1  0  0  0
 11 15  1  0  0  0
 13 16  1  0  0  0
  3  5  1  0  0  0
 30 32  1  0  0  0
 38 42  1  0  0  0
 40 43  1  0  0  0
 53 54  1  0  0  0
 53 55  1  0  0  0
M  END
> <minimizedAffinity>
-10.55081

$$$$
6EDR_ZNA_A_401


 55 59  0  0  0  0  0  0  0  0999 V2000
  -13.0615   -5.1121    0.4539 O   0  0  0  0  0  0  0  0  0  0  0  0
  -13.2855   -3.7884    1.3682 P   0  0  0  0  0  0  0  0  0  0  0  0
  -12.7444   -4.0148    2.7228 O   0  0  0  0  0  0  0  0  0  0  0  0
  -12.7900   -2.6373    0.5709 O   0  0  0  0  0  0  0  0  0  0  0  0
  -12.8816   -3.2207    3.2627 H   0  0  0  0  0  0  0  0  0  0  0  0
  -14.9070   -3.7629    1.4994 O   0  0  0  0  0  0  0  0  0  0  0  0
  -15.6399   -2.7017    2.1412 C   0  0  0  0  0  0  0  0  0  0  0  0
  -17.8995    0.3138    0.5272 C   0  0  0  0  0  0  0  0  0  0  0  0
  -17.4499   -0.6164    2.0173 S   0  0  0  0  0  0  0  0  0  0  0  0
  -17.2066   -0.5175   -0.6069 C   0  0  0  0  0  0  0  0  0  0  0  0
  -18.1901   -1.4012   -1.1624 O   0  0  0  0  0  0  0  0  0  0  0  0
  -16.0727   -1.3958   -0.0116 C   0  0  0  0  0  0  0  0  0  0  0  0
  -15.6741   -2.4089   -0.9618 O   0  0  0  0  0  0  0  0  0  0  0  0
  -16.6855   -2.0645    1.2214 C   0  0  0  0  0  0  0  0  0  0  0  0
  -18.5309   -1.9842   -0.4662 H   0  0  0  0  0  0  0  0  0  0  0  0
  -16.4427   -2.9520   -1.1969 H   0  0  0  0  0  0  0  0  0  0  0  0
  -18.0608    4.0871    0.8245 C   0  0  0  0  0  0  0  0  0  0  0  0
  -18.3629    2.7395    0.5579 C   0  0  0  0  0  0  0  0  0  0  0  0
  -16.8107    4.3545    1.4143 C   0  0  0  0  0  0  0  0  0  0  0  0
  -15.9130    3.3261    1.7235 C   0  0  0  0  0  0  0  0  0  0  0  0
  -16.2246    1.9967    1.4475 C   0  0  0  0  0  0  0  0  0  0  0  0
  -17.4502    1.6989    0.8470 N   0  0  0  0  0  0  0  0  0  0  0  0
  -18.0645    2.0901    0.1846 H   0  0  0  0  0  0  0  0  0  0  0  0
  -20.1561    4.8822    0.0161 N   0  0  0  0  0  0  0  0  0  0  0  0
  -18.9486    5.1544    0.5421 C   0  0  0  0  0  0  0  0  0  0  0  0
  -18.6220    6.3169    0.7955 O   0  0  0  0  0  0  0  0  0  0  0  0
  -20.4079    3.9515   -0.1828 H   0  0  0  0  0  0  0  0  0  0  0  0
  -20.7882    5.6137   -0.1700 H   0  0  0  0  0  0  0  0  0  0  0  0
  -11.6517   -5.8355    0.1543 P   0  0  0  0  0  0  0  0  0  0  0  0
  -11.9020   -7.2357   -0.2426 O   0  0  0  0  0  0  0  0  0  0  0  0
  -10.7846   -5.5668    1.3200 O   0  0  0  0  0  0  0  0  0  0  0  0
  -12.4844   -7.2528   -1.0181 H   0  0  0  0  0  0  0  0  0  0  0  0
  -11.0521   -5.0615   -1.1697 O   0  0  0  0  0  0  0  0  0  0  0  0
  -11.1918   -5.5498   -2.5206 C   0  0  0  0  0  0  0  0  0  0  0  0
  -12.4192   -4.9470   -3.2456 C   0  0  0  0  0  0  0  0  0  0  0  0
  -12.8763   -3.6732   -2.7398 O   0  0  0  0  0  0  0  0  0  0  0  0
  -12.1101   -4.6270   -4.7002 C   0  0  0  0  0  0  0  0  0  0  0  0
  -11.9414   -5.8269   -5.4932 O   0  0  0  0  0  0  0  0  0  0  0  0
  -13.3796   -3.8819   -5.0753 C   0  0  0  0  0  0  0  0  0  0  0  0
  -14.4166   -4.8101   -5.4547 O   0  0  0  0  0  0  0  0  0  0  0  0
  -13.7701   -3.1506   -3.7709 C   0  0  0  0  0  0  0  0  0  0  0  0
  -12.7301   -6.3850   -5.4070 H   0  0  0  0  0  0  0  0  0  0  0  0
  -14.5744   -5.4332   -4.7283 H   0  0  0  0  0  0  0  0  0  0  0  0
  -13.6133   -1.6618   -3.8998 N   0  0  0  0  0  0  0  0  0  0  0  0
  -14.5935   -0.7954   -3.6545 C   0  0  0  0  0  0  0  0  0  0  0  0
  -14.1284    0.4332   -3.8602 N   0  0  0  0  0  0  0  0  0  0  0  0
  -12.8539    0.3446   -4.2363 C   0  0  0  0  0  0  0  0  0  0  0  0
  -12.5312   -0.9630   -4.2624 C   0  0  0  0  0  0  0  0  0  0  0  0
  -11.2857   -1.3526   -4.6131 N   0  0  0  0  0  0  0  0  0  0  0  0
  -10.3192   -0.3855   -4.9549 C   0  0  0  0  0  0  0  0  0  0  0  0
  -10.6893    0.9715   -4.9168 N   0  0  0  0  0  0  0  0  0  0  0  0
  -11.9494    1.2885   -4.5581 C   0  0  0  0  0  0  0  0  0  0  0  0
  -12.3560    2.5581   -4.5042 N   0  0  0  0  0  0  0  0  0  0  0  0
  -13.2808    2.7680   -4.2398 H   0  0  0  0  0  0  0  0  0  0  0  0
  -11.7312    3.2850   -4.7289 H   0  0  0  0  0  0  0  0  0  0  0  0
 11 10  1  0  0  0
 13 12  1  0  0  0
 10 12  1  0  0  0
 10  8  1  0  0  0
 12 14  1  0  0  0
 21 20  2  0  0  0
 21 22  1  0  0  0
  8 22  1  0  0  0
  8  9  1  0  0  0
 20 19  1  0  0  0
 22 18  2  0  0  0
 14  9  1  0  0  0
 14  7  1  0  0  0
 19 17  2  0  0  0
 18 17  1  0  0  0
 17 25  1  0  0  0
  7  6  1  0  0  0
 38 37  1  0  0  0
 25 24  1  0  0  0
 25 26  2  0  0  0
 40 39  1  0  0  0
  6  2  1  0  0  0
 37 35  1  0  0  0
 37 39  1  0  0  0
 34 35  1  0  0  0
 34 33  1  0  0  0
 35 36  1  0  0  0
 39 41  1  0  0  0
  4  2  2  0  0  0
  2  1  1  0  0  0
  2  3  1  0  0  0
  1 29  1  0  0  0
 33 29  1  0  0  0
 41 36  1  0  0  0
 41 44  1  0  0  0
 31 29  2  0  0  0
 29 30  1  0  0  0
 44 45  1  0  0  0
 44 48  1  0  0  0
 49 48  2  0  0  0
 49 50  1  0  0  0
 45 46  2  0  0  0
 48 47  1  0  0  0
 50 51  2  0  0  0
 46 47  1  0  0  0
 47 52  2  0  0  0
 51 52  1  0  0  0
 52 53  1  0  0  0
 24 27  1  0  0  0
 24 28  1  0  0  0
 22 23  1  0  0  0
 11 15  1  0  0  0
 13 16  1  0  0  0
  3  5  1  0  0  0
 30 32  1  0  0  0
 38 42  1  0  0  0
 40 43  1  0  0  0
 53 54  1  0  0  0
 53 55  1  0  0  0
M  END
> <minimizedAffinity>
-10.53194

$$$$
6EDR_ZNA_A_401


 55 59  0  0  0  0  0  0  0  0999 V2000
  -13.5031    4.4750   -4.0031 O   0  0  0  0  0  0  0  0  0  0  0  0
  -14.2944    3.1812   -4.5846 P   0  0  0  0  0  0  0  0  0  0  0  0
  -15.6275    3.0831   -3.9582 O   0  0  0  0  0  0  0  0  0  0  0  0
  -14.1906    3.2543   -6.0645 O   0  0  0  0  0  0  0  0  0  0  0  0
  -16.0939    2.3087   -4.3101 H   0  0  0  0  0  0  0  0  0  0  0  0
  -13.3953    1.9636   -3.9878 O   0  0  0  0  0  0  0  0  0  0  0  0
  -13.1109    0.7512   -4.7122 C   0  0  0  0  0  0  0  0  0  0  0  0
  -13.3339   -2.6439   -2.4258 C   0  0  0  0  0  0  0  0  0  0  0  0
  -12.5434   -1.8044   -3.8252 S   0  0  0  0  0  0  0  0  0  0  0  0
  -14.5065   -1.6664   -2.0694 C   0  0  0  0  0  0  0  0  0  0  0  0
  -15.6918   -2.1552   -2.7120 O   0  0  0  0  0  0  0  0  0  0  0  0
  -14.2165   -0.2510   -2.6385 C   0  0  0  0  0  0  0  0  0  0  0  0
  -15.4207    0.5477   -2.6293 O   0  0  0  0  0  0  0  0  0  0  0  0
  -13.7672   -0.4814   -4.0835 C   0  0  0  0  0  0  0  0  0  0  0  0
  -15.5494   -2.1883   -3.6710 H   0  0  0  0  0  0  0  0  0  0  0  0
  -16.1082    0.1022   -3.1486 H   0  0  0  0  0  0  0  0  0  0  0  0
  -11.1861   -4.4057    0.1500 C   0  0  0  0  0  0  0  0  0  0  0  0
  -12.2052   -4.0791   -0.7627 C   0  0  0  0  0  0  0  0  0  0  0  0
  -10.1451   -3.4703    0.3034 C   0  0  0  0  0  0  0  0  0  0  0  0
  -10.1250   -2.2732   -0.4217 C   0  0  0  0  0  0  0  0  0  0  0  0
  -11.1453   -1.9615   -1.3175 C   0  0  0  0  0  0  0  0  0  0  0  0
  -12.2016   -2.8608   -1.4805 N   0  0  0  0  0  0  0  0  0  0  0  0
  -12.7281   -3.4908   -0.9373 H   0  0  0  0  0  0  0  0  0  0  0  0
  -11.8597   -6.6723    0.4417 N   0  0  0  0  0  0  0  0  0  0  0  0
  -11.1616   -5.6137    0.8898 C   0  0  0  0  0  0  0  0  0  0  0  0
  -10.4907   -5.6958    1.9221 O   0  0  0  0  0  0  0  0  0  0  0  0
  -12.3922   -6.5973   -0.3830 H   0  0  0  0  0  0  0  0  0  0  0  0
  -11.8382   -7.5221    0.9383 H   0  0  0  0  0  0  0  0  0  0  0  0
  -14.0940    5.5725   -2.9799 P   0  0  0  0  0  0  0  0  0  0  0  0
  -15.3527    6.1160   -3.5284 O   0  0  0  0  0  0  0  0  0  0  0  0
  -12.9869    6.5020   -2.6742 O   0  0  0  0  0  0  0  0  0  0  0  0
  -15.9802    5.3914   -3.6769 H   0  0  0  0  0  0  0  0  0  0  0  0
  -14.4886    4.7204   -1.6272 O   0  0  0  0  0  0  0  0  0  0  0  0
  -15.5233    5.1129   -0.7009 C   0  0  0  0  0  0  0  0  0  0  0  0
  -16.7716    4.2017   -0.7844 C   0  0  0  0  0  0  0  0  0  0  0  0
  -16.5050    2.8028   -1.0276 O   0  0  0  0  0  0  0  0  0  0  0  0
  -17.5277    4.1638    0.5350 C   0  0  0  0  0  0  0  0  0  0  0  0
  -18.1819    5.4242    0.8190 O   0  0  0  0  0  0  0  0  0  0  0  0
  -18.5333    3.0685    0.2239 C   0  0  0  0  0  0  0  0  0  0  0  0
  -19.6770    3.6139   -0.4656 O   0  0  0  0  0  0  0  0  0  0  0  0
  -17.7537    2.1143   -0.7089 C   0  0  0  0  0  0  0  0  0  0  0  0
  -18.7617    5.6616    0.0785 H   0  0  0  0  0  0  0  0  0  0  0  0
  -19.3834    4.0635   -1.2734 H   0  0  0  0  0  0  0  0  0  0  0  0
  -17.4744    0.7947   -0.0469 N   0  0  0  0  0  0  0  0  0  0  0  0
  -16.7860    0.6715    1.0856 C   0  0  0  0  0  0  0  0  0  0  0  0
  -16.7209   -0.6192    1.3985 N   0  0  0  0  0  0  0  0  0  0  0  0
  -17.3676   -1.3133    0.4638 C   0  0  0  0  0  0  0  0  0  0  0  0
  -17.8377   -0.4318   -0.4399 C   0  0  0  0  0  0  0  0  0  0  0  0
  -18.5424   -0.8607   -1.5102 N   0  0  0  0  0  0  0  0  0  0  0  0
  -18.7855   -2.2381   -1.6829 C   0  0  0  0  0  0  0  0  0  0  0  0
  -18.2807   -3.1315   -0.7201 N   0  0  0  0  0  0  0  0  0  0  0  0
  -17.5860   -2.6342    0.3225 C   0  0  0  0  0  0  0  0  0  0  0  0
  -17.0842   -3.4338    1.2654 N   0  0  0  0  0  0  0  0  0  0  0  0
  -16.5797   -3.0501    2.0188 H   0  0  0  0  0  0  0  0  0  0  0  0
  -17.2183   -4.4074    1.2078 H   0  0  0  0  0  0  0  0  0  0  0  0
 11 10  1  0  0  0
 13 12  1  0  0  0
 10 12  1  0  0  0
 10  8  1  0  0  0
 12 14  1  0  0  0
 21 20  2  0  0  0
 21 22  1  0  0  0
  8 22  1  0  0  0
  8  9  1  0  0  0
 20 19  1  0  0  0
 22 18  2  0  0  0
 14  9  1  0  0  0
 14  7  1  0  0  0
 19 17  2  0  0  0
 18 17  1  0  0  0
 17 25  1  0  0  0
  7  6  1  0  0  0
 38 37  1  0  0  0
 25 24  1  0  0  0
 25 26  2  0  0  0
 40 39  1  0  0  0
  6  2  1  0  0  0
 37 35  1  0  0  0
 37 39  1  0  0  0
 34 35  1  0  0  0
 34 33  1  0  0  0
 35 36  1  0  0  0
 39 41  1  0  0  0
  4  2  2  0  0  0
  2  1  1  0  0  0
  2  3  1  0  0  0
  1 29  1  0  0  0
 33 29  1  0  0  0
 41 36  1  0  0  0
 41 44  1  0  0  0
 31 29  2  0  0  0
 29 30  1  0  0  0
 44 45  1  0  0  0
 44 48  1  0  0  0
 49 48  2  0  0  0
 49 50  1  0  0  0
 45 46  2  0  0  0
 48 47  1  0  0  0
 50 51  2  0  0  0
 46 47  1  0  0  0
 47 52  2  0  0  0
 51 52  1  0  0  0
 52 53  1  0  0  0
 24 27  1  0  0  0
 24 28  1  0  0  0
 22 23  1  0  0  0
 11 15  1  0  0  0
 13 16  1  0  0  0
  3  5  1  0  0  0
 30 32  1  0  0  0
 38 42  1  0  0  0
 40 43  1  0  0  0
 53 54  1  0  0  0
 53 55  1  0  0  0
M  END
> <minimizedAffinity>
-10.32490

$$$$
6EDR_ZNA_A_401


 55 59  0  0  0  0  0  0  0  0999 V2000
  -13.0255   -5.0439    0.8844 O   0  0  0  0  0  0  0  0  0  0  0  0
  -11.6707   -5.7648    0.3523 P   0  0  0  0  0  0  0  0  0  0  0  0
  -10.5684   -5.5314    1.3060 O   0  0  0  0  0  0  0  0  0  0  0  0
  -12.0454   -7.1588    0.0020 O   0  0  0  0  0  0  0  0  0  0  0  0
   -9.7633   -5.9645    0.9819 H   0  0  0  0  0  0  0  0  0  0  0  0
  -11.3450   -4.8875   -0.9786 O   0  0  0  0  0  0  0  0  0  0  0  0
  -11.2120   -5.4545   -2.2963 C   0  0  0  0  0  0  0  0  0  0  0  0
  -13.8404   -3.1363   -4.4228 C   0  0  0  0  0  0  0  0  0  0  0  0
  -13.1230   -3.5227   -2.8029 S   0  0  0  0  0  0  0  0  0  0  0  0
  -13.2868   -4.2976   -5.3186 C   0  0  0  0  0  0  0  0  0  0  0  0
  -14.2975   -5.3127   -5.3896 O   0  0  0  0  0  0  0  0  0  0  0  0
  -12.0327   -4.9327   -4.6588 C   0  0  0  0  0  0  0  0  0  0  0  0
  -11.7325   -6.2040   -5.2767 O   0  0  0  0  0  0  0  0  0  0  0  0
  -12.4163   -5.1545   -3.1937 C   0  0  0  0  0  0  0  0  0  0  0  0
  -14.4985   -5.6319   -4.4960 H   0  0  0  0  0  0  0  0  0  0  0  0
  -12.4995   -6.7923   -5.1950 H   0  0  0  0  0  0  0  0  0  0  0  0
  -13.7967    0.6315   -4.0309 C   0  0  0  0  0  0  0  0  0  0  0  0
  -14.1099   -0.7347   -3.9137 C   0  0  0  0  0  0  0  0  0  0  0  0
  -12.7444    0.9708   -4.9026 C   0  0  0  0  0  0  0  0  0  0  0  0
  -12.0415   -0.0071   -5.6158 C   0  0  0  0  0  0  0  0  0  0  0  0
  -12.3680   -1.3558   -5.4934 C   0  0  0  0  0  0  0  0  0  0  0  0
  -13.4182   -1.7245   -4.6495 N   0  0  0  0  0  0  0  0  0  0  0  0
  -14.2941   -1.3783   -4.3629 H   0  0  0  0  0  0  0  0  0  0  0  0
  -14.1951    1.8294   -2.0104 N   0  0  0  0  0  0  0  0  0  0  0  0
  -14.4728    1.6493   -3.3140 C   0  0  0  0  0  0  0  0  0  0  0  0
  -15.2916    2.3730   -3.8871 O   0  0  0  0  0  0  0  0  0  0  0  0
  -13.5404    1.2470   -1.5616 H   0  0  0  0  0  0  0  0  0  0  0  0
  -14.6466    2.5435   -1.5050 H   0  0  0  0  0  0  0  0  0  0  0  0
  -13.1172   -3.6093    1.6152 P   0  0  0  0  0  0  0  0  0  0  0  0
  -12.5785   -2.5721    0.7126 O   0  0  0  0  0  0  0  0  0  0  0  0
  -12.5113   -3.7785    2.9521 O   0  0  0  0  0  0  0  0  0  0  0  0
  -13.0736   -2.5805   -0.1215 H   0  0  0  0  0  0  0  0  0  0  0  0
  -14.7300   -3.3173    1.7732 O   0  0  0  0  0  0  0  0  0  0  0  0
  -15.2782   -2.1711    2.4575 C   0  0  0  0  0  0  0  0  0  0  0  0
  -16.3082   -1.4018    1.5956 C   0  0  0  0  0  0  0  0  0  0  0  0
  -16.7051   -0.1100    2.1065 O   0  0  0  0  0  0  0  0  0  0  0  0
  -15.7439   -1.0508    0.2273 C   0  0  0  0  0  0  0  0  0  0  0  0
  -15.5777   -2.2237   -0.6056 O   0  0  0  0  0  0  0  0  0  0  0  0
  -16.8554   -0.1519   -0.2866 C   0  0  0  0  0  0  0  0  0  0  0  0
  -17.9103   -0.9398   -0.8759 O   0  0  0  0  0  0  0  0  0  0  0  0
  -17.3677    0.5567    0.9878 C   0  0  0  0  0  0  0  0  0  0  0  0
  -16.4235   -2.6936   -0.6747 H   0  0  0  0  0  0  0  0  0  0  0  0
  -18.2433   -1.5746   -0.2224 H   0  0  0  0  0  0  0  0  0  0  0  0
  -17.0400    2.0230    0.9786 N   0  0  0  0  0  0  0  0  0  0  0  0
  -15.8124    2.5031    1.1633 C   0  0  0  0  0  0  0  0  0  0  0  0
  -15.8664    3.8300    1.0953 N   0  0  0  0  0  0  0  0  0  0  0  0
  -17.1284    4.1900    0.8681 C   0  0  0  0  0  0  0  0  0  0  0  0
  -17.8624    3.0628    0.7961 C   0  0  0  0  0  0  0  0  0  0  0  0
  -19.1932    3.1272    0.5702 N   0  0  0  0  0  0  0  0  0  0  0  0
  -19.8169    4.3809    0.4105 C   0  0  0  0  0  0  0  0  0  0  0  0
  -19.0208    5.5383    0.4911 N   0  0  0  0  0  0  0  0  0  0  0  0
  -17.6995    5.4000    0.7191 C   0  0  0  0  0  0  0  0  0  0  0  0
  -16.8962    6.4618    0.8050 N   0  0  0  0  0  0  0  0  0  0  0  0
  -15.9338    6.3388    0.9721 H   0  0  0  0  0  0  0  0  0  0  0  0
  -17.2659    7.3684    0.7014 H   0  0  0  0  0  0  0  0  0  0  0  0
 11 10  1  0  0  0
 13 12  1  0  0  0
 10 12  1  0  0  0
 10  8  1  0  0  0
 12 14  1  0  0  0
 21 20  2  0  0  0
 21 22  1  0  0  0
  8 22  1  0  0  0
  8  9  1  0  0  0
 20 19  1  0  0  0
 22 18  2  0  0  0
 14  9  1  0  0  0
 14  7  1  0  0  0
 19 17  2  0  0  0
 18 17  1  0  0  0
 17 25  1  0  0  0
  7  6  1  0  0  0
 38 37  1  0  0  0
 25 24  1  0  0  0
 25 26  2  0  0  0
 40 39  1  0  0  0
  6  2  1  0  0  0
 37 35  1  0  0  0
 37 39  1  0  0  0
 34 35  1  0  0  0
 34 33  1  0  0  0
 35 36  1  0  0  0
 39 41  1  0  0  0
  4  2  2  0  0  0
  2  1  1  0  0  0
  2  3  1  0  0  0
  1 29  1  0  0  0
 33 29  1  0  0  0
 41 36  1  0  0  0
 41 44  1  0  0  0
 31 29  2  0  0  0
 29 30  1  0  0  0
 44 45  1  0  0  0
 44 48  1  0  0  0
 49 48  2  0  0  0
 49 50  1  0  0  0
 45 46  2  0  0  0
 48 47  1  0  0  0
 50 51  2  0  0  0
 46 47  1  0  0  0
 47 52  2  0  0  0
 51 52  1  0  0  0
 52 53  1  0  0  0
 24 27  1  0  0  0
 24 28  1  0  0  0
 22 23  1  0  0  0
 11 15  1  0  0  0
 13 16  1  0  0  0
  3  5  1  0  0  0
 30 32  1  0  0  0
 38 42  1  0  0  0
 40 43  1  0  0  0
 53 54  1  0  0  0
 53 55  1  0  0  0
M  END
> <minimizedAffinity>
-10.31993

$$$$
6EDR_ZNA_A_401


 55 59  0  0  0  0  0  0  0  0999 V2000
  -16.1750   -3.8128    1.7929 O   0  0  0  0  0  0  0  0  0  0  0  0
  -17.7786   -3.6926    1.5645 P   0  0  0  0  0  0  0  0  0  0  0  0
  -18.2395   -4.7627    0.6581 O   0  0  0  0  0  0  0  0  0  0  0  0
  -18.3880   -3.5705    2.9135 O   0  0  0  0  0  0  0  0  0  0  0  0
  -19.1974   -4.6847    0.5264 H   0  0  0  0  0  0  0  0  0  0  0  0
  -17.8788   -2.2929    0.7412 O   0  0  0  0  0  0  0  0  0  0  0  0
  -18.2540   -2.2078   -0.6471 C   0  0  0  0  0  0  0  0  0  0  0  0
  -16.1792    1.0183   -2.0935 C   0  0  0  0  0  0  0  0  0  0  0  0
  -17.7917    0.2114   -1.9015 S   0  0  0  0  0  0  0  0  0  0  0  0
  -15.1891   -0.0944   -1.6046 C   0  0  0  0  0  0  0  0  0  0  0  0
  -14.7035   -0.7855   -2.7637 O   0  0  0  0  0  0  0  0  0  0  0  0
  -15.9388   -1.1301   -0.7234 C   0  0  0  0  0  0  0  0  0  0  0  0
  -15.1403   -2.3242   -0.5664 O   0  0  0  0  0  0  0  0  0  0  0  0
  -17.2163   -1.4676   -1.4961 C   0  0  0  0  0  0  0  0  0  0  0  0
  -15.4505   -1.1752   -3.2443 H   0  0  0  0  0  0  0  0  0  0  0  0
  -14.9398   -2.6962   -1.4396 H   0  0  0  0  0  0  0  0  0  0  0  0
  -16.1417    4.7431   -1.4035 C   0  0  0  0  0  0  0  0  0  0  0  0
  -16.0168    3.4813   -2.0123 C   0  0  0  0  0  0  0  0  0  0  0  0
  -16.6304    4.7673   -0.0833 C   0  0  0  0  0  0  0  0  0  0  0  0
  -16.9785    3.5902    0.5893 C   0  0  0  0  0  0  0  0  0  0  0  0
  -16.8430    2.3475   -0.0255 C   0  0  0  0  0  0  0  0  0  0  0  0
  -16.3451    2.2875   -1.3292 N   0  0  0  0  0  0  0  0  0  0  0  0
  -15.6871    2.7553   -1.8926 H   0  0  0  0  0  0  0  0  0  0  0  0
  -15.7927    5.9951   -3.4001 N   0  0  0  0  0  0  0  0  0  0  0  0
  -15.8162    5.9577   -2.0559 C   0  0  0  0  0  0  0  0  0  0  0  0
  -15.5771    6.9723   -1.3956 O   0  0  0  0  0  0  0  0  0  0  0  0
  -15.9848    5.1805   -3.9186 H   0  0  0  0  0  0  0  0  0  0  0  0
  -15.5834    6.8370   -3.8656 H   0  0  0  0  0  0  0  0  0  0  0  0
  -15.3216   -3.0909    2.9554 P   0  0  0  0  0  0  0  0  0  0  0  0
  -15.9707   -3.3420    4.2578 O   0  0  0  0  0  0  0  0  0  0  0  0
  -15.1115   -1.6953    2.5184 O   0  0  0  0  0  0  0  0  0  0  0  0
  -16.0391   -4.2981    4.4060 H   0  0  0  0  0  0  0  0  0  0  0  0
  -13.8795   -3.8855    2.9769 O   0  0  0  0  0  0  0  0  0  0  0  0
  -12.7620   -3.5502    2.1275 C   0  0  0  0  0  0  0  0  0  0  0  0
  -12.5856   -4.5479    0.9575 C   0  0  0  0  0  0  0  0  0  0  0  0
  -13.1507   -4.1314   -0.3052 O   0  0  0  0  0  0  0  0  0  0  0  0
  -11.1189   -4.7476    0.6070 C   0  0  0  0  0  0  0  0  0  0  0  0
  -10.4113   -5.4765    1.6391 O   0  0  0  0  0  0  0  0  0  0  0  0
  -11.2670   -5.5727   -0.6599 C   0  0  0  0  0  0  0  0  0  0  0  0
  -11.4249   -6.9698   -0.3371 O   0  0  0  0  0  0  0  0  0  0  0  0
  -12.5619   -5.0242   -1.3009 C   0  0  0  0  0  0  0  0  0  0  0  0
  -10.8601   -6.3204    1.8044 H   0  0  0  0  0  0  0  0  0  0  0  0
  -12.1898   -7.0819    0.2487 H   0  0  0  0  0  0  0  0  0  0  0  0
  -12.2794   -4.2800   -2.5753 N   0  0  0  0  0  0  0  0  0  0  0  0
  -12.3613   -4.8331   -3.7832 C   0  0  0  0  0  0  0  0  0  0  0  0
  -12.0520   -3.9100   -4.6889 N   0  0  0  0  0  0  0  0  0  0  0  0
  -11.7738   -2.7726   -4.0544 C   0  0  0  0  0  0  0  0  0  0  0  0
  -11.9144   -3.0024   -2.7345 C   0  0  0  0  0  0  0  0  0  0  0  0
  -11.6927   -2.0130   -1.8412 N   0  0  0  0  0  0  0  0  0  0  0  0
  -11.3109   -0.7338   -2.2928 C   0  0  0  0  0  0  0  0  0  0  0  0
  -11.1736   -0.5277   -3.6779 N   0  0  0  0  0  0  0  0  0  0  0  0
  -11.4101   -1.5598   -4.5121 C   0  0  0  0  0  0  0  0  0  0  0  0
  -11.2957   -1.4225   -5.8343 N   0  0  0  0  0  0  0  0  0  0  0  0
  -11.4730   -2.1891   -6.4260 H   0  0  0  0  0  0  0  0  0  0  0  0
  -11.0339   -0.5545   -6.2182 H   0  0  0  0  0  0  0  0  0  0  0  0
 11 10  1  0  0  0
 13 12  1  0  0  0
 10 12  1  0  0  0
 10  8  1  0  0  0
 12 14  1  0  0  0
 21 20  2  0  0  0
 21 22  1  0  0  0
  8 22  1  0  0  0
  8  9  1  0  0  0
 20 19  1  0  0  0
 22 18  2  0  0  0
 14  9  1  0  0  0
 14  7  1  0  0  0
 19 17  2  0  0  0
 18 17  1  0  0  0
 17 25  1  0  0  0
  7  6  1  0  0  0
 38 37  1  0  0  0
 25 24  1  0  0  0
 25 26  2  0  0  0
 40 39  1  0  0  0
  6  2  1  0  0  0
 37 35  1  0  0  0
 37 39  1  0  0  0
 34 35  1  0  0  0
 34 33  1  0  0  0
 35 36  1  0  0  0
 39 41  1  0  0  0
  4  2  2  0  0  0
  2  1  1  0  0  0
  2  3  1  0  0  0
  1 29  1  0  0  0
 33 29  1  0  0  0
 41 36  1  0  0  0
 41 44  1  0  0  0
 31 29  2  0  0  0
 29 30  1  0  0  0
 44 45  1  0  0  0
 44 48  1  0  0  0
 49 48  2  0  0  0
 49 50  1  0  0  0
 45 46  2  0  0  0
 48 47  1  0  0  0
 50 51  2  0  0  0
 46 47  1  0  0  0
 47 52  2  0  0  0
 51 52  1  0  0  0
 52 53  1  0  0  0
 24 27  1  0  0  0
 24 28  1  0  0  0
 22 23  1  0  0  0
 11 15  1  0  0  0
 13 16  1  0  0  0
  3  5  1  0  0  0
 30 32  1  0  0  0
 38 42  1  0  0  0
 40 43  1  0  0  0
 53 54  1  0  0  0
 53 55  1  0  0  0
M  END
> <minimizedAffinity>
-10.23835

$$$$
6EDR_ZNA_A_401


 55 59  0  0  0  0  0  0  0  0999 V2000
  -14.9992    4.0254   -2.9864 O   0  0  0  0  0  0  0  0  0  0  0  0
  -14.2610    3.2006   -4.1752 P   0  0  0  0  0  0  0  0  0  0  0  0
  -14.9371    3.4586   -5.4618 O   0  0  0  0  0  0  0  0  0  0  0  0
  -12.8091    3.4864   -4.0472 O   0  0  0  0  0  0  0  0  0  0  0  0
  -14.4911    2.9631   -6.1664 H   0  0  0  0  0  0  0  0  0  0  0  0
  -14.6010    1.6657   -3.7561 O   0  0  0  0  0  0  0  0  0  0  0  0
  -15.6186    1.3047   -2.8024 C   0  0  0  0  0  0  0  0  0  0  0  0
  -13.8901   -1.4101   -0.2634 C   0  0  0  0  0  0  0  0  0  0  0  0
  -15.3015   -1.0131   -1.3303 S   0  0  0  0  0  0  0  0  0  0  0  0
  -13.1033   -0.0545   -0.2328 C   0  0  0  0  0  0  0  0  0  0  0  0
  -13.4887    0.6460    0.9578 O   0  0  0  0  0  0  0  0  0  0  0  0
  -13.5073    0.8276   -1.4452 C   0  0  0  0  0  0  0  0  0  0  0  0
  -13.0711    2.1898   -1.2396 O   0  0  0  0  0  0  0  0  0  0  0  0
  -15.0367    0.7814   -1.4859 C   0  0  0  0  0  0  0  0  0  0  0  0
  -14.4459    0.8027    0.9452 H   0  0  0  0  0  0  0  0  0  0  0  0
  -13.4591    2.5333   -0.4197 H   0  0  0  0  0  0  0  0  0  0  0  0
  -12.3099   -4.8425   -0.5356 C   0  0  0  0  0  0  0  0  0  0  0  0
  -12.8662   -3.6471   -0.0458 C   0  0  0  0  0  0  0  0  0  0  0  0
  -12.2311   -4.9816   -1.9344 C   0  0  0  0  0  0  0  0  0  0  0  0
  -12.6886   -3.9780   -2.7960 C   0  0  0  0  0  0  0  0  0  0  0  0
  -13.2314   -2.7969   -2.2951 C   0  0  0  0  0  0  0  0  0  0  0  0
  -13.3085   -2.6203   -0.9116 N   0  0  0  0  0  0  0  0  0  0  0  0
  -12.7895   -2.8467   -0.1063 H   0  0  0  0  0  0  0  0  0  0  0  0
  -10.9408   -5.6157    1.2543 N   0  0  0  0  0  0  0  0  0  0  0  0
  -11.8513   -5.8884    0.3028 C   0  0  0  0  0  0  0  0  0  0  0  0
  -12.2991   -7.0306    0.1715 O   0  0  0  0  0  0  0  0  0  0  0  0
  -10.5891   -4.7013    1.3515 H   0  0  0  0  0  0  0  0  0  0  0  0
  -10.6259   -6.3305    1.8535 H   0  0  0  0  0  0  0  0  0  0  0  0
  -14.9014    5.6139   -2.7262 P   0  0  0  0  0  0  0  0  0  0  0  0
  -14.2904    6.2598   -3.9053 O   0  0  0  0  0  0  0  0  0  0  0  0
  -14.2620    5.7855   -1.4054 O   0  0  0  0  0  0  0  0  0  0  0  0
  -14.8182    6.0586   -4.6939 H   0  0  0  0  0  0  0  0  0  0  0  0
  -16.4642    6.1276   -2.6537 O   0  0  0  0  0  0  0  0  0  0  0  0
  -17.1381    6.4876   -1.4294 C   0  0  0  0  0  0  0  0  0  0  0  0
  -18.0724    5.3663   -0.9144 C   0  0  0  0  0  0  0  0  0  0  0  0
  -17.5084    4.0361   -0.9191 O   0  0  0  0  0  0  0  0  0  0  0  0
  -18.4294    5.5627    0.5511 C   0  0  0  0  0  0  0  0  0  0  0  0
  -19.3055    6.6991    0.7460 O   0  0  0  0  0  0  0  0  0  0  0  0
  -19.1463    4.2505    0.8195 C   0  0  0  0  0  0  0  0  0  0  0  0
  -20.5309    4.3416    0.4251 O   0  0  0  0  0  0  0  0  0  0  0  0
  -18.4012    3.2391   -0.0808 C   0  0  0  0  0  0  0  0  0  0  0  0
  -20.0961    6.5964    0.1935 H   0  0  0  0  0  0  0  0  0  0  0  0
  -20.5848    4.5883   -0.5114 H   0  0  0  0  0  0  0  0  0  0  0  0
  -17.6171    2.2459    0.7294 N   0  0  0  0  0  0  0  0  0  0  0  0
  -16.4828    2.5431    1.3593 C   0  0  0  0  0  0  0  0  0  0  0  0
  -16.0485    1.4497    1.9790 N   0  0  0  0  0  0  0  0  0  0  0  0
  -16.9076    0.4602    1.7411 C   0  0  0  0  0  0  0  0  0  0  0  0
  -17.8869    0.9556    0.9601 C   0  0  0  0  0  0  0  0  0  0  0  0
  -18.9063    0.1648    0.5580 N   0  0  0  0  0  0  0  0  0  0  0  0
  -18.9441   -1.1864    0.9568 C   0  0  0  0  0  0  0  0  0  0  0  0
  -17.9056   -1.6715    1.7729 N   0  0  0  0  0  0  0  0  0  0  0  0
  -16.9200   -0.8268    2.1361 C   0  0  0  0  0  0  0  0  0  0  0  0
  -15.9103   -1.2313    2.9087 N   0  0  0  0  0  0  0  0  0  0  0  0
  -15.2003   -0.5982    3.1625 H   0  0  0  0  0  0  0  0  0  0  0  0
  -15.8751   -2.1630    3.2250 H   0  0  0  0  0  0  0  0  0  0  0  0
 11 10  1  0  0  0
 13 12  1  0  0  0
 10 12  1  0  0  0
 10  8  1  0  0  0
 12 14  1  0  0  0
 21 20  2  0  0  0
 21 22  1  0  0  0
  8 22  1  0  0  0
  8  9  1  0  0  0
 20 19  1  0  0  0
 22 18  2  0  0  0
 14  9  1  0  0  0
 14  7  1  0  0  0
 19 17  2  0  0  0
 18 17  1  0  0  0
 17 25  1  0  0  0
  7  6  1  0  0  0
 38 37  1  0  0  0
 25 24  1  0  0  0
 25 26  2  0  0  0
 40 39  1  0  0  0
  6  2  1  0  0  0
 37 35  1  0  0  0
 37 39  1  0  0  0
 34 35  1  0  0  0
 34 33  1  0  0  0
 35 36  1  0  0  0
 39 41  1  0  0  0
  4  2  2  0  0  0
  2  1  1  0  0  0
  2  3  1  0  0  0
  1 29  1  0  0  0
 33 29  1  0  0  0
 41 36  1  0  0  0
 41 44  1  0  0  0
 31 29  2  0  0  0
 29 30  1  0  0  0
 44 45  1  0  0  0
 44 48  1  0  0  0
 49 48  2  0  0  0
 49 50  1  0  0  0
 45 46  2  0  0  0
 48 47  1  0  0  0
 50 51  2  0  0  0
 46 47  1  0  0  0
 47 52  2  0  0  0
 51 52  1  0  0  0
 52 53  1  0  0  0
 24 27  1  0  0  0
 24 28  1  0  0  0
 22 23  1  0  0  0
 11 15  1  0  0  0
 13 16  1  0  0  0
  3  5  1  0  0  0
 30 32  1  0  0  0
 38 42  1  0  0  0
 40 43  1  0  0  0
 53 54  1  0  0  0
 53 55  1  0  0  0
M  END
> <minimizedAffinity>
-10.19791

$$$$
6EDR_ZNA_A_401


 55 59  0  0  0  0  0  0  0  0999 V2000
  -12.6172   -6.0439   -1.8071 O   0  0  0  0  0  0  0  0  0  0  0  0
  -11.9949   -5.6508   -3.2550 P   0  0  0  0  0  0  0  0  0  0  0  0
  -10.8106   -6.4856   -3.5373 O   0  0  0  0  0  0  0  0  0  0  0  0
  -13.1288   -5.6501   -4.2144 O   0  0  0  0  0  0  0  0  0  0  0  0
  -10.4447   -6.2454   -4.4029 H   0  0  0  0  0  0  0  0  0  0  0  0
  -11.4588   -4.1410   -2.9717 O   0  0  0  0  0  0  0  0  0  0  0  0
  -12.0083   -2.9671   -3.6004 C   0  0  0  0  0  0  0  0  0  0  0  0
  -14.4767    0.0120   -2.2452 C   0  0  0  0  0  0  0  0  0  0  0  0
  -12.7797   -0.6145   -2.3715 S   0  0  0  0  0  0  0  0  0  0  0  0
  -15.3200   -1.2008   -2.7699 C   0  0  0  0  0  0  0  0  0  0  0  0
  -15.7730   -1.9425   -1.6290 O   0  0  0  0  0  0  0  0  0  0  0  0
  -14.4280   -2.1474   -3.6182 C   0  0  0  0  0  0  0  0  0  0  0  0
  -15.0853   -3.4209   -3.8033 O   0  0  0  0  0  0  0  0  0  0  0  0
  -13.1529   -2.3455   -2.7949 C   0  0  0  0  0  0  0  0  0  0  0  0
  -15.0076   -2.2496   -1.1183 H   0  0  0  0  0  0  0  0  0  0  0  0
  -15.2784   -3.8140   -2.9378 H   0  0  0  0  0  0  0  0  0  0  0  0
  -15.0180    3.6845   -3.0016 C   0  0  0  0  0  0  0  0  0  0  0  0
  -15.0165    2.4177   -2.3904 C   0  0  0  0  0  0  0  0  0  0  0  0
  -14.3773    3.7892   -4.2509 C   0  0  0  0  0  0  0  0  0  0  0  0
  -13.7651    2.6843   -4.8537 C   0  0  0  0  0  0  0  0  0  0  0  0
  -13.7777    1.4346   -4.2383 C   0  0  0  0  0  0  0  0  0  0  0  0
  -14.4197    1.2931   -3.0058 N   0  0  0  0  0  0  0  0  0  0  0  0
  -15.2091    1.6486   -2.5371 H   0  0  0  0  0  0  0  0  0  0  0  0
  -15.8882    4.8266   -1.1005 N   0  0  0  0  0  0  0  0  0  0  0  0
  -15.6115    4.8302   -2.4167 C   0  0  0  0  0  0  0  0  0  0  0  0
  -15.8521    5.8249   -3.1059 O   0  0  0  0  0  0  0  0  0  0  0  0
  -15.6928    4.0283   -0.5586 H   0  0  0  0  0  0  0  0  0  0  0  0
  -16.2862    5.6224   -0.6791 H   0  0  0  0  0  0  0  0  0  0  0  0
  -11.8278   -6.0502   -0.4009 P   0  0  0  0  0  0  0  0  0  0  0  0
  -10.5090   -5.4116   -0.5843 O   0  0  0  0  0  0  0  0  0  0  0  0
  -11.8866   -7.4359    0.1085 O   0  0  0  0  0  0  0  0  0  0  0  0
  -10.6303   -4.5104   -0.9220 H   0  0  0  0  0  0  0  0  0  0  0  0
  -12.7062   -5.0633    0.5818 O   0  0  0  0  0  0  0  0  0  0  0  0
  -12.6484   -3.6220    0.5362 C   0  0  0  0  0  0  0  0  0  0  0  0
  -13.7584   -2.9563    1.3849 C   0  0  0  0  0  0  0  0  0  0  0  0
  -15.1033   -3.1102    0.8803 O   0  0  0  0  0  0  0  0  0  0  0  0
  -13.8570   -3.5806    2.7685 C   0  0  0  0  0  0  0  0  0  0  0  0
  -12.7113   -3.2535    3.5915 O   0  0  0  0  0  0  0  0  0  0  0  0
  -15.1189   -2.8989    3.2691 C   0  0  0  0  0  0  0  0  0  0  0  0
  -14.8070   -1.6059    3.8273 O   0  0  0  0  0  0  0  0  0  0  0  0
  -15.9743   -2.7360    1.9922 C   0  0  0  0  0  0  0  0  0  0  0  0
  -12.6109   -2.2898    3.6377 H   0  0  0  0  0  0  0  0  0  0  0  0
  -14.3551   -1.0661    3.1600 H   0  0  0  0  0  0  0  0  0  0  0  0
  -17.1944   -3.6123    2.0247 N   0  0  0  0  0  0  0  0  0  0  0  0
  -17.5576   -4.3277    3.0867 C   0  0  0  0  0  0  0  0  0  0  0  0
  -18.6735   -4.9859    2.7872 N   0  0  0  0  0  0  0  0  0  0  0  0
  -19.0164   -4.6876    1.5354 C   0  0  0  0  0  0  0  0  0  0  0  0
  -18.0932   -3.8309    1.0577 C   0  0  0  0  0  0  0  0  0  0  0  0
  -18.1904   -3.3549   -0.2033 N   0  0  0  0  0  0  0  0  0  0  0  0
  -19.2629   -3.7582   -1.0238 C   0  0  0  0  0  0  0  0  0  0  0  0
  -20.2098   -4.6537   -0.4935 N   0  0  0  0  0  0  0  0  0  0  0  0
  -20.0507   -5.0886    0.7724 C   0  0  0  0  0  0  0  0  0  0  0  0
  -20.9172   -5.9379    1.3275 N   0  0  0  0  0  0  0  0  0  0  0  0
  -20.7826   -6.2433    2.2537 H   0  0  0  0  0  0  0  0  0  0  0  0
  -21.6912   -6.2592    0.8108 H   0  0  0  0  0  0  0  0  0  0  0  0
 11 10  1  0  0  0
 13 12  1  0  0  0
 10 12  1  0  0  0
 10  8  1  0  0  0
 12 14  1  0  0  0
 21 20  2  0  0  0
 21 22  1  0  0  0
  8 22  1  0  0  0
  8  9  1  0  0  0
 20 19  1  0  0  0
 22 18  2  0  0  0
 14  9  1  0  0  0
 14  7  1  0  0  0
 19 17  2  0  0  0
 18 17  1  0  0  0
 17 25  1  0  0  0
  7  6  1  0  0  0
 38 37  1  0  0  0
 25 24  1  0  0  0
 25 26  2  0  0  0
 40 39  1  0  0  0
  6  2  1  0  0  0
 37 35  1  0  0  0
 37 39  1  0  0  0
 34 35  1  0  0  0
 34 33  1  0  0  0
 35 36  1  0  0  0
 39 41  1  0  0  0
  4  2  2  0  0  0
  2  1  1  0  0  0
  2  3  1  0  0  0
  1 29  1  0  0  0
 33 29  1  0  0  0
 41 36  1  0  0  0
 41 44  1  0  0  0
 31 29  2  0  0  0
 29 30  1  0  0  0
 44 45  1  0  0  0
 44 48  1  0  0  0
 49 48  2  0  0  0
 49 50  1  0  0  0
 45 46  2  0  0  0
 48 47  1  0  0  0
 50 51  2  0  0  0
 46 47  1  0  0  0
 47 52  2  0  0  0
 51 52  1  0  0  0
 52 53  1  0  0  0
 24 27  1  0  0  0
 24 28  1  0  0  0
 22 23  1  0  0  0
 11 15  1  0  0  0
 13 16  1  0  0  0
  3  5  1  0  0  0
 30 32  1  0  0  0
 38 42  1  0  0  0
 40 43  1  0  0  0
 53 54  1  0  0  0
 53 55  1  0  0  0
M  END
> <minimizedAffinity>
-10.11920

$$$$
6EDR_ZNA_A_401


 55 59  0  0  0  0  0  0  0  0999 V2000
  -14.2125    5.4624   -1.6906 O   0  0  0  0  0  0  0  0  0  0  0  0
  -14.6936    5.2165   -3.2224 P   0  0  0  0  0  0  0  0  0  0  0  0
  -16.0384    5.7903   -3.4259 O   0  0  0  0  0  0  0  0  0  0  0  0
  -13.5745    5.6617   -4.0917 O   0  0  0  0  0  0  0  0  0  0  0  0
  -16.3189    5.6398   -4.3422 H   0  0  0  0  0  0  0  0  0  0  0  0
  -14.8557    3.5979   -3.2490 O   0  0  0  0  0  0  0  0  0  0  0  0
  -14.0572    2.7019   -2.4522 C   0  0  0  0  0  0  0  0  0  0  0  0
  -12.0339   -0.4355   -4.1456 C   0  0  0  0  0  0  0  0  0  0  0  0
  -12.6355    0.3374   -2.6196 S   0  0  0  0  0  0  0  0  0  0  0  0
  -12.3161    0.6748   -5.2157 C   0  0  0  0  0  0  0  0  0  0  0  0
  -11.1026    1.4151   -5.4059 O   0  0  0  0  0  0  0  0  0  0  0  0
  -13.3901    1.6655   -4.6902 C   0  0  0  0  0  0  0  0  0  0  0  0
  -13.3989    2.8661   -5.4945 O   0  0  0  0  0  0  0  0  0  0  0  0
  -12.9574    2.0099   -3.2629 C   0  0  0  0  0  0  0  0  0  0  0  0
  -10.8291    1.8097   -4.5630 H   0  0  0  0  0  0  0  0  0  0  0  0
  -12.5184    3.2726   -5.4782 H   0  0  0  0  0  0  0  0  0  0  0  0
  -12.5542   -4.1780   -4.4200 C   0  0  0  0  0  0  0  0  0  0  0  0
  -11.9827   -2.8933   -4.3825 C   0  0  0  0  0  0  0  0  0  0  0  0
  -13.9455   -4.2617   -4.2211 C   0  0  0  0  0  0  0  0  0  0  0  0
  -14.7217   -3.1195   -3.9935 C   0  0  0  0  0  0  0  0  0  0  0  0
  -14.1414   -1.8534   -3.9656 C   0  0  0  0  0  0  0  0  0  0  0  0
  -12.7657   -1.7341   -4.1760 N   0  0  0  0  0  0  0  0  0  0  0  0
  -12.0590   -2.1614   -4.7119 H   0  0  0  0  0  0  0  0  0  0  0  0
  -11.1822   -5.9383   -3.5863 N   0  0  0  0  0  0  0  0  0  0  0  0
  -11.8009   -5.3592   -4.6307 C   0  0  0  0  0  0  0  0  0  0  0  0
  -11.7320   -5.8587   -5.7568 O   0  0  0  0  0  0  0  0  0  0  0  0
  -11.2428   -5.5324   -2.6914 H   0  0  0  0  0  0  0  0  0  0  0  0
  -10.6687   -6.7680   -3.7168 H   0  0  0  0  0  0  0  0  0  0  0  0
  -14.2989    6.8517   -0.8764 P   0  0  0  0  0  0  0  0  0  0  0  0
  -13.9318    7.9630   -1.7769 O   0  0  0  0  0  0  0  0  0  0  0  0
  -13.5297    6.6576    0.3701 O   0  0  0  0  0  0  0  0  0  0  0  0
  -14.5212    7.9631   -2.5473 H   0  0  0  0  0  0  0  0  0  0  0  0
  -15.8956    7.0329   -0.5170 O   0  0  0  0  0  0  0  0  0  0  0  0
  -16.5400    6.4212    0.6203 C   0  0  0  0  0  0  0  0  0  0  0  0
  -17.6173    5.3893    0.2080 C   0  0  0  0  0  0  0  0  0  0  0  0
  -17.1759    4.3612   -0.7060 O   0  0  0  0  0  0  0  0  0  0  0  0
  -18.1023    4.5781    1.3999 C   0  0  0  0  0  0  0  0  0  0  0  0
  -18.8894    5.3791    2.3142 O   0  0  0  0  0  0  0  0  0  0  0  0
  -18.9561    3.5482    0.6801 C   0  0  0  0  0  0  0  0  0  0  0  0
  -20.2800    4.0684    0.4405 O   0  0  0  0  0  0  0  0  0  0  0  0
  -18.2161    3.3360   -0.6600 C   0  0  0  0  0  0  0  0  0  0  0  0
  -19.6260    5.7883    1.8336 H   0  0  0  0  0  0  0  0  0  0  0  0
  -20.2167    4.8920   -0.0679 H   0  0  0  0  0  0  0  0  0  0  0  0
  -17.6093    1.9644   -0.7491 N   0  0  0  0  0  0  0  0  0  0  0  0
  -18.0526    1.0164   -1.5716 C   0  0  0  0  0  0  0  0  0  0  0  0
  -17.3019   -0.0683   -1.4044 N   0  0  0  0  0  0  0  0  0  0  0  0
  -16.3837    0.1927   -0.4757 C   0  0  0  0  0  0  0  0  0  0  0  0
  -16.5751    1.4612   -0.0649 C   0  0  0  0  0  0  0  0  0  0  0  0
  -15.7776    2.0000    0.8836 N   0  0  0  0  0  0  0  0  0  0  0  0
  -14.7406    1.2300    1.4473 C   0  0  0  0  0  0  0  0  0  0  0  0
  -14.5679   -0.0913    0.9952 N   0  0  0  0  0  0  0  0  0  0  0  0
  -15.4004   -0.5643    0.0464 C   0  0  0  0  0  0  0  0  0  0  0  0
  -15.2836   -1.8088   -0.4201 N   0  0  0  0  0  0  0  0  0  0  0  0
  -15.9020   -2.1347   -1.1133 H   0  0  0  0  0  0  0  0  0  0  0  0
  -14.5789   -2.4012   -0.0712 H   0  0  0  0  0  0  0  0  0  0  0  0
 11 10  1  0  0  0
 13 12  1  0  0  0
 10 12  1  0  0  0
 10  8  1  0  0  0
 12 14  1  0  0  0
 21 20  2  0  0  0
 21 22  1  0  0  0
  8 22  1  0  0  0
  8  9  1  0  0  0
 20 19  1  0  0  0
 22 18  2  0  0  0
 14  9  1  0  0  0
 14  7  1  0  0  0
 19 17  2  0  0  0
 18 17  1  0  0  0
 17 25  1  0  0  0
  7  6  1  0  0  0
 38 37  1  0  0  0
 25 24  1  0  0  0
 25 26  2  0  0  0
 40 39  1  0  0  0
  6  2  1  0  0  0
 37 35  1  0  0  0
 37 39  1  0  0  0
 34 35  1  0  0  0
 34 33  1  0  0  0
 35 36  1  0  0  0
 39 41  1  0  0  0
  4  2  2  0  0  0
  2  1  1  0  0  0
  2  3  1  0  0  0
  1 29  1  0  0  0
 33 29  1  0  0  0
 41 36  1  0  0  0
 41 44  1  0  0  0
 31 29  2  0  0  0
 29 30  1  0  0  0
 44 45  1  0  0  0
 44 48  1  0  0  0
 49 48  2  0  0  0
 49 50  1  0  0  0
 45 46  2  0  0  0
 48 47  1  0  0  0
 50 51  2  0  0  0
 46 47  1  0  0  0
 47 52  2  0  0  0
 51 52  1  0  0  0
 52 53  1  0  0  0
 24 27  1  0  0  0
 24 28  1  0  0  0
 22 23  1  0  0  0
 11 15  1  0  0  0
 13 16  1  0  0  0
  3  5  1  0  0  0
 30 32  1  0  0  0
 38 42  1  0  0  0
 40 43  1  0  0  0
 53 54  1  0  0  0
 53 55  1  0  0  0
M  END
> <minimizedAffinity>
-10.10204

$$$$
6EDR_ZNA_A_401


 55 59  0  0  0  0  0  0  0  0999 V2000
  -18.0895    4.9460    1.0611 O   0  0  0  0  0  0  0  0  0  0  0  0
  -17.1210    6.2492    1.0161 P   0  0  0  0  0  0  0  0  0  0  0  0
  -17.9052    7.4470    0.6567 O   0  0  0  0  0  0  0  0  0  0  0  0
  -16.3458    6.2415    2.2831 O   0  0  0  0  0  0  0  0  0  0  0  0
  -17.3207    8.2207    0.6318 H   0  0  0  0  0  0  0  0  0  0  0  0
  -16.1736    5.8978   -0.2591 O   0  0  0  0  0  0  0  0  0  0  0  0
  -15.1768    4.8578   -0.2511 C   0  0  0  0  0  0  0  0  0  0  0  0
  -13.4749    2.9296   -3.4433 C   0  0  0  0  0  0  0  0  0  0  0  0
  -13.4699    3.1929   -1.6493 S   0  0  0  0  0  0  0  0  0  0  0  0
  -14.4782    4.0275   -3.9389 C   0  0  0  0  0  0  0  0  0  0  0  0
  -13.7092    5.1634   -4.3575 O   0  0  0  0  0  0  0  0  0  0  0  0
  -15.3912    4.4867   -2.7699 C   0  0  0  0  0  0  0  0  0  0  0  0
  -16.0602    5.7207   -3.1131 O   0  0  0  0  0  0  0  0  0  0  0  0
  -14.4457    4.7289   -1.5907 C   0  0  0  0  0  0  0  0  0  0  0  0
  -13.1817    5.4894   -3.6115 H   0  0  0  0  0  0  0  0  0  0  0  0
  -15.3994    6.3998   -3.3208 H   0  0  0  0  0  0  0  0  0  0  0  0
  -13.2023   -0.6462   -4.6644 C   0  0  0  0  0  0  0  0  0  0  0  0
  -13.0023    0.7318   -4.4661 C   0  0  0  0  0  0  0  0  0  0  0  0
  -14.2238   -1.2561   -3.9116 C   0  0  0  0  0  0  0  0  0  0  0  0
  -15.0009   -0.5245   -3.0060 C   0  0  0  0  0  0  0  0  0  0  0  0
  -14.7945    0.8413   -2.8255 C   0  0  0  0  0  0  0  0  0  0  0  0
  -13.7998    1.4801   -3.5696 N   0  0  0  0  0  0  0  0  0  0  0  0
  -13.4020    1.4320   -4.4689 H   0  0  0  0  0  0  0  0  0  0  0  0
  -11.3997   -0.8488   -6.2089 N   0  0  0  0  0  0  0  0  0  0  0  0
  -12.4264   -1.4246   -5.5585 C   0  0  0  0  0  0  0  0  0  0  0  0
  -12.6805   -2.6210   -5.7208 O   0  0  0  0  0  0  0  0  0  0  0  0
  -11.2045    0.1065   -6.0731 H   0  0  0  0  0  0  0  0  0  0  0  0
  -10.8432   -1.3828   -6.8209 H   0  0  0  0  0  0  0  0  0  0  0  0
  -19.3464    4.6593    0.0922 P   0  0  0  0  0  0  0  0  0  0  0  0
  -19.3228    5.6221   -1.0272 O   0  0  0  0  0  0  0  0  0  0  0  0
  -20.5412    4.6001    0.9593 O   0  0  0  0  0  0  0  0  0  0  0  0
  -18.4806    5.5451   -1.5022 H   0  0  0  0  0  0  0  0  0  0  0  0
  -19.0554    3.1708   -0.5489 O   0  0  0  0  0  0  0  0  0  0  0  0
  -17.8089    2.4589   -0.3998 C   0  0  0  0  0  0  0  0  0  0  0  0
  -17.8036    1.5234    0.8332 C   0  0  0  0  0  0  0  0  0  0  0  0
  -19.0095    0.7538    1.0348 O   0  0  0  0  0  0  0  0  0  0  0  0
  -16.7432    0.4396    0.7104 C   0  0  0  0  0  0  0  0  0  0  0  0
  -15.4041    0.9787    0.8253 O   0  0  0  0  0  0  0  0  0  0  0  0
  -17.1080   -0.4147    1.9124 C   0  0  0  0  0  0  0  0  0  0  0  0
  -16.4959    0.1093    3.1089 O   0  0  0  0  0  0  0  0  0  0  0  0
  -18.6454   -0.2825    1.9985 C   0  0  0  0  0  0  0  0  0  0  0  0
  -15.3233    1.4688    1.6585 H   0  0  0  0  0  0  0  0  0  0  0  0
  -16.7695    1.0313    3.2349 H   0  0  0  0  0  0  0  0  0  0  0  0
  -19.3342   -1.5761    1.6675 N   0  0  0  0  0  0  0  0  0  0  0  0
  -20.0208   -2.2916    2.5554 C   0  0  0  0  0  0  0  0  0  0  0  0
  -20.5005   -3.3704    1.9437 N   0  0  0  0  0  0  0  0  0  0  0  0
  -20.1171   -3.3383    0.6687 C   0  0  0  0  0  0  0  0  0  0  0  0
  -19.3879   -2.2190    0.4951 C   0  0  0  0  0  0  0  0  0  0  0  0
  -18.8647   -1.9254   -0.7157 N   0  0  0  0  0  0  0  0  0  0  0  0
  -19.0818   -2.7957   -1.8027 C   0  0  0  0  0  0  0  0  0  0  0  0
  -19.8483   -3.9558   -1.5870 N   0  0  0  0  0  0  0  0  0  0  0  0
  -20.3395   -4.1864   -0.3530 C   0  0  0  0  0  0  0  0  0  0  0  0
  -21.0729   -5.2695   -0.0903 N   0  0  0  0  0  0  0  0  0  0  0  0
  -21.4222   -5.4191    0.8179 H   0  0  0  0  0  0  0  0  0  0  0  0
  -21.2648   -5.9192   -0.8047 H   0  0  0  0  0  0  0  0  0  0  0  0
 11 10  1  0  0  0
 13 12  1  0  0  0
 10 12  1  0  0  0
 10  8  1  0  0  0
 12 14  1  0  0  0
 21 20  2  0  0  0
 21 22  1  0  0  0
  8 22  1  0  0  0
  8  9  1  0  0  0
 20 19  1  0  0  0
 22 18  2  0  0  0
 14  9  1  0  0  0
 14  7  1  0  0  0
 19 17  2  0  0  0
 18 17  1  0  0  0
 17 25  1  0  0  0
  7  6  1  0  0  0
 38 37  1  0  0  0
 25 24  1  0  0  0
 25 26  2  0  0  0
 40 39  1  0  0  0
  6  2  1  0  0  0
 37 35  1  0  0  0
 37 39  1  0  0  0
 34 35  1  0  0  0
 34 33  1  0  0  0
 35 36  1  0  0  0
 39 41  1  0  0  0
  4  2  2  0  0  0
  2  1  1  0  0  0
  2  3  1  0  0  0
  1 29  1  0  0  0
 33 29  1  0  0  0
 41 36  1  0  0  0
 41 44  1  0  0  0
 31 29  2  0  0  0
 29 30  1  0  0  0
 44 45  1  0  0  0
 44 48  1  0  0  0
 49 48  2  0  0  0
 49 50  1  0  0  0
 45 46  2  0  0  0
 48 47  1  0  0  0
 50 51  2  0  0  0
 46 47  1  0  0  0
 47 52  2  0  0  0
 51 52  1  0  0  0
 52 53  1  0  0  0
 24 27  1  0  0  0
 24 28  1  0  0  0
 22 23  1  0  0  0
 11 15  1  0  0  0
 13 16  1  0  0  0
  3  5  1  0  0  0
 30 32  1  0  0  0
 38 42  1  0  0  0
 40 43  1  0  0  0
 53 54  1  0  0  0
 53 55  1  0  0  0
M  END
> <minimizedAffinity>
-10.04763

$$$$
