1VSO_AT1_A_258
  RCSB PDB12061704233D
Coordinates from PDB:1VSO:A:258 Model:1 without hydrogens
 21 21  0  0  0  0            999 V2000
   41.8390    5.0010    5.1840   N 0  0  0  0  0  0  0  0  0  0  0  0
   39.4930    5.8860    5.5700   C 0  0  0  0  0  0  0  0  0  0  0  0
   41.0750    4.6780    2.6580   O 0  0  0  0  0  0  0  0  0  0  0  0
   40.3370    4.7540    4.9780   C 0  0  0  0  0  0  0  0  0  0  0  0
   40.0710    4.5890    3.4290   C 0  0  0  0  0  0  0  0  0  0  0  0
   38.8910    4.3770    3.0650   O 0  0  0  0  0  0  0  0  0  0  0  0
   39.4480    6.2390    9.2710   O 0  0  0  0  0  0  0  0  0  0  0  0
   38.0380    3.8840    7.1560   O 0  0  0  0  0  0  0  0  0  0  0  0
   38.6860    5.0620    9.0890   N 0  0  0  0  0  0  0  0  0  0  0  0
   40.6750    8.0160    8.2000   C 0  0  0  0  0  0  0  0  0  0  0  0
   37.2820    2.9370    7.9810   C 0  0  0  0  0  0  0  0  0  0  0  0
   38.6710    4.8910    7.7880   C 0  0  0  0  0  0  0  0  0  0  0  0
   39.3920    5.8970    7.0660   C 0  0  0  0  0  0  0  0  0  0  0  0
   39.8570    6.7270    8.0670   C 0  0  0  0  0  0  0  0  0  0  0  0
   39.7510    9.0910    8.8210   C 0  0  0  0  0  0  0  0  0  0  0  0
   41.8670    7.7950    9.1260   C 0  0  0  0  0  0  0  0  0  0  0  0
   41.1810    8.5560    6.8690   C 0  0  0  0  0  0  0  0  0  0  0  0
   36.2720    1.9120    6.8820   P 0  0  0  0  0  0  0  0  0  0  0  0
   37.1590    1.1790    5.9410   O 0  0  0  0  0  0  0  0  0  0  0  0
   35.4750    1.0470    7.8200   O 0  0  0  0  0  0  0  0  0  0  0  0
   35.2950    2.8940    6.1530   O 0  0  0  0  0  0  0  0  0  0  0  0
  1  4  1  0  0  0  0
  2  4  1  0  0  0  0
  2 13  1  0  0  0  0
  3  5  1  0  0  0  0
  4  5  1  0  0  0  0
  5  6  2  0  0  0  0
  7  9  1  0  0  0  0
  7 14  1  0  0  0  0
  8 11  1  0  0  0  0
  8 12  1  0  0  0  0
  9 12  2  0  0  0  0
 10 14  1  0  0  0  0
 10 15  1  0  0  0  0
 10 16  1  0  0  0  0
 10 17  1  0  0  0  0
 11 18  1  0  0  0  0
 12 13  1  0  0  0  0
 13 14  2  0  0  0  0
 18 19  2  0  0  0  0
 18 20  1  0  0  0  0
 18 21  1  0  0  0  0
A    1
N
A    2
C
A    3
O
A    4
C1
A    5
C2
A    6
O1
A    7
O2
A    8
O3
A    9
N1
A   10
C3
A   11
C4
A   12
C5
A   13
C6
A   14
C7
A   15
C9
A   16
C10
A   17
C11
A   18
P
A   19
O4
A   20
O5
A   21
O6
M  END
>  <InstanceId>
1VSO_AT1_A_258

>  <ChemCompId>
AT1

>  <PdbId>
1VSO

>  <ChainId>
A

>  <ResidueNumber>
258

>  <InsertionCode>


>  <Model>
1

>  <AltIds>


>  <MissingHeavyAtoms>
0

>  <ObservedFormula>
C11 N2 O7 P

>  <Name>
(S)-2-AMINO-3-(5-TERT-BUTYL-3-(PHOSPHONOMETHOXY)-4-ISOXAZOLYL)PROPIONIC ACID

>  <SystematicName>
(2S)-2-amino-3-[5-tert-butyl-3-(phosphonomethoxy)-1,2-oxazol-4-yl]propanoic acid

>  <Synonyms>


>  <Type>
NON-POLYMER

>  <Formula>
C11 H19 N2 O7 P

>  <MolecularWeight>
322.252

>  <ModifiedDate>
2011-06-04

>  <Parent>


>  <OneLetterCode>


>  <SubcomponentList>


>  <AmbiguousFlag>
N

>  <InChI>
InChI=1S/C11H19N2O7P/c1-11(2,3)8-6(4-7(12)10(14)15)9(13-20-8)19-5-21(16,17)18/h7H,4-5,12H2,1-3H3,(H,14,15)(H2,16,17,18)/t7-/m0/s1

>  <InChIKey>
AGSOOCUNMTYPSE-ZETCQYMHSA-N

>  <SMILES>
CC(C)(C)c1c(c(no1)OCP(=O)(O)O)C[C@@H](C(=O)O)N

$$$$
