3S71_EVD_B_1
  RCSB PDB12061710413D
Coordinates from PDB:3S71:B:1 Model:1 without hydrogens
 13 14  0  0  0  0            999 V2000
   15.6350   -0.3340   16.1840   N 0  0  0  0  0  0  0  0  0  0  0  0
   17.0920    2.5040   16.0140   O 0  0  0  0  0  0  0  0  0  0  0  0
   15.0580    0.9750   16.8850   S 0  0  0  0  0  0  0  0  0  0  0  0
   15.5660    1.0990   18.2330   O 0  0  0  0  0  0  0  0  0  0  0  0
   15.7330    2.3040   16.0530   C 0  0  0  0  0  0  0  0  0  0  0  0
   13.6240    1.1200   16.6660   O 0  0  0  0  0  0  0  0  0  0  0  0
   15.0810    3.3480   15.3130   C 0  0  0  0  0  0  0  0  0  0  0  0
   16.2030    5.2890   13.9860   C 0  0  0  0  0  0  0  0  0  0  0  0
   17.4500    5.8330   13.7220   C 0  0  0  0  0  0  0  0  0  0  0  0
   18.6630    5.2470   14.1510   C 0  0  0  0  0  0  0  0  0  0  0  0
   18.6130    4.1050   14.9540   C 0  0  0  0  0  0  0  0  0  0  0  0
   17.3660    3.6270   15.2510   C 0  0  0  0  0  0  0  0  0  0  0  0
   16.1500    4.1620   14.8160   C 0  0  0  0  0  0  0  0  0  0  0  0
  3  1  1  0  0  0  0
 12  2  1  0  0  0  0
  2  5  1  0  0  0  0
  5  3  1  0  0  0  0
  4  3  2  0  0  0  0
  3  6  2  0  0  0  0
  5  7  2  0  0  0  0
 13  7  1  0  0  0  0
  9  8  1  0  0  0  0
  8 13  2  0  0  0  0
 10  9  2  0  0  0  0
 10 11  1  0  0  0  0
 11 12  2  0  0  0  0
 12 13  1  0  0  0  0
A    1
N
A    2
O
A    3
S
A    4
O1
A    5
C2
A    6
O2
A    7
C3
A    8
C4
A    9
C5
A   10
C6
A   11
C7
A   12
C8
A   13
C9
M  END
>  <InstanceId>
3S71_EVD_B_1

>  <ChemCompId>
EVD

>  <PdbId>
3S71

>  <ChainId>
B

>  <ResidueNumber>
1

>  <InsertionCode>


>  <Model>
1

>  <AltIds>


>  <MissingHeavyAtoms>
0

>  <ObservedFormula>
C8 N O3 S

>  <Name>
1-benzofuran-2-sulfonamide

>  <SystematicName>
1-benzofuran-2-sulfonamide

>  <Synonyms>


>  <Type>
NON-POLYMER

>  <Formula>
C8 H7 N O3 S

>  <MolecularWeight>
197.211

>  <ModifiedDate>
2011-10-14

>  <Parent>


>  <OneLetterCode>


>  <SubcomponentList>


>  <AmbiguousFlag>
N

>  <InChI>
InChI=1S/C8H7NO3S/c9-13(10,11)8-5-6-3-1-2-4-7(6)12-8/h1-5H,(H2,9,10,11)

>  <InChIKey>
PBECZJTWMSIKFE-UHFFFAOYSA-N

>  <SMILES>
c1ccc2c(c1)cc(o2)S(=O)(=O)N

$$$$
