1F5K_BAM_U_300


 13 13  0  0  0  0  0  0  0  0999 V2000
   32.4682    4.4792   27.6989 C   0  0  0  0  0  0  0  0  0  0  0  0
   33.3119    4.9173   26.7743 N   0  0  0  0  0  0  0  0  0  0  0  0
   32.6203    3.2106   28.0536 N   0  0  0  0  0  0  0  0  0  0  0  0
   33.2588    5.8493   26.4613 H   0  0  0  0  0  0  0  0  0  0  0  0
   33.9914    4.3107   26.4008 H   0  0  0  0  0  0  0  0  0  0  0  0
   32.0296    2.8157   28.7350 H   0  0  0  0  0  0  0  0  0  0  0  0
   33.3240    2.6635   27.6354 H   0  0  0  0  0  0  0  0  0  0  0  0
   31.4645    5.3166   28.2711 C   0  0  0  0  0  0  0  0  0  0  0  0
   31.4829    6.7302   28.0984 C   0  0  0  0  0  0  0  0  0  0  0  0
   30.4944    7.5561   28.6631 C   0  0  0  0  0  0  0  0  0  0  0  0
   29.4487    6.9967   29.4247 C   0  0  0  0  0  0  0  0  0  0  0  0
   29.4050    5.6025   29.6114 C   0  0  0  0  0  0  0  0  0  0  0  0
   30.3963    4.7786   29.0438 C   0  0  0  0  0  0  0  0  0  0  0  0
  8  9  2  0  0  0
  8 13  1  0  0  0
  8  1  1  0  0  0
  9 10  1  0  0  0
 10 11  2  0  0  0
 11 12  1  0  0  0
 12 13  2  0  0  0
  1  2  1  0  0  0
  1  3  2  0  0  0
  2  4  1  0  0  0
  2  5  1  0  0  0
  3  6  1  0  0  0
  3  7  1  0  0  0
M  CHG 1   3   1
M  END
> <minimizedAffinity>
-5.84240

$$$$
1F5K_BAM_U_300


 13 13  0  0  0  0  0  0  0  0999 V2000
   32.4666    4.4789   27.6988 C   0  0  0  0  0  0  0  0  0  0  0  0
   33.3077    4.9180   26.7723 N   0  0  0  0  0  0  0  0  0  0  0  0
   32.6207    3.2103   28.0528 N   0  0  0  0  0  0  0  0  0  0  0  0
   33.2529    5.8500   26.4597 H   0  0  0  0  0  0  0  0  0  0  0  0
   33.9869    4.3121   26.3970 H   0  0  0  0  0  0  0  0  0  0  0  0
   32.0320    2.8147   28.7355 H   0  0  0  0  0  0  0  0  0  0  0  0
   33.3239    2.6640   27.6328 H   0  0  0  0  0  0  0  0  0  0  0  0
   31.4634    5.3152   28.2736 C   0  0  0  0  0  0  0  0  0  0  0  0
   30.3945    4.7774   29.0458 C   0  0  0  0  0  0  0  0  0  0  0  0
   29.4048    5.6013   29.6115 C   0  0  0  0  0  0  0  0  0  0  0  0
   29.4476    6.9975   29.4239 C   0  0  0  0  0  0  0  0  0  0  0  0
   30.4930    7.5567   28.6656 C   0  0  0  0  0  0  0  0  0  0  0  0
   31.4825    6.7285   28.1011 C   0  0  0  0  0  0  0  0  0  0  0  0
  8  9  2  0  0  0
  8 13  1  0  0  0
  8  1  1  0  0  0
  9 10  1  0  0  0
 10 11  2  0  0  0
 11 12  1  0  0  0
 12 13  2  0  0  0
  1  2  1  0  0  0
  1  3  2  0  0  0
  2  4  1  0  0  0
  2  5  1  0  0  0
  3  6  1  0  0  0
  3  7  1  0  0  0
M  CHG 1   3   1
M  END
> <minimizedAffinity>
-5.83871

$$$$
1F5K_BAM_U_300


 13 13  0  0  0  0  0  0  0  0999 V2000
   31.7219    4.1358   28.6444 C   0  0  0  0  0  0  0  0  0  0  0  0
   31.4814    3.4080   29.7267 N   0  0  0  0  0  0  0  0  0  0  0  0
   32.6345    3.6430   27.8180 N   0  0  0  0  0  0  0  0  0  0  0  0
   30.8159    3.7113   30.3859 H   0  0  0  0  0  0  0  0  0  0  0  0
   31.9682    2.5646   29.8710 H   0  0  0  0  0  0  0  0  0  0  0  0
   32.8654    4.1289   26.9935 H   0  0  0  0  0  0  0  0  0  0  0  0
   33.0811    2.7914   28.0290 H   0  0  0  0  0  0  0  0  0  0  0  0
   31.0453    5.3658   28.3887 C   0  0  0  0  0  0  0  0  0  0  0  0
   29.8791    5.7421   29.1144 C   0  0  0  0  0  0  0  0  0  0  0  0
   29.2112    6.9538   28.8619 C   0  0  0  0  0  0  0  0  0  0  0  0
   29.6862    7.8358   27.8704 C   0  0  0  0  0  0  0  0  0  0  0  0
   30.8371    7.4899   27.1380 C   0  0  0  0  0  0  0  0  0  0  0  0
   31.5036    6.2758   27.3941 C   0  0  0  0  0  0  0  0  0  0  0  0
  8  9  2  0  0  0
  8 13  1  0  0  0
  8  1  1  0  0  0
  9 10  1  0  0  0
 10 11  2  0  0  0
 11 12  1  0  0  0
 12 13  2  0  0  0
  1  2  1  0  0  0
  1  3  2  0  0  0
  2  4  1  0  0  0
  2  5  1  0  0  0
  3  6  1  0  0  0
  3  7  1  0  0  0
M  CHG 1   3   1
M  END
> <minimizedAffinity>
-5.42553

$$$$
1F5K_BAM_U_300


 13 13  0  0  0  0  0  0  0  0999 V2000
   29.0080    8.1986   29.4663 C   0  0  0  0  0  0  0  0  0  0  0  0
   28.3401    8.2367   30.6115 N   0  0  0  0  0  0  0  0  0  0  0  0
   28.8614    9.2606   28.6859 N   0  0  0  0  0  0  0  0  0  0  0  0
   28.4008    7.4831   31.2420 H   0  0  0  0  0  0  0  0  0  0  0  0
   27.7836    9.0186   30.8310 H   0  0  0  0  0  0  0  0  0  0  0  0
   29.3273    9.3030   27.8196 H   0  0  0  0  0  0  0  0  0  0  0  0
   28.2867   10.0067   28.9727 H   0  0  0  0  0  0  0  0  0  0  0  0
   29.8268    7.0891   29.0996 C   0  0  0  0  0  0  0  0  0  0  0  0
   30.9988    7.2546   28.3076 C   0  0  0  0  0  0  0  0  0  0  0  0
   31.8055    6.1611   27.9449 C   0  0  0  0  0  0  0  0  0  0  0  0
   31.4678    4.8577   28.3615 C   0  0  0  0  0  0  0  0  0  0  0  0
   30.3153    4.6644   29.1455 C   0  0  0  0  0  0  0  0  0  0  0  0
   29.5101    5.7620   29.5072 C   0  0  0  0  0  0  0  0  0  0  0  0
  8  9  2  0  0  0
  8 13  1  0  0  0
  8  1  1  0  0  0
  9 10  1  0  0  0
 10 11  2  0  0  0
 11 12  1  0  0  0
 12 13  2  0  0  0
  1  2  1  0  0  0
  1  3  2  0  0  0
  2  4  1  0  0  0
  2  5  1  0  0  0
  3  6  1  0  0  0
  3  7  1  0  0  0
M  CHG 1   3   1
M  END
> <minimizedAffinity>
-4.71789

$$$$
1F5K_BAM_U_300


 13 13  0  0  0  0  0  0  0  0999 V2000
   29.0745    8.2651   29.5264 C   0  0  0  0  0  0  0  0  0  0  0  0
   29.0594    9.3993   28.8391 N   0  0  0  0  0  0  0  0  0  0  0  0
   28.3164    8.2481   30.6142 N   0  0  0  0  0  0  0  0  0  0  0  0
   29.5981    9.4855   28.0196 H   0  0  0  0  0  0  0  0  0  0  0  0
   28.5093   10.1549   29.1484 H   0  0  0  0  0  0  0  0  0  0  0  0
   28.2776    7.4396   31.1746 H   0  0  0  0  0  0  0  0  0  0  0  0
   27.7924    9.0440   30.8615 H   0  0  0  0  0  0  0  0  0  0  0  0
   29.8552    7.1411   29.1224 C   0  0  0  0  0  0  0  0  0  0  0  0
   29.5146    5.8149   29.5143 C   0  0  0  0  0  0  0  0  0  0  0  0
   30.2846    4.7069   29.1174 C   0  0  0  0  0  0  0  0  0  0  0  0
   31.4276    4.8854   28.3124 C   0  0  0  0  0  0  0  0  0  0  0  0
   31.7877    6.1848   27.9096 C   0  0  0  0  0  0  0  0  0  0  0  0
   31.0139    7.2920   28.3086 C   0  0  0  0  0  0  0  0  0  0  0  0
  8  9  2  0  0  0
  8 13  1  0  0  0
  8  1  1  0  0  0
  9 10  1  0  0  0
 10 11  2  0  0  0
 11 12  1  0  0  0
 12 13  2  0  0  0
  1  2  1  0  0  0
  1  3  2  0  0  0
  2  4  1  0  0  0
  2  5  1  0  0  0
  3  6  1  0  0  0
  3  7  1  0  0  0
M  CHG 1   3   1
M  END
> <minimizedAffinity>
-4.70956

$$$$
1F5K_BAM_U_300


 13 13  0  0  0  0  0  0  0  0999 V2000
   31.3862    5.3411   27.7250 C   0  0  0  0  0  0  0  0  0  0  0  0
   30.9807    4.2633   28.3828 N   0  0  0  0  0  0  0  0  0  0  0  0
   32.5425    5.2179   27.0876 N   0  0  0  0  0  0  0  0  0  0  0  0
   30.1310    4.2805   28.8796 H   0  0  0  0  0  0  0  0  0  0  0  0
   31.5295    3.4459   28.3743 H   0  0  0  0  0  0  0  0  0  0  0  0
   32.9068    5.9772   26.5776 H   0  0  0  0  0  0  0  0  0  0  0  0
   33.0367    4.3672   27.1244 H   0  0  0  0  0  0  0  0  0  0  0  0
   30.6296    6.5507   27.7066 C   0  0  0  0  0  0  0  0  0  0  0  0
   31.1161    7.7269   27.0678 C   0  0  0  0  0  0  0  0  0  0  0  0
   30.3711    8.9198   27.0505 C   0  0  0  0  0  0  0  0  0  0  0  0
   29.1088    8.9804   27.6745 C   0  0  0  0  0  0  0  0  0  0  0  0
   28.6027    7.8329   28.3130 C   0  0  0  0  0  0  0  0  0  0  0  0
   29.3514    6.6400   28.3278 C   0  0  0  0  0  0  0  0  0  0  0  0
  8  9  2  0  0  0
  8 13  1  0  0  0
  8  1  1  0  0  0
  9 10  1  0  0  0
 10 11  2  0  0  0
 11 12  1  0  0  0
 12 13  2  0  0  0
  1  2  1  0  0  0
  1  3  2  0  0  0
  2  4  1  0  0  0
  2  5  1  0  0  0
  3  6  1  0  0  0
  3  7  1  0  0  0
M  CHG 1   3   1
M  END
> <minimizedAffinity>
-4.65077

$$$$
1F5K_BAM_U_300


 13 13  0  0  0  0  0  0  0  0999 V2000
   28.9308    6.2922   28.9268 C   0  0  0  0  0  0  0  0  0  0  0  0
   27.8451    6.0519   28.2041 N   0  0  0  0  0  0  0  0  0  0  0  0
   28.7664    7.1318   29.9399 N   0  0  0  0  0  0  0  0  0  0  0  0
   27.8911    5.4383   27.4355 H   0  0  0  0  0  0  0  0  0  0  0  0
   26.9930    6.4871   28.4362 H   0  0  0  0  0  0  0  0  0  0  0  0
   29.5286    7.3578   30.5206 H   0  0  0  0  0  0  0  0  0  0  0  0
   27.8821    7.5293   30.1113 H   0  0  0  0  0  0  0  0  0  0  0  0
   30.1898    5.6889   28.6320 C   0  0  0  0  0  0  0  0  0  0  0  0
   30.6059    4.4815   29.2624 C   0  0  0  0  0  0  0  0  0  0  0  0
   31.8473    3.8871   28.9731 C   0  0  0  0  0  0  0  0  0  0  0  0
   32.7213    4.4812   28.0405 C   0  0  0  0  0  0  0  0  0  0  0  0
   32.3360    5.6745   27.4018 C   0  0  0  0  0  0  0  0  0  0  0  0
   31.0918    6.2665   27.6937 C   0  0  0  0  0  0  0  0  0  0  0  0
  8  9  2  0  0  0
  8 13  1  0  0  0
  8  1  1  0  0  0
  9 10  1  0  0  0
 10 11  2  0  0  0
 11 12  1  0  0  0
 12 13  2  0  0  0
  1  2  1  0  0  0
  1  3  2  0  0  0
  2  4  1  0  0  0
  2  5  1  0  0  0
  3  6  1  0  0  0
  3  7  1  0  0  0
M  CHG 1   3   1
M  END
> <minimizedAffinity>
-4.64270

$$$$
1F5K_BAM_U_300


 13 13  0  0  0  0  0  0  0  0999 V2000
   31.0500    8.3363   27.2209 C   0  0  0  0  0  0  0  0  0  0  0  0
   32.2612    8.8161   26.9726 N   0  0  0  0  0  0  0  0  0  0  0  0
   30.0421    9.0906   26.8043 N   0  0  0  0  0  0  0  0  0  0  0  0
   33.0580    8.3104   27.2531 H   0  0  0  0  0  0  0  0  0  0  0  0
   32.3634    9.6780   26.5079 H   0  0  0  0  0  0  0  0  0  0  0  0
   29.1139    8.7983   26.9538 H   0  0  0  0  0  0  0  0  0  0  0  0
   30.2219    9.9428   26.3454 H   0  0  0  0  0  0  0  0  0  0  0  0
   30.8468    7.0937   27.8923 C   0  0  0  0  0  0  0  0  0  0  0  0
   29.7303    6.8819   28.7508 C   0  0  0  0  0  0  0  0  0  0  0  0
   29.5303    5.6577   29.4137 C   0  0  0  0  0  0  0  0  0  0  0  0
   30.4431    4.5975   29.2426 C   0  0  0  0  0  0  0  0  0  0  0  0
   31.5554    4.7784   28.3995 C   0  0  0  0  0  0  0  0  0  0  0  0
   31.7521    6.0057   27.7369 C   0  0  0  0  0  0  0  0  0  0  0  0
  8  9  2  0  0  0
  8 13  1  0  0  0
  8  1  1  0  0  0
  9 10  1  0  0  0
 10 11  2  0  0  0
 11 12  1  0  0  0
 12 13  2  0  0  0
  1  2  1  0  0  0
  1  3  2  0  0  0
  2  4  1  0  0  0
  2  5  1  0  0  0
  3  6  1  0  0  0
  3  7  1  0  0  0
M  CHG 1   3   1
M  END
> <minimizedAffinity>
-4.60756

$$$$
1F5K_BAM_U_300


 13 13  0  0  0  0  0  0  0  0999 V2000
   29.3130    5.8317   28.7040 C   0  0  0  0  0  0  0  0  0  0  0  0
   28.8349    5.7046   29.9345 N   0  0  0  0  0  0  0  0  0  0  0  0
   29.5897    4.6947   28.0802 N   0  0  0  0  0  0  0  0  0  0  0  0
   28.6067    6.5058   30.4591 H   0  0  0  0  0  0  0  0  0  0  0  0
   28.7083    4.8090   30.3233 H   0  0  0  0  0  0  0  0  0  0  0  0
   29.9481    4.7108   27.1634 H   0  0  0  0  0  0  0  0  0  0  0  0
   29.4367    3.8344   28.5338 H   0  0  0  0  0  0  0  0  0  0  0  0
   29.5169    7.1058   28.0948 C   0  0  0  0  0  0  0  0  0  0  0  0
   30.6545    7.3712   27.2801 C   0  0  0  0  0  0  0  0  0  0  0  0
   30.8564    8.6273   26.6804 C   0  0  0  0  0  0  0  0  0  0  0  0
   29.9255    9.6675   26.8752 C   0  0  0  0  0  0  0  0  0  0  0  0
   28.7916    9.4333   27.6751 C   0  0  0  0  0  0  0  0  0  0  0  0
   28.5925    8.1740   28.2736 C   0  0  0  0  0  0  0  0  0  0  0  0
  8  9  2  0  0  0
  8 13  1  0  0  0
  8  1  1  0  0  0
  9 10  1  0  0  0
 10 11  2  0  0  0
 11 12  1  0  0  0
 12 13  2  0  0  0
  1  2  1  0  0  0
  1  3  2  0  0  0
  2  4  1  0  0  0
  2  5  1  0  0  0
  3  6  1  0  0  0
  3  7  1  0  0  0
M  CHG 1   3   1
M  END
> <minimizedAffinity>
-4.42043

$$$$
1F5K_BAM_U_300


 13 13  0  0  0  0  0  0  0  0999 V2000
   29.7479    5.7769   29.0376 C   0  0  0  0  0  0  0  0  0  0  0  0
   28.8221    5.6372   29.9769 N   0  0  0  0  0  0  0  0  0  0  0  0
   30.2288    4.6461   28.5392 N   0  0  0  0  0  0  0  0  0  0  0  0
   28.4191    6.4332   30.3931 H   0  0  0  0  0  0  0  0  0  0  0  0
   28.5377    4.7375   30.2578 H   0  0  0  0  0  0  0  0  0  0  0  0
   30.9194    4.6716   27.8380 H   0  0  0  0  0  0  0  0  0  0  0  0
   29.8953    3.7811   28.8704 H   0  0  0  0  0  0  0  0  0  0  0  0
   30.1963    7.0575   28.5958 C   0  0  0  0  0  0  0  0  0  0  0  0
   30.1317    8.2037   29.4385 C   0  0  0  0  0  0  0  0  0  0  0  0
   30.5724    9.4663   29.0030 C   0  0  0  0  0  0  0  0  0  0  0  0
   31.0945    9.6294   27.7040 C   0  0  0  0  0  0  0  0  0  0  0  0
   31.1708    8.5138   26.8496 C   0  0  0  0  0  0  0  0  0  0  0  0
   30.7290    7.2508   27.2894 C   0  0  0  0  0  0  0  0  0  0  0  0
  8  9  2  0  0  0
  8 13  1  0  0  0
  8  1  1  0  0  0
  9 10  1  0  0  0
 10 11  2  0  0  0
 11 12  1  0  0  0
 12 13  2  0  0  0
  1  2  1  0  0  0
  1  3  2  0  0  0
  2  4  1  0  0  0
  2  5  1  0  0  0
  3  6  1  0  0  0
  3  7  1  0  0  0
M  CHG 1   3   1
M  END
> <minimizedAffinity>
-4.14762

$$$$
