1F5K_BAM_U_300
  RCSB PDB12061702273D
Coordinates from PDB:1F5K:U:300 Model:1 without hydrogens
  9  9  0  0  0  0            999 V2000
   31.6410    5.1930   28.1710   C 0  0  0  0  0  0  0  0  0  0  0  0
   30.5160    4.7390   28.9170   C 0  0  0  0  0  0  0  0  0  0  0  0
   29.4310    5.5860   29.2060   C 0  0  0  0  0  0  0  0  0  0  0  0
   29.4310    6.9220   28.7570   C 0  0  0  0  0  0  0  0  0  0  0  0
   30.5300    7.3980   28.0180   C 0  0  0  0  0  0  0  0  0  0  0  0
   31.6150    6.5470   27.7310   C 0  0  0  0  0  0  0  0  0  0  0  0
   32.7410    4.3330   27.8770   C 0  0  0  0  0  0  0  0  0  0  0  0
   33.7960    4.7450   27.1870   N 0  0  0  0  0  0  0  0  0  0  0  0
   32.7780    3.0680   28.2730   N 0  3  0  0  0  0  0  0  0  0  0  0
  1  2  2  0  0  0  0
  1  6  1  0  0  0  0
  1  7  1  0  0  0  0
  2  3  1  0  0  0  0
  3  4  2  0  0  0  0
  4  5  1  0  0  0  0
  5  6  2  0  0  0  0
  7  8  1  0  0  0  0
  7  9  2  0  0  0  0
M  CHG  1   9   1
A    1
C1
A    2
C2
A    3
C3
A    4
C4
A    5
C5
A    6
C6
A    7
C
A    8
N1
A    9
N2
M  END
>  <InstanceId>
1F5K_BAM_U_300

>  <ChemCompId>
BAM

>  <PdbId>
1F5K

>  <ChainId>
U

>  <ResidueNumber>
300

>  <InsertionCode>


>  <Model>
1

>  <AltIds>


>  <MissingHeavyAtoms>
0

>  <ObservedFormula>
C7 N2

>  <Name>
BENZAMIDINE

>  <SystematicName>
(amino-phenyl-methylidene)azanium

>  <Synonyms>


>  <Type>
NON-POLYMER

>  <Formula>
C7 H9 N2

>  <MolecularWeight>
121.16

>  <ModifiedDate>
2011-06-04

>  <Parent>


>  <OneLetterCode>


>  <SubcomponentList>


>  <AmbiguousFlag>
N

>  <InChI>
InChI=1S/C7H8N2/c8-7(9)6-4-2-1-3-5-6/h1-5H,(H3,8,9)/p+1

>  <InChIKey>
PXXJHWLDUBFPOL-UHFFFAOYSA-O

>  <SMILES>
c1ccc(cc1)C(=[NH2+])N

$$$$
