5EF7_5OJ_A_804
  RCSB PDB12061717273D
Coordinates from PDB:5EF7:A:804 Model:1 without hydrogens
 23 24  0  0  0  0            999 V2000
   -8.8770   14.8870   27.8290   O 0  0  0  0  0  0  0  0  0  0  0  0
   -8.0650   15.7460   28.1160   C 0  0  0  0  0  0  0  0  0  0  0  0
   -7.4770   15.6770   29.4150   N 0  0  0  0  0  0  0  0  0  0  0  0
   -7.8250   14.6130   30.3880   C 0  0  0  0  0  0  0  0  0  0  0  0
   -7.1010   13.2500   30.0910   C 0  0  0  0  0  0  0  0  0  0  0  0
   -7.5790   12.3230   31.0220   O 0  0  0  0  0  0  0  0  0  0  0  0
   -6.4760   16.6690   29.8540   C 0  0  0  0  0  0  0  0  0  0  0  0
   -6.7870   18.0310   30.0840   C 0  0  0  0  0  0  0  0  0  0  0  0
   -5.8120   18.9380   30.5020   C 0  0  0  0  0  0  0  0  0  0  0  0
   -4.4940   18.5350   30.7210   C 0  0  0  0  0  0  0  0  0  0  0  0
   -4.1760   17.2020   30.5050   C 0  0  0  0  0  0  0  0  0  0  0  0
   -5.1400   16.2870   30.0800   C 0  0  0  0  0  0  0  0  0  0  0  0
   -7.7280   16.8260   27.0710   C 0  0  0  0  0  0  0  0  0  0  0  0
   -7.9550   16.4690   25.6050   C 0  0  0  0  0  0  0  0  0  0  0  0
   -8.6360   17.3130   24.7280   C 0  0  0  0  0  0  0  0  0  0  0  0
   -8.8510   16.9980   23.3940   C 0  0  0  0  0  0  0  0  0  0  0  0
   -7.5020   15.2760   25.0430   C 0  0  0  0  0  0  0  0  0  0  0  0
   -7.7080   14.9470   23.7090   C 0  0  0  0  0  0  0  0  0  0  0  0
   -8.3920   15.8030   22.8470   C 0  0  0  0  0  0  0  0  0  0  0  0
   -8.5690   15.4240   21.4130   C 0  0  0  0  0  0  0  0  0  0  0  0
   -8.7840   16.2070   20.5120   O 0  0  0  0  0  0  0  0  0  0  0  0
   -8.4060   14.0070   21.1380   N 0  0  0  0  0  0  0  0  0  0  0  0
   -8.5440   13.6470   19.8630   O 0  0  0  0  0  0  0  0  0  0  0  0
 23 22  1  0  0  0  0
 21 20  2  0  0  0  0
 22 20  1  0  0  0  0
 20 19  1  0  0  0  0
 19 16  2  0  0  0  0
 19 18  1  0  0  0  0
 16 15  1  0  0  0  0
 18 17  2  0  0  0  0
 15 14  2  0  0  0  0
 17 14  1  0  0  0  0
 14 13  1  0  0  0  0
 13  2  1  0  0  0  0
  1  2  2  0  0  0  0
  2  3  1  0  0  0  0
  3  7  1  0  0  0  0
  3  4  1  0  0  0  0
  7 12  2  0  0  0  0
  7  8  1  0  0  0  0
 12 11  1  0  0  0  0
  8  9  2  0  0  0  0
  5  4  1  0  0  0  0
  5  6  1  0  0  0  0
  9 10  1  0  0  0  0
 11 10  2  0  0  0  0
A    1
O4
A    2
C7
A    3
N2
A    4
C14
A    5
C15
A    6
O3
A    7
C8
A    8
C13
A    9
C12
A   10
C11
A   11
C10
A   12
C9
A   13
C6
A   14
C5
A   15
C4
A   16
C3
A   17
C16
A   18
C17
A   19
C2
A   20
C1
A   21
O1
A   22
N1
A   23
O2
M  END
>  <InstanceId>
5EF7_5OJ_A_804

>  <ChemCompId>
5OJ

>  <PdbId>
5EF7

>  <ChainId>
A

>  <ResidueNumber>
804

>  <InsertionCode>


>  <Model>
1

>  <AltIds>


>  <MissingHeavyAtoms>
0

>  <ObservedFormula>
C17 N2 O4

>  <Name>
4-[2-[2-hydroxyethyl(phenyl)amino]-2-oxidanylidene-ethyl]-~{N}-oxidanyl-benzamide

>  <SystematicName>
4-[2-[2-hydroxyethyl(phenyl)amino]-2-oxidanylidene-ethyl]-~{N}-oxidanyl-benzamide

>  <Synonyms>
HPOB

>  <Type>
NON-POLYMER

>  <Formula>
C17 H18 N2 O4

>  <MolecularWeight>
314.336

>  <ModifiedDate>
2016-07-22

>  <Parent>


>  <OneLetterCode>


>  <SubcomponentList>


>  <AmbiguousFlag>
N

>  <InChI>
InChI=1S/C17H18N2O4/c20-11-10-19(15-4-2-1-3-5-15)16(21)12-13-6-8-14(9-7-13)17(22)18-23/h1-9,20,23H,10-12H2,(H,18,22)

>  <InChIKey>
RFAZNTABYJYOAR-UHFFFAOYSA-N

>  <SMILES>
c1ccc(cc1)N(CCO)C(=O)Cc2ccc(cc2)C(=O)NO

$$$$
