1BNN_AL1_A_555


 25 27  0  0  0  0  0  0  0  0999 V2000
   -5.8682    2.2736   16.2806 C   0  0  0  0  0  0  0  0  0  0  0  0
   -4.3952    5.9215   13.5890 C   0  0  0  0  0  0  0  0  0  0  0  0
   -5.7174    5.3684   14.0963 C   0  0  0  0  0  0  0  0  0  0  0  0
   -4.3568    1.8327   15.5972 S   0  0  0  0  0  0  0  0  0  0  0  0
   -4.4102    3.2824   14.7130 C   0  0  0  0  0  0  0  0  0  0  0  0
   -5.5610    4.0862   14.9068 C   0  0  0  0  0  0  0  0  0  0  0  0
   -6.3838    3.4780   15.8307 C   0  0  0  0  0  0  0  0  0  0  0  0
   -3.7064    4.8571   12.8813 N   0  0  0  0  0  0  0  0  0  0  0  0
   -3.1007    3.7276   13.6955 S   0  0  0  0  0  0  0  0  0  0  0  0
   -2.0200    4.1380   14.6374 O   0  0  0  0  0  0  0  0  0  0  0  0
   -2.4807    2.6182   12.9256 O   0  0  0  0  0  0  0  0  0  0  0  0
   -2.0040    6.1009    9.9344 C   0  0  0  0  0  0  0  0  0  0  0  0
   -2.8715    5.6476    8.9541 C   0  0  0  0  0  0  0  0  0  0  0  0
   -4.0023    4.8984    9.3381 C   0  0  0  0  0  0  0  0  0  0  0  0
   -4.2854    4.5963   10.6557 C   0  0  0  0  0  0  0  0  0  0  0  0
   -3.4020    5.0712   11.5967 C   0  0  0  0  0  0  0  0  0  0  0  0
   -2.2649    5.8132   11.2716 C   0  0  0  0  0  0  0  0  0  0  0  0
   -6.0766    5.2347    8.3292 C   0  0  0  0  0  0  0  0  0  0  0  0
   -4.8703    4.4495    8.4826 O   0  0  0  0  0  0  0  0  0  0  0  0
   -6.0589   -0.1079   17.5880 N   0  0  0  0  0  0  0  0  0  0  0  0
   -6.6278    1.2492   17.4412 S   0  0  0  0  0  0  0  0  0  0  0  0
   -6.4096    1.9132   18.6717 O   0  0  0  0  0  0  0  0  0  0  0  0
   -7.9449    1.1733   16.9658 O   0  0  0  0  0  0  0  0  0  0  0  0
   -5.1018   -0.0397   17.9340 H   0  0  0  0  0  0  0  0  0  0  0  0
   -6.0604   -0.5770   16.6822 H   0  0  0  0  0  0  0  0  0  0  0  0
  1 21  1  0  0  0
  1  4  1  0  0  0
  1  7  2  0  0  0
  2  3  1  0  0  0
  2  8  1  0  0  0
  3  6  1  0  0  0
 12 13  2  0  0  0
 12 17  1  0  0  0
 13 14  1  0  0  0
 14 15  2  0  0  0
 14 19  1  0  0  0
 15 16  1  0  0  0
 18 19  1  0  0  0
 20 21  1  0  0  0
 21 22  2  0  0  0
 21 23  2  0  0  0
  4  5  1  0  0  0
  5  6  2  0  0  0
  5  9  1  0  0  0
  6  7  1  0  0  0
  8  9  1  0  0  0
  8 16  1  0  0  0
  9 10  2  0  0  0
  9 11  2  0  0  0
 16 17  2  0  0  0
 20 24  1  0  0  0
 20 25  1  0  0  0
M  END
> <minimizedAffinity>
-7.51066

$$$$
1BNN_AL1_A_555


 25 27  0  0  0  0  0  0  0  0999 V2000
   -4.5207    2.1980   15.0069 C   0  0  0  0  0  0  0  0  0  0  0  0
   -3.9926    6.7539   13.7083 C   0  0  0  0  0  0  0  0  0  0  0  0
   -4.5741    5.9866   14.8850 C   0  0  0  0  0  0  0  0  0  0  0  0
   -4.4271    2.2382   13.2936 S   0  0  0  0  0  0  0  0  0  0  0  0
   -4.4172    3.9337   13.4014 C   0  0  0  0  0  0  0  0  0  0  0  0
   -4.5056    4.4735   14.7086 C   0  0  0  0  0  0  0  0  0  0  0  0
   -4.5539    3.4399   15.6196 C   0  0  0  0  0  0  0  0  0  0  0  0
   -4.6340    6.2718   12.4981 N   0  0  0  0  0  0  0  0  0  0  0  0
   -4.2579    4.8928   11.9861 S   0  0  0  0  0  0  0  0  0  0  0  0
   -2.8295    4.7353   11.5883 O   0  0  0  0  0  0  0  0  0  0  0  0
   -5.0007    4.4062   10.7947 O   0  0  0  0  0  0  0  0  0  0  0  0
   -7.3571    8.2451   11.1490 C   0  0  0  0  0  0  0  0  0  0  0  0
   -6.6916    8.8891   10.1189 C   0  0  0  0  0  0  0  0  0  0  0  0
   -5.3143    8.6466    9.9405 C   0  0  0  0  0  0  0  0  0  0  0  0
   -4.5961    7.7896   10.7512 C   0  0  0  0  0  0  0  0  0  0  0  0
   -5.2970    7.1663   11.7571 C   0  0  0  0  0  0  0  0  0  0  0  0
   -6.6592    7.3737   11.9813 C   0  0  0  0  0  0  0  0  0  0  0  0
   -3.1824    9.1246    9.1281 C   0  0  0  0  0  0  0  0  0  0  0  0
   -4.6214    9.1995    8.9913 O   0  0  0  0  0  0  0  0  0  0  0  0
   -5.7451    0.4377   16.6860 N   0  0  0  0  0  0  0  0  0  0  0  0
   -4.5591    0.6881   15.8388 S   0  0  0  0  0  0  0  0  0  0  0  0
   -4.5975   -0.2700   14.7980 O   0  0  0  0  0  0  0  0  0  0  0  0
   -3.4026    0.7457   16.6297 O   0  0  0  0  0  0  0  0  0  0  0  0
   -6.5791    0.3979   16.1001 H   0  0  0  0  0  0  0  0  0  0  0  0
   -5.8427    1.1919   17.3657 H   0  0  0  0  0  0  0  0  0  0  0  0
  1 21  1  0  0  0
  1  4  1  0  0  0
  1  7  2  0  0  0
  2  3  1  0  0  0
  2  8  1  0  0  0
  3  6  1  0  0  0
 12 13  2  0  0  0
 12 17  1  0  0  0
 13 14  1  0  0  0
 14 15  2  0  0  0
 14 19  1  0  0  0
 15 16  1  0  0  0
 18 19  1  0  0  0
 20 21  1  0  0  0
 21 22  2  0  0  0
 21 23  2  0  0  0
  4  5  1  0  0  0
  5  6  2  0  0  0
  5  9  1  0  0  0
  6  7  1  0  0  0
  8  9  1  0  0  0
  8 16  1  0  0  0
  9 10  2  0  0  0
  9 11  2  0  0  0
 16 17  2  0  0  0
 20 24  1  0  0  0
 20 25  1  0  0  0
M  END
> <minimizedAffinity>
-7.33921

$$$$
1BNN_AL1_A_555


 25 27  0  0  0  0  0  0  0  0999 V2000
   -5.3077    2.1284   16.2881 C   0  0  0  0  0  0  0  0  0  0  0  0
   -2.4368    4.7117   13.4943 C   0  0  0  0  0  0  0  0  0  0  0  0
   -2.3013    3.8258   14.7224 C   0  0  0  0  0  0  0  0  0  0  0  0
   -6.2594    3.3658   15.5748 S   0  0  0  0  0  0  0  0  0  0  0  0
   -4.8274    3.9873   14.9045 C   0  0  0  0  0  0  0  0  0  0  0  0
   -3.6368    3.2899   15.2271 C   0  0  0  0  0  0  0  0  0  0  0  0
   -3.9505    2.2093   16.0236 C   0  0  0  0  0  0  0  0  0  0  0  0
   -3.4118    5.7453   13.7928 N   0  0  0  0  0  0  0  0  0  0  0  0
   -4.8767    5.3522   13.8638 S   0  0  0  0  0  0  0  0  0  0  0  0
   -5.4521    4.8297   12.5913 O   0  0  0  0  0  0  0  0  0  0  0  0
   -5.8290    6.4234   14.2557 O   0  0  0  0  0  0  0  0  0  0  0  0
   -2.5477    8.9719   12.3887 C   0  0  0  0  0  0  0  0  0  0  0  0
   -2.0085    9.5788   13.5111 C   0  0  0  0  0  0  0  0  0  0  0  0
   -1.9883    8.8667   14.7277 C   0  0  0  0  0  0  0  0  0  0  0  0
   -2.4837    7.5833   14.8497 C   0  0  0  0  0  0  0  0  0  0  0  0
   -3.0037    7.0162   13.7097 C   0  0  0  0  0  0  0  0  0  0  0  0
   -3.0530    7.6777   12.4813 C   0  0  0  0  0  0  0  0  0  0  0  0
   -0.5475   10.4464   15.6563 C   0  0  0  0  0  0  0  0  0  0  0  0
   -1.4885    9.3588   15.8207 O   0  0  0  0  0  0  0  0  0  0  0  0
   -7.5302    0.8442   17.1984 N   0  0  0  0  0  0  0  0  0  0  0  0
   -6.0533    0.9027   17.2449 S   0  0  0  0  0  0  0  0  0  0  0  0
   -5.5838   -0.3038   16.6737 O   0  0  0  0  0  0  0  0  0  0  0  0
   -5.6219    1.2220   18.5404 O   0  0  0  0  0  0  0  0  0  0  0  0
   -7.8317    0.6114   16.2522 H   0  0  0  0  0  0  0  0  0  0  0  0
   -7.9150    1.7506   17.4645 H   0  0  0  0  0  0  0  0  0  0  0  0
  1 21  1  0  0  0
  1  4  1  0  0  0
  1  7  2  0  0  0
  2  3  1  0  0  0
  2  8  1  0  0  0
  3  6  1  0  0  0
 12 13  2  0  0  0
 12 17  1  0  0  0
 13 14  1  0  0  0
 14 15  2  0  0  0
 14 19  1  0  0  0
 15 16  1  0  0  0
 18 19  1  0  0  0
 20 21  1  0  0  0
 21 22  2  0  0  0
 21 23  2  0  0  0
  4  5  1  0  0  0
  5  6  2  0  0  0
  5  9  1  0  0  0
  6  7  1  0  0  0
  8  9  1  0  0  0
  8 16  1  0  0  0
  9 10  2  0  0  0
  9 11  2  0  0  0
 16 17  2  0  0  0
 20 24  1  0  0  0
 20 25  1  0  0  0
M  END
> <minimizedAffinity>
-7.23991

$$$$
1BNN_AL1_A_555


 25 27  0  0  0  0  0  0  0  0999 V2000
   -5.8427    2.2062   16.3433 C   0  0  0  0  0  0  0  0  0  0  0  0
   -4.5078    5.9135   13.6609 C   0  0  0  0  0  0  0  0  0  0  0  0
   -5.8049    5.3357   14.2042 C   0  0  0  0  0  0  0  0  0  0  0  0
   -4.3503    1.7953   15.6020 S   0  0  0  0  0  0  0  0  0  0  0  0
   -4.4518    3.2575   14.7430 C   0  0  0  0  0  0  0  0  0  0  0  0
   -5.6051    4.0434   14.9886 C   0  0  0  0  0  0  0  0  0  0  0  0
   -6.3882    3.4106   15.9304 C   0  0  0  0  0  0  0  0  0  0  0  0
   -3.8306    4.8690   12.9134 N   0  0  0  0  0  0  0  0  0  0  0  0
   -3.1835    3.7350   13.6886 S   0  0  0  0  0  0  0  0  0  0  0  0
   -2.0763    4.1447   14.5995 O   0  0  0  0  0  0  0  0  0  0  0  0
   -2.5767    2.6456   12.8807 O   0  0  0  0  0  0  0  0  0  0  0  0
   -4.1216    4.8025    9.3023 C   0  0  0  0  0  0  0  0  0  0  0  0
   -2.9501    5.4581    8.9610 C   0  0  0  0  0  0  0  0  0  0  0  0
   -2.1097    5.9318    9.9890 C   0  0  0  0  0  0  0  0  0  0  0  0
   -2.4040    5.7686   11.3285 C   0  0  0  0  0  0  0  0  0  0  0  0
   -3.5731    5.1066   11.6227 C   0  0  0  0  0  0  0  0  0  0  0  0
   -4.4435    4.6216   10.6449 C   0  0  0  0  0  0  0  0  0  0  0  0
    0.1249    6.1809   10.6041 C   0  0  0  0  0  0  0  0  0  0  0  0
   -0.9885    6.5435    9.7531 O   0  0  0  0  0  0  0  0  0  0  0  0
   -5.9160   -0.1729   17.6668 N   0  0  0  0  0  0  0  0  0  0  0  0
   -6.5494    1.1545   17.5129 S   0  0  0  0  0  0  0  0  0  0  0  0
   -6.3597    1.8363   18.7384 O   0  0  0  0  0  0  0  0  0  0  0  0
   -7.8626    1.0127   17.0421 O   0  0  0  0  0  0  0  0  0  0  0  0
   -4.9623   -0.0570   18.0094 H   0  0  0  0  0  0  0  0  0  0  0  0
   -5.8977   -0.6476   16.7641 H   0  0  0  0  0  0  0  0  0  0  0  0
  1 21  1  0  0  0
  1  4  1  0  0  0
  1  7  2  0  0  0
  2  3  1  0  0  0
  2  8  1  0  0  0
  3  6  1  0  0  0
 12 13  2  0  0  0
 12 17  1  0  0  0
 13 14  1  0  0  0
 14 15  2  0  0  0
 14 19  1  0  0  0
 15 16  1  0  0  0
 18 19  1  0  0  0
 20 21  1  0  0  0
 21 22  2  0  0  0
 21 23  2  0  0  0
  4  5  1  0  0  0
  5  6  2  0  0  0
  5  9  1  0  0  0
  6  7  1  0  0  0
  8  9  1  0  0  0
  8 16  1  0  0  0
  9 10  2  0  0  0
  9 11  2  0  0  0
 16 17  2  0  0  0
 20 24  1  0  0  0
 20 25  1  0  0  0
M  END
> <minimizedAffinity>
-7.18907

$$$$
1BNN_AL1_A_555


 25 27  0  0  0  0  0  0  0  0999 V2000
   -4.9800    8.0583   11.6142 C   0  0  0  0  0  0  0  0  0  0  0  0
   -3.1463    4.8903   14.6674 C   0  0  0  0  0  0  0  0  0  0  0  0
   -2.6849    5.6529   13.4357 C   0  0  0  0  0  0  0  0  0  0  0  0
   -6.2871    7.1658   12.2780 S   0  0  0  0  0  0  0  0  0  0  0  0
   -5.1362    6.1964   13.0667 C   0  0  0  0  0  0  0  0  0  0  0  0
   -3.7786    6.5199   12.8212 C   0  0  0  0  0  0  0  0  0  0  0  0
   -3.7213    7.6121   11.9820 C   0  0  0  0  0  0  0  0  0  0  0  0
   -4.3506    4.1591   14.3166 N   0  0  0  0  0  0  0  0  0  0  0  0
   -5.6374    4.9427   14.1275 S   0  0  0  0  0  0  0  0  0  0  0  0
   -6.1262    5.6559   15.3423 O   0  0  0  0  0  0  0  0  0  0  0  0
   -6.8243    4.1654   13.6861 O   0  0  0  0  0  0  0  0  0  0  0  0
   -4.2663    0.6364   13.4726 C   0  0  0  0  0  0  0  0  0  0  0  0
   -4.4334    0.0893   14.7342 C   0  0  0  0  0  0  0  0  0  0  0  0
   -4.5385    0.9533   15.8433 C   0  0  0  0  0  0  0  0  0  0  0  0
   -4.4834    2.3283   15.7263 C   0  0  0  0  0  0  0  0  0  0  0  0
   -4.3234    2.8292   14.4555 C   0  0  0  0  0  0  0  0  0  0  0  0
   -4.2092    2.0197   13.3238 C   0  0  0  0  0  0  0  0  0  0  0  0
   -5.9987    0.7996   17.6538 C   0  0  0  0  0  0  0  0  0  0  0  0
   -4.7102    0.5210   17.0559 O   0  0  0  0  0  0  0  0  0  0  0  0
   -4.2059   10.4109   10.4812 N   0  0  0  0  0  0  0  0  0  0  0  0
   -5.2845    9.4040   10.5798 S   0  0  0  0  0  0  0  0  0  0  0  0
   -5.4110    8.8215    9.2964 O   0  0  0  0  0  0  0  0  0  0  0  0
   -6.4299    9.9759   11.1521 O   0  0  0  0  0  0  0  0  0  0  0  0
   -3.3790    9.9835   10.0640 H   0  0  0  0  0  0  0  0  0  0  0  0
   -3.9767   10.7560   11.4133 H   0  0  0  0  0  0  0  0  0  0  0  0
  1 21  1  0  0  0
  1  4  1  0  0  0
  1  7  2  0  0  0
  2  3  1  0  0  0
  2  8  1  0  0  0
  3  6  1  0  0  0
 12 13  2  0  0  0
 12 17  1  0  0  0
 13 14  1  0  0  0
 14 15  2  0  0  0
 14 19  1  0  0  0
 15 16  1  0  0  0
 18 19  1  0  0  0
 20 21  1  0  0  0
 21 22  2  0  0  0
 21 23  2  0  0  0
  4  5  1  0  0  0
  5  6  2  0  0  0
  5  9  1  0  0  0
  6  7  1  0  0  0
  8  9  1  0  0  0
  8 16  1  0  0  0
  9 10  2  0  0  0
  9 11  2  0  0  0
 16 17  2  0  0  0
 20 24  1  0  0  0
 20 25  1  0  0  0
M  END
> <minimizedAffinity>
-6.95996

$$$$
1BNN_AL1_A_555


 25 27  0  0  0  0  0  0  0  0999 V2000
   -1.5557    8.1574   14.3036 C   0  0  0  0  0  0  0  0  0  0  0  0
   -5.0185    4.8830   14.2075 C   0  0  0  0  0  0  0  0  0  0  0  0
   -4.5299    5.9665   15.1556 C   0  0  0  0  0  0  0  0  0  0  0  0
   -1.0377    6.8894   13.2695 S   0  0  0  0  0  0  0  0  0  0  0  0
   -2.4415    6.0430   13.7158 C   0  0  0  0  0  0  0  0  0  0  0  0
   -3.2866    6.6909   14.6506 C   0  0  0  0  0  0  0  0  0  0  0  0
   -2.7499    7.9213   14.9646 C   0  0  0  0  0  0  0  0  0  0  0  0
   -3.9003    4.0031   13.9184 N   0  0  0  0  0  0  0  0  0  0  0  0
   -2.7968    4.5179   13.0113 S   0  0  0  0  0  0  0  0  0  0  0  0
   -3.2235    4.8409   11.6196 O   0  0  0  0  0  0  0  0  0  0  0  0
   -1.6325    3.6166   12.8120 O   0  0  0  0  0  0  0  0  0  0  0  0
   -4.3494    0.4269   13.5470 C   0  0  0  0  0  0  0  0  0  0  0  0
   -4.4928    0.0695   14.8777 C   0  0  0  0  0  0  0  0  0  0  0  0
   -4.3985    1.0703   15.8661 C   0  0  0  0  0  0  0  0  0  0  0  0
   -4.1697    2.3985   15.5643 C   0  0  0  0  0  0  0  0  0  0  0  0
   -4.0401    2.7103   14.2311 C   0  0  0  0  0  0  0  0  0  0  0  0
   -4.1198    1.7589   13.2125 C   0  0  0  0  0  0  0  0  0  0  0  0
   -5.8862    0.8709   17.6495 C   0  0  0  0  0  0  0  0  0  0  0  0
   -4.5349    0.8202   17.1333 O   0  0  0  0  0  0  0  0  0  0  0  0
    0.8278    9.4660   14.1506 N   0  0  0  0  0  0  0  0  0  0  0  0
   -0.6137    9.5938   14.4546 S   0  0  0  0  0  0  0  0  0  0  0  0
   -1.1573   10.4585   13.4752 O   0  0  0  0  0  0  0  0  0  0  0  0
   -0.7958    9.9381   15.8017 O   0  0  0  0  0  0  0  0  0  0  0  0
    0.9474    9.2156   13.1691 H   0  0  0  0  0  0  0  0  0  0  0  0
    1.2363    8.7398   14.7390 H   0  0  0  0  0  0  0  0  0  0  0  0
  1 21  1  0  0  0
  1  4  1  0  0  0
  1  7  2  0  0  0
  2  3  1  0  0  0
  2  8  1  0  0  0
  3  6  1  0  0  0
 12 13  2  0  0  0
 12 17  1  0  0  0
 13 14  1  0  0  0
 14 15  2  0  0  0
 14 19  1  0  0  0
 15 16  1  0  0  0
 18 19  1  0  0  0
 20 21  1  0  0  0
 21 22  2  0  0  0
 21 23  2  0  0  0
  4  5  1  0  0  0
  5  6  2  0  0  0
  5  9  1  0  0  0
  6  7  1  0  0  0
  8  9  1  0  0  0
  8 16  1  0  0  0
  9 10  2  0  0  0
  9 11  2  0  0  0
 16 17  2  0  0  0
 20 24  1  0  0  0
 20 25  1  0  0  0
M  END
> <minimizedAffinity>
-6.87739

$$$$
1BNN_AL1_A_555


 25 27  0  0  0  0  0  0  0  0999 V2000
   -5.1254    1.5483   15.4763 C   0  0  0  0  0  0  0  0  0  0  0  0
   -3.2978    1.9349   11.0908 C   0  0  0  0  0  0  0  0  0  0  0  0
   -3.2585    0.9340   12.2346 C   0  0  0  0  0  0  0  0  0  0  0  0
   -5.0385    3.2205   15.0995 S   0  0  0  0  0  0  0  0  0  0  0  0
   -4.2468    2.7860   13.6605 C   0  0  0  0  0  0  0  0  0  0  0  0
   -4.0257    1.3997   13.4674 C   0  0  0  0  0  0  0  0  0  0  0  0
   -4.5566    0.7068   14.5344 C   0  0  0  0  0  0  0  0  0  0  0  0
   -2.8617    3.2206   11.6056 N   0  0  0  0  0  0  0  0  0  0  0  0
   -3.8045    3.9872   12.5160 S   0  0  0  0  0  0  0  0  0  0  0  0
   -5.0938    4.3965   11.8886 O   0  0  0  0  0  0  0  0  0  0  0  0
   -3.2836    5.2563   13.0870 O   0  0  0  0  0  0  0  0  0  0  0  0
   -0.7753    4.8858    9.1554 C   0  0  0  0  0  0  0  0  0  0  0  0
    0.4538    4.7828    9.7859 C   0  0  0  0  0  0  0  0  0  0  0  0
    0.5204    4.1691   11.0533 C   0  0  0  0  0  0  0  0  0  0  0  0
   -0.5916    3.6622   11.6967 C   0  0  0  0  0  0  0  0  0  0  0  0
   -1.7903    3.7795   11.0325 C   0  0  0  0  0  0  0  0  0  0  0  0
   -1.9137    4.3819    9.7792 C   0  0  0  0  0  0  0  0  0  0  0  0
    2.3402    5.2391   12.0419 C   0  0  0  0  0  0  0  0  0  0  0  0
    1.6348    4.0212   11.7038 O   0  0  0  0  0  0  0  0  0  0  0  0
   -7.3295    1.3180   17.0593 N   0  0  0  0  0  0  0  0  0  0  0  0
   -5.8855    1.0252   16.9330 S   0  0  0  0  0  0  0  0  0  0  0  0
   -5.7619   -0.3839   16.8911 O   0  0  0  0  0  0  0  0  0  0  0  0
   -5.1638    1.7140   17.9184 O   0  0  0  0  0  0  0  0  0  0  0  0
   -7.8434    0.8119   16.3380 H   0  0  0  0  0  0  0  0  0  0  0  0
   -7.4843    2.3200   16.9473 H   0  0  0  0  0  0  0  0  0  0  0  0
  1 21  1  0  0  0
  1  4  1  0  0  0
  1  7  2  0  0  0
  2  3  1  0  0  0
  2  8  1  0  0  0
  3  6  1  0  0  0
 12 13  2  0  0  0
 12 17  1  0  0  0
 13 14  1  0  0  0
 14 15  2  0  0  0
 14 19  1  0  0  0
 15 16  1  0  0  0
 18 19  1  0  0  0
 20 21  1  0  0  0
 21 22  2  0  0  0
 21 23  2  0  0  0
  4  5  1  0  0  0
  5  6  2  0  0  0
  5  9  1  0  0  0
  6  7  1  0  0  0
  8  9  1  0  0  0
  8 16  1  0  0  0
  9 10  2  0  0  0
  9 11  2  0  0  0
 16 17  2  0  0  0
 20 24  1  0  0  0
 20 25  1  0  0  0
M  END
> <minimizedAffinity>
-6.73284

$$$$
1BNN_AL1_A_555


 25 27  0  0  0  0  0  0  0  0999 V2000
   -1.4710    8.1149   14.2121 C   0  0  0  0  0  0  0  0  0  0  0  0
   -5.0504    4.9704   14.3570 C   0  0  0  0  0  0  0  0  0  0  0  0
   -4.4830    6.0609   15.2516 C   0  0  0  0  0  0  0  0  0  0  0  0
   -1.0438    6.8002   13.1949 S   0  0  0  0  0  0  0  0  0  0  0  0
   -2.4567    6.0194   13.7242 C   0  0  0  0  0  0  0  0  0  0  0  0
   -3.2372    6.7241   14.6740 C   0  0  0  0  0  0  0  0  0  0  0  0
   -2.6436    7.9420   14.9290 C   0  0  0  0  0  0  0  0  0  0  0  0
   -3.9781    4.0417   14.0475 N   0  0  0  0  0  0  0  0  0  0  0  0
   -2.8966    4.4896   13.0804 S   0  0  0  0  0  0  0  0  0  0  0  0
   -3.3706    4.7893   11.6987 O   0  0  0  0  0  0  0  0  0  0  0  0
   -1.7751    3.5403   12.8591 O   0  0  0  0  0  0  0  0  0  0  0  0
   -4.1853    1.0657   16.1041 C   0  0  0  0  0  0  0  0  0  0  0  0
   -4.3436    0.1085   15.1154 C   0  0  0  0  0  0  0  0  0  0  0  0
   -4.4058    0.5227   13.7693 C   0  0  0  0  0  0  0  0  0  0  0  0
   -4.3139    1.8479   13.3911 C   0  0  0  0  0  0  0  0  0  0  0  0
   -4.1508    2.7642   14.4036 C   0  0  0  0  0  0  0  0  0  0  0  0
   -4.0878    2.4095   15.7524 C   0  0  0  0  0  0  0  0  0  0  0  0
   -4.6326    0.2730   11.4629 C   0  0  0  0  0  0  0  0  0  0  0  0
   -4.5390   -0.3122   12.7835 O   0  0  0  0  0  0  0  0  0  0  0  0
    0.9545    9.3243   13.9449 N   0  0  0  0  0  0  0  0  0  0  0  0
   -0.4723    9.5189   14.2813 S   0  0  0  0  0  0  0  0  0  0  0  0
   -1.0102   10.3654   13.2828 O   0  0  0  0  0  0  0  0  0  0  0  0
   -0.6041    9.9218   15.6180 O   0  0  0  0  0  0  0  0  0  0  0  0
    1.0375    9.0317   12.9713 H   0  0  0  0  0  0  0  0  0  0  0  0
    1.3517    8.6062   14.5507 H   0  0  0  0  0  0  0  0  0  0  0  0
  1 21  1  0  0  0
  1  4  1  0  0  0
  1  7  2  0  0  0
  2  3  1  0  0  0
  2  8  1  0  0  0
  3  6  1  0  0  0
 12 13  2  0  0  0
 12 17  1  0  0  0
 13 14  1  0  0  0
 14 15  2  0  0  0
 14 19  1  0  0  0
 15 16  1  0  0  0
 18 19  1  0  0  0
 20 21  1  0  0  0
 21 22  2  0  0  0
 21 23  2  0  0  0
  4  5  1  0  0  0
  5  6  2  0  0  0
  5  9  1  0  0  0
  6  7  1  0  0  0
  8  9  1  0  0  0
  8 16  1  0  0  0
  9 10  2  0  0  0
  9 11  2  0  0  0
 16 17  2  0  0  0
 20 24  1  0  0  0
 20 25  1  0  0  0
M  END
> <minimizedAffinity>
-6.63551

$$$$
1BNN_AL1_A_555


 25 27  0  0  0  0  0  0  0  0999 V2000
   -4.1194    1.5204   11.5329 C   0  0  0  0  0  0  0  0  0  0  0  0
   -4.7260    6.0620   12.8469 C   0  0  0  0  0  0  0  0  0  0  0  0
   -4.3921    5.3013   11.5736 C   0  0  0  0  0  0  0  0  0  0  0  0
   -3.7793    1.6210   13.2121 S   0  0  0  0  0  0  0  0  0  0  0  0
   -3.9751    3.3036   13.0821 C   0  0  0  0  0  0  0  0  0  0  0  0
   -4.2716    3.7962   11.7870 C   0  0  0  0  0  0  0  0  0  0  0  0
   -4.3590    2.7349   10.9114 C   0  0  0  0  0  0  0  0  0  0  0  0
   -3.7568    5.6861   13.8606 N   0  0  0  0  0  0  0  0  0  0  0  0
   -3.8599    4.3013   14.4748 S   0  0  0  0  0  0  0  0  0  0  0  0
   -5.1198    4.0372   15.2274 O   0  0  0  0  0  0  0  0  0  0  0  0
   -2.7974    3.9289   15.4445 O   0  0  0  0  0  0  0  0  0  0  0  0
   -2.6644    8.3101   16.1079 C   0  0  0  0  0  0  0  0  0  0  0  0
   -1.5739    8.7865   15.3989 C   0  0  0  0  0  0  0  0  0  0  0  0
   -1.2292    8.1664   14.1807 C   0  0  0  0  0  0  0  0  0  0  0  0
   -1.9356    7.1002   13.6596 C   0  0  0  0  0  0  0  0  0  0  0  0
   -3.0146    6.6634   14.3922 C   0  0  0  0  0  0  0  0  0  0  0  0
   -3.3969    7.2374   15.6060 C   0  0  0  0  0  0  0  0  0  0  0  0
    0.7278    9.4302   14.0993 C   0  0  0  0  0  0  0  0  0  0  0  0
   -0.2307    8.5613   13.4500 O   0  0  0  0  0  0  0  0  0  0  0  0
   -5.3381   -0.2935    9.9075 N   0  0  0  0  0  0  0  0  0  0  0  0
   -4.1515   -0.0128   10.7442 S   0  0  0  0  0  0  0  0  0  0  0  0
   -3.0420    0.0354    9.8672 O   0  0  0  0  0  0  0  0  0  0  0  0
   -4.0940   -0.9107   11.8198 O   0  0  0  0  0  0  0  0  0  0  0  0
   -5.3690    0.3652    9.1294 H   0  0  0  0  0  0  0  0  0  0  0  0
   -6.1826   -0.1941   10.4709 H   0  0  0  0  0  0  0  0  0  0  0  0
  1 21  1  0  0  0
  1  4  1  0  0  0
  1  7  2  0  0  0
  2  3  1  0  0  0
  2  8  1  0  0  0
  3  6  1  0  0  0
 12 13  2  0  0  0
 12 17  1  0  0  0
 13 14  1  0  0  0
 14 15  2  0  0  0
 14 19  1  0  0  0
 15 16  1  0  0  0
 18 19  1  0  0  0
 20 21  1  0  0  0
 21 22  2  0  0  0
 21 23  2  0  0  0
  4  5  1  0  0  0
  5  6  2  0  0  0
  5  9  1  0  0  0
  6  7  1  0  0  0
  8  9  1  0  0  0
  8 16  1  0  0  0
  9 10  2  0  0  0
  9 11  2  0  0  0
 16 17  2  0  0  0
 20 24  1  0  0  0
 20 25  1  0  0  0
M  END
> <minimizedAffinity>
-6.51496

$$$$
1BNN_AL1_A_555


 25 27  0  0  0  0  0  0  0  0999 V2000
   -3.9718    1.6269   11.7950 C   0  0  0  0  0  0  0  0  0  0  0  0
   -4.4900    5.5477   14.4558 C   0  0  0  0  0  0  0  0  0  0  0  0
   -5.2959    4.7888   13.4136 C   0  0  0  0  0  0  0  0  0  0  0  0
   -2.4005    2.2017   12.1775 S   0  0  0  0  0  0  0  0  0  0  0  0
   -3.1428    3.5455   12.9051 C   0  0  0  0  0  0  0  0  0  0  0  0
   -4.5582    3.5810   12.8460 C   0  0  0  0  0  0  0  0  0  0  0  0
   -5.0099    2.4476   12.2041 C   0  0  0  0  0  0  0  0  0  0  0  0
   -3.1965    5.8652   13.8778 N   0  0  0  0  0  0  0  0  0  0  0  0
   -2.1947    4.7388   13.6960 S   0  0  0  0  0  0  0  0  0  0  0  0
   -1.7472    4.0827   14.9580 O   0  0  0  0  0  0  0  0  0  0  0  0
   -0.9182    5.0933   13.0232 O   0  0  0  0  0  0  0  0  0  0  0  0
   -2.5524    9.1529   12.4972 C   0  0  0  0  0  0  0  0  0  0  0  0
   -2.0080    9.7717   13.6105 C   0  0  0  0  0  0  0  0  0  0  0  0
   -1.9087    9.0446   14.8142 C   0  0  0  0  0  0  0  0  0  0  0  0
   -2.3312    7.7350   14.9323 C   0  0  0  0  0  0  0  0  0  0  0  0
   -2.8591    7.1572   13.8014 C   0  0  0  0  0  0  0  0  0  0  0  0
   -2.9852    7.8323   12.5860 C   0  0  0  0  0  0  0  0  0  0  0  0
   -0.2906   10.4604   15.7146 C   0  0  0  0  0  0  0  0  0  0  0  0
   -1.3986    9.5472   15.8978 O   0  0  0  0  0  0  0  0  0  0  0  0
   -5.4097   -0.0257   10.1768 N   0  0  0  0  0  0  0  0  0  0  0  0
   -4.1696    0.1268   10.9679 S   0  0  0  0  0  0  0  0  0  0  0  0
   -3.0973    0.1062   10.0447 O   0  0  0  0  0  0  0  0  0  0  0  0
   -4.1460   -0.8050   12.0156 O   0  0  0  0  0  0  0  0  0  0  0  0
   -5.4154    0.6566    9.4186 H   0  0  0  0  0  0  0  0  0  0  0  0
   -6.2184    0.1286   10.7790 H   0  0  0  0  0  0  0  0  0  0  0  0
  1 21  1  0  0  0
  1  4  1  0  0  0
  1  7  2  0  0  0
  2  3  1  0  0  0
  2  8  1  0  0  0
  3  6  1  0  0  0
 12 13  2  0  0  0
 12 17  1  0  0  0
 13 14  1  0  0  0
 14 15  2  0  0  0
 14 19  1  0  0  0
 15 16  1  0  0  0
 18 19  1  0  0  0
 20 21  1  0  0  0
 21 22  2  0  0  0
 21 23  2  0  0  0
  4  5  1  0  0  0
  5  6  2  0  0  0
  5  9  1  0  0  0
  6  7  1  0  0  0
  8  9  1  0  0  0
  8 16  1  0  0  0
  9 10  2  0  0  0
  9 11  2  0  0  0
 16 17  2  0  0  0
 20 24  1  0  0  0
 20 25  1  0  0  0
M  END
> <minimizedAffinity>
-6.48544

$$$$
