5N93_8QE_A_901


 30 31  0  0  0  0  0  0  0  0999 V2000
    0.0372   37.0398   44.4822 C   0  0  0  0  0  0  0  0  0  0  0  0
   -1.4503   36.2830   42.2613 C   0  0  0  0  0  0  0  0  0  0  0  0
   -1.2756   35.3981   43.4477 C   0  0  0  0  0  0  0  0  0  0  0  0
   -0.7754   37.5808   42.2949 C   0  0  0  0  0  0  0  0  0  0  0  0
   -0.8663   38.5227   41.1659 N   0  0  0  0  0  0  0  0  0  0  0  0
   -0.0610   37.9159   43.4238 C   0  0  0  0  0  0  0  0  0  0  0  0
   -0.5748   35.8318   44.4827 N   0  0  0  0  0  0  0  0  0  0  0  0
   -1.3781   38.2786   40.3611 H   0  0  0  0  0  0  0  0  0  0  0  0
   -0.4152   39.3963   41.2162 H   0  0  0  0  0  0  0  0  0  0  0  0
   -2.0601   35.9189   41.2133 C   0  0  0  0  0  0  0  0  0  0  0  0
   -2.6668   35.6448   40.2545 N   0  0  0  0  0  0  0  0  0  0  0  0
   -1.9093   34.1812   43.3992 N   0  0  0  0  0  0  0  0  0  0  0  0
   -2.7196   34.0853   42.8485 H   0  0  0  0  0  0  0  0  0  0  0  0
   -1.4168   33.0297   44.1388 C   0  0  0  0  0  0  0  0  0  0  0  0
   -0.0336   32.6779   43.6098 C   0  0  0  0  0  0  0  0  0  0  0  0
   -2.4439   31.9798   43.7171 C   0  0  0  0  0  0  0  0  0  0  0  0
   -1.4106   33.2176   45.6292 C   0  0  0  0  0  0  0  0  0  0  0  0
    0.7868   37.5363   45.5434 N   0  0  0  0  0  0  0  0  0  0  0  0
    1.2497   38.3984   45.4356 H   0  0  0  0  0  0  0  0  0  0  0  0
    1.2340   35.2930   49.0443 C   0  0  0  0  0  0  0  0  0  0  0  0
    1.4018   35.5554   46.6777 C   0  0  0  0  0  0  0  0  0  0  0  0
    0.9073   36.8457   46.7725 C   0  0  0  0  0  0  0  0  0  0  0  0
    0.6152   37.3751   48.0153 C   0  0  0  0  0  0  0  0  0  0  0  0
    1.5550   34.7717   47.8067 C   0  0  0  0  0  0  0  0  0  0  0  0
    0.7617   36.5990   49.1480 C   0  0  0  0  0  0  0  0  0  0  0  0
    1.4284   34.4557   50.2734 C   0  0  0  0  0  0  0  0  0  0  0  0
    1.0914   34.8552   51.3743 O   0  0  0  0  0  0  0  0  0  0  0  0
    1.9936   33.1749   50.1083 N   0  0  0  0  0  0  0  0  0  0  0  0
    2.2608   32.8665   49.2124 H   0  0  0  0  0  0  0  0  0  0  0  0
    2.1211   32.5889   50.8890 H   0  0  0  0  0  0  0  0  0  0  0  0
 11 10  3  0  0  0
 10  2  1  0  0  0
 16 14  1  0  0  0
 12 14  1  0  0  0
 12  3  1  0  0  0
  2  3  2  0  0  0
  2  4  1  0  0  0
  5  4  1  0  0  0
 17 14  1  0  0  0
 14 15  1  0  0  0
  3  7  1  0  0  0
  4  6  2  0  0  0
  7  1  2  0  0  0
  6  1  1  0  0  0
  1 18  1  0  0  0
 18 22  1  0  0  0
 23 22  2  0  0  0
 23 25  1  0  0  0
 22 21  1  0  0  0
 25 20  2  0  0  0
 21 24  2  0  0  0
 20 24  1  0  0  0
 20 26  1  0  0  0
 28 26  1  0  0  0
 26 27  2  0  0  0
  5  8  1  0  0  0
  5  9  1  0  0  0
 12 13  1  0  0  0
 18 19  1  0  0  0
 28 29  1  0  0  0
 28 30  1  0  0  0
M  END
> <minimizedAffinity>
-9.13907

$$$$
5N93_8QE_A_901


 30 31  0  0  0  0  0  0  0  0999 V2000
   -0.1030   33.3944   46.1078 C   0  0  0  0  0  0  0  0  0  0  0  0
   -1.7691   33.2142   43.8922 C   0  0  0  0  0  0  0  0  0  0  0  0
   -1.5654   34.4873   44.6395 C   0  0  0  0  0  0  0  0  0  0  0  0
   -1.0682   32.0308   44.3913 C   0  0  0  0  0  0  0  0  0  0  0  0
   -1.2162   30.7186   43.7385 N   0  0  0  0  0  0  0  0  0  0  0  0
   -0.2429   32.1739   45.4848 C   0  0  0  0  0  0  0  0  0  0  0  0
   -0.7374   34.5083   45.6713 N   0  0  0  0  0  0  0  0  0  0  0  0
   -1.8073   30.6214   42.9572 H   0  0  0  0  0  0  0  0  0  0  0  0
   -0.7241   29.9388   44.0835 H   0  0  0  0  0  0  0  0  0  0  0  0
   -2.5844   33.1023   42.9301 C   0  0  0  0  0  0  0  0  0  0  0  0
   -3.3139   33.0682   42.0195 N   0  0  0  0  0  0  0  0  0  0  0  0
   -2.2343   35.5876   44.1635 N   0  0  0  0  0  0  0  0  0  0  0  0
   -3.1901   35.6945   44.3739 H   0  0  0  0  0  0  0  0  0  0  0  0
   -1.5705   36.5998   43.3572 C   0  0  0  0  0  0  0  0  0  0  0  0
   -0.1206   36.6965   43.8103 C   0  0  0  0  0  0  0  0  0  0  0  0
   -2.3569   37.8396   43.7808 C   0  0  0  0  0  0  0  0  0  0  0  0
   -1.6758   36.3677   41.8767 C   0  0  0  0  0  0  0  0  0  0  0  0
    0.7719   33.3664   47.1887 N   0  0  0  0  0  0  0  0  0  0  0  0
    1.2090   32.5163   47.4242 H   0  0  0  0  0  0  0  0  0  0  0  0
    1.6466   36.8964   49.2534 C   0  0  0  0  0  0  0  0  0  0  0  0
    1.3574   35.6564   47.2343 C   0  0  0  0  0  0  0  0  0  0  0  0
    1.0557   34.5171   47.9619 C   0  0  0  0  0  0  0  0  0  0  0  0
    1.0084   34.5809   49.3417 C   0  0  0  0  0  0  0  0  0  0  0  0
    1.6654   36.8432   47.8738 C   0  0  0  0  0  0  0  0  0  0  0  0
    1.3177   35.7607   49.9891 C   0  0  0  0  0  0  0  0  0  0  0  0
    1.9501   38.1903   49.9486 C   0  0  0  0  0  0  0  0  0  0  0  0
    1.4989   38.4394   51.0529 O   0  0  0  0  0  0  0  0  0  0  0  0
    2.7991   39.1022   49.2894 N   0  0  0  0  0  0  0  0  0  0  0  0
    3.1557   38.8864   48.3975 H   0  0  0  0  0  0  0  0  0  0  0  0
    3.0356   39.9549   49.7210 H   0  0  0  0  0  0  0  0  0  0  0  0
 11 10  3  0  0  0
 10  2  1  0  0  0
 16 14  1  0  0  0
 12 14  1  0  0  0
 12  3  1  0  0  0
  2  3  2  0  0  0
  2  4  1  0  0  0
  5  4  1  0  0  0
 17 14  1  0  0  0
 14 15  1  0  0  0
  3  7  1  0  0  0
  4  6  2  0  0  0
  7  1  2  0  0  0
  6  1  1  0  0  0
  1 18  1  0  0  0
 18 22  1  0  0  0
 23 22  2  0  0  0
 23 25  1  0  0  0
 22 21  1  0  0  0
 25 20  2  0  0  0
 21 24  2  0  0  0
 20 24  1  0  0  0
 20 26  1  0  0  0
 28 26  1  0  0  0
 26 27  2  0  0  0
  5  8  1  0  0  0
  5  9  1  0  0  0
 12 13  1  0  0  0
 18 19  1  0  0  0
 28 29  1  0  0  0
 28 30  1  0  0  0
M  END
> <minimizedAffinity>
-9.03861

$$$$
5N93_8QE_A_901


 30 31  0  0  0  0  0  0  0  0999 V2000
    0.0836   37.0008   44.4637 C   0  0  0  0  0  0  0  0  0  0  0  0
   -1.3506   36.3641   42.1713 C   0  0  0  0  0  0  0  0  0  0  0  0
   -1.1657   35.4011   43.2936 C   0  0  0  0  0  0  0  0  0  0  0  0
   -0.7152   37.6749   42.3085 C   0  0  0  0  0  0  0  0  0  0  0  0
   -0.8188   38.6929   41.2488 N   0  0  0  0  0  0  0  0  0  0  0  0
   -0.0264   37.9479   43.4696 C   0  0  0  0  0  0  0  0  0  0  0  0
   -0.4921   35.7789   44.3679 N   0  0  0  0  0  0  0  0  0  0  0  0
   -1.3123   38.4929   40.4207 H   0  0  0  0  0  0  0  0  0  0  0  0
   -0.3946   39.5732   41.3687 H   0  0  0  0  0  0  0  0  0  0  0  0
   -1.9350   36.0592   41.0904 C   0  0  0  0  0  0  0  0  0  0  0  0
   -2.4051   35.7678   40.0625 N   0  0  0  0  0  0  0  0  0  0  0  0
   -1.7620   34.1732   43.1480 N   0  0  0  0  0  0  0  0  0  0  0  0
   -2.5871   34.1021   42.6157 H   0  0  0  0  0  0  0  0  0  0  0  0
   -1.2090   32.9744   43.7583 C   0  0  0  0  0  0  0  0  0  0  0  0
   -1.7503   31.7642   43.0104 C   0  0  0  0  0  0  0  0  0  0  0  0
   -1.8262   33.0731   45.1526 C   0  0  0  0  0  0  0  0  0  0  0  0
    0.2916   32.9599   43.8268 C   0  0  0  0  0  0  0  0  0  0  0  0
    0.8036   37.4407   45.5694 N   0  0  0  0  0  0  0  0  0  0  0  0
    1.1939   38.3444   45.5532 H   0  0  0  0  0  0  0  0  0  0  0  0
    1.2834   35.2564   49.1031 C   0  0  0  0  0  0  0  0  0  0  0  0
    0.6659   37.2358   47.9206 C   0  0  0  0  0  0  0  0  0  0  0  0
    0.9949   36.6350   46.7167 C   0  0  0  0  0  0  0  0  0  0  0  0
    1.4301   35.3232   46.7051 C   0  0  0  0  0  0  0  0  0  0  0  0
    0.8199   36.5569   49.1154 C   0  0  0  0  0  0  0  0  0  0  0  0
    1.5901   34.6384   47.8934 C   0  0  0  0  0  0  0  0  0  0  0  0
    1.4220   34.5076   50.3952 C   0  0  0  0  0  0  0  0  0  0  0  0
    1.0681   34.9963   51.4541 O   0  0  0  0  0  0  0  0  0  0  0  0
    1.9547   33.2037   50.3404 N   0  0  0  0  0  0  0  0  0  0  0  0
    2.2362   32.8228   49.4773 H   0  0  0  0  0  0  0  0  0  0  0  0
    2.0453   32.6739   51.1652 H   0  0  0  0  0  0  0  0  0  0  0  0
 11 10  3  0  0  0
 10  2  1  0  0  0
 16 14  1  0  0  0
 12 14  1  0  0  0
 12  3  1  0  0  0
  2  3  2  0  0  0
  2  4  1  0  0  0
  5  4  1  0  0  0
 17 14  1  0  0  0
 14 15  1  0  0  0
  3  7  1  0  0  0
  4  6  2  0  0  0
  7  1  2  0  0  0
  6  1  1  0  0  0
  1 18  1  0  0  0
 18 22  1  0  0  0
 23 22  2  0  0  0
 23 25  1  0  0  0
 22 21  1  0  0  0
 25 20  2  0  0  0
 21 24  2  0  0  0
 20 24  1  0  0  0
 20 26  1  0  0  0
 28 26  1  0  0  0
 26 27  2  0  0  0
  5  8  1  0  0  0
  5  9  1  0  0  0
 12 13  1  0  0  0
 18 19  1  0  0  0
 28 29  1  0  0  0
 28 30  1  0  0  0
M  END
> <minimizedAffinity>
-8.86118

$$$$
5N93_8QE_A_901


 30 31  0  0  0  0  0  0  0  0999 V2000
    1.3617   35.9407   47.1687 C   0  0  0  0  0  0  0  0  0  0  0  0
    1.2141   35.7201   49.9340 C   0  0  0  0  0  0  0  0  0  0  0  0
    0.8972   36.9856   49.2135 C   0  0  0  0  0  0  0  0  0  0  0  0
    1.6406   34.5810   49.1208 C   0  0  0  0  0  0  0  0  0  0  0  0
    1.9966   33.2901   49.7347 N   0  0  0  0  0  0  0  0  0  0  0  0
    1.6849   34.7359   47.7529 C   0  0  0  0  0  0  0  0  0  0  0  0
    0.9635   37.0138   47.8924 N   0  0  0  0  0  0  0  0  0  0  0  0
    1.9634   33.1844   50.7129 H   0  0  0  0  0  0  0  0  0  0  0  0
    2.2677   32.5331   49.1666 H   0  0  0  0  0  0  0  0  0  0  0  0
    1.2254   35.6300   51.1967 C   0  0  0  0  0  0  0  0  0  0  0  0
    1.1765   35.5947   52.3625 N   0  0  0  0  0  0  0  0  0  0  0  0
    0.5047   38.0475   49.9899 N   0  0  0  0  0  0  0  0  0  0  0  0
   -0.3042   37.9616   50.5445 H   0  0  0  0  0  0  0  0  0  0  0  0
    1.2504   39.2960   50.0162 C   0  0  0  0  0  0  0  0  0  0  0  0
    2.7200   38.9799   49.7771 C   0  0  0  0  0  0  0  0  0  0  0  0
    1.0138   39.7202   51.4650 C   0  0  0  0  0  0  0  0  0  0  0  0
    0.7413   40.3324   49.0553 C   0  0  0  0  0  0  0  0  0  0  0  0
    1.4509   35.9239   45.7808 N   0  0  0  0  0  0  0  0  0  0  0  0
    2.2581   36.2901   45.3522 H   0  0  0  0  0  0  0  0  0  0  0  0
   -1.6876   34.6107   43.3488 C   0  0  0  0  0  0  0  0  0  0  0  0
   -0.5129   36.3228   44.5265 C   0  0  0  0  0  0  0  0  0  0  0  0
    0.4222   35.3990   44.9631 C   0  0  0  0  0  0  0  0  0  0  0  0
    0.3235   34.0825   44.5543 C   0  0  0  0  0  0  0  0  0  0  0  0
   -1.5748   35.9326   43.7312 C   0  0  0  0  0  0  0  0  0  0  0  0
   -0.7352   33.6829   43.7629 C   0  0  0  0  0  0  0  0  0  0  0  0
   -2.8211   34.1910   42.4610 C   0  0  0  0  0  0  0  0  0  0  0  0
   -3.3714   33.1125   42.6000 O   0  0  0  0  0  0  0  0  0  0  0  0
   -3.2472   35.1004   41.4719 N   0  0  0  0  0  0  0  0  0  0  0  0
   -2.7924   35.9679   41.3721 H   0  0  0  0  0  0  0  0  0  0  0  0
   -3.9996   34.8682   40.8809 H   0  0  0  0  0  0  0  0  0  0  0  0
 11 10  3  0  0  0
 10  2  1  0  0  0
 16 14  1  0  0  0
 12 14  1  0  0  0
 12  3  1  0  0  0
  2  3  2  0  0  0
  2  4  1  0  0  0
  5  4  1  0  0  0
 17 14  1  0  0  0
 14 15  1  0  0  0
  3  7  1  0  0  0
  4  6  2  0  0  0
  7  1  2  0  0  0
  6  1  1  0  0  0
  1 18  1  0  0  0
 18 22  1  0  0  0
 23 22  2  0  0  0
 23 25  1  0  0  0
 22 21  1  0  0  0
 25 20  2  0  0  0
 21 24  2  0  0  0
 20 24  1  0  0  0
 20 26  1  0  0  0
 28 26  1  0  0  0
 26 27  2  0  0  0
  5  8  1  0  0  0
  5  9  1  0  0  0
 12 13  1  0  0  0
 18 19  1  0  0  0
 28 29  1  0  0  0
 28 30  1  0  0  0
M  END
> <minimizedAffinity>
-8.69669

$$$$
5N93_8QE_A_901


 30 31  0  0  0  0  0  0  0  0999 V2000
    0.9657   34.9539   46.6340 C   0  0  0  0  0  0  0  0  0  0  0  0
   -0.5358   33.7019   44.6603 C   0  0  0  0  0  0  0  0  0  0  0  0
   -0.1702   35.1451   44.5939 C   0  0  0  0  0  0  0  0  0  0  0  0
   -0.0908   32.9569   45.8383 C   0  0  0  0  0  0  0  0  0  0  0  0
   -0.4155   31.5306   46.0125 N   0  0  0  0  0  0  0  0  0  0  0  0
    0.6627   33.6185   46.7827 C   0  0  0  0  0  0  0  0  0  0  0  0
    0.5691   35.6718   45.5564 N   0  0  0  0  0  0  0  0  0  0  0  0
   -0.9543   31.0621   45.3347 H   0  0  0  0  0  0  0  0  0  0  0  0
   -0.0937   31.0459   46.8067 H   0  0  0  0  0  0  0  0  0  0  0  0
   -1.2838   33.1401   43.8073 C   0  0  0  0  0  0  0  0  0  0  0  0
   -1.9215   32.6392   42.9676 N   0  0  0  0  0  0  0  0  0  0  0  0
   -0.6001   35.8327   43.4862 N   0  0  0  0  0  0  0  0  0  0  0  0
   -0.0989   35.7437   42.6434 H   0  0  0  0  0  0  0  0  0  0  0  0
   -1.7751   36.6890   43.5227 C   0  0  0  0  0  0  0  0  0  0  0  0
   -2.7502   36.2082   42.4573 C   0  0  0  0  0  0  0  0  0  0  0  0
   -1.1477   38.0239   43.1234 C   0  0  0  0  0  0  0  0  0  0  0  0
   -2.4264   36.7759   44.8736 C   0  0  0  0  0  0  0  0  0  0  0  0
    1.7390   35.4644   47.6713 N   0  0  0  0  0  0  0  0  0  0  0  0
    2.6056   35.0417   47.8701 H   0  0  0  0  0  0  0  0  0  0  0  0
    0.6080   38.6114   50.1824 C   0  0  0  0  0  0  0  0  0  0  0  0
    1.6062   36.4765   49.8037 C   0  0  0  0  0  0  0  0  0  0  0  0
    1.3237   36.5698   48.4509 C   0  0  0  0  0  0  0  0  0  0  0  0
    0.7180   37.7098   47.9572 C   0  0  0  0  0  0  0  0  0  0  0  0
    1.2400   37.4867   50.6742 C   0  0  0  0  0  0  0  0  0  0  0  0
    0.3457   38.7222   48.8193 C   0  0  0  0  0  0  0  0  0  0  0  0
    0.2375   39.7219   51.1200 C   0  0  0  0  0  0  0  0  0  0  0  0
   -0.3319   39.5001   52.1744 O   0  0  0  0  0  0  0  0  0  0  0  0
    0.5942   41.0347   50.7506 N   0  0  0  0  0  0  0  0  0  0  0  0
    1.0539   41.1977   49.8954 H   0  0  0  0  0  0  0  0  0  0  0  0
    0.3835   41.7885   51.3477 H   0  0  0  0  0  0  0  0  0  0  0  0
 11 10  3  0  0  0
 10  2  1  0  0  0
 16 14  1  0  0  0
 12 14  1  0  0  0
 12  3  1  0  0  0
  2  3  2  0  0  0
  2  4  1  0  0  0
  5  4  1  0  0  0
 17 14  1  0  0  0
 14 15  1  0  0  0
  3  7  1  0  0  0
  4  6  2  0  0  0
  7  1  2  0  0  0
  6  1  1  0  0  0
  1 18  1  0  0  0
 18 22  1  0  0  0
 23 22  2  0  0  0
 23 25  1  0  0  0
 22 21  1  0  0  0
 25 20  2  0  0  0
 21 24  2  0  0  0
 20 24  1  0  0  0
 20 26  1  0  0  0
 28 26  1  0  0  0
 26 27  2  0  0  0
  5  8  1  0  0  0
  5  9  1  0  0  0
 12 13  1  0  0  0
 18 19  1  0  0  0
 28 29  1  0  0  0
 28 30  1  0  0  0
M  END
> <minimizedAffinity>
-8.48631

$$$$
5N93_8QE_A_901


 30 31  0  0  0  0  0  0  0  0999 V2000
    0.6541   35.1694   46.2894 C   0  0  0  0  0  0  0  0  0  0  0  0
   -1.1882   33.7031   44.8152 C   0  0  0  0  0  0  0  0  0  0  0  0
   -1.2293   35.1906   44.8962 C   0  0  0  0  0  0  0  0  0  0  0  0
   -0.1388   33.0246   45.5762 C   0  0  0  0  0  0  0  0  0  0  0  0
   -0.0214   31.5562   45.5812 N   0  0  0  0  0  0  0  0  0  0  0  0
    0.7590   33.7960   46.2807 C   0  0  0  0  0  0  0  0  0  0  0  0
   -0.3051   35.8277   45.5964 N   0  0  0  0  0  0  0  0  0  0  0  0
   -0.6655   31.0092   45.0761 H   0  0  0  0  0  0  0  0  0  0  0  0
    0.7012   31.1218   46.0895 H   0  0  0  0  0  0  0  0  0  0  0  0
   -2.0670   33.0209   44.2110 C   0  0  0  0  0  0  0  0  0  0  0  0
   -2.9059   32.4573   43.6268 N   0  0  0  0  0  0  0  0  0  0  0  0
   -2.2232   35.8129   44.1823 N   0  0  0  0  0  0  0  0  0  0  0  0
   -3.1563   35.7235   44.4833 H   0  0  0  0  0  0  0  0  0  0  0  0
   -1.9361   36.6006   42.9938 C   0  0  0  0  0  0  0  0  0  0  0  0
   -2.3616   38.0378   43.2587 C   0  0  0  0  0  0  0  0  0  0  0  0
   -2.8767   35.9303   41.9932 C   0  0  0  0  0  0  0  0  0  0  0  0
   -0.5074   36.5191   42.5369 C   0  0  0  0  0  0  0  0  0  0  0  0
    1.6427   35.7947   47.0418 N   0  0  0  0  0  0  0  0  0  0  0  0
    2.4434   36.1375   46.5829 H   0  0  0  0  0  0  0  0  0  0  0  0
    1.3683   36.0153   51.2089 C   0  0  0  0  0  0  0  0  0  0  0  0
    1.6596   34.7895   49.1815 C   0  0  0  0  0  0  0  0  0  0  0  0
    1.5381   35.9555   48.4438 C   0  0  0  0  0  0  0  0  0  0  0  0
    1.3732   37.1623   49.0968 C   0  0  0  0  0  0  0  0  0  0  0  0
    1.5630   34.8118   50.5608 C   0  0  0  0  0  0  0  0  0  0  0  0
    1.2723   37.1941   50.4736 C   0  0  0  0  0  0  0  0  0  0  0  0
    1.2941   36.0461   52.7066 C   0  0  0  0  0  0  0  0  0  0  0  0
    0.2249   36.1016   53.2889 O   0  0  0  0  0  0  0  0  0  0  0  0
    2.5071   35.9832   53.4219 N   0  0  0  0  0  0  0  0  0  0  0  0
    3.3628   35.9389   52.9371 H   0  0  0  0  0  0  0  0  0  0  0  0
    2.4986   35.9837   54.4064 H   0  0  0  0  0  0  0  0  0  0  0  0
 11 10  3  0  0  0
 10  2  1  0  0  0
 16 14  1  0  0  0
 12 14  1  0  0  0
 12  3  1  0  0  0
  2  3  2  0  0  0
  2  4  1  0  0  0
  5  4  1  0  0  0
 17 14  1  0  0  0
 14 15  1  0  0  0
  3  7  1  0  0  0
  4  6  2  0  0  0
  7  1  2  0  0  0
  6  1  1  0  0  0
  1 18  1  0  0  0
 18 22  1  0  0  0
 23 22  2  0  0  0
 23 25  1  0  0  0
 22 21  1  0  0  0
 25 20  2  0  0  0
 21 24  2  0  0  0
 20 24  1  0  0  0
 20 26  1  0  0  0
 28 26  1  0  0  0
 26 27  2  0  0  0
  5  8  1  0  0  0
  5  9  1  0  0  0
 12 13  1  0  0  0
 18 19  1  0  0  0
 28 29  1  0  0  0
 28 30  1  0  0  0
M  END
> <minimizedAffinity>
-8.22457

$$$$
5N93_8QE_A_901


 30 31  0  0  0  0  0  0  0  0999 V2000
   -0.0396   36.7528   43.6546 C   0  0  0  0  0  0  0  0  0  0  0  0
    0.7728   35.5582   46.0275 C   0  0  0  0  0  0  0  0  0  0  0  0
    0.4654   34.7720   44.7993 C   0  0  0  0  0  0  0  0  0  0  0  0
    0.6027   37.0092   45.9479 C   0  0  0  0  0  0  0  0  0  0  0  0
    0.8600   37.8772   47.1100 N   0  0  0  0  0  0  0  0  0  0  0  0
    0.2112   37.5555   44.7455 C   0  0  0  0  0  0  0  0  0  0  0  0
    0.1079   35.4073   43.6952 N   0  0  0  0  0  0  0  0  0  0  0  0
    1.1397   37.4820   47.9672 H   0  0  0  0  0  0  0  0  0  0  0  0
    0.7523   38.8525   47.0294 H   0  0  0  0  0  0  0  0  0  0  0  0
    1.0682   35.0200   47.1347 C   0  0  0  0  0  0  0  0  0  0  0  0
    1.4021   34.4938   48.1216 N   0  0  0  0  0  0  0  0  0  0  0  0
    0.6233   33.4114   44.8908 N   0  0  0  0  0  0  0  0  0  0  0  0
    1.4987   33.0481   45.1571 H   0  0  0  0  0  0  0  0  0  0  0  0
   -0.4666   32.4915   44.6055 C   0  0  0  0  0  0  0  0  0  0  0  0
   -1.7709   33.2759   44.6229 C   0  0  0  0  0  0  0  0  0  0  0  0
   -0.3682   31.5722   45.8220 C   0  0  0  0  0  0  0  0  0  0  0  0
   -0.2979   31.7220   43.3264 C   0  0  0  0  0  0  0  0  0  0  0  0
   -0.4169   37.4636   42.5201 N   0  0  0  0  0  0  0  0  0  0  0  0
   -0.1492   38.4076   42.4402 H   0  0  0  0  0  0  0  0  0  0  0  0
   -2.7944   35.6178   39.6168 C   0  0  0  0  0  0  0  0  0  0  0  0
   -2.2152   36.0647   41.8890 C   0  0  0  0  0  0  0  0  0  0  0  0
   -1.1720   36.8774   41.4768 C   0  0  0  0  0  0  0  0  0  0  0  0
   -0.9673   37.0936   40.1272 C   0  0  0  0  0  0  0  0  0  0  0  0
   -3.0200   35.4237   40.9650 C   0  0  0  0  0  0  0  0  0  0  0  0
   -1.7638   36.4551   39.1973 C   0  0  0  0  0  0  0  0  0  0  0  0
   -3.6852   34.9481   38.6131 C   0  0  0  0  0  0  0  0  0  0  0  0
   -4.3524   35.5945   37.8243 O   0  0  0  0  0  0  0  0  0  0  0  0
   -3.7060   33.5387   38.5962 N   0  0  0  0  0  0  0  0  0  0  0  0
   -3.1614   33.0306   39.2400 H   0  0  0  0  0  0  0  0  0  0  0  0
   -4.2650   33.0625   37.9405 H   0  0  0  0  0  0  0  0  0  0  0  0
 11 10  3  0  0  0
 10  2  1  0  0  0
 16 14  1  0  0  0
 12 14  1  0  0  0
 12  3  1  0  0  0
  2  3  2  0  0  0
  2  4  1  0  0  0
  5  4  1  0  0  0
 17 14  1  0  0  0
 14 15  1  0  0  0
  3  7  1  0  0  0
  4  6  2  0  0  0
  7  1  2  0  0  0
  6  1  1  0  0  0
  1 18  1  0  0  0
 18 22  1  0  0  0
 23 22  2  0  0  0
 23 25  1  0  0  0
 22 21  1  0  0  0
 25 20  2  0  0  0
 21 24  2  0  0  0
 20 24  1  0  0  0
 20 26  1  0  0  0
 28 26  1  0  0  0
 26 27  2  0  0  0
  5  8  1  0  0  0
  5  9  1  0  0  0
 12 13  1  0  0  0
 18 19  1  0  0  0
 28 29  1  0  0  0
 28 30  1  0  0  0
M  END
> <minimizedAffinity>
-8.22151

$$$$
5N93_8QE_A_901


 30 31  0  0  0  0  0  0  0  0999 V2000
   -0.7528   36.7673   45.4509 C   0  0  0  0  0  0  0  0  0  0  0  0
    0.7835   35.2338   47.1846 C   0  0  0  0  0  0  0  0  0  0  0  0
   -0.1440   34.6282   46.1876 C   0  0  0  0  0  0  0  0  0  0  0  0
    0.8390   36.6948   47.2393 C   0  0  0  0  0  0  0  0  0  0  0  0
    1.7074   37.3946   48.2018 N   0  0  0  0  0  0  0  0  0  0  0  0
    0.0687   37.4110   46.3500 C   0  0  0  0  0  0  0  0  0  0  0  0
   -0.8274   35.4174   45.3748 N   0  0  0  0  0  0  0  0  0  0  0  0
    2.2561   36.8783   48.8355 H   0  0  0  0  0  0  0  0  0  0  0  0
    1.7390   38.3785   48.2114 H   0  0  0  0  0  0  0  0  0  0  0  0
    1.4291   34.5484   48.0309 C   0  0  0  0  0  0  0  0  0  0  0  0
    2.0709   33.9763   48.8205 N   0  0  0  0  0  0  0  0  0  0  0  0
   -0.1903   33.2567   46.1522 N   0  0  0  0  0  0  0  0  0  0  0  0
   -0.0383   32.7512   46.9833 H   0  0  0  0  0  0  0  0  0  0  0  0
   -0.4577   32.5294   44.9214 C   0  0  0  0  0  0  0  0  0  0  0  0
   -1.9268   32.7124   44.5677 C   0  0  0  0  0  0  0  0  0  0  0  0
   -0.1843   31.1004   45.3884 C   0  0  0  0  0  0  0  0  0  0  0  0
    0.4405   32.9102   43.7791 C   0  0  0  0  0  0  0  0  0  0  0  0
   -1.4542   37.6366   44.6222 N   0  0  0  0  0  0  0  0  0  0  0  0
   -1.9544   38.3807   45.0288 H   0  0  0  0  0  0  0  0  0  0  0  0
   -1.3708   37.4151   40.4469 C   0  0  0  0  0  0  0  0  0  0  0  0
   -0.7934   38.4678   42.5100 C   0  0  0  0  0  0  0  0  0  0  0  0
   -1.4741   37.4890   43.2150 C   0  0  0  0  0  0  0  0  0  0  0  0
   -2.0697   36.4454   42.5321 C   0  0  0  0  0  0  0  0  0  0  0  0
   -0.7494   38.4428   41.1280 C   0  0  0  0  0  0  0  0  0  0  0  0
   -2.0338   36.4138   41.1521 C   0  0  0  0  0  0  0  0  0  0  0  0
   -1.2983   37.3689   38.9496 C   0  0  0  0  0  0  0  0  0  0  0  0
   -0.3822   37.8942   38.3412 O   0  0  0  0  0  0  0  0  0  0  0  0
   -2.3168   36.6728   38.2676 N   0  0  0  0  0  0  0  0  0  0  0  0
   -3.0503   36.2538   38.7733 H   0  0  0  0  0  0  0  0  0  0  0  0
   -2.2947   36.6057   37.2857 H   0  0  0  0  0  0  0  0  0  0  0  0
 11 10  3  0  0  0
 10  2  1  0  0  0
 16 14  1  0  0  0
 12 14  1  0  0  0
 12  3  1  0  0  0
  2  3  2  0  0  0
  2  4  1  0  0  0
  5  4  1  0  0  0
 17 14  1  0  0  0
 14 15  1  0  0  0
  3  7  1  0  0  0
  4  6  2  0  0  0
  7  1  2  0  0  0
  6  1  1  0  0  0
  1 18  1  0  0  0
 18 22  1  0  0  0
 23 22  2  0  0  0
 23 25  1  0  0  0
 22 21  1  0  0  0
 25 20  2  0  0  0
 21 24  2  0  0  0
 20 24  1  0  0  0
 20 26  1  0  0  0
 28 26  1  0  0  0
 26 27  2  0  0  0
  5  8  1  0  0  0
  5  9  1  0  0  0
 12 13  1  0  0  0
 18 19  1  0  0  0
 28 29  1  0  0  0
 28 30  1  0  0  0
M  END
> <minimizedAffinity>
-8.13333

$$$$
5N93_8QE_A_901


 30 31  0  0  0  0  0  0  0  0999 V2000
    0.6781   35.7866   45.7776 C   0  0  0  0  0  0  0  0  0  0  0  0
   -0.7925   36.0460   43.4350 C   0  0  0  0  0  0  0  0  0  0  0  0
   -1.0375   34.9525   44.4174 C   0  0  0  0  0  0  0  0  0  0  0  0
    0.2896   36.9828   43.7390 C   0  0  0  0  0  0  0  0  0  0  0  0
    0.6280   38.0874   42.8251 N   0  0  0  0  0  0  0  0  0  0  0  0
    0.9808   36.8206   44.9193 C   0  0  0  0  0  0  0  0  0  0  0  0
   -0.3166   34.9029   45.5258 N   0  0  0  0  0  0  0  0  0  0  0  0
    0.1310   38.1992   41.9826 H   0  0  0  0  0  0  0  0  0  0  0  0
    1.3512   38.7140   43.0568 H   0  0  0  0  0  0  0  0  0  0  0  0
   -1.4030   36.1288   42.3290 C   0  0  0  0  0  0  0  0  0  0  0  0
   -1.9012   36.1835   41.2748 N   0  0  0  0  0  0  0  0  0  0  0  0
   -2.0515   34.0776   44.1158 N   0  0  0  0  0  0  0  0  0  0  0  0
   -2.9818   34.3414   44.3004 H   0  0  0  0  0  0  0  0  0  0  0  0
   -1.7897   32.7718   43.5310 C   0  0  0  0  0  0  0  0  0  0  0  0
   -2.5605   32.6711   42.2223 C   0  0  0  0  0  0  0  0  0  0  0  0
   -2.4091   31.8702   44.5980 C   0  0  0  0  0  0  0  0  0  0  0  0
   -0.3308   32.4683   43.3416 C   0  0  0  0  0  0  0  0  0  0  0  0
    1.4643   35.7720   46.9248 N   0  0  0  0  0  0  0  0  0  0  0  0
    2.2287   35.1531   46.9690 H   0  0  0  0  0  0  0  0  0  0  0  0
    0.8182   38.0939   50.3424 C   0  0  0  0  0  0  0  0  0  0  0  0
    1.6851   36.1586   49.2466 C   0  0  0  0  0  0  0  0  0  0  0  0
    1.2041   36.6155   48.0307 C   0  0  0  0  0  0  0  0  0  0  0  0
    0.5640   37.8387   47.9661 C   0  0  0  0  0  0  0  0  0  0  0  0
    1.4844   36.8862   50.4053 C   0  0  0  0  0  0  0  0  0  0  0  0
    0.3560   38.5707   49.1184 C   0  0  0  0  0  0  0  0  0  0  0  0
    0.6263   38.8995   51.5929 C   0  0  0  0  0  0  0  0  0  0  0  0
    0.8750   38.4357   52.6921 O   0  0  0  0  0  0  0  0  0  0  0  0
    0.1701   40.2258   51.4516 N   0  0  0  0  0  0  0  0  0  0  0  0
   -0.0266   40.5860   50.5568 H   0  0  0  0  0  0  0  0  0  0  0  0
    0.0482   40.7918   52.2478 H   0  0  0  0  0  0  0  0  0  0  0  0
 11 10  3  0  0  0
 10  2  1  0  0  0
 16 14  1  0  0  0
 12 14  1  0  0  0
 12  3  1  0  0  0
  2  3  2  0  0  0
  2  4  1  0  0  0
  5  4  1  0  0  0
 17 14  1  0  0  0
 14 15  1  0  0  0
  3  7  1  0  0  0
  4  6  2  0  0  0
  7  1  2  0  0  0
  6  1  1  0  0  0
  1 18  1  0  0  0
 18 22  1  0  0  0
 23 22  2  0  0  0
 23 25  1  0  0  0
 22 21  1  0  0  0
 25 20  2  0  0  0
 21 24  2  0  0  0
 20 24  1  0  0  0
 20 26  1  0  0  0
 28 26  1  0  0  0
 26 27  2  0  0  0
  5  8  1  0  0  0
  5  9  1  0  0  0
 12 13  1  0  0  0
 18 19  1  0  0  0
 28 29  1  0  0  0
 28 30  1  0  0  0
M  END
> <minimizedAffinity>
-8.00185

$$$$
5N93_8QE_A_901


 30 31  0  0  0  0  0  0  0  0999 V2000
    0.8752   36.4674   46.2089 C   0  0  0  0  0  0  0  0  0  0  0  0
    1.2048   35.2779   48.6976 C   0  0  0  0  0  0  0  0  0  0  0  0
    1.6456   36.6726   48.4119 C   0  0  0  0  0  0  0  0  0  0  0  0
    0.6042   34.5309   47.5922 C   0  0  0  0  0  0  0  0  0  0  0  0
    0.1531   33.1389   47.7620 N   0  0  0  0  0  0  0  0  0  0  0  0
    0.4500   35.1686   46.3812 C   0  0  0  0  0  0  0  0  0  0  0  0
    1.4348   37.1861   47.2109 N   0  0  0  0  0  0  0  0  0  0  0  0
    0.2655   32.6873   48.6296 H   0  0  0  0  0  0  0  0  0  0  0  0
   -0.2609   32.6601   47.0079 H   0  0  0  0  0  0  0  0  0  0  0  0
    1.4197   34.6998   49.8032 C   0  0  0  0  0  0  0  0  0  0  0  0
    1.6731   34.2177   50.8357 N   0  0  0  0  0  0  0  0  0  0  0  0
    2.2131   37.3589   49.4567 N   0  0  0  0  0  0  0  0  0  0  0  0
    3.1472   37.1689   49.7028 H   0  0  0  0  0  0  0  0  0  0  0  0
    1.4729   38.3589   50.2101 C   0  0  0  0  0  0  0  0  0  0  0  0
    0.2569   38.7701   49.3921 C   0  0  0  0  0  0  0  0  0  0  0  0
    2.5063   39.4837   50.2517 C   0  0  0  0  0  0  0  0  0  0  0  0
    1.0890   37.9205   51.5947 C   0  0  0  0  0  0  0  0  0  0  0  0
    0.6379   36.9621   44.9308 N   0  0  0  0  0  0  0  0  0  0  0  0
    1.2215   37.6735   44.5809 H   0  0  0  0  0  0  0  0  0  0  0  0
   -2.3316   35.3163   42.4891 C   0  0  0  0  0  0  0  0  0  0  0  0
   -0.2174   35.2112   43.5922 C   0  0  0  0  0  0  0  0  0  0  0  0
   -0.4129   36.4785   44.1158 C   0  0  0  0  0  0  0  0  0  0  0  0
   -1.5935   37.1491   43.8576 C   0  0  0  0  0  0  0  0  0  0  0  0
   -1.1660   34.6316   42.7696 C   0  0  0  0  0  0  0  0  0  0  0  0
   -2.5450   36.5797   43.0346 C   0  0  0  0  0  0  0  0  0  0  0  0
   -3.3754   34.6771   41.6222 C   0  0  0  0  0  0  0  0  0  0  0  0
   -3.7445   35.1972   40.5837 O   0  0  0  0  0  0  0  0  0  0  0  0
   -3.8995   33.4365   42.0383 N   0  0  0  0  0  0  0  0  0  0  0  0
   -3.5911   33.0292   42.8798 H   0  0  0  0  0  0  0  0  0  0  0  0
   -4.5738   32.9772   41.4873 H   0  0  0  0  0  0  0  0  0  0  0  0
 11 10  3  0  0  0
 10  2  1  0  0  0
 16 14  1  0  0  0
 12 14  1  0  0  0
 12  3  1  0  0  0
  2  3  2  0  0  0
  2  4  1  0  0  0
  5  4  1  0  0  0
 17 14  1  0  0  0
 14 15  1  0  0  0
  3  7  1  0  0  0
  4  6  2  0  0  0
  7  1  2  0  0  0
  6  1  1  0  0  0
  1 18  1  0  0  0
 18 22  1  0  0  0
 23 22  2  0  0  0
 23 25  1  0  0  0
 22 21  1  0  0  0
 25 20  2  0  0  0
 21 24  2  0  0  0
 20 24  1  0  0  0
 20 26  1  0  0  0
 28 26  1  0  0  0
 26 27  2  0  0  0
  5  8  1  0  0  0
  5  9  1  0  0  0
 12 13  1  0  0  0
 18 19  1  0  0  0
 28 29  1  0  0  0
 28 30  1  0  0  0
M  END
> <minimizedAffinity>
-7.47788

$$$$
