4AI5_ADK_A_400


 13 14  0  0  0  0  0  0  0  0999 V2000
   28.9018  -23.2710    1.9264 N   0  0  0  0  0  0  0  0  0  0  0  0
   28.8691  -21.9686    2.0265 C   0  0  0  0  0  0  0  0  0  0  0  0
   29.8395  -21.1530    2.2819 N   0  0  0  0  0  0  0  0  0  0  0  0
   29.5788  -19.7917    2.3155 C   0  0  0  0  0  0  0  0  0  0  0  0
   28.3496  -19.3412    2.1418 N   0  0  0  0  0  0  0  0  0  0  0  0
   27.2974  -20.2058    1.9004 C   0  0  0  0  0  0  0  0  0  0  0  0
   26.0331  -19.7459    1.6798 N   0  0  0  0  0  0  0  0  0  0  0  0
   27.5949  -21.5261    1.8508 C   0  0  0  0  0  0  0  0  0  0  0  0
   26.8768  -22.5960    1.6268 N   0  0  0  0  0  0  0  0  0  0  0  0
   27.6447  -23.6907    1.7040 C   0  0  0  0  0  0  0  0  0  0  0  0
   31.2629  -21.6796    2.5055 C   0  0  0  0  0  0  0  0  0  0  0  0
   25.8461  -18.7803    1.7223 H   0  0  0  0  0  0  0  0  0  0  0  0
   25.3071  -20.3795    1.4779 H   0  0  0  0  0  0  0  0  0  0  0  0
  1  2  2  0  0  0
  1 10  1  0  0  0
  2  3  1  0  0  0
  2  8  1  0  0  0
  3  4  1  0  0  0
  3 11  1  0  0  0
  4  5  2  0  0  0
  5  6  1  0  0  0
  6  7  1  0  0  0
  6  8  2  0  0  0
  8  9  1  0  0  0
  9 10  2  0  0  0
  7 12  1  0  0  0
  7 13  1  0  0  0
M  END
> <minimizedAffinity>
-5.88106

$$$$
4AI5_ADK_A_400


 13 14  0  0  0  0  0  0  0  0999 V2000
   27.4094  -19.6668    1.8696 N   0  0  0  0  0  0  0  0  0  0  0  0
   28.1945  -20.7104    1.9149 C   0  0  0  0  0  0  0  0  0  0  0  0
   29.4795  -20.7496    2.0536 N   0  0  0  0  0  0  0  0  0  0  0  0
   30.1104  -21.9833    2.1012 C   0  0  0  0  0  0  0  0  0  0  0  0
   29.4155  -23.0966    1.9543 N   0  0  0  0  0  0  0  0  0  0  0  0
   28.0448  -23.0664    1.7725 C   0  0  0  0  0  0  0  0  0  0  0  0
   27.3151  -24.2126    1.6607 N   0  0  0  0  0  0  0  0  0  0  0  0
   27.4607  -21.8446    1.7555 C   0  0  0  0  0  0  0  0  0  0  0  0
   26.2203  -21.4488    1.6324 N   0  0  0  0  0  0  0  0  0  0  0  0
   26.1586  -20.1112    1.6604 C   0  0  0  0  0  0  0  0  0  0  0  0
   30.2882  -19.4545    2.2019 C   0  0  0  0  0  0  0  0  0  0  0  0
   27.7668  -25.0872    1.6761 H   0  0  0  0  0  0  0  0  0  0  0  0
   26.3364  -24.1657    1.5645 H   0  0  0  0  0  0  0  0  0  0  0  0
  1  2  2  0  0  0
  1 10  1  0  0  0
  2  3  1  0  0  0
  2  8  1  0  0  0
  3  4  1  0  0  0
  3 11  1  0  0  0
  4  5  2  0  0  0
  5  6  1  0  0  0
  6  7  1  0  0  0
  6  8  2  0  0  0
  8  9  1  0  0  0
  9 10  2  0  0  0
  7 12  1  0  0  0
  7 13  1  0  0  0
M  END
> <minimizedAffinity>
-5.87400

$$$$
4AI5_ADK_A_400


 13 14  0  0  0  0  0  0  0  0999 V2000
   28.8149  -19.2651    2.2928 N   0  0  0  0  0  0  0  0  0  0  0  0
   28.6444  -20.5464    2.1010 C   0  0  0  0  0  0  0  0  0  0  0  0
   27.5596  -21.1806    1.7962 N   0  0  0  0  0  0  0  0  0  0  0  0
   27.6157  -22.5538    1.6136 C   0  0  0  0  0  0  0  0  0  0  0  0
   28.7476  -23.2082    1.7999 N   0  0  0  0  0  0  0  0  0  0  0  0
   29.9073  -22.5452    2.1580 C   0  0  0  0  0  0  0  0  0  0  0  0
   31.0887  -23.2081    2.3126 N   0  0  0  0  0  0  0  0  0  0  0  0
   29.8192  -21.2017    2.3037 C   0  0  0  0  0  0  0  0  0  0  0  0
   30.6933  -20.2760    2.6029 N   0  0  0  0  0  0  0  0  0  0  0  0
   30.0989  -19.0763    2.6418 C   0  0  0  0  0  0  0  0  0  0  0  0
   26.2406  -20.4219    1.6019 C   0  0  0  0  0  0  0  0  0  0  0  0
   31.1229  -24.1856    2.2007 H   0  0  0  0  0  0  0  0  0  0  0  0
   31.9075  -22.7092    2.5361 H   0  0  0  0  0  0  0  0  0  0  0  0
  1  2  2  0  0  0
  1 10  1  0  0  0
  2  3  1  0  0  0
  2  8  1  0  0  0
  3  4  1  0  0  0
  3 11  1  0  0  0
  4  5  2  0  0  0
  5  6  1  0  0  0
  6  7  1  0  0  0
  6  8  2  0  0  0
  8  9  1  0  0  0
  9 10  2  0  0  0
  7 12  1  0  0  0
  7 13  1  0  0  0
M  END
> <minimizedAffinity>
-5.52447

$$$$
4AI5_ADK_A_400


 13 14  0  0  0  0  0  0  0  0999 V2000
   30.5986  -21.4753   -0.0646 N   0  0  0  0  0  0  0  0  0  0  0  0
   29.9622  -20.7680    0.8310 C   0  0  0  0  0  0  0  0  0  0  0  0
   30.4086  -20.2801    1.9422 N   0  0  0  0  0  0  0  0  0  0  0  0
   29.5538  -19.5304    2.7356 C   0  0  0  0  0  0  0  0  0  0  0  0
   28.2912  -19.3629    2.3867 N   0  0  0  0  0  0  0  0  0  0  0  0
   27.7933  -19.9073    1.2169 C   0  0  0  0  0  0  0  0  0  0  0  0
   26.5018  -19.7050    0.8296 N   0  0  0  0  0  0  0  0  0  0  0  0
   28.6638  -20.6127    0.4561 C   0  0  0  0  0  0  0  0  0  0  0  0
   28.5509  -21.2300   -0.6914 N   0  0  0  0  0  0  0  0  0  0  0  0
   29.7150  -21.8042   -1.0221 C   0  0  0  0  0  0  0  0  0  0  0  0
   31.8698  -20.4942    2.3570 C   0  0  0  0  0  0  0  0  0  0  0  0
   25.8912  -19.1879    1.4031 H   0  0  0  0  0  0  0  0  0  0  0  0
   26.1800  -20.0758   -0.0237 H   0  0  0  0  0  0  0  0  0  0  0  0
  1  2  2  0  0  0
  1 10  1  0  0  0
  2  3  1  0  0  0
  2  8  1  0  0  0
  3  4  1  0  0  0
  3 11  1  0  0  0
  4  5  2  0  0  0
  5  6  1  0  0  0
  6  7  1  0  0  0
  6  8  2  0  0  0
  8  9  1  0  0  0
  9 10  2  0  0  0
  7 12  1  0  0  0
  7 13  1  0  0  0
M  END
> <minimizedAffinity>
-5.38745

$$$$
4AI5_ADK_A_400


 13 14  0  0  0  0  0  0  0  0999 V2000
   30.2756  -22.9388    2.1233 N   0  0  0  0  0  0  0  0  0  0  0  0
   29.4364  -21.9393    2.0590 C   0  0  0  0  0  0  0  0  0  0  0  0
   28.1566  -21.9689    1.8765 N   0  0  0  0  0  0  0  0  0  0  0  0
   27.4535  -20.7740    1.8688 C   0  0  0  0  0  0  0  0  0  0  0  0
   28.0887  -19.6229    1.9931 N   0  0  0  0  0  0  0  0  0  0  0  0
   29.4612  -19.5763    2.1562 C   0  0  0  0  0  0  0  0  0  0  0  0
   30.1193  -18.3943    2.3259 N   0  0  0  0  0  0  0  0  0  0  0  0
   30.1108  -20.7644    2.1828 C   0  0  0  0  0  0  0  0  0  0  0  0
   31.3671  -21.0926    2.3395 N   0  0  0  0  0  0  0  0  0  0  0  0
   31.5078  -22.4228    2.2698 C   0  0  0  0  0  0  0  0  0  0  0  0
   27.4231  -23.3058    1.7099 C   0  0  0  0  0  0  0  0  0  0  0  0
   29.6210  -17.5456    2.3016 H   0  0  0  0  0  0  0  0  0  0  0  0
   31.0928  -18.3896    2.4726 H   0  0  0  0  0  0  0  0  0  0  0  0
  1  2  2  0  0  0
  1 10  1  0  0  0
  2  3  1  0  0  0
  2  8  1  0  0  0
  3  4  1  0  0  0
  3 11  1  0  0  0
  4  5  2  0  0  0
  5  6  1  0  0  0
  6  7  1  0  0  0
  6  8  2  0  0  0
  8  9  1  0  0  0
  9 10  2  0  0  0
  7 12  1  0  0  0
  7 13  1  0  0  0
M  END
> <minimizedAffinity>
-5.38122

$$$$
4AI5_ADK_A_400


 13 14  0  0  0  0  0  0  0  0999 V2000
   30.7549  -20.0548    2.2436 N   0  0  0  0  0  0  0  0  0  0  0  0
   29.9862  -20.4436    1.2610 C   0  0  0  0  0  0  0  0  0  0  0  0
   30.2897  -21.1734    0.2376 N   0  0  0  0  0  0  0  0  0  0  0  0
   29.2977  -21.4872   -0.6788 C   0  0  0  0  0  0  0  0  0  0  0  0
   28.0769  -21.0044   -0.5352 N   0  0  0  0  0  0  0  0  0  0  0  0
   27.7482  -20.1959    0.5376 C   0  0  0  0  0  0  0  0  0  0  0  0
   26.4803  -19.7269    0.7146 N   0  0  0  0  0  0  0  0  0  0  0  0
   28.7368  -19.9311    1.4245 C   0  0  0  0  0  0  0  0  0  0  0  0
   28.7793  -19.2439    2.5365 N   0  0  0  0  0  0  0  0  0  0  0  0
   30.0177  -19.2686    3.0462 C   0  0  0  0  0  0  0  0  0  0  0  0
   31.7139  -21.7152    0.0605 C   0  0  0  0  0  0  0  0  0  0  0  0
   25.7815  -19.9354    0.0532 H   0  0  0  0  0  0  0  0  0  0  0  0
   26.2635  -19.1798    1.5039 H   0  0  0  0  0  0  0  0  0  0  0  0
  1  2  2  0  0  0
  1 10  1  0  0  0
  2  3  1  0  0  0
  2  8  1  0  0  0
  3  4  1  0  0  0
  3 11  1  0  0  0
  4  5  2  0  0  0
  5  6  1  0  0  0
  6  7  1  0  0  0
  6  8  2  0  0  0
  8  9  1  0  0  0
  9 10  2  0  0  0
  7 12  1  0  0  0
  7 13  1  0  0  0
M  END
> <minimizedAffinity>
-5.34723

$$$$
4AI5_ADK_A_400


 13 14  0  0  0  0  0  0  0  0999 V2000
   29.5652  -23.1381    1.9713 N   0  0  0  0  0  0  0  0  0  0  0  0
   29.8956  -22.1734    1.1541 C   0  0  0  0  0  0  0  0  0  0  0  0
   31.0548  -21.6304    0.9716 N   0  0  0  0  0  0  0  0  0  0  0  0
   31.1824  -20.6272    0.0231 C   0  0  0  0  0  0  0  0  0  0  0  0
   30.1263  -20.1985   -0.6439 N   0  0  0  0  0  0  0  0  0  0  0  0
   28.8750  -20.7489   -0.4341 C   0  0  0  0  0  0  0  0  0  0  0  0
   27.7876  -20.3399   -1.1476 N   0  0  0  0  0  0  0  0  0  0  0  0
   28.7940  -21.7427    0.4824 C   0  0  0  0  0  0  0  0  0  0  0  0
   27.8066  -22.4870    0.9084 N   0  0  0  0  0  0  0  0  0  0  0  0
   28.2405  -23.3312    1.8534 C   0  0  0  0  0  0  0  0  0  0  0  0
   32.2765  -22.1143    1.7632 C   0  0  0  0  0  0  0  0  0  0  0  0
   27.8762  -19.6147   -1.8076 H   0  0  0  0  0  0  0  0  0  0  0  0
   26.9138  -20.7697   -1.0029 H   0  0  0  0  0  0  0  0  0  0  0  0
  1  2  2  0  0  0
  1 10  1  0  0  0
  2  3  1  0  0  0
  2  8  1  0  0  0
  3  4  1  0  0  0
  3 11  1  0  0  0
  4  5  2  0  0  0
  5  6  1  0  0  0
  6  7  1  0  0  0
  6  8  2  0  0  0
  8  9  1  0  0  0
  9 10  2  0  0  0
  7 12  1  0  0  0
  7 13  1  0  0  0
M  END
> <minimizedAffinity>
-4.99899

$$$$
4AI5_ADK_A_400


 13 14  0  0  0  0  0  0  0  0999 V2000
   28.1740  -21.6852    0.5028 N   0  0  0  0  0  0  0  0  0  0  0  0
   29.2159  -20.9226    0.7036 C   0  0  0  0  0  0  0  0  0  0  0  0
   30.3213  -20.8719    0.0347 N   0  0  0  0  0  0  0  0  0  0  0  0
   31.2923  -19.9579    0.4143 C   0  0  0  0  0  0  0  0  0  0  0  0
   31.1112  -19.1899    1.4732 N   0  0  0  0  0  0  0  0  0  0  0  0
   29.9468  -19.2579    2.2164 C   0  0  0  0  0  0  0  0  0  0  0  0
   29.7353  -18.4401    3.2866 N   0  0  0  0  0  0  0  0  0  0  0  0
   29.0116  -20.1452    1.8011 C   0  0  0  0  0  0  0  0  0  0  0  0
   27.8169  -20.4530    2.2350 N   0  0  0  0  0  0  0  0  0  0  0  0
   27.2889  -21.4252    1.4800 C   0  0  0  0  0  0  0  0  0  0  0  0
   30.5394  -21.7803   -1.1820 C   0  0  0  0  0  0  0  0  0  0  0  0
   30.4334  -17.8046    3.5660 H   0  0  0  0  0  0  0  0  0  0  0  0
   28.8846  -18.4851    3.7799 H   0  0  0  0  0  0  0  0  0  0  0  0
  1  2  2  0  0  0
  1 10  1  0  0  0
  2  3  1  0  0  0
  2  8  1  0  0  0
  3  4  1  0  0  0
  3 11  1  0  0  0
  4  5  2  0  0  0
  5  6  1  0  0  0
  6  7  1  0  0  0
  6  8  2  0  0  0
  8  9  1  0  0  0
  9 10  2  0  0  0
  7 12  1  0  0  0
  7 13  1  0  0  0
M  END
> <minimizedAffinity>
-4.99480

$$$$
4AI5_ADK_A_400


 13 14  0  0  0  0  0  0  0  0999 V2000
   32.0176  -22.0496    1.2356 N   0  0  0  0  0  0  0  0  0  0  0  0
   30.7913  -21.8751    0.8195 C   0  0  0  0  0  0  0  0  0  0  0  0
   30.3526  -21.0604   -0.0837 N   0  0  0  0  0  0  0  0  0  0  0  0
   28.9995  -21.0617   -0.3861 C   0  0  0  0  0  0  0  0  0  0  0  0
   28.1666  -21.8448    0.2750 N   0  0  0  0  0  0  0  0  0  0  0  0
   28.6190  -22.6970    1.2659 C   0  0  0  0  0  0  0  0  0  0  0  0
   27.7717  -23.5376    1.9248 N   0  0  0  0  0  0  0  0  0  0  0  0
   29.9499  -22.6853    1.5166 C   0  0  0  0  0  0  0  0  0  0  0  0
   30.7094  -23.3564    2.3433 N   0  0  0  0  0  0  0  0  0  0  0  0
   31.9835  -22.9615    2.2221 C   0  0  0  0  0  0  0  0  0  0  0  0
   31.3182  -20.1354   -0.8354 C   0  0  0  0  0  0  0  0  0  0  0  0
   26.8084  -23.5241    1.7219 H   0  0  0  0  0  0  0  0  0  0  0  0
   28.1231  -24.1581    2.6036 H   0  0  0  0  0  0  0  0  0  0  0  0
  1  2  2  0  0  0
  1 10  1  0  0  0
  2  3  1  0  0  0
  2  8  1  0  0  0
  3  4  1  0  0  0
  3 11  1  0  0  0
  4  5  2  0  0  0
  5  6  1  0  0  0
  6  7  1  0  0  0
  6  8  2  0  0  0
  8  9  1  0  0  0
  9 10  2  0  0  0
  7 12  1  0  0  0
  7 13  1  0  0  0
M  END
> <minimizedAffinity>
-4.92664

$$$$
4AI5_ADK_A_400


 13 14  0  0  0  0  0  0  0  0999 V2000
   28.8235  -19.3500    2.7494 N   0  0  0  0  0  0  0  0  0  0  0  0
   28.8718  -19.8487    1.5426 C   0  0  0  0  0  0  0  0  0  0  0  0
   27.8999  -20.2797    0.8067 N   0  0  0  0  0  0  0  0  0  0  0  0
   28.1815  -20.7481   -0.4675 C   0  0  0  0  0  0  0  0  0  0  0  0
   29.4280  -20.8017   -0.9006 N   0  0  0  0  0  0  0  0  0  0  0  0
   30.4795  -20.3742   -0.1105 C   0  0  0  0  0  0  0  0  0  0  0  0
   31.7647  -20.3884   -0.5655 N   0  0  0  0  0  0  0  0  0  0  0  0
   30.1632  -19.9008    1.1183 C   0  0  0  0  0  0  0  0  0  0  0  0
   30.8768  -19.4049    2.0958 N   0  0  0  0  0  0  0  0  0  0  0  0
   30.0860  -19.0909    3.1302 C   0  0  0  0  0  0  0  0  0  0  0  0
   26.4548  -20.2374    1.3197 C   0  0  0  0  0  0  0  0  0  0  0  0
   31.9651  -20.7386   -1.4635 H   0  0  0  0  0  0  0  0  0  0  0  0
   32.4923  -20.0485    0.0040 H   0  0  0  0  0  0  0  0  0  0  0  0
  1  2  2  0  0  0
  1 10  1  0  0  0
  2  3  1  0  0  0
  2  8  1  0  0  0
  3  4  1  0  0  0
  3 11  1  0  0  0
  4  5  2  0  0  0
  5  6  1  0  0  0
  6  7  1  0  0  0
  6  8  2  0  0  0
  8  9  1  0  0  0
  9 10  2  0  0  0
  7 12  1  0  0  0
  7 13  1  0  0  0
M  END
> <minimizedAffinity>
-4.89095

$$$$
