3MOF_OXL_A_1000


  6  5  0  0  0  0  0  0  0  0999 V2000
    9.7429    3.9404   44.7676 C   0  0  0  0  0  0  0  0  0  0  0  0
    9.2432    4.1496   43.6266 O   0  0  0  0  0  0  0  0  0  0  0  0
   10.3996    4.8150   45.3907 O   0  0  0  0  0  0  0  0  0  0  0  0
    9.5726    2.6358   45.4343 C   0  0  0  0  0  0  0  0  0  0  0  0
    9.6037    2.5860   46.7075 O   0  0  0  0  0  0  0  0  0  0  0  0
    9.3927    1.6202   44.7072 O   0  0  0  0  0  0  0  0  0  0  0  0
  1  4  1  0  0  0
  1  2  2  0  0  0
  1  3  1  0  0  0
  4  5  2  0  0  0
  4  6  1  0  0  0
M  CHG 1   3  -1
M  CHG 1   6  -1
M  END
> <minimizedAffinity>
-4.50766

$$$$
3MOF_OXL_A_1000


  6  5  0  0  0  0  0  0  0  0999 V2000
    9.5595    2.6377   45.4502 C   0  0  0  0  0  0  0  0  0  0  0  0
    9.5623    2.5499   46.7102 O   0  0  0  0  0  0  0  0  0  0  0  0
    9.3930    1.6396   44.7015 O   0  0  0  0  0  0  0  0  0  0  0  0
    9.7527    3.9414   44.7879 C   0  0  0  0  0  0  0  0  0  0  0  0
    9.2394    4.1293   43.6365 O   0  0  0  0  0  0  0  0  0  0  0  0
   10.4155    4.8228   45.4014 O   0  0  0  0  0  0  0  0  0  0  0  0
  1  4  1  0  0  0
  1  2  2  0  0  0
  1  3  1  0  0  0
  4  5  2  0  0  0
  4  6  1  0  0  0
M  CHG 1   3  -1
M  CHG 1   6  -1
M  END
> <minimizedAffinity>
-4.50401

$$$$
3MOF_OXL_A_1000


  6  5  0  0  0  0  0  0  0  0999 V2000
    9.5552    2.6358   45.4504 C   0  0  0  0  0  0  0  0  0  0  0  0
    9.5528    2.5415   46.7100 O   0  0  0  0  0  0  0  0  0  0  0  0
    9.3931    1.6413   44.6959 O   0  0  0  0  0  0  0  0  0  0  0  0
    9.7493    3.9430   44.7956 C   0  0  0  0  0  0  0  0  0  0  0  0
   10.4239    4.8402   45.3993 O   0  0  0  0  0  0  0  0  0  0  0  0
    9.2418    4.1120   43.6525 O   0  0  0  0  0  0  0  0  0  0  0  0
  1  4  1  0  0  0
  1  2  2  0  0  0
  1  3  1  0  0  0
  4  5  2  0  0  0
  4  6  1  0  0  0
M  CHG 1   3  -1
M  CHG 1   6  -1
M  END
> <minimizedAffinity>
-4.49168

$$$$
3MOF_OXL_A_1000


  6  5  0  0  0  0  0  0  0  0999 V2000
    7.0029    1.1012   50.6757 C   0  0  0  0  0  0  0  0  0  0  0  0
    7.0537    1.8504   51.6912 O   0  0  0  0  0  0  0  0  0  0  0  0
    6.4044   -0.0062   50.6795 O   0  0  0  0  0  0  0  0  0  0  0  0
    7.6541    1.5010   49.4141 C   0  0  0  0  0  0  0  0  0  0  0  0
    8.5659    0.7547   48.9281 O   0  0  0  0  0  0  0  0  0  0  0  0
    7.2687    2.5691   48.8634 O   0  0  0  0  0  0  0  0  0  0  0  0
  1  4  1  0  0  0
  1  2  2  0  0  0
  1  3  1  0  0  0
  4  5  2  0  0  0
  4  6  1  0  0  0
M  CHG 1   3  -1
M  CHG 1   6  -1
M  END
> <minimizedAffinity>
-4.40343

$$$$
3MOF_OXL_A_1000


  6  5  0  0  0  0  0  0  0  0999 V2000
    7.6855    1.4927   49.4405 C   0  0  0  0  0  0  0  0  0  0  0  0
    7.3540    2.5723   48.8748 O   0  0  0  0  0  0  0  0  0  0  0  0
    8.5828    0.7364   48.9850 O   0  0  0  0  0  0  0  0  0  0  0  0
    7.0235    1.0639   50.6869 C   0  0  0  0  0  0  0  0  0  0  0  0
    6.4133   -0.0549   50.7067 O   0  0  0  0  0  0  0  0  0  0  0  0
    7.1002    1.8272   51.6889 O   0  0  0  0  0  0  0  0  0  0  0  0
  1  4  1  0  0  0
  1  2  2  0  0  0
  1  3  1  0  0  0
  4  5  2  0  0  0
  4  6  1  0  0  0
M  CHG 1   3  -1
M  CHG 1   6  -1
M  END
> <minimizedAffinity>
-4.39150

$$$$
3MOF_OXL_A_1000


  6  5  0  0  0  0  0  0  0  0999 V2000
   10.1884    3.2713   46.2184 C   0  0  0  0  0  0  0  0  0  0  0  0
   10.5105    4.3805   45.7071 O   0  0  0  0  0  0  0  0  0  0  0  0
   10.5115    2.9459   47.3906 O   0  0  0  0  0  0  0  0  0  0  0  0
    9.4009    2.2901   45.4486 C   0  0  0  0  0  0  0  0  0  0  0  0
    9.5863    1.0474   45.6629 O   0  0  0  0  0  0  0  0  0  0  0  0
    8.5649    2.7299   44.6118 O   0  0  0  0  0  0  0  0  0  0  0  0
  1  4  1  0  0  0
  1  2  2  0  0  0
  1  3  1  0  0  0
  4  5  2  0  0  0
  4  6  1  0  0  0
M  CHG 1   3  -1
M  CHG 1   6  -1
M  END
> <minimizedAffinity>
-4.33764

$$$$
3MOF_OXL_A_1000


  6  5  0  0  0  0  0  0  0  0999 V2000
    7.2465    0.9769   50.7157 C   0  0  0  0  0  0  0  0  0  0  0  0
    6.2905    0.1724   50.5307 O   0  0  0  0  0  0  0  0  0  0  0  0
    8.1938    0.7332   51.5079 O   0  0  0  0  0  0  0  0  0  0  0  0
    7.2965    2.2624   49.9942 C   0  0  0  0  0  0  0  0  0  0  0  0
    7.6520    3.3102   50.6267 O   0  0  0  0  0  0  0  0  0  0  0  0
    6.9912    2.2644   48.7697 O   0  0  0  0  0  0  0  0  0  0  0  0
  1  4  1  0  0  0
  1  2  2  0  0  0
  1  3  1  0  0  0
  4  5  2  0  0  0
  4  6  1  0  0  0
M  CHG 1   3  -1
M  CHG 1   6  -1
M  END
> <minimizedAffinity>
-4.33201

$$$$
3MOF_OXL_A_1000


  6  5  0  0  0  0  0  0  0  0999 V2000
   10.2651    3.3139   46.2356 C   0  0  0  0  0  0  0  0  0  0  0  0
   11.2645    4.0854   46.2001 O   0  0  0  0  0  0  0  0  0  0  0  0
    9.8461    2.7959   47.3036 O   0  0  0  0  0  0  0  0  0  0  0  0
    9.5287    2.9816   45.0015 C   0  0  0  0  0  0  0  0  0  0  0  0
    9.1157    3.9298   44.2565 O   0  0  0  0  0  0  0  0  0  0  0  0
    9.3475    1.7621   44.7322 O   0  0  0  0  0  0  0  0  0  0  0  0
  1  4  1  0  0  0
  1  2  2  0  0  0
  1  3  1  0  0  0
  4  5  2  0  0  0
  4  6  1  0  0  0
M  CHG 1   3  -1
M  CHG 1   6  -1
M  END
> <minimizedAffinity>
-4.31385

$$$$
3MOF_OXL_A_1000


  6  5  0  0  0  0  0  0  0  0999 V2000
    9.3145    2.2829   45.3928 C   0  0  0  0  0  0  0  0  0  0  0  0
    8.3741    2.5772   44.6026 O   0  0  0  0  0  0  0  0  0  0  0  0
    9.6153    1.0937   45.6755 O   0  0  0  0  0  0  0  0  0  0  0  0
   10.1195    3.3421   46.0296 C   0  0  0  0  0  0  0  0  0  0  0  0
   10.6498    3.1136   47.1659 O   0  0  0  0  0  0  0  0  0  0  0  0
   10.2554    4.4333   45.4104 O   0  0  0  0  0  0  0  0  0  0  0  0
  1  4  1  0  0  0
  1  2  2  0  0  0
  1  3  1  0  0  0
  4  5  2  0  0  0
  4  6  1  0  0  0
M  CHG 1   3  -1
M  CHG 1   6  -1
M  END
> <minimizedAffinity>
-4.28465

$$$$
3MOF_OXL_A_1000


  6  5  0  0  0  0  0  0  0  0999 V2000
    9.1544    2.5027   48.8352 C   0  0  0  0  0  0  0  0  0  0  0  0
    9.7825    2.8372   49.8788 O   0  0  0  0  0  0  0  0  0  0  0  0
    9.6366    2.6400   47.6806 O   0  0  0  0  0  0  0  0  0  0  0  0
    7.8016    1.9222   48.9266 C   0  0  0  0  0  0  0  0  0  0  0  0
    6.8108    2.5984   48.4957 O   0  0  0  0  0  0  0  0  0  0  0  0
    7.6868    0.7678   49.4233 O   0  0  0  0  0  0  0  0  0  0  0  0
  1  4  1  0  0  0
  1  2  2  0  0  0
  1  3  1  0  0  0
  4  5  2  0  0  0
  4  6  1  0  0  0
M  CHG 1   3  -1
M  CHG 1   6  -1
M  END
> <minimizedAffinity>
-4.19818

$$$$
