4AZI_OAN_A_2038


 30 31  0  0  0  0  0  0  0  0999 V2000
  -23.4521   36.5979   -9.7901 C   0  0  0  0  0  0  0  0  0  0  0  0
  -24.2975   36.7851  -11.0512 C   0  0  0  0  0  0  0  0  0  0  0  0
  -24.8909   38.0899  -11.0346 O   0  0  0  0  0  0  0  0  0  0  0  0
  -23.4570   36.6184  -12.3088 C   0  0  0  0  0  0  0  0  0  0  0  0
  -24.3100   36.8338  -13.4243 O   0  0  0  0  0  0  0  0  0  0  0  0
  -22.8940   35.1897  -12.3577 C   0  0  0  0  0  0  0  0  0  0  0  0
  -22.1700   34.8284  -11.1510 O   0  0  0  0  0  0  0  0  0  0  0  0
  -22.3026   35.5949  -10.0254 C   0  0  0  0  0  0  0  0  0  0  0  0
  -21.3869   35.4382   -9.0934 N   0  0  0  0  0  0  0  0  0  0  0  0
  -24.1923   38.7627  -11.0250 H   0  0  0  0  0  0  0  0  0  0  0  0
  -25.0419   36.1978  -13.3993 H   0  0  0  0  0  0  0  0  0  0  0  0
  -25.9205   34.9088   -7.3667 C   0  0  0  0  0  0  0  0  0  0  0  0
  -25.0893   35.1066   -8.6431 C   0  0  0  0  0  0  0  0  0  0  0  0
  -25.1488   34.2879   -9.5492 O   0  0  0  0  0  0  0  0  0  0  0  0
  -24.3223   36.1987   -8.6638 N   0  0  0  0  0  0  0  0  0  0  0  0
  -24.3372   36.7813   -7.8704 H   0  0  0  0  0  0  0  0  0  0  0  0
  -21.9828   34.8998  -13.5545 C   0  0  0  0  0  0  0  0  0  0  0  0
  -20.7471   35.6095  -13.4234 O   0  0  0  0  0  0  0  0  0  0  0  0
  -20.9235   36.5628  -13.3911 H   0  0  0  0  0  0  0  0  0  0  0  0
  -20.3990   34.5394   -9.3697 O   0  0  0  0  0  0  0  0  0  0  0  0
  -19.2420   34.7401   -8.6716 C   0  0  0  0  0  0  0  0  0  0  0  0
  -18.3243   33.9229   -8.7643 O   0  0  0  0  0  0  0  0  0  0  0  0
  -19.1775   35.8472   -7.9158 N   0  0  0  0  0  0  0  0  0  0  0  0
  -19.9511   36.4555   -7.9407 H   0  0  0  0  0  0  0  0  0  0  0  0
  -18.1475   36.1951   -7.1290 C   0  0  0  0  0  0  0  0  0  0  0  0
  -18.2481   35.9270   -5.7638 C   0  0  0  0  0  0  0  0  0  0  0  0
  -17.2109   36.2701   -4.8967 C   0  0  0  0  0  0  0  0  0  0  0  0
  -16.0621   36.8828   -5.3938 C   0  0  0  0  0  0  0  0  0  0  0  0
  -15.9526   37.1584   -6.7638 C   0  0  0  0  0  0  0  0  0  0  0  0
  -16.9939   36.8183   -7.6322 C   0  0  0  0  0  0  0  0  0  0  0  0
 12 13  1  0  0  0
 13 14  2  0  0  0
 13 15  1  0  0  0
 15  1  1  0  0  0
  1  2  1  0  0  0
  1  8  1  0  0  0
  2  3  1  0  0  0
  2  4  1  0  0  0
  4  5  1  0  0  0
  4  6  1  0  0  0
  6 17  1  0  0  0
  6  7  1  0  0  0
 17 18  1  0  0  0
  7  8  1  0  0  0
  8  9  2  0  0  0
  9 20  1  0  0  0
 20 21  1  0  0  0
 21 22  2  0  0  0
 21 23  1  0  0  0
 23 25  1  0  0  0
 25 26  2  0  0  0
 25 30  1  0  0  0
 26 27  1  0  0  0
 27 28  2  0  0  0
 28 29  1  0  0  0
 29 30  2  0  0  0
 15 16  1  0  0  0
  3 10  1  0  0  0
  5 11  1  0  0  0
 18 19  1  0  0  0
 23 24  1  0  0  0
M  END
> <minimizedAffinity>
-9.73504

$$$$
4AZI_OAN_A_2038


 30 31  0  0  0  0  0  0  0  0999 V2000
  -23.4939   36.5976   -9.7560 C   0  0  0  0  0  0  0  0  0  0  0  0
  -24.3236   36.8222  -11.0214 C   0  0  0  0  0  0  0  0  0  0  0  0
  -24.8819   38.1421  -10.9939 O   0  0  0  0  0  0  0  0  0  0  0  0
  -23.4774   36.6477  -12.2742 C   0  0  0  0  0  0  0  0  0  0  0  0
  -24.3152   36.8990  -13.3938 O   0  0  0  0  0  0  0  0  0  0  0  0
  -22.9525   35.2050  -12.3356 C   0  0  0  0  0  0  0  0  0  0  0  0
  -22.2483   34.8103  -11.1276 O   0  0  0  0  0  0  0  0  0  0  0  0
  -22.3697   35.5669   -9.9941 C   0  0  0  0  0  0  0  0  0  0  0  0
  -21.4661   35.3748   -9.0569 N   0  0  0  0  0  0  0  0  0  0  0  0
  -24.1656   38.7958  -10.9709 H   0  0  0  0  0  0  0  0  0  0  0  0
  -25.0640   36.2825  -13.3821 H   0  0  0  0  0  0  0  0  0  0  0  0
  -25.9802   34.9141   -7.3471 C   0  0  0  0  0  0  0  0  0  0  0  0
  -25.1195   35.0959   -8.6063 C   0  0  0  0  0  0  0  0  0  0  0  0
  -25.1301   34.2476   -9.4866 O   0  0  0  0  0  0  0  0  0  0  0  0
  -24.3836   36.2087   -8.6415 N   0  0  0  0  0  0  0  0  0  0  0  0
  -24.4374   36.8155   -7.8680 H   0  0  0  0  0  0  0  0  0  0  0  0
  -22.0396   34.9048  -13.5286 C   0  0  0  0  0  0  0  0  0  0  0  0
  -20.7855   35.5775  -13.3781 O   0  0  0  0  0  0  0  0  0  0  0  0
  -20.9353   36.5349  -13.3348 H   0  0  0  0  0  0  0  0  0  0  0  0
  -20.5004   34.4531   -9.3360 O   0  0  0  0  0  0  0  0  0  0  0  0
  -19.2337   34.8460   -9.0084 C   0  0  0  0  0  0  0  0  0  0  0  0
  -19.0623   35.8987   -8.3910 O   0  0  0  0  0  0  0  0  0  0  0  0
  -18.2336   34.0343   -9.3850 N   0  0  0  0  0  0  0  0  0  0  0  0
  -18.4801   33.1970   -9.8406 H   0  0  0  0  0  0  0  0  0  0  0  0
  -16.9261   34.2674   -9.1932 C   0  0  0  0  0  0  0  0  0  0  0  0
  -16.3269   33.7318   -8.0531 C   0  0  0  0  0  0  0  0  0  0  0  0
  -14.9721   33.9447   -7.7988 C   0  0  0  0  0  0  0  0  0  0  0  0
  -14.2065   34.6951   -8.6893 C   0  0  0  0  0  0  0  0  0  0  0  0
  -14.8000   35.2395   -9.8366 C   0  0  0  0  0  0  0  0  0  0  0  0
  -16.1587   35.0295  -10.0892 C   0  0  0  0  0  0  0  0  0  0  0  0
 12 13  1  0  0  0
 13 14  2  0  0  0
 13 15  1  0  0  0
 15  1  1  0  0  0
  1  2  1  0  0  0
  1  8  1  0  0  0
  2  3  1  0  0  0
  2  4  1  0  0  0
  4  5  1  0  0  0
  4  6  1  0  0  0
  6 17  1  0  0  0
  6  7  1  0  0  0
 17 18  1  0  0  0
  7  8  1  0  0  0
  8  9  2  0  0  0
  9 20  1  0  0  0
 20 21  1  0  0  0
 21 22  2  0  0  0
 21 23  1  0  0  0
 23 25  1  0  0  0
 25 26  2  0  0  0
 25 30  1  0  0  0
 26 27  1  0  0  0
 27 28  2  0  0  0
 28 29  1  0  0  0
 29 30  2  0  0  0
 15 16  1  0  0  0
  3 10  1  0  0  0
  5 11  1  0  0  0
 18 19  1  0  0  0
 23 24  1  0  0  0
M  END
> <minimizedAffinity>
-9.15732

$$$$
4AZI_OAN_A_2038


 30 31  0  0  0  0  0  0  0  0999 V2000
  -22.2189   37.1303  -10.8670 C   0  0  0  0  0  0  0  0  0  0  0  0
  -23.6754   37.4743  -10.5506 C   0  0  0  0  0  0  0  0  0  0  0  0
  -24.2952   38.0308  -11.7172 O   0  0  0  0  0  0  0  0  0  0  0  0
  -24.4467   36.2439  -10.0958 C   0  0  0  0  0  0  0  0  0  0  0  0
  -25.7871   36.6464   -9.8507 O   0  0  0  0  0  0  0  0  0  0  0  0
  -23.8242   35.7049   -8.7986 C   0  0  0  0  0  0  0  0  0  0  0  0
  -22.3980   35.4558   -8.9200 O   0  0  0  0  0  0  0  0  0  0  0  0
  -21.7066   35.9753   -9.9802 C   0  0  0  0  0  0  0  0  0  0  0  0
  -20.5267   35.4490  -10.2303 N   0  0  0  0  0  0  0  0  0  0  0  0
  -24.2779   37.3783  -12.4348 H   0  0  0  0  0  0  0  0  0  0  0  0
  -25.7973   37.3421   -9.1748 H   0  0  0  0  0  0  0  0  0  0  0  0
  -20.3800   40.4841  -11.3028 C   0  0  0  0  0  0  0  0  0  0  0  0
  -21.3352   39.3300  -11.6419 C   0  0  0  0  0  0  0  0  0  0  0  0
  -21.9953   39.3596  -12.6705 O   0  0  0  0  0  0  0  0  0  0  0  0
  -21.3840   38.3440  -10.7438 N   0  0  0  0  0  0  0  0  0  0  0  0
  -20.8226   38.4314   -9.9398 H   0  0  0  0  0  0  0  0  0  0  0  0
  -24.4772   34.4303   -8.2550 C   0  0  0  0  0  0  0  0  0  0  0  0
  -25.5824   34.7592   -7.4074 O   0  0  0  0  0  0  0  0  0  0  0  0
  -25.2690   35.2909   -6.6592 H   0  0  0  0  0  0  0  0  0  0  0  0
  -20.1395   34.4304   -9.4102 O   0  0  0  0  0  0  0  0  0  0  0  0
  -19.0234   34.6962   -8.6685 C   0  0  0  0  0  0  0  0  0  0  0  0
  -18.0771   33.9070   -8.6865 O   0  0  0  0  0  0  0  0  0  0  0  0
  -19.0294   35.8330   -7.9554 N   0  0  0  0  0  0  0  0  0  0  0  0
  -19.8198   36.4138   -8.0399 H   0  0  0  0  0  0  0  0  0  0  0  0
  -18.0490   36.2450   -7.1369 C   0  0  0  0  0  0  0  0  0  0  0  0
  -18.1511   35.9268   -5.7826 C   0  0  0  0  0  0  0  0  0  0  0  0
  -17.1646   36.3321   -4.8838 C   0  0  0  0  0  0  0  0  0  0  0  0
  -16.0651   37.0582   -5.3379 C   0  0  0  0  0  0  0  0  0  0  0  0
  -15.9546   37.3848   -6.6966 C   0  0  0  0  0  0  0  0  0  0  0  0
  -16.9455   36.9821   -7.5967 C   0  0  0  0  0  0  0  0  0  0  0  0
 12 13  1  0  0  0
 13 14  2  0  0  0
 13 15  1  0  0  0
 15  1  1  0  0  0
  1  2  1  0  0  0
  1  8  1  0  0  0
  2  3  1  0  0  0
  2  4  1  0  0  0
  4  5  1  0  0  0
  4  6  1  0  0  0
  6 17  1  0  0  0
  6  7  1  0  0  0
 17 18  1  0  0  0
  7  8  1  0  0  0
  8  9  2  0  0  0
  9 20  1  0  0  0
 20 21  1  0  0  0
 21 22  2  0  0  0
 21 23  1  0  0  0
 23 25  1  0  0  0
 25 26  2  0  0  0
 25 30  1  0  0  0
 26 27  1  0  0  0
 27 28  2  0  0  0
 28 29  1  0  0  0
 29 30  2  0  0  0
 15 16  1  0  0  0
  3 10  1  0  0  0
  5 11  1  0  0  0
 18 19  1  0  0  0
 23 24  1  0  0  0
M  END
> <minimizedAffinity>
-8.90935

$$$$
4AZI_OAN_A_2038


 30 31  0  0  0  0  0  0  0  0999 V2000
  -23.5596   36.6231   -9.7698 C   0  0  0  0  0  0  0  0  0  0  0  0
  -24.3715   36.8279  -11.0500 C   0  0  0  0  0  0  0  0  0  0  0  0
  -24.9502   38.1393  -11.0395 O   0  0  0  0  0  0  0  0  0  0  0  0
  -23.5022   36.6592  -12.2876 C   0  0  0  0  0  0  0  0  0  0  0  0
  -24.3250   36.8914  -13.4223 O   0  0  0  0  0  0  0  0  0  0  0  0
  -22.9545   35.2244  -12.3319 C   0  0  0  0  0  0  0  0  0  0  0  0
  -22.2646   34.8473  -11.1102 O   0  0  0  0  0  0  0  0  0  0  0  0
  -22.4161   35.6083   -9.9832 C   0  0  0  0  0  0  0  0  0  0  0  0
  -21.5254   35.4353   -9.0301 N   0  0  0  0  0  0  0  0  0  0  0  0
  -24.2444   38.8039  -11.0084 H   0  0  0  0  0  0  0  0  0  0  0  0
  -25.0645   36.2637  -13.4194 H   0  0  0  0  0  0  0  0  0  0  0  0
  -26.0569   34.9135   -7.3907 C   0  0  0  0  0  0  0  0  0  0  0  0
  -25.1773   35.1008   -8.6359 C   0  0  0  0  0  0  0  0  0  0  0  0
  -25.1565   34.2452   -9.5089 O   0  0  0  0  0  0  0  0  0  0  0  0
  -24.4617   36.2270   -8.6678 N   0  0  0  0  0  0  0  0  0  0  0  0
  -24.5405   36.8390   -7.9007 H   0  0  0  0  0  0  0  0  0  0  0  0
  -22.0175   34.9315  -13.5078 C   0  0  0  0  0  0  0  0  0  0  0  0
  -20.7471   35.5568  -13.3005 O   0  0  0  0  0  0  0  0  0  0  0  0
  -20.8669   36.5168  -13.2305 H   0  0  0  0  0  0  0  0  0  0  0  0
  -20.5414   34.5269   -9.2878 O   0  0  0  0  0  0  0  0  0  0  0  0
  -19.3102   35.0760   -9.5088 C   0  0  0  0  0  0  0  0  0  0  0  0
  -18.4950   35.1364   -8.5865 O   0  0  0  0  0  0  0  0  0  0  0  0
  -19.0611   35.5192  -10.7507 N   0  0  0  0  0  0  0  0  0  0  0  0
  -19.7662   35.3893  -11.4255 H   0  0  0  0  0  0  0  0  0  0  0  0
  -17.9321   36.1244  -11.1507 C   0  0  0  0  0  0  0  0  0  0  0  0
  -16.9216   35.3305  -11.6932 C   0  0  0  0  0  0  0  0  0  0  0  0
  -15.7244   35.9033  -12.1220 C   0  0  0  0  0  0  0  0  0  0  0  0
  -15.5328   37.2794  -12.0124 C   0  0  0  0  0  0  0  0  0  0  0  0
  -16.5414   38.0854  -11.4665 C   0  0  0  0  0  0  0  0  0  0  0  0
  -17.7396   37.5106  -11.0329 C   0  0  0  0  0  0  0  0  0  0  0  0
 12 13  1  0  0  0
 13 14  2  0  0  0
 13 15  1  0  0  0
 15  1  1  0  0  0
  1  2  1  0  0  0
  1  8  1  0  0  0
  2  3  1  0  0  0
  2  4  1  0  0  0
  4  5  1  0  0  0
  4  6  1  0  0  0
  6 17  1  0  0  0
  6  7  1  0  0  0
 17 18  1  0  0  0
  7  8  1  0  0  0
  8  9  2  0  0  0
  9 20  1  0  0  0
 20 21  1  0  0  0
 21 22  2  0  0  0
 21 23  1  0  0  0
 23 25  1  0  0  0
 25 26  2  0  0  0
 25 30  1  0  0  0
 26 27  1  0  0  0
 27 28  2  0  0  0
 28 29  1  0  0  0
 29 30  2  0  0  0
 15 16  1  0  0  0
  3 10  1  0  0  0
  5 11  1  0  0  0
 18 19  1  0  0  0
 23 24  1  0  0  0
M  END
> <minimizedAffinity>
-8.54817

$$$$
4AZI_OAN_A_2038


 30 31  0  0  0  0  0  0  0  0999 V2000
  -20.2913   35.7384  -11.7810 C   0  0  0  0  0  0  0  0  0  0  0  0
  -21.7542   35.8885  -12.2024 C   0  0  0  0  0  0  0  0  0  0  0  0
  -21.9360   35.3052  -13.4992 O   0  0  0  0  0  0  0  0  0  0  0  0
  -22.6876   35.2211  -11.2028 C   0  0  0  0  0  0  0  0  0  0  0  0
  -24.0148   35.3844  -11.6830 O   0  0  0  0  0  0  0  0  0  0  0  0
  -22.5446   35.9093   -9.8366 C   0  0  0  0  0  0  0  0  0  0  0  0
  -21.1692   35.9550   -9.3707 O   0  0  0  0  0  0  0  0  0  0  0  0
  -20.1483   35.6978  -10.2445 C   0  0  0  0  0  0  0  0  0  0  0  0
  -18.9769   35.4140   -9.7164 N   0  0  0  0  0  0  0  0  0  0  0  0
  -21.7176   34.3608  -13.4624 H   0  0  0  0  0  0  0  0  0  0  0  0
  -24.2110   36.3298  -11.7759 H   0  0  0  0  0  0  0  0  0  0  0  0
  -17.7208   37.9049  -13.6565 C   0  0  0  0  0  0  0  0  0  0  0  0
  -18.4026   36.6266  -13.1461 C   0  0  0  0  0  0  0  0  0  0  0  0
  -17.9555   35.5290  -13.4461 O   0  0  0  0  0  0  0  0  0  0  0  0
  -19.4859   36.8177  -12.3903 N   0  0  0  0  0  0  0  0  0  0  0  0
  -19.7695   37.7462  -12.2265 H   0  0  0  0  0  0  0  0  0  0  0  0
  -23.3971   35.3001   -8.7191 C   0  0  0  0  0  0  0  0  0  0  0  0
  -24.3347   36.2625   -8.2266 O   0  0  0  0  0  0  0  0  0  0  0  0
  -23.8561   37.0272   -7.8703 H   0  0  0  0  0  0  0  0  0  0  0  0
  -18.9240   35.3915   -8.3538 O   0  0  0  0  0  0  0  0  0  0  0  0
  -17.9200   34.6202   -7.8406 C   0  0  0  0  0  0  0  0  0  0  0  0
  -17.0439   35.1412   -7.1481 O   0  0  0  0  0  0  0  0  0  0  0  0
  -17.9593   33.3097   -8.1270 N   0  0  0  0  0  0  0  0  0  0  0  0
  -18.7235   32.9870   -8.6571 H   0  0  0  0  0  0  0  0  0  0  0  0
  -17.0450   32.4019   -7.7518 C   0  0  0  0  0  0  0  0  0  0  0  0
  -16.0387   32.0735   -8.6603 C   0  0  0  0  0  0  0  0  0  0  0  0
  -15.0635   31.1335   -8.3275 C   0  0  0  0  0  0  0  0  0  0  0  0
  -15.0888   30.5172   -7.0778 C   0  0  0  0  0  0  0  0  0  0  0  0
  -16.0972   30.8388   -6.1588 C   0  0  0  0  0  0  0  0  0  0  0  0
  -17.0769   31.7779   -6.4940 C   0  0  0  0  0  0  0  0  0  0  0  0
 12 13  1  0  0  0
 13 14  2  0  0  0
 13 15  1  0  0  0
 15  1  1  0  0  0
  1  2  1  0  0  0
  1  8  1  0  0  0
  2  3  1  0  0  0
  2  4  1  0  0  0
  4  5  1  0  0  0
  4  6  1  0  0  0
  6 17  1  0  0  0
  6  7  1  0  0  0
 17 18  1  0  0  0
  7  8  1  0  0  0
  8  9  2  0  0  0
  9 20  1  0  0  0
 20 21  1  0  0  0
 21 22  2  0  0  0
 21 23  1  0  0  0
 23 25  1  0  0  0
 25 26  2  0  0  0
 25 30  1  0  0  0
 26 27  1  0  0  0
 27 28  2  0  0  0
 28 29  1  0  0  0
 29 30  2  0  0  0
 15 16  1  0  0  0
  3 10  1  0  0  0
  5 11  1  0  0  0
 18 19  1  0  0  0
 23 24  1  0  0  0
M  END
> <minimizedAffinity>
-8.30700

$$$$
4AZI_OAN_A_2038


 30 31  0  0  0  0  0  0  0  0999 V2000
  -16.4891   35.6795  -12.9192 C   0  0  0  0  0  0  0  0  0  0  0  0
  -15.5226   36.0220  -14.0544 C   0  0  0  0  0  0  0  0  0  0  0  0
  -14.6829   34.8909  -14.3193 O   0  0  0  0  0  0  0  0  0  0  0  0
  -16.2732   36.4128  -15.3191 C   0  0  0  0  0  0  0  0  0  0  0  0
  -15.3055   36.6866  -16.3227 O   0  0  0  0  0  0  0  0  0  0  0  0
  -17.1055   37.6752  -15.0463 C   0  0  0  0  0  0  0  0  0  0  0  0
  -17.9840   37.5328  -13.8979 O   0  0  0  0  0  0  0  0  0  0  0  0
  -17.7932   36.4990  -13.0222 C   0  0  0  0  0  0  0  0  0  0  0  0
  -18.7953   36.2142  -12.2181 N   0  0  0  0  0  0  0  0  0  0  0  0
  -15.2307   34.1385  -14.5928 H   0  0  0  0  0  0  0  0  0  0  0  0
  -14.7207   37.3997  -16.0220 H   0  0  0  0  0  0  0  0  0  0  0  0
  -15.1443   35.4523   -9.3194 C   0  0  0  0  0  0  0  0  0  0  0  0
  -15.9332   35.0441  -10.5725 C   0  0  0  0  0  0  0  0  0  0  0  0
  -16.6045   34.0223  -10.5712 O   0  0  0  0  0  0  0  0  0  0  0  0
  -15.8124   35.8646  -11.6181 N   0  0  0  0  0  0  0  0  0  0  0  0
  -15.2295   36.6513  -11.5153 H   0  0  0  0  0  0  0  0  0  0  0  0
  -17.9547   38.1516  -16.2289 C   0  0  0  0  0  0  0  0  0  0  0  0
  -17.8873   37.2083  -17.3028 O   0  0  0  0  0  0  0  0  0  0  0  0
  -16.9674   37.1187  -17.5973 H   0  0  0  0  0  0  0  0  0  0  0  0
  -19.9172   36.9752  -12.3668 O   0  0  0  0  0  0  0  0  0  0  0  0
  -21.0729   36.3586  -11.9786 C   0  0  0  0  0  0  0  0  0  0  0  0
  -21.6047   35.5345  -12.7247 O   0  0  0  0  0  0  0  0  0  0  0  0
  -21.5618   36.6957  -10.7751 N   0  0  0  0  0  0  0  0  0  0  0  0
  -21.0401   37.3366  -10.2401 H   0  0  0  0  0  0  0  0  0  0  0  0
  -22.7019   36.2330  -10.2394 C   0  0  0  0  0  0  0  0  0  0  0  0
  -22.6098   35.2445   -9.2595 C   0  0  0  0  0  0  0  0  0  0  0  0
  -23.7610   34.7224   -8.6701 C   0  0  0  0  0  0  0  0  0  0  0  0
  -25.0150   35.1909   -9.0577 C   0  0  0  0  0  0  0  0  0  0  0  0
  -25.1181   36.1823  -10.0433 C   0  0  0  0  0  0  0  0  0  0  0  0
  -23.9644   36.7026  -10.6369 C   0  0  0  0  0  0  0  0  0  0  0  0
 12 13  1  0  0  0
 13 14  2  0  0  0
 13 15  1  0  0  0
 15  1  1  0  0  0
  1  2  1  0  0  0
  1  8  1  0  0  0
  2  3  1  0  0  0
  2  4  1  0  0  0
  4  5  1  0  0  0
  4  6  1  0  0  0
  6 17  1  0  0  0
  6  7  1  0  0  0
 17 18  1  0  0  0
  7  8  1  0  0  0
  8  9  2  0  0  0
  9 20  1  0  0  0
 20 21  1  0  0  0
 21 22  2  0  0  0
 21 23  1  0  0  0
 23 25  1  0  0  0
 25 26  2  0  0  0
 25 30  1  0  0  0
 26 27  1  0  0  0
 27 28  2  0  0  0
 28 29  1  0  0  0
 29 30  2  0  0  0
 15 16  1  0  0  0
  3 10  1  0  0  0
  5 11  1  0  0  0
 18 19  1  0  0  0
 23 24  1  0  0  0
M  END
> <minimizedAffinity>
-8.26109

$$$$
4AZI_OAN_A_2038


 30 31  0  0  0  0  0  0  0  0999 V2000
  -21.5173   36.8227  -11.4279 C   0  0  0  0  0  0  0  0  0  0  0  0
  -22.9741   37.2881  -11.3924 C   0  0  0  0  0  0  0  0  0  0  0  0
  -23.4056   37.5969  -12.7241 O   0  0  0  0  0  0  0  0  0  0  0  0
  -23.8795   36.2222  -10.7926 C   0  0  0  0  0  0  0  0  0  0  0  0
  -25.2083   36.7240  -10.8230 O   0  0  0  0  0  0  0  0  0  0  0  0
  -23.4601   35.9592   -9.3381 C   0  0  0  0  0  0  0  0  0  0  0  0
  -22.0507   35.6307   -9.2094 O   0  0  0  0  0  0  0  0  0  0  0  0
  -21.1998   35.8731  -10.2531 C   0  0  0  0  0  0  0  0  0  0  0  0
  -20.0378   35.2562  -10.2226 N   0  0  0  0  0  0  0  0  0  0  0  0
  -23.3459   36.8014  -13.2759 H   0  0  0  0  0  0  0  0  0  0  0  0
  -25.2528   37.5521  -10.3198 H   0  0  0  0  0  0  0  0  0  0  0  0
  -18.7111   39.3927  -12.0103 C   0  0  0  0  0  0  0  0  0  0  0  0
  -19.4828   38.0719  -12.1491 C   0  0  0  0  0  0  0  0  0  0  0  0
  -19.0519   37.1798  -12.8655 O   0  0  0  0  0  0  0  0  0  0  0  0
  -20.6212   37.9979  -11.4564 N   0  0  0  0  0  0  0  0  0  0  0  0
  -20.8835   38.7842  -10.9251 H   0  0  0  0  0  0  0  0  0  0  0  0
  -24.2624   34.8651   -8.6269 C   0  0  0  0  0  0  0  0  0  0  0  0
  -25.5140   35.3842   -8.1669 O   0  0  0  0  0  0  0  0  0  0  0  0
  -25.3536   36.1080   -7.5413 H   0  0  0  0  0  0  0  0  0  0  0  0
  -19.8263   34.4298   -9.1585 O   0  0  0  0  0  0  0  0  0  0  0  0
  -18.5477   34.4450   -8.6775 C   0  0  0  0  0  0  0  0  0  0  0  0
  -18.3226   34.9094   -7.5584 O   0  0  0  0  0  0  0  0  0  0  0  0
  -17.5969   33.9335   -9.4746 N   0  0  0  0  0  0  0  0  0  0  0  0
  -17.8870   33.5523  -10.3347 H   0  0  0  0  0  0  0  0  0  0  0  0
  -16.2842   33.8975   -9.1983 C   0  0  0  0  0  0  0  0  0  0  0  0
  -15.5061   34.9914   -9.5776 C   0  0  0  0  0  0  0  0  0  0  0  0
  -14.1354   35.0083   -9.3206 C   0  0  0  0  0  0  0  0  0  0  0  0
  -13.5345   33.9277   -8.6775 C   0  0  0  0  0  0  0  0  0  0  0  0
  -14.3075   32.8228   -8.2945 C   0  0  0  0  0  0  0  0  0  0  0  0
  -15.6806   32.8042   -8.5559 C   0  0  0  0  0  0  0  0  0  0  0  0
 12 13  1  0  0  0
 13 14  2  0  0  0
 13 15  1  0  0  0
 15  1  1  0  0  0
  1  2  1  0  0  0
  1  8  1  0  0  0
  2  3  1  0  0  0
  2  4  1  0  0  0
  4  5  1  0  0  0
  4  6  1  0  0  0
  6 17  1  0  0  0
  6  7  1  0  0  0
 17 18  1  0  0  0
  7  8  1  0  0  0
  8  9  2  0  0  0
  9 20  1  0  0  0
 20 21  1  0  0  0
 21 22  2  0  0  0
 21 23  1  0  0  0
 23 25  1  0  0  0
 25 26  2  0  0  0
 25 30  1  0  0  0
 26 27  1  0  0  0
 27 28  2  0  0  0
 28 29  1  0  0  0
 29 30  2  0  0  0
 15 16  1  0  0  0
  3 10  1  0  0  0
  5 11  1  0  0  0
 18 19  1  0  0  0
 23 24  1  0  0  0
M  END
> <minimizedAffinity>
-8.22871

$$$$
4AZI_OAN_A_2038


 30 31  0  0  0  0  0  0  0  0999 V2000
  -17.9514   37.2321   -6.8897 C   0  0  0  0  0  0  0  0  0  0  0  0
  -17.1838   36.7205   -5.6694 C   0  0  0  0  0  0  0  0  0  0  0  0
  -17.4025   37.6084   -4.5655 O   0  0  0  0  0  0  0  0  0  0  0  0
  -17.6224   35.3130   -5.2920 C   0  0  0  0  0  0  0  0  0  0  0  0
  -16.8833   34.9296   -4.1408 O   0  0  0  0  0  0  0  0  0  0  0  0
  -17.3070   34.3548   -6.4509 C   0  0  0  0  0  0  0  0  0  0  0  0
  -17.8722   34.7949   -7.7149 O   0  0  0  0  0  0  0  0  0  0  0  0
  -18.3286   36.0784   -7.8433 C   0  0  0  0  0  0  0  0  0  0  0  0
  -19.1272   36.3217   -8.8606 N   0  0  0  0  0  0  0  0  0  0  0  0
  -18.3483   37.6315   -4.3515 H   0  0  0  0  0  0  0  0  0  0  0  0
  -15.9344   34.9648   -4.3393 H   0  0  0  0  0  0  0  0  0  0  0  0
  -16.6305   40.4034   -8.6269 C   0  0  0  0  0  0  0  0  0  0  0  0
  -17.6350   39.4815   -7.9194 C   0  0  0  0  0  0  0  0  0  0  0  0
  -18.7760   39.8645   -7.7043 O   0  0  0  0  0  0  0  0  0  0  0  0
  -17.1635   38.2838   -7.5667 N   0  0  0  0  0  0  0  0  0  0  0  0
  -16.2213   38.0860   -7.7727 H   0  0  0  0  0  0  0  0  0  0  0  0
  -17.7454   32.9050   -6.2219 C   0  0  0  0  0  0  0  0  0  0  0  0
  -18.2765   32.7474   -4.9024 O   0  0  0  0  0  0  0  0  0  0  0  0
  -17.5944   32.9723   -4.2504 H   0  0  0  0  0  0  0  0  0  0  0  0
  -19.4214   35.2560   -9.6592 O   0  0  0  0  0  0  0  0  0  0  0  0
  -20.7508   34.9478   -9.7220 C   0  0  0  0  0  0  0  0  0  0  0  0
  -21.1006   33.8340  -10.1167 O   0  0  0  0  0  0  0  0  0  0  0  0
  -21.6105   35.9020   -9.3330 N   0  0  0  0  0  0  0  0  0  0  0  0
  -21.2272   36.7446   -8.9979 H   0  0  0  0  0  0  0  0  0  0  0  0
  -22.9486   35.8047   -9.3621 C   0  0  0  0  0  0  0  0  0  0  0  0
  -23.5775   35.1251   -8.3188 C   0  0  0  0  0  0  0  0  0  0  0  0
  -24.9654   34.9883   -8.2979 C   0  0  0  0  0  0  0  0  0  0  0  0
  -25.7342   35.5357   -9.3234 C   0  0  0  0  0  0  0  0  0  0  0  0
  -25.1113   36.2184  -10.3774 C   0  0  0  0  0  0  0  0  0  0  0  0
  -23.7200   36.3519  -10.4004 C   0  0  0  0  0  0  0  0  0  0  0  0
 12 13  1  0  0  0
 13 14  2  0  0  0
 13 15  1  0  0  0
 15  1  1  0  0  0
  1  2  1  0  0  0
  1  8  1  0  0  0
  2  3  1  0  0  0
  2  4  1  0  0  0
  4  5  1  0  0  0
  4  6  1  0  0  0
  6 17  1  0  0  0
  6  7  1  0  0  0
 17 18  1  0  0  0
  7  8  1  0  0  0
  8  9  2  0  0  0
  9 20  1  0  0  0
 20 21  1  0  0  0
 21 22  2  0  0  0
 21 23  1  0  0  0
 23 25  1  0  0  0
 25 26  2  0  0  0
 25 30  1  0  0  0
 26 27  1  0  0  0
 27 28  2  0  0  0
 28 29  1  0  0  0
 29 30  2  0  0  0
 15 16  1  0  0  0
  3 10  1  0  0  0
  5 11  1  0  0  0
 18 19  1  0  0  0
 23 24  1  0  0  0
M  END
> <minimizedAffinity>
-8.19429

$$$$
4AZI_OAN_A_2038


 30 31  0  0  0  0  0  0  0  0999 V2000
  -21.1398   35.8275  -11.6813 C   0  0  0  0  0  0  0  0  0  0  0  0
  -22.5712   36.3550  -11.7947 C   0  0  0  0  0  0  0  0  0  0  0  0
  -23.0182   36.2245  -13.1505 O   0  0  0  0  0  0  0  0  0  0  0  0
  -23.5126   35.5998  -10.8679 C   0  0  0  0  0  0  0  0  0  0  0  0
  -24.8161   36.1327  -11.0563 O   0  0  0  0  0  0  0  0  0  0  0  0
  -23.0725   35.8150   -9.4116 C   0  0  0  0  0  0  0  0  0  0  0  0
  -21.6779   35.4737   -9.1888 O   0  0  0  0  0  0  0  0  0  0  0  0
  -20.8410   35.3086  -10.2585 C   0  0  0  0  0  0  0  0  0  0  0  0
  -19.7097   34.6762  -10.0305 N   0  0  0  0  0  0  0  0  0  0  0  0
  -23.0099   35.2885  -13.4050 H   0  0  0  0  0  0  0  0  0  0  0  0
  -24.8088   37.0823  -10.8586 H   0  0  0  0  0  0  0  0  0  0  0  0
  -18.9828   38.9850  -12.1250 C   0  0  0  0  0  0  0  0  0  0  0  0
  -20.0196   38.0474  -11.4884 C   0  0  0  0  0  0  0  0  0  0  0  0
  -20.6178   38.3871  -10.4777 O   0  0  0  0  0  0  0  0  0  0  0  0
  -20.1889   36.8765  -12.1062 N   0  0  0  0  0  0  0  0  0  0  0  0
  -19.6400   36.6984  -12.9038 H   0  0  0  0  0  0  0  0  0  0  0  0
  -23.9098   35.0649   -8.3709 C   0  0  0  0  0  0  0  0  0  0  0  0
  -25.0009   34.3883   -9.0029 O   0  0  0  0  0  0  0  0  0  0  0  0
  -25.5681   35.0362   -9.4494 H   0  0  0  0  0  0  0  0  0  0  0  0
  -19.5134   34.2419   -8.7526 O   0  0  0  0  0  0  0  0  0  0  0  0
  -18.3585   34.6888   -8.1759 C   0  0  0  0  0  0  0  0  0  0  0  0
  -17.3017   34.0898   -8.3834 O   0  0  0  0  0  0  0  0  0  0  0  0
  -18.4529   35.7840   -7.4060 N   0  0  0  0  0  0  0  0  0  0  0  0
  -19.3374   36.2103   -7.3353 H   0  0  0  0  0  0  0  0  0  0  0  0
  -17.4434   36.3471   -6.7243 C   0  0  0  0  0  0  0  0  0  0  0  0
  -17.4463   36.2279   -5.3345 C   0  0  0  0  0  0  0  0  0  0  0  0
  -16.4254   36.7964   -4.5730 C   0  0  0  0  0  0  0  0  0  0  0  0
  -15.3908   37.4873   -5.2011 C   0  0  0  0  0  0  0  0  0  0  0  0
  -15.3802   37.6146   -6.5970 C   0  0  0  0  0  0  0  0  0  0  0  0
  -16.4056   37.0482   -7.3599 C   0  0  0  0  0  0  0  0  0  0  0  0
 12 13  1  0  0  0
 13 14  2  0  0  0
 13 15  1  0  0  0
 15  1  1  0  0  0
  1  2  1  0  0  0
  1  8  1  0  0  0
  2  3  1  0  0  0
  2  4  1  0  0  0
  4  5  1  0  0  0
  4  6  1  0  0  0
  6 17  1  0  0  0
  6  7  1  0  0  0
 17 18  1  0  0  0
  7  8  1  0  0  0
  8  9  2  0  0  0
  9 20  1  0  0  0
 20 21  1  0  0  0
 21 22  2  0  0  0
 21 23  1  0  0  0
 23 25  1  0  0  0
 25 26  2  0  0  0
 25 30  1  0  0  0
 26 27  1  0  0  0
 27 28  2  0  0  0
 28 29  1  0  0  0
 29 30  2  0  0  0
 15 16  1  0  0  0
  3 10  1  0  0  0
  5 11  1  0  0  0
 18 19  1  0  0  0
 23 24  1  0  0  0
M  END
> <minimizedAffinity>
-8.14858

$$$$
4AZI_OAN_A_2038


 30 31  0  0  0  0  0  0  0  0999 V2000
  -17.9441   34.4279   -6.5651 C   0  0  0  0  0  0  0  0  0  0  0  0
  -17.2355   33.2459   -5.9011 C   0  0  0  0  0  0  0  0  0  0  0  0
  -18.0023   32.8070   -4.7723 O   0  0  0  0  0  0  0  0  0  0  0  0
  -17.0521   32.0933   -6.8776 C   0  0  0  0  0  0  0  0  0  0  0  0
  -16.4148   31.0355   -6.1750 O   0  0  0  0  0  0  0  0  0  0  0  0
  -16.1598   32.5509   -8.0417 C   0  0  0  0  0  0  0  0  0  0  0  0
  -16.6513   33.7561   -8.6875 O   0  0  0  0  0  0  0  0  0  0  0  0
  -17.6066   34.5156   -8.0688 C   0  0  0  0  0  0  0  0  0  0  0  0
  -18.2548   35.3775   -8.8228 N   0  0  0  0  0  0  0  0  0  0  0  0
  -18.8791   32.5177   -5.0697 H   0  0  0  0  0  0  0  0  0  0  0  0
  -15.5640   31.3450   -5.8269 H   0  0  0  0  0  0  0  0  0  0  0  0
  -17.9059   37.8474   -4.7974 C   0  0  0  0  0  0  0  0  0  0  0  0
  -18.4882   36.6351   -5.5393 C   0  0  0  0  0  0  0  0  0  0  0  0
  -19.6811   36.5902   -5.8036 O   0  0  0  0  0  0  0  0  0  0  0  0
  -17.6128   35.6745   -5.8430 N   0  0  0  0  0  0  0  0  0  0  0  0
  -16.6774   35.8059   -5.5656 H   0  0  0  0  0  0  0  0  0  0  0  0
  -15.9335   31.4964   -9.1295 C   0  0  0  0  0  0  0  0  0  0  0  0
  -16.8340   30.3981   -8.9540 O   0  0  0  0  0  0  0  0  0  0  0  0
  -16.6801   29.9891   -8.0880 H   0  0  0  0  0  0  0  0  0  0  0  0
  -17.9086   35.3983  -10.1418 O   0  0  0  0  0  0  0  0  0  0  0  0
  -18.9298   35.7255  -10.9882 C   0  0  0  0  0  0  0  0  0  0  0  0
  -18.6743   36.1467  -12.1178 O   0  0  0  0  0  0  0  0  0  0  0  0
  -20.1771   35.5557  -10.5231 N   0  0  0  0  0  0  0  0  0  0  0  0
  -20.2735   35.1767   -9.6196 H   0  0  0  0  0  0  0  0  0  0  0  0
  -21.3042   35.8588  -11.1855 C   0  0  0  0  0  0  0  0  0  0  0  0
  -21.8732   37.1136  -10.9675 C   0  0  0  0  0  0  0  0  0  0  0  0
  -23.0468   37.4826  -11.6246 C   0  0  0  0  0  0  0  0  0  0  0  0
  -23.6577   36.5954  -12.5089 C   0  0  0  0  0  0  0  0  0  0  0  0
  -23.0948   35.3312  -12.7329 C   0  0  0  0  0  0  0  0  0  0  0  0
  -21.9208   34.9600  -12.0711 C   0  0  0  0  0  0  0  0  0  0  0  0
 12 13  1  0  0  0
 13 14  2  0  0  0
 13 15  1  0  0  0
 15  1  1  0  0  0
  1  2  1  0  0  0
  1  8  1  0  0  0
  2  3  1  0  0  0
  2  4  1  0  0  0
  4  5  1  0  0  0
  4  6  1  0  0  0
  6 17  1  0  0  0
  6  7  1  0  0  0
 17 18  1  0  0  0
  7  8  1  0  0  0
  8  9  2  0  0  0
  9 20  1  0  0  0
 20 21  1  0  0  0
 21 22  2  0  0  0
 21 23  1  0  0  0
 23 25  1  0  0  0
 25 26  2  0  0  0
 25 30  1  0  0  0
 26 27  1  0  0  0
 27 28  2  0  0  0
 28 29  1  0  0  0
 29 30  2  0  0  0
 15 16  1  0  0  0
  3 10  1  0  0  0
  5 11  1  0  0  0
 18 19  1  0  0  0
 23 24  1  0  0  0
M  END
> <minimizedAffinity>
-8.03414

$$$$
