4AZI_OAN_A_2038
  RCSB PDB12061711453D
Coordinates from PDB:4AZI:A:2038 Model:1 without hydrogens
 25 26  0  0  0  0            999 V2000
  -26.1750   34.9190   -7.4960   C 0  0  0  0  0  0  0  0  0  0  0  0
  -25.1780   35.0420   -8.6580   C 0  0  0  0  0  0  0  0  0  0  0  0
  -24.8670   34.0550   -9.3090   O 0  0  0  0  0  0  0  0  0  0  0  0
  -24.6960   36.2680   -8.8720   N 0  0  0  0  0  0  0  0  0  0  0  0
  -23.7380   36.6240   -9.9400   C 0  0  0  0  0  0  0  0  0  0  0  0
  -24.4930   36.8620  -11.2490   C 0  0  0  0  0  0  0  0  0  0  0  0
  -25.0150   38.1970  -11.2590   O 0  0  0  0  0  0  0  0  0  0  0  0
  -23.5870   36.6550  -12.4540   C 0  0  0  0  0  0  0  0  0  0  0  0
  -24.3570   36.9210  -13.6180   O 0  0  0  0  0  0  0  0  0  0  0  0
  -23.1000   35.1980  -12.4790   C 0  0  0  0  0  0  0  0  0  0  0  0
  -22.1340   34.8640  -13.6200   C 0  0  0  0  0  0  0  0  0  0  0  0
  -20.9100   35.5890  -13.4650   O 0  0  0  0  0  0  0  0  0  0  0  0
  -22.4720   34.7930  -11.2330   O 0  0  0  0  0  0  0  0  0  0  0  0
  -22.6320   35.5610  -10.1120   C 0  0  0  0  0  0  0  0  0  0  0  0
  -21.7850   35.3510   -9.1270   N 0  0  0  0  0  0  0  0  0  0  0  0
  -20.8320   34.4010   -9.3490   O 0  0  0  0  0  0  0  0  0  0  0  0
  -19.6470   34.6300   -8.7090   C 0  0  0  0  0  0  0  0  0  0  0  0
  -18.7420   33.7970   -8.7850   O 0  0  0  0  0  0  0  0  0  0  0  0
  -19.5420   35.7810   -8.0270   N 0  0  0  0  0  0  0  0  0  0  0  0
  -18.4790   36.1640   -7.3030   C 0  0  0  0  0  0  0  0  0  0  0  0
  -18.6970   36.5720   -5.9870   C 0  0  0  0  0  0  0  0  0  0  0  0
  -17.6310   36.9850   -5.1880   C 0  0  0  0  0  0  0  0  0  0  0  0
  -16.3360   36.9890   -5.7030   C 0  0  0  0  0  0  0  0  0  0  0  0
  -16.1070   36.5830   -7.0250   C 0  0  0  0  0  0  0  0  0  0  0  0
  -17.1760   36.1730   -7.8270   C 0  0  0  0  0  0  0  0  0  0  0  0
  1  2  1  0  0  0  0
  2  3  2  0  0  0  0
  2  4  1  0  0  0  0
  4  5  1  0  0  0  0
  5  6  1  0  0  0  0
  5 14  1  0  0  0  0
  6  7  1  0  0  0  0
  6  8  1  0  0  0  0
  8  9  1  0  0  0  0
  8 10  1  0  0  0  0
 10 11  1  0  0  0  0
 10 13  1  0  0  0  0
 11 12  1  0  0  0  0
 13 14  1  0  0  0  0
 14 15  2  0  0  0  0
 15 16  1  0  0  0  0
 16 17  1  0  0  0  0
 17 18  2  0  0  0  0
 17 19  1  0  0  0  0
 19 20  1  0  0  0  0
 20 21  2  0  0  0  0
 20 25  1  0  0  0  0
 21 22  1  0  0  0  0
 22 23  2  0  0  0  0
 23 24  1  0  0  0  0
 24 25  2  0  0  0  0
A    1
CAH
A    2
CAG
A    3
OAN
A    4
NAI
A    5
CAB
A    6
CAC
A    7
OAJ
A    8
CAD
A    9
OAK
A   10
CAE
A   11
CAF
A   12
OAM
A   13
OAL
A   14
CAA
A   15
NAY
A   16
OAQ
A   17
CAP
A   18
OAR
A   19
NAO
A   20
CAS
A   21
CAT
A   22
CAU
A   23
CAV
A   24
CAW
A   25
CAX
M  END
>  <InstanceId>
4AZI_OAN_A_2038

>  <ChemCompId>
OAN

>  <PdbId>
4AZI

>  <ChainId>
A

>  <ResidueNumber>
2038

>  <InsertionCode>


>  <Model>
1

>  <AltIds>


>  <MissingHeavyAtoms>
0

>  <ObservedFormula>
C15 N3 O7

>  <Name>
O-(2-ACETAMIDO-2-DEOXY D-GLUCOPYRANOSYLIDENE) AMINO-N-PHENYLCARBAMATE

>  <SystematicName>
[(Z)-[(3R,4R,5S,6R)-3-acetamido-6-(hydroxymethyl)-4,5-bis(oxidanyl)oxan-2-ylidene]amino] N-phenylcarbamate

>  <Synonyms>
PUGNAc

>  <Type>
NON-POLYMER

>  <Formula>
C15 H19 N3 O7

>  <MolecularWeight>
353.327

>  <ModifiedDate>
2011-08-15

>  <Parent>


>  <OneLetterCode>


>  <SubcomponentList>


>  <AmbiguousFlag>
N

>  <InChI>
InChI=1S/C15H19N3O7/c1-8(20)16-11-13(22)12(21)10(7-19)24-14(11)18-25-15(23)17-9-5-3-2-4-6-9/h2-6,10-13,19,21-22H,7H2,1H3,(H,16,20)(H,17,23)/b18-14-/t10-,11-,12-,13-/m1/s1

>  <InChIKey>
PBLNJFVQMUMOJY-JXZOILRNSA-N

>  <SMILES>
CC(=O)N[C@@H]\1[C@H]([C@@H]([C@H](O/C1=N\OC(=O)Nc2ccccc2)CO)O)O

$$$$
