2V8W_MGO_A_1218
  RCSB PDB12061707033D
Coordinates from PDB:2V8W:A:1218 Model:1 without hydrogens
 33 35  0  0  0  0            999 V2000
   26.3110   47.7320   19.8010   O 0  0  0  0  0  0  0  0  0  0  0  0
   27.6540   46.8740   19.3580   P 0  0  0  0  0  0  0  0  0  0  0  0
   27.5500   45.4770   20.1750   O 0  0  0  0  0  0  0  0  0  0  0  0
   28.9530   47.5750   19.6210   O 0  0  0  0  0  0  0  0  0  0  0  0
   27.4570   46.7060   17.7780   O 0  0  0  0  0  0  0  0  0  0  0  0
   27.1840   45.3420   17.0620   P 0  0  0  0  0  0  0  0  0  0  0  0
   27.0550   45.9350   15.5320   O 0  0  0  0  0  0  0  0  0  0  0  0
   28.2500   44.3460   17.2340   O 0  0  0  0  0  0  0  0  0  0  0  0
   25.8090   44.7350   17.5430   O 0  0  0  0  0  0  0  0  0  0  0  0
   24.3840   45.1370   16.9580   P 0  0  0  0  0  0  0  0  0  0  0  0
   23.3920   44.1490   17.7780   O 0  0  0  0  0  0  0  0  0  0  0  0
   24.2350   44.9350   15.5260   O 0  0  0  0  0  0  0  0  0  0  0  0
   24.0670   46.6540   17.3560   O 0  0  0  0  0  0  0  0  0  0  0  0
   24.6040   47.8280   16.7160   C 0  0  0  0  0  0  0  0  0  0  0  0
   23.5820   48.9710   16.8270   C 0  0  0  0  0  0  0  0  0  0  0  0
   22.5450   48.4550   15.9790   O 0  0  0  0  0  0  0  0  0  0  0  0
   22.8260   49.0930   18.1350   C 0  0  0  0  0  0  0  0  0  0  0  0
   23.4870   49.9680   19.0170   O 0  0  0  0  0  0  0  0  0  0  0  0
   21.5300   49.7380   17.6550   C 0  0  0  0  0  0  0  0  0  0  0  0
   21.7430   51.1150   17.3230   O 0  0  0  0  0  0  0  0  0  0  0  0
   21.2690   48.9450   16.3930   C 0  0  0  0  0  0  0  0  0  0  0  0
   20.3690   47.8190   16.7450   N 0  0  0  0  0  0  0  0  0  0  0  0
   20.6730   46.5250   16.9480   C 0  0  0  0  0  0  0  0  0  0  0  0
   19.5430   45.8920   17.2780   N 0  3  0  0  0  0  0  0  0  0  0  0
   19.4680   44.4620   17.5850   C 0  0  0  0  0  0  0  0  0  0  0  0
   18.5090   46.7400   17.2520   C 0  0  0  0  0  0  0  0  0  0  0  0
   19.0570   47.9770   16.9260   C 0  0  0  0  0  0  0  0  0  0  0  0
   18.2680   49.1280   16.8020   C 0  0  0  0  0  0  0  0  0  0  0  0
   16.9240   49.0410   17.0150   C 0  0  0  0  0  0  0  0  0  0  0  0
   16.1850   50.1530   16.8840   N 0  0  0  0  0  0  0  0  0  0  0  0
   16.3460   47.8180   17.3730   N 0  0  0  0  0  0  0  0  0  0  0  0
   17.1310   46.6480   17.4830   C 0  0  0  0  0  0  0  0  0  0  0  0
   16.5830   45.5750   17.7790   O 0  0  0  0  0  0  0  0  0  0  0  0
  1  2  1  0  0  0  0
  2  3  1  0  0  0  0
  2  4  2  0  0  0  0
  2  5  1  0  0  0  0
  5  6  1  0  0  0  0
  6  7  1  0  0  0  0
  6  8  2  0  0  0  0
  6  9  1  0  0  0  0
  9 10  1  0  0  0  0
 10 11  1  0  0  0  0
 10 12  2  0  0  0  0
 10 13  1  0  0  0  0
 13 14  1  0  0  0  0
 14 15  1  0  0  0  0
 15 16  1  0  0  0  0
 15 17  1  0  0  0  0
 16 21  1  0  0  0  0
 17 18  1  0  0  0  0
 17 19  1  0  0  0  0
 19 20  1  0  0  0  0
 19 21  1  0  0  0  0
 21 22  1  0  0  0  0
 22 23  1  0  0  0  0
 22 27  1  0  0  0  0
 23 24  2  0  0  0  0
 24 25  1  0  0  0  0
 24 26  1  0  0  0  0
 26 27  2  0  0  0  0
 26 32  1  0  0  0  0
 27 28  1  0  0  0  0
 28 29  2  0  0  0  0
 29 30  1  0  0  0  0
 29 31  1  0  0  0  0
 31 32  1  0  0  0  0
 32 33  2  0  0  0  0
M  CHG  1  24   1
A    1
OAJ
A    2
PBE
A    3
OAD
A    4
OAI
A    5
OAS
A    6
PBG
A    7
OAL
A    8
OAF
A    9
OAT
A   10
PBF
A   11
OAK
A   12
OAE
A   13
O5'
A   14
C5'
A   15
C4'
A   16
O4'
A   17
C3'
A   18
O3'
A   19
C2'
A   20
O2'
A   21
C1'
A   22
NBC
A   23
CAN
A   24
NBD
A   25
CAA
A   26
CAX
A   27
CAW
A   28
CAM
A   29
CAU
A   30
NAB
A   31
NAP
A   32
CAV
A   33
OAC
M  END
>  <InstanceId>
2V8W_MGO_A_1218

>  <ChemCompId>
MGO

>  <PdbId>
2V8W

>  <ChainId>
A

>  <ResidueNumber>
1218

>  <InsertionCode>


>  <Model>
1

>  <AltIds>


>  <MissingHeavyAtoms>
0

>  <ObservedFormula>
C12 N4 O14 P3

>  <Name>
[[(2R,3S,4R,5R)-5-(6-AMINO-3-METHYL-4-OXO-5H-IMIDAZO[4,5-C]PYRIDIN-1-YL)-3,4-DIHYDROXY-OXOLAN-2-YL]METHOXY-HYDROXY-PHOSPHORYL] PHOSPHONO HYDROGEN PHOSPHATE

>  <SystematicName>
[[(2R,3S,4R,5R)-5-(6-amino-3-methyl-4-oxo-5H-imidazo[4,5-c]pyridin-3-ium-1-yl)-3,4-dihydroxy-oxolan-2-yl]methoxy-hydroxy-phosphoryl] phosphono hydrogen phosphate

>  <Synonyms>


>  <Type>
non-polymer

>  <Formula>
C12 H20 N4 O14 P3

>  <MolecularWeight>
537.227

>  <ModifiedDate>
2011-06-04

>  <Parent>


>  <OneLetterCode>


>  <SubcomponentList>


>  <AmbiguousFlag>


>  <InChI>
InChI=1S/C12H19N4O14P3/c1-15-4-16(5-2-7(13)14-11(19)8(5)15)12-10(18)9(17)6(28-12)3-27-32(23,24)30-33(25,26)29-31(20,21)22/h2,4,6,9-10,12,17-18H,3H2,1H3,(H6-,13,14,19,20,21,22,23,24,25,26)/p+1/t6-,9-,10-,12-/m1/s1

>  <InChIKey>
LPHBJZOLBGBNJF-XYHAGOFUSA-O

>  <SMILES>
C[n+]1cn(c2c1C(=O)NC(=C2)N)[C@H]3[C@@H]([C@@H]([C@H](O3)CO[P@](=O)(O)O[P@@](=O)(O)OP(=O)(O)O)O)O

$$$$
