2V8W_MGO_A_1218


 42 44  0  0  0  0  0  0  0  0999 V2000
   23.7042   49.0155   16.7488 C   0  0  0  0  0  0  0  0  0  0  0  0
   22.5110   48.7027   16.0144 O   0  0  0  0  0  0  0  0  0  0  0  0
   23.2144   48.7966   18.1663 C   0  0  0  0  0  0  0  0  0  0  0  0
   24.0549   49.4413   19.0929 O   0  0  0  0  0  0  0  0  0  0  0  0
   21.8690   49.5131   18.1159 C   0  0  0  0  0  0  0  0  0  0  0  0
   22.0527   50.9336   18.0973 O   0  0  0  0  0  0  0  0  0  0  0  0
   21.3510   49.0496   16.7719 C   0  0  0  0  0  0  0  0  0  0  0  0
   24.1228   50.3823   18.8677 H   0  0  0  0  0  0  0  0  0  0  0  0
   22.6300   51.1752   17.3562 H   0  0  0  0  0  0  0  0  0  0  0  0
   20.5038   47.8534   17.0023 N   0  0  0  0  0  0  0  0  0  0  0  0
   20.8750   46.5689   17.1447 C   0  0  0  0  0  0  0  0  0  0  0  0
   19.7695   45.8520   17.3693 N   0  0  0  0  0  0  0  0  0  0  0  0
   19.7656   44.4034   17.5850 C   0  0  0  0  0  0  0  0  0  0  0  0
   18.6884   46.6387   17.3338 C   0  0  0  0  0  0  0  0  0  0  0  0
   19.1766   47.9235   17.1153 C   0  0  0  0  0  0  0  0  0  0  0  0
   18.3265   49.0325   17.0146 C   0  0  0  0  0  0  0  0  0  0  0  0
   16.9807   48.8547   17.1429 C   0  0  0  0  0  0  0  0  0  0  0  0
   16.1833   49.9282   17.0359 N   0  0  0  0  0  0  0  0  0  0  0  0
   16.4600   47.5801   17.3924 N   0  0  0  0  0  0  0  0  0  0  0  0
   17.3081   46.4528   17.4777 C   0  0  0  0  0  0  0  0  0  0  0  0
   16.8115   45.3333   17.6762 O   0  0  0  0  0  0  0  0  0  0  0  0
   16.5727   50.8151   16.8600 H   0  0  0  0  0  0  0  0  0  0  0  0
   15.2086   49.8290   17.1332 H   0  0  0  0  0  0  0  0  0  0  0  0
   15.4892   47.4670   17.5101 H   0  0  0  0  0  0  0  0  0  0  0  0
   24.6546   47.9561   16.1677 C   0  0  0  0  0  0  0  0  0  0  0  0
   25.0640   47.0636   17.2222 O   0  0  0  0  0  0  0  0  0  0  0  0
   26.3040   46.0536   17.1717 P   0  0  0  0  0  0  0  0  0  0  0  0
   26.6108   45.6578   15.6284 O   0  0  0  0  0  0  0  0  0  0  0  0
   27.4797   46.6451   17.7895 O   0  0  0  0  0  0  0  0  0  0  0  0
   27.3623   45.0454   15.5949 H   0  0  0  0  0  0  0  0  0  0  0  0
   25.8588   44.6555   17.7895 O   0  0  0  0  0  0  0  0  0  0  0  0
   24.4911   43.9301   17.4833 P   0  0  0  0  0  0  0  0  0  0  0  0
   24.4348   42.4593   18.2200 O   0  0  0  0  0  0  0  0  0  0  0  0
   24.2707   43.8854   16.0316 O   0  0  0  0  0  0  0  0  0  0  0  0
   23.5882   42.0299   18.0203 H   0  0  0  0  0  0  0  0  0  0  0  0
   23.3285   44.5975   18.2899 O   0  0  0  0  0  0  0  0  0  0  0  0
   21.9506   43.6187   20.1878 O   0  0  0  0  0  0  0  0  0  0  0  0
   23.2333   44.6192   19.8880 P   0  0  0  0  0  0  0  0  0  0  0  0
   24.4971   43.9152   20.6209 O   0  0  0  0  0  0  0  0  0  0  0  0
   23.0400   46.0320   20.3511 O   0  0  0  0  0  0  0  0  0  0  0  0
   21.8032   43.5599   21.1447 H   0  0  0  0  0  0  0  0  0  0  0  0
   24.3798   43.9611   21.5827 H   0  0  0  0  0  0  0  0  0  0  0  0
 37 38  1  0  0  0
 38 39  1  0  0  0
 38 40  2  0  0  0
 38 36  1  0  0  0
 36 32  1  0  0  0
 32 33  1  0  0  0
 32 34  2  0  0  0
 32 31  1  0  0  0
 31 27  1  0  0  0
 27 28  1  0  0  0
 27 29  2  0  0  0
 27 26  1  0  0  0
 26 25  1  0  0  0
 25  1  1  0  0  0
  1  2  1  0  0  0
  1  3  1  0  0  0
  2  7  1  0  0  0
  3  4  1  0  0  0
  3  5  1  0  0  0
  5  6  1  0  0  0
  5  7  1  0  0  0
  7 10  1  0  0  0
 10 11  1  0  0  0
 10 15  1  0  0  0
 11 12  2  0  0  0
 12 13  1  0  0  0
 12 14  1  0  0  0
 14 15  2  0  0  0
 14 20  1  0  0  0
 15 16  1  0  0  0
 16 17  2  0  0  0
 17 18  1  0  0  0
 17 19  1  0  0  0
 19 20  1  0  0  0
 20 21  2  0  0  0
 37 41  1  0  0  0
 39 42  1  0  0  0
 33 35  1  0  0  0
 28 30  1  0  0  0
  4  8  1  0  0  0
  6  9  1  0  0  0
 18 22  1  0  0  0
 18 23  1  0  0  0
 19 24  1  0  0  0
M  CHG 1  12   1
M  END
> <minimizedAffinity>
-8.78696

$$$$
2V8W_MGO_A_1218


 42 44  0  0  0  0  0  0  0  0999 V2000
   23.6559   48.9354   16.6572 C   0  0  0  0  0  0  0  0  0  0  0  0
   22.3983   48.8773   15.9674 O   0  0  0  0  0  0  0  0  0  0  0  0
   23.1943   48.6987   18.0814 C   0  0  0  0  0  0  0  0  0  0  0  0
   24.1681   49.1275   19.0024 O   0  0  0  0  0  0  0  0  0  0  0  0
   21.9875   49.6289   18.1472 C   0  0  0  0  0  0  0  0  0  0  0  0
   22.4064   50.9972   18.2104 O   0  0  0  0  0  0  0  0  0  0  0  0
   21.3448   49.3551   16.8050 C   0  0  0  0  0  0  0  0  0  0  0  0
   24.3839   50.0583   18.8349 H   0  0  0  0  0  0  0  0  0  0  0  0
   22.9854   51.1932   17.4572 H   0  0  0  0  0  0  0  0  0  0  0  0
   20.3187   48.3015   17.0019 N   0  0  0  0  0  0  0  0  0  0  0  0
   20.4865   46.9771   17.1625 C   0  0  0  0  0  0  0  0  0  0  0  0
   19.2776   46.4360   17.3417 N   0  0  0  0  0  0  0  0  0  0  0  0
   19.0472   45.0063   17.5600 C   0  0  0  0  0  0  0  0  0  0  0  0
   18.3293   47.3756   17.2588 C   0  0  0  0  0  0  0  0  0  0  0  0
   19.0136   48.5708   17.0585 C   0  0  0  0  0  0  0  0  0  0  0  0
   18.3446   49.7939   16.9197 C   0  0  0  0  0  0  0  0  0  0  0  0
   16.9832   49.8209   16.9914 C   0  0  0  0  0  0  0  0  0  0  0  0
   16.3612   51.0009   16.8484 N   0  0  0  0  0  0  0  0  0  0  0  0
   16.2671   48.6410   17.2212 N   0  0  0  0  0  0  0  0  0  0  0  0
   16.9319   47.4000   17.3447 C   0  0  0  0  0  0  0  0  0  0  0  0
   16.2650   46.3694   17.5243 O   0  0  0  0  0  0  0  0  0  0  0  0
   16.8863   51.8179   16.6874 H   0  0  0  0  0  0  0  0  0  0  0  0
   15.3795   51.0499   16.9046 H   0  0  0  0  0  0  0  0  0  0  0  0
   15.2862   48.6758   17.2980 H   0  0  0  0  0  0  0  0  0  0  0  0
   24.3904   47.7784   15.9606 C   0  0  0  0  0  0  0  0  0  0  0  0
   24.8254   46.8314   16.9557 O   0  0  0  0  0  0  0  0  0  0  0  0
   25.3940   45.3629   16.6722 P   0  0  0  0  0  0  0  0  0  0  0  0
   24.2791   44.5025   15.8663 O   0  0  0  0  0  0  0  0  0  0  0  0
   26.6344   45.4245   15.9165 O   0  0  0  0  0  0  0  0  0  0  0  0
   24.6213   43.6116   15.6931 H   0  0  0  0  0  0  0  0  0  0  0  0
   25.4914   44.5704   18.0495 O   0  0  0  0  0  0  0  0  0  0  0  0
   24.2610   43.9585   18.8255 P   0  0  0  0  0  0  0  0  0  0  0  0
   22.9474   44.9426   18.7025 O   0  0  0  0  0  0  0  0  0  0  0  0
   24.6538   43.6482   20.2066 O   0  0  0  0  0  0  0  0  0  0  0  0
   22.2030   44.5501   19.1849 H   0  0  0  0  0  0  0  0  0  0  0  0
   23.6697   42.7435   18.0369 O   0  0  0  0  0  0  0  0  0  0  0  0
   22.0770   40.7648   17.9552 O   0  0  0  0  0  0  0  0  0  0  0  0
   22.1067   42.4182   17.9167 P   0  0  0  0  0  0  0  0  0  0  0  0
   21.2474   42.8853   19.2103 O   0  0  0  0  0  0  0  0  0  0  0  0
   21.5741   43.0192   16.6506 O   0  0  0  0  0  0  0  0  0  0  0  0
   21.1599   40.4562   17.8876 H   0  0  0  0  0  0  0  0  0  0  0  0
   20.3132   42.6613   19.0761 H   0  0  0  0  0  0  0  0  0  0  0  0
 37 38  1  0  0  0
 38 39  1  0  0  0
 38 40  2  0  0  0
 38 36  1  0  0  0
 36 32  1  0  0  0
 32 33  1  0  0  0
 32 34  2  0  0  0
 32 31  1  0  0  0
 31 27  1  0  0  0
 27 28  1  0  0  0
 27 29  2  0  0  0
 27 26  1  0  0  0
 26 25  1  0  0  0
 25  1  1  0  0  0
  1  2  1  0  0  0
  1  3  1  0  0  0
  2  7  1  0  0  0
  3  4  1  0  0  0
  3  5  1  0  0  0
  5  6  1  0  0  0
  5  7  1  0  0  0
  7 10  1  0  0  0
 10 11  1  0  0  0
 10 15  1  0  0  0
 11 12  2  0  0  0
 12 13  1  0  0  0
 12 14  1  0  0  0
 14 15  2  0  0  0
 14 20  1  0  0  0
 15 16  1  0  0  0
 16 17  2  0  0  0
 17 18  1  0  0  0
 17 19  1  0  0  0
 19 20  1  0  0  0
 20 21  2  0  0  0
 37 41  1  0  0  0
 39 42  1  0  0  0
 33 35  1  0  0  0
 28 30  1  0  0  0
  4  8  1  0  0  0
  6  9  1  0  0  0
 18 22  1  0  0  0
 18 23  1  0  0  0
 19 24  1  0  0  0
M  CHG 1  12   1
M  END
> <minimizedAffinity>
-8.75397

$$$$
2V8W_MGO_A_1218


 42 44  0  0  0  0  0  0  0  0999 V2000
   23.4641   44.3520   16.7780 C   0  0  0  0  0  0  0  0  0  0  0  0
   22.8451   45.2350   17.7254 O   0  0  0  0  0  0  0  0  0  0  0  0
   22.6786   44.7011   15.5296 C   0  0  0  0  0  0  0  0  0  0  0  0
   22.7944   43.6848   14.5631 O   0  0  0  0  0  0  0  0  0  0  0  0
   21.2576   44.7169   16.0833 C   0  0  0  0  0  0  0  0  0  0  0  0
   20.8002   43.3841   16.3406 O   0  0  0  0  0  0  0  0  0  0  0  0
   21.4717   45.4431   17.3934 C   0  0  0  0  0  0  0  0  0  0  0  0
   22.5170   42.8390   14.9485 H   0  0  0  0  0  0  0  0  0  0  0  0
   21.4244   42.9368   16.9331 H   0  0  0  0  0  0  0  0  0  0  0  0
   21.2059   46.8841   17.1599 N   0  0  0  0  0  0  0  0  0  0  0  0
   22.0806   47.8787   16.9283 C   0  0  0  0  0  0  0  0  0  0  0  0
   21.3769   48.9997   16.7421 N   0  0  0  0  0  0  0  0  0  0  0  0
   21.9790   50.3033   16.4542 C   0  0  0  0  0  0  0  0  0  0  0  0
   20.0695   48.7593   16.8894 C   0  0  0  0  0  0  0  0  0  0  0  0
   19.9734   47.3936   17.1395 C   0  0  0  0  0  0  0  0  0  0  0  0
   18.7403   46.7638   17.3526 C   0  0  0  0  0  0  0  0  0  0  0  0
   17.5965   47.5046   17.3056 C   0  0  0  0  0  0  0  0  0  0  0  0
   16.4264   46.8841   17.5198 N   0  0  0  0  0  0  0  0  0  0  0  0
   17.6564   48.8746   17.0274 N   0  0  0  0  0  0  0  0  0  0  0  0
   18.8968   49.5221   16.8288 C   0  0  0  0  0  0  0  0  0  0  0  0
   18.9158   50.7427   16.6076 O   0  0  0  0  0  0  0  0  0  0  0  0
   16.4093   45.9191   17.7138 H   0  0  0  0  0  0  0  0  0  0  0  0
   15.5850   47.3939   17.4829 H   0  0  0  0  0  0  0  0  0  0  0  0
   16.8226   49.3949   16.9692 H   0  0  0  0  0  0  0  0  0  0  0  0
   24.9132   44.8594   16.8550 C   0  0  0  0  0  0  0  0  0  0  0  0
   25.2015   45.6379   15.6773 O   0  0  0  0  0  0  0  0  0  0  0  0
   26.3794   46.7097   15.5227 P   0  0  0  0  0  0  0  0  0  0  0  0
   25.7896   48.1972   15.7915 O   0  0  0  0  0  0  0  0  0  0  0  0
   27.4680   46.4194   16.4415 O   0  0  0  0  0  0  0  0  0  0  0  0
   26.5019   48.8491   15.6984 H   0  0  0  0  0  0  0  0  0  0  0  0
   26.8048   46.7944   13.9909 O   0  0  0  0  0  0  0  0  0  0  0  0
   25.8901   47.3505   12.8314 P   0  0  0  0  0  0  0  0  0  0  0  0
   24.3362   47.5206   13.3468 O   0  0  0  0  0  0  0  0  0  0  0  0
   26.0398   46.5076   11.6377 O   0  0  0  0  0  0  0  0  0  0  0  0
   23.7906   47.8628   12.6214 H   0  0  0  0  0  0  0  0  0  0  0  0
   26.1825   48.8680   12.5877 O   0  0  0  0  0  0  0  0  0  0  0  0
   25.8115   51.2758   11.8642 O   0  0  0  0  0  0  0  0  0  0  0  0
   25.0773   50.0242   12.6584 P   0  0  0  0  0  0  0  0  0  0  0  0
   23.7450   49.6995   11.7927 O   0  0  0  0  0  0  0  0  0  0  0  0
   24.7506   50.3067   14.0942 O   0  0  0  0  0  0  0  0  0  0  0  0
   25.2170   52.0421   11.8489 H   0  0  0  0  0  0  0  0  0  0  0  0
   23.1178   50.4346   11.8765 H   0  0  0  0  0  0  0  0  0  0  0  0
 37 38  1  0  0  0
 38 39  1  0  0  0
 38 40  2  0  0  0
 38 36  1  0  0  0
 36 32  1  0  0  0
 32 33  1  0  0  0
 32 34  2  0  0  0
 32 31  1  0  0  0
 31 27  1  0  0  0
 27 28  1  0  0  0
 27 29  2  0  0  0
 27 26  1  0  0  0
 26 25  1  0  0  0
 25  1  1  0  0  0
  1  2  1  0  0  0
  1  3  1  0  0  0
  2  7  1  0  0  0
  3  4  1  0  0  0
  3  5  1  0  0  0
  5  6  1  0  0  0
  5  7  1  0  0  0
  7 10  1  0  0  0
 10 11  1  0  0  0
 10 15  1  0  0  0
 11 12  2  0  0  0
 12 13  1  0  0  0
 12 14  1  0  0  0
 14 15  2  0  0  0
 14 20  1  0  0  0
 15 16  1  0  0  0
 16 17  2  0  0  0
 17 18  1  0  0  0
 17 19  1  0  0  0
 19 20  1  0  0  0
 20 21  2  0  0  0
 37 41  1  0  0  0
 39 42  1  0  0  0
 33 35  1  0  0  0
 28 30  1  0  0  0
  4  8  1  0  0  0
  6  9  1  0  0  0
 18 22  1  0  0  0
 18 23  1  0  0  0
 19 24  1  0  0  0
M  CHG 1  12   1
M  END
> <minimizedAffinity>
-8.63342

$$$$
2V8W_MGO_A_1218


 42 44  0  0  0  0  0  0  0  0999 V2000
   23.2662   49.2386   18.3789 C   0  0  0  0  0  0  0  0  0  0  0  0
   22.4765   48.1095   17.9761 O   0  0  0  0  0  0  0  0  0  0  0  0
   22.4281   50.3693   17.8165 C   0  0  0  0  0  0  0  0  0  0  0  0
   23.1880   51.5482   17.7016 O   0  0  0  0  0  0  0  0  0  0  0  0
   22.1168   49.8274   16.4253 C   0  0  0  0  0  0  0  0  0  0  0  0
   23.2761   49.8915   15.5864 O   0  0  0  0  0  0  0  0  0  0  0  0
   21.8015   48.3830   16.7476 C   0  0  0  0  0  0  0  0  0  0  0  0
   23.9775   51.3731   17.1661 H   0  0  0  0  0  0  0  0  0  0  0  0
   24.0098   49.4212   16.0123 H   0  0  0  0  0  0  0  0  0  0  0  0
   20.3326   48.2701   16.9253 N   0  0  0  0  0  0  0  0  0  0  0  0
   19.4006   49.2389   16.8989 C   0  0  0  0  0  0  0  0  0  0  0  0
   18.2094   48.6576   17.0708 N   0  0  0  0  0  0  0  0  0  0  0  0
   16.9402   49.3880   17.0932 C   0  0  0  0  0  0  0  0  0  0  0  0
   18.3550   47.3401   17.2493 C   0  0  0  0  0  0  0  0  0  0  0  0
   19.7216   47.1032   17.1353 C   0  0  0  0  0  0  0  0  0  0  0  0
   20.2650   45.8188   17.2681 C   0  0  0  0  0  0  0  0  0  0  0  0
   19.4337   44.7647   17.5071 C   0  0  0  0  0  0  0  0  0  0  0  0
   19.9745   43.5440   17.6385 N   0  0  0  0  0  0  0  0  0  0  0  0
   18.0518   44.9649   17.5979 N   0  0  0  0  0  0  0  0  0  0  0  0
   17.4962   46.2592   17.4832 C   0  0  0  0  0  0  0  0  0  0  0  0
   16.2689   46.4047   17.5925 O   0  0  0  0  0  0  0  0  0  0  0  0
   20.9498   43.4277   17.5707 H   0  0  0  0  0  0  0  0  0  0  0  0
   19.3961   42.7644   17.8028 H   0  0  0  0  0  0  0  0  0  0  0  0
   17.4583   44.1931   17.7439 H   0  0  0  0  0  0  0  0  0  0  0  0
   23.2422   49.0443   19.9037 C   0  0  0  0  0  0  0  0  0  0  0  0
   24.5041   48.4920   20.3267 O   0  0  0  0  0  0  0  0  0  0  0  0
   24.7177   47.0856   21.0592 P   0  0  0  0  0  0  0  0  0  0  0  0
   25.9893   46.3246   20.3985 O   0  0  0  0  0  0  0  0  0  0  0  0
   24.9199   47.2703   22.4870 O   0  0  0  0  0  0  0  0  0  0  0  0
   26.1210   45.4714   20.8407 H   0  0  0  0  0  0  0  0  0  0  0  0
   23.5156   46.1145   20.6765 O   0  0  0  0  0  0  0  0  0  0  0  0
   23.6791   44.7170   19.9619 P   0  0  0  0  0  0  0  0  0  0  0  0
   22.2081   44.0555   19.6336 O   0  0  0  0  0  0  0  0  0  0  0  0
   24.5623   43.8556   20.7594 O   0  0  0  0  0  0  0  0  0  0  0  0
   22.3295   43.1987   19.1954 H   0  0  0  0  0  0  0  0  0  0  0  0
   24.1401   44.9140   18.4799 O   0  0  0  0  0  0  0  0  0  0  0  0
   24.5513   42.4100   18.3418 O   0  0  0  0  0  0  0  0  0  0  0  0
   24.2438   43.7355   17.4012 P   0  0  0  0  0  0  0  0  0  0  0  0
   22.8379   43.4102   16.6614 O   0  0  0  0  0  0  0  0  0  0  0  0
   25.3262   44.0623   16.4165 O   0  0  0  0  0  0  0  0  0  0  0  0
   24.6340   41.6253   17.7775 H   0  0  0  0  0  0  0  0  0  0  0  0
   22.9670   42.6910   16.0234 H   0  0  0  0  0  0  0  0  0  0  0  0
 37 38  1  0  0  0
 38 39  1  0  0  0
 38 40  2  0  0  0
 38 36  1  0  0  0
 36 32  1  0  0  0
 32 33  1  0  0  0
 32 34  2  0  0  0
 32 31  1  0  0  0
 31 27  1  0  0  0
 27 28  1  0  0  0
 27 29  2  0  0  0
 27 26  1  0  0  0
 26 25  1  0  0  0
 25  1  1  0  0  0
  1  2  1  0  0  0
  1  3  1  0  0  0
  2  7  1  0  0  0
  3  4  1  0  0  0
  3  5  1  0  0  0
  5  6  1  0  0  0
  5  7  1  0  0  0
  7 10  1  0  0  0
 10 11  1  0  0  0
 10 15  1  0  0  0
 11 12  2  0  0  0
 12 13  1  0  0  0
 12 14  1  0  0  0
 14 15  2  0  0  0
 14 20  1  0  0  0
 15 16  1  0  0  0
 16 17  2  0  0  0
 17 18  1  0  0  0
 17 19  1  0  0  0
 19 20  1  0  0  0
 20 21  2  0  0  0
 37 41  1  0  0  0
 39 42  1  0  0  0
 33 35  1  0  0  0
 28 30  1  0  0  0
  4  8  1  0  0  0
  6  9  1  0  0  0
 18 22  1  0  0  0
 18 23  1  0  0  0
 19 24  1  0  0  0
M  CHG 1  12   1
M  END
> <minimizedAffinity>
-8.43735

$$$$
2V8W_MGO_A_1218


 42 44  0  0  0  0  0  0  0  0999 V2000
   20.6091   43.0329   18.6018 C   0  0  0  0  0  0  0  0  0  0  0  0
   19.8907   44.2742   18.6640 O   0  0  0  0  0  0  0  0  0  0  0  0
   21.3910   43.2369   17.3195 C   0  0  0  0  0  0  0  0  0  0  0  0
   21.8459   42.0073   16.8080 O   0  0  0  0  0  0  0  0  0  0  0  0
   20.3024   43.7951   16.4088 C   0  0  0  0  0  0  0  0  0  0  0  0
   19.3889   42.7624   16.0206 O   0  0  0  0  0  0  0  0  0  0  0  0
   19.6116   44.7580   17.3496 C   0  0  0  0  0  0  0  0  0  0  0  0
   21.0925   41.4081   16.6888 H   0  0  0  0  0  0  0  0  0  0  0  0
   19.0272   42.3360   16.8132 H   0  0  0  0  0  0  0  0  0  0  0  0
   20.2170   46.0978   17.1495 N   0  0  0  0  0  0  0  0  0  0  0  0
   21.5115   46.4261   16.9922 C   0  0  0  0  0  0  0  0  0  0  0  0
   21.5729   47.7485   16.8078 N   0  0  0  0  0  0  0  0  0  0  0  0
   22.8197   48.4855   16.5910 C   0  0  0  0  0  0  0  0  0  0  0  0
   20.3510   48.2870   16.8841 C   0  0  0  0  0  0  0  0  0  0  0  0
   19.4887   47.2134   17.0856 C   0  0  0  0  0  0  0  0  0  0  0  0
   18.1051   47.3886   17.2187 C   0  0  0  0  0  0  0  0  0  0  0  0
   17.5817   48.6452   17.1400 C   0  0  0  0  0  0  0  0  0  0  0  0
   16.2553   48.7925   17.2775 N   0  0  0  0  0  0  0  0  0  0  0  0
   18.4183   49.7428   16.9087 N   0  0  0  0  0  0  0  0  0  0  0  0
   19.8169   49.5781   16.7910 C   0  0  0  0  0  0  0  0  0  0  0  0
   20.5324   50.5753   16.6099 O   0  0  0  0  0  0  0  0  0  0  0  0
   15.6868   48.0053   17.4397 H   0  0  0  0  0  0  0  0  0  0  0  0
   15.8505   49.6879   17.2162 H   0  0  0  0  0  0  0  0  0  0  0  0
   18.0270   50.6425   16.8268 H   0  0  0  0  0  0  0  0  0  0  0  0
   21.3957   43.1192   19.9198 C   0  0  0  0  0  0  0  0  0  0  0  0
   22.1888   44.3223   19.9154 O   0  0  0  0  0  0  0  0  0  0  0  0
   23.7862   44.3962   19.8629 P   0  0  0  0  0  0  0  0  0  0  0  0
   24.3712   44.4367   21.3758 O   0  0  0  0  0  0  0  0  0  0  0  0
   24.3337   43.2630   19.1350 O   0  0  0  0  0  0  0  0  0  0  0  0
   25.3397   44.4815   21.3468 H   0  0  0  0  0  0  0  0  0  0  0  0
   24.2206   45.8214   19.3020 O   0  0  0  0  0  0  0  0  0  0  0  0
   25.6967   46.3796   19.3068 P   0  0  0  0  0  0  0  0  0  0  0  0
   26.7732   45.1756   19.6245 O   0  0  0  0  0  0  0  0  0  0  0  0
   25.7877   47.5256   20.2213 O   0  0  0  0  0  0  0  0  0  0  0  0
   27.6730   45.5378   19.6232 H   0  0  0  0  0  0  0  0  0  0  0  0
   26.1685   46.6833   17.8464 O   0  0  0  0  0  0  0  0  0  0  0  0
   25.6910   44.3555   16.9454 O   0  0  0  0  0  0  0  0  0  0  0  0
   26.7854   45.5921   16.8504 P   0  0  0  0  0  0  0  0  0  0  0  0
   26.7675   46.0522   15.2954 O   0  0  0  0  0  0  0  0  0  0  0  0
   28.1679   45.2338   17.3069 O   0  0  0  0  0  0  0  0  0  0  0  0
   25.9739   43.6284   16.3691 H   0  0  0  0  0  0  0  0  0  0  0  0
   27.1526   45.3514   14.7464 H   0  0  0  0  0  0  0  0  0  0  0  0
 37 38  1  0  0  0
 38 39  1  0  0  0
 38 40  2  0  0  0
 38 36  1  0  0  0
 36 32  1  0  0  0
 32 33  1  0  0  0
 32 34  2  0  0  0
 32 31  1  0  0  0
 31 27  1  0  0  0
 27 28  1  0  0  0
 27 29  2  0  0  0
 27 26  1  0  0  0
 26 25  1  0  0  0
 25  1  1  0  0  0
  1  2  1  0  0  0
  1  3  1  0  0  0
  2  7  1  0  0  0
  3  4  1  0  0  0
  3  5  1  0  0  0
  5  6  1  0  0  0
  5  7  1  0  0  0
  7 10  1  0  0  0
 10 11  1  0  0  0
 10 15  1  0  0  0
 11 12  2  0  0  0
 12 13  1  0  0  0
 12 14  1  0  0  0
 14 15  2  0  0  0
 14 20  1  0  0  0
 15 16  1  0  0  0
 16 17  2  0  0  0
 17 18  1  0  0  0
 17 19  1  0  0  0
 19 20  1  0  0  0
 20 21  2  0  0  0
 37 41  1  0  0  0
 39 42  1  0  0  0
 33 35  1  0  0  0
 28 30  1  0  0  0
  4  8  1  0  0  0
  6  9  1  0  0  0
 18 22  1  0  0  0
 18 23  1  0  0  0
 19 24  1  0  0  0
M  CHG 1  12   1
M  END
> <minimizedAffinity>
-8.35544

$$$$
2V8W_MGO_A_1218


 42 44  0  0  0  0  0  0  0  0999 V2000
   23.3831   48.2181   18.6674 C   0  0  0  0  0  0  0  0  0  0  0  0
   22.5413   47.4965   17.7556 O   0  0  0  0  0  0  0  0  0  0  0  0
   22.5976   49.5078   18.7978 C   0  0  0  0  0  0  0  0  0  0  0  0
   23.4113   50.5429   19.2946 O   0  0  0  0  0  0  0  0  0  0  0  0
   22.2596   49.7835   17.3363 C   0  0  0  0  0  0  0  0  0  0  0  0
   23.4195   50.2305   16.6245 O   0  0  0  0  0  0  0  0  0  0  0  0
   21.8779   48.3966   16.8670 C   0  0  0  0  0  0  0  0  0  0  0  0
   24.1911   50.6422   18.7263 H   0  0  0  0  0  0  0  0  0  0  0  0
   24.1311   49.5790   16.7244 H   0  0  0  0  0  0  0  0  0  0  0  0
   20.4057   48.2648   16.9971 N   0  0  0  0  0  0  0  0  0  0  0  0
   19.4622   49.2207   16.9334 C   0  0  0  0  0  0  0  0  0  0  0  0
   18.2738   48.6244   17.0702 N   0  0  0  0  0  0  0  0  0  0  0  0
   16.9949   49.3375   17.0458 C   0  0  0  0  0  0  0  0  0  0  0  0
   18.4311   47.3101   17.2623 C   0  0  0  0  0  0  0  0  0  0  0  0
   19.8038   47.0911   17.1949 C   0  0  0  0  0  0  0  0  0  0  0  0
   20.3597   45.8151   17.3543 C   0  0  0  0  0  0  0  0  0  0  0  0
   19.5351   44.7513   17.5731 C   0  0  0  0  0  0  0  0  0  0  0  0
   20.0876   43.5390   17.7306 N   0  0  0  0  0  0  0  0  0  0  0  0
   18.1484   44.9332   17.6171 N   0  0  0  0  0  0  0  0  0  0  0  0
   17.5796   46.2191   17.4753 C   0  0  0  0  0  0  0  0  0  0  0  0
   16.3476   46.3487   17.5432 O   0  0  0  0  0  0  0  0  0  0  0  0
   21.0660   43.4356   17.6957 H   0  0  0  0  0  0  0  0  0  0  0  0
   19.5146   42.7527   17.8811 H   0  0  0  0  0  0  0  0  0  0  0  0
   17.5608   44.1544   17.7488 H   0  0  0  0  0  0  0  0  0  0  0  0
   23.3522   47.2581   19.8677 C   0  0  0  0  0  0  0  0  0  0  0  0
   23.3326   45.9011   19.3836 O   0  0  0  0  0  0  0  0  0  0  0  0
   24.4010   44.7621   19.7320 P   0  0  0  0  0  0  0  0  0  0  0  0
   25.8120   45.4552   20.1334 O   0  0  0  0  0  0  0  0  0  0  0  0
   23.9227   43.9164   20.8135 O   0  0  0  0  0  0  0  0  0  0  0  0
   26.4617   44.7667   20.3452 H   0  0  0  0  0  0  0  0  0  0  0  0
   24.7826   43.9840   18.3966 O   0  0  0  0  0  0  0  0  0  0  0  0
   25.2694   44.6708   17.0617 P   0  0  0  0  0  0  0  0  0  0  0  0
   23.9954   45.3077   16.2367 O   0  0  0  0  0  0  0  0  0  0  0  0
   26.0762   43.7210   16.2840 O   0  0  0  0  0  0  0  0  0  0  0  0
   24.3142   45.7245   15.4210 H   0  0  0  0  0  0  0  0  0  0  0  0
   25.9930   46.0216   17.3771 O   0  0  0  0  0  0  0  0  0  0  0  0
   26.7675   46.2435   14.9668 O   0  0  0  0  0  0  0  0  0  0  0  0
   26.3311   47.1425   16.2849 P   0  0  0  0  0  0  0  0  0  0  0  0
   25.0346   47.9908   15.8059 O   0  0  0  0  0  0  0  0  0  0  0  0
   27.4136   48.0350   16.8135 O   0  0  0  0  0  0  0  0  0  0  0  0
   26.9967   46.8353   14.2333 H   0  0  0  0  0  0  0  0  0  0  0  0
   25.3048   48.6500   15.1476 H   0  0  0  0  0  0  0  0  0  0  0  0
 37 38  1  0  0  0
 38 39  1  0  0  0
 38 40  2  0  0  0
 38 36  1  0  0  0
 36 32  1  0  0  0
 32 33  1  0  0  0
 32 34  2  0  0  0
 32 31  1  0  0  0
 31 27  1  0  0  0
 27 28  1  0  0  0
 27 29  2  0  0  0
 27 26  1  0  0  0
 26 25  1  0  0  0
 25  1  1  0  0  0
  1  2  1  0  0  0
  1  3  1  0  0  0
  2  7  1  0  0  0
  3  4  1  0  0  0
  3  5  1  0  0  0
  5  6  1  0  0  0
  5  7  1  0  0  0
  7 10  1  0  0  0
 10 11  1  0  0  0
 10 15  1  0  0  0
 11 12  2  0  0  0
 12 13  1  0  0  0
 12 14  1  0  0  0
 14 15  2  0  0  0
 14 20  1  0  0  0
 15 16  1  0  0  0
 16 17  2  0  0  0
 17 18  1  0  0  0
 17 19  1  0  0  0
 19 20  1  0  0  0
 20 21  2  0  0  0
 37 41  1  0  0  0
 39 42  1  0  0  0
 33 35  1  0  0  0
 28 30  1  0  0  0
  4  8  1  0  0  0
  6  9  1  0  0  0
 18 22  1  0  0  0
 18 23  1  0  0  0
 19 24  1  0  0  0
M  CHG 1  12   1
M  END
> <minimizedAffinity>
-8.04353

$$$$
2V8W_MGO_A_1218


 42 44  0  0  0  0  0  0  0  0999 V2000
   22.7135   44.4972   15.4866 C   0  0  0  0  0  0  0  0  0  0  0  0
   22.4312   45.6229   16.3314 O   0  0  0  0  0  0  0  0  0  0  0  0
   21.4016   43.7452   15.5909 C   0  0  0  0  0  0  0  0  0  0  0  0
   21.5610   42.4018   15.2032 O   0  0  0  0  0  0  0  0  0  0  0  0
   21.1530   43.8146   17.0940 C   0  0  0  0  0  0  0  0  0  0  0  0
   22.0392   42.9339   17.7945 O   0  0  0  0  0  0  0  0  0  0  0  0
   21.5338   45.2512   17.3784 C   0  0  0  0  0  0  0  0  0  0  0  0
   22.2631   41.9933   15.7335 H   0  0  0  0  0  0  0  0  0  0  0  0
   22.9566   43.1445   17.5599 H   0  0  0  0  0  0  0  0  0  0  0  0
   20.2961   46.0673   17.3164 N   0  0  0  0  0  0  0  0  0  0  0  0
   19.0173   45.6764   17.4577 C   0  0  0  0  0  0  0  0  0  0  0  0
   18.2492   46.7659   17.3599 N   0  0  0  0  0  0  0  0  0  0  0  0
   16.7890   46.7479   17.4705 C   0  0  0  0  0  0  0  0  0  0  0  0
   19.0003   47.8456   17.1169 C   0  0  0  0  0  0  0  0  0  0  0  0
   20.3135   47.3849   17.1096 C   0  0  0  0  0  0  0  0  0  0  0  0
   21.3984   48.2414   16.8811 C   0  0  0  0  0  0  0  0  0  0  0  0
   21.1669   49.5681   16.6680 C   0  0  0  0  0  0  0  0  0  0  0  0
   22.2187   50.3702   16.4436 N   0  0  0  0  0  0  0  0  0  0  0  0
   19.8604   50.0682   16.6981 N   0  0  0  0  0  0  0  0  0  0  0  0
   18.7584   49.2092   16.9100 C   0  0  0  0  0  0  0  0  0  0  0  0
   17.6112   49.6815   16.9070 O   0  0  0  0  0  0  0  0  0  0  0  0
   23.1289   49.9954   16.4270 H   0  0  0  0  0  0  0  0  0  0  0  0
   22.0802   51.3336   16.2955 H   0  0  0  0  0  0  0  0  0  0  0  0
   19.7067   51.0321   16.5697 H   0  0  0  0  0  0  0  0  0  0  0  0
   22.9959   45.2270   14.1634 C   0  0  0  0  0  0  0  0  0  0  0  0
   23.1464   46.6356   14.4269 O   0  0  0  0  0  0  0  0  0  0  0  0
   24.3122   47.5783   13.8679 P   0  0  0  0  0  0  0  0  0  0  0  0
   25.3078   46.7026   12.9327 O   0  0  0  0  0  0  0  0  0  0  0  0
   23.7608   48.6956   13.1187 O   0  0  0  0  0  0  0  0  0  0  0  0
   26.0157   47.2718   12.5924 H   0  0  0  0  0  0  0  0  0  0  0  0
   25.2675   47.9905   15.0728 O   0  0  0  0  0  0  0  0  0  0  0  0
   26.7680   47.5282   15.2315 P   0  0  0  0  0  0  0  0  0  0  0  0
   27.3527   47.9473   16.7119 O   0  0  0  0  0  0  0  0  0  0  0  0
   27.5622   48.0354   14.1046 O   0  0  0  0  0  0  0  0  0  0  0  0
   28.2743   47.6551   16.7901 H   0  0  0  0  0  0  0  0  0  0  0  0
   26.8422   45.9773   15.4238 O   0  0  0  0  0  0  0  0  0  0  0  0
   26.4421   43.6532   16.3708 O   0  0  0  0  0  0  0  0  0  0  0  0
   26.6474   45.2300   16.8263 P   0  0  0  0  0  0  0  0  0  0  0  0
   27.9799   45.2316   17.7506 O   0  0  0  0  0  0  0  0  0  0  0  0
   25.4739   45.8266   17.5439 O   0  0  0  0  0  0  0  0  0  0  0  0
   26.3134   43.1030   17.1593 H   0  0  0  0  0  0  0  0  0  0  0  0
   27.7974   44.7660   18.5818 H   0  0  0  0  0  0  0  0  0  0  0  0
 37 38  1  0  0  0
 38 39  1  0  0  0
 38 40  2  0  0  0
 38 36  1  0  0  0
 36 32  1  0  0  0
 32 33  1  0  0  0
 32 34  2  0  0  0
 32 31  1  0  0  0
 31 27  1  0  0  0
 27 28  1  0  0  0
 27 29  2  0  0  0
 27 26  1  0  0  0
 26 25  1  0  0  0
 25  1  1  0  0  0
  1  2  1  0  0  0
  1  3  1  0  0  0
  2  7  1  0  0  0
  3  4  1  0  0  0
  3  5  1  0  0  0
  5  6  1  0  0  0
  5  7  1  0  0  0
  7 10  1  0  0  0
 10 11  1  0  0  0
 10 15  1  0  0  0
 11 12  2  0  0  0
 12 13  1  0  0  0
 12 14  1  0  0  0
 14 15  2  0  0  0
 14 20  1  0  0  0
 15 16  1  0  0  0
 16 17  2  0  0  0
 17 18  1  0  0  0
 17 19  1  0  0  0
 19 20  1  0  0  0
 20 21  2  0  0  0
 37 41  1  0  0  0
 39 42  1  0  0  0
 33 35  1  0  0  0
 28 30  1  0  0  0
  4  8  1  0  0  0
  6  9  1  0  0  0
 18 22  1  0  0  0
 18 23  1  0  0  0
 19 24  1  0  0  0
M  CHG 1  12   1
M  END
> <minimizedAffinity>
-7.91044

$$$$
2V8W_MGO_A_1218


 42 44  0  0  0  0  0  0  0  0999 V2000
   23.9889   47.6075   16.6269 C   0  0  0  0  0  0  0  0  0  0  0  0
   22.7395   47.7196   15.9289 O   0  0  0  0  0  0  0  0  0  0  0  0
   23.4930   47.5197   18.0564 C   0  0  0  0  0  0  0  0  0  0  0  0
   24.5222   47.8304   18.9646 O   0  0  0  0  0  0  0  0  0  0  0  0
   22.4530   48.6352   18.0654 C   0  0  0  0  0  0  0  0  0  0  0  0
   23.0882   49.9191   18.0657 O   0  0  0  0  0  0  0  0  0  0  0  0
   21.7763   48.4028   16.7321 C   0  0  0  0  0  0  0  0  0  0  0  0
   24.8864   48.7044   18.7539 H   0  0  0  0  0  0  0  0  0  0  0  0
   23.6924   49.9810   17.3094 H   0  0  0  0  0  0  0  0  0  0  0  0
   20.5926   47.5403   16.9705 N   0  0  0  0  0  0  0  0  0  0  0  0
   20.5399   46.2102   17.1604 C   0  0  0  0  0  0  0  0  0  0  0  0
   19.2612   45.8831   17.3716 N   0  0  0  0  0  0  0  0  0  0  0  0
   18.7995   44.5172   17.6280 C   0  0  0  0  0  0  0  0  0  0  0  0
   18.4819   46.9664   17.2810 C   0  0  0  0  0  0  0  0  0  0  0  0
   19.3522   48.0255   17.0411 C   0  0  0  0  0  0  0  0  0  0  0  0
   18.8944   49.3402   16.8833 C   0  0  0  0  0  0  0  0  0  0  0  0
   17.5584   49.5964   16.9756 C   0  0  0  0  0  0  0  0  0  0  0  0
   17.1395   50.8606   16.8140 N   0  0  0  0  0  0  0  0  0  0  0  0
   16.6598   48.5582   17.2452 N   0  0  0  0  0  0  0  0  0  0  0  0
   17.1102   47.2263   17.3881 C   0  0  0  0  0  0  0  0  0  0  0  0
   16.2841   46.3259   17.6030 O   0  0  0  0  0  0  0  0  0  0  0  0
   17.7906   51.5745   16.6250 H   0  0  0  0  0  0  0  0  0  0  0  0
   16.1811   51.0745   16.8844 H   0  0  0  0  0  0  0  0  0  0  0  0
   15.7002   48.7584   17.3365 H   0  0  0  0  0  0  0  0  0  0  0  0
   24.5270   46.3137   15.9945 C   0  0  0  0  0  0  0  0  0  0  0  0
   25.8699   46.5435   15.5253 O   0  0  0  0  0  0  0  0  0  0  0  0
   27.2160   46.1436   16.2922 P   0  0  0  0  0  0  0  0  0  0  0  0
   27.1418   44.5822   16.7270 O   0  0  0  0  0  0  0  0  0  0  0  0
   28.3802   46.3848   15.4555 O   0  0  0  0  0  0  0  0  0  0  0  0
   27.9569   44.3370   17.1922 H   0  0  0  0  0  0  0  0  0  0  0  0
   27.2460   46.8790   17.7038 O   0  0  0  0  0  0  0  0  0  0  0  0
   27.4739   46.1594   19.0897 P   0  0  0  0  0  0  0  0  0  0  0  0
   27.3677   47.2369   20.3294 O   0  0  0  0  0  0  0  0  0  0  0  0
   28.7344   45.4060   19.0529 O   0  0  0  0  0  0  0  0  0  0  0  0
   27.5103   46.7764   21.1711 H   0  0  0  0  0  0  0  0  0  0  0  0
   26.2225   45.3006   19.4693 O   0  0  0  0  0  0  0  0  0  0  0  0
   25.0841   43.5055   20.8623 O   0  0  0  0  0  0  0  0  0  0  0  0
   25.7400   45.0202   20.9700 P   0  0  0  0  0  0  0  0  0  0  0  0
   26.9622   44.8761   22.0261 O   0  0  0  0  0  0  0  0  0  0  0  0
   24.7721   46.0877   21.3841 O   0  0  0  0  0  0  0  0  0  0  0  0
   24.7548   43.2332   21.7331 H   0  0  0  0  0  0  0  0  0  0  0  0
   26.6056   44.7080   22.9124 H   0  0  0  0  0  0  0  0  0  0  0  0
 37 38  1  0  0  0
 38 39  1  0  0  0
 38 40  2  0  0  0
 38 36  1  0  0  0
 36 32  1  0  0  0
 32 33  1  0  0  0
 32 34  2  0  0  0
 32 31  1  0  0  0
 31 27  1  0  0  0
 27 28  1  0  0  0
 27 29  2  0  0  0
 27 26  1  0  0  0
 26 25  1  0  0  0
 25  1  1  0  0  0
  1  2  1  0  0  0
  1  3  1  0  0  0
  2  7  1  0  0  0
  3  4  1  0  0  0
  3  5  1  0  0  0
  5  6  1  0  0  0
  5  7  1  0  0  0
  7 10  1  0  0  0
 10 11  1  0  0  0
 10 15  1  0  0  0
 11 12  2  0  0  0
 12 13  1  0  0  0
 12 14  1  0  0  0
 14 15  2  0  0  0
 14 20  1  0  0  0
 15 16  1  0  0  0
 16 17  2  0  0  0
 17 18  1  0  0  0
 17 19  1  0  0  0
 19 20  1  0  0  0
 20 21  2  0  0  0
 37 41  1  0  0  0
 39 42  1  0  0  0
 33 35  1  0  0  0
 28 30  1  0  0  0
  4  8  1  0  0  0
  6  9  1  0  0  0
 18 22  1  0  0  0
 18 23  1  0  0  0
 19 24  1  0  0  0
M  CHG 1  12   1
M  END
> <minimizedAffinity>
-7.89303

$$$$
2V8W_MGO_A_1218


 42 44  0  0  0  0  0  0  0  0999 V2000
   22.4601   44.0049   16.1487 C   0  0  0  0  0  0  0  0  0  0  0  0
   22.0115   44.8972   17.1799 O   0  0  0  0  0  0  0  0  0  0  0  0
   21.1281   43.5502   15.5863 C   0  0  0  0  0  0  0  0  0  0  0  0
   21.2734   42.3574   14.8538 O   0  0  0  0  0  0  0  0  0  0  0  0
   20.3586   43.2667   16.8722 C   0  0  0  0  0  0  0  0  0  0  0  0
   20.8300   42.0628   17.4888 O   0  0  0  0  0  0  0  0  0  0  0  0
   20.7606   44.4594   17.7121 C   0  0  0  0  0  0  0  0  0  0  0  0
   21.6866   41.6821   15.4143 H   0  0  0  0  0  0  0  0  0  0  0  0
   21.7867   42.1277   17.6353 H   0  0  0  0  0  0  0  0  0  0  0  0
   19.7249   45.5069   17.5342 N   0  0  0  0  0  0  0  0  0  0  0  0
   18.3863   45.3901   17.5856 C   0  0  0  0  0  0  0  0  0  0  0  0
   17.8676   46.6081   17.4016 N   0  0  0  0  0  0  0  0  0  0  0  0
   16.4308   46.8918   17.3991 C   0  0  0  0  0  0  0  0  0  0  0  0
   18.8400   47.5020   17.1909 C   0  0  0  0  0  0  0  0  0  0  0  0
   20.0275   46.7841   17.2969 C   0  0  0  0  0  0  0  0  0  0  0  0
   21.2788   47.3923   17.1320 C   0  0  0  0  0  0  0  0  0  0  0  0
   21.3408   48.7288   16.8689 C   0  0  0  0  0  0  0  0  0  0  0  0
   22.5482   49.2907   16.7069 N   0  0  0  0  0  0  0  0  0  0  0  0
   20.1663   49.4848   16.7852 N   0  0  0  0  0  0  0  0  0  0  0  0
   18.8990   48.8769   16.9323 C   0  0  0  0  0  0  0  0  0  0  0  0
   17.8767   49.5720   16.8286 O   0  0  0  0  0  0  0  0  0  0  0  0
   23.3607   48.7384   16.7702 H   0  0  0  0  0  0  0  0  0  0  0  0
   22.6218   50.2554   16.5247 H   0  0  0  0  0  0  0  0  0  0  0  0
   20.2236   50.4539   16.6215 H   0  0  0  0  0  0  0  0  0  0  0  0
   23.2806   44.9842   15.2937 C   0  0  0  0  0  0  0  0  0  0  0  0
   24.0557   45.8318   16.1638 O   0  0  0  0  0  0  0  0  0  0  0  0
   25.6322   45.7295   16.4174 P   0  0  0  0  0  0  0  0  0  0  0  0
   26.0069   44.2141   16.8597 O   0  0  0  0  0  0  0  0  0  0  0  0
   26.3744   46.1113   15.2271 O   0  0  0  0  0  0  0  0  0  0  0  0
   26.9624   44.1493   17.0142 H   0  0  0  0  0  0  0  0  0  0  0  0
   26.0008   46.5570   17.7266 O   0  0  0  0  0  0  0  0  0  0  0  0
   26.9548   46.0469   18.8756 P   0  0  0  0  0  0  0  0  0  0  0  0
   27.2013   47.2284   19.9948 O   0  0  0  0  0  0  0  0  0  0  0  0
   28.1883   45.5062   18.2891 O   0  0  0  0  0  0  0  0  0  0  0  0
   27.7889   46.8964   20.6914 H   0  0  0  0  0  0  0  0  0  0  0  0
   26.1955   45.0479   19.8100 O   0  0  0  0  0  0  0  0  0  0  0  0
   24.8986   46.3866   21.5375 O   0  0  0  0  0  0  0  0  0  0  0  0
   24.6999   45.2638   20.3392 P   0  0  0  0  0  0  0  0  0  0  0  0
   23.7260   45.9736   19.2540 O   0  0  0  0  0  0  0  0  0  0  0  0
   24.1473   43.9502   20.8050 O   0  0  0  0  0  0  0  0  0  0  0  0
   24.0373   46.5933   21.9330 H   0  0  0  0  0  0  0  0  0  0  0  0
   22.8391   46.0755   19.6335 H   0  0  0  0  0  0  0  0  0  0  0  0
 37 38  1  0  0  0
 38 39  1  0  0  0
 38 40  2  0  0  0
 38 36  1  0  0  0
 36 32  1  0  0  0
 32 33  1  0  0  0
 32 34  2  0  0  0
 32 31  1  0  0  0
 31 27  1  0  0  0
 27 28  1  0  0  0
 27 29  2  0  0  0
 27 26  1  0  0  0
 26 25  1  0  0  0
 25  1  1  0  0  0
  1  2  1  0  0  0
  1  3  1  0  0  0
  2  7  1  0  0  0
  3  4  1  0  0  0
  3  5  1  0  0  0
  5  6  1  0  0  0
  5  7  1  0  0  0
  7 10  1  0  0  0
 10 11  1  0  0  0
 10 15  1  0  0  0
 11 12  2  0  0  0
 12 13  1  0  0  0
 12 14  1  0  0  0
 14 15  2  0  0  0
 14 20  1  0  0  0
 15 16  1  0  0  0
 16 17  2  0  0  0
 17 18  1  0  0  0
 17 19  1  0  0  0
 19 20  1  0  0  0
 20 21  2  0  0  0
 37 41  1  0  0  0
 39 42  1  0  0  0
 33 35  1  0  0  0
 28 30  1  0  0  0
  4  8  1  0  0  0
  6  9  1  0  0  0
 18 22  1  0  0  0
 18 23  1  0  0  0
 19 24  1  0  0  0
M  CHG 1  12   1
M  END
> <minimizedAffinity>
-7.80198

$$$$
2V8W_MGO_A_1218


 42 44  0  0  0  0  0  0  0  0999 V2000
   23.6174   49.1710   17.4042 C   0  0  0  0  0  0  0  0  0  0  0  0
   22.7036   48.5947   16.4589 O   0  0  0  0  0  0  0  0  0  0  0  0
   22.7441   49.1976   18.6427 C   0  0  0  0  0  0  0  0  0  0  0  0
   23.2519   50.1003   19.5955 O   0  0  0  0  0  0  0  0  0  0  0  0
   21.4452   49.7476   18.0627 C   0  0  0  0  0  0  0  0  0  0  0  0
   21.5710   51.1454   17.7764 O   0  0  0  0  0  0  0  0  0  0  0  0
   21.3605   48.9688   16.7681 C   0  0  0  0  0  0  0  0  0  0  0  0
   23.3459   50.9774   19.1920 H   0  0  0  0  0  0  0  0  0  0  0  0
   22.3296   51.2882   17.1889 H   0  0  0  0  0  0  0  0  0  0  0  0
   20.5301   47.7649   17.0187 N   0  0  0  0  0  0  0  0  0  0  0  0
   20.9201   46.4902   17.1948 C   0  0  0  0  0  0  0  0  0  0  0  0
   19.8240   45.7611   17.4258 N   0  0  0  0  0  0  0  0  0  0  0  0
   19.8408   44.3181   17.6755 C   0  0  0  0  0  0  0  0  0  0  0  0
   18.7310   46.5294   17.3616 C   0  0  0  0  0  0  0  0  0  0  0  0
   19.2009   47.8163   17.1175 C   0  0  0  0  0  0  0  0  0  0  0  0
   18.3344   48.9089   16.9827 C   0  0  0  0  0  0  0  0  0  0  0  0
   16.9904   48.7125   17.1025 C   0  0  0  0  0  0  0  0  0  0  0  0
   16.1771   49.7703   16.9627 N   0  0  0  0  0  0  0  0  0  0  0  0
   16.4875   47.4359   17.3770 N   0  0  0  0  0  0  0  0  0  0  0  0
   17.3524   46.3247   17.4968 C   0  0  0  0  0  0  0  0  0  0  0  0
   16.8716   45.2023   17.7169 O   0  0  0  0  0  0  0  0  0  0  0  0
   16.5542   50.6590   16.7697 H   0  0  0  0  0  0  0  0  0  0  0  0
   15.2033   49.6578   17.0531 H   0  0  0  0  0  0  0  0  0  0  0  0
   15.5174   47.3101   17.4882 H   0  0  0  0  0  0  0  0  0  0  0  0
   24.7364   48.1178   17.3622 C   0  0  0  0  0  0  0  0  0  0  0  0
   25.1918   47.9702   16.0031 O   0  0  0  0  0  0  0  0  0  0  0  0
   25.4353   46.5867   15.2372 P   0  0  0  0  0  0  0  0  0  0  0  0
   26.9707   46.1126   15.4614 O   0  0  0  0  0  0  0  0  0  0  0  0
   24.5130   45.5654   15.7062 O   0  0  0  0  0  0  0  0  0  0  0  0
   27.1211   45.2739   14.9980 H   0  0  0  0  0  0  0  0  0  0  0  0
   25.3962   46.8498   13.6676 O   0  0  0  0  0  0  0  0  0  0  0  0
   26.4662   47.6903   12.8682 P   0  0  0  0  0  0  0  0  0  0  0  0
   27.2052   48.7809   13.8551 O   0  0  0  0  0  0  0  0  0  0  0  0
   25.8399   48.2823   11.6785 O   0  0  0  0  0  0  0  0  0  0  0  0
   27.8580   49.2868   13.3464 H   0  0  0  0  0  0  0  0  0  0  0  0
   27.7276   46.8165   12.5632 O   0  0  0  0  0  0  0  0  0  0  0  0
   28.9175   48.7812   11.4758 O   0  0  0  0  0  0  0  0  0  0  0  0
   29.2015   47.4021   12.3440 P   0  0  0  0  0  0  0  0  0  0  0  0
   29.9082   47.9049   13.7142 O   0  0  0  0  0  0  0  0  0  0  0  0
   30.0367   46.3810   11.6314 O   0  0  0  0  0  0  0  0  0  0  0  0
   29.7600   49.2226   11.2854 H   0  0  0  0  0  0  0  0  0  0  0  0
   30.7938   48.2466   13.5148 H   0  0  0  0  0  0  0  0  0  0  0  0
 37 38  1  0  0  0
 38 39  1  0  0  0
 38 40  2  0  0  0
 38 36  1  0  0  0
 36 32  1  0  0  0
 32 33  1  0  0  0
 32 34  2  0  0  0
 32 31  1  0  0  0
 31 27  1  0  0  0
 27 28  1  0  0  0
 27 29  2  0  0  0
 27 26  1  0  0  0
 26 25  1  0  0  0
 25  1  1  0  0  0
  1  2  1  0  0  0
  1  3  1  0  0  0
  2  7  1  0  0  0
  3  4  1  0  0  0
  3  5  1  0  0  0
  5  6  1  0  0  0
  5  7  1  0  0  0
  7 10  1  0  0  0
 10 11  1  0  0  0
 10 15  1  0  0  0
 11 12  2  0  0  0
 12 13  1  0  0  0
 12 14  1  0  0  0
 14 15  2  0  0  0
 14 20  1  0  0  0
 15 16  1  0  0  0
 16 17  2  0  0  0
 17 18  1  0  0  0
 17 19  1  0  0  0
 19 20  1  0  0  0
 20 21  2  0  0  0
 37 41  1  0  0  0
 39 42  1  0  0  0
 33 35  1  0  0  0
 28 30  1  0  0  0
  4  8  1  0  0  0
  6  9  1  0  0  0
 18 22  1  0  0  0
 18 23  1  0  0  0
 19 24  1  0  0  0
M  CHG 1  12   1
M  END
> <minimizedAffinity>
-7.66453

$$$$
