4IUE_AJ4_A_1204


 20 22  0  0  0  0  0  0  0  0999 V2000
    5.6097  -12.2616  -14.3886 C   0  0  0  0  0  0  0  0  0  0  0  0
    4.1315  -12.0494  -13.9362 C   0  0  0  0  0  0  0  0  0  0  0  0
    3.1021  -12.0431  -14.9032 C   0  0  0  0  0  0  0  0  0  0  0  0
    1.7752  -11.8464  -14.5186 C   0  0  0  0  0  0  0  0  0  0  0  0
    0.8374  -11.8552  -15.3273 O   0  0  0  0  0  0  0  0  0  0  0  0
    1.4783  -11.6575  -13.1530 N   0  0  0  0  0  0  0  0  0  0  0  0
    2.4819  -11.6660  -12.1795 C   0  0  0  0  0  0  0  0  0  0  0  0
    2.1366  -11.4657  -10.8415 C   0  0  0  0  0  0  0  0  0  0  0  0
    3.8218  -11.8568  -12.5597 C   0  0  0  0  0  0  0  0  0  0  0  0
    4.8128  -11.8316  -11.5335 C   0  0  0  0  0  0  0  0  0  0  0  0
    4.4481  -11.6500  -10.1783 C   0  0  0  0  0  0  0  0  0  0  0  0
    3.1045  -11.4536   -9.8310 C   0  0  0  0  0  0  0  0  0  0  0  0
    0.5433  -11.5165  -12.8789 H   0  0  0  0  0  0  0  0  0  0  0  0
    2.6866  -11.2964   -8.4985 C   0  0  0  0  0  0  0  0  0  0  0  0
    3.3492  -10.3915   -7.6551 C   0  0  0  0  0  0  0  0  0  0  0  0
    2.9562  -10.2056   -6.3354 C   0  0  0  0  0  0  0  0  0  0  0  0
    1.8984  -10.9339   -5.8144 C   0  0  0  0  0  0  0  0  0  0  0  0
    1.2226  -11.8645   -6.6234 C   0  0  0  0  0  0  0  0  0  0  0  0
    1.5836  -12.0533   -7.9704 C   0  0  0  0  0  0  0  0  0  0  0  0
    0.8642  -12.9835   -8.6937 F   0  0  0  0  0  0  0  0  0  0  0  0
  5  4  2  0  0  0
  3  4  1  0  0  0
  3  2  2  0  0  0
  4  6  1  0  0  0
  1  2  1  0  0  0
  2  9  1  0  0  0
  6  7  1  0  0  0
  9  7  2  0  0  0
  9 10  1  0  0  0
  7  8  1  0  0  0
 10 11  2  0  0  0
  8 12  2  0  0  0
 11 12  1  0  0  0
 12 14  1  0  0  0
 20 19  1  0  0  0
 14 19  2  0  0  0
 14 15  1  0  0  0
 19 18  1  0  0  0
 15 16  2  0  0  0
 18 17  2  0  0  0
 16 17  1  0  0  0
  6 13  1  0  0  0
M  END
> <minimizedAffinity>
-12.40796

$$$$
4IUE_AJ4_A_1204


 20 22  0  0  0  0  0  0  0  0999 V2000
    2.9671  -12.0910  -15.5719 C   0  0  0  0  0  0  0  0  0  0  0  0
    4.0386  -12.0825  -14.4375 C   0  0  0  0  0  0  0  0  0  0  0  0
    5.4010  -12.2580  -14.7661 C   0  0  0  0  0  0  0  0  0  0  0  0
    6.3725  -12.2617  -13.7644 C   0  0  0  0  0  0  0  0  0  0  0  0
    7.5803  -12.3895  -14.0062 O   0  0  0  0  0  0  0  0  0  0  0  0
    5.9746  -12.0850  -12.4230 N   0  0  0  0  0  0  0  0  0  0  0  0
    4.6320  -11.9040  -12.0774 C   0  0  0  0  0  0  0  0  0  0  0  0
    4.2890  -11.7419  -10.7336 C   0  0  0  0  0  0  0  0  0  0  0  0
    3.6465  -11.9058  -13.0800 C   0  0  0  0  0  0  0  0  0  0  0  0
    2.2879  -11.7435  -12.6755 C   0  0  0  0  0  0  0  0  0  0  0  0
    1.9550  -11.5577  -11.3127 C   0  0  0  0  0  0  0  0  0  0  0  0
    2.9590  -11.5693  -10.3347 C   0  0  0  0  0  0  0  0  0  0  0  0
    6.6577  -12.0892  -11.7140 H   0  0  0  0  0  0  0  0  0  0  0  0
    2.6849  -11.3619   -8.9720 C   0  0  0  0  0  0  0  0  0  0  0  0
    3.4475  -10.4452   -8.2323 C   0  0  0  0  0  0  0  0  0  0  0  0
    3.1972  -10.2100   -6.8858 C   0  0  0  0  0  0  0  0  0  0  0  0
    2.1868  -10.8994   -6.2343 C   0  0  0  0  0  0  0  0  0  0  0  0
    1.4142  -11.8404   -6.9377 C   0  0  0  0  0  0  0  0  0  0  0  0
    1.6297  -12.0787   -8.3078 C   0  0  0  0  0  0  0  0  0  0  0  0
    0.8226  -13.0157   -8.9214 F   0  0  0  0  0  0  0  0  0  0  0  0
  5  4  2  0  0  0
  3  4  1  0  0  0
  3  2  2  0  0  0
  4  6  1  0  0  0
  1  2  1  0  0  0
  2  9  1  0  0  0
  6  7  1  0  0  0
  9  7  2  0  0  0
  9 10  1  0  0  0
  7  8  1  0  0  0
 10 11  2  0  0  0
  8 12  2  0  0  0
 11 12  1  0  0  0
 12 14  1  0  0  0
 20 19  1  0  0  0
 14 19  2  0  0  0
 14 15  1  0  0  0
 19 18  1  0  0  0
 15 16  2  0  0  0
 18 17  2  0  0  0
 16 17  1  0  0  0
  6 13  1  0  0  0
M  END
> <minimizedAffinity>
-11.65183

$$$$
4IUE_AJ4_A_1204


 20 22  0  0  0  0  0  0  0  0999 V2000
    4.1643  -10.6529   -6.2882 C   0  0  0  0  0  0  0  0  0  0  0  0
    2.9345  -10.5708   -7.2452 C   0  0  0  0  0  0  0  0  0  0  0  0
    1.6834  -10.1577   -6.7365 C   0  0  0  0  0  0  0  0  0  0  0  0
    0.5705  -10.0863   -7.5754 C   0  0  0  0  0  0  0  0  0  0  0  0
   -0.5405   -9.7085   -7.1798 O   0  0  0  0  0  0  0  0  0  0  0  0
    0.7144  -10.4292   -8.9357 N   0  0  0  0  0  0  0  0  0  0  0  0
    1.9454  -10.8349   -9.4602 C   0  0  0  0  0  0  0  0  0  0  0  0
    2.0333  -11.1721  -10.8124 C   0  0  0  0  0  0  0  0  0  0  0  0
    3.0697  -10.9159   -8.6201 C   0  0  0  0  0  0  0  0  0  0  0  0
    4.2975  -11.3600   -9.1957 C   0  0  0  0  0  0  0  0  0  0  0  0
    4.3794  -11.6774  -10.5723 C   0  0  0  0  0  0  0  0  0  0  0  0
    3.2389  -11.5952  -11.3829 C   0  0  0  0  0  0  0  0  0  0  0  0
   -0.0694  -10.3817   -9.5294 H   0  0  0  0  0  0  0  0  0  0  0  0
    3.2727  -11.8724  -12.7602 C   0  0  0  0  0  0  0  0  0  0  0  0
    2.0781  -11.9464  -13.4928 C   0  0  0  0  0  0  0  0  0  0  0  0
    2.0766  -12.2099  -14.8572 C   0  0  0  0  0  0  0  0  0  0  0  0
    3.2710  -12.4253  -15.5264 C   0  0  0  0  0  0  0  0  0  0  0  0
    4.4871  -12.3787  -14.8220 C   0  0  0  0  0  0  0  0  0  0  0  0
    4.5186  -12.0883  -13.4454 C   0  0  0  0  0  0  0  0  0  0  0  0
    5.7558  -12.0578  -12.8336 F   0  0  0  0  0  0  0  0  0  0  0  0
  5  4  2  0  0  0
  3  4  1  0  0  0
  3  2  2  0  0  0
  4  6  1  0  0  0
  1  2  1  0  0  0
  2  9  1  0  0  0
  6  7  1  0  0  0
  9  7  2  0  0  0
  9 10  1  0  0  0
  7  8  1  0  0  0
 10 11  2  0  0  0
  8 12  2  0  0  0
 11 12  1  0  0  0
 12 14  1  0  0  0
 20 19  1  0  0  0
 14 19  2  0  0  0
 14 15  1  0  0  0
 19 18  1  0  0  0
 15 16  2  0  0  0
 18 17  2  0  0  0
 16 17  1  0  0  0
  6 13  1  0  0  0
M  END
> <minimizedAffinity>
-11.26543

$$$$
4IUE_AJ4_A_1204


 20 22  0  0  0  0  0  0  0  0999 V2000
    0.0087   -9.9454   -7.0984 C   0  0  0  0  0  0  0  0  0  0  0  0
    1.5242  -10.3079   -7.1806 C   0  0  0  0  0  0  0  0  0  0  0  0
    2.3084  -10.2903   -6.0061 C   0  0  0  0  0  0  0  0  0  0  0  0
    3.6672  -10.6035   -6.0613 C   0  0  0  0  0  0  0  0  0  0  0  0
    4.3891  -10.6231   -5.0554 O   0  0  0  0  0  0  0  0  0  0  0  0
    4.2430  -10.9399   -7.3039 N   0  0  0  0  0  0  0  0  0  0  0  0
    3.4829  -10.9688   -8.4771 C   0  0  0  0  0  0  0  0  0  0  0  0
    4.1026  -11.2998   -9.6838 C   0  0  0  0  0  0  0  0  0  0  0  0
    2.1149  -10.6479   -8.4308 C   0  0  0  0  0  0  0  0  0  0  0  0
    1.3872  -10.6661   -9.6580 C   0  0  0  0  0  0  0  0  0  0  0  0
    2.0213  -11.0249  -10.8712 C   0  0  0  0  0  0  0  0  0  0  0  0
    3.3889  -11.3314  -10.8870 C   0  0  0  0  0  0  0  0  0  0  0  0
    5.2018  -11.1593   -7.3463 H   0  0  0  0  0  0  0  0  0  0  0  0
    4.0597  -11.7203  -12.0591 C   0  0  0  0  0  0  0  0  0  0  0  0
    5.4623  -11.7512  -12.0901 C   0  0  0  0  0  0  0  0  0  0  0  0
    6.1564  -12.1392  -13.2297 C   0  0  0  0  0  0  0  0  0  0  0  0
    5.4668  -12.4908  -14.3793 C   0  0  0  0  0  0  0  0  0  0  0  0
    4.0613  -12.4530  -14.3926 C   0  0  0  0  0  0  0  0  0  0  0  0
    3.3335  -12.0889  -13.2445 C   0  0  0  0  0  0  0  0  0  0  0  0
    1.9566  -12.0831  -13.3440 F   0  0  0  0  0  0  0  0  0  0  0  0
  5  4  2  0  0  0
  3  4  1  0  0  0
  3  2  2  0  0  0
  4  6  1  0  0  0
  1  2  1  0  0  0
  2  9  1  0  0  0
  6  7  1  0  0  0
  9  7  2  0  0  0
  9 10  1  0  0  0
  7  8  1  0  0  0
 10 11  2  0  0  0
  8 12  2  0  0  0
 11 12  1  0  0  0
 12 14  1  0  0  0
 20 19  1  0  0  0
 14 19  2  0  0  0
 14 15  1  0  0  0
 19 18  1  0  0  0
 15 16  2  0  0  0
 18 17  2  0  0  0
 16 17  1  0  0  0
  6 13  1  0  0  0
M  END
> <minimizedAffinity>
-9.50383

$$$$
