4KP5_E1F_A_302
  RCSB PDB12061713243D
Coordinates from PDB:4KP5:A:302 Model:1 without hydrogens
 21 22  0  0  0  0            999 V2000
   22.9710    2.5690    8.5320   O 0  0  0  0  0  0  0  0  0  0  0  0
   28.3700   12.2560    9.7690   C 0  0  0  0  0  0  0  0  0  0  0  0
   26.6540    5.8560   10.5470   C 0  0  0  0  0  0  0  0  0  0  0  0
   25.8200    4.1040    9.0430   C 0  0  0  0  0  0  0  0  0  0  0  0
   25.9860    3.2770    7.6250  Cl 0  0  0  0  0  0  0  0  0  0  0  0
   26.7170    5.1920    9.3440   C 0  0  0  0  0  0  0  0  0  0  0  0
   25.6230    5.5820   11.4460   C 0  0  0  0  0  0  0  0  0  0  0  0
   24.7210    4.4690   11.2300   C 0  0  0  0  0  0  0  0  0  0  0  0
   24.8170    3.8300    9.9860   C 0  0  0  0  0  0  0  0  0  0  0  0
   23.7370    2.3760    9.8330   S 0  0  0  0  0  0  0  0  0  0  0  0
   22.7700    2.3350   11.0670   N 0  0  0  0  0  0  0  0  0  0  0  0
   24.6950    1.1760    9.8600   O 0  0  0  0  0  0  0  0  0  0  0  0
   27.6660    6.9460   10.7130   C 0  0  0  0  0  0  0  0  0  0  0  0
   27.5500    7.5510   11.7800   O 0  0  0  0  0  0  0  0  0  0  0  0
   28.6650    7.2000    9.5850   C 0  0  0  0  0  0  0  0  0  0  0  0
   29.8370    8.5850   10.0550   S 0  0  0  0  0  0  0  0  0  0  0  0
   28.7270    9.9320    9.7700   C 0  0  0  0  0  0  0  0  0  0  0  0
   27.4710    9.7500    9.2450   N 0  0  0  0  0  0  0  0  0  0  0  0
   26.6760   10.8090    8.9580   C 0  0  0  0  0  0  0  0  0  0  0  0
   27.0970   12.0920    9.2180   C 0  0  0  0  0  0  0  0  0  0  0  0
   29.1720   11.1950   10.0630   N 0  0  0  0  0  0  0  0  0  0  0  0
 16 17  1  0  0  0  0
 16 15  1  0  0  0  0
 18 17  2  0  0  0  0
 18 19  1  0  0  0  0
 17 21  1  0  0  0  0
 15 13  1  0  0  0  0
 14 13  2  0  0  0  0
 19 20  2  0  0  0  0
 13  3  1  0  0  0  0
  7  3  2  0  0  0  0
  7  8  1  0  0  0  0
  3  6  1  0  0  0  0
 21  2  2  0  0  0  0
 20  2  1  0  0  0  0
  8  9  2  0  0  0  0
  6  4  2  0  0  0  0
  9  4  1  0  0  0  0
  9 10  1  0  0  0  0
  4  5  1  0  0  0  0
 11 10  1  0  0  0  0
 12 10  2  0  0  0  0
 10  1  2  0  0  0  0
A    1
O18
A    2
C13
A    3
C1
A    4
C2
A    5
CL1
A    6
C21
A    7
C5
A    8
C4
A    9
C3
A   10
S16
A   11
N19
A   12
O17
A   13
C6
A   14
O12
A   15
C7
A   16
S8
A   17
C9
A   18
N11
A   19
C14
A   20
C15
A   21
N10
M  END
>  <InstanceId>
4KP5_E1F_A_302

>  <ChemCompId>
E1F

>  <PdbId>
4KP5

>  <ChainId>
A

>  <ResidueNumber>
302

>  <InsertionCode>


>  <Model>
1

>  <AltIds>


>  <MissingHeavyAtoms>
0

>  <ObservedFormula>
C12 N3 O3 S2 Cl

>  <Name>
2-chloro-4-[(pyrimidin-2-ylsulfanyl)acetyl]benzenesulfonamide

>  <SystematicName>
2-chloranyl-4-(2-pyrimidin-2-ylsulfanylethanoyl)benzenesulfonamide

>  <Synonyms>


>  <Type>
NON-POLYMER

>  <Formula>
C12 H10 Cl N3 O3 S2

>  <MolecularWeight>
343.809

>  <ModifiedDate>
2013-11-01

>  <Parent>


>  <OneLetterCode>


>  <SubcomponentList>


>  <AmbiguousFlag>
N

>  <InChI>
InChI=1S/C12H10ClN3O3S2/c13-9-6-8(2-3-11(9)21(14,18)19)10(17)7-20-12-15-4-1-5-16-12/h1-6H,7H2,(H2,14,18,19)

>  <InChIKey>
ZQEDEEFNLDNUEW-UHFFFAOYSA-N

>  <SMILES>
c1cnc(nc1)SCC(=O)c2ccc(c(c2)Cl)S(=O)(=O)N

$$$$
