4LY1_20Y_A_407


 29 31  0  0  0  0  0  0  0  0999 V2000
   21.7902  -17.9641   -0.2355 C   0  0  0  0  0  0  0  0  0  0  0  0
   20.8444  -17.4076   -0.7827 O   0  0  0  0  0  0  0  0  0  0  0  0
   21.5721  -18.9500    0.6565 N   0  0  0  0  0  0  0  0  0  0  0  0
   22.3582  -19.3174    1.1216 H   0  0  0  0  0  0  0  0  0  0  0  0
   20.3228  -19.4981    0.9800 C   0  0  0  0  0  0  0  0  0  0  0  0
   19.9830  -19.5739    2.3336 C   0  0  0  0  0  0  0  0  0  0  0  0
   18.7968  -20.2142    2.7331 C   0  0  0  0  0  0  0  0  0  0  0  0
   17.9677  -20.7719    1.7455 C   0  0  0  0  0  0  0  0  0  0  0  0
   18.3180  -20.7262    0.4003 C   0  0  0  0  0  0  0  0  0  0  0  0
   19.4943  -20.0850   -0.0104 C   0  0  0  0  0  0  0  0  0  0  0  0
   19.8330  -20.0393   -1.3909 N   0  0  0  0  0  0  0  0  0  0  0  0
   19.2395  -20.4550   -2.0574 H   0  0  0  0  0  0  0  0  0  0  0  0
   20.6609  -19.5919   -1.6800 H   0  0  0  0  0  0  0  0  0  0  0  0
   18.4081  -20.1900    4.1618 C   0  0  0  0  0  0  0  0  0  0  0  0
   19.2256  -20.3526    5.2226 C   0  0  0  0  0  0  0  0  0  0  0  0
   18.5827  -20.3703    6.4506 C   0  0  0  0  0  0  0  0  0  0  0  0
   17.2543  -20.2629    6.4117 C   0  0  0  0  0  0  0  0  0  0  0  0
   16.7468  -20.1294    4.7315 S   0  0  0  0  0  0  0  0  0  0  0  0
   25.8842  -16.8107   -0.7521 C   0  0  0  0  0  0  0  0  0  0  0  0
   25.5629  -18.0545   -0.2146 C   0  0  0  0  0  0  0  0  0  0  0  0
   24.2304  -18.4325   -0.0906 C   0  0  0  0  0  0  0  0  0  0  0  0
   23.2016  -17.5374   -0.4450 C   0  0  0  0  0  0  0  0  0  0  0  0
   23.5259  -16.2625   -0.9450 C   0  0  0  0  0  0  0  0  0  0  0  0
   24.8634  -15.9044   -1.0834 C   0  0  0  0  0  0  0  0  0  0  0  0
   29.4244  -15.4992   -0.2951 C   0  0  0  0  0  0  0  0  0  0  0  0
   27.9682  -15.7648   -0.0000 C   0  0  0  0  0  0  0  0  0  0  0  0
   27.4832  -15.3187    1.0231 O   0  0  0  0  0  0  0  0  0  0  0  0
   27.2543  -16.4982   -0.8917 N   0  0  0  0  0  0  0  0  0  0  0  0
   27.7232  -16.8348   -1.6892 H   0  0  0  0  0  0  0  0  0  0  0  0
 27 26  2  0  0  0
 25 26  1  0  0  0
 26 28  1  0  0  0
 11 10  1  0  0  0
 24 23  2  0  0  0
 24 19  1  0  0  0
 28 19  1  0  0  0
 23 22  1  0  0  0
 19 20  2  0  0  0
  2  1  2  0  0  0
 22  1  1  0  0  0
 22 21  2  0  0  0
 20 21  1  0  0  0
  1  3  1  0  0  0
 10  9  2  0  0  0
 10  5  1  0  0  0
  9  8  1  0  0  0
  3  5  1  0  0  0
  5  6  2  0  0  0
  8  7  2  0  0  0
  6  7  1  0  0  0
  7 14  1  0  0  0
 14 15  2  0  0  0
 14 18  1  0  0  0
 15 16  1  0  0  0
 18 17  1  0  0  0
 16 17  2  0  0  0
 28 29  1  0  0  0
  3  4  1  0  0  0
 11 12  1  0  0  0
 11 13  1  0  0  0
M  END
> <minimizedAffinity>
-10.90088

$$$$
4LY1_20Y_A_407


 29 31  0  0  0  0  0  0  0  0999 V2000
   21.6838  -18.0044   -0.1652 C   0  0  0  0  0  0  0  0  0  0  0  0
   20.7382  -17.5008   -0.7617 O   0  0  0  0  0  0  0  0  0  0  0  0
   21.4693  -18.9587    0.7614 N   0  0  0  0  0  0  0  0  0  0  0  0
   22.2521  -19.2818    1.2634 H   0  0  0  0  0  0  0  0  0  0  0  0
   20.2280  -19.5316    1.0726 C   0  0  0  0  0  0  0  0  0  0  0  0
   19.8676  -19.5956    2.4216 C   0  0  0  0  0  0  0  0  0  0  0  0
   18.6904  -20.2581    2.8112 C   0  0  0  0  0  0  0  0  0  0  0  0
   17.8912  -20.8499    1.8188 C   0  0  0  0  0  0  0  0  0  0  0  0
   18.2628  -20.8157    0.4789 C   0  0  0  0  0  0  0  0  0  0  0  0
   19.4303  -20.1527    0.0778 C   0  0  0  0  0  0  0  0  0  0  0  0
   19.7908  -20.1193   -1.2974 N   0  0  0  0  0  0  0  0  0  0  0  0
   19.2186  -20.5588   -1.9672 H   0  0  0  0  0  0  0  0  0  0  0  0
   20.6127  -19.6566   -1.5798 H   0  0  0  0  0  0  0  0  0  0  0  0
   18.2774  -20.2221    4.2328 C   0  0  0  0  0  0  0  0  0  0  0  0
   19.0717  -20.4039    5.3080 C   0  0  0  0  0  0  0  0  0  0  0  0
   18.4071  -20.4037    6.5245 C   0  0  0  0  0  0  0  0  0  0  0  0
   17.0828  -20.2627    6.4622 C   0  0  0  0  0  0  0  0  0  0  0  0
   16.6084  -20.1187    4.7732 S   0  0  0  0  0  0  0  0  0  0  0  0
   25.6830  -16.5963   -0.7828 C   0  0  0  0  0  0  0  0  0  0  0  0
   24.5950  -15.7602   -1.0200 C   0  0  0  0  0  0  0  0  0  0  0  0
   23.3042  -16.2167   -0.7761 C   0  0  0  0  0  0  0  0  0  0  0  0
   23.0873  -17.5429   -0.3528 C   0  0  0  0  0  0  0  0  0  0  0  0
   24.1844  -18.4025   -0.1575 C   0  0  0  0  0  0  0  0  0  0  0  0
   25.4722  -17.9270   -0.3854 C   0  0  0  0  0  0  0  0  0  0  0  0
   28.8152  -15.0569   -2.2934 C   0  0  0  0  0  0  0  0  0  0  0  0
   27.4017  -15.5780   -2.2013 C   0  0  0  0  0  0  0  0  0  0  0  0
   26.6950  -15.5431   -3.1914 O   0  0  0  0  0  0  0  0  0  0  0  0
   26.9716  -16.0647   -1.0094 N   0  0  0  0  0  0  0  0  0  0  0  0
   27.6002  -16.0459   -0.2519 H   0  0  0  0  0  0  0  0  0  0  0  0
 27 26  2  0  0  0
 25 26  1  0  0  0
 26 28  1  0  0  0
 11 10  1  0  0  0
 24 23  2  0  0  0
 24 19  1  0  0  0
 28 19  1  0  0  0
 23 22  1  0  0  0
 19 20  2  0  0  0
  2  1  2  0  0  0
 22  1  1  0  0  0
 22 21  2  0  0  0
 20 21  1  0  0  0
  1  3  1  0  0  0
 10  9  2  0  0  0
 10  5  1  0  0  0
  9  8  1  0  0  0
  3  5  1  0  0  0
  5  6  2  0  0  0
  8  7  2  0  0  0
  6  7  1  0  0  0
  7 14  1  0  0  0
 14 15  2  0  0  0
 14 18  1  0  0  0
 15 16  1  0  0  0
 18 17  1  0  0  0
 16 17  2  0  0  0
 28 29  1  0  0  0
  3  4  1  0  0  0
 11 12  1  0  0  0
 11 13  1  0  0  0
M  END
> <minimizedAffinity>
-10.73834

$$$$
4LY1_20Y_A_407


 29 31  0  0  0  0  0  0  0  0999 V2000
   25.7475  -15.5664   -2.0750 C   0  0  0  0  0  0  0  0  0  0  0  0
   26.6325  -14.9512   -1.4902 O   0  0  0  0  0  0  0  0  0  0  0  0
   25.5935  -15.4292   -3.4064 N   0  0  0  0  0  0  0  0  0  0  0  0
   24.8261  -15.8871   -3.8196 H   0  0  0  0  0  0  0  0  0  0  0  0
   26.4310  -14.6910   -4.2544 C   0  0  0  0  0  0  0  0  0  0  0  0
   27.6514  -15.2678   -4.6172 C   0  0  0  0  0  0  0  0  0  0  0  0
   28.5859  -14.5367   -5.3714 C   0  0  0  0  0  0  0  0  0  0  0  0
   28.2654  -13.2219   -5.7486 C   0  0  0  0  0  0  0  0  0  0  0  0
   27.0656  -12.6336   -5.3626 C   0  0  0  0  0  0  0  0  0  0  0  0
   26.1237  -13.3545   -4.6167 C   0  0  0  0  0  0  0  0  0  0  0  0
   24.8978  -12.7409   -4.2383 N   0  0  0  0  0  0  0  0  0  0  0  0
   24.7101  -11.8115   -4.5033 H   0  0  0  0  0  0  0  0  0  0  0  0
   24.2368  -13.2456   -3.7113 H   0  0  0  0  0  0  0  0  0  0  0  0
   29.8251  -15.2047   -5.8309 C   0  0  0  0  0  0  0  0  0  0  0  0
   30.2439  -16.4434   -5.4990 C   0  0  0  0  0  0  0  0  0  0  0  0
   31.4876  -16.7882   -6.0050 C   0  0  0  0  0  0  0  0  0  0  0  0
   32.1087  -15.8435   -6.7117 C   0  0  0  0  0  0  0  0  0  0  0  0
   31.0866  -14.4113   -6.7621 S   0  0  0  0  0  0  0  0  0  0  0  0
   22.8301  -17.9011    0.0217 C   0  0  0  0  0  0  0  0  0  0  0  0
   22.5339  -16.6045   -0.3905 C   0  0  0  0  0  0  0  0  0  0  0  0
   23.4754  -15.8727   -1.1061 C   0  0  0  0  0  0  0  0  0  0  0  0
   24.7521  -16.4121   -1.3594 C   0  0  0  0  0  0  0  0  0  0  0  0
   25.0677  -17.7052   -0.9026 C   0  0  0  0  0  0  0  0  0  0  0  0
   24.1095  -18.4349   -0.2055 C   0  0  0  0  0  0  0  0  0  0  0  0
   19.7367  -19.8929    0.9835 C   0  0  0  0  0  0  0  0  0  0  0  0
   20.7424  -19.1800    0.1127 C   0  0  0  0  0  0  0  0  0  0  0  0
   20.5581  -19.1409   -1.0896 O   0  0  0  0  0  0  0  0  0  0  0  0
   21.8206  -18.6104    0.7088 N   0  0  0  0  0  0  0  0  0  0  0  0
   21.9045  -18.6975    1.6859 H   0  0  0  0  0  0  0  0  0  0  0  0
 27 26  2  0  0  0
 25 26  1  0  0  0
 26 28  1  0  0  0
 11 10  1  0  0  0
 24 23  2  0  0  0
 24 19  1  0  0  0
 28 19  1  0  0  0
 23 22  1  0  0  0
 19 20  2  0  0  0
  2  1  2  0  0  0
 22  1  1  0  0  0
 22 21  2  0  0  0
 20 21  1  0  0  0
  1  3  1  0  0  0
 10  9  2  0  0  0
 10  5  1  0  0  0
  9  8  1  0  0  0
  3  5  1  0  0  0
  5  6  2  0  0  0
  8  7  2  0  0  0
  6  7  1  0  0  0
  7 14  1  0  0  0
 14 15  2  0  0  0
 14 18  1  0  0  0
 15 16  1  0  0  0
 18 17  1  0  0  0
 16 17  2  0  0  0
 28 29  1  0  0  0
  3  4  1  0  0  0
 11 12  1  0  0  0
 11 13  1  0  0  0
M  END
> <minimizedAffinity>
-8.59546

$$$$
