3D6P_U2S_A_125


 25 27  0  0  0  0  0  0  0  0999 V2000
   37.8509   -0.9734   13.6325 C   0  0  0  0  0  0  0  0  0  0  0  0
   38.4195   -1.9504   12.6848 O   0  0  0  0  0  0  0  0  0  0  0  0
   37.3274    0.0446   12.6520 C   0  0  0  0  0  0  0  0  0  0  0  0
   36.4791    1.0391   13.2156 O   0  0  0  0  0  0  0  0  0  0  0  0
   36.5064   -0.8576   11.7621 C   0  0  0  0  0  0  0  0  0  0  0  0
   36.6052   -0.2187   10.5049 O   0  0  0  0  0  0  0  0  0  0  0  0
   37.3015   -2.1874   11.7788 C   0  0  0  0  0  0  0  0  0  0  0  0
   35.7272    0.6117   13.6547 H   0  0  0  0  0  0  0  0  0  0  0  0
   37.5395   -0.0723   10.2891 H   0  0  0  0  0  0  0  0  0  0  0  0
   35.0572   -5.6203   13.1243 C   0  0  0  0  0  0  0  0  0  0  0  0
   36.2773   -5.3318   13.7340 C   0  0  0  0  0  0  0  0  0  0  0  0
   37.0016   -4.2209   13.2927 C   0  0  0  0  0  0  0  0  0  0  0  0
   36.5163   -3.3778   12.2560 N   0  0  0  0  0  0  0  0  0  0  0  0
   34.5985   -4.8099   12.0811 N   0  0  0  0  0  0  0  0  0  0  0  0
   34.3918   -6.5961   13.4615 O   0  0  0  0  0  0  0  0  0  0  0  0
   35.3045   -3.6915   11.6405 C   0  0  0  0  0  0  0  0  0  0  0  0
   34.8269   -2.9906   10.7487 O   0  0  0  0  0  0  0  0  0  0  0  0
   33.7469   -5.0371   11.6424 H   0  0  0  0  0  0  0  0  0  0  0  0
   38.7152   -0.2871   14.7042 C   0  0  0  0  0  0  0  0  0  0  0  0
   37.9977    2.0785   17.9271 O   0  0  0  0  0  0  0  0  0  0  0  0
   38.2319    2.8212   16.7126 C   0  0  0  0  0  0  0  0  0  0  0  0
   38.8258    1.8698   15.6602 C   0  0  0  0  0  0  0  0  0  0  0  0
   37.0124    1.0403   17.7282 C   0  0  0  0  0  0  0  0  0  0  0  0
   37.6150    0.0274   16.7493 C   0  0  0  0  0  0  0  0  0  0  0  0
   37.9566    0.6937   15.4789 N   0  0  0  0  0  0  0  0  0  0  0  0
 10 11  1  0  0  0
 10 14  1  0  0  0
 10 15  2  0  0  0
 11 12  2  0  0  0
 12 13  1  0  0  0
 13  7  1  0  0  0
 13 16  1  0  0  0
 14 16  1  0  0  0
 20 21  1  0  0  0
 20 23  1  0  0  0
 21 22  1  0  0  0
 22 25  1  0  0  0
 23 24  1  0  0  0
 24 25  1  0  0  0
 25 19  1  0  0  0
 19  1  1  0  0  0
  1  2  1  0  0  0
  1  3  1  0  0  0
  2  7  1  0  0  0
  3  4  1  0  0  0
  3  5  1  0  0  0
  5  6  1  0  0  0
  5  7  1  0  0  0
 16 17  2  0  0  0
 14 18  1  0  0  0
  4  8  1  0  0  0
  6  9  1  0  0  0
M  END
> <minimizedAffinity>
-6.65652

$$$$
3D6P_U2S_A_125


 25 27  0  0  0  0  0  0  0  0999 V2000
   37.7574   -0.5730   13.6630 C   0  0  0  0  0  0  0  0  0  0  0  0
   38.5166   -1.5168   12.8212 O   0  0  0  0  0  0  0  0  0  0  0  0
   37.0968    0.2440   12.5824 C   0  0  0  0  0  0  0  0  0  0  0  0
   36.0715    1.1211   13.0358 O   0  0  0  0  0  0  0  0  0  0  0  0
   36.4734   -0.8653   11.7695 C   0  0  0  0  0  0  0  0  0  0  0  0
   36.4999   -0.3358   10.4590 O   0  0  0  0  0  0  0  0  0  0  0  0
   37.4861   -2.0278   11.9247 C   0  0  0  0  0  0  0  0  0  0  0  0
   35.3915    0.6099   13.5019 H   0  0  0  0  0  0  0  0  0  0  0  0
   37.4010   -0.0477   10.2448 H   0  0  0  0  0  0  0  0  0  0  0  0
   35.8278   -5.6414   13.6049 C   0  0  0  0  0  0  0  0  0  0  0  0
   34.9863   -4.5509   13.3888 C   0  0  0  0  0  0  0  0  0  0  0  0
   35.5288   -3.3822   12.8474 C   0  0  0  0  0  0  0  0  0  0  0  0
   36.9044   -3.2892   12.5005 N   0  0  0  0  0  0  0  0  0  0  0  0
   37.1874   -5.5358   13.2955 N   0  0  0  0  0  0  0  0  0  0  0  0
   35.4049   -6.6844   14.0968 O   0  0  0  0  0  0  0  0  0  0  0  0
   37.7383   -4.3807   12.7427 C   0  0  0  0  0  0  0  0  0  0  0  0
   38.9334   -4.3644   12.4493 O   0  0  0  0  0  0  0  0  0  0  0  0
   37.7762   -6.3043   13.4744 H   0  0  0  0  0  0  0  0  0  0  0  0
   38.4551    0.3488   14.6779 C   0  0  0  0  0  0  0  0  0  0  0  0
   38.4427    0.9399   18.6965 O   0  0  0  0  0  0  0  0  0  0  0  0
   37.1860    1.2641   18.0662 C   0  0  0  0  0  0  0  0  0  0  0  0
   37.4029    1.3405   16.5455 C   0  0  0  0  0  0  0  0  0  0  0  0
   38.9118   -0.3667   18.2954 C   0  0  0  0  0  0  0  0  0  0  0  0
   39.2222   -0.2947   16.7968 C   0  0  0  0  0  0  0  0  0  0  0  0
   38.0128    0.0946   16.0481 N   0  0  0  0  0  0  0  0  0  0  0  0
 10 11  1  0  0  0
 10 14  1  0  0  0
 10 15  2  0  0  0
 11 12  2  0  0  0
 12 13  1  0  0  0
 13  7  1  0  0  0
 13 16  1  0  0  0
 14 16  1  0  0  0
 20 21  1  0  0  0
 20 23  1  0  0  0
 21 22  1  0  0  0
 22 25  1  0  0  0
 23 24  1  0  0  0
 24 25  1  0  0  0
 25 19  1  0  0  0
 19  1  1  0  0  0
  1  2  1  0  0  0
  1  3  1  0  0  0
  2  7  1  0  0  0
  3  4  1  0  0  0
  3  5  1  0  0  0
  5  6  1  0  0  0
  5  7  1  0  0  0
 16 17  2  0  0  0
 14 18  1  0  0  0
  4  8  1  0  0  0
  6  9  1  0  0  0
M  END
> <minimizedAffinity>
-6.61051

$$$$
3D6P_U2S_A_125


 25 27  0  0  0  0  0  0  0  0999 V2000
   37.6005   -0.7805   13.6667 C   0  0  0  0  0  0  0  0  0  0  0  0
   38.2978   -1.7507   12.8016 O   0  0  0  0  0  0  0  0  0  0  0  0
   37.0968    0.1717   12.6126 C   0  0  0  0  0  0  0  0  0  0  0  0
   36.1503    1.1300   13.0730 O   0  0  0  0  0  0  0  0  0  0  0  0
   36.4023   -0.8070   11.6963 C   0  0  0  0  0  0  0  0  0  0  0  0
   36.5617   -0.2038   10.4277 O   0  0  0  0  0  0  0  0  0  0  0  0
   37.2700   -2.0845   11.8223 C   0  0  0  0  0  0  0  0  0  0  0  0
   35.3926    0.6717   13.4688 H   0  0  0  0  0  0  0  0  0  0  0  0
   37.4999   -0.0075   10.2786 H   0  0  0  0  0  0  0  0  0  0  0  0
   35.1302   -5.6029   13.1163 C   0  0  0  0  0  0  0  0  0  0  0  0
   36.3220   -5.2656   13.7564 C   0  0  0  0  0  0  0  0  0  0  0  0
   37.0126   -4.1272   13.3316 C   0  0  0  0  0  0  0  0  0  0  0  0
   36.5207   -3.3048   12.2814 N   0  0  0  0  0  0  0  0  0  0  0  0
   34.6664   -4.8121   12.0603 N   0  0  0  0  0  0  0  0  0  0  0  0
   34.4958   -6.6041   13.4381 O   0  0  0  0  0  0  0  0  0  0  0  0
   35.3385   -3.6669   11.6359 C   0  0  0  0  0  0  0  0  0  0  0  0
   34.8563   -2.9862   10.7310 O   0  0  0  0  0  0  0  0  0  0  0  0
   33.8361   -5.0734   11.6005 H   0  0  0  0  0  0  0  0  0  0  0  0
   38.3365   -0.0087   14.7754 C   0  0  0  0  0  0  0  0  0  0  0  0
   39.0554   -1.5703   18.4554 O   0  0  0  0  0  0  0  0  0  0  0  0
   38.5061   -2.5265   17.5251 C   0  0  0  0  0  0  0  0  0  0  0  0
   37.9568   -1.7674   16.3055 C   0  0  0  0  0  0  0  0  0  0  0  0
   40.1811   -0.8665   17.8847 C   0  0  0  0  0  0  0  0  0  0  0  0
   39.6461   -0.0289   16.7188 C   0  0  0  0  0  0  0  0  0  0  0  0
   38.9989   -0.9034   15.7232 N   0  0  0  0  0  0  0  0  0  0  0  0
 10 11  1  0  0  0
 10 14  1  0  0  0
 10 15  2  0  0  0
 11 12  2  0  0  0
 12 13  1  0  0  0
 13  7  1  0  0  0
 13 16  1  0  0  0
 14 16  1  0  0  0
 20 21  1  0  0  0
 20 23  1  0  0  0
 21 22  1  0  0  0
 22 25  1  0  0  0
 23 24  1  0  0  0
 24 25  1  0  0  0
 25 19  1  0  0  0
 19  1  1  0  0  0
  1  2  1  0  0  0
  1  3  1  0  0  0
  2  7  1  0  0  0
  3  4  1  0  0  0
  3  5  1  0  0  0
  5  6  1  0  0  0
  5  7  1  0  0  0
 16 17  2  0  0  0
 14 18  1  0  0  0
  4  8  1  0  0  0
  6  9  1  0  0  0
M  END
> <minimizedAffinity>
-6.54167

$$$$
3D6P_U2S_A_125


 25 27  0  0  0  0  0  0  0  0999 V2000
   37.6353   -0.5641   13.7936 C   0  0  0  0  0  0  0  0  0  0  0  0
   38.4746   -1.4794   12.9976 O   0  0  0  0  0  0  0  0  0  0  0  0
   37.0312    0.2491   12.6777 C   0  0  0  0  0  0  0  0  0  0  0  0
   35.9553    1.0958   13.0672 O   0  0  0  0  0  0  0  0  0  0  0  0
   36.4937   -0.8655   11.8125 C   0  0  0  0  0  0  0  0  0  0  0  0
   36.5979   -0.3202   10.5122 O   0  0  0  0  0  0  0  0  0  0  0  0
   37.5219   -2.0047   12.0264 C   0  0  0  0  0  0  0  0  0  0  0  0
   35.2575    0.5630   13.4796 H   0  0  0  0  0  0  0  0  0  0  0  0
   37.5043   -0.0080   10.3643 H   0  0  0  0  0  0  0  0  0  0  0  0
   35.8435   -5.6778   13.5506 C   0  0  0  0  0  0  0  0  0  0  0  0
   35.0051   -4.5790   13.3673 C   0  0  0  0  0  0  0  0  0  0  0  0
   35.5541   -3.3910   12.8764 C   0  0  0  0  0  0  0  0  0  0  0  0
   36.9333   -3.2865   12.5477 N   0  0  0  0  0  0  0  0  0  0  0  0
   37.2063   -5.5620   13.2597 N   0  0  0  0  0  0  0  0  0  0  0  0
   35.4147   -6.7382   13.9980 O   0  0  0  0  0  0  0  0  0  0  0  0
   37.7639   -4.3874   12.7570 C   0  0  0  0  0  0  0  0  0  0  0  0
   38.9620   -4.3612   12.4770 O   0  0  0  0  0  0  0  0  0  0  0  0
   37.7927   -6.3373   13.4154 H   0  0  0  0  0  0  0  0  0  0  0  0
   38.2376    0.3625   14.8639 C   0  0  0  0  0  0  0  0  0  0  0  0
   40.1686    3.9356   14.9073 O   0  0  0  0  0  0  0  0  0  0  0  0
   40.6126    3.0577   13.8520 C   0  0  0  0  0  0  0  0  0  0  0  0
   40.0848    1.6411   14.1351 C   0  0  0  0  0  0  0  0  0  0  0  0
   38.7279    4.0451   14.9306 C   0  0  0  0  0  0  0  0  0  0  0  0
   38.1760    2.6644   15.2996 C   0  0  0  0  0  0  0  0  0  0  0  0
   38.6224    1.6617   14.3146 N   0  0  0  0  0  0  0  0  0  0  0  0
 10 11  1  0  0  0
 10 14  1  0  0  0
 10 15  2  0  0  0
 11 12  2  0  0  0
 12 13  1  0  0  0
 13  7  1  0  0  0
 13 16  1  0  0  0
 14 16  1  0  0  0
 20 21  1  0  0  0
 20 23  1  0  0  0
 21 22  1  0  0  0
 22 25  1  0  0  0
 23 24  1  0  0  0
 24 25  1  0  0  0
 25 19  1  0  0  0
 19  1  1  0  0  0
  1  2  1  0  0  0
  1  3  1  0  0  0
  2  7  1  0  0  0
  3  4  1  0  0  0
  3  5  1  0  0  0
  5  6  1  0  0  0
  5  7  1  0  0  0
 16 17  2  0  0  0
 14 18  1  0  0  0
  4  8  1  0  0  0
  6  9  1  0  0  0
M  END
> <minimizedAffinity>
-6.34105

$$$$
3D6P_U2S_A_125


 25 27  0  0  0  0  0  0  0  0999 V2000
   38.6921   -0.0369   12.4146 C   0  0  0  0  0  0  0  0  0  0  0  0
   37.6611   -0.2042   11.3730 O   0  0  0  0  0  0  0  0  0  0  0  0
   38.0608    1.0775   13.2089 C   0  0  0  0  0  0  0  0  0  0  0  0
   38.6784    1.3444   14.4634 O   0  0  0  0  0  0  0  0  0  0  0  0
   36.6958    0.4780   13.4486 C   0  0  0  0  0  0  0  0  0  0  0  0
   35.8636    1.6200   13.4904 O   0  0  0  0  0  0  0  0  0  0  0  0
   36.4449   -0.3516   12.1642 C   0  0  0  0  0  0  0  0  0  0  0  0
   38.6789    0.5374   15.0017 H   0  0  0  0  0  0  0  0  0  0  0  0
   36.0071    2.1541   12.6935 H   0  0  0  0  0  0  0  0  0  0  0  0
   35.7047   -4.5507   12.8353 C   0  0  0  0  0  0  0  0  0  0  0  0
   36.6389   -3.8949   13.6358 C   0  0  0  0  0  0  0  0  0  0  0  0
   36.8772   -2.5359   13.4125 C   0  0  0  0  0  0  0  0  0  0  0  0
   36.1809   -1.8120   12.4064 N   0  0  0  0  0  0  0  0  0  0  0  0
   35.0466   -3.8449   11.8233 N   0  0  0  0  0  0  0  0  0  0  0  0
   35.4733   -5.7486   12.9777 O   0  0  0  0  0  0  0  0  0  0  0  0
   35.2652   -2.4865   11.5989 C   0  0  0  0  0  0  0  0  0  0  0  0
   34.6217   -1.9097   10.7226 O   0  0  0  0  0  0  0  0  0  0  0  0
   34.4064   -4.3241   11.2491 H   0  0  0  0  0  0  0  0  0  0  0  0
   40.1479    0.3158   12.0640 C   0  0  0  0  0  0  0  0  0  0  0  0
   40.9918   -3.6179   11.5058 O   0  0  0  0  0  0  0  0  0  0  0  0
   41.7284   -2.7439   10.6254 C   0  0  0  0  0  0  0  0  0  0  0  0
   41.0916   -1.3448   10.6746 C   0  0  0  0  0  0  0  0  0  0  0  0
   41.0889   -3.1847   12.8809 C   0  0  0  0  0  0  0  0  0  0  0  0
   40.3814   -1.8293   12.9784 C   0  0  0  0  0  0  0  0  0  0  0  0
   41.0154   -0.8611   12.0645 N   0  0  0  0  0  0  0  0  0  0  0  0
 10 11  1  0  0  0
 10 14  1  0  0  0
 10 15  2  0  0  0
 11 12  2  0  0  0
 12 13  1  0  0  0
 13  7  1  0  0  0
 13 16  1  0  0  0
 14 16  1  0  0  0
 20 21  1  0  0  0
 20 23  1  0  0  0
 21 22  1  0  0  0
 22 25  1  0  0  0
 23 24  1  0  0  0
 24 25  1  0  0  0
 25 19  1  0  0  0
 19  1  1  0  0  0
  1  2  1  0  0  0
  1  3  1  0  0  0
  2  7  1  0  0  0
  3  4  1  0  0  0
  3  5  1  0  0  0
  5  6  1  0  0  0
  5  7  1  0  0  0
 16 17  2  0  0  0
 14 18  1  0  0  0
  4  8  1  0  0  0
  6  9  1  0  0  0
M  END
> <minimizedAffinity>
-6.28514

$$$$
3D6P_U2S_A_125


 25 27  0  0  0  0  0  0  0  0999 V2000
   37.9781   -1.4310   14.8140 C   0  0  0  0  0  0  0  0  0  0  0  0
   39.0699   -0.5485   14.3611 O   0  0  0  0  0  0  0  0  0  0  0  0
   38.3882   -1.6112   16.2530 C   0  0  0  0  0  0  0  0  0  0  0  0
   37.4094   -2.2270   17.0830 O   0  0  0  0  0  0  0  0  0  0  0  0
   38.5389   -0.1644   16.6580 C   0  0  0  0  0  0  0  0  0  0  0  0
   39.5624   -0.2246   17.6314 O   0  0  0  0  0  0  0  0  0  0  0  0
   39.0405    0.5148   15.3588 C   0  0  0  0  0  0  0  0  0  0  0  0
   36.5890   -1.7102   17.0535 H   0  0  0  0  0  0  0  0  0  0  0  0
   40.3301   -0.6908   17.2650 H   0  0  0  0  0  0  0  0  0  0  0  0
   36.5662    3.7490   13.9272 C   0  0  0  0  0  0  0  0  0  0  0  0
   36.4172    2.4844   13.3594 C   0  0  0  0  0  0  0  0  0  0  0  0
   37.2229    1.4413   13.8243 C   0  0  0  0  0  0  0  0  0  0  0  0
   38.1704    1.6378   14.8659 N   0  0  0  0  0  0  0  0  0  0  0  0
   37.5232    3.9479   14.9272 N   0  0  0  0  0  0  0  0  0  0  0  0
   35.8968    4.7035   13.5407 O   0  0  0  0  0  0  0  0  0  0  0  0
   38.3236    2.9133   15.4091 C   0  0  0  0  0  0  0  0  0  0  0  0
   39.1163    3.1406   16.3227 O   0  0  0  0  0  0  0  0  0  0  0  0
   37.6357    4.8504   15.3042 H   0  0  0  0  0  0  0  0  0  0  0  0
   37.7167   -2.7978   14.1582 C   0  0  0  0  0  0  0  0  0  0  0  0
   35.2283   -3.5113   11.0283 O   0  0  0  0  0  0  0  0  0  0  0  0
   34.9778   -4.3641   12.1647 C   0  0  0  0  0  0  0  0  0  0  0  0
   36.1680   -4.2568   13.1329 C   0  0  0  0  0  0  0  0  0  0  0  0
   35.3003   -2.1216   11.4178 C   0  0  0  0  0  0  0  0  0  0  0  0
   36.5333   -1.9671   12.3139 C   0  0  0  0  0  0  0  0  0  0  0  0
   36.4172   -2.8490   13.4901 N   0  0  0  0  0  0  0  0  0  0  0  0
 10 11  1  0  0  0
 10 14  1  0  0  0
 10 15  2  0  0  0
 11 12  2  0  0  0
 12 13  1  0  0  0
 13  7  1  0  0  0
 13 16  1  0  0  0
 14 16  1  0  0  0
 20 21  1  0  0  0
 20 23  1  0  0  0
 21 22  1  0  0  0
 22 25  1  0  0  0
 23 24  1  0  0  0
 24 25  1  0  0  0
 25 19  1  0  0  0
 19  1  1  0  0  0
  1  2  1  0  0  0
  1  3  1  0  0  0
  2  7  1  0  0  0
  3  4  1  0  0  0
  3  5  1  0  0  0
  5  6  1  0  0  0
  5  7  1  0  0  0
 16 17  2  0  0  0
 14 18  1  0  0  0
  4  8  1  0  0  0
  6  9  1  0  0  0
M  END
> <minimizedAffinity>
-6.27356

$$$$
3D6P_U2S_A_125


 25 27  0  0  0  0  0  0  0  0999 V2000
   39.1850   -2.4681   12.4946 C   0  0  0  0  0  0  0  0  0  0  0  0
   38.0328   -1.9362   11.7427 O   0  0  0  0  0  0  0  0  0  0  0  0
   39.1828   -1.5103   13.6583 C   0  0  0  0  0  0  0  0  0  0  0  0
   40.0335   -1.8775   14.7389 O   0  0  0  0  0  0  0  0  0  0  0  0
   37.7438   -1.6442   14.0956 C   0  0  0  0  0  0  0  0  0  0  0  0
   37.4602   -0.3585   14.6106 O   0  0  0  0  0  0  0  0  0  0  0  0
   36.9923   -1.8925   12.7636 C   0  0  0  0  0  0  0  0  0  0  0  0
   39.7874   -2.7595   15.0588 H   0  0  0  0  0  0  0  0  0  0  0  0
   37.6879    0.3126   13.9483 H   0  0  0  0  0  0  0  0  0  0  0  0
   34.7352   -5.5692   12.6255 C   0  0  0  0  0  0  0  0  0  0  0  0
   35.6707   -5.3907   13.6438 C   0  0  0  0  0  0  0  0  0  0  0  0
   36.4011   -4.1997   13.6823 C   0  0  0  0  0  0  0  0  0  0  0  0
   36.1997   -3.1697   12.7233 N   0  0  0  0  0  0  0  0  0  0  0  0
   34.5637   -4.5694   11.6630 N   0  0  0  0  0  0  0  0  0  0  0  0
   34.0820   -6.6054   12.5354 O   0  0  0  0  0  0  0  0  0  0  0  0
   35.2761   -3.3716   11.6977 C   0  0  0  0  0  0  0  0  0  0  0  0
   35.0480   -2.5105   10.8485 O   0  0  0  0  0  0  0  0  0  0  0  0
   33.9172   -4.7165   10.9353 H   0  0  0  0  0  0  0  0  0  0  0  0
   40.5899   -2.5497   11.8730 C   0  0  0  0  0  0  0  0  0  0  0  0
   43.4330    0.1298   10.7617 O   0  0  0  0  0  0  0  0  0  0  0  0
   42.0877    0.5817   10.5022 C   0  0  0  0  0  0  0  0  0  0  0  0
   41.1323   -0.6169   10.6288 C   0  0  0  0  0  0  0  0  0  0  0  0
   43.5752   -0.3510   12.1170 C   0  0  0  0  0  0  0  0  0  0  0  0
   42.7005   -1.6021   12.2465 C   0  0  0  0  0  0  0  0  0  0  0  0
   41.2966   -1.2715   11.9387 N   0  0  0  0  0  0  0  0  0  0  0  0
 10 11  1  0  0  0
 10 14  1  0  0  0
 10 15  2  0  0  0
 11 12  2  0  0  0
 12 13  1  0  0  0
 13  7  1  0  0  0
 13 16  1  0  0  0
 14 16  1  0  0  0
 20 21  1  0  0  0
 20 23  1  0  0  0
 21 22  1  0  0  0
 22 25  1  0  0  0
 23 24  1  0  0  0
 24 25  1  0  0  0
 25 19  1  0  0  0
 19  1  1  0  0  0
  1  2  1  0  0  0
  1  3  1  0  0  0
  2  7  1  0  0  0
  3  4  1  0  0  0
  3  5  1  0  0  0
  5  6  1  0  0  0
  5  7  1  0  0  0
 16 17  2  0  0  0
 14 18  1  0  0  0
  4  8  1  0  0  0
  6  9  1  0  0  0
M  END
> <minimizedAffinity>
-6.13072

$$$$
3D6P_U2S_A_125


 25 27  0  0  0  0  0  0  0  0999 V2000
   36.2022   -3.9122   13.0760 C   0  0  0  0  0  0  0  0  0  0  0  0
   36.4539   -3.1104   11.8637 O   0  0  0  0  0  0  0  0  0  0  0  0
   37.4684   -4.7294   13.0979 C   0  0  0  0  0  0  0  0  0  0  0  0
   37.6873   -5.4643   14.2972 O   0  0  0  0  0  0  0  0  0  0  0  0
   38.4889   -3.6203   13.0056 C   0  0  0  0  0  0  0  0  0  0  0  0
   39.5487   -4.2380   12.3028 O   0  0  0  0  0  0  0  0  0  0  0  0
   37.7780   -2.5594   12.1282 C   0  0  0  0  0  0  0  0  0  0  0  0
   37.6941   -4.8558   15.0525 H   0  0  0  0  0  0  0  0  0  0  0  0
   39.2081   -4.6305   11.4837 H   0  0  0  0  0  0  0  0  0  0  0  0
   37.3428    1.3112   13.9883 C   0  0  0  0  0  0  0  0  0  0  0  0
   37.9642    0.2870   14.7015 C   0  0  0  0  0  0  0  0  0  0  0  0
   38.0999   -0.9653   14.0958 C   0  0  0  0  0  0  0  0  0  0  0  0
   37.6366   -1.2088   12.7741 N   0  0  0  0  0  0  0  0  0  0  0  0
   36.8565    1.0595   12.7016 N   0  0  0  0  0  0  0  0  0  0  0  0
   37.1809    2.4239   14.4826 O   0  0  0  0  0  0  0  0  0  0  0  0
   36.9974   -0.1808   12.0812 C   0  0  0  0  0  0  0  0  0  0  0  0
   36.5892   -0.3279   10.9294 O   0  0  0  0  0  0  0  0  0  0  0  0
   36.3986    1.7838   12.2169 H   0  0  0  0  0  0  0  0  0  0  0  0
   34.9730   -4.8290   13.2000 C   0  0  0  0  0  0  0  0  0  0  0  0
   33.9140   -8.5079   11.8428 O   0  0  0  0  0  0  0  0  0  0  0  0
   34.6055   -7.7116   10.8583 C   0  0  0  0  0  0  0  0  0  0  0  0
   34.6459   -6.2531   11.3445 C   0  0  0  0  0  0  0  0  0  0  0  0
   34.6263   -8.5271   13.1000 C   0  0  0  0  0  0  0  0  0  0  0  0
   34.6046   -7.0985   13.6532 C   0  0  0  0  0  0  0  0  0  0  0  0
   35.2358   -6.1747   12.6925 N   0  0  0  0  0  0  0  0  0  0  0  0
 10 11  1  0  0  0
 10 14  1  0  0  0
 10 15  2  0  0  0
 11 12  2  0  0  0
 12 13  1  0  0  0
 13  7  1  0  0  0
 13 16  1  0  0  0
 14 16  1  0  0  0
 20 21  1  0  0  0
 20 23  1  0  0  0
 21 22  1  0  0  0
 22 25  1  0  0  0
 23 24  1  0  0  0
 24 25  1  0  0  0
 25 19  1  0  0  0
 19  1  1  0  0  0
  1  2  1  0  0  0
  1  3  1  0  0  0
  2  7  1  0  0  0
  3  4  1  0  0  0
  3  5  1  0  0  0
  5  6  1  0  0  0
  5  7  1  0  0  0
 16 17  2  0  0  0
 14 18  1  0  0  0
  4  8  1  0  0  0
  6  9  1  0  0  0
M  END
> <minimizedAffinity>
-6.10574

$$$$
3D6P_U2S_A_125


 25 27  0  0  0  0  0  0  0  0999 V2000
   38.2569    0.5605   13.4682 C   0  0  0  0  0  0  0  0  0  0  0  0
   39.1859   -0.1343   12.5571 O   0  0  0  0  0  0  0  0  0  0  0  0
   37.1245    0.8257   12.5096 C   0  0  0  0  0  0  0  0  0  0  0  0
   35.9199    1.2814   13.1158 O   0  0  0  0  0  0  0  0  0  0  0  0
   36.9107   -0.5703   11.9755 C   0  0  0  0  0  0  0  0  0  0  0  0
   36.4681   -0.3277   10.6549 O   0  0  0  0  0  0  0  0  0  0  0  0
   38.3376   -1.1741   11.9862 C   0  0  0  0  0  0  0  0  0  0  0  0
   35.6259    0.6351   13.7767 H   0  0  0  0  0  0  0  0  0  0  0  0
   37.0995    0.2546   10.2042 H   0  0  0  0  0  0  0  0  0  0  0  0
   38.7579   -4.7734   14.3315 C   0  0  0  0  0  0  0  0  0  0  0  0
   37.6939   -3.9138   14.6013 C   0  0  0  0  0  0  0  0  0  0  0  0
   37.5640   -2.7482   13.8411 C   0  0  0  0  0  0  0  0  0  0  0  0
   38.4763   -2.4326   12.7975 N   0  0  0  0  0  0  0  0  0  0  0  0
   39.6740   -4.4435   13.3278 N   0  0  0  0  0  0  0  0  0  0  0  0
   38.9282   -5.8002   14.9837 O   0  0  0  0  0  0  0  0  0  0  0  0
   39.5483   -3.2911   12.5536 C   0  0  0  0  0  0  0  0  0  0  0  0
   40.3609   -3.0783   11.6541 O   0  0  0  0  0  0  0  0  0  0  0  0
   40.4346   -5.0463   13.1621 H   0  0  0  0  0  0  0  0  0  0  0  0
   38.6542    1.8559   14.1966 C   0  0  0  0  0  0  0  0  0  0  0  0
   38.3435    1.4726   18.2283 O   0  0  0  0  0  0  0  0  0  0  0  0
   38.3424    2.8445   17.7819 C   0  0  0  0  0  0  0  0  0  0  0  0
   38.8073    2.8861   16.3165 C   0  0  0  0  0  0  0  0  0  0  0  0
   37.3929    0.6762   17.4866 C   0  0  0  0  0  0  0  0  0  0  0  0
   37.8813    0.6255   16.0353 C   0  0  0  0  0  0  0  0  0  0  0  0
   37.9809    1.9910   15.4874 N   0  0  0  0  0  0  0  0  0  0  0  0
 10 11  1  0  0  0
 10 14  1  0  0  0
 10 15  2  0  0  0
 11 12  2  0  0  0
 12 13  1  0  0  0
 13  7  1  0  0  0
 13 16  1  0  0  0
 14 16  1  0  0  0
 20 21  1  0  0  0
 20 23  1  0  0  0
 21 22  1  0  0  0
 22 25  1  0  0  0
 23 24  1  0  0  0
 24 25  1  0  0  0
 25 19  1  0  0  0
 19  1  1  0  0  0
  1  2  1  0  0  0
  1  3  1  0  0  0
  2  7  1  0  0  0
  3  4  1  0  0  0
  3  5  1  0  0  0
  5  6  1  0  0  0
  5  7  1  0  0  0
 16 17  2  0  0  0
 14 18  1  0  0  0
  4  8  1  0  0  0
  6  9  1  0  0  0
M  END
> <minimizedAffinity>
-5.94563

$$$$
3D6P_U2S_A_125


 25 27  0  0  0  0  0  0  0  0999 V2000
   37.6477    0.7343   14.1190 C   0  0  0  0  0  0  0  0  0  0  0  0
   38.2322   -0.5341   14.5939 O   0  0  0  0  0  0  0  0  0  0  0  0
   38.7673    1.2015   13.2247 C   0  0  0  0  0  0  0  0  0  0  0  0
   38.4450    2.3071   12.3880 O   0  0  0  0  0  0  0  0  0  0  0  0
   38.9409   -0.0306   12.3692 C   0  0  0  0  0  0  0  0  0  0  0  0
   40.3214    0.0003   12.0657 O   0  0  0  0  0  0  0  0  0  0  0  0
   38.6076   -1.1870   13.3450 C   0  0  0  0  0  0  0  0  0  0  0  0
   37.6776    2.0837   11.8384 H   0  0  0  0  0  0  0  0  0  0  0  0
   40.8315    0.0757   12.8873 H   0  0  0  0  0  0  0  0  0  0  0  0
   35.3714   -3.7425   12.0689 C   0  0  0  0  0  0  0  0  0  0  0  0
   35.6382   -2.5810   11.3454 C   0  0  0  0  0  0  0  0  0  0  0  0
   36.6851   -1.7553   11.7645 C   0  0  0  0  0  0  0  0  0  0  0  0
   37.4864   -2.0813   12.8927 N   0  0  0  0  0  0  0  0  0  0  0  0
   36.1385   -4.0431   13.1989 N   0  0  0  0  0  0  0  0  0  0  0  0
   34.4502   -4.4914   11.7541 O   0  0  0  0  0  0  0  0  0  0  0  0
   37.1938   -3.2352   13.6196 C   0  0  0  0  0  0  0  0  0  0  0  0
   37.8616   -3.5766   14.5954 O   0  0  0  0  0  0  0  0  0  0  0  0
   35.9257   -4.8537   13.7155 H   0  0  0  0  0  0  0  0  0  0  0  0
   37.2403    1.8531   15.0931 C   0  0  0  0  0  0  0  0  0  0  0  0
   37.9833    2.8259   18.9660 O   0  0  0  0  0  0  0  0  0  0  0  0
   37.6330    1.4386   18.7813 C   0  0  0  0  0  0  0  0  0  0  0  0
   37.0438    1.2629   17.3715 C   0  0  0  0  0  0  0  0  0  0  0  0
   39.0212    3.2342   18.0472 C   0  0  0  0  0  0  0  0  0  0  0  0
   38.4315    3.1547   16.6355 C   0  0  0  0  0  0  0  0  0  0  0  0
   37.9760    1.7806   16.3545 N   0  0  0  0  0  0  0  0  0  0  0  0
 10 11  1  0  0  0
 10 14  1  0  0  0
 10 15  2  0  0  0
 11 12  2  0  0  0
 12 13  1  0  0  0
 13  7  1  0  0  0
 13 16  1  0  0  0
 14 16  1  0  0  0
 20 21  1  0  0  0
 20 23  1  0  0  0
 21 22  1  0  0  0
 22 25  1  0  0  0
 23 24  1  0  0  0
 24 25  1  0  0  0
 25 19  1  0  0  0
 19  1  1  0  0  0
  1  2  1  0  0  0
  1  3  1  0  0  0
  2  7  1  0  0  0
  3  4  1  0  0  0
  3  5  1  0  0  0
  5  6  1  0  0  0
  5  7  1  0  0  0
 16 17  2  0  0  0
 14 18  1  0  0  0
  4  8  1  0  0  0
  6  9  1  0  0  0
M  END
> <minimizedAffinity>
-5.91632

$$$$
