3KR4_BES_A_1003
  RCSB PDB12061709293D
Coordinates from PDB:3KR4:A:1003 Model:1 without hydrogens
 22 22  0  0  0  0            999 V2000
   84.8320   76.2930   30.1850   N 0  0  0  0  0  0  0  0  0  0  0  0
   85.7750   75.1830   30.1470   C 0  0  0  0  0  0  0  0  0  0  0  0
   85.5270   74.2450   31.3280   C 0  0  0  0  0  0  0  0  0  0  0  0
   84.2390   73.4420   31.3840   C 0  0  0  0  0  0  0  0  0  0  0  0
   84.1080   72.2380   30.6740   C 0  0  0  0  0  0  0  0  0  0  0  0
   83.2110   73.8660   32.2140   C 0  0  0  0  0  0  0  0  0  0  0  0
   82.9350   71.4760   30.7890   C 0  0  0  0  0  0  0  0  0  0  0  0
   82.0370   73.1130   32.3290   C 0  0  0  0  0  0  0  0  0  0  0  0
   81.8900   71.9210   31.6170   C 0  0  0  0  0  0  0  0  0  0  0  0
   87.2530   75.6500   30.2280   C 0  0  0  0  0  0  0  0  0  0  0  0
   87.7150   76.5840   29.2440   O 0  0  0  0  0  0  0  0  0  0  0  0
   88.0330   74.4310   29.8770   C 0  0  0  0  0  0  0  0  0  0  0  0
   87.7090   73.8060   28.8670   O 0  0  0  0  0  0  0  0  0  0  0  0
   89.0330   74.1270   30.7020   N 0  0  0  0  0  0  0  0  0  0  0  0
   89.7930   72.9190   30.4270   C 0  0  0  0  0  0  0  0  0  0  0  0
   91.1820   73.1180   31.0280   C 0  0  0  0  0  0  0  0  0  0  0  0
   92.1760   72.0160   30.6560   C 0  0  0  0  0  0  0  0  0  0  0  0
   92.6890   72.1810   29.2300   C 0  0  0  0  0  0  0  0  0  0  0  0
   93.3240   72.0440   31.6670   C 0  0  0  0  0  0  0  0  0  0  0  0
   88.9950   71.8020   31.0710   C 0  0  0  0  0  0  0  0  0  0  0  0
   88.9640   70.7120   30.4670   O 0  0  0  0  0  0  0  0  0  0  0  0
   88.3610   71.9860   32.1530   O 0  0  0  0  0  0  0  0  0  0  0  0
  1  2  1  0  0  0  0
  2  3  1  0  0  0  0
  2 10  1  0  0  0  0
  3  4  1  0  0  0  0
  4  5  2  0  0  0  0
  4  6  1  0  0  0  0
  5  7  1  0  0  0  0
  6  8  2  0  0  0  0
  7  9  2  0  0  0  0
  8  9  1  0  0  0  0
 10 11  1  0  0  0  0
 10 12  1  0  0  0  0
 12 13  2  0  0  0  0
 12 14  1  0  0  0  0
 14 15  1  0  0  0  0
 15 16  1  0  0  0  0
 15 20  1  0  0  0  0
 16 17  1  0  0  0  0
 17 18  1  0  0  0  0
 17 19  1  0  0  0  0
 20 21  1  0  0  0  0
 20 22  2  0  0  0  0
A    1
N2
A    2
C1
A    3
C6
A    4
C7
A    5
C8
A    6
C12
A    7
C9
A    8
C11
A    9
C10
A   10
C2
A   11
O2
A   12
C3
A   13
O3
A   14
N1
A   15
C4
A   16
C13
A   17
C14
A   18
C15
A   19
C16
A   20
C5
A   21
O1
A   22
O4
M  END
>  <InstanceId>
3KR4_BES_A_1003

>  <ChemCompId>
BES

>  <PdbId>
3KR4

>  <ChainId>
A

>  <ResidueNumber>
1003

>  <InsertionCode>


>  <Model>
1

>  <AltIds>


>  <MissingHeavyAtoms>
0

>  <ObservedFormula>
C16 N2 O4

>  <Name>
2-(3-AMINO-2-HYDROXY-4-PHENYL-BUTYRYLAMINO)-4-METHYL-PENTANOIC ACID

>  <SystematicName>
(2S)-2-[[(2S,3R)-3-amino-2-hydroxy-4-phenyl-butanoyl]amino]-4-methyl-pentanoic acid

>  <Synonyms>
BESTATIN

>  <Type>
NON-POLYMER

>  <Formula>
C16 H24 N2 O4

>  <MolecularWeight>
308.373

>  <ModifiedDate>
2011-06-04

>  <Parent>


>  <OneLetterCode>


>  <SubcomponentList>


>  <AmbiguousFlag>
N

>  <InChI>
InChI=1S/C16H24N2O4/c1-10(2)8-13(16(21)22)18-15(20)14(19)12(17)9-11-6-4-3-5-7-11/h3-7,10,12-14,19H,8-9,17H2,1-2H3,(H,18,20)(H,21,22)/t12-,13+,14+/m1/s1

>  <InChIKey>
VGGGPCQERPFHOB-RDBSUJKOSA-N

>  <SMILES>
CC(C)C[C@@H](C(=O)O)NC(=O)[C@H]([C@@H](Cc1ccccc1)N)O

$$$$
