3KR4_BES_A_1003


 27 27  0  0  0  0  0  0  0  0999 V2000
   87.1638   75.6505   30.2177 C   0  0  0  0  0  0  0  0  0  0  0  0
   87.7135   76.5464   29.2434 O   0  0  0  0  0  0  0  0  0  0  0  0
   87.7303   76.1109   28.3768 H   0  0  0  0  0  0  0  0  0  0  0  0
   84.8680   76.1370   29.3407 N   0  0  0  0  0  0  0  0  0  0  0  0
   85.7100   75.1503   30.0042 C   0  0  0  0  0  0  0  0  0  0  0  0
   83.9276   75.7591   29.2256 H   0  0  0  0  0  0  0  0  0  0  0  0
   85.2599   76.3581   28.4253 H   0  0  0  0  0  0  0  0  0  0  0  0
   85.1363   74.8132   31.3801 C   0  0  0  0  0  0  0  0  0  0  0  0
   84.1930   73.6316   31.5249 C   0  0  0  0  0  0  0  0  0  0  0  0
   83.0416   73.7213   32.3230 C   0  0  0  0  0  0  0  0  0  0  0  0
   84.4333   72.4782   30.7919 C   0  0  0  0  0  0  0  0  0  0  0  0
   82.1471   72.6421   32.3935 C   0  0  0  0  0  0  0  0  0  0  0  0
   83.5476   71.3969   30.8619 C   0  0  0  0  0  0  0  0  0  0  0  0
   82.4064   71.4696   31.6630 C   0  0  0  0  0  0  0  0  0  0  0  0
   87.9951   74.4324   30.0109 C   0  0  0  0  0  0  0  0  0  0  0  0
   87.6162   73.6057   29.1811 O   0  0  0  0  0  0  0  0  0  0  0  0
   89.0971   74.3516   30.7539 N   0  0  0  0  0  0  0  0  0  0  0  0
   89.3488   75.0755   31.3718 H   0  0  0  0  0  0  0  0  0  0  0  0
   89.9158   73.1579   30.6216 C   0  0  0  0  0  0  0  0  0  0  0  0
   89.7115   72.4000   31.9190 C   0  0  0  0  0  0  0  0  0  0  0  0
   90.6321   72.4609   32.7572 O   0  0  0  0  0  0  0  0  0  0  0  0
   88.6683   71.7087   32.1195 O   0  0  0  0  0  0  0  0  0  0  0  0
   91.3920   72.9804   32.5817 H   0  0  0  0  0  0  0  0  0  0  0  0
   91.3513   73.6234   30.3921 C   0  0  0  0  0  0  0  0  0  0  0  0
   92.0515   72.9082   29.2350 C   0  0  0  0  0  0  0  0  0  0  0  0
   93.1966   72.0310   29.7281 C   0  0  0  0  0  0  0  0  0  0  0  0
   91.0074   72.0860   28.4769 C   0  0  0  0  0  0  0  0  0  0  0  0
  4  5  1  0  0  0
  5  8  1  0  0  0
  5  1  1  0  0  0
  8  9  1  0  0  0
  9 10  2  0  0  0
  9 11  1  0  0  0
 10 12  1  0  0  0
 11 13  2  0  0  0
 12 14  2  0  0  0
 13 14  1  0  0  0
  1  2  1  0  0  0
  1 15  1  0  0  0
 15 16  2  0  0  0
 15 17  1  0  0  0
 17 19  1  0  0  0
 19 24  1  0  0  0
 19 20  1  0  0  0
 24 25  1  0  0  0
 25 26  1  0  0  0
 25 27  1  0  0  0
 20 21  1  0  0  0
 20 22  2  0  0  0
  4  6  1  0  0  0
  4  7  1  0  0  0
  2  3  1  0  0  0
 17 18  1  0  0  0
 21 23  1  0  0  0
M  END
> <minimizedAffinity>
-8.66472

$$$$
3KR4_BES_A_1003


 27 27  0  0  0  0  0  0  0  0999 V2000
   89.3322   72.8204   31.7796 C   0  0  0  0  0  0  0  0  0  0  0  0
   89.5543   71.4275   31.5258 O   0  0  0  0  0  0  0  0  0  0  0  0
   89.5738   71.2724   30.5685 H   0  0  0  0  0  0  0  0  0  0  0  0
   89.7695   75.0407   30.7046 N   0  0  0  0  0  0  0  0  0  0  0  0
   90.3797   73.8316   31.2418 C   0  0  0  0  0  0  0  0  0  0  0  0
   90.4990   75.6682   30.3663 H   0  0  0  0  0  0  0  0  0  0  0  0
   89.2339   75.5058   31.4375 H   0  0  0  0  0  0  0  0  0  0  0  0
   91.1822   73.1217   30.1518 C   0  0  0  0  0  0  0  0  0  0  0  0
   92.5008   72.4584   30.5098 C   0  0  0  0  0  0  0  0  0  0  0  0
   93.3522   71.9599   29.5111 C   0  0  0  0  0  0  0  0  0  0  0  0
   92.9025   72.4207   31.8375 C   0  0  0  0  0  0  0  0  0  0  0  0
   94.5962   71.4091   29.8558 C   0  0  0  0  0  0  0  0  0  0  0  0
   94.1397   71.8682   32.1879 C   0  0  0  0  0  0  0  0  0  0  0  0
   94.9887   71.3569   31.2045 C   0  0  0  0  0  0  0  0  0  0  0  0
   88.1209   73.0881   30.9558 C   0  0  0  0  0  0  0  0  0  0  0  0
   88.0396   72.5492   29.8519 O   0  0  0  0  0  0  0  0  0  0  0  0
   87.2166   73.8977   31.5034 N   0  0  0  0  0  0  0  0  0  0  0  0
   87.3412   74.2612   32.4098 H   0  0  0  0  0  0  0  0  0  0  0  0
   86.0392   74.2265   30.7171 C   0  0  0  0  0  0  0  0  0  0  0  0
   86.2590   75.6578   30.2671 C   0  0  0  0  0  0  0  0  0  0  0  0
   85.3958   76.4920   30.6028 O   0  0  0  0  0  0  0  0  0  0  0  0
   87.2555   75.9766   29.5517 O   0  0  0  0  0  0  0  0  0  0  0  0
   84.6695   76.2275   31.1324 H   0  0  0  0  0  0  0  0  0  0  0  0
   84.8276   74.0391   31.6264 C   0  0  0  0  0  0  0  0  0  0  0  0
   83.7723   73.0896   31.0559 C   0  0  0  0  0  0  0  0  0  0  0  0
   84.4081   71.8470   30.4431 C   0  0  0  0  0  0  0  0  0  0  0  0
   82.8008   72.7212   32.1790 C   0  0  0  0  0  0  0  0  0  0  0  0
  4  5  1  0  0  0
  5  8  1  0  0  0
  5  1  1  0  0  0
  8  9  1  0  0  0
  9 10  2  0  0  0
  9 11  1  0  0  0
 10 12  1  0  0  0
 11 13  2  0  0  0
 12 14  2  0  0  0
 13 14  1  0  0  0
  1  2  1  0  0  0
  1 15  1  0  0  0
 15 16  2  0  0  0
 15 17  1  0  0  0
 17 19  1  0  0  0
 19 24  1  0  0  0
 19 20  1  0  0  0
 24 25  1  0  0  0
 25 26  1  0  0  0
 25 27  1  0  0  0
 20 21  1  0  0  0
 20 22  2  0  0  0
  4  6  1  0  0  0
  4  7  1  0  0  0
  2  3  1  0  0  0
 17 18  1  0  0  0
 21 23  1  0  0  0
M  END
> <minimizedAffinity>
-7.85689

$$$$
3KR4_BES_A_1003


 27 27  0  0  0  0  0  0  0  0999 V2000
   87.7068   72.7425   31.1220 C   0  0  0  0  0  0  0  0  0  0  0  0
   87.9249   71.3266   31.0817 O   0  0  0  0  0  0  0  0  0  0  0  0
   87.6566   70.9826   30.2154 H   0  0  0  0  0  0  0  0  0  0  0  0
   87.5834   74.2921   29.1573 N   0  0  0  0  0  0  0  0  0  0  0  0
   88.4721   73.6235   30.0986 C   0  0  0  0  0  0  0  0  0  0  0  0
   88.1352   74.8552   28.5101 H   0  0  0  0  0  0  0  0  0  0  0  0
   86.9386   74.8951   29.6681 H   0  0  0  0  0  0  0  0  0  0  0  0
   89.4414   72.7121   29.3462 C   0  0  0  0  0  0  0  0  0  0  0  0
   90.8853   72.6173   29.8076 C   0  0  0  0  0  0  0  0  0  0  0  0
   91.9429   72.6842   28.8868 C   0  0  0  0  0  0  0  0  0  0  0  0
   91.1599   72.5462   31.1659 C   0  0  0  0  0  0  0  0  0  0  0  0
   93.2720   72.6606   29.3370 C   0  0  0  0  0  0  0  0  0  0  0  0
   92.4831   72.5174   31.6206 C   0  0  0  0  0  0  0  0  0  0  0  0
   93.5430   72.5695   30.7132 C   0  0  0  0  0  0  0  0  0  0  0  0
   86.2860   72.8418   30.6874 C   0  0  0  0  0  0  0  0  0  0  0  0
   85.9142   72.1313   29.7532 O   0  0  0  0  0  0  0  0  0  0  0  0
   85.5322   73.7034   31.3675 N   0  0  0  0  0  0  0  0  0  0  0  0
   85.8983   74.2103   32.1279 H   0  0  0  0  0  0  0  0  0  0  0  0
   84.1503   73.8698   30.9488 C   0  0  0  0  0  0  0  0  0  0  0  0
   84.0617   75.3024   30.4597 C   0  0  0  0  0  0  0  0  0  0  0  0
   83.0868   75.9721   30.8534 O   0  0  0  0  0  0  0  0  0  0  0  0
   84.9210   75.7781   29.6586 O   0  0  0  0  0  0  0  0  0  0  0  0
   82.4672   75.5940   31.4459 H   0  0  0  0  0  0  0  0  0  0  0  0
   83.2759   73.5719   32.1641 C   0  0  0  0  0  0  0  0  0  0  0  0
   82.6043   72.1981   32.1157 C   0  0  0  0  0  0  0  0  0  0  0  0
   82.2245   71.7098   33.5090 C   0  0  0  0  0  0  0  0  0  0  0  0
   81.3775   72.2955   31.2067 C   0  0  0  0  0  0  0  0  0  0  0  0
  4  5  1  0  0  0
  5  8  1  0  0  0
  5  1  1  0  0  0
  8  9  1  0  0  0
  9 10  2  0  0  0
  9 11  1  0  0  0
 10 12  1  0  0  0
 11 13  2  0  0  0
 12 14  2  0  0  0
 13 14  1  0  0  0
  1  2  1  0  0  0
  1 15  1  0  0  0
 15 16  2  0  0  0
 15 17  1  0  0  0
 17 19  1  0  0  0
 19 24  1  0  0  0
 19 20  1  0  0  0
 24 25  1  0  0  0
 25 26  1  0  0  0
 25 27  1  0  0  0
 20 21  1  0  0  0
 20 22  2  0  0  0
  4  6  1  0  0  0
  4  7  1  0  0  0
  2  3  1  0  0  0
 17 18  1  0  0  0
 21 23  1  0  0  0
M  END
> <minimizedAffinity>
-7.71540

$$$$
3KR4_BES_A_1003


 27 27  0  0  0  0  0  0  0  0999 V2000
   90.9562   73.7506   30.8281 C   0  0  0  0  0  0  0  0  0  0  0  0
   90.7912   74.9368   31.6153 O   0  0  0  0  0  0  0  0  0  0  0  0
   90.0085   74.8435   32.1806 H   0  0  0  0  0  0  0  0  0  0  0  0
   90.0346   72.0372   32.4066 N   0  0  0  0  0  0  0  0  0  0  0  0
   91.1730   72.4081   31.5763 C   0  0  0  0  0  0  0  0  0  0  0  0
   90.2287   71.1514   32.8737 H   0  0  0  0  0  0  0  0  0  0  0  0
   89.2049   71.9385   31.8216 H   0  0  0  0  0  0  0  0  0  0  0  0
   92.4231   72.5642   32.4417 C   0  0  0  0  0  0  0  0  0  0  0  0
   93.7156   71.8924   32.0116 C   0  0  0  0  0  0  0  0  0  0  0  0
   94.7958   71.7708   32.9000 C   0  0  0  0  0  0  0  0  0  0  0  0
   93.7954   71.3203   30.7499 C   0  0  0  0  0  0  0  0  0  0  0  0
   95.9583   71.0895   32.5071 C   0  0  0  0  0  0  0  0  0  0  0  0
   94.9537   70.6440   30.3507 C   0  0  0  0  0  0  0  0  0  0  0  0
   96.0395   70.5287   31.2208 C   0  0  0  0  0  0  0  0  0  0  0  0
   89.6068   73.6047   30.2154 C   0  0  0  0  0  0  0  0  0  0  0  0
   89.4528   72.7425   29.3503 O   0  0  0  0  0  0  0  0  0  0  0  0
   88.6710   74.4337   30.6737 N   0  0  0  0  0  0  0  0  0  0  0  0
   88.8672   75.0739   31.3954 H   0  0  0  0  0  0  0  0  0  0  0  0
   87.3499   74.3612   30.0721 C   0  0  0  0  0  0  0  0  0  0  0  0
   86.9320   75.8054   29.8751 C   0  0  0  0  0  0  0  0  0  0  0  0
   87.7455   76.5528   29.2976 O   0  0  0  0  0  0  0  0  0  0  0  0
   85.8227   76.2346   30.3129 O   0  0  0  0  0  0  0  0  0  0  0  0
   88.5583   76.2075   28.9843 H   0  0  0  0  0  0  0  0  0  0  0  0
   86.4608   73.5823   31.0380 C   0  0  0  0  0  0  0  0  0  0  0  0
   85.3859   72.7439   30.3434 C   0  0  0  0  0  0  0  0  0  0  0  0
   85.7601   71.2665   30.3115 C   0  0  0  0  0  0  0  0  0  0  0  0
   84.0589   72.9661   31.0718 C   0  0  0  0  0  0  0  0  0  0  0  0
  4  5  1  0  0  0
  5  8  1  0  0  0
  5  1  1  0  0  0
  8  9  1  0  0  0
  9 10  2  0  0  0
  9 11  1  0  0  0
 10 12  1  0  0  0
 11 13  2  0  0  0
 12 14  2  0  0  0
 13 14  1  0  0  0
  1  2  1  0  0  0
  1 15  1  0  0  0
 15 16  2  0  0  0
 15 17  1  0  0  0
 17 19  1  0  0  0
 19 24  1  0  0  0
 19 20  1  0  0  0
 24 25  1  0  0  0
 25 26  1  0  0  0
 25 27  1  0  0  0
 20 21  1  0  0  0
 20 22  2  0  0  0
  4  6  1  0  0  0
  4  7  1  0  0  0
  2  3  1  0  0  0
 17 18  1  0  0  0
 21 23  1  0  0  0
M  END
> <minimizedAffinity>
-7.71398

$$$$
3KR4_BES_A_1003


 27 27  0  0  0  0  0  0  0  0999 V2000
   85.7559   75.2976   29.8876 C   0  0  0  0  0  0  0  0  0  0  0  0
   84.8851   76.3258   30.3760 O   0  0  0  0  0  0  0  0  0  0  0  0
   84.9582   76.3797   31.3418 H   0  0  0  0  0  0  0  0  0  0  0  0
   87.8535   76.6087   29.4906 N   0  0  0  0  0  0  0  0  0  0  0  0
   87.2773   75.4477   30.1561 C   0  0  0  0  0  0  0  0  0  0  0  0
   88.8506   76.6601   29.6992 H   0  0  0  0  0  0  0  0  0  0  0  0
   87.3924   77.4553   29.8239 H   0  0  0  0  0  0  0  0  0  0  0  0
   87.9565   74.1707   29.6619 C   0  0  0  0  0  0  0  0  0  0  0  0
   89.0071   73.5015   30.5309 C   0  0  0  0  0  0  0  0  0  0  0  0
   90.3564   73.8811   30.4529 C   0  0  0  0  0  0  0  0  0  0  0  0
   88.6108   72.5607   31.4708 C   0  0  0  0  0  0  0  0  0  0  0  0
   91.3032   73.2982   31.3094 C   0  0  0  0  0  0  0  0  0  0  0  0
   89.5510   71.9724   32.3243 C   0  0  0  0  0  0  0  0  0  0  0  0
   90.8978   72.3321   32.2464 C   0  0  0  0  0  0  0  0  0  0  0  0
   85.3566   74.1376   30.7317 C   0  0  0  0  0  0  0  0  0  0  0  0
   85.5953   74.1889   31.9384 O   0  0  0  0  0  0  0  0  0  0  0  0
   84.7606   73.1341   30.0907 N   0  0  0  0  0  0  0  0  0  0  0  0
   84.5738   73.1861   29.1255 H   0  0  0  0  0  0  0  0  0  0  0  0
   84.3955   71.9593   30.8646 C   0  0  0  0  0  0  0  0  0  0  0  0
   85.1820   70.8226   30.2414 C   0  0  0  0  0  0  0  0  0  0  0  0
   85.9225   71.1109   29.2810 O   0  0  0  0  0  0  0  0  0  0  0  0
   85.0590   69.6318   30.6579 O   0  0  0  0  0  0  0  0  0  0  0  0
   85.9938   72.0003   28.9948 H   0  0  0  0  0  0  0  0  0  0  0  0
   82.8811   71.8030   30.7527 C   0  0  0  0  0  0  0  0  0  0  0  0
   82.1645   71.7781   32.1042 C   0  0  0  0  0  0  0  0  0  0  0  0
   82.6905   72.8619   33.0384 C   0  0  0  0  0  0  0  0  0  0  0  0
   80.6636   71.9390   31.8546 C   0  0  0  0  0  0  0  0  0  0  0  0
  4  5  1  0  0  0
  5  8  1  0  0  0
  5  1  1  0  0  0
  8  9  1  0  0  0
  9 10  2  0  0  0
  9 11  1  0  0  0
 10 12  1  0  0  0
 11 13  2  0  0  0
 12 14  2  0  0  0
 13 14  1  0  0  0
  1  2  1  0  0  0
  1 15  1  0  0  0
 15 16  2  0  0  0
 15 17  1  0  0  0
 17 19  1  0  0  0
 19 24  1  0  0  0
 19 20  1  0  0  0
 24 25  1  0  0  0
 25 26  1  0  0  0
 25 27  1  0  0  0
 20 21  1  0  0  0
 20 22  2  0  0  0
  4  6  1  0  0  0
  4  7  1  0  0  0
  2  3  1  0  0  0
 17 18  1  0  0  0
 21 23  1  0  0  0
M  END
> <minimizedAffinity>
-7.62267

$$$$
3KR4_BES_A_1003


 27 27  0  0  0  0  0  0  0  0999 V2000
   89.8898   72.6755   30.4482 C   0  0  0  0  0  0  0  0  0  0  0  0
   90.6308   73.3108   29.3988 O   0  0  0  0  0  0  0  0  0  0  0  0
   90.3125   74.2197   29.2827 H   0  0  0  0  0  0  0  0  0  0  0  0
   90.4940   74.6557   31.8590 N   0  0  0  0  0  0  0  0  0  0  0  0
   89.9630   73.2989   31.8678 C   0  0  0  0  0  0  0  0  0  0  0  0
   90.5205   75.0166   32.8126 H   0  0  0  0  0  0  0  0  0  0  0  0
   89.8956   75.2513   31.2866 H   0  0  0  0  0  0  0  0  0  0  0  0
   90.8535   72.3940   32.7187 C   0  0  0  0  0  0  0  0  0  0  0  0
   92.0377   71.6947   32.0740 C   0  0  0  0  0  0  0  0  0  0  0  0
   93.1905   72.4110   31.7148 C   0  0  0  0  0  0  0  0  0  0  0  0
   92.0073   70.3165   31.9152 C   0  0  0  0  0  0  0  0  0  0  0  0
   94.3003   71.7383   31.1803 C   0  0  0  0  0  0  0  0  0  0  0  0
   93.1090   69.6408   31.3783 C   0  0  0  0  0  0  0  0  0  0  0  0
   94.2556   70.3445   31.0047 C   0  0  0  0  0  0  0  0  0  0  0  0
   88.4855   72.9249   30.0200 C   0  0  0  0  0  0  0  0  0  0  0  0
   88.0411   72.2684   29.0781 O   0  0  0  0  0  0  0  0  0  0  0  0
   87.8252   73.8500   30.7138 N   0  0  0  0  0  0  0  0  0  0  0  0
   88.2429   74.3068   31.4793 H   0  0  0  0  0  0  0  0  0  0  0  0
   86.4666   74.1621   30.3022 C   0  0  0  0  0  0  0  0  0  0  0  0
   86.4999   75.6324   29.9329 C   0  0  0  0  0  0  0  0  0  0  0  0
   87.4982   76.0318   29.3023 O   0  0  0  0  0  0  0  0  0  0  0  0
   85.5711   76.4200   30.2846 O   0  0  0  0  0  0  0  0  0  0  0  0
   88.1695   75.4264   29.0555 H   0  0  0  0  0  0  0  0  0  0  0  0
   85.5558   73.8376   31.4834 C   0  0  0  0  0  0  0  0  0  0  0  0
   84.2358   73.1785   31.0784 C   0  0  0  0  0  0  0  0  0  0  0  0
   84.4528   71.7640   30.5532 C   0  0  0  0  0  0  0  0  0  0  0  0
   83.3042   73.1846   32.2921 C   0  0  0  0  0  0  0  0  0  0  0  0
  4  5  1  0  0  0
  5  8  1  0  0  0
  5  1  1  0  0  0
  8  9  1  0  0  0
  9 10  2  0  0  0
  9 11  1  0  0  0
 10 12  1  0  0  0
 11 13  2  0  0  0
 12 14  2  0  0  0
 13 14  1  0  0  0
  1  2  1  0  0  0
  1 15  1  0  0  0
 15 16  2  0  0  0
 15 17  1  0  0  0
 17 19  1  0  0  0
 19 24  1  0  0  0
 19 20  1  0  0  0
 24 25  1  0  0  0
 25 26  1  0  0  0
 25 27  1  0  0  0
 20 21  1  0  0  0
 20 22  2  0  0  0
  4  6  1  0  0  0
  4  7  1  0  0  0
  2  3  1  0  0  0
 17 18  1  0  0  0
 21 23  1  0  0  0
M  END
> <minimizedAffinity>
-7.25245

$$$$
3KR4_BES_A_1003


 27 27  0  0  0  0  0  0  0  0999 V2000
   89.6309   72.5859   30.3688 C   0  0  0  0  0  0  0  0  0  0  0  0
   90.3250   73.1764   29.2627 O   0  0  0  0  0  0  0  0  0  0  0  0
   90.0378   74.0966   29.1547 H   0  0  0  0  0  0  0  0  0  0  0  0
   90.3970   74.5616   31.7054 N   0  0  0  0  0  0  0  0  0  0  0  0
   89.8263   73.2227   31.7708 C   0  0  0  0  0  0  0  0  0  0  0  0
   90.5039   74.9322   32.6497 H   0  0  0  0  0  0  0  0  0  0  0  0
   89.7774   75.1695   31.1697 H   0  0  0  0  0  0  0  0  0  0  0  0
   90.7478   72.2994   32.5674 C   0  0  0  0  0  0  0  0  0  0  0  0
   90.4764   70.8050   32.5789 C   0  0  0  0  0  0  0  0  0  0  0  0
   89.2460   70.2986   33.0268 C   0  0  0  0  0  0  0  0  0  0  0  0
   91.4293   69.9387   32.0622 C   0  0  0  0  0  0  0  0  0  0  0  0
   88.9883   68.9202   32.9692 C   0  0  0  0  0  0  0  0  0  0  0  0
   91.1800   68.5628   32.0068 C   0  0  0  0  0  0  0  0  0  0  0  0
   89.9654   68.0463   32.4621 C   0  0  0  0  0  0  0  0  0  0  0  0
   88.2125   72.8900   30.0324 C   0  0  0  0  0  0  0  0  0  0  0  0
   87.7375   72.3875   29.0138 O   0  0  0  0  0  0  0  0  0  0  0  0
   87.5745   73.6891   30.8853 N   0  0  0  0  0  0  0  0  0  0  0  0
   88.0172   74.0221   31.6992 H   0  0  0  0  0  0  0  0  0  0  0  0
   86.2022   74.0527   30.5738 C   0  0  0  0  0  0  0  0  0  0  0  0
   86.3059   75.3839   29.8552 C   0  0  0  0  0  0  0  0  0  0  0  0
   87.0602   75.4311   28.8639 O   0  0  0  0  0  0  0  0  0  0  0  0
   85.6816   76.4058   30.2705 O   0  0  0  0  0  0  0  0  0  0  0  0
   87.5090   74.6593   28.5795 H   0  0  0  0  0  0  0  0  0  0  0  0
   85.4451   74.1174   31.8977 C   0  0  0  0  0  0  0  0  0  0  0  0
   84.0703   73.4477   31.8525 C   0  0  0  0  0  0  0  0  0  0  0  0
   82.9728   74.4427   31.4930 C   0  0  0  0  0  0  0  0  0  0  0  0
   84.1298   72.2972   30.8457 C   0  0  0  0  0  0  0  0  0  0  0  0
  4  5  1  0  0  0
  5  8  1  0  0  0
  5  1  1  0  0  0
  8  9  1  0  0  0
  9 10  2  0  0  0
  9 11  1  0  0  0
 10 12  1  0  0  0
 11 13  2  0  0  0
 12 14  2  0  0  0
 13 14  1  0  0  0
  1  2  1  0  0  0
  1 15  1  0  0  0
 15 16  2  0  0  0
 15 17  1  0  0  0
 17 19  1  0  0  0
 19 24  1  0  0  0
 19 20  1  0  0  0
 24 25  1  0  0  0
 25 26  1  0  0  0
 25 27  1  0  0  0
 20 21  1  0  0  0
 20 22  2  0  0  0
  4  6  1  0  0  0
  4  7  1  0  0  0
  2  3  1  0  0  0
 17 18  1  0  0  0
 21 23  1  0  0  0
M  END
> <minimizedAffinity>
-7.18351

$$$$
3KR4_BES_A_1003


 27 27  0  0  0  0  0  0  0  0999 V2000
   88.4473   73.9479   30.8841 C   0  0  0  0  0  0  0  0  0  0  0  0
   89.5979   74.6640   30.4178 O   0  0  0  0  0  0  0  0  0  0  0  0
   89.8379   74.3489   29.5323 H   0  0  0  0  0  0  0  0  0  0  0  0
   87.2491   75.0113   28.9580 N   0  0  0  0  0  0  0  0  0  0  0  0
   87.1372   74.0649   30.0601 C   0  0  0  0  0  0  0  0  0  0  0  0
   86.3646   75.0496   28.4516 H   0  0  0  0  0  0  0  0  0  0  0  0
   87.9904   74.7103   28.3253 H   0  0  0  0  0  0  0  0  0  0  0  0
   86.0323   74.5069   31.0192 C   0  0  0  0  0  0  0  0  0  0  0  0
   84.8077   73.6270   31.2012 C   0  0  0  0  0  0  0  0  0  0  0  0
   84.7309   72.3631   30.5949 C   0  0  0  0  0  0  0  0  0  0  0  0
   83.7897   74.0477   32.0451 C   0  0  0  0  0  0  0  0  0  0  0  0
   83.6206   71.5365   30.8268 C   0  0  0  0  0  0  0  0  0  0  0  0
   82.6778   73.2300   32.2763 C   0  0  0  0  0  0  0  0  0  0  0  0
   82.5841   71.9768   31.6678 C   0  0  0  0  0  0  0  0  0  0  0  0
   88.8702   72.5341   30.6846 C   0  0  0  0  0  0  0  0  0  0  0  0
   88.4306   71.9297   29.7063 O   0  0  0  0  0  0  0  0  0  0  0  0
   89.7067   72.0463   31.5987 N   0  0  0  0  0  0  0  0  0  0  0  0
   90.0405   72.6084   32.3348 H   0  0  0  0  0  0  0  0  0  0  0  0
   90.1100   70.6556   31.4725 C   0  0  0  0  0  0  0  0  0  0  0  0
   89.9098   70.0653   32.8548 C   0  0  0  0  0  0  0  0  0  0  0  0
   90.6053   69.0737   33.1494 O   0  0  0  0  0  0  0  0  0  0  0  0
   89.0475   70.5394   33.6538 O   0  0  0  0  0  0  0  0  0  0  0  0
   91.2352   68.7451   32.5385 H   0  0  0  0  0  0  0  0  0  0  0  0
   91.5610   70.6521   30.9986 C   0  0  0  0  0  0  0  0  0  0  0  0
   92.2516   72.0116   31.1241 C   0  0  0  0  0  0  0  0  0  0  0  0
   93.4054   71.9651   32.1194 C   0  0  0  0  0  0  0  0  0  0  0  0
   92.7321   72.4358   29.7348 C   0  0  0  0  0  0  0  0  0  0  0  0
  4  5  1  0  0  0
  5  8  1  0  0  0
  5  1  1  0  0  0
  8  9  1  0  0  0
  9 10  2  0  0  0
  9 11  1  0  0  0
 10 12  1  0  0  0
 11 13  2  0  0  0
 12 14  2  0  0  0
 13 14  1  0  0  0
  1  2  1  0  0  0
  1 15  1  0  0  0
 15 16  2  0  0  0
 15 17  1  0  0  0
 17 19  1  0  0  0
 19 24  1  0  0  0
 19 20  1  0  0  0
 24 25  1  0  0  0
 25 26  1  0  0  0
 25 27  1  0  0  0
 20 21  1  0  0  0
 20 22  2  0  0  0
  4  6  1  0  0  0
  4  7  1  0  0  0
  2  3  1  0  0  0
 17 18  1  0  0  0
 21 23  1  0  0  0
M  END
> <minimizedAffinity>
-7.03607

$$$$
3KR4_BES_A_1003


 27 27  0  0  0  0  0  0  0  0999 V2000
   88.4321   73.3053   30.3507 C   0  0  0  0  0  0  0  0  0  0  0  0
   89.6228   74.0633   30.1021 O   0  0  0  0  0  0  0  0  0  0  0  0
   89.7543   74.1542   29.1453 H   0  0  0  0  0  0  0  0  0  0  0  0
   87.2664   75.0400   28.9691 N   0  0  0  0  0  0  0  0  0  0  0  0
   87.0873   73.8742   29.8245 C   0  0  0  0  0  0  0  0  0  0  0  0
   86.3557   75.3723   28.6521 H   0  0  0  0  0  0  0  0  0  0  0  0
   87.8352   74.7851   28.1617 H   0  0  0  0  0  0  0  0  0  0  0  0
   86.2400   74.2435   31.0417 C   0  0  0  0  0  0  0  0  0  0  0  0
   84.9394   73.5018   31.2970 C   0  0  0  0  0  0  0  0  0  0  0  0
   83.9360   74.0615   32.1038 C   0  0  0  0  0  0  0  0  0  0  0  0
   84.7112   72.2925   30.6560 C   0  0  0  0  0  0  0  0  0  0  0  0
   82.7146   73.3918   32.2759 C   0  0  0  0  0  0  0  0  0  0  0  0
   83.4973   71.6176   30.8276 C   0  0  0  0  0  0  0  0  0  0  0  0
   82.4974   72.1580   31.6386 C   0  0  0  0  0  0  0  0  0  0  0  0
   88.6624   72.0971   29.5112 C   0  0  0  0  0  0  0  0  0  0  0  0
   89.7077   72.0311   28.8642 O   0  0  0  0  0  0  0  0  0  0  0  0
   87.6990   71.1785   29.5434 N   0  0  0  0  0  0  0  0  0  0  0  0
   86.9067   71.2916   30.1168 H   0  0  0  0  0  0  0  0  0  0  0  0
   87.8570   70.0032   28.7031 C   0  0  0  0  0  0  0  0  0  0  0  0
   86.7897   70.1419   27.6351 C   0  0  0  0  0  0  0  0  0  0  0  0
   87.1792   70.1772   26.4515 O   0  0  0  0  0  0  0  0  0  0  0  0
   85.5646   70.2540   27.9403 O   0  0  0  0  0  0  0  0  0  0  0  0
   88.0915   70.0916   26.2557 H   0  0  0  0  0  0  0  0  0  0  0  0
   87.6817   68.7830   29.6034 C   0  0  0  0  0  0  0  0  0  0  0  0
   86.9779   69.0916   30.9263 C   0  0  0  0  0  0  0  0  0  0  0  0
   85.5891   68.4655   30.9825 C   0  0  0  0  0  0  0  0  0  0  0  0
   87.8619   68.5880   32.0691 C   0  0  0  0  0  0  0  0  0  0  0  0
  4  5  1  0  0  0
  5  8  1  0  0  0
  5  1  1  0  0  0
  8  9  1  0  0  0
  9 10  2  0  0  0
  9 11  1  0  0  0
 10 12  1  0  0  0
 11 13  2  0  0  0
 12 14  2  0  0  0
 13 14  1  0  0  0
  1  2  1  0  0  0
  1 15  1  0  0  0
 15 16  2  0  0  0
 15 17  1  0  0  0
 17 19  1  0  0  0
 19 24  1  0  0  0
 19 20  1  0  0  0
 24 25  1  0  0  0
 25 26  1  0  0  0
 25 27  1  0  0  0
 20 21  1  0  0  0
 20 22  2  0  0  0
  4  6  1  0  0  0
  4  7  1  0  0  0
  2  3  1  0  0  0
 17 18  1  0  0  0
 21 23  1  0  0  0
M  END
> <minimizedAffinity>
-6.94714

$$$$
3KR4_BES_A_1003


 27 27  0  0  0  0  0  0  0  0999 V2000
   88.0874   74.1285   31.0087 C   0  0  0  0  0  0  0  0  0  0  0  0
   89.2305   74.9581   30.7652 O   0  0  0  0  0  0  0  0  0  0  0  0
   89.5934   74.7591   29.8879 H   0  0  0  0  0  0  0  0  0  0  0  0
   87.1103   75.2253   28.9792 N   0  0  0  0  0  0  0  0  0  0  0  0
   86.8768   74.2614   30.0465 C   0  0  0  0  0  0  0  0  0  0  0  0
   86.2874   75.2735   28.3785 H   0  0  0  0  0  0  0  0  0  0  0  0
   87.9172   74.9332   28.4278 H   0  0  0  0  0  0  0  0  0  0  0  0
   85.6724   74.6899   30.8843 C   0  0  0  0  0  0  0  0  0  0  0  0
   84.6025   73.6681   31.2282 C   0  0  0  0  0  0  0  0  0  0  0  0
   83.5548   73.9881   32.1060 C   0  0  0  0  0  0  0  0  0  0  0  0
   84.6197   72.4308   30.6003 C   0  0  0  0  0  0  0  0  0  0  0  0
   82.5392   73.0538   32.3616 C   0  0  0  0  0  0  0  0  0  0  0  0
   83.6125   71.4931   30.8549 C   0  0  0  0  0  0  0  0  0  0  0  0
   82.5729   71.7952   31.7367 C   0  0  0  0  0  0  0  0  0  0  0  0
   88.6300   72.7731   30.7158 C   0  0  0  0  0  0  0  0  0  0  0  0
   88.6341   71.9414   31.6235 O   0  0  0  0  0  0  0  0  0  0  0  0
   89.0641   72.5805   29.4718 N   0  0  0  0  0  0  0  0  0  0  0  0
   88.9930   73.2893   28.7923 H   0  0  0  0  0  0  0  0  0  0  0  0
   89.6464   71.2879   29.1513 C   0  0  0  0  0  0  0  0  0  0  0  0
   90.8593   71.6079   28.2994 C   0  0  0  0  0  0  0  0  0  0  0  0
   91.3541   72.7446   28.4293 O   0  0  0  0  0  0  0  0  0  0  0  0
   91.3200   70.7681   27.4693 O   0  0  0  0  0  0  0  0  0  0  0  0
   90.9925   73.3447   29.0513 H   0  0  0  0  0  0  0  0  0  0  0  0
   88.5723   70.4808   28.4267 C   0  0  0  0  0  0  0  0  0  0  0  0
   88.1404   69.2196   29.1775 C   0  0  0  0  0  0  0  0  0  0  0  0
   89.1988   68.7728   30.1795 C   0  0  0  0  0  0  0  0  0  0  0  0
   86.8058   69.5060   29.8687 C   0  0  0  0  0  0  0  0  0  0  0  0
  4  5  1  0  0  0
  5  8  1  0  0  0
  5  1  1  0  0  0
  8  9  1  0  0  0
  9 10  2  0  0  0
  9 11  1  0  0  0
 10 12  1  0  0  0
 11 13  2  0  0  0
 12 14  2  0  0  0
 13 14  1  0  0  0
  1  2  1  0  0  0
  1 15  1  0  0  0
 15 16  2  0  0  0
 15 17  1  0  0  0
 17 19  1  0  0  0
 19 24  1  0  0  0
 19 20  1  0  0  0
 24 25  1  0  0  0
 25 26  1  0  0  0
 25 27  1  0  0  0
 20 21  1  0  0  0
 20 22  2  0  0  0
  4  6  1  0  0  0
  4  7  1  0  0  0
  2  3  1  0  0  0
 17 18  1  0  0  0
 21 23  1  0  0  0
M  END
> <minimizedAffinity>
-6.88424

$$$$
