3V5P_C88_A_1


 29 32  0  0  0  0  0  0  0  0999 V2000
   26.2470   15.1749   30.9147 N   0  0  0  0  0  0  0  0  0  0  0  0
   25.0712   15.4322   31.1967 N   0  0  0  0  0  0  0  0  0  0  0  0
   26.4490   13.8556   30.8197 C   0  0  0  0  0  0  0  0  0  0  0  0
   27.5346   13.0962   30.5626 N   0  0  0  0  0  0  0  0  0  0  0  0
   27.4319   11.7756   30.5075 C   0  0  0  0  0  0  0  0  0  0  0  0
   26.2726   11.1552   30.7178 N   0  0  0  0  0  0  0  0  0  0  0  0
   25.1560   11.8485   31.0017 C   0  0  0  0  0  0  0  0  0  0  0  0
   24.0198   11.1833   31.2051 N   0  0  0  0  0  0  0  0  0  0  0  0
   25.2191   13.2447   31.0625 C   0  0  0  0  0  0  0  0  0  0  0  0
   24.3420   14.3128   31.2832 C   0  0  0  0  0  0  0  0  0  0  0  0
   24.0093   10.2001   31.1551 H   0  0  0  0  0  0  0  0  0  0  0  0
   23.1907   11.6749   31.4054 H   0  0  0  0  0  0  0  0  0  0  0  0
   22.9865   14.2903   31.6251 C   0  0  0  0  0  0  0  0  0  0  0  0
   22.5897   13.7658   32.8672 C   0  0  0  0  0  0  0  0  0  0  0  0
   21.2497   13.7995   33.2634 C   0  0  0  0  0  0  0  0  0  0  0  0
   20.8122   13.1869   34.5884 C   0  0  0  0  0  0  0  0  0  0  0  0
   20.2980   14.3870   32.4342 C   0  0  0  0  0  0  0  0  0  0  0  0
   20.6837   14.9395   31.2017 C   0  0  0  0  0  0  0  0  0  0  0  0
   22.0254   14.9045   30.8149 C   0  0  0  0  0  0  0  0  0  0  0  0
   19.0144   14.3828   32.8500 O   0  0  0  0  0  0  0  0  0  0  0  0
   17.9988   14.5027   31.8318 C   0  0  0  0  0  0  0  0  0  0  0  0
   27.2836   16.2370   30.8019 C   0  0  0  0  0  0  0  0  0  0  0  0
   28.5641   17.9110   29.4769 C   0  0  0  0  0  0  0  0  0  0  0  0
   28.9443   18.4404   28.0870 C   0  0  0  0  0  0  0  0  0  0  0  0
   27.7196   18.5695   27.2902 N   0  0  0  0  0  0  0  0  0  0  0  0
   27.1515   17.2316   27.0441 C   0  0  0  0  0  0  0  0  0  0  0  0
   26.7303   16.5753   28.3767 C   0  0  0  0  0  0  0  0  0  0  0  0
   27.8700   16.5340   29.4117 C   0  0  0  0  0  0  0  0  0  0  0  0
   27.0421   19.1387   27.7976 H   0  0  0  0  0  0  0  0  0  0  0  0
 26 25  1  0  0  0
 26 27  1  0  0  0
 25 24  1  0  0  0
 24 23  1  0  0  0
 27 28  1  0  0  0
 28 23  1  0  0  0
 28 22  1  0  0  0
 22  1  1  0  0  0
  4  5  2  0  0  0
  4  3  1  0  0  0
  5  6  1  0  0  0
  1  3  1  0  0  0
  1  2  1  0  0  0
  3  9  2  0  0  0
  6  7  2  0  0  0
 19 18  2  0  0  0
 19 13  1  0  0  0
  2 10  2  0  0  0
  9  7  1  0  0  0
  9 10  1  0  0  0
  7  8  1  0  0  0
 10 13  1  0  0  0
 18 17  1  0  0  0
 13 14  2  0  0  0
 21 20  1  0  0  0
 17 20  1  0  0  0
 17 15  2  0  0  0
 14 15  1  0  0  0
 15 16  1  0  0  0
 25 29  1  0  0  0
  8 11  1  0  0  0
  8 12  1  0  0  0
M  END
> <minimizedAffinity>
-9.53391

$$$$
3V5P_C88_A_1


 29 32  0  0  0  0  0  0  0  0999 V2000
   23.6607   14.2226   30.8485 N   0  0  0  0  0  0  0  0  0  0  0  0
   24.2701   15.2661   30.5875 N   0  0  0  0  0  0  0  0  0  0  0  0
   24.4813   13.1656   30.8514 C   0  0  0  0  0  0  0  0  0  0  0  0
   24.2963   11.8441   31.0530 N   0  0  0  0  0  0  0  0  0  0  0  0
   25.3255   11.0093   31.0168 C   0  0  0  0  0  0  0  0  0  0  0  0
   26.5622   11.4347   30.7666 N   0  0  0  0  0  0  0  0  0  0  0  0
   26.8151   12.7347   30.5338 C   0  0  0  0  0  0  0  0  0  0  0  0
   28.0687   13.1123   30.2873 N   0  0  0  0  0  0  0  0  0  0  0  0
   25.7581   13.6504   30.5696 C   0  0  0  0  0  0  0  0  0  0  0  0
   25.5779   15.0309   30.4254 C   0  0  0  0  0  0  0  0  0  0  0  0
   28.7900   12.4425   30.2691 H   0  0  0  0  0  0  0  0  0  0  0  0
   28.2737   14.0611   30.1233 H   0  0  0  0  0  0  0  0  0  0  0  0
   26.5105   16.0155   30.0857 C   0  0  0  0  0  0  0  0  0  0  0  0
   26.4529   16.6229   28.8195 C   0  0  0  0  0  0  0  0  0  0  0  0
   27.3264   17.6610   28.4830 C   0  0  0  0  0  0  0  0  0  0  0  0
   27.2967   18.2861   27.0935 C   0  0  0  0  0  0  0  0  0  0  0  0
   28.2453   18.1230   29.4214 C   0  0  0  0  0  0  0  0  0  0  0  0
   28.2966   17.5440   30.7001 C   0  0  0  0  0  0  0  0  0  0  0  0
   27.4179   16.5094   31.0293 C   0  0  0  0  0  0  0  0  0  0  0  0
   29.0792   19.1158   29.0476 O   0  0  0  0  0  0  0  0  0  0  0  0
   30.4943   18.8489   29.1422 C   0  0  0  0  0  0  0  0  0  0  0  0
   22.1840   14.1942   31.0323 C   0  0  0  0  0  0  0  0  0  0  0  0
   22.0376   13.2442   33.3287 C   0  0  0  0  0  0  0  0  0  0  0  0
   21.3066   13.2360   34.6786 C   0  0  0  0  0  0  0  0  0  0  0  0
   19.8647   13.1530   34.4233 N   0  0  0  0  0  0  0  0  0  0  0  0
   19.4133   14.3871   33.7551 C   0  0  0  0  0  0  0  0  0  0  0  0
   20.0874   14.5249   32.3729 C   0  0  0  0  0  0  0  0  0  0  0  0
   21.6234   14.4386   32.4433 C   0  0  0  0  0  0  0  0  0  0  0  0
   19.6709   12.3511   33.8236 H   0  0  0  0  0  0  0  0  0  0  0  0
 26 25  1  0  0  0
 26 27  1  0  0  0
 25 24  1  0  0  0
 24 23  1  0  0  0
 27 28  1  0  0  0
 28 23  1  0  0  0
 28 22  1  0  0  0
 22  1  1  0  0  0
  4  5  2  0  0  0
  4  3  1  0  0  0
  5  6  1  0  0  0
  1  3  1  0  0  0
  1  2  1  0  0  0
  3  9  2  0  0  0
  6  7  2  0  0  0
 19 18  2  0  0  0
 19 13  1  0  0  0
  2 10  2  0  0  0
  9  7  1  0  0  0
  9 10  1  0  0  0
  7  8  1  0  0  0
 10 13  1  0  0  0
 18 17  1  0  0  0
 13 14  2  0  0  0
 21 20  1  0  0  0
 17 20  1  0  0  0
 17 15  2  0  0  0
 14 15  1  0  0  0
 15 16  1  0  0  0
 25 29  1  0  0  0
  8 11  1  0  0  0
  8 12  1  0  0  0
M  END
> <minimizedAffinity>
-8.78874

$$$$
3V5P_C88_A_1


 29 32  0  0  0  0  0  0  0  0999 V2000
   26.7443   13.7955   30.5329 N   0  0  0  0  0  0  0  0  0  0  0  0
   25.6484   13.4684   31.0021 N   0  0  0  0  0  0  0  0  0  0  0  0
   26.7389   15.0686   30.1208 C   0  0  0  0  0  0  0  0  0  0  0  0
   27.6602   15.8611   29.5341 N   0  0  0  0  0  0  0  0  0  0  0  0
   27.3758   17.1245   29.2507 C   0  0  0  0  0  0  0  0  0  0  0  0
   26.1804   17.6483   29.5149 N   0  0  0  0  0  0  0  0  0  0  0  0
   25.2080   16.9093   30.0775 C   0  0  0  0  0  0  0  0  0  0  0  0
   24.0280   17.4772   30.3220 N   0  0  0  0  0  0  0  0  0  0  0  0
   25.4689   15.5729   30.3991 C   0  0  0  0  0  0  0  0  0  0  0  0
   24.7953   14.5001   30.9942 C   0  0  0  0  0  0  0  0  0  0  0  0
   23.8767   18.4203   30.0834 H   0  0  0  0  0  0  0  0  0  0  0  0
   23.3073   16.9538   30.7414 H   0  0  0  0  0  0  0  0  0  0  0  0
   23.4692   14.4180   31.4295 C   0  0  0  0  0  0  0  0  0  0  0  0
   23.1827   13.8700   32.6916 C   0  0  0  0  0  0  0  0  0  0  0  0
   21.8734   13.8445   33.1806 C   0  0  0  0  0  0  0  0  0  0  0  0
   21.5558   13.2061   34.5274 C   0  0  0  0  0  0  0  0  0  0  0  0
   20.8423   14.3959   32.4249 C   0  0  0  0  0  0  0  0  0  0  0  0
   21.1172   14.9714   31.1734 C   0  0  0  0  0  0  0  0  0  0  0  0
   22.4289   14.9957   30.6937 C   0  0  0  0  0  0  0  0  0  0  0  0
   19.5922   14.3348   32.9291 O   0  0  0  0  0  0  0  0  0  0  0  0
   18.5065   14.5888   32.0130 C   0  0  0  0  0  0  0  0  0  0  0  0
   27.8620   12.8240   30.3831 C   0  0  0  0  0  0  0  0  0  0  0  0
   29.5040   13.0808   28.5296 C   0  0  0  0  0  0  0  0  0  0  0  0
   30.9635   13.3268   28.1222 C   0  0  0  0  0  0  0  0  0  0  0  0
   31.8215   12.4444   28.9200 N   0  0  0  0  0  0  0  0  0  0  0  0
   31.7511   12.8427   30.3376 C   0  0  0  0  0  0  0  0  0  0  0  0
   30.3173   12.6509   30.8771 C   0  0  0  0  0  0  0  0  0  0  0  0
   29.2546   13.3695   30.0250 C   0  0  0  0  0  0  0  0  0  0  0  0
   31.5034   11.4803   28.8213 H   0  0  0  0  0  0  0  0  0  0  0  0
 26 25  1  0  0  0
 26 27  1  0  0  0
 25 24  1  0  0  0
 24 23  1  0  0  0
 27 28  1  0  0  0
 28 23  1  0  0  0
 28 22  1  0  0  0
 22  1  1  0  0  0
  4  5  2  0  0  0
  4  3  1  0  0  0
  5  6  1  0  0  0
  1  3  1  0  0  0
  1  2  1  0  0  0
  3  9  2  0  0  0
  6  7  2  0  0  0
 19 18  2  0  0  0
 19 13  1  0  0  0
  2 10  2  0  0  0
  9  7  1  0  0  0
  9 10  1  0  0  0
  7  8  1  0  0  0
 10 13  1  0  0  0
 18 17  1  0  0  0
 13 14  2  0  0  0
 21 20  1  0  0  0
 17 20  1  0  0  0
 17 15  2  0  0  0
 14 15  1  0  0  0
 15 16  1  0  0  0
 25 29  1  0  0  0
  8 11  1  0  0  0
  8 12  1  0  0  0
M  END
> <minimizedAffinity>
-8.15739

$$$$
3V5P_C88_A_1


 29 32  0  0  0  0  0  0  0  0999 V2000
   23.9062   14.6554   30.9424 N   0  0  0  0  0  0  0  0  0  0  0  0
   24.7104   15.5477   30.6501 N   0  0  0  0  0  0  0  0  0  0  0  0
   24.4822   13.4481   30.9074 C   0  0  0  0  0  0  0  0  0  0  0  0
   24.0300   12.1945   31.1202 N   0  0  0  0  0  0  0  0  0  0  0  0
   24.8551   11.1603   31.0356 C   0  0  0  0  0  0  0  0  0  0  0  0
   26.1406   11.3151   30.7249 N   0  0  0  0  0  0  0  0  0  0  0  0
   26.6529   12.5335   30.4776 C   0  0  0  0  0  0  0  0  0  0  0  0
   27.9449   12.6380   30.1698 N   0  0  0  0  0  0  0  0  0  0  0  0
   25.8179   13.6527   30.5630 C   0  0  0  0  0  0  0  0  0  0  0  0
   25.9290   15.0411   30.4251 C   0  0  0  0  0  0  0  0  0  0  0  0
   28.5054   11.8303   30.1179 H   0  0  0  0  0  0  0  0  0  0  0  0
   28.3391   13.5229   29.9943 H   0  0  0  0  0  0  0  0  0  0  0  0
   27.0324   15.8078   30.0387 C   0  0  0  0  0  0  0  0  0  0  0  0
   27.6184   15.6000   28.7782 C   0  0  0  0  0  0  0  0  0  0  0  0
   28.6748   16.4030   28.3387 C   0  0  0  0  0  0  0  0  0  0  0  0
   29.3423   16.1464   26.9930 C   0  0  0  0  0  0  0  0  0  0  0  0
   29.1344   17.4423   29.1430 C   0  0  0  0  0  0  0  0  0  0  0  0
   28.5408   17.6792   30.3939 C   0  0  0  0  0  0  0  0  0  0  0  0
   27.4835   16.8742   30.8240 C   0  0  0  0  0  0  0  0  0  0  0  0
   30.1663   18.1815   28.6853 O   0  0  0  0  0  0  0  0  0  0  0  0
   30.3041   19.5130   29.2242 C   0  0  0  0  0  0  0  0  0  0  0  0
   22.4677   14.9401   31.1977 C   0  0  0  0  0  0  0  0  0  0  0  0
   20.3144   14.6188   32.4049 C   0  0  0  0  0  0  0  0  0  0  0  0
   19.5590   13.8934   33.5273 C   0  0  0  0  0  0  0  0  0  0  0  0
   20.3711   13.9560   34.7471 N   0  0  0  0  0  0  0  0  0  0  0  0
   21.6061   13.1744   34.5544 C   0  0  0  0  0  0  0  0  0  0  0  0
   22.4652   13.7983   33.4335 C   0  0  0  0  0  0  0  0  0  0  0  0
   21.6901   13.9820   32.1154 C   0  0  0  0  0  0  0  0  0  0  0  0
   20.6107   14.9271   34.9468 H   0  0  0  0  0  0  0  0  0  0  0  0
 26 25  1  0  0  0
 26 27  1  0  0  0
 25 24  1  0  0  0
 24 23  1  0  0  0
 27 28  1  0  0  0
 28 23  1  0  0  0
 28 22  1  0  0  0
 22  1  1  0  0  0
  4  5  2  0  0  0
  4  3  1  0  0  0
  5  6  1  0  0  0
  1  3  1  0  0  0
  1  2  1  0  0  0
  3  9  2  0  0  0
  6  7  2  0  0  0
 19 18  2  0  0  0
 19 13  1  0  0  0
  2 10  2  0  0  0
  9  7  1  0  0  0
  9 10  1  0  0  0
  7  8  1  0  0  0
 10 13  1  0  0  0
 18 17  1  0  0  0
 13 14  2  0  0  0
 21 20  1  0  0  0
 17 20  1  0  0  0
 17 15  2  0  0  0
 14 15  1  0  0  0
 15 16  1  0  0  0
 25 29  1  0  0  0
  8 11  1  0  0  0
  8 12  1  0  0  0
M  END
> <minimizedAffinity>
-8.05130

$$$$
3V5P_C88_A_1


 29 32  0  0  0  0  0  0  0  0999 V2000
   26.1072   15.9050   29.8417 N   0  0  0  0  0  0  0  0  0  0  0  0
   26.9675   15.0286   29.9835 N   0  0  0  0  0  0  0  0  0  0  0  0
   26.4365   16.7595   28.8661 C   0  0  0  0  0  0  0  0  0  0  0  0
   25.8516   17.8657   28.3607 N   0  0  0  0  0  0  0  0  0  0  0  0
   26.4099   18.5181   27.3507 C   0  0  0  0  0  0  0  0  0  0  0  0
   27.5626   18.1220   26.8144 N   0  0  0  0  0  0  0  0  0  0  0  0
   28.2113   17.0418   27.2838 C   0  0  0  0  0  0  0  0  0  0  0  0
   29.3621   16.6849   26.7152 N   0  0  0  0  0  0  0  0  0  0  0  0
   27.6530   16.3204   28.3445 C   0  0  0  0  0  0  0  0  0  0  0  0
   27.9532   15.1742   29.0894 C   0  0  0  0  0  0  0  0  0  0  0  0
   29.7281   17.2143   25.9703 H   0  0  0  0  0  0  0  0  0  0  0  0
   29.8464   15.8917   27.0400 H   0  0  0  0  0  0  0  0  0  0  0  0
   29.0823   14.3515   29.0336 C   0  0  0  0  0  0  0  0  0  0  0  0
   30.0545   14.4327   30.0453 C   0  0  0  0  0  0  0  0  0  0  0  0
   31.1545   13.5702   30.0521 C   0  0  0  0  0  0  0  0  0  0  0  0
   32.2338   13.6906   31.1211 C   0  0  0  0  0  0  0  0  0  0  0  0
   31.2760   12.5969   29.0640 C   0  0  0  0  0  0  0  0  0  0  0  0
   30.2983   12.4860   28.0615 C   0  0  0  0  0  0  0  0  0  0  0  0
   29.2006   13.3497   28.0641 C   0  0  0  0  0  0  0  0  0  0  0  0
   32.3620   11.7969   29.1008 O   0  0  0  0  0  0  0  0  0  0  0  0
   33.3466   11.9860   28.0628 C   0  0  0  0  0  0  0  0  0  0  0  0
   24.9223   16.0020   30.7374 C   0  0  0  0  0  0  0  0  0  0  0  0
   22.7286   15.2314   31.6269 C   0  0  0  0  0  0  0  0  0  0  0  0
   21.8293   14.0424   31.9928 C   0  0  0  0  0  0  0  0  0  0  0  0
   22.6186   13.0910   32.7822 N   0  0  0  0  0  0  0  0  0  0  0  0
   23.6818   12.5167   31.9379 C   0  0  0  0  0  0  0  0  0  0  0  0
   24.6632   13.6205   31.4879 C   0  0  0  0  0  0  0  0  0  0  0  0
   23.9594   14.8046   30.7992 C   0  0  0  0  0  0  0  0  0  0  0  0
   23.0385   13.5740   33.5764 H   0  0  0  0  0  0  0  0  0  0  0  0
 26 25  1  0  0  0
 26 27  1  0  0  0
 25 24  1  0  0  0
 24 23  1  0  0  0
 27 28  1  0  0  0
 28 23  1  0  0  0
 28 22  1  0  0  0
 22  1  1  0  0  0
  4  5  2  0  0  0
  4  3  1  0  0  0
  5  6  1  0  0  0
  1  3  1  0  0  0
  1  2  1  0  0  0
  3  9  2  0  0  0
  6  7  2  0  0  0
 19 18  2  0  0  0
 19 13  1  0  0  0
  2 10  2  0  0  0
  9  7  1  0  0  0
  9 10  1  0  0  0
  7  8  1  0  0  0
 10 13  1  0  0  0
 18 17  1  0  0  0
 13 14  2  0  0  0
 21 20  1  0  0  0
 17 20  1  0  0  0
 17 15  2  0  0  0
 14 15  1  0  0  0
 15 16  1  0  0  0
 25 29  1  0  0  0
  8 11  1  0  0  0
  8 12  1  0  0  0
M  END
> <minimizedAffinity>
-7.74123

$$$$
3V5P_C88_A_1


 29 32  0  0  0  0  0  0  0  0999 V2000
   19.7056   14.6434   31.6743 N   0  0  0  0  0  0  0  0  0  0  0  0
   20.6609   14.9412   30.9482 N   0  0  0  0  0  0  0  0  0  0  0  0
   20.1178   14.0956   32.8235 C   0  0  0  0  0  0  0  0  0  0  0  0
   19.4750   13.5989   33.9011 N   0  0  0  0  0  0  0  0  0  0  0  0
   20.1608   13.1275   34.9331 C   0  0  0  0  0  0  0  0  0  0  0  0
   21.4923   13.1107   34.9387 N   0  0  0  0  0  0  0  0  0  0  0  0
   22.1964   13.5686   33.8887 C   0  0  0  0  0  0  0  0  0  0  0  0
   23.5271   13.5303   33.9403 N   0  0  0  0  0  0  0  0  0  0  0  0
   21.5116   14.0812   32.7817 C   0  0  0  0  0  0  0  0  0  0  0  0
   21.8249   14.6626   31.5478 C   0  0  0  0  0  0  0  0  0  0  0  0
   23.9786   13.1630   34.7344 H   0  0  0  0  0  0  0  0  0  0  0  0
   24.0590   13.8693   33.1844 H   0  0  0  0  0  0  0  0  0  0  0  0
   23.0746   14.8580   30.9521 C   0  0  0  0  0  0  0  0  0  0  0  0
   23.5561   16.1636   30.7545 C   0  0  0  0  0  0  0  0  0  0  0  0
   24.8326   16.3842   30.2295 C   0  0  0  0  0  0  0  0  0  0  0  0
   25.3356   17.7990   29.9695 C   0  0  0  0  0  0  0  0  0  0  0  0
   25.6523   15.3004   29.9265 C   0  0  0  0  0  0  0  0  0  0  0  0
   25.1952   13.9901   30.1437 C   0  0  0  0  0  0  0  0  0  0  0  0
   23.9195   13.7786   30.6718 C   0  0  0  0  0  0  0  0  0  0  0  0
   26.8703   15.5601   29.4070 O   0  0  0  0  0  0  0  0  0  0  0  0
   27.8439   14.4965   29.4643 C   0  0  0  0  0  0  0  0  0  0  0  0
   18.2942   14.8087   31.2315 C   0  0  0  0  0  0  0  0  0  0  0  0
   16.6326   13.2239   30.2700 C   0  0  0  0  0  0  0  0  0  0  0  0
   15.4173   12.3193   30.5178 C   0  0  0  0  0  0  0  0  0  0  0  0
   14.4264   13.0769   31.2896 N   0  0  0  0  0  0  0  0  0  0  0  0
   14.9654   13.3641   32.6313 C   0  0  0  0  0  0  0  0  0  0  0  0
   16.2115   14.2695   32.5253 C   0  0  0  0  0  0  0  0  0  0  0  0
   17.2886   13.6998   31.5834 C   0  0  0  0  0  0  0  0  0  0  0  0
   14.2204   13.9537   30.8109 H   0  0  0  0  0  0  0  0  0  0  0  0
 26 25  1  0  0  0
 26 27  1  0  0  0
 25 24  1  0  0  0
 24 23  1  0  0  0
 27 28  1  0  0  0
 28 23  1  0  0  0
 28 22  1  0  0  0
 22  1  1  0  0  0
  4  5  2  0  0  0
  4  3  1  0  0  0
  5  6  1  0  0  0
  1  3  1  0  0  0
  1  2  1  0  0  0
  3  9  2  0  0  0
  6  7  2  0  0  0
 19 18  2  0  0  0
 19 13  1  0  0  0
  2 10  2  0  0  0
  9  7  1  0  0  0
  9 10  1  0  0  0
  7  8  1  0  0  0
 10 13  1  0  0  0
 18 17  1  0  0  0
 13 14  2  0  0  0
 21 20  1  0  0  0
 17 20  1  0  0  0
 17 15  2  0  0  0
 14 15  1  0  0  0
 15 16  1  0  0  0
 25 29  1  0  0  0
  8 11  1  0  0  0
  8 12  1  0  0  0
M  END
> <minimizedAffinity>
-7.60146

$$$$
3V5P_C88_A_1


 29 32  0  0  0  0  0  0  0  0999 V2000
   28.3590   15.6081   28.1283 N   0  0  0  0  0  0  0  0  0  0  0  0
   27.7481   14.8539   28.8939 N   0  0  0  0  0  0  0  0  0  0  0  0
   27.7342   16.7843   27.9997 C   0  0  0  0  0  0  0  0  0  0  0  0
   27.9855   17.8982   27.2804 N   0  0  0  0  0  0  0  0  0  0  0  0
   27.1828   18.9495   27.3691 C   0  0  0  0  0  0  0  0  0  0  0  0
   26.1027   18.9407   28.1479 N   0  0  0  0  0  0  0  0  0  0  0  0
   25.7797   17.8561   28.8741 C   0  0  0  0  0  0  0  0  0  0  0  0
   24.6888   17.8946   29.6379 N   0  0  0  0  0  0  0  0  0  0  0  0
   26.6041   16.7274   28.8148 C   0  0  0  0  0  0  0  0  0  0  0  0
   26.6635   15.4561   29.3971 C   0  0  0  0  0  0  0  0  0  0  0  0
   24.1297   18.7047   29.6571 H   0  0  0  0  0  0  0  0  0  0  0  0
   24.4417   17.1129   30.1831 H   0  0  0  0  0  0  0  0  0  0  0  0
   25.7586   14.8349   30.2632 C   0  0  0  0  0  0  0  0  0  0  0  0
   24.3889   15.1372   30.1740 C   0  0  0  0  0  0  0  0  0  0  0  0
   23.4559   14.4755   30.9775 C   0  0  0  0  0  0  0  0  0  0  0  0
   21.9770   14.8377   30.9158 C   0  0  0  0  0  0  0  0  0  0  0  0
   23.8808   13.4821   31.8557 C   0  0  0  0  0  0  0  0  0  0  0  0
   25.2433   13.1502   31.9365 C   0  0  0  0  0  0  0  0  0  0  0  0
   26.1685   13.8141   31.1277 C   0  0  0  0  0  0  0  0  0  0  0  0
   22.9476   12.8812   32.6230 O   0  0  0  0  0  0  0  0  0  0  0  0
   22.6956   13.4636   33.9190 C   0  0  0  0  0  0  0  0  0  0  0  0
   29.5795   15.1722   27.3962 C   0  0  0  0  0  0  0  0  0  0  0  0
   32.0230   14.7169   27.5348 C   0  0  0  0  0  0  0  0  0  0  0  0
   33.1375   13.7926   28.0450 C   0  0  0  0  0  0  0  0  0  0  0  0
   32.7770   12.4090   27.7177 N   0  0  0  0  0  0  0  0  0  0  0  0
   31.5801   12.0196   28.4853 C   0  0  0  0  0  0  0  0  0  0  0  0
   30.3725   12.8880   28.0713 C   0  0  0  0  0  0  0  0  0  0  0  0
   30.6557   14.3982   28.1757 C   0  0  0  0  0  0  0  0  0  0  0  0
   32.5797   12.3358   26.7197 H   0  0  0  0  0  0  0  0  0  0  0  0
 26 25  1  0  0  0
 26 27  1  0  0  0
 25 24  1  0  0  0
 24 23  1  0  0  0
 27 28  1  0  0  0
 28 23  1  0  0  0
 28 22  1  0  0  0
 22  1  1  0  0  0
  4  5  2  0  0  0
  4  3  1  0  0  0
  5  6  1  0  0  0
  1  3  1  0  0  0
  1  2  1  0  0  0
  3  9  2  0  0  0
  6  7  2  0  0  0
 19 18  2  0  0  0
 19 13  1  0  0  0
  2 10  2  0  0  0
  9  7  1  0  0  0
  9 10  1  0  0  0
  7  8  1  0  0  0
 10 13  1  0  0  0
 18 17  1  0  0  0
 13 14  2  0  0  0
 21 20  1  0  0  0
 17 20  1  0  0  0
 17 15  2  0  0  0
 14 15  1  0  0  0
 15 16  1  0  0  0
 25 29  1  0  0  0
  8 11  1  0  0  0
  8 12  1  0  0  0
M  END
> <minimizedAffinity>
-7.42726

$$$$
3V5P_C88_A_1


 29 32  0  0  0  0  0  0  0  0999 V2000
   29.4143   14.6837   28.7967 N   0  0  0  0  0  0  0  0  0  0  0  0
   28.4403   14.0912   29.2747 N   0  0  0  0  0  0  0  0  0  0  0  0
   29.3706   15.9934   29.0678 C   0  0  0  0  0  0  0  0  0  0  0  0
   30.1683   17.0359   28.7548 N   0  0  0  0  0  0  0  0  0  0  0  0
   29.8819   18.2546   29.1910 C   0  0  0  0  0  0  0  0  0  0  0  0
   28.8013   18.4964   29.9307 N   0  0  0  0  0  0  0  0  0  0  0  0
   27.9509   17.5084   30.2605 C   0  0  0  0  0  0  0  0  0  0  0  0
   26.8828   17.7994   31.0016 N   0  0  0  0  0  0  0  0  0  0  0  0
   28.2198   16.2060   29.8263 C   0  0  0  0  0  0  0  0  0  0  0  0
   27.6531   14.9329   29.9559 C   0  0  0  0  0  0  0  0  0  0  0  0
   26.7222   18.7266   31.2910 H   0  0  0  0  0  0  0  0  0  0  0  0
   26.2540   17.0872   31.2599 H   0  0  0  0  0  0  0  0  0  0  0  0
   26.4580   14.5537   30.5747 C   0  0  0  0  0  0  0  0  0  0  0  0
   25.2800   15.2754   30.3164 C   0  0  0  0  0  0  0  0  0  0  0  0
   24.0587   14.8721   30.8638 C   0  0  0  0  0  0  0  0  0  0  0  0
   22.7905   15.6823   30.6239 C   0  0  0  0  0  0  0  0  0  0  0  0
   23.9986   13.7242   31.6495 C   0  0  0  0  0  0  0  0  0  0  0  0
   25.1628   12.9774   31.8943 C   0  0  0  0  0  0  0  0  0  0  0  0
   26.3785   13.3857   31.3407 C   0  0  0  0  0  0  0  0  0  0  0  0
   22.8018   13.3815   32.1701 O   0  0  0  0  0  0  0  0  0  0  0  0
   22.6448   13.5301   33.5969 C   0  0  0  0  0  0  0  0  0  0  0  0
   30.4259   13.9902   27.9534 C   0  0  0  0  0  0  0  0  0  0  0  0
   31.9767   12.0779   28.3212 C   0  0  0  0  0  0  0  0  0  0  0  0
   33.1247   11.4877   29.1521 C   0  0  0  0  0  0  0  0  0  0  0  0
   32.7998   11.6524   30.5729 N   0  0  0  0  0  0  0  0  0  0  0  0
   32.7868   13.0875   30.9096 C   0  0  0  0  0  0  0  0  0  0  0  0
   31.6701   13.8112   30.1264 C   0  0  0  0  0  0  0  0  0  0  0  0
   31.7559   13.5785   28.6064 C   0  0  0  0  0  0  0  0  0  0  0  0
   31.8813   11.2505   30.7606 H   0  0  0  0  0  0  0  0  0  0  0  0
 26 25  1  0  0  0
 26 27  1  0  0  0
 25 24  1  0  0  0
 24 23  1  0  0  0
 27 28  1  0  0  0
 28 23  1  0  0  0
 28 22  1  0  0  0
 22  1  1  0  0  0
  4  5  2  0  0  0
  4  3  1  0  0  0
  5  6  1  0  0  0
  1  3  1  0  0  0
  1  2  1  0  0  0
  3  9  2  0  0  0
  6  7  2  0  0  0
 19 18  2  0  0  0
 19 13  1  0  0  0
  2 10  2  0  0  0
  9  7  1  0  0  0
  9 10  1  0  0  0
  7  8  1  0  0  0
 10 13  1  0  0  0
 18 17  1  0  0  0
 13 14  2  0  0  0
 21 20  1  0  0  0
 17 20  1  0  0  0
 17 15  2  0  0  0
 14 15  1  0  0  0
 15 16  1  0  0  0
 25 29  1  0  0  0
  8 11  1  0  0  0
  8 12  1  0  0  0
M  END
> <minimizedAffinity>
-7.41462

$$$$
3V5P_C88_A_1


 29 32  0  0  0  0  0  0  0  0999 V2000
   28.5607   15.8113   28.9746 N   0  0  0  0  0  0  0  0  0  0  0  0
   27.7199   15.1512   29.5956 N   0  0  0  0  0  0  0  0  0  0  0  0
   28.0225   16.9189   28.4510 C   0  0  0  0  0  0  0  0  0  0  0  0
   28.5109   17.9217   27.6914 N   0  0  0  0  0  0  0  0  0  0  0  0
   27.7302   18.9297   27.3282 C   0  0  0  0  0  0  0  0  0  0  0  0
   26.4469   18.9821   27.6799 N   0  0  0  0  0  0  0  0  0  0  0  0
   25.8890   18.0053   28.4167 C   0  0  0  0  0  0  0  0  0  0  0  0
   24.6010   18.1014   28.7431 N   0  0  0  0  0  0  0  0  0  0  0  0
   26.6797   16.9266   28.8271 C   0  0  0  0  0  0  0  0  0  0  0  0
   26.5298   15.7642   29.5920 C   0  0  0  0  0  0  0  0  0  0  0  0
   24.0722   18.8738   28.4381 H   0  0  0  0  0  0  0  0  0  0  0  0
   24.1779   17.4001   29.2894 H   0  0  0  0  0  0  0  0  0  0  0  0
   25.3789   15.2349   30.1837 C   0  0  0  0  0  0  0  0  0  0  0  0
   25.2675   13.8466   30.3718 C   0  0  0  0  0  0  0  0  0  0  0  0
   24.1608   13.2995   31.0274 C   0  0  0  0  0  0  0  0  0  0  0  0
   24.0161   11.7910   31.1880 C   0  0  0  0  0  0  0  0  0  0  0  0
   23.1698   14.1389   31.5292 C   0  0  0  0  0  0  0  0  0  0  0  0
   23.2806   15.5303   31.3726 C   0  0  0  0  0  0  0  0  0  0  0  0
   24.3914   16.0689   30.7191 C   0  0  0  0  0  0  0  0  0  0  0  0
   22.1121   13.5661   32.1407 O   0  0  0  0  0  0  0  0  0  0  0  0
   22.0680   13.6488   33.5807 C   0  0  0  0  0  0  0  0  0  0  0  0
   29.9582   15.3348   28.7861 C   0  0  0  0  0  0  0  0  0  0  0  0
   30.7647   13.6754   30.4574 C   0  0  0  0  0  0  0  0  0  0  0  0
   31.3527   12.2804   30.7121 C   0  0  0  0  0  0  0  0  0  0  0  0
   32.4751   12.0762   29.7903 N   0  0  0  0  0  0  0  0  0  0  0  0
   31.9702   12.0281   28.4061 C   0  0  0  0  0  0  0  0  0  0  0  0
   31.3374   13.3823   28.0196 C   0  0  0  0  0  0  0  0  0  0  0  0
   30.2525   13.8423   29.0112 C   0  0  0  0  0  0  0  0  0  0  0  0
   33.1371   12.8464   29.8843 H   0  0  0  0  0  0  0  0  0  0  0  0
 26 25  1  0  0  0
 26 27  1  0  0  0
 25 24  1  0  0  0
 24 23  1  0  0  0
 27 28  1  0  0  0
 28 23  1  0  0  0
 28 22  1  0  0  0
 22  1  1  0  0  0
  4  5  2  0  0  0
  4  3  1  0  0  0
  5  6  1  0  0  0
  1  3  1  0  0  0
  1  2  1  0  0  0
  3  9  2  0  0  0
  6  7  2  0  0  0
 19 18  2  0  0  0
 19 13  1  0  0  0
  2 10  2  0  0  0
  9  7  1  0  0  0
  9 10  1  0  0  0
  7  8  1  0  0  0
 10 13  1  0  0  0
 18 17  1  0  0  0
 13 14  2  0  0  0
 21 20  1  0  0  0
 17 20  1  0  0  0
 17 15  2  0  0  0
 14 15  1  0  0  0
 15 16  1  0  0  0
 25 29  1  0  0  0
  8 11  1  0  0  0
  8 12  1  0  0  0
M  END
> <minimizedAffinity>
-7.00239

$$$$
3V5P_C88_A_1


 29 32  0  0  0  0  0  0  0  0999 V2000
   28.2072   15.8912   28.0384 N   0  0  0  0  0  0  0  0  0  0  0  0
   27.6628   15.1010   28.8178 N   0  0  0  0  0  0  0  0  0  0  0  0
   27.4953   17.0166   27.9075 C   0  0  0  0  0  0  0  0  0  0  0  0
   27.6549   18.1393   27.1758 N   0  0  0  0  0  0  0  0  0  0  0  0
   26.7775   19.1290   27.2655 C   0  0  0  0  0  0  0  0  0  0  0  0
   25.7101   19.0475   28.0575 N   0  0  0  0  0  0  0  0  0  0  0  0
   25.4770   17.9488   28.7968 C   0  0  0  0  0  0  0  0  0  0  0  0
   24.3952   17.9135   29.5736 N   0  0  0  0  0  0  0  0  0  0  0  0
   26.3821   16.8838   28.7369 C   0  0  0  0  0  0  0  0  0  0  0  0
   26.5425   15.6259   29.3292 C   0  0  0  0  0  0  0  0  0  0  0  0
   23.7778   18.6801   29.5928 H   0  0  0  0  0  0  0  0  0  0  0  0
   24.2132   17.1208   30.1284 H   0  0  0  0  0  0  0  0  0  0  0  0
   25.6963   14.9475   30.2116 C   0  0  0  0  0  0  0  0  0  0  0  0
   24.3140   15.2002   30.1847 C   0  0  0  0  0  0  0  0  0  0  0  0
   23.4388   14.4820   31.0044 C   0  0  0  0  0  0  0  0  0  0  0  0
   21.9463   14.7898   31.0110 C   0  0  0  0  0  0  0  0  0  0  0  0
   23.9345   13.4816   31.8362 C   0  0  0  0  0  0  0  0  0  0  0  0
   25.3104   13.1992   31.8543 C   0  0  0  0  0  0  0  0  0  0  0  0
   26.1776   13.9195   31.0295 C   0  0  0  0  0  0  0  0  0  0  0  0
   23.0554   12.8251   32.6217 O   0  0  0  0  0  0  0  0  0  0  0  0
   22.6925   13.4597   33.8659 C   0  0  0  0  0  0  0  0  0  0  0  0
   29.4480   15.5401   27.2950 C   0  0  0  0  0  0  0  0  0  0  0  0
   31.0600   17.2255   28.1659 C   0  0  0  0  0  0  0  0  0  0  0  0
   32.4968   17.5268   28.6146 C   0  0  0  0  0  0  0  0  0  0  0  0
   33.4182   16.9901   27.6074 N   0  0  0  0  0  0  0  0  0  0  0  0
   33.3259   15.5189   27.5930 C   0  0  0  0  0  0  0  0  0  0  0  0
   31.9114   15.0753   27.1615 C   0  0  0  0  0  0  0  0  0  0  0  0
   30.7972   15.7124   28.0126 C   0  0  0  0  0  0  0  0  0  0  0  0
   33.1682   17.3557   26.6885 H   0  0  0  0  0  0  0  0  0  0  0  0
 26 25  1  0  0  0
 26 27  1  0  0  0
 25 24  1  0  0  0
 24 23  1  0  0  0
 27 28  1  0  0  0
 28 23  1  0  0  0
 28 22  1  0  0  0
 22  1  1  0  0  0
  4  5  2  0  0  0
  4  3  1  0  0  0
  5  6  1  0  0  0
  1  3  1  0  0  0
  1  2  1  0  0  0
  3  9  2  0  0  0
  6  7  2  0  0  0
 19 18  2  0  0  0
 19 13  1  0  0  0
  2 10  2  0  0  0
  9  7  1  0  0  0
  9 10  1  0  0  0
  7  8  1  0  0  0
 10 13  1  0  0  0
 18 17  1  0  0  0
 13 14  2  0  0  0
 21 20  1  0  0  0
 17 20  1  0  0  0
 17 15  2  0  0  0
 14 15  1  0  0  0
 15 16  1  0  0  0
 25 29  1  0  0  0
  8 11  1  0  0  0
  8 12  1  0  0  0
M  END
> <minimizedAffinity>
-6.91429

$$$$
