5EU1_5SW_A_201


 26 28  0  0  0  0  0  0  0  0999 V2000
    6.6352   -2.5954    6.4157 C   0  0  0  0  0  0  0  0  0  0  0  0
    7.9944   -2.8734    6.2314 C   0  0  0  0  0  0  0  0  0  0  0  0
    6.1306   -3.6745    4.3088 C   0  0  0  0  0  0  0  0  0  0  0  0
    5.7091   -2.9846    5.4483 C   0  0  0  0  0  0  0  0  0  0  0  0
    8.4367   -3.5568    5.0914 C   0  0  0  0  0  0  0  0  0  0  0  0
    7.4936   -3.9640    4.1279 C   0  0  0  0  0  0  0  0  0  0  0  0
   11.5891   -7.7199    4.5190 N   0  0  0  0  0  0  0  0  0  0  0  0
   12.3896   -6.6637    4.6291 C   0  0  0  0  0  0  0  0  0  0  0  0
   10.4417   -5.2057    4.8355 C   0  0  0  0  0  0  0  0  0  0  0  0
   11.8598   -5.3766    4.7978 C   0  0  0  0  0  0  0  0  0  0  0  0
   12.7170   -4.1863    4.8917 C   0  0  0  0  0  0  0  0  0  0  0  0
    9.9003   -3.8358    4.9578 C   0  0  0  0  0  0  0  0  0  0  0  0
    9.6548   -6.3670    4.7417 C   0  0  0  0  0  0  0  0  0  0  0  0
   12.1362   -2.9625    4.9162 N   0  0  0  0  0  0  0  0  0  0  0  0
   10.2637   -7.5875    4.5920 C   0  0  0  0  0  0  0  0  0  0  0  0
   10.7830   -2.7961    4.9642 C   0  0  0  0  0  0  0  0  0  0  0  0
   12.9876   -1.7687    5.0171 C   0  0  0  0  0  0  0  0  0  0  0  0
   13.9403   -4.3129    4.9087 O   0  0  0  0  0  0  0  0  0  0  0  0
    5.2488   -5.4228    2.8679 C   0  0  0  0  0  0  0  0  0  0  0  0
    5.1838   -4.0977    3.4114 O   0  0  0  0  0  0  0  0  0  0  0  0
    6.4532   -0.5175    7.6633 C   0  0  0  0  0  0  0  0  0  0  0  0
    6.2050   -1.9280    7.5253 O   0  0  0  0  0  0  0  0  0  0  0  0
    4.2246   -2.7213    5.6493 C   0  0  0  0  0  0  0  0  0  0  0  0
    3.0101   -1.4062    3.9460 C   0  0  0  0  0  0  0  0  0  0  0  0
    3.0187   -0.7203    6.2552 C   0  0  0  0  0  0  0  0  0  0  0  0
    3.7941   -1.3855    5.1914 N   0  0  0  0  0  0  0  0  0  0  0  0
 21 22  1  0  0  0
 22  1  1  0  0  0
  1  2  2  0  0  0
  1  4  1  0  0  0
 23  4  1  0  0  0
 23 26  1  0  0  0
 25 26  1  0  0  0
  2  5  1  0  0  0
  4  3  2  0  0  0
 26 24  1  0  0  0
  5 12  1  0  0  0
  5  6  2  0  0  0
  3  6  1  0  0  0
  3 20  1  0  0  0
 13 15  2  0  0  0
 13  9  1  0  0  0
 12  9  1  0  0  0
 12 16  2  0  0  0
 15  7  1  0  0  0
  9 10  2  0  0  0
 16 14  1  0  0  0
 20 19  1  0  0  0
  7  8  2  0  0  0
 10  8  1  0  0  0
 10 11  1  0  0  0
 14 11  1  0  0  0
 14 17  1  0  0  0
 11 18  2  0  0  0
M  END
> <minimizedAffinity>
-8.12000

$$$$
5EU1_5SW_A_201


 26 28  0  0  0  0  0  0  0  0999 V2000
    6.1185   -3.7275    4.3330 C   0  0  0  0  0  0  0  0  0  0  0  0
    7.4841   -4.0128    4.2212 C   0  0  0  0  0  0  0  0  0  0  0  0
    6.5371   -2.5436    6.4021 C   0  0  0  0  0  0  0  0  0  0  0  0
    5.6470   -3.0057    5.4293 C   0  0  0  0  0  0  0  0  0  0  0  0
    8.3902   -3.5649    5.1910 C   0  0  0  0  0  0  0  0  0  0  0  0
    7.9098   -2.8198    6.2853 C   0  0  0  0  0  0  0  0  0  0  0  0
   11.3809   -7.8212    4.4584 N   0  0  0  0  0  0  0  0  0  0  0  0
   12.2199   -6.7944    4.5607 C   0  0  0  0  0  0  0  0  0  0  0  0
   10.3296   -5.2756    4.8487 C   0  0  0  0  0  0  0  0  0  0  0  0
   11.7393   -5.4933    4.7654 C   0  0  0  0  0  0  0  0  0  0  0  0
   12.6389   -4.3340    4.8519 C   0  0  0  0  0  0  0  0  0  0  0  0
    9.8389   -3.8906    5.0088 C   0  0  0  0  0  0  0  0  0  0  0  0
    9.5012   -6.4082    4.7607 C   0  0  0  0  0  0  0  0  0  0  0  0
   12.1009   -3.0921    4.9131 N   0  0  0  0  0  0  0  0  0  0  0  0
   10.0636   -7.6457    4.5736 C   0  0  0  0  0  0  0  0  0  0  0  0
   10.7562   -2.8813    5.0047 C   0  0  0  0  0  0  0  0  0  0  0  0
   12.9951   -1.9293    5.0068 C   0  0  0  0  0  0  0  0  0  0  0  0
   13.8571   -4.5018    4.8299 O   0  0  0  0  0  0  0  0  0  0  0  0
    6.5819   -0.4762    7.6805 C   0  0  0  0  0  0  0  0  0  0  0  0
    6.0453   -1.7822    7.4314 O   0  0  0  0  0  0  0  0  0  0  0  0
    5.3914   -5.4702    2.8028 C   0  0  0  0  0  0  0  0  0  0  0  0
    5.2359   -4.1656    3.3893 O   0  0  0  0  0  0  0  0  0  0  0  0
    4.1713   -2.6572    5.5485 C   0  0  0  0  0  0  0  0  0  0  0  0
    2.8489   -1.5871    3.7564 C   0  0  0  0  0  0  0  0  0  0  0  0
    3.2533   -0.4439    5.8379 C   0  0  0  0  0  0  0  0  0  0  0  0
    3.8030   -1.4033    4.8618 N   0  0  0  0  0  0  0  0  0  0  0  0
 21 22  1  0  0  0
 22  1  1  0  0  0
  1  2  2  0  0  0
  1  4  1  0  0  0
 23  4  1  0  0  0
 23 26  1  0  0  0
 25 26  1  0  0  0
  2  5  1  0  0  0
  4  3  2  0  0  0
 26 24  1  0  0  0
  5 12  1  0  0  0
  5  6  2  0  0  0
  3  6  1  0  0  0
  3 20  1  0  0  0
 13 15  2  0  0  0
 13  9  1  0  0  0
 12  9  1  0  0  0
 12 16  2  0  0  0
 15  7  1  0  0  0
  9 10  2  0  0  0
 16 14  1  0  0  0
 20 19  1  0  0  0
  7  8  2  0  0  0
 10  8  1  0  0  0
 10 11  1  0  0  0
 14 11  1  0  0  0
 14 17  1  0  0  0
 11 18  2  0  0  0
M  END
> <minimizedAffinity>
-7.97201

$$$$
5EU1_5SW_A_201


 26 28  0  0  0  0  0  0  0  0999 V2000
    5.8570   -4.0371    3.9298 C   0  0  0  0  0  0  0  0  0  0  0  0
    7.0554   -4.7586    3.9734 C   0  0  0  0  0  0  0  0  0  0  0  0
    6.7988   -2.3857    5.4277 C   0  0  0  0  0  0  0  0  0  0  0  0
    5.7272   -2.8605    4.6671 C   0  0  0  0  0  0  0  0  0  0  0  0
    8.1377   -4.3025    4.7369 C   0  0  0  0  0  0  0  0  0  0  0  0
    8.0063   -3.1032    5.4635 C   0  0  0  0  0  0  0  0  0  0  0  0
   13.3222   -3.4699    4.8920 N   0  0  0  0  0  0  0  0  0  0  0  0
   13.1638   -4.7824    4.7477 C   0  0  0  0  0  0  0  0  0  0  0  0
   10.7390   -4.4937    4.7613 C   0  0  0  0  0  0  0  0  0  0  0  0
   11.8824   -5.3458    4.6691 C   0  0  0  0  0  0  0  0  0  0  0  0
   11.6740   -6.7951    4.5405 C   0  0  0  0  0  0  0  0  0  0  0  0
    9.3964   -5.1110    4.7326 C   0  0  0  0  0  0  0  0  0  0  0  0
   10.9781   -3.1138    4.8846 C   0  0  0  0  0  0  0  0  0  0  0  0
   10.4117   -7.2828    4.6078 N   0  0  0  0  0  0  0  0  0  0  0  0
   12.2692   -2.6523    4.9396 C   0  0  0  0  0  0  0  0  0  0  0  0
    9.3175   -6.4716    4.6838 C   0  0  0  0  0  0  0  0  0  0  0  0
   10.1962   -8.7305    4.4728 C   0  0  0  0  0  0  0  0  0  0  0  0
   12.6416   -7.5435    4.4124 O   0  0  0  0  0  0  0  0  0  0  0  0
    6.8316   -1.1297    7.5090 C   0  0  0  0  0  0  0  0  0  0  0  0
    6.6558   -1.1918    6.0875 O   0  0  0  0  0  0  0  0  0  0  0  0
    5.0217   -5.3760    2.0812 C   0  0  0  0  0  0  0  0  0  0  0  0
    4.8024   -4.4827    3.1876 O   0  0  0  0  0  0  0  0  0  0  0  0
    4.4442   -2.0460    4.6036 C   0  0  0  0  0  0  0  0  0  0  0  0
    2.8988   -1.0937    6.2799 C   0  0  0  0  0  0  0  0  0  0  0  0
    2.4753   -3.2543    5.3025 C   0  0  0  0  0  0  0  0  0  0  0  0
    3.5226   -2.3066    5.7270 N   0  0  0  0  0  0  0  0  0  0  0  0
 21 22  1  0  0  0
 22  1  1  0  0  0
  1  2  2  0  0  0
  1  4  1  0  0  0
 23  4  1  0  0  0
 23 26  1  0  0  0
 25 26  1  0  0  0
  2  5  1  0  0  0
  4  3  2  0  0  0
 26 24  1  0  0  0
  5 12  1  0  0  0
  5  6  2  0  0  0
  3  6  1  0  0  0
  3 20  1  0  0  0
 13 15  2  0  0  0
 13  9  1  0  0  0
 12  9  1  0  0  0
 12 16  2  0  0  0
 15  7  1  0  0  0
  9 10  2  0  0  0
 16 14  1  0  0  0
 20 19  1  0  0  0
  7  8  2  0  0  0
 10  8  1  0  0  0
 10 11  1  0  0  0
 14 11  1  0  0  0
 14 17  1  0  0  0
 11 18  2  0  0  0
M  END
> <minimizedAffinity>
-6.78673

$$$$
5EU1_5SW_A_201


 26 28  0  0  0  0  0  0  0  0999 V2000
   10.1757   -5.4795    4.6646 C   0  0  0  0  0  0  0  0  0  0  0  0
    8.7944   -5.2778    4.7649 C   0  0  0  0  0  0  0  0  0  0  0  0
   10.5276   -3.0856    4.7204 C   0  0  0  0  0  0  0  0  0  0  0  0
   11.0372   -4.3834    4.6291 C   0  0  0  0  0  0  0  0  0  0  0  0
    8.2647   -3.9838    4.8491 C   0  0  0  0  0  0  0  0  0  0  0  0
    9.1418   -2.8820    4.8325 C   0  0  0  0  0  0  0  0  0  0  0  0
    4.7594   -2.5127    8.4748 N   0  0  0  0  0  0  0  0  0  0  0  0
    4.0540   -2.9039    7.4175 C   0  0  0  0  0  0  0  0  0  0  0  0
    6.1224   -3.3974    6.2170 C   0  0  0  0  0  0  0  0  0  0  0  0
    4.6945   -3.3652    6.2587 C   0  0  0  0  0  0  0  0  0  0  0  0
    3.9441   -3.7754    5.0632 C   0  0  0  0  0  0  0  0  0  0  0  0
    6.7810   -3.8336    4.9678 C   0  0  0  0  0  0  0  0  0  0  0  0
    6.8053   -2.9968    7.3788 C   0  0  0  0  0  0  0  0  0  0  0  0
    4.6282   -4.0797    3.9342 N   0  0  0  0  0  0  0  0  0  0  0  0
    6.0919   -2.5727    8.4716 C   0  0  0  0  0  0  0  0  0  0  0  0
    5.9912   -4.1230    3.8943 C   0  0  0  0  0  0  0  0  0  0  0  0
    3.8839   -4.4974    2.7376 C   0  0  0  0  0  0  0  0  0  0  0  0
    2.7147   -3.8006    5.0912 O   0  0  0  0  0  0  0  0  0  0  0  0
   11.9810   -1.5442    3.5278 C   0  0  0  0  0  0  0  0  0  0  0  0
   11.4097   -2.0357    4.7475 O   0  0  0  0  0  0  0  0  0  0  0  0
    9.8350   -7.8529    4.2668 C   0  0  0  0  0  0  0  0  0  0  0  0
   10.6912   -6.7400    4.5805 O   0  0  0  0  0  0  0  0  0  0  0  0
   12.5428   -4.5856    4.5554 C   0  0  0  0  0  0  0  0  0  0  0  0
   13.6388   -5.8961    6.3406 C   0  0  0  0  0  0  0  0  0  0  0  0
   14.3630   -3.6543    5.8378 C   0  0  0  0  0  0  0  0  0  0  0  0
   13.2065   -4.5689    5.8740 N   0  0  0  0  0  0  0  0  0  0  0  0
 21 22  1  0  0  0
 22  1  1  0  0  0
  1  2  2  0  0  0
  1  4  1  0  0  0
 23  4  1  0  0  0
 23 26  1  0  0  0
 25 26  1  0  0  0
  2  5  1  0  0  0
  4  3  2  0  0  0
 26 24  1  0  0  0
  5 12  1  0  0  0
  5  6  2  0  0  0
  3  6  1  0  0  0
  3 20  1  0  0  0
 13 15  2  0  0  0
 13  9  1  0  0  0
 12  9  1  0  0  0
 12 16  2  0  0  0
 15  7  1  0  0  0
  9 10  2  0  0  0
 16 14  1  0  0  0
 20 19  1  0  0  0
  7  8  2  0  0  0
 10  8  1  0  0  0
 10 11  1  0  0  0
 14 11  1  0  0  0
 14 17  1  0  0  0
 11 18  2  0  0  0
M  END
> <minimizedAffinity>
-5.28221

$$$$
5EU1_5SW_A_201


 26 28  0  0  0  0  0  0  0  0999 V2000
    3.4380   -0.5449    8.1046 C   0  0  0  0  0  0  0  0  0  0  0  0
    3.9590   -1.3108    7.0556 C   0  0  0  0  0  0  0  0  0  0  0  0
    4.0354   -2.2891    9.6727 C   0  0  0  0  0  0  0  0  0  0  0  0
    3.4654   -1.0413    9.4076 C   0  0  0  0  0  0  0  0  0  0  0  0
    4.5270   -2.5676    7.3010 C   0  0  0  0  0  0  0  0  0  0  0  0
    4.5690   -3.0544    8.6219 C   0  0  0  0  0  0  0  0  0  0  0  0
    9.2115   -3.5557    5.1387 N   0  0  0  0  0  0  0  0  0  0  0  0
    8.3109   -4.1261    4.3437 C   0  0  0  0  0  0  0  0  0  0  0  0
    6.5209   -3.3576    5.8161 C   0  0  0  0  0  0  0  0  0  0  0  0
    6.9424   -4.0477    4.6380 C   0  0  0  0  0  0  0  0  0  0  0  0
    5.9251   -4.6934    3.7961 C   0  0  0  0  0  0  0  0  0  0  0  0
    5.0790   -3.3328    6.1400 C   0  0  0  0  0  0  0  0  0  0  0  0
    7.5224   -2.7538    6.5965 C   0  0  0  0  0  0  0  0  0  0  0  0
    4.6358   -4.6936    4.2125 N   0  0  0  0  0  0  0  0  0  0  0  0
    8.8369   -2.8725    6.2214 C   0  0  0  0  0  0  0  0  0  0  0  0
    4.2282   -4.0259    5.3302 C   0  0  0  0  0  0  0  0  0  0  0  0
    3.6129   -5.3315    3.3717 C   0  0  0  0  0  0  0  0  0  0  0  0
    6.2592   -5.2527    2.7530 O   0  0  0  0  0  0  0  0  0  0  0  0
    4.0094   -4.1134   11.2794 C   0  0  0  0  0  0  0  0  0  0  0  0
    4.1026   -2.7157   10.9744 O   0  0  0  0  0  0  0  0  0  0  0  0
    2.8935    1.2304    6.5364 C   0  0  0  0  0  0  0  0  0  0  0  0
    2.8831    0.6783    7.8650 O   0  0  0  0  0  0  0  0  0  0  0  0
    2.9351   -0.2074   10.5638 C   0  0  0  0  0  0  0  0  0  0  0  0
    0.9889   -1.2217   11.6992 C   0  0  0  0  0  0  0  0  0  0  0  0
    0.9547    1.0916   11.0281 C   0  0  0  0  0  0  0  0  0  0  0  0
    1.4658   -0.2524   10.6997 N   0  0  0  0  0  0  0  0  0  0  0  0
 21 22  1  0  0  0
 22  1  1  0  0  0
  1  2  2  0  0  0
  1  4  1  0  0  0
 23  4  1  0  0  0
 23 26  1  0  0  0
 25 26  1  0  0  0
  2  5  1  0  0  0
  4  3  2  0  0  0
 26 24  1  0  0  0
  5 12  1  0  0  0
  5  6  2  0  0  0
  3  6  1  0  0  0
  3 20  1  0  0  0
 13 15  2  0  0  0
 13  9  1  0  0  0
 12  9  1  0  0  0
 12 16  2  0  0  0
 15  7  1  0  0  0
  9 10  2  0  0  0
 16 14  1  0  0  0
 20 19  1  0  0  0
  7  8  2  0  0  0
 10  8  1  0  0  0
 10 11  1  0  0  0
 14 11  1  0  0  0
 14 17  1  0  0  0
 11 18  2  0  0  0
M  END
> <minimizedAffinity>
-5.20488

$$$$
