4MRG_24W_A_201


 14 15  0  0  0  0  0  0  0  0999 V2000
   11.7467   -5.4620    0.7045 C   0  0  0  0  0  0  0  0  0  0  0  0
   10.3691   -5.8472    1.1460 N   0  0  0  0  0  0  0  0  0  0  0  0
    9.5340   -6.1140   -0.0380 C   0  0  0  0  0  0  0  0  0  0  0  0
    9.3805   -4.8489   -0.8779 C   0  0  0  0  0  0  0  0  0  0  0  0
   10.6515   -4.2424   -1.1757 C   0  0  0  0  0  0  0  0  0  0  0  0
   11.7921   -4.5242   -0.3861 C   0  0  0  0  0  0  0  0  0  0  0  0
   12.9957   -3.8743   -0.7221 C   0  0  0  0  0  0  0  0  0  0  0  0
   13.0763   -2.9668   -1.7899 C   0  0  0  0  0  0  0  0  0  0  0  0
   11.9286   -2.6591   -2.5566 C   0  0  0  0  0  0  0  0  0  0  0  0
   10.7435   -3.3142   -2.2331 C   0  0  0  0  0  0  0  0  0  0  0  0
    9.6030   -3.0522   -2.9652 N   0  0  0  0  0  0  0  0  0  0  0  0
    9.9595   -5.0856    1.6871 H   0  0  0  0  0  0  0  0  0  0  0  0
    9.6331   -2.4093   -3.7101 H   0  0  0  0  0  0  0  0  0  0  0  0
    8.7594   -3.5083   -2.7423 H   0  0  0  0  0  0  0  0  0  0  0  0
  9  8  2  0  0  0
  9 10  1  0  0  0
  8  7  1  0  0  0
 11 10  1  0  0  0
 10  5  2  0  0  0
  7  6  2  0  0  0
  5  6  1  0  0  0
  5  4  1  0  0  0
  6  1  1  0  0  0
  4  3  1  0  0  0
  1  2  1  0  0  0
  3  2  1  0  0  0
  2 12  1  0  0  0
 11 13  1  0  0  0
 11 14  1  0  0  0
M  END
> <minimizedAffinity>
-5.45203

$$$$
4MRG_24W_A_201


 14 15  0  0  0  0  0  0  0  0999 V2000
    9.7803   -3.3565   -2.7258 C   0  0  0  0  0  0  0  0  0  0  0  0
    8.6752   -4.2755   -2.3070 N   0  0  0  0  0  0  0  0  0  0  0  0
    8.5796   -4.2854   -0.8369 C   0  0  0  0  0  0  0  0  0  0  0  0
    9.8609   -4.8431   -0.2233 C   0  0  0  0  0  0  0  0  0  0  0  0
   11.0342   -4.1843   -0.7347 C   0  0  0  0  0  0  0  0  0  0  0  0
   10.9951   -3.4857   -1.9653 C   0  0  0  0  0  0  0  0  0  0  0  0
   12.1884   -2.8873   -2.4146 C   0  0  0  0  0  0  0  0  0  0  0  0
   13.3855   -2.9815   -1.6879 C   0  0  0  0  0  0  0  0  0  0  0  0
   13.4325   -3.7090   -0.4761 C   0  0  0  0  0  0  0  0  0  0  0  0
   12.2486   -4.2864   -0.0255 C   0  0  0  0  0  0  0  0  0  0  0  0
   12.2482   -4.9942    1.1596 N   0  0  0  0  0  0  0  0  0  0  0  0
    8.8714   -5.2188   -2.6419 H   0  0  0  0  0  0  0  0  0  0  0  0
   13.0795   -5.0845    1.6793 H   0  0  0  0  0  0  0  0  0  0  0  0
   11.4167   -5.4086    1.4852 H   0  0  0  0  0  0  0  0  0  0  0  0
  9  8  2  0  0  0
  9 10  1  0  0  0
  8  7  1  0  0  0
 11 10  1  0  0  0
 10  5  2  0  0  0
  7  6  2  0  0  0
  5  6  1  0  0  0
  5  4  1  0  0  0
  6  1  1  0  0  0
  4  3  1  0  0  0
  1  2  1  0  0  0
  3  2  1  0  0  0
  2 12  1  0  0  0
 11 13  1  0  0  0
 11 14  1  0  0  0
M  END
> <minimizedAffinity>
-5.37098

$$$$
4MRG_24W_A_201


 14 15  0  0  0  0  0  0  0  0999 V2000
   10.0538   -3.1282   -2.7910 C   0  0  0  0  0  0  0  0  0  0  0  0
   11.3121   -2.3183   -2.7491 N   0  0  0  0  0  0  0  0  0  0  0  0
   12.4394   -3.1876   -2.3695 C   0  0  0  0  0  0  0  0  0  0  0  0
   12.2350   -3.7412   -0.9620 C   0  0  0  0  0  0  0  0  0  0  0  0
   10.9402   -4.3504   -0.8055 C   0  0  0  0  0  0  0  0  0  0  0  0
    9.8764   -4.0278   -1.6820 C   0  0  0  0  0  0  0  0  0  0  0  0
    8.6310   -4.6443   -1.4520 C   0  0  0  0  0  0  0  0  0  0  0  0
    8.4305   -5.5385   -0.3889 C   0  0  0  0  0  0  0  0  0  0  0  0
    9.4838   -5.8337    0.5073 C   0  0  0  0  0  0  0  0  0  0  0  0
   10.7183   -5.2358    0.2692 C   0  0  0  0  0  0  0  0  0  0  0  0
   11.7766   -5.5074    1.1128 N   0  0  0  0  0  0  0  0  0  0  0  0
   11.2129   -1.5701   -2.0629 H   0  0  0  0  0  0  0  0  0  0  0  0
   11.6552   -6.1213    1.8728 H   0  0  0  0  0  0  0  0  0  0  0  0
   12.6527   -5.0872    0.9545 H   0  0  0  0  0  0  0  0  0  0  0  0
  9  8  2  0  0  0
  9 10  1  0  0  0
  8  7  1  0  0  0
 11 10  1  0  0  0
 10  5  2  0  0  0
  7  6  2  0  0  0
  5  6  1  0  0  0
  5  4  1  0  0  0
  6  1  1  0  0  0
  4  3  1  0  0  0
  1  2  1  0  0  0
  3  2  1  0  0  0
  2 12  1  0  0  0
 11 13  1  0  0  0
 11 14  1  0  0  0
M  END
> <minimizedAffinity>
-5.33887

$$$$
4MRG_24W_A_201


 14 15  0  0  0  0  0  0  0  0999 V2000
   12.2267   -2.7568   -2.4662 C   0  0  0  0  0  0  0  0  0  0  0  0
   13.3674   -2.4407   -1.5497 N   0  0  0  0  0  0  0  0  0  0  0  0
   13.7606   -3.6596   -0.8217 C   0  0  0  0  0  0  0  0  0  0  0  0
   12.6161   -4.1437    0.0644 C   0  0  0  0  0  0  0  0  0  0  0  0
   11.3823   -4.2645   -0.6673 C   0  0  0  0  0  0  0  0  0  0  0  0
   11.1894   -3.5664   -1.8836 C   0  0  0  0  0  0  0  0  0  0  0  0
    9.9470   -3.7133   -2.5308 C   0  0  0  0  0  0  0  0  0  0  0  0
    8.9211   -4.5084   -1.9966 C   0  0  0  0  0  0  0  0  0  0  0  0
    9.1017   -5.1777   -0.7640 C   0  0  0  0  0  0  0  0  0  0  0  0
   10.3358   -5.0442   -0.1336 C   0  0  0  0  0  0  0  0  0  0  0  0
   10.5578   -5.6918    1.0651 N   0  0  0  0  0  0  0  0  0  0  0  0
   13.0803   -1.7237   -0.8834 H   0  0  0  0  0  0  0  0  0  0  0  0
    9.8477   -6.2442    1.4650 H   0  0  0  0  0  0  0  0  0  0  0  0
   11.4261   -5.6012    1.5200 H   0  0  0  0  0  0  0  0  0  0  0  0
  9  8  2  0  0  0
  9 10  1  0  0  0
  8  7  1  0  0  0
 11 10  1  0  0  0
 10  5  2  0  0  0
  7  6  2  0  0  0
  5  6  1  0  0  0
  5  4  1  0  0  0
  6  1  1  0  0  0
  4  3  1  0  0  0
  1  2  1  0  0  0
  3  2  1  0  0  0
  2 12  1  0  0  0
 11 13  1  0  0  0
 11 14  1  0  0  0
M  END
> <minimizedAffinity>
-5.33187

$$$$
4MRG_24W_A_201


 14 15  0  0  0  0  0  0  0  0999 V2000
   12.5021   -4.9939    0.4440 C   0  0  0  0  0  0  0  0  0  0  0  0
   13.6883   -4.5805   -0.3704 N   0  0  0  0  0  0  0  0  0  0  0  0
   13.4400   -3.2506   -0.9538 C   0  0  0  0  0  0  0  0  0  0  0  0
   12.2542   -3.3026   -1.9132 C   0  0  0  0  0  0  0  0  0  0  0  0
   11.0970   -3.9075   -1.3074 C   0  0  0  0  0  0  0  0  0  0  0  0
   11.2273   -4.7503   -0.1774 C   0  0  0  0  0  0  0  0  0  0  0  0
   10.0536   -5.3269    0.3459 C   0  0  0  0  0  0  0  0  0  0  0  0
    8.7935   -5.0958   -0.2276 C   0  0  0  0  0  0  0  0  0  0  0  0
    8.6681   -4.2819   -1.3773 C   0  0  0  0  0  0  0  0  0  0  0  0
    9.8271   -3.7001   -1.8837 C   0  0  0  0  0  0  0  0  0  0  0  0
    9.7466   -2.8881   -2.9971 N   0  0  0  0  0  0  0  0  0  0  0  0
   13.8407   -5.2573   -1.1181 H   0  0  0  0  0  0  0  0  0  0  0  0
    8.8749   -2.7227   -3.4238 H   0  0  0  0  0  0  0  0  0  0  0  0
   10.5609   -2.4744   -3.3645 H   0  0  0  0  0  0  0  0  0  0  0  0
  9  8  2  0  0  0
  9 10  1  0  0  0
  8  7  1  0  0  0
 11 10  1  0  0  0
 10  5  2  0  0  0
  7  6  2  0  0  0
  5  6  1  0  0  0
  5  4  1  0  0  0
  6  1  1  0  0  0
  4  3  1  0  0  0
  1  2  1  0  0  0
  3  2  1  0  0  0
  2 12  1  0  0  0
 11 13  1  0  0  0
 11 14  1  0  0  0
M  END
> <minimizedAffinity>
-5.25030

$$$$
4MRG_24W_A_201


 14 15  0  0  0  0  0  0  0  0999 V2000
    9.7822   -5.6341    0.0572 C   0  0  0  0  0  0  0  0  0  0  0  0
    8.4577   -5.3122   -0.5618 N   0  0  0  0  0  0  0  0  0  0  0  0
    8.6285   -5.1331   -2.0141 C   0  0  0  0  0  0  0  0  0  0  0  0
    9.5399   -3.9429   -2.3007 C   0  0  0  0  0  0  0  0  0  0  0  0
   10.7750   -4.0208   -1.5656 C   0  0  0  0  0  0  0  0  0  0  0  0
   10.8784   -4.8243   -0.4046 C   0  0  0  0  0  0  0  0  0  0  0  0
   12.1110   -4.8314    0.2770 C   0  0  0  0  0  0  0  0  0  0  0  0
   13.2038   -4.0651   -0.1574 C   0  0  0  0  0  0  0  0  0  0  0  0
   13.0894   -3.2358   -1.2971 C   0  0  0  0  0  0  0  0  0  0  0  0
   11.8755   -3.2422   -1.9787 C   0  0  0  0  0  0  0  0  0  0  0  0
   11.7263   -2.4566   -3.1039 N   0  0  0  0  0  0  0  0  0  0  0  0
    8.0909   -4.4525   -0.1534 H   0  0  0  0  0  0  0  0  0  0  0  0
   12.4753   -1.9009   -3.4192 H   0  0  0  0  0  0  0  0  0  0  0  0
   10.8708   -2.4520   -3.5911 H   0  0  0  0  0  0  0  0  0  0  0  0
  9  8  2  0  0  0
  9 10  1  0  0  0
  8  7  1  0  0  0
 11 10  1  0  0  0
 10  5  2  0  0  0
  7  6  2  0  0  0
  5  6  1  0  0  0
  5  4  1  0  0  0
  6  1  1  0  0  0
  4  3  1  0  0  0
  1  2  1  0  0  0
  3  2  1  0  0  0
  2 12  1  0  0  0
 11 13  1  0  0  0
 11 14  1  0  0  0
M  END
> <minimizedAffinity>
-5.12945

$$$$
4MRG_24W_A_201


 14 15  0  0  0  0  0  0  0  0999 V2000
   10.8323   -5.6914    0.4415 C   0  0  0  0  0  0  0  0  0  0  0  0
   12.0680   -6.1999    1.1164 N   0  0  0  0  0  0  0  0  0  0  0  0
   12.9678   -5.0691    1.4030 C   0  0  0  0  0  0  0  0  0  0  0  0
   13.4250   -4.4096    0.1047 C   0  0  0  0  0  0  0  0  0  0  0  0
   12.3161   -4.0800   -0.7517 C   0  0  0  0  0  0  0  0  0  0  0  0
   11.0657   -4.7262   -0.6000 C   0  0  0  0  0  0  0  0  0  0  0  0
   10.0343   -4.3701   -1.4906 C   0  0  0  0  0  0  0  0  0  0  0  0
   10.2256   -3.4206   -2.5065 C   0  0  0  0  0  0  0  0  0  0  0  0
   11.4849   -2.8009   -2.6799 C   0  0  0  0  0  0  0  0  0  0  0  0
   12.4986   -3.1423   -1.7887 C   0  0  0  0  0  0  0  0  0  0  0  0
   13.7393   -2.5506   -1.9151 N   0  0  0  0  0  0  0  0  0  0  0  0
   12.5411   -6.8650    0.5047 H   0  0  0  0  0  0  0  0  0  0  0  0
   13.9000   -1.8916   -2.6286 H   0  0  0  0  0  0  0  0  0  0  0  0
   14.4634   -2.7875   -1.2916 H   0  0  0  0  0  0  0  0  0  0  0  0
  9  8  2  0  0  0
  9 10  1  0  0  0
  8  7  1  0  0  0
 11 10  1  0  0  0
 10  5  2  0  0  0
  7  6  2  0  0  0
  5  6  1  0  0  0
  5  4  1  0  0  0
  6  1  1  0  0  0
  4  3  1  0  0  0
  1  2  1  0  0  0
  3  2  1  0  0  0
  2 12  1  0  0  0
 11 13  1  0  0  0
 11 14  1  0  0  0
M  END
> <minimizedAffinity>
-4.65392

$$$$
4MRG_24W_A_201


 14 15  0  0  0  0  0  0  0  0999 V2000
   12.1464   -3.6853   -1.3894 C   0  0  0  0  0  0  0  0  0  0  0  0
   11.5282   -3.3933   -2.7212 N   0  0  0  0  0  0  0  0  0  0  0  0
   10.0742   -3.2215   -2.5570 C   0  0  0  0  0  0  0  0  0  0  0  0
    9.4374   -4.5163   -2.0598 C   0  0  0  0  0  0  0  0  0  0  0  0
   10.1066   -5.0331   -0.8949 C   0  0  0  0  0  0  0  0  0  0  0  0
   11.4334   -4.6455   -0.5892 C   0  0  0  0  0  0  0  0  0  0  0  0
   12.0324   -5.2117    0.5530 C   0  0  0  0  0  0  0  0  0  0  0  0
   11.3576   -6.1385    1.3628 C   0  0  0  0  0  0  0  0  0  0  0  0
   10.0449   -6.5519    1.0376 C   0  0  0  0  0  0  0  0  0  0  0  0
    9.4486   -5.9794   -0.0827 C   0  0  0  0  0  0  0  0  0  0  0  0
    8.1632   -6.3457   -0.4276 N   0  0  0  0  0  0  0  0  0  0  0  0
   11.7096   -4.1689   -3.3583 H   0  0  0  0  0  0  0  0  0  0  0  0
    7.6757   -7.0041    0.1184 H   0  0  0  0  0  0  0  0  0  0  0  0
    7.7340   -5.9487   -1.2196 H   0  0  0  0  0  0  0  0  0  0  0  0
  9  8  2  0  0  0
  9 10  1  0  0  0
  8  7  1  0  0  0
 11 10  1  0  0  0
 10  5  2  0  0  0
  7  6  2  0  0  0
  5  6  1  0  0  0
  5  4  1  0  0  0
  6  1  1  0  0  0
  4  3  1  0  0  0
  1  2  1  0  0  0
  3  2  1  0  0  0
  2 12  1  0  0  0
 11 13  1  0  0  0
 11 14  1  0  0  0
M  END
> <minimizedAffinity>
-4.52155

$$$$
4MRG_24W_A_201


 14 15  0  0  0  0  0  0  0  0999 V2000
   12.5842   -4.2636   -0.0446 C   0  0  0  0  0  0  0  0  0  0  0  0
   12.6405   -4.8802    1.3184 N   0  0  0  0  0  0  0  0  0  0  0  0
   12.0150   -6.2135    1.2769 C   0  0  0  0  0  0  0  0  0  0  0  0
   10.5366   -6.0975    0.9160 C   0  0  0  0  0  0  0  0  0  0  0  0
   10.3322   -5.3118   -0.2726 C   0  0  0  0  0  0  0  0  0  0  0  0
   11.3208   -4.4023   -0.7194 C   0  0  0  0  0  0  0  0  0  0  0  0
   11.0402   -3.6492   -1.8762 C   0  0  0  0  0  0  0  0  0  0  0  0
    9.8241   -3.7734   -2.5659 C   0  0  0  0  0  0  0  0  0  0  0  0
    8.8228   -4.6564   -2.0994 C   0  0  0  0  0  0  0  0  0  0  0  0
    9.1080   -5.4116   -0.9651 C   0  0  0  0  0  0  0  0  0  0  0  0
    8.1628   -6.2952   -0.4842 N   0  0  0  0  0  0  0  0  0  0  0  0
   12.1383   -4.2889    1.9807 H   0  0  0  0  0  0  0  0  0  0  0  0
    7.2976   -6.3890   -0.9444 H   0  0  0  0  0  0  0  0  0  0  0  0
    8.3539   -6.8315    0.3189 H   0  0  0  0  0  0  0  0  0  0  0  0
  9  8  2  0  0  0
  9 10  1  0  0  0
  8  7  1  0  0  0
 11 10  1  0  0  0
 10  5  2  0  0  0
  7  6  2  0  0  0
  5  6  1  0  0  0
  5  4  1  0  0  0
  6  1  1  0  0  0
  4  3  1  0  0  0
  1  2  1  0  0  0
  3  2  1  0  0  0
  2 12  1  0  0  0
 11 13  1  0  0  0
 11 14  1  0  0  0
M  END
> <minimizedAffinity>
-4.51332

$$$$
4MRG_24W_A_201


 14 15  0  0  0  0  0  0  0  0999 V2000
    8.8354   -6.6011    0.3578 C   0  0  0  0  0  0  0  0  0  0  0  0
    8.3375   -6.6700    1.7679 N   0  0  0  0  0  0  0  0  0  0  0  0
    7.8706   -8.0377    2.0541 C   0  0  0  0  0  0  0  0  0  0  0  0
    6.6864   -8.3946    1.1599 C   0  0  0  0  0  0  0  0  0  0  0  0
    6.9659   -8.1444   -0.2298 C   0  0  0  0  0  0  0  0  0  0  0  0
    7.9948   -7.2506   -0.6129 C   0  0  0  0  0  0  0  0  0  0  0  0
    8.1940   -7.0362   -1.9906 C   0  0  0  0  0  0  0  0  0  0  0  0
    7.4015   -7.6672   -2.9622 C   0  0  0  0  0  0  0  0  0  0  0  0
    6.3512   -8.5328   -2.5784 C   0  0  0  0  0  0  0  0  0  0  0  0
    6.1660   -8.7559   -1.2167 C   0  0  0  0  0  0  0  0  0  0  0  0
    5.1600   -9.6043   -0.8000 N   0  0  0  0  0  0  0  0  0  0  0  0
    7.5656   -6.0143    1.8889 H   0  0  0  0  0  0  0  0  0  0  0  0
    4.5834  -10.0475   -1.4636 H   0  0  0  0  0  0  0  0  0  0  0  0
    5.0192   -9.7663    0.1609 H   0  0  0  0  0  0  0  0  0  0  0  0
  9  8  2  0  0  0
  9 10  1  0  0  0
  8  7  1  0  0  0
 11 10  1  0  0  0
 10  5  2  0  0  0
  7  6  2  0  0  0
  5  6  1  0  0  0
  5  4  1  0  0  0
  6  1  1  0  0  0
  4  3  1  0  0  0
  1  2  1  0  0  0
  3  2  1  0  0  0
  2 12  1  0  0  0
 11 13  1  0  0  0
 11 14  1  0  0  0
M  END
> <minimizedAffinity>
-4.49772

$$$$
