3BFU_R2P_A_264


 16 16  0  0  0  0  0  0  0  0999 V2000
  -31.3998   -4.3969   44.6277 N   0  0  0  0  0  0  0  0  0  0  0  0
  -31.2747   -3.9524   43.1793 C   0  0  0  0  0  0  0  0  0  0  0  0
  -31.8891   -3.6793   45.1626 H   0  0  0  0  0  0  0  0  0  0  0  0
  -30.4696   -4.5393   45.0213 H   0  0  0  0  0  0  0  0  0  0  0  0
  -30.5367   -2.5984   43.2091 C   0  0  0  0  0  0  0  0  0  0  0  0
  -30.7754   -1.8951   44.2256 O   0  0  0  0  0  0  0  0  0  0  0  0
  -29.7954   -2.3034   42.2220 O   0  0  0  0  0  0  0  0  0  0  0  0
  -29.6917   -2.9107   41.5161 H   0  0  0  0  0  0  0  0  0  0  0  0
  -30.5493   -4.9021   42.1478 C   0  0  0  0  0  0  0  0  0  0  0  0
  -32.0845   -6.7364   43.0176 N   0  0  0  0  0  0  0  0  0  0  0  0
  -29.9709   -7.0963   40.2773 O   0  0  0  0  0  0  0  0  0  0  0  0
  -30.8192   -7.3077   41.1873 C   0  0  0  0  0  0  0  0  0  0  0  0
  -31.4799   -8.4641   41.3578 N   0  0  0  0  0  0  0  0  0  0  0  0
  -32.4924   -8.3389   42.6455 S   0  0  0  0  0  0  0  0  0  0  0  0
  -31.1752   -6.2926   42.1594 C   0  0  0  0  0  0  0  0  0  0  0  0
  -29.7628   -7.7737   39.6642 H   0  0  0  0  0  0  0  0  0  0  0  0
 10 14  1  0  0  0
 10 15  2  0  0  0
  1  2  1  0  0  0
  2  5  1  0  0  0
  2  9  1  0  0  0
  5  6  2  0  0  0
  5  7  1  0  0  0
 11 12  1  0  0  0
 12 13  2  0  0  0
 12 15  1  0  0  0
 13 14  1  0  0  0
 15  9  1  0  0  0
  1  3  1  0  0  0
  1  4  1  0  0  0
 11 16  1  0  0  0
  7  8  1  0  0  0
M  END
> <minimizedAffinity>
-7.56534

$$$$
3BFU_R2P_A_264


 16 16  0  0  0  0  0  0  0  0999 V2000
  -30.0879   -4.0760   41.2876 N   0  0  0  0  0  0  0  0  0  0  0  0
  -30.4796   -4.4857   42.6983 C   0  0  0  0  0  0  0  0  0  0  0  0
  -29.2526   -3.4918   41.3228 H   0  0  0  0  0  0  0  0  0  0  0  0
  -30.8519   -3.5515   40.8614 H   0  0  0  0  0  0  0  0  0  0  0  0
  -30.6797   -3.1744   43.4851 C   0  0  0  0  0  0  0  0  0  0  0  0
  -30.2534   -2.1438   42.9010 O   0  0  0  0  0  0  0  0  0  0  0  0
  -31.2154   -3.2458   44.6334 O   0  0  0  0  0  0  0  0  0  0  0  0
  -31.4967   -4.0744   44.9685 H   0  0  0  0  0  0  0  0  0  0  0  0
  -31.7504   -5.3991   42.9044 C   0  0  0  0  0  0  0  0  0  0  0  0
  -30.5524   -7.1624   41.5139 N   0  0  0  0  0  0  0  0  0  0  0  0
  -33.9761   -7.1602   42.1343 O   0  0  0  0  0  0  0  0  0  0  0  0
  -32.8205   -7.4601   41.7255 C   0  0  0  0  0  0  0  0  0  0  0  0
  -32.5359   -8.5307   40.9668 N   0  0  0  0  0  0  0  0  0  0  0  0
  -30.9247   -8.5713   40.6483 S   0  0  0  0  0  0  0  0  0  0  0  0
  -31.6568   -6.6580   42.0489 C   0  0  0  0  0  0  0  0  0  0  0  0
  -34.7079   -7.6997   41.9076 H   0  0  0  0  0  0  0  0  0  0  0  0
 10 14  1  0  0  0
 10 15  2  0  0  0
  1  2  1  0  0  0
  2  5  1  0  0  0
  2  9  1  0  0  0
  5  6  2  0  0  0
  5  7  1  0  0  0
 11 12  1  0  0  0
 12 13  2  0  0  0
 12 15  1  0  0  0
 13 14  1  0  0  0
 15  9  1  0  0  0
  1  3  1  0  0  0
  1  4  1  0  0  0
 11 16  1  0  0  0
  7  8  1  0  0  0
M  END
> <minimizedAffinity>
-7.41926

$$$$
3BFU_R2P_A_264


 16 16  0  0  0  0  0  0  0  0999 V2000
  -33.2934   -7.3190   41.4266 N   0  0  0  0  0  0  0  0  0  0  0  0
  -32.1156   -8.2798   41.3944 C   0  0  0  0  0  0  0  0  0  0  0  0
  -34.1591   -7.8372   41.2771 H   0  0  0  0  0  0  0  0  0  0  0  0
  -33.1833   -6.6213   40.6907 H   0  0  0  0  0  0  0  0  0  0  0  0
  -32.1786   -8.9887   40.0262 C   0  0  0  0  0  0  0  0  0  0  0  0
  -31.0823   -9.4686   39.6350 O   0  0  0  0  0  0  0  0  0  0  0  0
  -33.2906   -9.0032   39.4146 O   0  0  0  0  0  0  0  0  0  0  0  0
  -34.0460   -8.6116   39.8068 H   0  0  0  0  0  0  0  0  0  0  0  0
  -30.6582   -7.7103   41.6033 C   0  0  0  0  0  0  0  0  0  0  0  0
  -31.4326   -5.7638   43.0489 N   0  0  0  0  0  0  0  0  0  0  0  0
  -29.1580   -5.4682   40.4326 O   0  0  0  0  0  0  0  0  0  0  0  0
  -29.9223   -5.2199   41.4056 C   0  0  0  0  0  0  0  0  0  0  0  0
  -30.0944   -4.0032   41.9466 N   0  0  0  0  0  0  0  0  0  0  0  0
  -31.1645   -4.0962   43.1897 S   0  0  0  0  0  0  0  0  0  0  0  0
  -30.7053   -6.2540   42.0534 C   0  0  0  0  0  0  0  0  0  0  0  0
  -28.6651   -4.7771   40.0357 H   0  0  0  0  0  0  0  0  0  0  0  0
 10 14  1  0  0  0
 10 15  2  0  0  0
  1  2  1  0  0  0
  2  5  1  0  0  0
  2  9  1  0  0  0
  5  6  2  0  0  0
  5  7  1  0  0  0
 11 12  1  0  0  0
 12 13  2  0  0  0
 12 15  1  0  0  0
 13 14  1  0  0  0
 15  9  1  0  0  0
  1  3  1  0  0  0
  1  4  1  0  0  0
 11 16  1  0  0  0
  7  8  1  0  0  0
M  END
> <minimizedAffinity>
-7.40268

$$$$
3BFU_R2P_A_264


 16 16  0  0  0  0  0  0  0  0999 V2000
  -32.7339   -8.9946   39.9670 N   0  0  0  0  0  0  0  0  0  0  0  0
  -32.3093   -8.1187   41.1349 C   0  0  0  0  0  0  0  0  0  0  0  0
  -33.7150   -9.2522   40.0744 H   0  0  0  0  0  0  0  0  0  0  0  0
  -32.1609   -9.8382   39.9487 H   0  0  0  0  0  0  0  0  0  0  0  0
  -32.5931   -8.9382   42.4102 C   0  0  0  0  0  0  0  0  0  0  0  0
  -33.4742   -9.8272   42.2752 O   0  0  0  0  0  0  0  0  0  0  0  0
  -31.9541   -8.6374   43.4647 O   0  0  0  0  0  0  0  0  0  0  0  0
  -31.3158   -7.9517   43.4462 H   0  0  0  0  0  0  0  0  0  0  0  0
  -30.8232   -7.5894   41.1931 C   0  0  0  0  0  0  0  0  0  0  0  0
  -31.3963   -5.7355   42.8401 N   0  0  0  0  0  0  0  0  0  0  0  0
  -29.3398   -5.3144   40.0653 O   0  0  0  0  0  0  0  0  0  0  0  0
  -30.0092   -5.1167   41.1166 C   0  0  0  0  0  0  0  0  0  0  0  0
  -30.0873   -3.9402   41.7588 N   0  0  0  0  0  0  0  0  0  0  0  0
  -31.0520   -4.0933   43.0799 S   0  0  0  0  0  0  0  0  0  0  0  0
  -30.7751   -6.1713   41.7518 C   0  0  0  0  0  0  0  0  0  0  0  0
  -28.8552   -4.6114   39.6793 H   0  0  0  0  0  0  0  0  0  0  0  0
 10 14  1  0  0  0
 10 15  2  0  0  0
  1  2  1  0  0  0
  2  5  1  0  0  0
  2  9  1  0  0  0
  5  6  2  0  0  0
  5  7  1  0  0  0
 11 12  1  0  0  0
 12 13  2  0  0  0
 12 15  1  0  0  0
 13 14  1  0  0  0
 15  9  1  0  0  0
  1  3  1  0  0  0
  1  4  1  0  0  0
 11 16  1  0  0  0
  7  8  1  0  0  0
M  END
> <minimizedAffinity>
-7.22649

$$$$
3BFU_R2P_A_264


 16 16  0  0  0  0  0  0  0  0999 V2000
  -32.6040   -9.6885   42.8650 N   0  0  0  0  0  0  0  0  0  0  0  0
  -32.0246   -8.4234   42.2522 C   0  0  0  0  0  0  0  0  0  0  0  0
  -31.9673  -10.4682   42.7007 H   0  0  0  0  0  0  0  0  0  0  0  0
  -33.5072   -9.8909   42.4366 H   0  0  0  0  0  0  0  0  0  0  0  0
  -31.8056   -8.7331   40.7573 C   0  0  0  0  0  0  0  0  0  0  0  0
  -32.8149   -9.1995   40.1667 O   0  0  0  0  0  0  0  0  0  0  0  0
  -30.6525   -8.5250   40.2697 O   0  0  0  0  0  0  0  0  0  0  0  0
  -29.9727   -8.1714   40.8089 H   0  0  0  0  0  0  0  0  0  0  0  0
  -32.8335   -7.0736   42.3768 C   0  0  0  0  0  0  0  0  0  0  0  0
  -31.1283   -5.5390   41.2745 N   0  0  0  0  0  0  0  0  0  0  0  0
  -32.3943   -5.0665   44.4808 O   0  0  0  0  0  0  0  0  0  0  0  0
  -31.7525   -4.9375   43.4019 C   0  0  0  0  0  0  0  0  0  0  0  0
  -30.8861   -3.9441   43.1462 N   0  0  0  0  0  0  0  0  0  0  0  0
  -30.2618   -4.1283   41.6378 S   0  0  0  0  0  0  0  0  0  0  0  0
  -31.8970   -5.8724   42.3032 C   0  0  0  0  0  0  0  0  0  0  0  0
  -32.2783   -4.4448   45.1721 H   0  0  0  0  0  0  0  0  0  0  0  0
 10 14  1  0  0  0
 10 15  2  0  0  0
  1  2  1  0  0  0
  2  5  1  0  0  0
  2  9  1  0  0  0
  5  6  2  0  0  0
  5  7  1  0  0  0
 11 12  1  0  0  0
 12 13  2  0  0  0
 12 15  1  0  0  0
 13 14  1  0  0  0
 15  9  1  0  0  0
  1  3  1  0  0  0
  1  4  1  0  0  0
 11 16  1  0  0  0
  7  8  1  0  0  0
M  END
> <minimizedAffinity>
-6.07730

$$$$
3BFU_R2P_A_264


 16 16  0  0  0  0  0  0  0  0999 V2000
  -30.5954   -3.9295   43.7945 N   0  0  0  0  0  0  0  0  0  0  0  0
  -31.1789   -4.8406   42.7264 C   0  0  0  0  0  0  0  0  0  0  0  0
  -30.2185   -3.0893   43.3558 H   0  0  0  0  0  0  0  0  0  0  0  0
  -29.8493   -4.4191   44.2884 H   0  0  0  0  0  0  0  0  0  0  0  0
  -30.0329   -5.1267   41.7348 C   0  0  0  0  0  0  0  0  0  0  0  0
  -30.2721   -4.7857   40.5467 O   0  0  0  0  0  0  0  0  0  0  0  0
  -28.9875   -5.6913   42.1811 O   0  0  0  0  0  0  0  0  0  0  0  0
  -28.9203   -5.8997   43.0921 H   0  0  0  0  0  0  0  0  0  0  0  0
  -31.8263   -6.2128   43.1620 C   0  0  0  0  0  0  0  0  0  0  0  0
  -30.7107   -7.9054   41.6230 N   0  0  0  0  0  0  0  0  0  0  0  0
  -34.0669   -7.0080   41.4313 O   0  0  0  0  0  0  0  0  0  0  0  0
  -32.9440   -7.5448   41.2232 C   0  0  0  0  0  0  0  0  0  0  0  0
  -32.7023   -8.4578   40.2688 N   0  0  0  0  0  0  0  0  0  0  0  0
  -31.1242   -8.9111   40.3228 S   0  0  0  0  0  0  0  0  0  0  0  0
  -31.7764   -7.2219   42.0198 C   0  0  0  0  0  0  0  0  0  0  0  0
  -34.8024   -7.2385   40.8984 H   0  0  0  0  0  0  0  0  0  0  0  0
 10 14  1  0  0  0
 10 15  2  0  0  0
  1  2  1  0  0  0
  2  5  1  0  0  0
  2  9  1  0  0  0
  5  6  2  0  0  0
  5  7  1  0  0  0
 11 12  1  0  0  0
 12 13  2  0  0  0
 12 15  1  0  0  0
 13 14  1  0  0  0
 15  9  1  0  0  0
  1  3  1  0  0  0
  1  4  1  0  0  0
 11 16  1  0  0  0
  7  8  1  0  0  0
M  END
> <minimizedAffinity>
-6.02005

$$$$
3BFU_R2P_A_264


 16 16  0  0  0  0  0  0  0  0999 V2000
  -33.7324   -7.0856   42.0987 N   0  0  0  0  0  0  0  0  0  0  0  0
  -32.2705   -6.9827   42.5031 C   0  0  0  0  0  0  0  0  0  0  0  0
  -34.2231   -7.6982   42.7502 H   0  0  0  0  0  0  0  0  0  0  0  0
  -33.7982   -7.4694   41.1560 H   0  0  0  0  0  0  0  0  0  0  0  0
  -31.7273   -8.4260   42.5168 C   0  0  0  0  0  0  0  0  0  0  0  0
  -30.6469   -8.5840   41.8900 O   0  0  0  0  0  0  0  0  0  0  0  0
  -32.4094   -9.3124   43.1166 O   0  0  0  0  0  0  0  0  0  0  0  0
  -33.2043   -9.0763   43.5529 H   0  0  0  0  0  0  0  0  0  0  0  0
  -31.3000   -6.0843   41.6412 C   0  0  0  0  0  0  0  0  0  0  0  0
  -30.2429   -3.7831   41.8963 N   0  0  0  0  0  0  0  0  0  0  0  0
  -32.3441   -5.2385   44.2571 O   0  0  0  0  0  0  0  0  0  0  0  0
  -31.5800   -4.4431   43.6439 C   0  0  0  0  0  0  0  0  0  0  0  0
  -31.2143   -3.2348   44.1011 N   0  0  0  0  0  0  0  0  0  0  0  0
  -30.2181   -2.5096   43.0145 S   0  0  0  0  0  0  0  0  0  0  0  0
  -31.0123   -4.7646   42.3490 C   0  0  0  0  0  0  0  0  0  0  0  0
  -32.6947   -5.0007   45.0928 H   0  0  0  0  0  0  0  0  0  0  0  0
 10 14  1  0  0  0
 10 15  2  0  0  0
  1  2  1  0  0  0
  2  5  1  0  0  0
  2  9  1  0  0  0
  5  6  2  0  0  0
  5  7  1  0  0  0
 11 12  1  0  0  0
 12 13  2  0  0  0
 12 15  1  0  0  0
 13 14  1  0  0  0
 15  9  1  0  0  0
  1  3  1  0  0  0
  1  4  1  0  0  0
 11 16  1  0  0  0
  7  8  1  0  0  0
M  END
> <minimizedAffinity>
-6.00207

$$$$
3BFU_R2P_A_264


 16 16  0  0  0  0  0  0  0  0999 V2000
  -30.3669   -8.5182   42.2153 N   0  0  0  0  0  0  0  0  0  0  0  0
  -30.4229   -7.8116   40.8703 C   0  0  0  0  0  0  0  0  0  0  0  0
  -29.6364   -9.2298   42.1953 H   0  0  0  0  0  0  0  0  0  0  0  0
  -31.2666   -8.9597   42.4051 H   0  0  0  0  0  0  0  0  0  0  0  0
  -30.6663   -8.9124   39.8180 C   0  0  0  0  0  0  0  0  0  0  0  0
  -31.8506   -9.3369   39.7696 O   0  0  0  0  0  0  0  0  0  0  0  0
  -29.6756   -9.3064   39.1295 O   0  0  0  0  0  0  0  0  0  0  0  0
  -28.8338   -8.9137   39.2525 H   0  0  0  0  0  0  0  0  0  0  0  0
  -31.4821   -6.6612   40.6544 C   0  0  0  0  0  0  0  0  0  0  0  0
  -30.4997   -4.4078   41.3141 N   0  0  0  0  0  0  0  0  0  0  0  0
  -32.4354   -6.3860   43.4227 O   0  0  0  0  0  0  0  0  0  0  0  0
  -31.7301   -5.4533   42.9483 C   0  0  0  0  0  0  0  0  0  0  0  0
  -31.3885   -4.3413   43.6187 N   0  0  0  0  0  0  0  0  0  0  0  0
  -30.4706   -3.3752   42.6579 S   0  0  0  0  0  0  0  0  0  0  0  0
  -31.2109   -5.4920   41.5951 C   0  0  0  0  0  0  0  0  0  0  0  0
  -32.7559   -6.3306   44.3015 H   0  0  0  0  0  0  0  0  0  0  0  0
 10 14  1  0  0  0
 10 15  2  0  0  0
  1  2  1  0  0  0
  2  5  1  0  0  0
  2  9  1  0  0  0
  5  6  2  0  0  0
  5  7  1  0  0  0
 11 12  1  0  0  0
 12 13  2  0  0  0
 12 15  1  0  0  0
 13 14  1  0  0  0
 15  9  1  0  0  0
  1  3  1  0  0  0
  1  4  1  0  0  0
 11 16  1  0  0  0
  7  8  1  0  0  0
M  END
> <minimizedAffinity>
-5.84699

$$$$
3BFU_R2P_A_264


 16 16  0  0  0  0  0  0  0  0999 V2000
  -32.3018   -5.7717   43.5630 N   0  0  0  0  0  0  0  0  0  0  0  0
  -31.4710   -5.2929   42.3832 C   0  0  0  0  0  0  0  0  0  0  0  0
  -32.9206   -5.0212   43.8700 H   0  0  0  0  0  0  0  0  0  0  0  0
  -31.6830   -6.0370   44.3292 H   0  0  0  0  0  0  0  0  0  0  0  0
  -30.7192   -4.0375   42.8703 C   0  0  0  0  0  0  0  0  0  0  0  0
  -30.7035   -3.8896   44.1204 O   0  0  0  0  0  0  0  0  0  0  0  0
  -30.2191   -3.2668   41.9946 O   0  0  0  0  0  0  0  0  0  0  0  0
  -30.2926   -3.4807   41.0854 H   0  0  0  0  0  0  0  0  0  0  0  0
  -30.4313   -6.2836   41.7278 C   0  0  0  0  0  0  0  0  0  0  0  0
  -32.2970   -8.0092   41.5876 N   0  0  0  0  0  0  0  0  0  0  0  0
  -29.4687   -8.0233   39.5610 O   0  0  0  0  0  0  0  0  0  0  0  0
  -30.5720   -8.3125   40.1010 C   0  0  0  0  0  0  0  0  0  0  0  0
  -31.3395   -9.3572   39.7515 N   0  0  0  0  0  0  0  0  0  0  0  0
  -32.6902   -9.3896   40.6862 S   0  0  0  0  0  0  0  0  0  0  0  0
  -31.1343   -7.5196   41.1768 C   0  0  0  0  0  0  0  0  0  0  0  0
  -29.1326   -8.5564   38.8676 H   0  0  0  0  0  0  0  0  0  0  0  0
 10 14  1  0  0  0
 10 15  2  0  0  0
  1  2  1  0  0  0
  2  5  1  0  0  0
  2  9  1  0  0  0
  5  6  2  0  0  0
  5  7  1  0  0  0
 11 12  1  0  0  0
 12 13  2  0  0  0
 12 15  1  0  0  0
 13 14  1  0  0  0
 15  9  1  0  0  0
  1  3  1  0  0  0
  1  4  1  0  0  0
 11 16  1  0  0  0
  7  8  1  0  0  0
M  END
> <minimizedAffinity>
-5.83139

$$$$
3BFU_R2P_A_264


 16 16  0  0  0  0  0  0  0  0999 V2000
  -29.3566   -6.2931   41.3344 N   0  0  0  0  0  0  0  0  0  0  0  0
  -30.8148   -6.7227   41.3560 C   0  0  0  0  0  0  0  0  0  0  0  0
  -28.8467   -6.8549   40.6526 H   0  0  0  0  0  0  0  0  0  0  0  0
  -28.9486   -6.4281   42.2594 H   0  0  0  0  0  0  0  0  0  0  0  0
  -30.8123   -8.2303   41.6812 C   0  0  0  0  0  0  0  0  0  0  0  0
  -30.0015   -8.9108   40.9997 O   0  0  0  0  0  0  0  0  0  0  0  0
  -31.6241   -8.6499   42.5619 O   0  0  0  0  0  0  0  0  0  0  0  0
  -32.1842   -8.0459   43.0086 H   0  0  0  0  0  0  0  0  0  0  0  0
  -31.8121   -5.9940   42.3390 C   0  0  0  0  0  0  0  0  0  0  0  0
  -31.2482   -4.0959   43.9381 N   0  0  0  0  0  0  0  0  0  0  0  0
  -30.6998   -3.9831   40.5041 O   0  0  0  0  0  0  0  0  0  0  0  0
  -30.7568   -3.6921   41.7307 C   0  0  0  0  0  0  0  0  0  0  0  0
  -30.3402   -2.5292   42.2569 N   0  0  0  0  0  0  0  0  0  0  0  0
  -30.5814   -2.5386   43.8820 S   0  0  0  0  0  0  0  0  0  0  0  0
  -31.2876   -4.6129   42.7169 C   0  0  0  0  0  0  0  0  0  0  0  0
  -30.3510   -3.3655   39.8918 H   0  0  0  0  0  0  0  0  0  0  0  0
 10 14  1  0  0  0
 10 15  2  0  0  0
  1  2  1  0  0  0
  2  5  1  0  0  0
  2  9  1  0  0  0
  5  6  2  0  0  0
  5  7  1  0  0  0
 11 12  1  0  0  0
 12 13  2  0  0  0
 12 15  1  0  0  0
 13 14  1  0  0  0
 15  9  1  0  0  0
  1  3  1  0  0  0
  1  4  1  0  0  0
 11 16  1  0  0  0
  7  8  1  0  0  0
M  END
> <minimizedAffinity>
-5.33511

$$$$
