3BFU_R2P_A_264
  RCSB PDB12061708013D
Coordinates from PDB:3BFU:A:264 Model:1 without hydrogens
 12 12  0  0  0  0            999 V2000
  -32.2300   -6.5760   43.1720   N 0  0  0  0  0  0  0  0  0  0  0  0
  -31.3080   -4.1160   44.7160   N 0  0  0  0  0  0  0  0  0  0  0  0
  -31.2140   -3.8620   43.2200   C 0  0  0  0  0  0  0  0  0  0  0  0
  -30.4950   -2.5070   43.0600   C 0  0  0  0  0  0  0  0  0  0  0  0
  -29.7340   -7.3910   40.8890   O 0  0  0  0  0  0  0  0  0  0  0  0
  -30.7230   -7.4440   41.6710   C 0  0  0  0  0  0  0  0  0  0  0  0
  -31.4560   -8.5460   41.8970   N 0  0  0  0  0  0  0  0  0  0  0  0
  -32.6500   -8.2060   42.9730   S 0  0  0  0  0  0  0  0  0  0  0  0
  -31.1780   -6.2870   42.4170   C 0  0  0  0  0  0  0  0  0  0  0  0
  -30.4930   -4.9290   42.3070   C 0  0  0  0  0  0  0  0  0  0  0  0
  -30.4660   -1.8040   44.1040   O 0  0  0  0  0  0  0  0  0  0  0  0
  -30.0320   -2.2110   41.9160   O 0  0  0  0  0  0  0  0  0  0  0  0
  1  8  1  0  0  0  0
  1  9  2  0  0  0  0
  2  3  1  0  0  0  0
  3  4  1  0  0  0  0
  3 10  1  0  0  0  0
  4 11  2  0  0  0  0
  4 12  1  0  0  0  0
  5  6  1  0  0  0  0
  6  7  2  0  0  0  0
  6  9  1  0  0  0  0
  7  8  1  0  0  0  0
  9 10  1  0  0  0  0
A    1
ND1
A    2
N
A    3
CA
A    4
C
A    5
OD2
A    6
CD2
A    7
NE2
A    8
SE1
A    9
CG
A   10
CB
A   11
O
A   12
OXT
M  END
>  <InstanceId>
3BFU_R2P_A_264

>  <ChemCompId>
R2P

>  <PdbId>
3BFU

>  <ChainId>
A

>  <ResidueNumber>
264

>  <InsertionCode>


>  <Model>
1

>  <AltIds>


>  <MissingHeavyAtoms>
0

>  <ObservedFormula>
C5 N3 O3 S

>  <Name>
(2R)-2-amino-3-(4-hydroxy-1,2,5-thiadiazol-3-yl)propanoic acid

>  <SystematicName>
(2R)-2-amino-3-(4-hydroxy-1,2,5-thiadiazol-3-yl)propanoic acid

>  <Synonyms>


>  <Type>
D-peptide linking

>  <Formula>
C5 H7 N3 O3 S

>  <MolecularWeight>
189.192

>  <ModifiedDate>
2011-06-04

>  <Parent>


>  <OneLetterCode>


>  <SubcomponentList>


>  <AmbiguousFlag>
N

>  <InChI>
InChI=1S/C5H7N3O3S/c6-2(5(10)11)1-3-4(9)8-12-7-3/h2H,1,6H2,(H,8,9)(H,10,11)/t2-/m1/s1

>  <InChIKey>
SEVVPWOEIHLQGH-UWTATZPHSA-N

>  <SMILES>
C(c1c(nsn1)O)[C@H](C(=O)O)N

$$$$
