4R4O_3HW_A_201


 43 47  0  0  0  0  0  0  0  0999 V2000
   -3.1264   11.1511    3.0024 C   0  0  0  0  0  0  0  0  0  0  0  0
   -0.9186   10.5565    2.2708 C   0  0  0  0  0  0  0  0  0  0  0  0
   -2.1527   10.1882    2.7844 C   0  0  0  0  0  0  0  0  0  0  0  0
   -0.6651   11.8891    1.9814 C   0  0  0  0  0  0  0  0  0  0  0  0
   -1.6321   12.8502    2.2051 C   0  0  0  0  0  0  0  0  0  0  0  0
   -2.8653   12.4811    2.7063 C   0  0  0  0  0  0  0  0  0  0  0  0
   -6.0989   10.0522    4.9050 C   0  0  0  0  0  0  0  0  0  0  0  0
   -6.5839   10.3581    3.7137 N   0  0  0  0  0  0  0  0  0  0  0  0
   -5.6148   10.7755    2.9249 N   0  0  0  0  0  0  0  0  0  0  0  0
   -4.4441   10.7451    3.5561 C   0  0  0  0  0  0  0  0  0  0  0  0
   -4.6965   10.2856    4.8788 C   0  0  0  0  0  0  0  0  0  0  0  0
   -6.1345   11.8858   -1.0813 C   0  0  0  0  0  0  0  0  0  0  0  0
   -5.2458   10.3969    0.5618 C   0  0  0  0  0  0  0  0  0  0  0  0
   -5.8100   11.1648    1.5668 C   0  0  0  0  0  0  0  0  0  0  0  0
   -6.5319   12.3034    1.2524 C   0  0  0  0  0  0  0  0  0  0  0  0
   -6.6901   12.6576   -0.0754 C   0  0  0  0  0  0  0  0  0  0  0  0
   -7.6028   14.0687   -0.4618 Cl  0  0  0  0  0  0  0  0  0  0  0  0
   -6.3302   12.3093   -2.7410 Cl  0  0  0  0  0  0  0  0  0  0  0  0
   -5.4090   10.7550   -0.7641 C   0  0  0  0  0  0  0  0  0  0  0  0
   -8.1422    9.3586    5.8801 O   0  0  0  0  0  0  0  0  0  0  0  0
   -6.9092    9.5539    6.0470 C   0  0  0  0  0  0  0  0  0  0  0  0
   -6.3645    9.3479    7.1612 O   0  0  0  0  0  0  0  0  0  0  0  0
   -8.5327    9.5170    5.0432 H   0  0  0  0  0  0  0  0  0  0  0  0
    0.6522   12.3092    1.4396 C   0  0  0  0  0  0  0  0  0  0  0  0
    0.7842   13.8680    0.8698 S   0  0  0  0  0  0  0  0  0  0  0  0
    1.6002   11.2983    1.0842 N   0  0  0  0  0  0  0  0  0  0  0  0
    1.5596   10.7970    0.2378 H   0  0  0  0  0  0  0  0  0  0  0  0
    2.6159   11.0821    2.0750 C   0  0  0  0  0  0  0  0  0  0  0  0
    3.7202   10.0978    1.8776 C   0  0  0  0  0  0  0  0  0  0  0  0
    4.6658    8.3697    0.5074 C   0  0  0  0  0  0  0  0  0  0  0  0
    3.6806    9.3115    0.7386 C   0  0  0  0  0  0  0  0  0  0  0  0
    5.7003    8.2178    1.4146 C   0  0  0  0  0  0  0  0  0  0  0  0
    5.7375    8.9861    2.5697 C   0  0  0  0  0  0  0  0  0  0  0  0
    4.7471    9.9325    2.8030 C   0  0  0  0  0  0  0  0  0  0  0  0
    6.7382    7.1876    1.1724 C   0  0  0  0  0  0  0  0  0  0  0  0
    8.5044    5.7986    1.3106 C   0  0  0  0  0  0  0  0  0  0  0  0
    7.7555    6.7778    2.0418 C   0  0  0  0  0  0  0  0  0  0  0  0
    7.8628    5.7062    0.0712 C   0  0  0  0  0  0  0  0  0  0  0  0
    6.8643    6.5399    0.0497 O   0  0  0  0  0  0  0  0  0  0  0  0
    8.2056    4.8566   -1.0927 C   0  0  0  0  0  0  0  0  0  0  0  0
    9.2162    4.1043   -1.0786 O   0  0  0  0  0  0  0  0  0  0  0  0
    7.4559    4.9227   -2.1018 O   0  0  0  0  0  0  0  0  0  0  0  0
    9.7628    4.0682   -0.3184 H   0  0  0  0  0  0  0  0  0  0  0  0
 22 21  2  0  0  0
 21 20  1  0  0  0
 21  7  1  0  0  0
  7 11  1  0  0  0
  7  8  2  0  0  0
 11 10  2  0  0  0
 42 40  2  0  0  0
  8  9  1  0  0  0
 41 40  1  0  0  0
 40 38  1  0  0  0
  3  2  2  0  0  0
  3  1  1  0  0  0
 10  9  1  0  0  0
 10  1  1  0  0  0
  9 14  1  0  0  0
  2  4  1  0  0  0
  1  6  2  0  0  0
 39 38  1  0  0  0
 39 35  1  0  0  0
 38 36  2  0  0  0
 33 34  2  0  0  0
 33 32  1  0  0  0
 34 29  1  0  0  0
 14 15  2  0  0  0
 14 13  1  0  0  0
 35 32  1  0  0  0
 35 37  2  0  0  0
  4 24  1  0  0  0
  4  5  2  0  0  0
  6  5  1  0  0  0
 36 37  1  0  0  0
 32 30  2  0  0  0
 26 24  1  0  0  0
 26 28  1  0  0  0
 15 16  1  0  0  0
 29 28  1  0  0  0
 29 31  2  0  0  0
 24 25  2  0  0  0
 13 19  2  0  0  0
 30 31  1  0  0  0
 16 17  1  0  0  0
 16 12  2  0  0  0
 19 12  1  0  0  0
 12 18  1  0  0  0
 20 23  1  0  0  0
 26 27  1  0  0  0
 41 43  1  0  0  0
M  END
> <minimizedAffinity>
-8.05265

$$$$
4R4O_3HW_A_201


 43 47  0  0  0  0  0  0  0  0999 V2000
   -2.8291   11.7374   -0.1430 C   0  0  0  0  0  0  0  0  0  0  0  0
   -0.4442   11.4627   -0.1256 C   0  0  0  0  0  0  0  0  0  0  0  0
   -1.6941   11.0723   -0.5816 C   0  0  0  0  0  0  0  0  0  0  0  0
   -0.3383   12.5158    0.7710 C   0  0  0  0  0  0  0  0  0  0  0  0
   -1.4692   13.1742    1.2141 C   0  0  0  0  0  0  0  0  0  0  0  0
   -2.7132   12.7922    0.7508 C   0  0  0  0  0  0  0  0  0  0  0  0
   -5.9731   10.9154   -1.9045 C   0  0  0  0  0  0  0  0  0  0  0  0
   -6.1412   10.3933   -0.7016 N   0  0  0  0  0  0  0  0  0  0  0  0
   -5.0749   10.6138    0.0398 N   0  0  0  0  0  0  0  0  0  0  0  0
   -4.1634   11.3083   -0.6361 C   0  0  0  0  0  0  0  0  0  0  0  0
   -4.6919   11.5312   -1.9382 C   0  0  0  0  0  0  0  0  0  0  0  0
   -4.7199    9.4336    4.0441 C   0  0  0  0  0  0  0  0  0  0  0  0
   -5.5101   10.9707    2.3950 C   0  0  0  0  0  0  0  0  0  0  0  0
   -4.9509   10.1910    1.3963 C   0  0  0  0  0  0  0  0  0  0  0  0
   -4.2647    9.0326    1.7180 C   0  0  0  0  0  0  0  0  0  0  0  0
   -4.1535    8.6600    3.0455 C   0  0  0  0  0  0  0  0  0  0  0  0
   -3.3104    7.2082    3.4392 Cl  0  0  0  0  0  0  0  0  0  0  0  0
   -4.5974    8.9780    5.7023 Cl  0  0  0  0  0  0  0  0  0  0  0  0
   -5.3973   10.5920    3.7205 C   0  0  0  0  0  0  0  0  0  0  0  0
   -8.0044   11.5678   -2.9319 O   0  0  0  0  0  0  0  0  0  0  0  0
   -6.9717   10.8502   -3.0034 C   0  0  0  0  0  0  0  0  0  0  0  0
   -6.7850   10.0768   -3.9768 O   0  0  0  0  0  0  0  0  0  0  0  0
   -8.1283   12.1389   -2.1995 H   0  0  0  0  0  0  0  0  0  0  0  0
    0.9885   12.9458    1.2809 C   0  0  0  0  0  0  0  0  0  0  0  0
    1.1410   14.5262    1.7817 S   0  0  0  0  0  0  0  0  0  0  0  0
    2.1323   12.1421    0.9763 N   0  0  0  0  0  0  0  0  0  0  0  0
    2.6322   12.2170    0.1315 H   0  0  0  0  0  0  0  0  0  0  0  0
    2.4839   11.2167    2.0156 C   0  0  0  0  0  0  0  0  0  0  0  0
    3.5822   10.2197    1.8519 C   0  0  0  0  0  0  0  0  0  0  0  0
    4.5927    8.5341    0.4750 C   0  0  0  0  0  0  0  0  0  0  0  0
    3.6099    9.4848    0.6787 C   0  0  0  0  0  0  0  0  0  0  0  0
    5.5575    8.3218    1.4446 C   0  0  0  0  0  0  0  0  0  0  0  0
    5.5260    9.0381    2.6329 C   0  0  0  0  0  0  0  0  0  0  0  0
    4.5380    9.9934    2.8386 C   0  0  0  0  0  0  0  0  0  0  0  0
    6.5921    7.2822    1.2297 C   0  0  0  0  0  0  0  0  0  0  0  0
    8.3480    5.8849    1.4090 C   0  0  0  0  0  0  0  0  0  0  0  0
    7.5960    6.8784    2.1173 C   0  0  0  0  0  0  0  0  0  0  0  0
    7.7213    5.7791    0.1631 C   0  0  0  0  0  0  0  0  0  0  0  0
    6.7282    6.6183    0.1176 O   0  0  0  0  0  0  0  0  0  0  0  0
    8.0734    4.9115   -0.9846 C   0  0  0  0  0  0  0  0  0  0  0  0
    7.3676    4.8883   -2.0280 O   0  0  0  0  0  0  0  0  0  0  0  0
    9.0983    4.1888   -0.8744 O   0  0  0  0  0  0  0  0  0  0  0  0
    6.6081    5.4333   -2.0921 H   0  0  0  0  0  0  0  0  0  0  0  0
 22 21  2  0  0  0
 21 20  1  0  0  0
 21  7  1  0  0  0
  7 11  1  0  0  0
  7  8  2  0  0  0
 11 10  2  0  0  0
 42 40  2  0  0  0
  8  9  1  0  0  0
 41 40  1  0  0  0
 40 38  1  0  0  0
  3  2  2  0  0  0
  3  1  1  0  0  0
 10  9  1  0  0  0
 10  1  1  0  0  0
  9 14  1  0  0  0
  2  4  1  0  0  0
  1  6  2  0  0  0
 39 38  1  0  0  0
 39 35  1  0  0  0
 38 36  2  0  0  0
 33 34  2  0  0  0
 33 32  1  0  0  0
 34 29  1  0  0  0
 14 15  2  0  0  0
 14 13  1  0  0  0
 35 32  1  0  0  0
 35 37  2  0  0  0
  4 24  1  0  0  0
  4  5  2  0  0  0
  6  5  1  0  0  0
 36 37  1  0  0  0
 32 30  2  0  0  0
 26 24  1  0  0  0
 26 28  1  0  0  0
 15 16  1  0  0  0
 29 28  1  0  0  0
 29 31  2  0  0  0
 24 25  2  0  0  0
 13 19  2  0  0  0
 30 31  1  0  0  0
 16 17  1  0  0  0
 16 12  2  0  0  0
 19 12  1  0  0  0
 12 18  1  0  0  0
 20 23  1  0  0  0
 26 27  1  0  0  0
 41 43  1  0  0  0
M  END
> <minimizedAffinity>
-7.99109

$$$$
4R4O_3HW_A_201


 43 47  0  0  0  0  0  0  0  0999 V2000
    2.9597   11.9339   -1.9585 C   0  0  0  0  0  0  0  0  0  0  0  0
    3.1656   14.1409   -1.0364 C   0  0  0  0  0  0  0  0  0  0  0  0
    2.9437   13.3105   -2.1244 C   0  0  0  0  0  0  0  0  0  0  0  0
    3.4061   13.5872    0.2124 C   0  0  0  0  0  0  0  0  0  0  0  0
    3.4295   12.2156    0.3772 C   0  0  0  0  0  0  0  0  0  0  0  0
    3.1972   11.3890   -0.7049 C   0  0  0  0  0  0  0  0  0  0  0  0
    2.9842    9.6947   -4.8994 C   0  0  0  0  0  0  0  0  0  0  0  0
    1.6980    9.8765   -4.6537 N   0  0  0  0  0  0  0  0  0  0  0  0
    1.5444   10.6652   -3.6098 N   0  0  0  0  0  0  0  0  0  0  0  0
    2.7237   11.0539   -3.1322 C   0  0  0  0  0  0  0  0  0  0  0  0
    3.7219   10.4356   -3.9357 C   0  0  0  0  0  0  0  0  0  0  0  0
   -2.1902   11.7932   -2.0823 C   0  0  0  0  0  0  0  0  0  0  0  0
   -0.2008   10.4783   -1.9415 C   0  0  0  0  0  0  0  0  0  0  0  0
    0.2746   11.0686   -3.1006 C   0  0  0  0  0  0  0  0  0  0  0  0
   -0.4853   12.0181   -3.7619 C   0  0  0  0  0  0  0  0  0  0  0  0
   -1.7179   12.3757   -3.2458 C   0  0  0  0  0  0  0  0  0  0  0  0
   -2.6536   13.5698   -4.0656 Cl  0  0  0  0  0  0  0  0  0  0  0  0
   -3.7204   12.2346   -1.4220 Cl  0  0  0  0  0  0  0  0  0  0  0  0
   -1.4332   10.8413   -1.4292 C   0  0  0  0  0  0  0  0  0  0  0  0
    3.5659    9.3308   -7.1658 O   0  0  0  0  0  0  0  0  0  0  0  0
    3.5261    8.8557   -6.0000 C   0  0  0  0  0  0  0  0  0  0  0  0
    3.9223    7.6865   -5.7620 O   0  0  0  0  0  0  0  0  0  0  0  0
    3.2666   10.2042   -7.3262 H   0  0  0  0  0  0  0  0  0  0  0  0
    3.6559   14.4558    1.3906 C   0  0  0  0  0  0  0  0  0  0  0  0
    5.2378   14.8464    1.7326 S   0  0  0  0  0  0  0  0  0  0  0  0
    2.6204   14.5992    2.3674 N   0  0  0  0  0  0  0  0  0  0  0  0
    2.7896   14.5799    3.3370 H   0  0  0  0  0  0  0  0  0  0  0  0
    1.3120   14.7737    1.8036 C   0  0  0  0  0  0  0  0  0  0  0  0
    0.2230   13.7725    2.0012 C   0  0  0  0  0  0  0  0  0  0  0  0
   -0.3691   11.5115    2.5445 C   0  0  0  0  0  0  0  0  0  0  0  0
    0.5924   12.4881    2.3629 C   0  0  0  0  0  0  0  0  0  0  0  0
   -1.7071   11.8214    2.3717 C   0  0  0  0  0  0  0  0  0  0  0  0
   -2.0862   13.1003    1.9884 C   0  0  0  0  0  0  0  0  0  0  0  0
   -1.1201   14.0822    1.8051 C   0  0  0  0  0  0  0  0  0  0  0  0
   -2.7298   10.7621    2.5426 C   0  0  0  0  0  0  0  0  0  0  0  0
   -4.0888    8.9844    2.2956 C   0  0  0  0  0  0  0  0  0  0  0  0
   -2.9752    9.6673    1.7059 C   0  0  0  0  0  0  0  0  0  0  0  0
   -4.4050    9.7292    3.4364 C   0  0  0  0  0  0  0  0  0  0  0  0
   -3.5967   10.7457    3.5143 O   0  0  0  0  0  0  0  0  0  0  0  0
   -5.4784    9.4977    4.4305 C   0  0  0  0  0  0  0  0  0  0  0  0
   -6.5485   10.1621    4.4047 O   0  0  0  0  0  0  0  0  0  0  0  0
   -5.2770    8.6198    5.3101 O   0  0  0  0  0  0  0  0  0  0  0  0
   -6.6809   10.8116    3.7423 H   0  0  0  0  0  0  0  0  0  0  0  0
 22 21  2  0  0  0
 21 20  1  0  0  0
 21  7  1  0  0  0
  7 11  1  0  0  0
  7  8  2  0  0  0
 11 10  2  0  0  0
 42 40  2  0  0  0
  8  9  1  0  0  0
 41 40  1  0  0  0
 40 38  1  0  0  0
  3  2  2  0  0  0
  3  1  1  0  0  0
 10  9  1  0  0  0
 10  1  1  0  0  0
  9 14  1  0  0  0
  2  4  1  0  0  0
  1  6  2  0  0  0
 39 38  1  0  0  0
 39 35  1  0  0  0
 38 36  2  0  0  0
 33 34  2  0  0  0
 33 32  1  0  0  0
 34 29  1  0  0  0
 14 15  2  0  0  0
 14 13  1  0  0  0
 35 32  1  0  0  0
 35 37  2  0  0  0
  4 24  1  0  0  0
  4  5  2  0  0  0
  6  5  1  0  0  0
 36 37  1  0  0  0
 32 30  2  0  0  0
 26 24  1  0  0  0
 26 28  1  0  0  0
 15 16  1  0  0  0
 29 28  1  0  0  0
 29 31  2  0  0  0
 24 25  2  0  0  0
 13 19  2  0  0  0
 30 31  1  0  0  0
 16 17  1  0  0  0
 16 12  2  0  0  0
 19 12  1  0  0  0
 12 18  1  0  0  0
 20 23  1  0  0  0
 26 27  1  0  0  0
 41 43  1  0  0  0
M  END
> <minimizedAffinity>
-7.77549

$$$$
4R4O_3HW_A_201


 43 47  0  0  0  0  0  0  0  0999 V2000
   -0.1159   11.3169   -2.8678 C   0  0  0  0  0  0  0  0  0  0  0  0
   -1.8415   10.8152   -1.2761 C   0  0  0  0  0  0  0  0  0  0  0  0
   -0.6880   10.4473   -1.9517 C   0  0  0  0  0  0  0  0  0  0  0  0
   -2.4182   12.0520   -1.5247 C   0  0  0  0  0  0  0  0  0  0  0  0
   -1.8529   12.9161   -2.4427 C   0  0  0  0  0  0  0  0  0  0  0  0
   -0.6975   12.5535   -3.1071 C   0  0  0  0  0  0  0  0  0  0  0  0
    2.5942    9.8975   -4.9425 C   0  0  0  0  0  0  0  0  0  0  0  0
    3.1866   10.8745   -4.2774 N   0  0  0  0  0  0  0  0  0  0  0  0
    2.3185   11.4767   -3.4906 N   0  0  0  0  0  0  0  0  0  0  0  0
    1.1185   10.9106   -3.5882 C   0  0  0  0  0  0  0  0  0  0  0  0
    1.2295    9.8630   -4.5445 C   0  0  0  0  0  0  0  0  0  0  0  0
    3.2997   14.7052   -1.0072 C   0  0  0  0  0  0  0  0  0  0  0  0
    2.4508   13.8583   -3.0733 C   0  0  0  0  0  0  0  0  0  0  0  0
    2.6506   12.5625   -2.6274 C   0  0  0  0  0  0  0  0  0  0  0  0
    3.1854   12.3319   -1.3716 C   0  0  0  0  0  0  0  0  0  0  0  0
    3.5075   13.4096   -0.5664 C   0  0  0  0  0  0  0  0  0  0  0  0
    4.1595   13.1161    1.0028 Cl  0  0  0  0  0  0  0  0  0  0  0  0
    3.6880   16.0585   -0.0121 Cl  0  0  0  0  0  0  0  0  0  0  0  0
    2.7730   14.9319   -2.2630 C   0  0  0  0  0  0  0  0  0  0  0  0
    3.3419    9.3785   -7.1286 O   0  0  0  0  0  0  0  0  0  0  0  0
    3.2696    9.0112   -5.9260 C   0  0  0  0  0  0  0  0  0  0  0  0
    3.7450    7.9081   -5.5547 O   0  0  0  0  0  0  0  0  0  0  0  0
    2.9825   10.2038   -7.3888 H   0  0  0  0  0  0  0  0  0  0  0  0
   -3.6589   12.4644   -0.8206 C   0  0  0  0  0  0  0  0  0  0  0  0
   -5.0909   11.7855   -1.3308 S   0  0  0  0  0  0  0  0  0  0  0  0
   -3.6341   13.6580   -0.0321 N   0  0  0  0  0  0  0  0  0  0  0  0
   -3.9443   14.5302   -0.3673 H   0  0  0  0  0  0  0  0  0  0  0  0
   -3.1154   13.4670    1.2925 C   0  0  0  0  0  0  0  0  0  0  0  0
   -1.8641   12.6957    1.5509 C   0  0  0  0  0  0  0  0  0  0  0  0
    0.5221   12.5812    1.3256 C   0  0  0  0  0  0  0  0  0  0  0  0
   -0.6693   13.2545    1.1299 C   0  0  0  0  0  0  0  0  0  0  0  0
    0.5211   11.3469    1.9521 C   0  0  0  0  0  0  0  0  0  0  0  0
   -0.6733   10.7686    2.3586 C   0  0  0  0  0  0  0  0  0  0  0  0
   -1.8713   11.4446    2.1616 C   0  0  0  0  0  0  0  0  0  0  0  0
    1.7998   10.6197    2.1345 C   0  0  0  0  0  0  0  0  0  0  0  0
    3.6909    9.7055    2.9443 C   0  0  0  0  0  0  0  0  0  0  0  0
    2.5133   10.4291    3.3234 C   0  0  0  0  0  0  0  0  0  0  0  0
    3.5722    9.5224    1.5628 C   0  0  0  0  0  0  0  0  0  0  0  0
    2.4710   10.0832    1.1559 O   0  0  0  0  0  0  0  0  0  0  0  0
    4.5037    8.8464    0.6305 C   0  0  0  0  0  0  0  0  0  0  0  0
    5.3247    7.9819    1.0381 O   0  0  0  0  0  0  0  0  0  0  0  0
    4.4529    9.1761   -0.5834 O   0  0  0  0  0  0  0  0  0  0  0  0
    5.3480    7.7491    1.9454 H   0  0  0  0  0  0  0  0  0  0  0  0
 22 21  2  0  0  0
 21 20  1  0  0  0
 21  7  1  0  0  0
  7 11  1  0  0  0
  7  8  2  0  0  0
 11 10  2  0  0  0
 42 40  2  0  0  0
  8  9  1  0  0  0
 41 40  1  0  0  0
 40 38  1  0  0  0
  3  2  2  0  0  0
  3  1  1  0  0  0
 10  9  1  0  0  0
 10  1  1  0  0  0
  9 14  1  0  0  0
  2  4  1  0  0  0
  1  6  2  0  0  0
 39 38  1  0  0  0
 39 35  1  0  0  0
 38 36  2  0  0  0
 33 34  2  0  0  0
 33 32  1  0  0  0
 34 29  1  0  0  0
 14 15  2  0  0  0
 14 13  1  0  0  0
 35 32  1  0  0  0
 35 37  2  0  0  0
  4 24  1  0  0  0
  4  5  2  0  0  0
  6  5  1  0  0  0
 36 37  1  0  0  0
 32 30  2  0  0  0
 26 24  1  0  0  0
 26 28  1  0  0  0
 15 16  1  0  0  0
 29 28  1  0  0  0
 29 31  2  0  0  0
 24 25  2  0  0  0
 13 19  2  0  0  0
 30 31  1  0  0  0
 16 17  1  0  0  0
 16 12  2  0  0  0
 19 12  1  0  0  0
 12 18  1  0  0  0
 20 23  1  0  0  0
 26 27  1  0  0  0
 41 43  1  0  0  0
M  END
> <minimizedAffinity>
-7.54697

$$$$
4R4O_3HW_A_201


 43 47  0  0  0  0  0  0  0  0999 V2000
    0.5175   12.7201   -2.8578 C   0  0  0  0  0  0  0  0  0  0  0  0
    0.0372   11.2383   -1.0311 C   0  0  0  0  0  0  0  0  0  0  0  0
   -0.1527   11.6168   -2.3514 C   0  0  0  0  0  0  0  0  0  0  0  0
    0.8953   11.9700   -0.2235 C   0  0  0  0  0  0  0  0  0  0  0  0
    1.5579   13.0737   -0.7252 C   0  0  0  0  0  0  0  0  0  0  0  0
    1.3769   13.4436   -2.0437 C   0  0  0  0  0  0  0  0  0  0  0  0
   -0.5078   14.0077   -6.1675 C   0  0  0  0  0  0  0  0  0  0  0  0
    0.6186   13.3620   -6.4168 N   0  0  0  0  0  0  0  0  0  0  0  0
    1.1014   12.8491   -5.3036 N   0  0  0  0  0  0  0  0  0  0  0  0
    0.3038   13.1182   -4.2733 C   0  0  0  0  0  0  0  0  0  0  0  0
   -0.7772   13.8947   -4.7759 C   0  0  0  0  0  0  0  0  0  0  0  0
    4.6551   10.6374   -5.1249 C   0  0  0  0  0  0  0  0  0  0  0  0
    3.4809   12.7032   -4.8794 C   0  0  0  0  0  0  0  0  0  0  0  0
    2.2993   12.0776   -5.2401 C   0  0  0  0  0  0  0  0  0  0  0  0
    2.2917   10.7294   -5.5544 C   0  0  0  0  0  0  0  0  0  0  0  0
    3.4749   10.0153   -5.4942 C   0  0  0  0  0  0  0  0  0  0  0  0
    3.4569    8.3330   -5.8724 Cl  0  0  0  0  0  0  0  0  0  0  0  0
    6.1360    9.7590   -5.0368 Cl  0  0  0  0  0  0  0  0  0  0  0  0
    4.6605   11.9835   -4.8191 C   0  0  0  0  0  0  0  0  0  0  0  0
   -2.0689   14.0419   -7.9476 O   0  0  0  0  0  0  0  0  0  0  0  0
   -1.3224   14.7157   -7.1895 C   0  0  0  0  0  0  0  0  0  0  0  0
   -1.2484   15.9663   -7.2957 O   0  0  0  0  0  0  0  0  0  0  0  0
   -2.1125   13.1105   -7.8552 H   0  0  0  0  0  0  0  0  0  0  0  0
    1.1075   11.5898    1.1963 C   0  0  0  0  0  0  0  0  0  0  0  0
   -0.2460   11.3176    2.1267 S   0  0  0  0  0  0  0  0  0  0  0  0
    2.3864   11.8381    1.7877 N   0  0  0  0  0  0  0  0  0  0  0  0
    2.9000   12.6633    1.6311 H   0  0  0  0  0  0  0  0  0  0  0  0
    2.8517   10.7735    2.6305 C   0  0  0  0  0  0  0  0  0  0  0  0
    3.8817    9.7940    2.1756 C   0  0  0  0  0  0  0  0  0  0  0  0
    5.9797    8.7162    2.6171 C   0  0  0  0  0  0  0  0  0  0  0  0
    4.9831    9.5981    2.9915 C   0  0  0  0  0  0  0  0  0  0  0  0
    5.8719    8.0204    1.4253 C   0  0  0  0  0  0  0  0  0  0  0  0
    4.7825    8.2255    0.5904 C   0  0  0  0  0  0  0  0  0  0  0  0
    3.7807    9.1124    0.9659 C   0  0  0  0  0  0  0  0  0  0  0  0
    6.9574    7.0965    1.0187 C   0  0  0  0  0  0  0  0  0  0  0  0
    8.8683    5.9181    0.8521 C   0  0  0  0  0  0  0  0  0  0  0  0
    8.1653    6.8517    1.6818 C   0  0  0  0  0  0  0  0  0  0  0  0
    8.0138    5.6833   -0.2299 C   0  0  0  0  0  0  0  0  0  0  0  0
    6.9387    6.4009   -0.0822 O   0  0  0  0  0  0  0  0  0  0  0  0
    8.2220    4.8085   -1.4070 C   0  0  0  0  0  0  0  0  0  0  0  0
    8.9560    3.7866   -1.3410 O   0  0  0  0  0  0  0  0  0  0  0  0
    7.6473    5.1304   -2.4798 O   0  0  0  0  0  0  0  0  0  0  0  0
    9.3757    3.5625   -0.5338 H   0  0  0  0  0  0  0  0  0  0  0  0
 22 21  2  0  0  0
 21 20  1  0  0  0
 21  7  1  0  0  0
  7 11  1  0  0  0
  7  8  2  0  0  0
 11 10  2  0  0  0
 42 40  2  0  0  0
  8  9  1  0  0  0
 41 40  1  0  0  0
 40 38  1  0  0  0
  3  2  2  0  0  0
  3  1  1  0  0  0
 10  9  1  0  0  0
 10  1  1  0  0  0
  9 14  1  0  0  0
  2  4  1  0  0  0
  1  6  2  0  0  0
 39 38  1  0  0  0
 39 35  1  0  0  0
 38 36  2  0  0  0
 33 34  2  0  0  0
 33 32  1  0  0  0
 34 29  1  0  0  0
 14 15  2  0  0  0
 14 13  1  0  0  0
 35 32  1  0  0  0
 35 37  2  0  0  0
  4 24  1  0  0  0
  4  5  2  0  0  0
  6  5  1  0  0  0
 36 37  1  0  0  0
 32 30  2  0  0  0
 26 24  1  0  0  0
 26 28  1  0  0  0
 15 16  1  0  0  0
 29 28  1  0  0  0
 29 31  2  0  0  0
 24 25  2  0  0  0
 13 19  2  0  0  0
 30 31  1  0  0  0
 16 17  1  0  0  0
 16 12  2  0  0  0
 19 12  1  0  0  0
 12 18  1  0  0  0
 20 23  1  0  0  0
 26 27  1  0  0  0
 41 43  1  0  0  0
M  END
> <minimizedAffinity>
-7.36253

$$$$
4R4O_3HW_A_201


 43 47  0  0  0  0  0  0  0  0999 V2000
   -5.0825   11.5818    1.1701 C   0  0  0  0  0  0  0  0  0  0  0  0
   -5.2176   11.2883   -1.2087 C   0  0  0  0  0  0  0  0  0  0  0  0
   -4.9515   10.7736    0.0509 C   0  0  0  0  0  0  0  0  0  0  0  0
   -5.6105   12.6120   -1.3409 C   0  0  0  0  0  0  0  0  0  0  0  0
   -5.7343   13.4200   -0.2269 C   0  0  0  0  0  0  0  0  0  0  0  0
   -5.4798   12.9035    1.0287 C   0  0  0  0  0  0  0  0  0  0  0  0
   -4.9484   10.0131    4.5145 C   0  0  0  0  0  0  0  0  0  0  0  0
   -3.7045   10.4076    4.3024 N   0  0  0  0  0  0  0  0  0  0  0  0
   -3.6094   10.9889    3.1241 N   0  0  0  0  0  0  0  0  0  0  0  0
   -4.7916   11.0202    2.5146 C   0  0  0  0  0  0  0  0  0  0  0  0
   -5.7220   10.3780    3.3785 C   0  0  0  0  0  0  0  0  0  0  0  0
   -0.0252   12.5528    1.6206 C   0  0  0  0  0  0  0  0  0  0  0  0
   -1.3913   10.6815    2.2026 C   0  0  0  0  0  0  0  0  0  0  0  0
   -2.3999   11.5401    2.6070 C   0  0  0  0  0  0  0  0  0  0  0  0
   -2.2219   12.9107    2.5289 C   0  0  0  0  0  0  0  0  0  0  0  0
   -1.0306   13.4099    2.0338 C   0  0  0  0  0  0  0  0  0  0  0  0
   -0.8202   15.1180    1.9249 Cl  0  0  0  0  0  0  0  0  0  0  0  0
    1.4616   13.1596    0.9934 Cl  0  0  0  0  0  0  0  0  0  0  0  0
   -0.2031   11.1866    1.7066 C   0  0  0  0  0  0  0  0  0  0  0  0
   -4.7908    9.4851    6.8174 O   0  0  0  0  0  0  0  0  0  0  0  0
   -5.4182    9.3137    5.7389 C   0  0  0  0  0  0  0  0  0  0  0  0
   -6.4186    8.5542    5.6837 O   0  0  0  0  0  0  0  0  0  0  0  0
   -4.0471   10.0546    6.8414 H   0  0  0  0  0  0  0  0  0  0  0  0
   -5.8918   13.1885   -2.6802 C   0  0  0  0  0  0  0  0  0  0  0  0
   -7.4876   13.4179   -3.0955 S   0  0  0  0  0  0  0  0  0  0  0  0
   -4.8563   13.1643   -3.6672 N   0  0  0  0  0  0  0  0  0  0  0  0
   -4.9817   12.7892   -4.5688 H   0  0  0  0  0  0  0  0  0  0  0  0
   -3.6178   13.7373   -3.2221 C   0  0  0  0  0  0  0  0  0  0  0  0
   -2.3009   13.0908   -3.4960 C   0  0  0  0  0  0  0  0  0  0  0  0
   -0.6301   11.5252   -2.7781 C   0  0  0  0  0  0  0  0  0  0  0  0
   -1.8501   12.1471   -2.5886 C   0  0  0  0  0  0  0  0  0  0  0  0
    0.1401   11.8416   -3.8840 C   0  0  0  0  0  0  0  0  0  0  0  0
   -0.2930   12.8015   -4.7879 C   0  0  0  0  0  0  0  0  0  0  0  0
   -1.5189   13.4275   -4.5975 C   0  0  0  0  0  0  0  0  0  0  0  0
    1.4588   11.1895   -4.0659 C   0  0  0  0  0  0  0  0  0  0  0  0
    3.6138   10.5539   -3.9253 C   0  0  0  0  0  0  0  0  0  0  0  0
    2.6205   11.3839   -3.3100 C   0  0  0  0  0  0  0  0  0  0  0  0
    2.9542    9.9322   -4.9905 C   0  0  0  0  0  0  0  0  0  0  0  0
    1.7227   10.3503   -5.0261 O   0  0  0  0  0  0  0  0  0  0  0  0
    3.4894    8.9712   -5.9826 C   0  0  0  0  0  0  0  0  0  0  0  0
    3.5377    9.2557   -7.2090 O   0  0  0  0  0  0  0  0  0  0  0  0
    3.8838    7.8543   -5.5562 O   0  0  0  0  0  0  0  0  0  0  0  0
    3.2396   10.0922   -7.5080 H   0  0  0  0  0  0  0  0  0  0  0  0
 22 21  2  0  0  0
 21 20  1  0  0  0
 21  7  1  0  0  0
  7 11  1  0  0  0
  7  8  2  0  0  0
 11 10  2  0  0  0
 42 40  2  0  0  0
  8  9  1  0  0  0
 41 40  1  0  0  0
 40 38  1  0  0  0
  3  2  2  0  0  0
  3  1  1  0  0  0
 10  9  1  0  0  0
 10  1  1  0  0  0
  9 14  1  0  0  0
  2  4  1  0  0  0
  1  6  2  0  0  0
 39 38  1  0  0  0
 39 35  1  0  0  0
 38 36  2  0  0  0
 33 34  2  0  0  0
 33 32  1  0  0  0
 34 29  1  0  0  0
 14 15  2  0  0  0
 14 13  1  0  0  0
 35 32  1  0  0  0
 35 37  2  0  0  0
  4 24  1  0  0  0
  4  5  2  0  0  0
  6  5  1  0  0  0
 36 37  1  0  0  0
 32 30  2  0  0  0
 26 24  1  0  0  0
 26 28  1  0  0  0
 15 16  1  0  0  0
 29 28  1  0  0  0
 29 31  2  0  0  0
 24 25  2  0  0  0
 13 19  2  0  0  0
 30 31  1  0  0  0
 16 17  1  0  0  0
 16 12  2  0  0  0
 19 12  1  0  0  0
 12 18  1  0  0  0
 20 23  1  0  0  0
 26 27  1  0  0  0
 41 43  1  0  0  0
M  END
> <minimizedAffinity>
-7.14219

$$$$
4R4O_3HW_A_201


 43 47  0  0  0  0  0  0  0  0999 V2000
   -2.6409   11.6526   -0.3353 C   0  0  0  0  0  0  0  0  0  0  0  0
   -1.2575   11.2544   -2.2565 C   0  0  0  0  0  0  0  0  0  0  0  0
   -1.6989   10.8794   -0.9967 C   0  0  0  0  0  0  0  0  0  0  0  0
   -1.7601   12.4051   -2.8459 C   0  0  0  0  0  0  0  0  0  0  0  0
   -2.6933   13.1801   -2.1844 C   0  0  0  0  0  0  0  0  0  0  0  0
   -3.1409   12.7998   -0.9342 C   0  0  0  0  0  0  0  0  0  0  0  0
   -4.3257   10.5041    2.7479 C   0  0  0  0  0  0  0  0  0  0  0  0
   -3.0958   10.7807    3.1464 N   0  0  0  0  0  0  0  0  0  0  0  0
   -2.3751   11.2035    2.1279 N   0  0  0  0  0  0  0  0  0  0  0  0
   -3.1041   11.2425    1.0157 C   0  0  0  0  0  0  0  0  0  0  0  0
   -4.4058   10.7794    1.3551 C   0  0  0  0  0  0  0  0  0  0  0  0
    1.6259   12.4169    2.3961 C   0  0  0  0  0  0  0  0  0  0  0  0
   -0.6659   12.9077    1.9340 C   0  0  0  0  0  0  0  0  0  0  0  0
   -1.0091   11.5999    2.2333 C   0  0  0  0  0  0  0  0  0  0  0  0
   -0.0340   10.6910    2.6067 C   0  0  0  0  0  0  0  0  0  0  0  0
    1.2826   11.1076    2.6861 C   0  0  0  0  0  0  0  0  0  0  0  0
    2.4911    9.9750    3.1662 Cl  0  0  0  0  0  0  0  0  0  0  0  0
    3.2611   12.9535    2.4989 Cl  0  0  0  0  0  0  0  0  0  0  0  0
    0.6521   13.3189    2.0170 C   0  0  0  0  0  0  0  0  0  0  0  0
   -6.5895   10.3852    3.4321 O   0  0  0  0  0  0  0  0  0  0  0  0
   -5.4082    9.9963    3.6308 C   0  0  0  0  0  0  0  0  0  0  0  0
   -5.1350    9.2027    4.5669 O   0  0  0  0  0  0  0  0  0  0  0  0
   -6.7761   10.9769    2.7299 H   0  0  0  0  0  0  0  0  0  0  0  0
   -1.2957   12.8324   -4.1901 C   0  0  0  0  0  0  0  0  0  0  0  0
   -2.0231   14.1707   -4.8621 S   0  0  0  0  0  0  0  0  0  0  0  0
   -0.5555   11.9022   -4.9863 N   0  0  0  0  0  0  0  0  0  0  0  0
   -0.8964   11.0108   -5.2278 H   0  0  0  0  0  0  0  0  0  0  0  0
    0.7299   12.3883   -5.4006 C   0  0  0  0  0  0  0  0  0  0  0  0
    1.9147   11.4897   -5.5276 C   0  0  0  0  0  0  0  0  0  0  0  0
    4.1376   11.1846   -6.3782 C   0  0  0  0  0  0  0  0  0  0  0  0
    3.0157   11.9752   -6.2126 C   0  0  0  0  0  0  0  0  0  0  0  0
    4.1630    9.9053   -5.8501 C   0  0  0  0  0  0  0  0  0  0  0  0
    3.0567    9.4017   -5.1804 C   0  0  0  0  0  0  0  0  0  0  0  0
    1.9284   10.1957   -5.0142 C   0  0  0  0  0  0  0  0  0  0  0  0
    5.3596    9.0546   -6.0548 C   0  0  0  0  0  0  0  0  0  0  0  0
    6.9006    7.6131   -6.8391 C   0  0  0  0  0  0  0  0  0  0  0  0
    5.6624    8.2575   -7.1646 C   0  0  0  0  0  0  0  0  0  0  0  0
    7.2303    8.0886   -5.5658 C   0  0  0  0  0  0  0  0  0  0  0  0
    6.2977    8.9021   -5.1645 O   0  0  0  0  0  0  0  0  0  0  0  0
    8.4032    7.7572   -4.7240 C   0  0  0  0  0  0  0  0  0  0  0  0
    9.3631    8.5626   -4.5931 O   0  0  0  0  0  0  0  0  0  0  0  0
    8.4108    6.6353   -4.1529 O   0  0  0  0  0  0  0  0  0  0  0  0
    9.3399    9.3934   -5.0258 H   0  0  0  0  0  0  0  0  0  0  0  0
 22 21  2  0  0  0
 21 20  1  0  0  0
 21  7  1  0  0  0
  7 11  1  0  0  0
  7  8  2  0  0  0
 11 10  2  0  0  0
 42 40  2  0  0  0
  8  9  1  0  0  0
 41 40  1  0  0  0
 40 38  1  0  0  0
  3  2  2  0  0  0
  3  1  1  0  0  0
 10  9  1  0  0  0
 10  1  1  0  0  0
  9 14  1  0  0  0
  2  4  1  0  0  0
  1  6  2  0  0  0
 39 38  1  0  0  0
 39 35  1  0  0  0
 38 36  2  0  0  0
 33 34  2  0  0  0
 33 32  1  0  0  0
 34 29  1  0  0  0
 14 15  2  0  0  0
 14 13  1  0  0  0
 35 32  1  0  0  0
 35 37  2  0  0  0
  4 24  1  0  0  0
  4  5  2  0  0  0
  6  5  1  0  0  0
 36 37  1  0  0  0
 32 30  2  0  0  0
 26 24  1  0  0  0
 26 28  1  0  0  0
 15 16  1  0  0  0
 29 28  1  0  0  0
 29 31  2  0  0  0
 24 25  2  0  0  0
 13 19  2  0  0  0
 30 31  1  0  0  0
 16 17  1  0  0  0
 16 12  2  0  0  0
 19 12  1  0  0  0
 12 18  1  0  0  0
 20 23  1  0  0  0
 26 27  1  0  0  0
 41 43  1  0  0  0
M  END
> <minimizedAffinity>
-7.13726

$$$$
4R4O_3HW_A_201


 43 47  0  0  0  0  0  0  0  0999 V2000
   -2.0440   13.3113    0.5872 C   0  0  0  0  0  0  0  0  0  0  0  0
    0.0565   12.4693   -0.2141 C   0  0  0  0  0  0  0  0  0  0  0  0
   -1.3078   12.6491   -0.3835 C   0  0  0  0  0  0  0  0  0  0  0  0
    0.6760   12.9510    0.9297 C   0  0  0  0  0  0  0  0  0  0  0  0
   -0.0581   13.6045    1.9008 C   0  0  0  0  0  0  0  0  0  0  0  0
   -1.4152   13.7932    1.7262 C   0  0  0  0  0  0  0  0  0  0  0  0
   -5.5233   14.2527   -0.2321 C   0  0  0  0  0  0  0  0  0  0  0  0
   -5.6569   13.1509    0.4863 N   0  0  0  0  0  0  0  0  0  0  0  0
   -4.4727   12.6997    0.8460 N   0  0  0  0  0  0  0  0  0  0  0  0
   -3.5060   13.4954    0.3963 C   0  0  0  0  0  0  0  0  0  0  0  0
   -4.1346   14.5395   -0.3378 C   0  0  0  0  0  0  0  0  0  0  0  0
   -3.9084    9.2397    3.1401 C   0  0  0  0  0  0  0  0  0  0  0  0
   -3.8966   10.3547    1.0274 C   0  0  0  0  0  0  0  0  0  0  0  0
   -4.2772   11.5345    1.6449 C   0  0  0  0  0  0  0  0  0  0  0  0
   -4.4846   11.5700    3.0131 C   0  0  0  0  0  0  0  0  0  0  0  0
   -4.2977   10.4173    3.7547 C   0  0  0  0  0  0  0  0  0  0  0  0
   -4.5431   10.4711    5.4607 Cl  0  0  0  0  0  0  0  0  0  0  0  0
   -3.6631    7.7971    4.0517 Cl  0  0  0  0  0  0  0  0  0  0  0  0
   -3.7094    9.2058    1.7744 C   0  0  0  0  0  0  0  0  0  0  0  0
   -7.5296   14.4211   -1.4786 O   0  0  0  0  0  0  0  0  0  0  0  0
   -6.6512   15.0285   -0.8109 C   0  0  0  0  0  0  0  0  0  0  0  0
   -6.7096   16.2730   -0.6422 O   0  0  0  0  0  0  0  0  0  0  0  0
   -7.4713   13.4931   -1.5949 H   0  0  0  0  0  0  0  0  0  0  0  0
    2.1341   12.7621    1.1381 C   0  0  0  0  0  0  0  0  0  0  0  0
    3.1076   12.7661   -0.2125 S   0  0  0  0  0  0  0  0  0  0  0  0
    2.5832   12.2219    2.3844 N   0  0  0  0  0  0  0  0  0  0  0  0
    2.9725   12.7741    3.1005 H   0  0  0  0  0  0  0  0  0  0  0  0
    2.4142   10.8009    2.4948 C   0  0  0  0  0  0  0  0  0  0  0  0
    3.4895    9.8415    2.1067 C   0  0  0  0  0  0  0  0  0  0  0  0
    5.6625    8.9413    2.5820 C   0  0  0  0  0  0  0  0  0  0  0  0
    4.6242    9.7974    2.8989 C   0  0  0  0  0  0  0  0  0  0  0  0
    5.5635    8.1194    1.4726 C   0  0  0  0  0  0  0  0  0  0  0  0
    4.4396    8.1714    0.6601 C   0  0  0  0  0  0  0  0  0  0  0  0
    3.3959    9.0322    0.9778 C   0  0  0  0  0  0  0  0  0  0  0  0
    6.6921    7.2235    1.1248 C   0  0  0  0  0  0  0  0  0  0  0  0
    8.6412    6.0990    1.0568 C   0  0  0  0  0  0  0  0  0  0  0  0
    7.8750    7.0192    1.8445 C   0  0  0  0  0  0  0  0  0  0  0  0
    7.8439    5.8305   -0.0606 C   0  0  0  0  0  0  0  0  0  0  0  0
    6.7434    6.5183    0.0311 O   0  0  0  0  0  0  0  0  0  0  0  0
    8.1303    4.9520   -1.2183 C   0  0  0  0  0  0  0  0  0  0  0  0
    7.5291    5.0989   -2.3156 O   0  0  0  0  0  0  0  0  0  0  0  0
    8.9890    4.0449   -1.0615 O   0  0  0  0  0  0  0  0  0  0  0  0
    6.8929    5.7798   -2.4138 H   0  0  0  0  0  0  0  0  0  0  0  0
 22 21  2  0  0  0
 21 20  1  0  0  0
 21  7  1  0  0  0
  7 11  1  0  0  0
  7  8  2  0  0  0
 11 10  2  0  0  0
 42 40  2  0  0  0
  8  9  1  0  0  0
 41 40  1  0  0  0
 40 38  1  0  0  0
  3  2  2  0  0  0
  3  1  1  0  0  0
 10  9  1  0  0  0
 10  1  1  0  0  0
  9 14  1  0  0  0
  2  4  1  0  0  0
  1  6  2  0  0  0
 39 38  1  0  0  0
 39 35  1  0  0  0
 38 36  2  0  0  0
 33 34  2  0  0  0
 33 32  1  0  0  0
 34 29  1  0  0  0
 14 15  2  0  0  0
 14 13  1  0  0  0
 35 32  1  0  0  0
 35 37  2  0  0  0
  4 24  1  0  0  0
  4  5  2  0  0  0
  6  5  1  0  0  0
 36 37  1  0  0  0
 32 30  2  0  0  0
 26 24  1  0  0  0
 26 28  1  0  0  0
 15 16  1  0  0  0
 29 28  1  0  0  0
 29 31  2  0  0  0
 24 25  2  0  0  0
 13 19  2  0  0  0
 30 31  1  0  0  0
 16 17  1  0  0  0
 16 12  2  0  0  0
 19 12  1  0  0  0
 12 18  1  0  0  0
 20 23  1  0  0  0
 26 27  1  0  0  0
 41 43  1  0  0  0
M  END
> <minimizedAffinity>
-7.12053

$$$$
4R4O_3HW_A_201


 43 47  0  0  0  0  0  0  0  0999 V2000
   -0.2192   11.4628   -3.2070 C   0  0  0  0  0  0  0  0  0  0  0  0
   -2.1176   11.4812   -1.7376 C   0  0  0  0  0  0  0  0  0  0  0  0
   -0.9394   10.8911   -2.1690 C   0  0  0  0  0  0  0  0  0  0  0  0
   -2.5704   12.6398   -2.3514 C   0  0  0  0  0  0  0  0  0  0  0  0
   -1.8572   13.2060   -3.3906 C   0  0  0  0  0  0  0  0  0  0  0  0
   -0.6777   12.6239   -3.8123 C   0  0  0  0  0  0  0  0  0  0  0  0
    2.6176    9.7760   -4.8714 C   0  0  0  0  0  0  0  0  0  0  0  0
    3.1009   10.1077   -3.6864 N   0  0  0  0  0  0  0  0  0  0  0  0
    2.1791   10.7303   -2.9807 N   0  0  0  0  0  0  0  0  0  0  0  0
    1.0404   10.8199   -3.6628 C   0  0  0  0  0  0  0  0  0  0  0  0
    1.2669   10.2162   -4.9311 C   0  0  0  0  0  0  0  0  0  0  0  0
    2.8012   12.1704    0.9042 C   0  0  0  0  0  0  0  0  0  0  0  0
    2.4547   12.5663   -1.4261 C   0  0  0  0  0  0  0  0  0  0  0  0
    2.3828   11.2015   -1.6500 C   0  0  0  0  0  0  0  0  0  0  0  0
    2.5293   10.3136   -0.5981 C   0  0  0  0  0  0  0  0  0  0  0  0
    2.7383   10.8063    0.6775 C   0  0  0  0  0  0  0  0  0  0  0  0
    2.9053    9.6959    1.9862 Cl  0  0  0  0  0  0  0  0  0  0  0  0
    3.0523   12.8000    2.4894 Cl  0  0  0  0  0  0  0  0  0  0  0  0
    2.6619   13.0530   -0.1481 C   0  0  0  0  0  0  0  0  0  0  0  0
    3.8464    9.7304   -6.8951 O   0  0  0  0  0  0  0  0  0  0  0  0
    3.3829    9.0670   -5.9301 C   0  0  0  0  0  0  0  0  0  0  0  0
    3.5464    7.8223   -5.8602 O   0  0  0  0  0  0  0  0  0  0  0  0
    3.7157   10.6575   -6.9320 H   0  0  0  0  0  0  0  0  0  0  0  0
   -3.8342   13.2847   -1.9134 C   0  0  0  0  0  0  0  0  0  0  0  0
   -5.2620   12.5599   -2.3694 S   0  0  0  0  0  0  0  0  0  0  0  0
   -3.7915   14.6450   -1.4720 N   0  0  0  0  0  0  0  0  0  0  0  0
   -3.9030   15.4112   -2.0800 H   0  0  0  0  0  0  0  0  0  0  0  0
   -3.5713   14.7898   -0.0610 C   0  0  0  0  0  0  0  0  0  0  0  0
   -3.8251   13.6765    0.8999 C   0  0  0  0  0  0  0  0  0  0  0  0
   -5.4395   12.4054    2.1393 C   0  0  0  0  0  0  0  0  0  0  0  0
   -5.1408   13.4132    1.2413 C   0  0  0  0  0  0  0  0  0  0  0  0
   -4.4192   11.6514    2.6931 C   0  0  0  0  0  0  0  0  0  0  0  0
   -3.0959   11.9214    2.3738 C   0  0  0  0  0  0  0  0  0  0  0  0
   -2.7950   12.9347    1.4717 C   0  0  0  0  0  0  0  0  0  0  0  0
   -4.7460   10.5902    3.6751 C   0  0  0  0  0  0  0  0  0  0  0  0
   -4.8505    8.6883    4.8749 C   0  0  0  0  0  0  0  0  0  0  0  0
   -4.1336    9.3400    3.8188 C   0  0  0  0  0  0  0  0  0  0  0  0
   -5.8235    9.6109    5.2726 C   0  0  0  0  0  0  0  0  0  0  0  0
   -5.7201   10.6777    4.5351 O   0  0  0  0  0  0  0  0  0  0  0  0
   -6.8594    9.4760    6.3228 C   0  0  0  0  0  0  0  0  0  0  0  0
   -6.5643    9.5450    7.5456 O   0  0  0  0  0  0  0  0  0  0  0  0
   -8.0449    9.2781    5.9482 O   0  0  0  0  0  0  0  0  0  0  0  0
   -5.6763    9.6929    7.8057 H   0  0  0  0  0  0  0  0  0  0  0  0
 22 21  2  0  0  0
 21 20  1  0  0  0
 21  7  1  0  0  0
  7 11  1  0  0  0
  7  8  2  0  0  0
 11 10  2  0  0  0
 42 40  2  0  0  0
  8  9  1  0  0  0
 41 40  1  0  0  0
 40 38  1  0  0  0
  3  2  2  0  0  0
  3  1  1  0  0  0
 10  9  1  0  0  0
 10  1  1  0  0  0
  9 14  1  0  0  0
  2  4  1  0  0  0
  1  6  2  0  0  0
 39 38  1  0  0  0
 39 35  1  0  0  0
 38 36  2  0  0  0
 33 34  2  0  0  0
 33 32  1  0  0  0
 34 29  1  0  0  0
 14 15  2  0  0  0
 14 13  1  0  0  0
 35 32  1  0  0  0
 35 37  2  0  0  0
  4 24  1  0  0  0
  4  5  2  0  0  0
  6  5  1  0  0  0
 36 37  1  0  0  0
 32 30  2  0  0  0
 26 24  1  0  0  0
 26 28  1  0  0  0
 15 16  1  0  0  0
 29 28  1  0  0  0
 29 31  2  0  0  0
 24 25  2  0  0  0
 13 19  2  0  0  0
 30 31  1  0  0  0
 16 17  1  0  0  0
 16 12  2  0  0  0
 19 12  1  0  0  0
 12 18  1  0  0  0
 20 23  1  0  0  0
 26 27  1  0  0  0
 41 43  1  0  0  0
M  END
> <minimizedAffinity>
-7.09597

$$$$
4R4O_3HW_A_201


 43 47  0  0  0  0  0  0  0  0999 V2000
    1.3058   11.2930    2.1628 C   0  0  0  0  0  0  0  0  0  0  0  0
   -0.9892   10.6013    2.2968 C   0  0  0  0  0  0  0  0  0  0  0  0
    0.3619   10.2930    2.3417 C   0  0  0  0  0  0  0  0  0  0  0  0
   -1.3878   11.9102    2.0691 C   0  0  0  0  0  0  0  0  0  0  0  0
   -0.4480   12.9059    1.8835 C   0  0  0  0  0  0  0  0  0  0  0  0
    0.8978   12.6001    1.9395 C   0  0  0  0  0  0  0  0  0  0  0  0
    4.7500   10.0926    2.7630 C   0  0  0  0  0  0  0  0  0  0  0  0
    4.8628   10.8419    1.6796 N   0  0  0  0  0  0  0  0  0  0  0  0
    3.6877   11.3366    1.3480 N   0  0  0  0  0  0  0  0  0  0  0  0
    2.7508   10.9503    2.2099 C   0  0  0  0  0  0  0  0  0  0  0  0
    3.3870   10.1125    3.1678 C   0  0  0  0  0  0  0  0  0  0  0  0
    3.0722   13.8250   -1.9659 C   0  0  0  0  0  0  0  0  0  0  0  0
    2.9594   11.6720   -0.9369 C   0  0  0  0  0  0  0  0  0  0  0  0
    3.4773   12.2013    0.2334 C   0  0  0  0  0  0  0  0  0  0  0  0
    3.8043   13.5444    0.3065 C   0  0  0  0  0  0  0  0  0  0  0  0
    3.5984   14.3507   -0.7985 C   0  0  0  0  0  0  0  0  0  0  0  0
    3.9936   16.0261   -0.6969 Cl  0  0  0  0  0  0  0  0  0  0  0  0
    2.8017   14.8187   -3.3485 Cl  0  0  0  0  0  0  0  0  0  0  0  0
    2.7539   12.4836   -2.0378 C   0  0  0  0  0  0  0  0  0  0  0  0
    6.2951    9.7794    4.5299 O   0  0  0  0  0  0  0  0  0  0  0  0
    5.8742    9.3715    3.4151 C   0  0  0  0  0  0  0  0  0  0  0  0
    6.3983    8.3800    2.8468 O   0  0  0  0  0  0  0  0  0  0  0  0
    5.8933   10.5199    4.9399 H   0  0  0  0  0  0  0  0  0  0  0  0
   -2.8289   12.2631    2.0072 C   0  0  0  0  0  0  0  0  0  0  0  0
   -3.8162   11.6650    3.2069 S   0  0  0  0  0  0  0  0  0  0  0  0
   -3.3614   12.7530    0.7729 N   0  0  0  0  0  0  0  0  0  0  0  0
   -3.6508   13.6852    0.6446 H   0  0  0  0  0  0  0  0  0  0  0  0
   -3.4348   11.7603   -0.2612 C   0  0  0  0  0  0  0  0  0  0  0  0
   -2.4470   11.7041   -1.3786 C   0  0  0  0  0  0  0  0  0  0  0  0
   -0.5056   10.6435   -2.3080 C   0  0  0  0  0  0  0  0  0  0  0  0
   -1.4597   10.7357   -1.3119 C   0  0  0  0  0  0  0  0  0  0  0  0
   -0.5424   11.5180   -3.3804 C   0  0  0  0  0  0  0  0  0  0  0  0
   -1.5151   12.5058   -3.4457 C   0  0  0  0  0  0  0  0  0  0  0  0
   -2.4740   12.5994   -2.4444 C   0  0  0  0  0  0  0  0  0  0  0  0
    0.4998   11.4294   -4.4307 C   0  0  0  0  0  0  0  0  0  0  0  0
    1.8176   11.7556   -6.2265 C   0  0  0  0  0  0  0  0  0  0  0  0
    0.7350   12.3254   -5.4798 C   0  0  0  0  0  0  0  0  0  0  0  0
    2.1369   10.5726   -5.5522 C   0  0  0  0  0  0  0  0  0  0  0  0
    1.3342   10.4353   -4.5377 O   0  0  0  0  0  0  0  0  0  0  0  0
    3.1743    9.5669   -5.8785 C   0  0  0  0  0  0  0  0  0  0  0  0
    3.4046    9.2271   -7.0696 O   0  0  0  0  0  0  0  0  0  0  0  0
    3.8099    9.0551   -4.9199 O   0  0  0  0  0  0  0  0  0  0  0  0
    2.9214    9.6190   -7.7703 H   0  0  0  0  0  0  0  0  0  0  0  0
 22 21  2  0  0  0
 21 20  1  0  0  0
 21  7  1  0  0  0
  7 11  1  0  0  0
  7  8  2  0  0  0
 11 10  2  0  0  0
 42 40  2  0  0  0
  8  9  1  0  0  0
 41 40  1  0  0  0
 40 38  1  0  0  0
  3  2  2  0  0  0
  3  1  1  0  0  0
 10  9  1  0  0  0
 10  1  1  0  0  0
  9 14  1  0  0  0
  2  4  1  0  0  0
  1  6  2  0  0  0
 39 38  1  0  0  0
 39 35  1  0  0  0
 38 36  2  0  0  0
 33 34  2  0  0  0
 33 32  1  0  0  0
 34 29  1  0  0  0
 14 15  2  0  0  0
 14 13  1  0  0  0
 35 32  1  0  0  0
 35 37  2  0  0  0
  4 24  1  0  0  0
  4  5  2  0  0  0
  6  5  1  0  0  0
 36 37  1  0  0  0
 32 30  2  0  0  0
 26 24  1  0  0  0
 26 28  1  0  0  0
 15 16  1  0  0  0
 29 28  1  0  0  0
 29 31  2  0  0  0
 24 25  2  0  0  0
 13 19  2  0  0  0
 30 31  1  0  0  0
 16 17  1  0  0  0
 16 12  2  0  0  0
 19 12  1  0  0  0
 12 18  1  0  0  0
 20 23  1  0  0  0
 26 27  1  0  0  0
 41 43  1  0  0  0
M  END
> <minimizedAffinity>
-7.06003

$$$$
