5IGM_BMF_A_301
  RCSB PDB12061718103D
Coordinates from PDB:5IGM:A:301 Model:1 without hydrogens
 28 30  0  0  0  0            999 V2000
   61.9130   -4.0930   25.5870   C 0  0  0  0  0  0  0  0  0  0  0  0
   59.7230   -3.2590   25.2020   N 0  0  0  0  0  0  0  0  0  0  0  0
   58.6260   -5.7910   25.5220   C 0  0  0  0  0  0  0  0  0  0  0  0
   58.5550   -8.1630   25.9280   C 0  0  0  0  0  0  0  0  0  0  0  0
   57.3410  -11.5750   26.3330   C 0  0  0  0  0  0  0  0  0  0  0  0
   60.0050   -5.5900   25.6710   C 0  0  0  0  0  0  0  0  0  0  0  0
   57.6490   -1.1580   24.5460   C 0  0  0  0  0  0  0  0  0  0  0  0
   64.2120   -4.6730   26.0830   C 0  0  0  0  0  0  0  0  0  0  0  0
   66.0370   -3.2300   25.4520   C 0  0  0  0  0  0  0  0  0  0  0  0
   64.6600   -3.4990   25.4670   C 0  0  0  0  0  0  0  0  0  0  0  0
   63.7220   -2.6340   24.9020   C 0  0  0  0  0  0  0  0  0  0  0  0
   64.1300   -1.4980   24.3200   N 0  0  0  0  0  0  0  0  0  0  0  0
   64.1800   -1.4340   22.6640   S 0  0  0  0  0  0  0  0  0  0  0  0
   62.6510   -1.8910   21.8650   C 0  0  0  0  0  0  0  0  0  0  0  0
   64.5340   -0.0080   22.2100   O 0  0  0  0  0  0  0  0  0  0  0  0
   65.2130   -2.4780   22.2450   O 0  0  0  0  0  0  0  0  0  0  0  0
   62.3700   -2.9440   24.9370   C 0  0  0  0  0  0  0  0  0  0  0  0
   60.5300   -4.3110   25.5180   C 0  0  0  0  0  0  0  0  0  0  0  0
   58.4140   -3.5230   25.1010   N 0  0  0  0  0  0  0  0  0  0  0  0
   57.8570   -4.7240   25.2440   C 0  0  0  0  0  0  0  0  0  0  0  0
   57.9680   -6.9580   25.6810   N 0  0  0  0  0  0  0  0  0  0  0  0
   57.7420   -9.2150   26.1700   O 0  0  0  0  0  0  0  0  0  0  0  0
   58.3660  -10.4560   26.5150   C 0  0  0  0  0  0  0  0  0  0  0  0
   59.7800   -8.3290   25.9890   O 0  0  0  0  0  0  0  0  0  0  0  0
   56.5420   -4.5900   25.0150   N 0  0  0  0  0  0  0  0  0  0  0  0
   56.2980   -3.3090   24.7430   N 0  0  0  0  0  0  0  0  0  0  0  0
   57.4540   -2.6540   24.7930   C 0  0  0  0  0  0  0  0  0  0  0  0
   62.8460   -4.9860   26.1310   C 0  0  0  0  0  0  0  0  0  0  0  0
 14 13  1  0  0  0  0
 16 13  2  0  0  0  0
 13 15  2  0  0  0  0
 13 12  1  0  0  0  0
 12 11  1  0  0  0  0
  9 10  1  0  0  0  0
 11 10  2  0  0  0  0
 11 17  1  0  0  0  0
 10  8  1  0  0  0  0
 17  1  2  0  0  0  0
  8 28  2  0  0  0  0
  1 28  1  0  0  0  0
  1 18  1  0  0  0  0
 24  4  2  0  0  0  0
 23  5  1  0  0  0  0
 23 22  1  0  0  0  0
  6 18  1  0  0  0  0
  6  3  2  0  0  0  0
 18  2  2  0  0  0  0
  4 22  1  0  0  0  0
  4 21  1  0  0  0  0
  3 21  1  0  0  0  0
  3 20  1  0  0  0  0
  2 19  1  0  0  0  0
 19 20  1  0  0  0  0
 19 27  1  0  0  0  0
 20 25  2  0  0  0  0
 27  7  1  0  0  0  0
 27 26  2  0  0  0  0
 25 26  1  0  0  0  0
A    1
C10
A    2
N12
A    3
C15
A    4
C17
A    5
C20
A    6
C22
A    7
C26
A    8
C28
A    9
C01
A   10
C02
A   11
C03
A   12
N04
A   13
S05
A   14
C06
A   15
O07
A   16
O08
A   17
C09
A   18
C11
A   19
N13
A   20
C14
A   21
N16
A   22
O18
A   23
C19
A   24
O21
A   25
N23
A   26
N24
A   27
C25
A   28
C27
M  END
>  <InstanceId>
5IGM_BMF_A_301

>  <ChemCompId>
BMF

>  <PdbId>
5IGM

>  <ChainId>
A

>  <ResidueNumber>
301

>  <InsertionCode>


>  <Model>
1

>  <AltIds>


>  <MissingHeavyAtoms>
0

>  <ObservedFormula>
C17 N6 O4 S

>  <Name>
Bromosporine

>  <SystematicName>
ethyl N-[3-methyl-6-[4-methyl-3-(methylsulfonylamino)phenyl]-[1,2,4]triazolo[4,3-b]pyridazin-8-yl]carbamate

>  <Synonyms>
ethyl (3-methyl-6-{4-methyl-3-[(methylsulfonyl)amino]phenyl}[1,2,4]triazolo[4,3-b]pyridazin-8-yl)carbamate

>  <Type>
NON-POLYMER

>  <Formula>
C17 H20 N6 O4 S

>  <MolecularWeight>
404.444

>  <ModifiedDate>
2015-07-02

>  <Parent>


>  <OneLetterCode>


>  <SubcomponentList>


>  <AmbiguousFlag>
N

>  <InChI>
InChI=1S/C17H20N6O4S/c1-5-27-17(24)18-15-9-14(21-23-11(3)19-20-16(15)23)12-7-6-10(2)13(8-12)22-28(4,25)26/h6-9,22H,5H2,1-4H3,(H,18,24)

>  <InChIKey>
UYBRROMMFMPJAN-UHFFFAOYSA-N

>  <SMILES>
CCOC(=O)Nc1cc(nn2c1nnc2C)c3ccc(c(c3)NS(=O)(=O)C)C

$$$$
