4IBF_1D5_A_401


 33 36  0  0  0  0  0  0  0  0999 V2000
    1.7954   19.7830    0.3010 N   0  0  0  0  0  0  0  0  0  0  0  0
    2.7293   20.6900    0.6128 C   0  0  0  0  0  0  0  0  0  0  0  0
    2.1924   18.5550    0.6319 C   0  0  0  0  0  0  0  0  0  0  0  0
    1.4355   17.4178    0.4782 O   0  0  0  0  0  0  0  0  0  0  0  0
    3.4931   18.6580    1.1343 C   0  0  0  0  0  0  0  0  0  0  0  0
    4.2730   17.6089    1.5615 O   0  0  0  0  0  0  0  0  0  0  0  0
    3.8480   20.0187    1.0845 C   0  0  0  0  0  0  0  0  0  0  0  0
    3.9313   16.7365    1.5512 H   0  0  0  0  0  0  0  0  0  0  0  0
   -1.7203   20.7847   -1.7818 C   0  0  0  0  0  0  0  0  0  0  0  0
   -0.4778   21.0573   -2.3399 C   0  0  0  0  0  0  0  0  0  0  0  0
    0.6795   20.7232   -1.6517 C   0  0  0  0  0  0  0  0  0  0  0  0
   -1.8089   20.1757   -0.5380 C   0  0  0  0  0  0  0  0  0  0  0  0
   -0.6498   19.8469    0.1520 C   0  0  0  0  0  0  0  0  0  0  0  0
    0.5939   20.1131   -0.4069 C   0  0  0  0  0  0  0  0  0  0  0  0
   -2.9658   21.1373   -2.5210 C   0  0  0  0  0  0  0  0  0  0  0  0
   -4.6000   19.4104   -2.4875 O   0  0  0  0  0  0  0  0  0  0  0  0
   -3.7085   20.0047   -3.1457 C   0  0  0  0  0  0  0  0  0  0  0  0
   -3.4404   19.6335   -4.3195 O   0  0  0  0  0  0  0  0  0  0  0  0
   -4.7999   19.6859   -1.6145 H   0  0  0  0  0  0  0  0  0  0  0  0
    2.2430   21.7710    1.4967 C   0  0  0  0  0  0  0  0  0  0  0  0
    1.6707   21.4779    3.0443 S   0  0  0  0  0  0  0  0  0  0  0  0
    1.2646   23.0428    3.4945 C   0  0  0  0  0  0  0  0  0  0  0  0
    1.5960   23.8287    2.3799 C   0  0  0  0  0  0  0  0  0  0  0  0
    1.3459   25.7419    2.3798 Br  0  0  0  0  0  0  0  0  0  0  0  0
    2.1398   23.1401    1.2594 C   0  0  0  0  0  0  0  0  0  0  0  0
    5.0527   20.7492    1.6104 C   0  0  0  0  0  0  0  0  0  0  0  0
    5.4492   21.7532    1.0319 O   0  0  0  0  0  0  0  0  0  0  0  0
    5.8146   20.3345    2.8184 C   0  0  0  0  0  0  0  0  0  0  0  0
    7.4718   20.5701    3.0248 S   0  0  0  0  0  0  0  0  0  0  0  0
    7.6298   19.8883    4.5572 C   0  0  0  0  0  0  0  0  0  0  0  0
    9.0995   19.7531    5.4519 Cl  0  0  0  0  0  0  0  0  0  0  0  0
    6.3505   19.4591    4.9623 C   0  0  0  0  0  0  0  0  0  0  0  0
    5.3359   19.7163    3.9896 C   0  0  0  0  0  0  0  0  0  0  0  0
 18 17  2  0  0  0
 17 16  1  0  0  0
 17 15  1  0  0  0
 15  9  1  0  0  0
 10  9  2  0  0  0
 10 11  1  0  0  0
  9 12  1  0  0  0
 11 14  2  0  0  0
 12 13  2  0  0  0
 14 13  1  0  0  0
 14  1  1  0  0  0
  1  2  1  0  0  0
  1  3  1  0  0  0
  4  3  2  0  0  0
  2  7  1  0  0  0
  2 20  1  0  0  0
  3  5  1  0  0  0
  7  5  2  0  0  0
  7 26  1  0  0  0
  5  6  1  0  0  0
 25 20  2  0  0  0
 25 23  1  0  0  0
 20 21  1  0  0  0
 27 26  2  0  0  0
 26 28  1  0  0  0
 23 24  1  0  0  0
 23 22  2  0  0  0
 28 29  1  0  0  0
 28 33  2  0  0  0
 29 30  1  0  0  0
 21 22  1  0  0  0
 33 32  1  0  0  0
 30 32  2  0  0  0
 30 31  1  0  0  0
 16 19  1  0  0  0
  6  8  1  0  0  0
M  END
> <minimizedAffinity>
-6.58086

$$$$
4IBF_1D5_A_401


 33 36  0  0  0  0  0  0  0  0999 V2000
    3.1665   19.4986    1.3287 N   0  0  0  0  0  0  0  0  0  0  0  0
    1.9290   19.9847    1.4853 C   0  0  0  0  0  0  0  0  0  0  0  0
    3.2450   18.7327    0.2415 C   0  0  0  0  0  0  0  0  0  0  0  0
    4.3939   18.1280   -0.2107 O   0  0  0  0  0  0  0  0  0  0  0  0
    1.9636   18.6626   -0.3134 C   0  0  0  0  0  0  0  0  0  0  0  0
    1.6126   17.9442   -1.4323 O   0  0  0  0  0  0  0  0  0  0  0  0
    1.1168   19.4320    0.5058 C   0  0  0  0  0  0  0  0  0  0  0  0
    2.2643   17.4645   -1.9046 H   0  0  0  0  0  0  0  0  0  0  0  0
    6.2519   20.0764    4.1301 C   0  0  0  0  0  0  0  0  0  0  0  0
    6.2414   20.8014    2.9453 C   0  0  0  0  0  0  0  0  0  0  0  0
    5.2211   20.6105    2.0249 C   0  0  0  0  0  0  0  0  0  0  0  0
    5.2427   19.1626    4.3988 C   0  0  0  0  0  0  0  0  0  0  0  0
    4.2252   18.9686    3.4743 C   0  0  0  0  0  0  0  0  0  0  0  0
    4.2094   19.6970    2.2914 C   0  0  0  0  0  0  0  0  0  0  0  0
    7.3437   20.2831    5.1237 C   0  0  0  0  0  0  0  0  0  0  0  0
    8.8249   18.4232    5.0990 O   0  0  0  0  0  0  0  0  0  0  0  0
    8.6515   19.6358    4.8151 C   0  0  0  0  0  0  0  0  0  0  0  0
    9.5839   20.2974    4.2854 O   0  0  0  0  0  0  0  0  0  0  0  0
    8.1320   17.9306    5.4930 H   0  0  0  0  0  0  0  0  0  0  0  0
    1.8713   21.4596    1.5716 C   0  0  0  0  0  0  0  0  0  0  0  0
    2.4530   22.4548    0.3551 S   0  0  0  0  0  0  0  0  0  0  0  0
    2.1327   23.9528    1.0406 C   0  0  0  0  0  0  0  0  0  0  0  0
    1.5409   23.6561    2.2782 C   0  0  0  0  0  0  0  0  0  0  0  0
    0.9484   25.0474    3.4766 Br  0  0  0  0  0  0  0  0  0  0  0  0
    1.3881   22.2764    2.5919 C   0  0  0  0  0  0  0  0  0  0  0  0
   -0.3215   19.8386    0.3404 C   0  0  0  0  0  0  0  0  0  0  0  0
   -1.0491   19.8948    1.3240 O   0  0  0  0  0  0  0  0  0  0  0  0
   -0.9402   20.1940   -0.9645 C   0  0  0  0  0  0  0  0  0  0  0  0
   -2.1282   19.2775   -1.7345 S   0  0  0  0  0  0  0  0  0  0  0  0
   -2.3447   20.2463   -3.0956 C   0  0  0  0  0  0  0  0  0  0  0  0
   -3.4376   19.9290   -4.3932 Cl  0  0  0  0  0  0  0  0  0  0  0  0
   -1.4773   21.3494   -2.9710 C   0  0  0  0  0  0  0  0  0  0  0  0
   -0.6975   21.3203   -1.7740 C   0  0  0  0  0  0  0  0  0  0  0  0
 18 17  2  0  0  0
 17 16  1  0  0  0
 17 15  1  0  0  0
 15  9  1  0  0  0
 10  9  2  0  0  0
 10 11  1  0  0  0
  9 12  1  0  0  0
 11 14  2  0  0  0
 12 13  2  0  0  0
 14 13  1  0  0  0
 14  1  1  0  0  0
  1  2  1  0  0  0
  1  3  1  0  0  0
  4  3  2  0  0  0
  2  7  1  0  0  0
  2 20  1  0  0  0
  3  5  1  0  0  0
  7  5  2  0  0  0
  7 26  1  0  0  0
  5  6  1  0  0  0
 25 20  2  0  0  0
 25 23  1  0  0  0
 20 21  1  0  0  0
 27 26  2  0  0  0
 26 28  1  0  0  0
 23 24  1  0  0  0
 23 22  2  0  0  0
 28 29  1  0  0  0
 28 33  2  0  0  0
 29 30  1  0  0  0
 21 22  1  0  0  0
 33 32  1  0  0  0
 30 32  2  0  0  0
 30 31  1  0  0  0
 16 19  1  0  0  0
  6  8  1  0  0  0
M  END
> <minimizedAffinity>
-6.45331

$$$$
4IBF_1D5_A_401


 33 36  0  0  0  0  0  0  0  0999 V2000
    1.1506   19.3078    0.8689 N   0  0  0  0  0  0  0  0  0  0  0  0
    2.2513   19.7917    1.4572 C   0  0  0  0  0  0  0  0  0  0  0  0
    0.5755   18.3740    1.6253 C   0  0  0  0  0  0  0  0  0  0  0  0
   -0.5944   17.7228    1.3135 O   0  0  0  0  0  0  0  0  0  0  0  0
    1.3853   18.1910    2.7503 C   0  0  0  0  0  0  0  0  0  0  0  0
    1.1566   17.2914    3.7650 O   0  0  0  0  0  0  0  0  0  0  0  0
    2.4759   19.0706    2.6209 C   0  0  0  0  0  0  0  0  0  0  0  0
    0.3909   16.7515    3.7487 H   0  0  0  0  0  0  0  0  0  0  0  0
   -0.0700   20.3980   -3.0072 C   0  0  0  0  0  0  0  0  0  0  0  0
   -0.6375   21.0134   -1.8988 C   0  0  0  0  0  0  0  0  0  0  0  0
   -0.2309   20.6537   -0.6221 C   0  0  0  0  0  0  0  0  0  0  0  0
    0.9060   19.4252   -2.8427 C   0  0  0  0  0  0  0  0  0  0  0  0
    1.3080   19.0623   -1.5643 C   0  0  0  0  0  0  0  0  0  0  0  0
    0.7461   19.6808   -0.4544 C   0  0  0  0  0  0  0  0  0  0  0  0
   -0.5006   20.7862   -4.3804 C   0  0  0  0  0  0  0  0  0  0  0  0
    0.6907   20.2767   -6.3741 O   0  0  0  0  0  0  0  0  0  0  0  0
    0.5868   21.0289   -5.3720 C   0  0  0  0  0  0  0  0  0  0  0  0
    1.4061   21.9716   -5.2054 O   0  0  0  0  0  0  0  0  0  0  0  0
    0.0819   19.5754   -6.4987 H   0  0  0  0  0  0  0  0  0  0  0  0
    2.2390   21.2593    1.6362 C   0  0  0  0  0  0  0  0  0  0  0  0
    3.2779   22.2756    0.8018 S   0  0  0  0  0  0  0  0  0  0  0  0
    2.8015   23.7518    1.4425 C   0  0  0  0  0  0  0  0  0  0  0  0
    1.7801   23.4304    2.3497 C   0  0  0  0  0  0  0  0  0  0  0  0
    0.8562   24.7916    3.3579 Br  0  0  0  0  0  0  0  0  0  0  0  0
    1.4539   22.0505    2.4724 C   0  0  0  0  0  0  0  0  0  0  0  0
    3.5869   19.4194    3.5725 C   0  0  0  0  0  0  0  0  0  0  0  0
    3.3686   19.4264    4.7776 O   0  0  0  0  0  0  0  0  0  0  0  0
    4.9707   19.7588    3.1464 C   0  0  0  0  0  0  0  0  0  0  0  0
    5.7900   18.9993    1.8830 S   0  0  0  0  0  0  0  0  0  0  0  0
    7.2329   19.8646    1.9681 C   0  0  0  0  0  0  0  0  0  0  0  0
    8.6093   19.6284    0.9538 Cl  0  0  0  0  0  0  0  0  0  0  0  0
    7.1005   20.8052    3.0085 C   0  0  0  0  0  0  0  0  0  0  0  0
    5.8309   20.7477    3.6616 C   0  0  0  0  0  0  0  0  0  0  0  0
 18 17  2  0  0  0
 17 16  1  0  0  0
 17 15  1  0  0  0
 15  9  1  0  0  0
 10  9  2  0  0  0
 10 11  1  0  0  0
  9 12  1  0  0  0
 11 14  2  0  0  0
 12 13  2  0  0  0
 14 13  1  0  0  0
 14  1  1  0  0  0
  1  2  1  0  0  0
  1  3  1  0  0  0
  4  3  2  0  0  0
  2  7  1  0  0  0
  2 20  1  0  0  0
  3  5  1  0  0  0
  7  5  2  0  0  0
  7 26  1  0  0  0
  5  6  1  0  0  0
 25 20  2  0  0  0
 25 23  1  0  0  0
 20 21  1  0  0  0
 27 26  2  0  0  0
 26 28  1  0  0  0
 23 24  1  0  0  0
 23 22  2  0  0  0
 28 29  1  0  0  0
 28 33  2  0  0  0
 29 30  1  0  0  0
 21 22  1  0  0  0
 33 32  1  0  0  0
 30 32  2  0  0  0
 30 31  1  0  0  0
 16 19  1  0  0  0
  6  8  1  0  0  0
M  END
> <minimizedAffinity>
-6.30999

$$$$
4IBF_1D5_A_401


 33 36  0  0  0  0  0  0  0  0999 V2000
    2.1165   20.4533    1.2369 N   0  0  0  0  0  0  0  0  0  0  0  0
    1.2344   19.4835    0.9662 C   0  0  0  0  0  0  0  0  0  0  0  0
    3.3555   20.0719    0.9299 C   0  0  0  0  0  0  0  0  0  0  0  0
    4.4729   20.8634    1.0519 O   0  0  0  0  0  0  0  0  0  0  0  0
    3.2872   18.7467    0.4893 C   0  0  0  0  0  0  0  0  0  0  0  0
    4.3574   17.9739    0.1036 O   0  0  0  0  0  0  0  0  0  0  0  0
    1.9355   18.3608    0.5507 C   0  0  0  0  0  0  0  0  0  0  0  0
    5.2210   18.3374    0.1010 H   0  0  0  0  0  0  0  0  0  0  0  0
    1.0818   24.0619    3.1368 C   0  0  0  0  0  0  0  0  0  0  0  0
    1.6677   24.0802    1.8774 C   0  0  0  0  0  0  0  0  0  0  0  0
    2.0051   22.8885    1.2525 C   0  0  0  0  0  0  0  0  0  0  0  0
    0.8295   22.8543    3.7723 C   0  0  0  0  0  0  0  0  0  0  0  0
    1.1727   21.6626    3.1480 C   0  0  0  0  0  0  0  0  0  0  0  0
    1.7532   21.6783    1.8859 C   0  0  0  0  0  0  0  0  0  0  0  0
    0.7130   25.3404    3.8086 C   0  0  0  0  0  0  0  0  0  0  0  0
   -0.1457   25.1410    6.0170 O   0  0  0  0  0  0  0  0  0  0  0  0
   -0.4049   25.2726    4.7937 C   0  0  0  0  0  0  0  0  0  0  0  0
   -1.6028   25.3337    4.4075 O   0  0  0  0  0  0  0  0  0  0  0  0
    0.7448   25.0955    6.3049 H   0  0  0  0  0  0  0  0  0  0  0  0
    0.1461   19.9003    0.0563 C   0  0  0  0  0  0  0  0  0  0  0  0
   -1.4581   19.5010    0.3310 S   0  0  0  0  0  0  0  0  0  0  0  0
   -2.1599   20.2150   -1.0159 C   0  0  0  0  0  0  0  0  0  0  0  0
   -1.0857   20.7939   -1.7093 C   0  0  0  0  0  0  0  0  0  0  0  0
   -1.3508   21.7779   -3.3477 Br  0  0  0  0  0  0  0  0  0  0  0  0
    0.2038   20.6288   -1.1301 C   0  0  0  0  0  0  0  0  0  0  0  0
    1.2376   17.1147    0.0797 C   0  0  0  0  0  0  0  0  0  0  0  0
    0.6331   16.4202    0.8874 O   0  0  0  0  0  0  0  0  0  0  0  0
    1.2214   16.6550   -1.3346 C   0  0  0  0  0  0  0  0  0  0  0  0
   -0.0520   16.9237   -2.4073 S   0  0  0  0  0  0  0  0  0  0  0  0
    0.6005   16.1632   -3.7615 C   0  0  0  0  0  0  0  0  0  0  0  0
   -0.1655   16.0188   -5.3014 Cl  0  0  0  0  0  0  0  0  0  0  0  0
    1.8730   15.6778   -3.4010 C   0  0  0  0  0  0  0  0  0  0  0  0
    2.2200   15.9605   -2.0440 C   0  0  0  0  0  0  0  0  0  0  0  0
 18 17  2  0  0  0
 17 16  1  0  0  0
 17 15  1  0  0  0
 15  9  1  0  0  0
 10  9  2  0  0  0
 10 11  1  0  0  0
  9 12  1  0  0  0
 11 14  2  0  0  0
 12 13  2  0  0  0
 14 13  1  0  0  0
 14  1  1  0  0  0
  1  2  1  0  0  0
  1  3  1  0  0  0
  4  3  2  0  0  0
  2  7  1  0  0  0
  2 20  1  0  0  0
  3  5  1  0  0  0
  7  5  2  0  0  0
  7 26  1  0  0  0
  5  6  1  0  0  0
 25 20  2  0  0  0
 25 23  1  0  0  0
 20 21  1  0  0  0
 27 26  2  0  0  0
 26 28  1  0  0  0
 23 24  1  0  0  0
 23 22  2  0  0  0
 28 29  1  0  0  0
 28 33  2  0  0  0
 29 30  1  0  0  0
 21 22  1  0  0  0
 33 32  1  0  0  0
 30 32  2  0  0  0
 30 31  1  0  0  0
 16 19  1  0  0  0
  6  8  1  0  0  0
M  END
> <minimizedAffinity>
-6.06576

$$$$
4IBF_1D5_A_401


 33 36  0  0  0  0  0  0  0  0999 V2000
    1.5264   19.8976    0.0097 N   0  0  0  0  0  0  0  0  0  0  0  0
    2.2483   20.8020    0.6827 C   0  0  0  0  0  0  0  0  0  0  0  0
    2.2077   18.7636   -0.1480 C   0  0  0  0  0  0  0  0  0  0  0  0
    1.7187   17.6331   -0.7584 O   0  0  0  0  0  0  0  0  0  0  0  0
    3.4783   18.9601    0.4015 C   0  0  0  0  0  0  0  0  0  0  0  0
    4.4973   18.0367    0.4157 O   0  0  0  0  0  0  0  0  0  0  0  0
    3.5144   20.2767    0.8968 C   0  0  0  0  0  0  0  0  0  0  0  0
    4.3606   17.1827    0.0552 H   0  0  0  0  0  0  0  0  0  0  0  0
   -2.2462   20.7228   -1.6601 C   0  0  0  0  0  0  0  0  0  0  0  0
   -2.1261   19.7941   -0.6342 C   0  0  0  0  0  0  0  0  0  0  0  0
   -0.8811   19.5263   -0.0838 C   0  0  0  0  0  0  0  0  0  0  0  0
   -1.1245   21.3873   -2.1356 C   0  0  0  0  0  0  0  0  0  0  0  0
    0.1216   21.1142   -1.5877 C   0  0  0  0  0  0  0  0  0  0  0  0
    0.2432   20.1902   -0.5574 C   0  0  0  0  0  0  0  0  0  0  0  0
   -3.5833   21.0170   -2.2498 C   0  0  0  0  0  0  0  0  0  0  0  0
   -5.4085   19.5905   -1.7136 O   0  0  0  0  0  0  0  0  0  0  0  0
   -4.7681   20.6344   -1.4286 C   0  0  0  0  0  0  0  0  0  0  0  0
   -5.1370   21.3549   -0.4629 O   0  0  0  0  0  0  0  0  0  0  0  0
   -5.1347   19.0543   -2.4316 H   0  0  0  0  0  0  0  0  0  0  0  0
    1.5822   21.3156    1.8987 C   0  0  0  0  0  0  0  0  0  0  0  0
    1.0346   20.3054    3.1185 S   0  0  0  0  0  0  0  0  0  0  0  0
    0.3797   21.4491    4.1576 C   0  0  0  0  0  0  0  0  0  0  0  0
    0.6041   22.6778    3.5175 C   0  0  0  0  0  0  0  0  0  0  0  0
    0.0569   24.3484    4.3129 Br  0  0  0  0  0  0  0  0  0  0  0  0
    1.2697   22.6243    2.2608 C   0  0  0  0  0  0  0  0  0  0  0  0
    4.5516   21.0029    1.7080 C   0  0  0  0  0  0  0  0  0  0  0  0
    4.8567   22.1506    1.4084 O   0  0  0  0  0  0  0  0  0  0  0  0
    5.2481   20.4162    2.8838 C   0  0  0  0  0  0  0  0  0  0  0  0
    4.6373   19.1513    3.8172 S   0  0  0  0  0  0  0  0  0  0  0  0
    5.9073   19.0191    4.9163 C   0  0  0  0  0  0  0  0  0  0  0  0
    5.9903   17.9009    6.2284 Cl  0  0  0  0  0  0  0  0  0  0  0  0
    6.8743   19.9803    4.5617 C   0  0  0  0  0  0  0  0  0  0  0  0
    6.5052   20.7560    3.4199 C   0  0  0  0  0  0  0  0  0  0  0  0
 18 17  2  0  0  0
 17 16  1  0  0  0
 17 15  1  0  0  0
 15  9  1  0  0  0
 10  9  2  0  0  0
 10 11  1  0  0  0
  9 12  1  0  0  0
 11 14  2  0  0  0
 12 13  2  0  0  0
 14 13  1  0  0  0
 14  1  1  0  0  0
  1  2  1  0  0  0
  1  3  1  0  0  0
  4  3  2  0  0  0
  2  7  1  0  0  0
  2 20  1  0  0  0
  3  5  1  0  0  0
  7  5  2  0  0  0
  7 26  1  0  0  0
  5  6  1  0  0  0
 25 20  2  0  0  0
 25 23  1  0  0  0
 20 21  1  0  0  0
 27 26  2  0  0  0
 26 28  1  0  0  0
 23 24  1  0  0  0
 23 22  2  0  0  0
 28 29  1  0  0  0
 28 33  2  0  0  0
 29 30  1  0  0  0
 21 22  1  0  0  0
 33 32  1  0  0  0
 30 32  2  0  0  0
 30 31  1  0  0  0
 16 19  1  0  0  0
  6  8  1  0  0  0
M  END
> <minimizedAffinity>
-6.04541

$$$$
4IBF_1D5_A_401


 33 36  0  0  0  0  0  0  0  0999 V2000
    2.6468   21.1896    1.8701 N   0  0  0  0  0  0  0  0  0  0  0  0
    2.0069   20.1011    1.4253 C   0  0  0  0  0  0  0  0  0  0  0  0
    3.9675   21.0260    1.8088 C   0  0  0  0  0  0  0  0  0  0  0  0
    4.8932   21.9825    2.1527 O   0  0  0  0  0  0  0  0  0  0  0  0
    4.2065   19.7257    1.3541 C   0  0  0  0  0  0  0  0  0  0  0  0
    5.4442   19.1520    1.1798 O   0  0  0  0  0  0  0  0  0  0  0  0
    2.9515   19.1239    1.1470 C   0  0  0  0  0  0  0  0  0  0  0  0
    6.2195   19.6503    1.3487 H   0  0  0  0  0  0  0  0  0  0  0  0
    0.6219   24.4696    3.5564 C   0  0  0  0  0  0  0  0  0  0  0  0
    0.5586   23.2230    4.1659 C   0  0  0  0  0  0  0  0  0  0  0  0
    1.2297   22.1441    3.6089 C   0  0  0  0  0  0  0  0  0  0  0  0
    1.3574   24.6413    2.3921 C   0  0  0  0  0  0  0  0  0  0  0  0
    2.0240   23.5594    1.8328 C   0  0  0  0  0  0  0  0  0  0  0  0
    1.9670   22.3131    2.4441 C   0  0  0  0  0  0  0  0  0  0  0  0
   -0.0934   25.6321    4.1553 C   0  0  0  0  0  0  0  0  0  0  0  0
   -0.5674   25.3871    6.4724 O   0  0  0  0  0  0  0  0  0  0  0  0
   -1.0067   25.3320    5.2956 C   0  0  0  0  0  0  0  0  0  0  0  0
   -2.2076   25.0129    5.0868 O   0  0  0  0  0  0  0  0  0  0  0  0
    0.3256   25.6244    6.6285 H   0  0  0  0  0  0  0  0  0  0  0  0
    1.0595   20.3719    0.3229 C   0  0  0  0  0  0  0  0  0  0  0  0
   -0.5282   19.8361    0.3499 S   0  0  0  0  0  0  0  0  0  0  0  0
   -1.0466   20.4190   -1.1360 C   0  0  0  0  0  0  0  0  0  0  0  0
    0.0774   21.0644   -1.6744 C   0  0  0  0  0  0  0  0  0  0  0  0
    0.0147   21.9436   -3.3908 Br  0  0  0  0  0  0  0  0  0  0  0  0
    1.2577   21.0479   -0.8793 C   0  0  0  0  0  0  0  0  0  0  0  0
    2.5742   17.8009    0.5399 C   0  0  0  0  0  0  0  0  0  0  0  0
    1.6862   17.1326    1.0544 O   0  0  0  0  0  0  0  0  0  0  0  0
    3.2130   17.2321   -0.6768 C   0  0  0  0  0  0  0  0  0  0  0  0
    4.2386   15.8933   -0.6749 S   0  0  0  0  0  0  0  0  0  0  0  0
    4.5593   15.8248   -2.3273 C   0  0  0  0  0  0  0  0  0  0  0  0
    5.5824   14.6741   -3.1070 Cl  0  0  0  0  0  0  0  0  0  0  0  0
    3.8406   16.8699   -2.9406 C   0  0  0  0  0  0  0  0  0  0  0  0
    3.0830   17.6514   -2.0149 C   0  0  0  0  0  0  0  0  0  0  0  0
 18 17  2  0  0  0
 17 16  1  0  0  0
 17 15  1  0  0  0
 15  9  1  0  0  0
 10  9  2  0  0  0
 10 11  1  0  0  0
  9 12  1  0  0  0
 11 14  2  0  0  0
 12 13  2  0  0  0
 14 13  1  0  0  0
 14  1  1  0  0  0
  1  2  1  0  0  0
  1  3  1  0  0  0
  4  3  2  0  0  0
  2  7  1  0  0  0
  2 20  1  0  0  0
  3  5  1  0  0  0
  7  5  2  0  0  0
  7 26  1  0  0  0
  5  6  1  0  0  0
 25 20  2  0  0  0
 25 23  1  0  0  0
 20 21  1  0  0  0
 27 26  2  0  0  0
 26 28  1  0  0  0
 23 24  1  0  0  0
 23 22  2  0  0  0
 28 29  1  0  0  0
 28 33  2  0  0  0
 29 30  1  0  0  0
 21 22  1  0  0  0
 33 32  1  0  0  0
 30 32  2  0  0  0
 30 31  1  0  0  0
 16 19  1  0  0  0
  6  8  1  0  0  0
M  END
> <minimizedAffinity>
-6.02354

$$$$
4IBF_1D5_A_401


 33 36  0  0  0  0  0  0  0  0999 V2000
    2.2243   22.5870    2.7275 N   0  0  0  0  0  0  0  0  0  0  0  0
    2.3026   21.2998    3.0867 C   0  0  0  0  0  0  0  0  0  0  0  0
    3.1923   22.9032    1.8685 C   0  0  0  0  0  0  0  0  0  0  0  0
    3.3498   24.1374    1.2837 O   0  0  0  0  0  0  0  0  0  0  0  0
    3.9915   21.7680    1.7036 C   0  0  0  0  0  0  0  0  0  0  0  0
    5.1168   21.6869    0.9172 O   0  0  0  0  0  0  0  0  0  0  0  0
    3.4432   20.7563    2.5136 C   0  0  0  0  0  0  0  0  0  0  0  0
    5.3922   22.4288    0.4155 H   0  0  0  0  0  0  0  0  0  0  0  0
   -0.5542   25.2481    4.4305 C   0  0  0  0  0  0  0  0  0  0  0  0
   -0.2800   24.0356    5.0504 C   0  0  0  0  0  0  0  0  0  0  0  0
    0.6387   23.1616    4.4877 C   0  0  0  0  0  0  0  0  0  0  0  0
    0.0905   25.5908    3.2504 C   0  0  0  0  0  0  0  0  0  0  0  0
    1.0057   24.7127    2.6855 C   0  0  0  0  0  0  0  0  0  0  0  0
    1.2859   23.5021    3.3069 C   0  0  0  0  0  0  0  0  0  0  0  0
   -1.5366   26.1919    5.0354 C   0  0  0  0  0  0  0  0  0  0  0  0
   -0.7803   26.7207    7.2268 O   0  0  0  0  0  0  0  0  0  0  0  0
   -1.6574   26.1599    6.5217 C   0  0  0  0  0  0  0  0  0  0  0  0
   -2.6225   25.5660    7.0727 O   0  0  0  0  0  0  0  0  0  0  0  0
   -0.0624   27.1626    6.8178 H   0  0  0  0  0  0  0  0  0  0  0  0
    1.0639   20.5319    2.8377 C   0  0  0  0  0  0  0  0  0  0  0  0
    0.4028   19.4973    3.9783 S   0  0  0  0  0  0  0  0  0  0  0  0
   -0.9211   18.9351    3.1135 C   0  0  0  0  0  0  0  0  0  0  0  0
   -0.8398   19.5917    1.8758 C   0  0  0  0  0  0  0  0  0  0  0  0
   -2.1582   19.3151    0.4944 Br  0  0  0  0  0  0  0  0  0  0  0  0
    0.2569   20.4821    1.7028 C   0  0  0  0  0  0  0  0  0  0  0  0
    3.7821   19.2970    2.6430 C   0  0  0  0  0  0  0  0  0  0  0  0
    3.4937   18.5280    1.7345 O   0  0  0  0  0  0  0  0  0  0  0  0
    4.4667   18.7039    3.8226 C   0  0  0  0  0  0  0  0  0  0  0  0
    6.0923   18.2556    3.8526 S   0  0  0  0  0  0  0  0  0  0  0  0
    6.1646   17.6929    5.4389 C   0  0  0  0  0  0  0  0  0  0  0  0
    7.5622   17.0390    6.2120 Cl  0  0  0  0  0  0  0  0  0  0  0  0
    4.8850   17.8591    6.0046 C   0  0  0  0  0  0  0  0  0  0  0  0
    3.9390   18.4312    5.0994 C   0  0  0  0  0  0  0  0  0  0  0  0
 18 17  2  0  0  0
 17 16  1  0  0  0
 17 15  1  0  0  0
 15  9  1  0  0  0
 10  9  2  0  0  0
 10 11  1  0  0  0
  9 12  1  0  0  0
 11 14  2  0  0  0
 12 13  2  0  0  0
 14 13  1  0  0  0
 14  1  1  0  0  0
  1  2  1  0  0  0
  1  3  1  0  0  0
  4  3  2  0  0  0
  2  7  1  0  0  0
  2 20  1  0  0  0
  3  5  1  0  0  0
  7  5  2  0  0  0
  7 26  1  0  0  0
  5  6  1  0  0  0
 25 20  2  0  0  0
 25 23  1  0  0  0
 20 21  1  0  0  0
 27 26  2  0  0  0
 26 28  1  0  0  0
 23 24  1  0  0  0
 23 22  2  0  0  0
 28 29  1  0  0  0
 28 33  2  0  0  0
 29 30  1  0  0  0
 21 22  1  0  0  0
 33 32  1  0  0  0
 30 32  2  0  0  0
 30 31  1  0  0  0
 16 19  1  0  0  0
  6  8  1  0  0  0
M  END
> <minimizedAffinity>
-5.95633

$$$$
4IBF_1D5_A_401


 33 36  0  0  0  0  0  0  0  0999 V2000
   -0.9768   20.0159   -2.3453 N   0  0  0  0  0  0  0  0  0  0  0  0
   -0.4567   19.0840   -3.1535 C   0  0  0  0  0  0  0  0  0  0  0  0
   -2.2188   20.3279   -2.7127 C   0  0  0  0  0  0  0  0  0  0  0  0
   -3.0314   21.2191   -2.0530 O   0  0  0  0  0  0  0  0  0  0  0  0
   -2.5068   19.6002   -3.8713 C   0  0  0  0  0  0  0  0  0  0  0  0
   -3.6810   19.6601   -4.5846 O   0  0  0  0  0  0  0  0  0  0  0  0
   -1.3646   18.8356   -4.1727 C   0  0  0  0  0  0  0  0  0  0  0  0
   -4.3814   20.2077   -4.2888 H   0  0  0  0  0  0  0  0  0  0  0  0
    1.2665   21.8937    0.6785 C   0  0  0  0  0  0  0  0  0  0  0  0
    1.4688   22.2341   -0.6529 C   0  0  0  0  0  0  0  0  0  0  0  0
    0.7255   21.6151   -1.6474 C   0  0  0  0  0  0  0  0  0  0  0  0
    0.3202   20.9374    1.0189 C   0  0  0  0  0  0  0  0  0  0  0  0
   -0.4191   20.3147    0.0222 C   0  0  0  0  0  0  0  0  0  0  0  0
   -0.2227   20.6581   -1.3096 C   0  0  0  0  0  0  0  0  0  0  0  0
    2.0595   22.5609    1.7499 C   0  0  0  0  0  0  0  0  0  0  0  0
    3.6588   24.1976    1.1039 O   0  0  0  0  0  0  0  0  0  0  0  0
    2.4826   23.9661    1.4833 C   0  0  0  0  0  0  0  0  0  0  0  0
    1.6753   24.9195    1.6473 O   0  0  0  0  0  0  0  0  0  0  0  0
    4.2597   23.4892    0.9817 H   0  0  0  0  0  0  0  0  0  0  0  0
    0.0194   17.8759   -2.4464 C   0  0  0  0  0  0  0  0  0  0  0  0
    1.6251   17.3966   -2.4665 S   0  0  0  0  0  0  0  0  0  0  0  0
    1.5131   16.0008   -1.5415 C   0  0  0  0  0  0  0  0  0  0  0  0
    0.1545   15.9102   -1.2011 C   0  0  0  0  0  0  0  0  0  0  0  0
   -0.5207   14.4740   -0.1036 Br  0  0  0  0  0  0  0  0  0  0  0  0
   -0.6917   16.9421   -1.6955 C   0  0  0  0  0  0  0  0  0  0  0  0
   -1.1295   17.7696   -5.2069 C   0  0  0  0  0  0  0  0  0  0  0  0
   -0.1280   17.8219   -5.9100 O   0  0  0  0  0  0  0  0  0  0  0  0
   -2.0453   16.6212   -5.4403 C   0  0  0  0  0  0  0  0  0  0  0  0
   -3.3050   16.6221   -6.5617 S   0  0  0  0  0  0  0  0  0  0  0  0
   -3.8789   15.0616   -6.2904 C   0  0  0  0  0  0  0  0  0  0  0  0
   -5.2168   14.3272   -7.0963 Cl  0  0  0  0  0  0  0  0  0  0  0  0
   -3.0674   14.4801   -5.2964 C   0  0  0  0  0  0  0  0  0  0  0  0
   -2.0381   15.3533   -4.8275 C   0  0  0  0  0  0  0  0  0  0  0  0
 18 17  2  0  0  0
 17 16  1  0  0  0
 17 15  1  0  0  0
 15  9  1  0  0  0
 10  9  2  0  0  0
 10 11  1  0  0  0
  9 12  1  0  0  0
 11 14  2  0  0  0
 12 13  2  0  0  0
 14 13  1  0  0  0
 14  1  1  0  0  0
  1  2  1  0  0  0
  1  3  1  0  0  0
  4  3  2  0  0  0
  2  7  1  0  0  0
  2 20  1  0  0  0
  3  5  1  0  0  0
  7  5  2  0  0  0
  7 26  1  0  0  0
  5  6  1  0  0  0
 25 20  2  0  0  0
 25 23  1  0  0  0
 20 21  1  0  0  0
 27 26  2  0  0  0
 26 28  1  0  0  0
 23 24  1  0  0  0
 23 22  2  0  0  0
 28 29  1  0  0  0
 28 33  2  0  0  0
 29 30  1  0  0  0
 21 22  1  0  0  0
 33 32  1  0  0  0
 30 32  2  0  0  0
 30 31  1  0  0  0
 16 19  1  0  0  0
  6  8  1  0  0  0
M  END
> <minimizedAffinity>
-5.88976

$$$$
4IBF_1D5_A_401


 33 36  0  0  0  0  0  0  0  0999 V2000
    5.9429   19.7588    3.7983 N   0  0  0  0  0  0  0  0  0  0  0  0
    5.6840   18.6509    4.5037 C   0  0  0  0  0  0  0  0  0  0  0  0
    7.2112   20.1369    3.9505 C   0  0  0  0  0  0  0  0  0  0  0  0
    7.7907   21.2114    3.3186 O   0  0  0  0  0  0  0  0  0  0  0  0
    7.8026   19.2570    4.8620 C   0  0  0  0  0  0  0  0  0  0  0  0
    9.1006   19.3214    5.3119 O   0  0  0  0  0  0  0  0  0  0  0  0
    6.8133   18.3319    5.2436 C   0  0  0  0  0  0  0  0  0  0  0  0
    9.6768   19.9848    4.9866 H   0  0  0  0  0  0  0  0  0  0  0  0
    2.9529   21.8594    1.7127 C   0  0  0  0  0  0  0  0  0  0  0  0
    2.7060   21.3844    2.9945 C   0  0  0  0  0  0  0  0  0  0  0  0
    3.6949   20.6945    3.6806 C   0  0  0  0  0  0  0  0  0  0  0  0
    4.1879   21.6491    1.1157 C   0  0  0  0  0  0  0  0  0  0  0  0
    5.1748   20.9537    1.8014 C   0  0  0  0  0  0  0  0  0  0  0  0
    4.9321   20.4830    3.0858 C   0  0  0  0  0  0  0  0  0  0  0  0
    1.8944   22.6059    0.9750 C   0  0  0  0  0  0  0  0  0  0  0  0
    1.7222   22.2731   -1.3730 O   0  0  0  0  0  0  0  0  0  0  0  0
    1.3264   21.9333   -0.2290 C   0  0  0  0  0  0  0  0  0  0  0  0
    0.4468   21.0393   -0.1074 O   0  0  0  0  0  0  0  0  0  0  0  0
    2.3763   22.9378   -1.4642 H   0  0  0  0  0  0  0  0  0  0  0  0
    5.1449   17.5375    3.6939 C   0  0  0  0  0  0  0  0  0  0  0  0
    3.7103   16.7601    4.0762 S   0  0  0  0  0  0  0  0  0  0  0  0
    3.6688   15.6241    2.8416 C   0  0  0  0  0  0  0  0  0  0  0  0
    4.8325   15.8692    2.0963 C   0  0  0  0  0  0  0  0  0  0  0  0
    5.2632   14.8382    0.5233 Br  0  0  0  0  0  0  0  0  0  0  0  0
    5.6663   16.9275    2.5548 C   0  0  0  0  0  0  0  0  0  0  0  0
    6.8917   17.0850    6.0805 C   0  0  0  0  0  0  0  0  0  0  0  0
    6.1629   16.9678    7.0578 O   0  0  0  0  0  0  0  0  0  0  0  0
    7.8093   15.9495    5.7966 C   0  0  0  0  0  0  0  0  0  0  0  0
    8.7875   15.8367    4.4275 S   0  0  0  0  0  0  0  0  0  0  0  0
    9.5204   14.3585    4.7679 C   0  0  0  0  0  0  0  0  0  0  0  0
   10.6813   13.5580    3.7729 Cl  0  0  0  0  0  0  0  0  0  0  0  0
    9.0129   13.9103    6.0034 C   0  0  0  0  0  0  0  0  0  0  0  0
    8.0604   14.8062    6.5795 C   0  0  0  0  0  0  0  0  0  0  0  0
 18 17  2  0  0  0
 17 16  1  0  0  0
 17 15  1  0  0  0
 15  9  1  0  0  0
 10  9  2  0  0  0
 10 11  1  0  0  0
  9 12  1  0  0  0
 11 14  2  0  0  0
 12 13  2  0  0  0
 14 13  1  0  0  0
 14  1  1  0  0  0
  1  2  1  0  0  0
  1  3  1  0  0  0
  4  3  2  0  0  0
  2  7  1  0  0  0
  2 20  1  0  0  0
  3  5  1  0  0  0
  7  5  2  0  0  0
  7 26  1  0  0  0
  5  6  1  0  0  0
 25 20  2  0  0  0
 25 23  1  0  0  0
 20 21  1  0  0  0
 27 26  2  0  0  0
 26 28  1  0  0  0
 23 24  1  0  0  0
 23 22  2  0  0  0
 28 29  1  0  0  0
 28 33  2  0  0  0
 29 30  1  0  0  0
 21 22  1  0  0  0
 33 32  1  0  0  0
 30 32  2  0  0  0
 30 31  1  0  0  0
 16 19  1  0  0  0
  6  8  1  0  0  0
M  END
> <minimizedAffinity>
-5.86107

$$$$
4IBF_1D5_A_401


 33 36  0  0  0  0  0  0  0  0999 V2000
    0.7459   19.6105    0.4082 N   0  0  0  0  0  0  0  0  0  0  0  0
   -0.4199   19.3447   -0.1935 C   0  0  0  0  0  0  0  0  0  0  0  0
    1.4108   18.4883    0.6792 C   0  0  0  0  0  0  0  0  0  0  0  0
    2.6586   18.4351    1.2538 O   0  0  0  0  0  0  0  0  0  0  0  0
    0.6011   17.4182    0.2868 C   0  0  0  0  0  0  0  0  0  0  0  0
    0.9116   16.0855    0.4237 O   0  0  0  0  0  0  0  0  0  0  0  0
   -0.5847   17.9678   -0.2347 C   0  0  0  0  0  0  0  0  0  0  0  0
    1.7373   15.8317    0.7868 H   0  0  0  0  0  0  0  0  0  0  0  0
    1.9226   23.4807    1.5656 C   0  0  0  0  0  0  0  0  0  0  0  0
    2.4275   22.9178    0.4004 C   0  0  0  0  0  0  0  0  0  0  0  0
    2.0354   21.6426    0.0200 C   0  0  0  0  0  0  0  0  0  0  0  0
    1.0237   22.7726    2.3508 C   0  0  0  0  0  0  0  0  0  0  0  0
    0.6364   21.4943    1.9718 C   0  0  0  0  0  0  0  0  0  0  0  0
    1.1354   20.9318    0.8036 C   0  0  0  0  0  0  0  0  0  0  0  0
    2.3376   24.8528    1.9742 C   0  0  0  0  0  0  0  0  0  0  0  0
    0.7515   25.5966    3.5819 O   0  0  0  0  0  0  0  0  0  0  0  0
    1.2512   25.7623    2.4400 C   0  0  0  0  0  0  0  0  0  0  0  0
    0.8245   26.6840    1.6943 O   0  0  0  0  0  0  0  0  0  0  0  0
    1.0683   24.9114    4.1370 H   0  0  0  0  0  0  0  0  0  0  0  0
   -0.5903   20.0234   -1.4960 C   0  0  0  0  0  0  0  0  0  0  0  0
   -1.9313   20.9637   -1.8512 S   0  0  0  0  0  0  0  0  0  0  0  0
   -1.5529   21.4097   -3.4242 C   0  0  0  0  0  0  0  0  0  0  0  0
   -0.3177   20.7938   -3.6789 C   0  0  0  0  0  0  0  0  0  0  0  0
    0.5912   21.0079   -5.3674 Br  0  0  0  0  0  0  0  0  0  0  0  0
    0.2328   20.0182   -2.6202 C   0  0  0  0  0  0  0  0  0  0  0  0
   -1.7533   17.3255   -0.9298 C   0  0  0  0  0  0  0  0  0  0  0  0
   -2.8101   17.1841   -0.3270 O   0  0  0  0  0  0  0  0  0  0  0  0
   -1.7214   16.8426   -2.3361 C   0  0  0  0  0  0  0  0  0  0  0  0
   -2.7291   17.4151   -3.5612 S   0  0  0  0  0  0  0  0  0  0  0  0
   -2.1500   16.4618   -4.8238 C   0  0  0  0  0  0  0  0  0  0  0  0
   -2.7304   16.4833   -6.4490 Cl  0  0  0  0  0  0  0  0  0  0  0  0
   -1.1151   15.6584   -4.3058 C   0  0  0  0  0  0  0  0  0  0  0  0
   -0.8734   15.8787   -2.9148 C   0  0  0  0  0  0  0  0  0  0  0  0
 18 17  2  0  0  0
 17 16  1  0  0  0
 17 15  1  0  0  0
 15  9  1  0  0  0
 10  9  2  0  0  0
 10 11  1  0  0  0
  9 12  1  0  0  0
 11 14  2  0  0  0
 12 13  2  0  0  0
 14 13  1  0  0  0
 14  1  1  0  0  0
  1  2  1  0  0  0
  1  3  1  0  0  0
  4  3  2  0  0  0
  2  7  1  0  0  0
  2 20  1  0  0  0
  3  5  1  0  0  0
  7  5  2  0  0  0
  7 26  1  0  0  0
  5  6  1  0  0  0
 25 20  2  0  0  0
 25 23  1  0  0  0
 20 21  1  0  0  0
 27 26  2  0  0  0
 26 28  1  0  0  0
 23 24  1  0  0  0
 23 22  2  0  0  0
 28 29  1  0  0  0
 28 33  2  0  0  0
 29 30  1  0  0  0
 21 22  1  0  0  0
 33 32  1  0  0  0
 30 32  2  0  0  0
 30 31  1  0  0  0
 16 19  1  0  0  0
  6  8  1  0  0  0
M  END
> <minimizedAffinity>
-5.81039

$$$$
