2HA3_CHT_A_951


  8  7  0  0  0  0  0  0  0  0999 V2000
   27.3337   17.7288   14.5473 C   0  0  0  0  0  0  0  0  0  0  0  0
   25.5524   19.1335   15.3700 C   0  0  0  0  0  0  0  0  0  0  0  0
   27.2666   18.3781   16.8428 C   0  0  0  0  0  0  0  0  0  0  0  0
   27.7733   20.0241   15.2373 C   0  0  0  0  0  0  0  0  0  0  0  0
   26.9808   18.8169   15.4756 N   0  0  0  0  0  0  0  0  0  0  0  0
   28.4066   18.1287   13.5240 C   0  0  0  0  0  0  0  0  0  0  0  0
   29.2572   17.0278   13.1917 O   0  0  0  0  0  0  0  0  0  0  0  0
   29.7154   16.7209   13.9897 H   0  0  0  0  0  0  0  0  0  0  0  0
  6  1  1  0  0  0
  6  7  1  0  0  0
  1  5  1  0  0  0
  2  5  1  0  0  0
  3  5  1  0  0  0
  4  5  1  0  0  0
  7  8  1  0  0  0
M  CHG 1   5   1
M  END
> <minimizedAffinity>
-3.87115

$$$$
2HA3_CHT_A_951


  8  7  0  0  0  0  0  0  0  0999 V2000
   27.3247   17.7434   14.5101 C   0  0  0  0  0  0  0  0  0  0  0  0
   27.8386   20.0009   15.1903 C   0  0  0  0  0  0  0  0  0  0  0  0
   25.6183   19.1596   15.3922 C   0  0  0  0  0  0  0  0  0  0  0  0
   27.2823   18.3769   16.8627 C   0  0  0  0  0  0  0  0  0  0  0  0
   27.0366   18.8087   15.4860 N   0  0  0  0  0  0  0  0  0  0  0  0
   28.4188   18.1241   13.5020 C   0  0  0  0  0  0  0  0  0  0  0  0
   29.2645   17.0124   13.1942 O   0  0  0  0  0  0  0  0  0  0  0  0
   29.7061   16.7085   14.0026 H   0  0  0  0  0  0  0  0  0  0  0  0
  6  1  1  0  0  0
  6  7  1  0  0  0
  1  5  1  0  0  0
  2  5  1  0  0  0
  3  5  1  0  0  0
  4  5  1  0  0  0
  7  8  1  0  0  0
M  CHG 1   5   1
M  END
> <minimizedAffinity>
-3.86230

$$$$
2HA3_CHT_A_951


  8  7  0  0  0  0  0  0  0  0999 V2000
   27.3197   17.7150   14.5455 C   0  0  0  0  0  0  0  0  0  0  0  0
   27.3046   18.4327   16.8493 C   0  0  0  0  0  0  0  0  0  0  0  0
   27.6901   20.0060   15.1017 C   0  0  0  0  0  0  0  0  0  0  0  0
   25.5265   19.1264   15.3999 C   0  0  0  0  0  0  0  0  0  0  0  0
   26.9509   18.7982   15.4734 N   0  0  0  0  0  0  0  0  0  0  0  0
   28.3970   18.1258   13.5311 C   0  0  0  0  0  0  0  0  0  0  0  0
   29.2556   17.0312   13.1988 O   0  0  0  0  0  0  0  0  0  0  0  0
   29.7105   16.7229   13.9981 H   0  0  0  0  0  0  0  0  0  0  0  0
  6  1  1  0  0  0
  6  7  1  0  0  0
  1  5  1  0  0  0
  2  5  1  0  0  0
  3  5  1  0  0  0
  4  5  1  0  0  0
  7  8  1  0  0  0
M  CHG 1   5   1
M  END
> <minimizedAffinity>
-3.85695

$$$$
2HA3_CHT_A_951


  8  7  0  0  0  0  0  0  0  0999 V2000
   27.2272   18.4745   16.7773 C   0  0  0  0  0  0  0  0  0  0  0  0
   27.2789   18.0004   14.4117 C   0  0  0  0  0  0  0  0  0  0  0  0
   25.3483   18.9890   15.3986 C   0  0  0  0  0  0  0  0  0  0  0  0
   27.2995   20.2820   15.1446 C   0  0  0  0  0  0  0  0  0  0  0  0
   26.8107   18.9347   15.4412 N   0  0  0  0  0  0  0  0  0  0  0  0
   28.3480   19.3268   17.3901 C   0  0  0  0  0  0  0  0  0  0  0  0
   28.5958   18.9735   18.7538 O   0  0  0  0  0  0  0  0  0  0  0  0
   27.7940   19.1258   19.2781 H   0  0  0  0  0  0  0  0  0  0  0  0
  6  1  1  0  0  0
  6  7  1  0  0  0
  1  5  1  0  0  0
  2  5  1  0  0  0
  3  5  1  0  0  0
  4  5  1  0  0  0
  7  8  1  0  0  0
M  CHG 1   5   1
M  END
> <minimizedAffinity>
-3.75320

$$$$
2HA3_CHT_A_951


  8  7  0  0  0  0  0  0  0  0999 V2000
   25.7173   19.5493   15.1344 C   0  0  0  0  0  0  0  0  0  0  0  0
   27.5596   18.1120   14.5320 C   0  0  0  0  0  0  0  0  0  0  0  0
   27.9535   20.1354   15.7273 C   0  0  0  0  0  0  0  0  0  0  0  0
   26.9490   18.3198   16.8401 C   0  0  0  0  0  0  0  0  0  0  0  0
   27.0248   19.0168   15.5553 N   0  0  0  0  0  0  0  0  0  0  0  0
   25.8266   20.6717   14.0921 C   0  0  0  0  0  0  0  0  0  0  0  0
   24.5680   21.3152   13.8736 O   0  0  0  0  0  0  0  0  0  0  0  0
   23.9278   20.6680   13.5389 H   0  0  0  0  0  0  0  0  0  0  0  0
  6  1  1  0  0  0
  6  7  1  0  0  0
  1  5  1  0  0  0
  2  5  1  0  0  0
  3  5  1  0  0  0
  4  5  1  0  0  0
  7  8  1  0  0  0
M  CHG 1   5   1
M  END
> <minimizedAffinity>
-3.66280

$$$$
2HA3_CHT_A_951


  8  7  0  0  0  0  0  0  0  0999 V2000
   26.2267   19.0100   15.8332 C   0  0  0  0  0  0  0  0  0  0  0  0
   27.9699   20.6128   15.3691 C   0  0  0  0  0  0  0  0  0  0  0  0
   27.4144   18.9411   13.7644 C   0  0  0  0  0  0  0  0  0  0  0  0
   25.9220   20.7252   14.1294 C   0  0  0  0  0  0  0  0  0  0  0  0
   26.8711   19.8302   14.7928 N   0  0  0  0  0  0  0  0  0  0  0  0
   27.2205   18.4303   16.8505 C   0  0  0  0  0  0  0  0  0  0  0  0
   26.7458   17.2043   17.4140 O   0  0  0  0  0  0  0  0  0  0  0  0
   25.9110   17.3649   17.8811 H   0  0  0  0  0  0  0  0  0  0  0  0
  6  1  1  0  0  0
  6  7  1  0  0  0
  1  5  1  0  0  0
  2  5  1  0  0  0
  3  5  1  0  0  0
  4  5  1  0  0  0
  7  8  1  0  0  0
M  CHG 1   5   1
M  END
> <minimizedAffinity>
-3.65245

$$$$
2HA3_CHT_A_951


  8  7  0  0  0  0  0  0  0  0999 V2000
   26.8413   20.7351   14.6508 C   0  0  0  0  0  0  0  0  0  0  0  0
   28.1927   19.7420   16.3859 C   0  0  0  0  0  0  0  0  0  0  0  0
   26.0312   18.8670   15.8956 C   0  0  0  0  0  0  0  0  0  0  0  0
   27.7896   18.5078   14.3716 C   0  0  0  0  0  0  0  0  0  0  0  0
   27.2278   19.4772   15.3132 N   0  0  0  0  0  0  0  0  0  0  0  0
   25.7667   20.5461   13.5702 C   0  0  0  0  0  0  0  0  0  0  0  0
   24.6041   21.3356   13.8364 O   0  0  0  0  0  0  0  0  0  0  0  0
   24.2164   21.0649   14.6834 H   0  0  0  0  0  0  0  0  0  0  0  0
  6  1  1  0  0  0
  6  7  1  0  0  0
  1  5  1  0  0  0
  2  5  1  0  0  0
  3  5  1  0  0  0
  4  5  1  0  0  0
  7  8  1  0  0  0
M  CHG 1   5   1
M  END
> <minimizedAffinity>
-3.59484

$$$$
2HA3_CHT_A_951


  8  7  0  0  0  0  0  0  0  0999 V2000
   26.9267   18.7795   15.5877 C   0  0  0  0  0  0  0  0  0  0  0  0
   26.8841   20.9425   14.5188 C   0  0  0  0  0  0  0  0  0  0  0  0
   28.6094   20.4014   16.0709 C   0  0  0  0  0  0  0  0  0  0  0  0
   28.6183   19.3915   13.9440 C   0  0  0  0  0  0  0  0  0  0  0  0
   27.7445   19.8647   15.0186 N   0  0  0  0  0  0  0  0  0  0  0  0
   27.3268   18.4073   17.0229 C   0  0  0  0  0  0  0  0  0  0  0  0
   26.7175   17.1827   17.4412 O   0  0  0  0  0  0  0  0  0  0  0  0
   25.7525   17.2791   17.4234 H   0  0  0  0  0  0  0  0  0  0  0  0
  6  1  1  0  0  0
  6  7  1  0  0  0
  1  5  1  0  0  0
  2  5  1  0  0  0
  3  5  1  0  0  0
  4  5  1  0  0  0
  7  8  1  0  0  0
M  CHG 1   5   1
M  END
> <minimizedAffinity>
-3.58011

$$$$
2HA3_CHT_A_951


  8  7  0  0  0  0  0  0  0  0999 V2000
   26.9429   20.6612   14.7464 C   0  0  0  0  0  0  0  0  0  0  0  0
   27.5966   19.0740   16.4425 C   0  0  0  0  0  0  0  0  0  0  0  0
   25.4192   18.9771   15.4794 C   0  0  0  0  0  0  0  0  0  0  0  0
   27.2756   18.3115   14.1933 C   0  0  0  0  0  0  0  0  0  0  0  0
   26.8283   19.2668   15.2078 N   0  0  0  0  0  0  0  0  0  0  0  0
   28.3564   21.0286   14.2716 C   0  0  0  0  0  0  0  0  0  0  0  0
   28.7407   22.3333   14.7143 O   0  0  0  0  0  0  0  0  0  0  0  0
   28.1298   22.9919   14.3482 H   0  0  0  0  0  0  0  0  0  0  0  0
  6  1  1  0  0  0
  6  7  1  0  0  0
  1  5  1  0  0  0
  2  5  1  0  0  0
  3  5  1  0  0  0
  4  5  1  0  0  0
  7  8  1  0  0  0
M  CHG 1   5   1
M  END
> <minimizedAffinity>
-3.44723

$$$$
2HA3_CHT_A_951


  8  7  0  0  0  0  0  0  0  0999 V2000
   28.3536   19.3940   13.4772 C   0  0  0  0  0  0  0  0  0  0  0  0
   26.5946   20.7831   14.3714 C   0  0  0  0  0  0  0  0  0  0  0  0
   27.5389   19.0389   15.6921 C   0  0  0  0  0  0  0  0  0  0  0  0
   28.8066   20.9782   15.2725 C   0  0  0  0  0  0  0  0  0  0  0  0
   27.8316   20.0591   14.6837 N   0  0  0  0  0  0  0  0  0  0  0  0
   28.1504   17.8719   13.4879 C   0  0  0  0  0  0  0  0  0  0  0  0
   29.3212   17.1788   13.0466 O   0  0  0  0  0  0  0  0  0  0  0  0
   29.5267   17.4390   12.1351 H   0  0  0  0  0  0  0  0  0  0  0  0
  6  1  1  0  0  0
  6  7  1  0  0  0
  1  5  1  0  0  0
  2  5  1  0  0  0
  3  5  1  0  0  0
  4  5  1  0  0  0
  7  8  1  0  0  0
M  CHG 1   5   1
M  END
> <minimizedAffinity>
-3.44439

$$$$
