3NUJ_478_B_401


 39 41  0  0  0  0  0  0  0  0999 V2000
   13.9458   19.6035   17.7725 C   0  0  0  0  0  0  0  0  0  0  0  0
   14.9936   18.7818   18.2653 O   0  0  0  0  0  0  0  0  0  0  0  0
   15.3690   18.2643   17.5357 H   0  0  0  0  0  0  0  0  0  0  0  0
   14.4878   20.6020   16.7551 C   0  0  0  0  0  0  0  0  0  0  0  0
   15.1230   22.8133   17.6601 C   0  0  0  0  0  0  0  0  0  0  0  0
   15.4087   21.5224   17.3886 N   0  0  0  0  0  0  0  0  0  0  0  0
   14.0270   23.3308   17.4997 O   0  0  0  0  0  0  0  0  0  0  0  0
   16.2997   21.1852   17.6371 H   0  0  0  0  0  0  0  0  0  0  0  0
   16.1958   23.4923   18.1747 O   0  0  0  0  0  0  0  0  0  0  0  0
   17.1722   25.3995   19.2849 C   0  0  0  0  0  0  0  0  0  0  0  0
   15.3405   24.2182   20.2836 C   0  0  0  0  0  0  0  0  0  0  0  0
   15.8556   24.6892   18.9212 C   0  0  0  0  0  0  0  0  0  0  0  0
   16.4579   24.5794   21.2347 C   0  0  0  0  0  0  0  0  0  0  0  0
   17.6340   24.7012   20.4357 O   0  0  0  0  0  0  0  0  0  0  0  0
   15.1645   19.9843   15.5298 C   0  0  0  0  0  0  0  0  0  0  0  0
   15.7455   21.0552   14.6157 C   0  0  0  0  0  0  0  0  0  0  0  0
   17.1133   21.2156   14.4995 C   0  0  0  0  0  0  0  0  0  0  0  0
   14.9338   21.9159   13.8961 C   0  0  0  0  0  0  0  0  0  0  0  0
   17.6052   22.2547   13.7107 C   0  0  0  0  0  0  0  0  0  0  0  0
   15.3691   22.9436   13.0763 C   0  0  0  0  0  0  0  0  0  0  0  0
   16.7420   23.1153   13.0750 C   0  0  0  0  0  0  0  0  0  0  0  0
   12.8937   18.6701   17.1850 C   0  0  0  0  0  0  0  0  0  0  0  0
   11.5296   19.1479   17.2322 N   0  0  0  0  0  0  0  0  0  0  0  0
   11.8103   20.1305   14.8401 O   0  0  0  0  0  0  0  0  0  0  0  0
    9.7133   20.5777   16.0967 O   0  0  0  0  0  0  0  0  0  0  0  0
   10.8043   19.5729   15.8254 S   0  0  0  0  0  0  0  0  0  0  0  0
   10.1228   18.1617   15.0212 C   0  0  0  0  0  0  0  0  0  0  0  0
   10.9776   17.2952   14.3714 C   0  0  0  0  0  0  0  0  0  0  0  0
   10.4335   16.1995   13.7172 C   0  0  0  0  0  0  0  0  0  0  0  0
    9.1180   15.8548   13.9065 C   0  0  0  0  0  0  0  0  0  0  0  0
    8.2295   16.7836   14.4597 C   0  0  0  0  0  0  0  0  0  0  0  0
    8.7688   17.8994   15.0643 C   0  0  0  0  0  0  0  0  0  0  0  0
    8.6278   14.7695   13.3220 N   0  0  0  0  0  0  0  0  0  0  0  0
    9.2377   14.1050   12.9273 H   0  0  0  0  0  0  0  0  0  0  0  0
    7.6543   14.6285   13.2830 H   0  0  0  0  0  0  0  0  0  0  0  0
   10.6649   18.4240   18.1686 C   0  0  0  0  0  0  0  0  0  0  0  0
   10.8001   19.0226   19.5751 C   0  0  0  0  0  0  0  0  0  0  0  0
   10.6170   20.5455   19.4697 C   0  0  0  0  0  0  0  0  0  0  0  0
    9.6534   18.4647   20.4431 C   0  0  0  0  0  0  0  0  0  0  0  0
 10 12  1  0  0  0
 10 14  1  0  0  0
 11 12  1  0  0  0
 11 13  1  0  0  0
  5  6  1  0  0  0
  5  9  1  0  0  0
  5  7  2  0  0  0
 12  9  1  0  0  0
  4  1  1  0  0  0
  4 15  1  0  0  0
  4  6  1  0  0  0
  1 22  1  0  0  0
  1  2  1  0  0  0
 15 16  1  0  0  0
 16 17  2  0  0  0
 16 18  1  0  0  0
 17 19  1  0  0  0
 18 20  2  0  0  0
 19 21  2  0  0  0
 20 21  1  0  0  0
 22 23  1  0  0  0
 36 37  1  0  0  0
 36 23  1  0  0  0
 37 38  1  0  0  0
 37 39  1  0  0  0
 27 28  2  0  0  0
 27 32  1  0  0  0
 27 26  1  0  0  0
 28 29  1  0  0  0
 29 30  2  0  0  0
 30 31  1  0  0  0
 30 33  1  0  0  0
 31 32  2  0  0  0
 13 14  1  0  0  0
 23 26  1  0  0  0
 24 26  2  0  0  0
 25 26  2  0  0  0
  6  8  1  0  0  0
 33 34  1  0  0  0
 33 35  1  0  0  0
  2  3  1  0  0  0
M  END
> <minimizedAffinity>
-9.67897

$$$$
3NUJ_478_B_401


 39 41  0  0  0  0  0  0  0  0999 V2000
   12.7635   19.6962   15.3238 C   0  0  0  0  0  0  0  0  0  0  0  0
   13.9772   19.1576   15.8264 O   0  0  0  0  0  0  0  0  0  0  0  0
   13.9496   19.1480   16.7960 H   0  0  0  0  0  0  0  0  0  0  0  0
   11.5851   18.8146   15.7241 C   0  0  0  0  0  0  0  0  0  0  0  0
   11.7605   18.2186   18.1170 C   0  0  0  0  0  0  0  0  0  0  0  0
   11.2711   18.9935   17.1262 N   0  0  0  0  0  0  0  0  0  0  0  0
   12.6013   17.3443   17.9643 O   0  0  0  0  0  0  0  0  0  0  0  0
   10.6621   19.7267   17.3723 H   0  0  0  0  0  0  0  0  0  0  0  0
   11.2356   18.5371   19.3417 O   0  0  0  0  0  0  0  0  0  0  0  0
    9.7873   20.0264   20.5696 C   0  0  0  0  0  0  0  0  0  0  0  0
    8.9014   18.0618   19.5192 C   0  0  0  0  0  0  0  0  0  0  0  0
    9.9316   19.1721   19.2971 C   0  0  0  0  0  0  0  0  0  0  0  0
    8.3935   18.3177   20.9193 C   0  0  0  0  0  0  0  0  0  0  0  0
    9.4004   19.0915   21.5703 O   0  0  0  0  0  0  0  0  0  0  0  0
   10.3118   19.0116   14.8991 C   0  0  0  0  0  0  0  0  0  0  0  0
    9.6903   17.6773   14.5075 C   0  0  0  0  0  0  0  0  0  0  0  0
   10.4197   16.7416   13.7985 C   0  0  0  0  0  0  0  0  0  0  0  0
    8.3776   17.3667   14.8201 C   0  0  0  0  0  0  0  0  0  0  0  0
    9.7926   15.5637   13.3945 C   0  0  0  0  0  0  0  0  0  0  0  0
    7.7158   16.2016   14.4702 C   0  0  0  0  0  0  0  0  0  0  0  0
    8.4658   15.3472   13.6816 C   0  0  0  0  0  0  0  0  0  0  0  0
   12.6536   21.1159   15.8676 C   0  0  0  0  0  0  0  0  0  0  0  0
   13.8317   21.6307   16.5299 N   0  0  0  0  0  0  0  0  0  0  0  0
   14.7081   20.1935   18.5129 O   0  0  0  0  0  0  0  0  0  0  0  0
   12.5737   21.4405   18.7689 O   0  0  0  0  0  0  0  0  0  0  0  0
   13.9507   21.4552   18.1549 S   0  0  0  0  0  0  0  0  0  0  0  0
   14.8985   22.7627   18.8580 C   0  0  0  0  0  0  0  0  0  0  0  0
   16.1256   23.0615   18.3020 C   0  0  0  0  0  0  0  0  0  0  0  0
   16.8800   24.0746   18.8757 C   0  0  0  0  0  0  0  0  0  0  0  0
   16.3281   24.9112   19.8141 C   0  0  0  0  0  0  0  0  0  0  0  0
   15.1421   24.5444   20.4597 C   0  0  0  0  0  0  0  0  0  0  0  0
   14.4184   23.5024   19.9193 C   0  0  0  0  0  0  0  0  0  0  0  0
   17.0430   25.9131   20.3091 N   0  0  0  0  0  0  0  0  0  0  0  0
   17.8802   26.1853   19.8683 H   0  0  0  0  0  0  0  0  0  0  0  0
   16.7363   26.3845   21.1172 H   0  0  0  0  0  0  0  0  0  0  0  0
   15.0836   21.4097   15.8002 C   0  0  0  0  0  0  0  0  0  0  0  0
   15.3121   22.5476   14.7964 C   0  0  0  0  0  0  0  0  0  0  0  0
   16.8192   22.8467   14.7428 C   0  0  0  0  0  0  0  0  0  0  0  0
   14.8762   22.0492   13.4031 C   0  0  0  0  0  0  0  0  0  0  0  0
 10 12  1  0  0  0
 10 14  1  0  0  0
 11 12  1  0  0  0
 11 13  1  0  0  0
  5  6  1  0  0  0
  5  9  1  0  0  0
  5  7  2  0  0  0
 12  9  1  0  0  0
  4  1  1  0  0  0
  4 15  1  0  0  0
  4  6  1  0  0  0
  1 22  1  0  0  0
  1  2  1  0  0  0
 15 16  1  0  0  0
 16 17  2  0  0  0
 16 18  1  0  0  0
 17 19  1  0  0  0
 18 20  2  0  0  0
 19 21  2  0  0  0
 20 21  1  0  0  0
 22 23  1  0  0  0
 36 37  1  0  0  0
 36 23  1  0  0  0
 37 38  1  0  0  0
 37 39  1  0  0  0
 27 28  2  0  0  0
 27 32  1  0  0  0
 27 26  1  0  0  0
 28 29  1  0  0  0
 29 30  2  0  0  0
 30 31  1  0  0  0
 30 33  1  0  0  0
 31 32  2  0  0  0
 13 14  1  0  0  0
 23 26  1  0  0  0
 24 26  2  0  0  0
 25 26  2  0  0  0
  6  8  1  0  0  0
 33 34  1  0  0  0
 33 35  1  0  0  0
  2  3  1  0  0  0
M  END
> <minimizedAffinity>
-9.13486

$$$$
3NUJ_478_B_401


 39 41  0  0  0  0  0  0  0  0999 V2000
   11.8249   21.4456   17.1028 C   0  0  0  0  0  0  0  0  0  0  0  0
   11.1850   22.6615   16.7456 O   0  0  0  0  0  0  0  0  0  0  0  0
   10.2524   22.6260   17.0100 H   0  0  0  0  0  0  0  0  0  0  0  0
   11.8011   21.2575   18.6161 C   0  0  0  0  0  0  0  0  0  0  0  0
   14.1048   21.7518   19.3652 C   0  0  0  0  0  0  0  0  0  0  0  0
   12.8037   22.0905   19.2466 N   0  0  0  0  0  0  0  0  0  0  0  0
   14.6114   20.7559   18.8686 O   0  0  0  0  0  0  0  0  0  0  0  0
   12.5183   22.9591   19.6118 H   0  0  0  0  0  0  0  0  0  0  0  0
   14.8238   22.6698   20.0841 O   0  0  0  0  0  0  0  0  0  0  0  0
   16.6692   23.7846   19.0001 C   0  0  0  0  0  0  0  0  0  0  0  0
   15.1359   25.0211   20.3668 C   0  0  0  0  0  0  0  0  0  0  0  0
   15.1736   23.8740   19.3539 C   0  0  0  0  0  0  0  0  0  0  0  0
   16.5931   25.3602   20.5800 C   0  0  0  0  0  0  0  0  0  0  0  0
   17.3302   24.2026   20.1890 O   0  0  0  0  0  0  0  0  0  0  0  0
   10.4490   21.5124   19.2850 C   0  0  0  0  0  0  0  0  0  0  0  0
    9.7946   20.2113   19.7311 C   0  0  0  0  0  0  0  0  0  0  0  0
    8.5618   19.8357   19.2318 C   0  0  0  0  0  0  0  0  0  0  0  0
   10.3913   19.3793   20.6633 C   0  0  0  0  0  0  0  0  0  0  0  0
    7.9622   18.6756   19.7202 C   0  0  0  0  0  0  0  0  0  0  0  0
    9.8547   18.2030   21.1597 C   0  0  0  0  0  0  0  0  0  0  0  0
    8.5804   17.9294   20.6953 C   0  0  0  0  0  0  0  0  0  0  0  0
   11.1016   20.3314   16.3553 C   0  0  0  0  0  0  0  0  0  0  0  0
   11.9476   19.3711   15.6818 N   0  0  0  0  0  0  0  0  0  0  0  0
   12.0249   17.2459   17.1798 O   0  0  0  0  0  0  0  0  0  0  0  0
   12.2443   17.0021   14.7163 O   0  0  0  0  0  0  0  0  0  0  0  0
   11.5896   17.7787   15.8306 S   0  0  0  0  0  0  0  0  0  0  0  0
    9.8476   17.5221   15.7872 C   0  0  0  0  0  0  0  0  0  0  0  0
    9.1475   17.9319   14.6709 C   0  0  0  0  0  0  0  0  0  0  0  0
    7.7721   17.7516   14.6526 C   0  0  0  0  0  0  0  0  0  0  0  0
    7.1558   16.9789   15.6055 C   0  0  0  0  0  0  0  0  0  0  0  0
    7.8326   16.6651   16.7894 C   0  0  0  0  0  0  0  0  0  0  0  0
    9.1920   16.8934   16.8259 C   0  0  0  0  0  0  0  0  0  0  0  0
    5.8480   16.7658   15.5400 N   0  0  0  0  0  0  0  0  0  0  0  0
    5.3550   16.9805   14.7153 H   0  0  0  0  0  0  0  0  0  0  0  0
    5.3705   16.3930   16.3160 H   0  0  0  0  0  0  0  0  0  0  0  0
   12.3766   19.7759   14.3399 C   0  0  0  0  0  0  0  0  0  0  0  0
   13.5151   20.7999   14.4413 C   0  0  0  0  0  0  0  0  0  0  0  0
   14.7360   20.1020   15.0627 C   0  0  0  0  0  0  0  0  0  0  0  0
   13.8933   21.2357   13.0107 C   0  0  0  0  0  0  0  0  0  0  0  0
 10 12  1  0  0  0
 10 14  1  0  0  0
 11 12  1  0  0  0
 11 13  1  0  0  0
  5  6  1  0  0  0
  5  9  1  0  0  0
  5  7  2  0  0  0
 12  9  1  0  0  0
  4  1  1  0  0  0
  4 15  1  0  0  0
  4  6  1  0  0  0
  1 22  1  0  0  0
  1  2  1  0  0  0
 15 16  1  0  0  0
 16 17  2  0  0  0
 16 18  1  0  0  0
 17 19  1  0  0  0
 18 20  2  0  0  0
 19 21  2  0  0  0
 20 21  1  0  0  0
 22 23  1  0  0  0
 36 37  1  0  0  0
 36 23  1  0  0  0
 37 38  1  0  0  0
 37 39  1  0  0  0
 27 28  2  0  0  0
 27 32  1  0  0  0
 27 26  1  0  0  0
 28 29  1  0  0  0
 29 30  2  0  0  0
 30 31  1  0  0  0
 30 33  1  0  0  0
 31 32  2  0  0  0
 13 14  1  0  0  0
 23 26  1  0  0  0
 24 26  2  0  0  0
 25 26  2  0  0  0
  6  8  1  0  0  0
 33 34  1  0  0  0
 33 35  1  0  0  0
  2  3  1  0  0  0
M  END
> <minimizedAffinity>
-9.06162

$$$$
3NUJ_478_B_401


 39 41  0  0  0  0  0  0  0  0999 V2000
   14.0844   20.0824   17.9263 C   0  0  0  0  0  0  0  0  0  0  0  0
   14.9937   19.2870   18.6720 O   0  0  0  0  0  0  0  0  0  0  0  0
   15.6950   19.8509   19.0339 H   0  0  0  0  0  0  0  0  0  0  0  0
   13.4064   21.1049   18.8324 C   0  0  0  0  0  0  0  0  0  0  0  0
   10.9383   21.0484   18.9635 C   0  0  0  0  0  0  0  0  0  0  0  0
   12.1510   20.5854   19.3330 N   0  0  0  0  0  0  0  0  0  0  0  0
   10.7501   21.8852   18.0921 O   0  0  0  0  0  0  0  0  0  0  0  0
   12.1841   19.8477   19.9841 H   0  0  0  0  0  0  0  0  0  0  0  0
    9.9154   20.4519   19.6523 O   0  0  0  0  0  0  0  0  0  0  0  0
    8.5440   18.6373   18.8461 C   0  0  0  0  0  0  0  0  0  0  0  0
    9.6676   18.4664   20.9571 C   0  0  0  0  0  0  0  0  0  0  0  0
    9.8686   19.0060   19.5388 C   0  0  0  0  0  0  0  0  0  0  0  0
    8.2350   17.9854   20.9589 C   0  0  0  0  0  0  0  0  0  0  0  0
    7.5834   18.6785   19.8952 O   0  0  0  0  0  0  0  0  0  0  0  0
   14.2496   21.5932   20.0120 C   0  0  0  0  0  0  0  0  0  0  0  0
   14.6492   23.0533   19.8439 C   0  0  0  0  0  0  0  0  0  0  0  0
   14.2094   23.7830   18.7557 C   0  0  0  0  0  0  0  0  0  0  0  0
   15.4808   23.6888   20.7505 C   0  0  0  0  0  0  0  0  0  0  0  0
   14.6571   25.0940   18.5983 C   0  0  0  0  0  0  0  0  0  0  0  0
   15.9311   24.9952   20.6584 C   0  0  0  0  0  0  0  0  0  0  0  0
   15.5358   25.6432   19.5016 C   0  0  0  0  0  0  0  0  0  0  0  0
   14.8843   20.7264   16.7999 C   0  0  0  0  0  0  0  0  0  0  0  0
   14.5357   20.3087   15.4599 N   0  0  0  0  0  0  0  0  0  0  0  0
   13.1340   20.9680   13.3702 O   0  0  0  0  0  0  0  0  0  0  0  0
   12.5783   21.9785   15.5717 O   0  0  0  0  0  0  0  0  0  0  0  0
   13.0704   20.7402   14.8661 S   0  0  0  0  0  0  0  0  0  0  0  0
   11.9030   19.4375   15.0727 C   0  0  0  0  0  0  0  0  0  0  0  0
   12.3349   18.1350   14.9287 C   0  0  0  0  0  0  0  0  0  0  0  0
   11.4062   17.1136   15.0663 C   0  0  0  0  0  0  0  0  0  0  0  0
   10.1521   17.3715   15.5623 C   0  0  0  0  0  0  0  0  0  0  0  0
    9.6756   18.6867   15.5960 C   0  0  0  0  0  0  0  0  0  0  0  0
   10.5904   19.7010   15.4069 C   0  0  0  0  0  0  0  0  0  0  0  0
    9.2954   16.3752   15.7452 N   0  0  0  0  0  0  0  0  0  0  0  0
    9.6124   15.4434   15.7249 H   0  0  0  0  0  0  0  0  0  0  0  0
    8.3426   16.5677   15.9014 H   0  0  0  0  0  0  0  0  0  0  0  0
   15.6338   20.3938   14.4926 C   0  0  0  0  0  0  0  0  0  0  0  0
   16.4536   21.6667   14.7424 C   0  0  0  0  0  0  0  0  0  0  0  0
   17.9253   21.3627   14.4176 C   0  0  0  0  0  0  0  0  0  0  0  0
   15.9636   22.7501   13.7597 C   0  0  0  0  0  0  0  0  0  0  0  0
 10 12  1  0  0  0
 10 14  1  0  0  0
 11 12  1  0  0  0
 11 13  1  0  0  0
  5  6  1  0  0  0
  5  9  1  0  0  0
  5  7  2  0  0  0
 12  9  1  0  0  0
  4  1  1  0  0  0
  4 15  1  0  0  0
  4  6  1  0  0  0
  1 22  1  0  0  0
  1  2  1  0  0  0
 15 16  1  0  0  0
 16 17  2  0  0  0
 16 18  1  0  0  0
 17 19  1  0  0  0
 18 20  2  0  0  0
 19 21  2  0  0  0
 20 21  1  0  0  0
 22 23  1  0  0  0
 36 37  1  0  0  0
 36 23  1  0  0  0
 37 38  1  0  0  0
 37 39  1  0  0  0
 27 28  2  0  0  0
 27 32  1  0  0  0
 27 26  1  0  0  0
 28 29  1  0  0  0
 29 30  2  0  0  0
 30 31  1  0  0  0
 30 33  1  0  0  0
 31 32  2  0  0  0
 13 14  1  0  0  0
 23 26  1  0  0  0
 24 26  2  0  0  0
 25 26  2  0  0  0
  6  8  1  0  0  0
 33 34  1  0  0  0
 33 35  1  0  0  0
  2  3  1  0  0  0
M  END
> <minimizedAffinity>
-8.98089

$$$$
3NUJ_478_B_401


 39 41  0  0  0  0  0  0  0  0999 V2000
   12.0096   18.2737   17.3494 C   0  0  0  0  0  0  0  0  0  0  0  0
   12.6185   17.0541   17.7462 O   0  0  0  0  0  0  0  0  0  0  0  0
   12.0124   16.3176   17.5696 H   0  0  0  0  0  0  0  0  0  0  0  0
   11.7434   18.2704   15.8477 C   0  0  0  0  0  0  0  0  0  0  0  0
   10.2485   16.8593   14.4743 C   0  0  0  0  0  0  0  0  0  0  0  0
   10.4774   17.6300   15.5583 N   0  0  0  0  0  0  0  0  0  0  0  0
   11.1030   16.5265   13.6656 O   0  0  0  0  0  0  0  0  0  0  0  0
    9.7367   17.7654   16.1925 H   0  0  0  0  0  0  0  0  0  0  0  0
    8.9439   16.4508   14.3854 O   0  0  0  0  0  0  0  0  0  0  0  0
    7.6558   14.4297   14.1044 C   0  0  0  0  0  0  0  0  0  0  0  0
    7.8461   15.4596   16.2610 C   0  0  0  0  0  0  0  0  0  0  0  0
    8.6661   15.1670   15.0020 C   0  0  0  0  0  0  0  0  0  0  0  0
    6.4546   14.9934   15.8999 C   0  0  0  0  0  0  0  0  0  0  0  0
    6.3981   14.9835   14.4741 O   0  0  0  0  0  0  0  0  0  0  0  0
   11.7717   19.6448   15.1761 C   0  0  0  0  0  0  0  0  0  0  0  0
   13.1971   20.0843   14.8675 C   0  0  0  0  0  0  0  0  0  0  0  0
   14.2677   19.5235   15.5379 C   0  0  0  0  0  0  0  0  0  0  0  0
   13.4682   21.0701   13.9337 C   0  0  0  0  0  0  0  0  0  0  0  0
   15.5506   20.0049   15.2806 C   0  0  0  0  0  0  0  0  0  0  0  0
   14.7232   21.5636   13.6183 C   0  0  0  0  0  0  0  0  0  0  0  0
   15.7430   21.0327   14.3882 C   0  0  0  0  0  0  0  0  0  0  0  0
   10.7379   18.4204   18.1768 C   0  0  0  0  0  0  0  0  0  0  0  0
   10.7521   19.4665   19.1752 N   0  0  0  0  0  0  0  0  0  0  0  0
   10.1631   21.9405   19.7218 O   0  0  0  0  0  0  0  0  0  0  0  0
    9.9916   21.1429   17.3743 O   0  0  0  0  0  0  0  0  0  0  0  0
   10.7542   21.0254   18.6697 S   0  0  0  0  0  0  0  0  0  0  0  0
   12.4010   21.6075   18.4421 C   0  0  0  0  0  0  0  0  0  0  0  0
   13.3970   21.1047   19.2540 C   0  0  0  0  0  0  0  0  0  0  0  0
   14.6877   21.5856   19.0886 C   0  0  0  0  0  0  0  0  0  0  0  0
   15.0117   22.3579   18.0006 C   0  0  0  0  0  0  0  0  0  0  0  0
   13.9963   22.9615   17.2504 C   0  0  0  0  0  0  0  0  0  0  0  0
   12.7059   22.5196   17.4527 C   0  0  0  0  0  0  0  0  0  0  0  0
   16.2635   22.7599   17.8239 N   0  0  0  0  0  0  0  0  0  0  0  0
   16.9910   22.3468   18.3429 H   0  0  0  0  0  0  0  0  0  0  0  0
   16.4650   23.4713   17.1739 H   0  0  0  0  0  0  0  0  0  0  0  0
    9.9016   19.2053   20.3402 C   0  0  0  0  0  0  0  0  0  0  0  0
    8.7771   18.2330   19.9596 C   0  0  0  0  0  0  0  0  0  0  0  0
    8.4342   17.3861   21.1961 C   0  0  0  0  0  0  0  0  0  0  0  0
    7.5311   19.0651   19.5926 C   0  0  0  0  0  0  0  0  0  0  0  0
 10 12  1  0  0  0
 10 14  1  0  0  0
 11 12  1  0  0  0
 11 13  1  0  0  0
  5  6  1  0  0  0
  5  9  1  0  0  0
  5  7  2  0  0  0
 12  9  1  0  0  0
  4  1  1  0  0  0
  4 15  1  0  0  0
  4  6  1  0  0  0
  1 22  1  0  0  0
  1  2  1  0  0  0
 15 16  1  0  0  0
 16 17  2  0  0  0
 16 18  1  0  0  0
 17 19  1  0  0  0
 18 20  2  0  0  0
 19 21  2  0  0  0
 20 21  1  0  0  0
 22 23  1  0  0  0
 36 37  1  0  0  0
 36 23  1  0  0  0
 37 38  1  0  0  0
 37 39  1  0  0  0
 27 28  2  0  0  0
 27 32  1  0  0  0
 27 26  1  0  0  0
 28 29  1  0  0  0
 29 30  2  0  0  0
 30 31  1  0  0  0
 30 33  1  0  0  0
 31 32  2  0  0  0
 13 14  1  0  0  0
 23 26  1  0  0  0
 24 26  2  0  0  0
 25 26  2  0  0  0
  6  8  1  0  0  0
 33 34  1  0  0  0
 33 35  1  0  0  0
  2  3  1  0  0  0
M  END
> <minimizedAffinity>
-8.94073

$$$$
3NUJ_478_B_401


 39 41  0  0  0  0  0  0  0  0999 V2000
   14.2405   20.7436   17.2189 C   0  0  0  0  0  0  0  0  0  0  0  0
   15.0064   19.8267   16.4518 O   0  0  0  0  0  0  0  0  0  0  0  0
   15.0225   20.1143   15.5256 H   0  0  0  0  0  0  0  0  0  0  0  0
   14.8865   22.1249   17.1959 C   0  0  0  0  0  0  0  0  0  0  0  0
   16.4377   22.8728   15.4220 C   0  0  0  0  0  0  0  0  0  0  0  0
   15.2050   22.5133   15.8379 N   0  0  0  0  0  0  0  0  0  0  0  0
   17.4469   22.8159   16.1098 O   0  0  0  0  0  0  0  0  0  0  0  0
   14.4762   22.5154   15.1759 H   0  0  0  0  0  0  0  0  0  0  0  0
   16.4525   23.2851   14.1157 O   0  0  0  0  0  0  0  0  0  0  0  0
   17.5160   25.3131   13.3542 C   0  0  0  0  0  0  0  0  0  0  0  0
   17.9730   23.2219   12.2745 C   0  0  0  0  0  0  0  0  0  0  0  0
   17.7232   23.8189   13.6617 C   0  0  0  0  0  0  0  0  0  0  0  0
   17.7490   24.3857   11.3368 C   0  0  0  0  0  0  0  0  0  0  0  0
   16.9423   25.3206   12.0519 O   0  0  0  0  0  0  0  0  0  0  0  0
   14.0705   23.2389   17.8545 C   0  0  0  0  0  0  0  0  0  0  0  0
   14.8497   23.9098   18.9782 C   0  0  0  0  0  0  0  0  0  0  0  0
   15.8361   24.8358   18.6959 C   0  0  0  0  0  0  0  0  0  0  0  0
   14.6201   23.6004   20.3082 C   0  0  0  0  0  0  0  0  0  0  0  0
   16.5775   25.3723   19.7478 C   0  0  0  0  0  0  0  0  0  0  0  0
   15.3052   24.1247   21.3915 C   0  0  0  0  0  0  0  0  0  0  0  0
   16.3419   24.9716   21.0415 C   0  0  0  0  0  0  0  0  0  0  0  0
   12.8325   20.7375   16.6349 C   0  0  0  0  0  0  0  0  0  0  0  0
   11.9046   19.8047   17.2352 N   0  0  0  0  0  0  0  0  0  0  0  0
   12.2248   17.2433   17.5560 O   0  0  0  0  0  0  0  0  0  0  0  0
   12.5724   18.2365   15.3046 O   0  0  0  0  0  0  0  0  0  0  0  0
   11.7711   18.3085   16.5797 S   0  0  0  0  0  0  0  0  0  0  0  0
   10.0862   17.9208   16.2430 C   0  0  0  0  0  0  0  0  0  0  0  0
    9.5332   18.3559   15.0561 C   0  0  0  0  0  0  0  0  0  0  0  0
    8.1985   18.0708   14.8073 C   0  0  0  0  0  0  0  0  0  0  0  0
    7.5134   17.1843   15.6010 C   0  0  0  0  0  0  0  0  0  0  0  0
    8.0248   16.8378   16.8566 C   0  0  0  0  0  0  0  0  0  0  0  0
    9.3367   17.1681   17.1236 C   0  0  0  0  0  0  0  0  0  0  0  0
    6.2555   16.8753   15.3145 N   0  0  0  0  0  0  0  0  0  0  0  0
    5.8785   17.1111   14.4361 H   0  0  0  0  0  0  0  0  0  0  0  0
    5.6990   16.4102   15.9802 H   0  0  0  0  0  0  0  0  0  0  0  0
   11.8791   19.8320   18.7005 C   0  0  0  0  0  0  0  0  0  0  0  0
   10.4299   19.9240   19.1969 C   0  0  0  0  0  0  0  0  0  0  0  0
   10.2774   18.9940   20.4116 C   0  0  0  0  0  0  0  0  0  0  0  0
   10.1791   21.3704   19.6708 C   0  0  0  0  0  0  0  0  0  0  0  0
 10 12  1  0  0  0
 10 14  1  0  0  0
 11 12  1  0  0  0
 11 13  1  0  0  0
  5  6  1  0  0  0
  5  9  1  0  0  0
  5  7  2  0  0  0
 12  9  1  0  0  0
  4  1  1  0  0  0
  4 15  1  0  0  0
  4  6  1  0  0  0
  1 22  1  0  0  0
  1  2  1  0  0  0
 15 16  1  0  0  0
 16 17  2  0  0  0
 16 18  1  0  0  0
 17 19  1  0  0  0
 18 20  2  0  0  0
 19 21  2  0  0  0
 20 21  1  0  0  0
 22 23  1  0  0  0
 36 37  1  0  0  0
 36 23  1  0  0  0
 37 38  1  0  0  0
 37 39  1  0  0  0
 27 28  2  0  0  0
 27 32  1  0  0  0
 27 26  1  0  0  0
 28 29  1  0  0  0
 29 30  2  0  0  0
 30 31  1  0  0  0
 30 33  1  0  0  0
 31 32  2  0  0  0
 13 14  1  0  0  0
 23 26  1  0  0  0
 24 26  2  0  0  0
 25 26  2  0  0  0
  6  8  1  0  0  0
 33 34  1  0  0  0
 33 35  1  0  0  0
  2  3  1  0  0  0
M  END
> <minimizedAffinity>
-8.82180

$$$$
3NUJ_478_B_401


 39 41  0  0  0  0  0  0  0  0999 V2000
   13.3966   19.5512   17.2314 C   0  0  0  0  0  0  0  0  0  0  0  0
   14.1899   18.8164   18.1515 O   0  0  0  0  0  0  0  0  0  0  0  0
   14.8844   18.3396   17.6708 H   0  0  0  0  0  0  0  0  0  0  0  0
   14.2436   20.6017   16.5207 C   0  0  0  0  0  0  0  0  0  0  0  0
   14.8025   22.4844   18.0223 C   0  0  0  0  0  0  0  0  0  0  0  0
   15.0967   21.2902   17.4665 N   0  0  0  0  0  0  0  0  0  0  0  0
   13.7430   23.0767   17.8759 O   0  0  0  0  0  0  0  0  0  0  0  0
   15.9451   20.8600   17.7202 H   0  0  0  0  0  0  0  0  0  0  0  0
   15.8166   22.9621   18.8099 O   0  0  0  0  0  0  0  0  0  0  0  0
   17.4148   24.7631   18.9693 C   0  0  0  0  0  0  0  0  0  0  0  0
   15.3677   24.8410   20.2149 C   0  0  0  0  0  0  0  0  0  0  0  0
   15.9210   24.4087   18.8547 C   0  0  0  0  0  0  0  0  0  0  0  0
   16.5983   25.2552   20.9882 C   0  0  0  0  0  0  0  0  0  0  0  0
   17.7006   24.6072   20.3546 O   0  0  0  0  0  0  0  0  0  0  0  0
   15.1001   20.0785   15.3660 C   0  0  0  0  0  0  0  0  0  0  0  0
   15.7021   21.2204   14.5575 C   0  0  0  0  0  0  0  0  0  0  0  0
   14.8882   22.1194   13.8945 C   0  0  0  0  0  0  0  0  0  0  0  0
   17.0718   21.3823   14.4357 C   0  0  0  0  0  0  0  0  0  0  0  0
   15.4772   23.1060   13.1048 C   0  0  0  0  0  0  0  0  0  0  0  0
   17.7085   22.3605   13.6903 C   0  0  0  0  0  0  0  0  0  0  0  0
   16.8442   23.1699   12.9745 C   0  0  0  0  0  0  0  0  0  0  0  0
   12.7815   18.5378   16.2733 C   0  0  0  0  0  0  0  0  0  0  0  0
   11.3472   18.3753   16.3625 N   0  0  0  0  0  0  0  0  0  0  0  0
   10.2490   20.0096   18.0623 O   0  0  0  0  0  0  0  0  0  0  0  0
   11.5544   18.0729   18.9115 O   0  0  0  0  0  0  0  0  0  0  0  0
   10.6317   18.5636   17.8248 S   0  0  0  0  0  0  0  0  0  0  0  0
    9.1102   17.6789   17.8957 C   0  0  0  0  0  0  0  0  0  0  0  0
    8.0546   18.2355   18.5885 C   0  0  0  0  0  0  0  0  0  0  0  0
    6.8667   17.5228   18.6638 C   0  0  0  0  0  0  0  0  0  0  0  0
    6.6664   16.4134   17.8800 C   0  0  0  0  0  0  0  0  0  0  0  0
    7.7599   15.7843   17.2746 C   0  0  0  0  0  0  0  0  0  0  0  0
    8.9550   16.4715   17.2461 C   0  0  0  0  0  0  0  0  0  0  0  0
    5.5027   15.7778   17.9184 N   0  0  0  0  0  0  0  0  0  0  0  0
    4.7223   16.2047   18.3402 H   0  0  0  0  0  0  0  0  0  0  0  0
    5.4194   14.8791   17.5250 H   0  0  0  0  0  0  0  0  0  0  0  0
   10.6002   18.9511   15.2404 C   0  0  0  0  0  0  0  0  0  0  0  0
    9.6582   17.8970   14.6433 C   0  0  0  0  0  0  0  0  0  0  0  0
    8.4081   18.6158   14.1101 C   0  0  0  0  0  0  0  0  0  0  0  0
   10.3757   17.2396   13.4464 C   0  0  0  0  0  0  0  0  0  0  0  0
 10 12  1  0  0  0
 10 14  1  0  0  0
 11 12  1  0  0  0
 11 13  1  0  0  0
  5  6  1  0  0  0
  5  9  1  0  0  0
  5  7  2  0  0  0
 12  9  1  0  0  0
  4  1  1  0  0  0
  4 15  1  0  0  0
  4  6  1  0  0  0
  1 22  1  0  0  0
  1  2  1  0  0  0
 15 16  1  0  0  0
 16 17  2  0  0  0
 16 18  1  0  0  0
 17 19  1  0  0  0
 18 20  2  0  0  0
 19 21  2  0  0  0
 20 21  1  0  0  0
 22 23  1  0  0  0
 36 37  1  0  0  0
 36 23  1  0  0  0
 37 38  1  0  0  0
 37 39  1  0  0  0
 27 28  2  0  0  0
 27 32  1  0  0  0
 27 26  1  0  0  0
 28 29  1  0  0  0
 29 30  2  0  0  0
 30 31  1  0  0  0
 30 33  1  0  0  0
 31 32  2  0  0  0
 13 14  1  0  0  0
 23 26  1  0  0  0
 24 26  2  0  0  0
 25 26  2  0  0  0
  6  8  1  0  0  0
 33 34  1  0  0  0
 33 35  1  0  0  0
  2  3  1  0  0  0
M  END
> <minimizedAffinity>
-8.75146

$$$$
3NUJ_478_B_401


 39 41  0  0  0  0  0  0  0  0999 V2000
   12.0426   21.6999   16.9003 C   0  0  0  0  0  0  0  0  0  0  0  0
   11.1669   22.8165   16.8539 O   0  0  0  0  0  0  0  0  0  0  0  0
   10.3384   22.5967   17.3080 H   0  0  0  0  0  0  0  0  0  0  0  0
   12.4042   21.3682   18.3443 C   0  0  0  0  0  0  0  0  0  0  0  0
   10.5674   20.2985   19.6068 C   0  0  0  0  0  0  0  0  0  0  0  0
   11.6505   20.2210   18.8052 N   0  0  0  0  0  0  0  0  0  0  0  0
   10.0338   21.3422   19.9546 O   0  0  0  0  0  0  0  0  0  0  0  0
   11.9468   19.3280   18.5156 H   0  0  0  0  0  0  0  0  0  0  0  0
   10.0950   19.0659   19.9732 O   0  0  0  0  0  0  0  0  0  0  0  0
    8.5031   17.6689   21.1296 C   0  0  0  0  0  0  0  0  0  0  0  0
    7.7804   19.1511   19.3893 C   0  0  0  0  0  0  0  0  0  0  0  0
    8.7667   19.0736   20.5573 C   0  0  0  0  0  0  0  0  0  0  0  0
    7.1756   17.7671   19.3372 C   0  0  0  0  0  0  0  0  0  0  0  0
    8.1016   16.9054   19.9978 O   0  0  0  0  0  0  0  0  0  0  0  0
   13.8919   21.1249   18.6060 C   0  0  0  0  0  0  0  0  0  0  0  0
   14.6170   22.4211   18.9434 C   0  0  0  0  0  0  0  0  0  0  0  0
   15.7217   22.8202   18.2151 C   0  0  0  0  0  0  0  0  0  0  0  0
   14.2173   23.2250   19.9976 C   0  0  0  0  0  0  0  0  0  0  0  0
   16.4024   23.9741   18.6015 C   0  0  0  0  0  0  0  0  0  0  0  0
   14.8377   24.3942   20.4049 C   0  0  0  0  0  0  0  0  0  0  0  0
   15.9907   24.6908   19.6999 C   0  0  0  0  0  0  0  0  0  0  0  0
   11.3329   20.5541   16.1884 C   0  0  0  0  0  0  0  0  0  0  0  0
   12.1907   19.5501   15.5986 N   0  0  0  0  0  0  0  0  0  0  0  0
   12.1331   17.6045   17.3241 O   0  0  0  0  0  0  0  0  0  0  0  0
   12.6514   17.1019   14.9461 O   0  0  0  0  0  0  0  0  0  0  0  0
   11.8515   17.9721   15.8821 S   0  0  0  0  0  0  0  0  0  0  0  0
   10.1331   17.6523   15.6646 C   0  0  0  0  0  0  0  0  0  0  0  0
    9.5016   16.8055   16.5524 C   0  0  0  0  0  0  0  0  0  0  0  0
    8.1542   16.5360   16.3613 C   0  0  0  0  0  0  0  0  0  0  0  0
    7.4153   17.2680   15.4650 C   0  0  0  0  0  0  0  0  0  0  0  0
    8.0653   18.0340   14.4909 C   0  0  0  0  0  0  0  0  0  0  0  0
    9.4161   18.2582   14.6533 C   0  0  0  0  0  0  0  0  0  0  0  0
    6.1148   17.0395   15.3372 N   0  0  0  0  0  0  0  0  0  0  0  0
    5.6406   16.5028   16.0127 H   0  0  0  0  0  0  0  0  0  0  0  0
    5.6238   17.4066   14.5669 H   0  0  0  0  0  0  0  0  0  0  0  0
   12.6157   19.8447   14.2270 C   0  0  0  0  0  0  0  0  0  0  0  0
   13.6816   20.9486   14.2353 C   0  0  0  0  0  0  0  0  0  0  0  0
   14.9822   20.3575   14.8033 C   0  0  0  0  0  0  0  0  0  0  0  0
   13.9472   21.3660   12.7742 C   0  0  0  0  0  0  0  0  0  0  0  0
 10 12  1  0  0  0
 10 14  1  0  0  0
 11 12  1  0  0  0
 11 13  1  0  0  0
  5  6  1  0  0  0
  5  9  1  0  0  0
  5  7  2  0  0  0
 12  9  1  0  0  0
  4  1  1  0  0  0
  4 15  1  0  0  0
  4  6  1  0  0  0
  1 22  1  0  0  0
  1  2  1  0  0  0
 15 16  1  0  0  0
 16 17  2  0  0  0
 16 18  1  0  0  0
 17 19  1  0  0  0
 18 20  2  0  0  0
 19 21  2  0  0  0
 20 21  1  0  0  0
 22 23  1  0  0  0
 36 37  1  0  0  0
 36 23  1  0  0  0
 37 38  1  0  0  0
 37 39  1  0  0  0
 27 28  2  0  0  0
 27 32  1  0  0  0
 27 26  1  0  0  0
 28 29  1  0  0  0
 29 30  2  0  0  0
 30 31  1  0  0  0
 30 33  1  0  0  0
 31 32  2  0  0  0
 13 14  1  0  0  0
 23 26  1  0  0  0
 24 26  2  0  0  0
 25 26  2  0  0  0
  6  8  1  0  0  0
 33 34  1  0  0  0
 33 35  1  0  0  0
  2  3  1  0  0  0
M  END
> <minimizedAffinity>
-8.72614

$$$$
3NUJ_478_B_401


 39 41  0  0  0  0  0  0  0  0999 V2000
   10.8432   18.6063   17.4193 C   0  0  0  0  0  0  0  0  0  0  0  0
   11.5411   17.3846   17.6094 O   0  0  0  0  0  0  0  0  0  0  0  0
   11.5837   16.9024   16.7689 H   0  0  0  0  0  0  0  0  0  0  0  0
   11.5925   19.4984   16.4350 C   0  0  0  0  0  0  0  0  0  0  0  0
   11.8979   21.8841   17.0072 C   0  0  0  0  0  0  0  0  0  0  0  0
   12.2460   20.5861   17.1324 N   0  0  0  0  0  0  0  0  0  0  0  0
   10.9314   22.2863   16.3754 O   0  0  0  0  0  0  0  0  0  0  0  0
   12.9915   20.3649   17.7362 H   0  0  0  0  0  0  0  0  0  0  0  0
   12.7324   22.7215   17.6992 O   0  0  0  0  0  0  0  0  0  0  0  0
   14.0757   22.3839   19.6753 C   0  0  0  0  0  0  0  0  0  0  0  0
   15.1088   22.9338   17.5829 C   0  0  0  0  0  0  0  0  0  0  0  0
   13.9608   22.1057   18.1655 C   0  0  0  0  0  0  0  0  0  0  0  0
   15.6525   23.6842   18.7767 C   0  0  0  0  0  0  0  0  0  0  0  0
   14.6029   23.7040   19.7433 O   0  0  0  0  0  0  0  0  0  0  0  0
   12.6190   18.7824   15.5551 C   0  0  0  0  0  0  0  0  0  0  0  0
   13.6313   19.7601   14.9725 C   0  0  0  0  0  0  0  0  0  0  0  0
   14.9417   19.7622   15.4118 C   0  0  0  0  0  0  0  0  0  0  0  0
   13.2738   20.6908   14.0116 C   0  0  0  0  0  0  0  0  0  0  0  0
   15.8195   20.7213   14.9081 C   0  0  0  0  0  0  0  0  0  0  0  0
   14.1110   21.6442   13.4567 C   0  0  0  0  0  0  0  0  0  0  0  0
   15.3818   21.6596   14.0038 C   0  0  0  0  0  0  0  0  0  0  0  0
    9.4419   18.2430   16.9423 C   0  0  0  0  0  0  0  0  0  0  0  0
    8.5424   17.7362   17.9550 N   0  0  0  0  0  0  0  0  0  0  0  0
    6.1895   16.6856   17.5998 O   0  0  0  0  0  0  0  0  0  0  0  0
    7.9863   15.3151   18.6340 O   0  0  0  0  0  0  0  0  0  0  0  0
    7.6741   16.3871   17.6207 S   0  0  0  0  0  0  0  0  0  0  0  0
    8.0360   15.7950   16.0018 C   0  0  0  0  0  0  0  0  0  0  0  0
    7.0985   15.0114   15.3606 C   0  0  0  0  0  0  0  0  0  0  0  0
    7.3991   14.5257   14.0964 C   0  0  0  0  0  0  0  0  0  0  0  0
    8.4875   14.9994   13.4062 C   0  0  0  0  0  0  0  0  0  0  0  0
    9.4935   15.6935   14.0876 C   0  0  0  0  0  0  0  0  0  0  0  0
    9.2129   16.1310   15.3648 C   0  0  0  0  0  0  0  0  0  0  0  0
    8.7276   14.5700   12.1742 N   0  0  0  0  0  0  0  0  0  0  0  0
    8.0318   14.0799   11.6794 H   0  0  0  0  0  0  0  0  0  0  0  0
    9.6016   14.7415   11.7547 H   0  0  0  0  0  0  0  0  0  0  0  0
    9.0700   17.7978   19.3213 C   0  0  0  0  0  0  0  0  0  0  0  0
    8.4147   18.9573   20.0834 C   0  0  0  0  0  0  0  0  0  0  0  0
    7.3410   18.3740   21.0165 C   0  0  0  0  0  0  0  0  0  0  0  0
    9.4955   19.6233   20.9597 C   0  0  0  0  0  0  0  0  0  0  0  0
 10 12  1  0  0  0
 10 14  1  0  0  0
 11 12  1  0  0  0
 11 13  1  0  0  0
  5  6  1  0  0  0
  5  9  1  0  0  0
  5  7  2  0  0  0
 12  9  1  0  0  0
  4  1  1  0  0  0
  4 15  1  0  0  0
  4  6  1  0  0  0
  1 22  1  0  0  0
  1  2  1  0  0  0
 15 16  1  0  0  0
 16 17  2  0  0  0
 16 18  1  0  0  0
 17 19  1  0  0  0
 18 20  2  0  0  0
 19 21  2  0  0  0
 20 21  1  0  0  0
 22 23  1  0  0  0
 36 37  1  0  0  0
 36 23  1  0  0  0
 37 38  1  0  0  0
 37 39  1  0  0  0
 27 28  2  0  0  0
 27 32  1  0  0  0
 27 26  1  0  0  0
 28 29  1  0  0  0
 29 30  2  0  0  0
 30 31  1  0  0  0
 30 33  1  0  0  0
 31 32  2  0  0  0
 13 14  1  0  0  0
 23 26  1  0  0  0
 24 26  2  0  0  0
 25 26  2  0  0  0
  6  8  1  0  0  0
 33 34  1  0  0  0
 33 35  1  0  0  0
  2  3  1  0  0  0
M  END
> <minimizedAffinity>
-8.71921

$$$$
3NUJ_478_B_401


 39 41  0  0  0  0  0  0  0  0999 V2000
   10.8751   18.1876   16.4807 C   0  0  0  0  0  0  0  0  0  0  0  0
   11.9313   17.5744   17.2048 O   0  0  0  0  0  0  0  0  0  0  0  0
   11.6771   17.4888   18.1370 H   0  0  0  0  0  0  0  0  0  0  0  0
    9.6263   17.3130   16.5202 C   0  0  0  0  0  0  0  0  0  0  0  0
    8.2582   16.4152   18.3734 C   0  0  0  0  0  0  0  0  0  0  0  0
    8.9817   17.4074   17.8133 N   0  0  0  0  0  0  0  0  0  0  0  0
    8.1456   15.2899   17.9086 O   0  0  0  0  0  0  0  0  0  0  0  0
    9.0771   18.2486   18.3157 H   0  0  0  0  0  0  0  0  0  0  0  0
    7.6773   16.7909   19.5558 O   0  0  0  0  0  0  0  0  0  0  0  0
    7.1277   18.5823   21.0763 C   0  0  0  0  0  0  0  0  0  0  0  0
    5.7502   18.1465   19.1631 C   0  0  0  0  0  0  0  0  0  0  0  0
    7.2181   18.1668   19.5967 C   0  0  0  0  0  0  0  0  0  0  0  0
    4.9933   18.4099   20.4444 C   0  0  0  0  0  0  0  0  0  0  0  0
    5.8778   18.0552   21.5066 O   0  0  0  0  0  0  0  0  0  0  0  0
    8.5945   17.5976   15.4270 C   0  0  0  0  0  0  0  0  0  0  0  0
    8.3253   16.3605   14.5801 C   0  0  0  0  0  0  0  0  0  0  0  0
    9.1762   16.0154   13.5471 C   0  0  0  0  0  0  0  0  0  0  0  0
    7.2158   15.5601   14.7937 C   0  0  0  0  0  0  0  0  0  0  0  0
    8.8555   14.9188   12.7480 C   0  0  0  0  0  0  0  0  0  0  0  0
    6.8667   14.4448   14.0506 C   0  0  0  0  0  0  0  0  0  0  0  0
    7.7023   14.2056   12.9741 C   0  0  0  0  0  0  0  0  0  0  0  0
   10.6562   19.5624   17.1014 C   0  0  0  0  0  0  0  0  0  0  0  0
   11.8243   20.1843   17.6849 N   0  0  0  0  0  0  0  0  0  0  0  0
   12.5824   22.6225   18.1812 O   0  0  0  0  0  0  0  0  0  0  0  0
   11.3061   22.1485   16.1021 O   0  0  0  0  0  0  0  0  0  0  0  0
   12.3290   21.6193   17.0753 S   0  0  0  0  0  0  0  0  0  0  0  0
   13.8825   21.4432   16.2641 C   0  0  0  0  0  0  0  0  0  0  0  0
   14.0894   20.3357   15.4675 C   0  0  0  0  0  0  0  0  0  0  0  0
   15.3238   20.1880   14.8518 C   0  0  0  0  0  0  0  0  0  0  0  0
   16.2273   21.2219   14.8404 C   0  0  0  0  0  0  0  0  0  0  0  0
   16.0748   22.2872   15.7348 C   0  0  0  0  0  0  0  0  0  0  0  0
   14.8653   22.4038   16.3867 C   0  0  0  0  0  0  0  0  0  0  0  0
   17.3788   21.0870   14.1956 N   0  0  0  0  0  0  0  0  0  0  0  0
   17.5043   20.3436   13.5625 H   0  0  0  0  0  0  0  0  0  0  0  0
   18.1078   21.7303   14.3503 H   0  0  0  0  0  0  0  0  0  0  0  0
   11.9004   20.0825   19.1453 C   0  0  0  0  0  0  0  0  0  0  0  0
   10.4937   19.9020   19.7312 C   0  0  0  0  0  0  0  0  0  0  0  0
   10.6084   19.0466   21.0035 C   0  0  0  0  0  0  0  0  0  0  0  0
    9.9650   21.2926   20.1390 C   0  0  0  0  0  0  0  0  0  0  0  0
 10 12  1  0  0  0
 10 14  1  0  0  0
 11 12  1  0  0  0
 11 13  1  0  0  0
  5  6  1  0  0  0
  5  9  1  0  0  0
  5  7  2  0  0  0
 12  9  1  0  0  0
  4  1  1  0  0  0
  4 15  1  0  0  0
  4  6  1  0  0  0
  1 22  1  0  0  0
  1  2  1  0  0  0
 15 16  1  0  0  0
 16 17  2  0  0  0
 16 18  1  0  0  0
 17 19  1  0  0  0
 18 20  2  0  0  0
 19 21  2  0  0  0
 20 21  1  0  0  0
 22 23  1  0  0  0
 36 37  1  0  0  0
 36 23  1  0  0  0
 37 38  1  0  0  0
 37 39  1  0  0  0
 27 28  2  0  0  0
 27 32  1  0  0  0
 27 26  1  0  0  0
 28 29  1  0  0  0
 29 30  2  0  0  0
 30 31  1  0  0  0
 30 33  1  0  0  0
 31 32  2  0  0  0
 13 14  1  0  0  0
 23 26  1  0  0  0
 24 26  2  0  0  0
 25 26  2  0  0  0
  6  8  1  0  0  0
 33 34  1  0  0  0
 33 35  1  0  0  0
  2  3  1  0  0  0
M  END
> <minimizedAffinity>
-8.68425

$$$$
