3NUJ_478_B_401
  RCSB PDB12061709583D
Coordinates from PDB:3NUJ:B:401 Model:1 without hydrogens
 35 37  0  0  0  0            999 V2000
   16.7790   24.9520   19.2150   C 0  0  0  0  0  0  0  0  0  0  0  0
   14.8380   24.0450   20.2910   C 0  0  0  0  0  0  0  0  0  0  0  0
   14.7210   22.2320   17.8570   C 0  0  0  0  0  0  0  0  0  0  0  0
   15.4520   24.2370   18.9020   C 0  0  0  0  0  0  0  0  0  0  0  0
   14.1420   20.0510   16.8470   C 0  0  0  0  0  0  0  0  0  0  0  0
   13.6410   18.9770   17.8070   C 0  0  0  0  0  0  0  0  0  0  0  0
   14.8280   19.5290   15.5830   C 0  0  0  0  0  0  0  0  0  0  0  0
   15.2270   20.6690   14.6550   C 0  0  0  0  0  0  0  0  0  0  0  0
   16.5230   21.1490   14.6460   C 0  0  0  0  0  0  0  0  0  0  0  0
   14.3100   21.2780   13.8150   C 0  0  0  0  0  0  0  0  0  0  0  0
   16.8310   22.2420   13.8370   C 0  0  0  0  0  0  0  0  0  0  0  0
   14.5690   22.3450   12.9710   C 0  0  0  0  0  0  0  0  0  0  0  0
   15.8560   22.8420   13.0760   C 0  0  0  0  0  0  0  0  0  0  0  0
   12.4990   18.1500   17.2280   C 0  0  0  0  0  0  0  0  0  0  0  0
   10.2450   18.3750   18.1580   C 0  0  0  0  0  0  0  0  0  0  0  0
   10.6630   18.8840   19.5440   C 0  0  0  0  0  0  0  0  0  0  0  0
    9.7550   17.6730   15.0520   C 0  0  0  0  0  0  0  0  0  0  0  0
   10.4650   16.7940   14.2600   C 0  0  0  0  0  0  0  0  0  0  0  0
    9.8060   15.6830   13.7540   C 0  0  0  0  0  0  0  0  0  0  0  0
    8.5590   15.3400   14.2150   C 0  0  0  0  0  0  0  0  0  0  0  0
    7.7960   16.2790   14.9180   C 0  0  0  0  0  0  0  0  0  0  0  0
    8.4400   17.4090   15.3760   C 0  0  0  0  0  0  0  0  0  0  0  0
   10.6740   20.4210   19.5090   C 0  0  0  0  0  0  0  0  0  0  0  0
    9.5900   18.4390   20.5590   C 0  0  0  0  0  0  0  0  0  0  0  0
   15.9160   24.5330   21.2310   C 0  0  0  0  0  0  0  0  0  0  0  0
   15.0380   20.9620   17.5280   N 0  0  0  0  0  0  0  0  0  0  0  0
   11.2160   18.8130   17.1510   N 0  0  0  0  0  0  0  0  0  0  0  0
    7.9670   14.2410   13.7660   N 0  0  0  0  0  0  0  0  0  0  0  0
   15.7750   22.9110   18.4090   O 0  0  0  0  0  0  0  0  0  0  0  0
   13.6140   22.7310   17.7140   O 0  0  0  0  0  0  0  0  0  0  0  0
   14.6860   18.0690   18.1220   O 0  0  0  0  0  0  0  0  0  0  0  0
   11.6630   19.3930   14.6550   O 0  0  0  0  0  0  0  0  0  0  0  0
    9.6040   20.2520   15.7500   O 0  0  0  0  0  0  0  0  0  0  0  0
   17.1400   24.4610   20.5010   O 0  0  0  0  0  0  0  0  0  0  0  0
   10.5770   19.1030   15.6700   S 0  0  0  0  0  0  0  0  0  0  0  0
  1  4  1  0  0  0  0
  1 34  1  0  0  0  0
  2  4  1  0  0  0  0
  2 25  1  0  0  0  0
  3 26  1  0  0  0  0
  3 29  1  0  0  0  0
  3 30  2  0  0  0  0
  4 29  1  0  0  0  0
  5  6  1  0  0  0  0
  5  7  1  0  0  0  0
  5 26  1  0  0  0  0
  6 14  1  0  0  0  0
  6 31  1  0  0  0  0
  7  8  1  0  0  0  0
  8  9  2  0  0  0  0
  8 10  1  0  0  0  0
  9 11  1  0  0  0  0
 10 12  2  0  0  0  0
 11 13  2  0  0  0  0
 12 13  1  0  0  0  0
 14 27  1  0  0  0  0
 15 16  1  0  0  0  0
 15 27  1  0  0  0  0
 16 23  1  0  0  0  0
 16 24  1  0  0  0  0
 17 18  2  0  0  0  0
 17 22  1  0  0  0  0
 17 35  1  0  0  0  0
 18 19  1  0  0  0  0
 19 20  2  0  0  0  0
 20 21  1  0  0  0  0
 20 28  1  0  0  0  0
 21 22  2  0  0  0  0
 25 34  1  0  0  0  0
 27 35  1  0  0  0  0
 32 35  2  0  0  0  0
 33 35  2  0  0  0  0
A    1
C1
A    2
C2
A    3
C3
A    4
C4
A    5
C5
A    6
C6
A    7
C7
A    8
C8
A    9
C9
A   10
C10
A   11
C11
A   12
C12
A   13
C13
A   14
C14
A   15
C15
A   16
C16
A   17
C17
A   18
C18
A   19
C19
A   20
C20
A   21
C21
A   22
C22
A   23
C23
A   24
C24
A   25
C25
A   26
N1
A   27
N2
A   28
N3
A   29
O1
A   30
O2
A   31
O3
A   32
O4
A   33
O5
A   34
O6
A   35
S1
M  END
>  <InstanceId>
3NUJ_478_B_401

>  <ChemCompId>
478

>  <PdbId>
3NUJ

>  <ChainId>
B

>  <ResidueNumber>
401

>  <InsertionCode>


>  <Model>
1

>  <AltIds>


>  <MissingHeavyAtoms>
0

>  <ObservedFormula>
C25 N3 O6 S

>  <Name>
{3-[(4-AMINO-BENZENESULFONYL)-ISOBUTYL-AMINO]-1-BENZYL-2-HYDROXY-PROPYL}-CARBAMIC ACID TETRAHYDRO-FURAN-3-YL ESTER

>  <SystematicName>
[(3S)-oxolan-3-yl] N-[(2S,3R)-4-[(4-aminophenyl)sulfonyl-(2-methylpropyl)amino]-3-hydroxy-1-phenyl-butan-2-yl]carbamate

>  <Synonyms>
Amprenavir

>  <Type>
NON-POLYMER

>  <Formula>
C25 H35 N3 O6 S

>  <MolecularWeight>
505.627

>  <ModifiedDate>
2011-06-04

>  <Parent>


>  <OneLetterCode>


>  <SubcomponentList>


>  <AmbiguousFlag>
N

>  <InChI>
InChI=1S/C25H35N3O6S/c1-18(2)15-28(35(31,32)22-10-8-20(26)9-11-22)16-24(29)23(14-19-6-4-3-5-7-19)27-25(30)34-21-12-13-33-17-21/h3-11,18,21,23-24,29H,12-17,26H2,1-2H3,(H,27,30)/t21-,23-,24+/m0/s1

>  <InChIKey>
YMARZQAQMVYCKC-OEMFJLHTSA-N

>  <SMILES>
CC(C)C[N@](C[C@H]([C@H](Cc1ccccc1)NC(=O)O[C@H]2CCOC2)O)S(=O)(=O)c3ccc(cc3)N

$$$$
