6EPY_RAF_A_701


 45 47  0  0  0  0  0  0  0  0999 V2000
  132.8697    7.5773   72.7115 C   0  0  0  0  0  0  0  0  0  0  0  0
  132.4667    6.1457   72.3431 C   0  0  0  0  0  0  0  0  0  0  0  0
  131.1597    6.1852   71.8466 O   0  0  0  0  0  0  0  0  0  0  0  0
  132.5961    5.2485   73.5911 C   0  0  0  0  0  0  0  0  0  0  0  0
  132.2620    3.8981   73.2830 O   0  0  0  0  0  0  0  0  0  0  0  0
  134.0632    5.3137   74.0534 C   0  0  0  0  0  0  0  0  0  0  0  0
  134.3135    4.4401   75.1448 O   0  0  0  0  0  0  0  0  0  0  0  0
  134.3622    6.7595   74.4391 C   0  0  0  0  0  0  0  0  0  0  0  0
  134.2051    7.6201   73.2723 O   0  0  0  0  0  0  0  0  0  0  0  0
  130.5692    6.5582   72.5198 H   0  0  0  0  0  0  0  0  0  0  0  0
  132.8564    3.5677   72.5914 H   0  0  0  0  0  0  0  0  0  0  0  0
  133.7526    4.6913   75.8952 H   0  0  0  0  0  0  0  0  0  0  0  0
  131.9386    8.1699   73.6854 O   0  0  0  0  0  0  0  0  0  0  0  0
  133.0086   11.2787   72.5034 C   0  0  0  0  0  0  0  0  0  0  0  0
  133.8044   10.9823   73.7919 C   0  0  0  0  0  0  0  0  0  0  0  0
  134.2847   12.1841   74.4162 O   0  0  0  0  0  0  0  0  0  0  0  0
  132.6917   10.4372   74.6530 C   0  0  0  0  0  0  0  0  0  0  0  0
  133.1676    9.6241   75.7406 O   0  0  0  0  0  0  0  0  0  0  0  0
  132.0556   10.1858   72.3792 O   0  0  0  0  0  0  0  0  0  0  0  0
  131.7633    9.6565   73.6969 C   0  0  0  0  0  0  0  0  0  0  0  0
  133.5396   12.7829   74.5809 H   0  0  0  0  0  0  0  0  0  0  0  0
  133.6614    8.8678   75.3869 H   0  0  0  0  0  0  0  0  0  0  0  0
  135.2325   11.7005   71.4487 O   0  0  0  0  0  0  0  0  0  0  0  0
  133.8808   11.2349   71.2199 C   0  0  0  0  0  0  0  0  0  0  0  0
  135.7350   11.6539   70.6203 H   0  0  0  0  0  0  0  0  0  0  0  0
  130.3441    9.9475   74.2415 C   0  0  0  0  0  0  0  0  0  0  0  0
  130.2993   11.0802   75.0890 O   0  0  0  0  0  0  0  0  0  0  0  0
  130.8627   10.9269   75.8637 H   0  0  0  0  0  0  0  0  0  0  0  0
  135.8196    6.9157   74.8495 C   0  0  0  0  0  0  0  0  0  0  0  0
  135.9045    6.8730   76.2737 O   0  0  0  0  0  0  0  0  0  0  0  0
  137.1008    6.2131   76.6711 C   0  0  0  0  0  0  0  0  0  0  0  0
  138.2380    6.7905   75.9579 O   0  0  0  0  0  0  0  0  0  0  0  0
  138.5923    8.1536   76.2386 C   0  0  0  0  0  0  0  0  0  0  0  0
  138.9928    8.2344   77.7052 C   0  0  0  0  0  0  0  0  0  0  0  0
  140.0322    7.2503   77.9796 O   0  0  0  0  0  0  0  0  0  0  0  0
  137.7317    7.8510   78.5286 C   0  0  0  0  0  0  0  0  0  0  0  0
  138.0621    7.9173   79.8873 O   0  0  0  0  0  0  0  0  0  0  0  0
  137.2806    6.3938   78.2111 C   0  0  0  0  0  0  0  0  0  0  0  0
  136.0332    6.1524   78.8609 O   0  0  0  0  0  0  0  0  0  0  0  0
  139.7054    6.3644   77.7574 H   0  0  0  0  0  0  0  0  0  0  0  0
  138.7835    7.2967   80.0753 H   0  0  0  0  0  0  0  0  0  0  0  0
  135.3721    6.7837   78.5364 H   0  0  0  0  0  0  0  0  0  0  0  0
  139.6964    8.5929   75.2513 C   0  0  0  0  0  0  0  0  0  0  0  0
  140.7911    9.0971   76.0282 O   0  0  0  0  0  0  0  0  0  0  0  0
  140.4872    9.8423   76.5697 H   0  0  0  0  0  0  0  0  0  0  0  0
 23 24  1  0  0  0
 24 14  1  0  0  0
 14 15  1  0  0  0
 14 19  1  0  0  0
 15 16  1  0  0  0
 15 17  1  0  0  0
 17 18  1  0  0  0
 17 20  1  0  0  0
 19 20  1  0  0  0
 20 26  1  0  0  0
 20 13  1  0  0  0
 26 27  1  0  0  0
 13  1  1  0  0  0
  1  2  1  0  0  0
  1  9  1  0  0  0
  2  3  1  0  0  0
  2  4  1  0  0  0
  4  5  1  0  0  0
  4  6  1  0  0  0
  6  7  1  0  0  0
  6  8  1  0  0  0
  8  9  1  0  0  0
  8 29  1  0  0  0
 29 30  1  0  0  0
 30 31  1  0  0  0
 31 32  1  0  0  0
 31 38  1  0  0  0
 32 33  1  0  0  0
 33 43  1  0  0  0
 33 34  1  0  0  0
 43 44  1  0  0  0
 34 35  1  0  0  0
 34 36  1  0  0  0
 36 37  1  0  0  0
 36 38  1  0  0  0
 38 39  1  0  0  0
 23 25  1  0  0  0
 16 21  1  0  0  0
 18 22  1  0  0  0
 27 28  1  0  0  0
  3 10  1  0  0  0
  5 11  1  0  0  0
  7 12  1  0  0  0
 44 45  1  0  0  0
 35 40  1  0  0  0
 37 41  1  0  0  0
 39 42  1  0  0  0
M  END
> <minimizedAffinity>
-12.73135

$$$$
6EPY_RAF_A_701


 45 47  0  0  0  0  0  0  0  0999 V2000
  132.6939    9.2034   74.3852 C   0  0  0  0  0  0  0  0  0  0  0  0
  133.6173   10.4124   74.2027 C   0  0  0  0  0  0  0  0  0  0  0  0
  132.8974   11.3997   73.5222 O   0  0  0  0  0  0  0  0  0  0  0  0
  134.8808    9.9706   73.4364 C   0  0  0  0  0  0  0  0  0  0  0  0
  135.7840   11.0606   73.2743 O   0  0  0  0  0  0  0  0  0  0  0  0
  135.5616    8.8692   74.2694 C   0  0  0  0  0  0  0  0  0  0  0  0
  136.7951    8.4592   73.6974 O   0  0  0  0  0  0  0  0  0  0  0  0
  134.5921    7.6946   74.3622 C   0  0  0  0  0  0  0  0  0  0  0  0
  133.3784    8.1147   75.0528 O   0  0  0  0  0  0  0  0  0  0  0  0
  132.5970   11.0504   72.6686 H   0  0  0  0  0  0  0  0  0  0  0  0
  136.0432   11.3982   74.1460 H   0  0  0  0  0  0  0  0  0  0  0  0
  136.6376    8.1062   72.8078 H   0  0  0  0  0  0  0  0  0  0  0  0
  132.1847    8.7096   73.0955 O   0  0  0  0  0  0  0  0  0  0  0  0
  129.8793    6.5203   74.5441 C   0  0  0  0  0  0  0  0  0  0  0  0
  130.6893    5.7106   73.5100 C   0  0  0  0  0  0  0  0  0  0  0  0
  129.9685    4.5578   73.0450 O   0  0  0  0  0  0  0  0  0  0  0  0
  130.7229    6.7106   72.3805 C   0  0  0  0  0  0  0  0  0  0  0  0
  131.7958    6.4750   71.4510 O   0  0  0  0  0  0  0  0  0  0  0  0
  130.3380    7.8942   74.4027 O   0  0  0  0  0  0  0  0  0  0  0  0
  130.8186    8.0991   73.0502 C   0  0  0  0  0  0  0  0  0  0  0  0
  129.1077    4.8346   72.6939 H   0  0  0  0  0  0  0  0  0  0  0  0
  132.6449    6.5305   71.9166 H   0  0  0  0  0  0  0  0  0  0  0  0
  131.5860    6.2324   76.3442 O   0  0  0  0  0  0  0  0  0  0  0  0
  130.1815    6.1165   76.0124 C   0  0  0  0  0  0  0  0  0  0  0  0
  131.7227    5.9700   77.2680 H   0  0  0  0  0  0  0  0  0  0  0  0
  129.9408    9.0032   72.1518 C   0  0  0  0  0  0  0  0  0  0  0  0
  128.7775    8.3499   71.6796 O   0  0  0  0  0  0  0  0  0  0  0  0
  129.0326    7.5891   71.1346 H   0  0  0  0  0  0  0  0  0  0  0  0
  135.1732    6.5856   75.2280 C   0  0  0  0  0  0  0  0  0  0  0  0
  135.8932    7.1752   76.3103 O   0  0  0  0  0  0  0  0  0  0  0  0
  137.0354    6.3863   76.6230 C   0  0  0  0  0  0  0  0  0  0  0  0
  138.2029    6.9167   75.9223 O   0  0  0  0  0  0  0  0  0  0  0  0
  138.6819    8.2188   76.2931 C   0  0  0  0  0  0  0  0  0  0  0  0
  139.1203    8.1523   77.7495 C   0  0  0  0  0  0  0  0  0  0  0  0
  140.0749    7.0644   77.9200 O   0  0  0  0  0  0  0  0  0  0  0  0
  137.8490    7.8170   78.5781 C   0  0  0  0  0  0  0  0  0  0  0  0
  138.2140    7.7505   79.9279 O   0  0  0  0  0  0  0  0  0  0  0  0
  137.2646    6.4325   78.1663 C   0  0  0  0  0  0  0  0  0  0  0  0
  136.0155    6.2503   78.8320 O   0  0  0  0  0  0  0  0  0  0  0  0
  139.6667    6.2295   77.6421 H   0  0  0  0  0  0  0  0  0  0  0  0
  138.8821    7.0576   80.0485 H   0  0  0  0  0  0  0  0  0  0  0  0
  135.4055    6.9592   78.5745 H   0  0  0  0  0  0  0  0  0  0  0  0
  139.7981    8.6357   75.3098 C   0  0  0  0  0  0  0  0  0  0  0  0
  140.9019    9.1130   76.0909 O   0  0  0  0  0  0  0  0  0  0  0  0
  140.6134    9.8634   76.6336 H   0  0  0  0  0  0  0  0  0  0  0  0
 23 24  1  0  0  0
 24 14  1  0  0  0
 14 15  1  0  0  0
 14 19  1  0  0  0
 15 16  1  0  0  0
 15 17  1  0  0  0
 17 18  1  0  0  0
 17 20  1  0  0  0
 19 20  1  0  0  0
 20 26  1  0  0  0
 20 13  1  0  0  0
 26 27  1  0  0  0
 13  1  1  0  0  0
  1  2  1  0  0  0
  1  9  1  0  0  0
  2  3  1  0  0  0
  2  4  1  0  0  0
  4  5  1  0  0  0
  4  6  1  0  0  0
  6  7  1  0  0  0
  6  8  1  0  0  0
  8  9  1  0  0  0
  8 29  1  0  0  0
 29 30  1  0  0  0
 30 31  1  0  0  0
 31 32  1  0  0  0
 31 38  1  0  0  0
 32 33  1  0  0  0
 33 43  1  0  0  0
 33 34  1  0  0  0
 43 44  1  0  0  0
 34 35  1  0  0  0
 34 36  1  0  0  0
 36 37  1  0  0  0
 36 38  1  0  0  0
 38 39  1  0  0  0
 23 25  1  0  0  0
 16 21  1  0  0  0
 18 22  1  0  0  0
 27 28  1  0  0  0
  3 10  1  0  0  0
  5 11  1  0  0  0
  7 12  1  0  0  0
 44 45  1  0  0  0
 35 40  1  0  0  0
 37 41  1  0  0  0
 39 42  1  0  0  0
M  END
> <minimizedAffinity>
-12.72547

$$$$
6EPY_RAF_A_701


 45 47  0  0  0  0  0  0  0  0999 V2000
  132.5628    7.3309   73.0879 C   0  0  0  0  0  0  0  0  0  0  0  0
  132.2309    5.9025   72.6439 C   0  0  0  0  0  0  0  0  0  0  0  0
  130.8839    5.8750   72.2683 O   0  0  0  0  0  0  0  0  0  0  0  0
  132.5401    4.9302   73.8007 C   0  0  0  0  0  0  0  0  0  0  0  0
  132.2764    3.5836   73.4169 O   0  0  0  0  0  0  0  0  0  0  0  0
  134.0355    5.0769   74.1366 C   0  0  0  0  0  0  0  0  0  0  0  0
  134.4484    4.1489   75.1291 O   0  0  0  0  0  0  0  0  0  0  0  0
  134.2646    6.5099   74.6080 C   0  0  0  0  0  0  0  0  0  0  0  0
  133.9381    7.4378   73.5313 O   0  0  0  0  0  0  0  0  0  0  0  0
  130.3335    6.1507   73.0179 H   0  0  0  0  0  0  0  0  0  0  0  0
  132.8260    3.3519   72.6519 H   0  0  0  0  0  0  0  0  0  0  0  0
  133.9433    4.3001   75.9433 H   0  0  0  0  0  0  0  0  0  0  0  0
  131.6864    7.7764   74.1834 O   0  0  0  0  0  0  0  0  0  0  0  0
  132.4765   11.1628   73.8455 C   0  0  0  0  0  0  0  0  0  0  0  0
  132.6167   10.8090   75.3410 C   0  0  0  0  0  0  0  0  0  0  0  0
  132.4712   11.9640   76.1833 O   0  0  0  0  0  0  0  0  0  0  0  0
  131.3798    9.9623   75.5144 C   0  0  0  0  0  0  0  0  0  0  0  0
  131.4538    9.0827   76.6508 O   0  0  0  0  0  0  0  0  0  0  0  0
  131.9590    9.9593   73.2117 O   0  0  0  0  0  0  0  0  0  0  0  0
  131.2058    9.1940   74.1859 C   0  0  0  0  0  0  0  0  0  0  0  0
  131.6256   12.3991   75.9922 H   0  0  0  0  0  0  0  0  0  0  0  0
  132.2078    8.4816   76.5458 H   0  0  0  0  0  0  0  0  0  0  0  0
  134.7251   12.2394   73.9905 O   0  0  0  0  0  0  0  0  0  0  0  0
  133.8350   11.4604   73.1556 C   0  0  0  0  0  0  0  0  0  0  0  0
  135.5565   12.3982   73.5167 H   0  0  0  0  0  0  0  0  0  0  0  0
  129.6726    9.1597   73.9778 C   0  0  0  0  0  0  0  0  0  0  0  0
  129.2972    8.6196   72.7245 O   0  0  0  0  0  0  0  0  0  0  0  0
  129.6568    9.1726   72.0134 H   0  0  0  0  0  0  0  0  0  0  0  0
  135.7389    6.7500   74.9004 C   0  0  0  0  0  0  0  0  0  0  0  0
  135.9172    6.8573   76.3125 O   0  0  0  0  0  0  0  0  0  0  0  0
  137.1121    6.1918   76.7049 C   0  0  0  0  0  0  0  0  0  0  0  0
  138.2497    6.7679   75.9914 O   0  0  0  0  0  0  0  0  0  0  0  0
  138.6095    8.1287   76.2763 C   0  0  0  0  0  0  0  0  0  0  0  0
  139.0134    8.2026   77.7423 C   0  0  0  0  0  0  0  0  0  0  0  0
  140.0499    7.2139   78.0109 O   0  0  0  0  0  0  0  0  0  0  0  0
  137.7527    7.8206   78.5670 C   0  0  0  0  0  0  0  0  0  0  0  0
  138.0863    7.8808   79.9253 O   0  0  0  0  0  0  0  0  0  0  0  0
  137.2959    6.3662   78.2452 C   0  0  0  0  0  0  0  0  0  0  0  0
  136.0490    6.1268   78.8968 O   0  0  0  0  0  0  0  0  0  0  0  0
  139.7196    6.3300   77.7861 H   0  0  0  0  0  0  0  0  0  0  0  0
  138.8060    7.2570   80.1094 H   0  0  0  0  0  0  0  0  0  0  0  0
  135.3895    6.7617   78.5761 H   0  0  0  0  0  0  0  0  0  0  0  0
  139.7129    8.5677   75.2882 C   0  0  0  0  0  0  0  0  0  0  0  0
  140.8144    9.0574   76.0648 O   0  0  0  0  0  0  0  0  0  0  0  0
  140.5181    9.8005   76.6135 H   0  0  0  0  0  0  0  0  0  0  0  0
 23 24  1  0  0  0
 24 14  1  0  0  0
 14 15  1  0  0  0
 14 19  1  0  0  0
 15 16  1  0  0  0
 15 17  1  0  0  0
 17 18  1  0  0  0
 17 20  1  0  0  0
 19 20  1  0  0  0
 20 26  1  0  0  0
 20 13  1  0  0  0
 26 27  1  0  0  0
 13  1  1  0  0  0
  1  2  1  0  0  0
  1  9  1  0  0  0
  2  3  1  0  0  0
  2  4  1  0  0  0
  4  5  1  0  0  0
  4  6  1  0  0  0
  6  7  1  0  0  0
  6  8  1  0  0  0
  8  9  1  0  0  0
  8 29  1  0  0  0
 29 30  1  0  0  0
 30 31  1  0  0  0
 31 32  1  0  0  0
 31 38  1  0  0  0
 32 33  1  0  0  0
 33 43  1  0  0  0
 33 34  1  0  0  0
 43 44  1  0  0  0
 34 35  1  0  0  0
 34 36  1  0  0  0
 36 37  1  0  0  0
 36 38  1  0  0  0
 38 39  1  0  0  0
 23 25  1  0  0  0
 16 21  1  0  0  0
 18 22  1  0  0  0
 27 28  1  0  0  0
  3 10  1  0  0  0
  5 11  1  0  0  0
  7 12  1  0  0  0
 44 45  1  0  0  0
 35 40  1  0  0  0
 37 41  1  0  0  0
 39 42  1  0  0  0
M  END
> <minimizedAffinity>
-12.63890

$$$$
6EPY_RAF_A_701


 45 47  0  0  0  0  0  0  0  0999 V2000
  132.9964    7.3920   72.4897 C   0  0  0  0  0  0  0  0  0  0  0  0
  131.7106    6.6785   72.9203 C   0  0  0  0  0  0  0  0  0  0  0  0
  130.6353    7.3326   72.3103 O   0  0  0  0  0  0  0  0  0  0  0  0
  131.6151    6.6970   74.4597 C   0  0  0  0  0  0  0  0  0  0  0  0
  130.4474    6.0124   74.9047 O   0  0  0  0  0  0  0  0  0  0  0  0
  132.8621    5.9779   75.0059 C   0  0  0  0  0  0  0  0  0  0  0  0
  132.8237    5.8524   76.4200 O   0  0  0  0  0  0  0  0  0  0  0  0
  134.0855    6.7774   74.5674 C   0  0  0  0  0  0  0  0  0  0  0  0
  134.1619    6.7964   73.1112 O   0  0  0  0  0  0  0  0  0  0  0  0
  130.6304    8.2651   72.5775 H   0  0  0  0  0  0  0  0  0  0  0  0
  130.4761    5.0921   74.5994 H   0  0  0  0  0  0  0  0  0  0  0  0
  132.7877    6.7344   76.8220 H   0  0  0  0  0  0  0  0  0  0  0  0
  132.9658    8.8222   72.8365 O   0  0  0  0  0  0  0  0  0  0  0  0
  134.7696   11.6094   71.7481 C   0  0  0  0  0  0  0  0  0  0  0  0
  133.5139   12.1345   72.4753 C   0  0  0  0  0  0  0  0  0  0  0  0
  133.1562   13.4577   72.0442 O   0  0  0  0  0  0  0  0  0  0  0  0
  132.4853   11.1819   71.9174 C   0  0  0  0  0  0  0  0  0  0  0  0
  131.3085   11.0788   72.7389 O   0  0  0  0  0  0  0  0  0  0  0  0
  134.6203   10.1620   71.7178 O   0  0  0  0  0  0  0  0  0  0  0  0
  133.2100    9.8277   71.7548 C   0  0  0  0  0  0  0  0  0  0  0  0
  133.0457   13.4650   71.0805 H   0  0  0  0  0  0  0  0  0  0  0  0
  131.5565   10.7586   73.6203 H   0  0  0  0  0  0  0  0  0  0  0  0
  136.7430   10.6747   72.9598 O   0  0  0  0  0  0  0  0  0  0  0  0
  136.0873   11.8884   72.5200 C   0  0  0  0  0  0  0  0  0  0  0  0
  137.5577   10.9013   73.4349 H   0  0  0  0  0  0  0  0  0  0  0  0
  132.6195    9.2480   70.4469 C   0  0  0  0  0  0  0  0  0  0  0  0
  131.2996    9.6914   70.1928 O   0  0  0  0  0  0  0  0  0  0  0  0
  130.7160    9.3972   70.9096 H   0  0  0  0  0  0  0  0  0  0  0  0
  135.3664    6.0904   75.0194 C   0  0  0  0  0  0  0  0  0  0  0  0
  135.8052    6.6895   76.2385 O   0  0  0  0  0  0  0  0  0  0  0  0
  137.0250    6.0928   76.6633 C   0  0  0  0  0  0  0  0  0  0  0  0
  138.1379    6.6633   75.9074 O   0  0  0  0  0  0  0  0  0  0  0  0
  138.4497    8.0512   76.1044 C   0  0  0  0  0  0  0  0  0  0  0  0
  138.8575    8.2311   77.5602 C   0  0  0  0  0  0  0  0  0  0  0  0
  139.9301    7.2987   77.8827 O   0  0  0  0  0  0  0  0  0  0  0  0
  137.6152    7.8567   78.4157 C   0  0  0  0  0  0  0  0  0  0  0  0
  137.9528    8.0136   79.7653 O   0  0  0  0  0  0  0  0  0  0  0  0
  137.2096    6.3696   78.1884 C   0  0  0  0  0  0  0  0  0  0  0  0
  135.9752    6.1271   78.8622 O   0  0  0  0  0  0  0  0  0  0  0  0
  139.6309    6.3912   77.7157 H   0  0  0  0  0  0  0  0  0  0  0  0
  138.6953    7.4286   79.9830 H   0  0  0  0  0  0  0  0  0  0  0  0
  135.2917    6.7168   78.5072 H   0  0  0  0  0  0  0  0  0  0  0  0
  139.5320    8.4666   75.0833 C   0  0  0  0  0  0  0  0  0  0  0  0
  140.6508    8.9711   75.8250 O   0  0  0  0  0  0  0  0  0  0  0  0
  140.3675    9.7264   76.3637 H   0  0  0  0  0  0  0  0  0  0  0  0
 23 24  1  0  0  0
 24 14  1  0  0  0
 14 15  1  0  0  0
 14 19  1  0  0  0
 15 16  1  0  0  0
 15 17  1  0  0  0
 17 18  1  0  0  0
 17 20  1  0  0  0
 19 20  1  0  0  0
 20 26  1  0  0  0
 20 13  1  0  0  0
 26 27  1  0  0  0
 13  1  1  0  0  0
  1  2  1  0  0  0
  1  9  1  0  0  0
  2  3  1  0  0  0
  2  4  1  0  0  0
  4  5  1  0  0  0
  4  6  1  0  0  0
  6  7  1  0  0  0
  6  8  1  0  0  0
  8  9  1  0  0  0
  8 29  1  0  0  0
 29 30  1  0  0  0
 30 31  1  0  0  0
 31 32  1  0  0  0
 31 38  1  0  0  0
 32 33  1  0  0  0
 33 43  1  0  0  0
 33 34  1  0  0  0
 43 44  1  0  0  0
 34 35  1  0  0  0
 34 36  1  0  0  0
 36 37  1  0  0  0
 36 38  1  0  0  0
 38 39  1  0  0  0
 23 25  1  0  0  0
 16 21  1  0  0  0
 18 22  1  0  0  0
 27 28  1  0  0  0
  3 10  1  0  0  0
  5 11  1  0  0  0
  7 12  1  0  0  0
 44 45  1  0  0  0
 35 40  1  0  0  0
 37 41  1  0  0  0
 39 42  1  0  0  0
M  END
> <minimizedAffinity>
-12.25403

$$$$
6EPY_RAF_A_701


 45 47  0  0  0  0  0  0  0  0999 V2000
  132.5496    8.6374   75.2883 C   0  0  0  0  0  0  0  0  0  0  0  0
  132.6298   10.1277   74.9415 C   0  0  0  0  0  0  0  0  0  0  0  0
  131.3240   10.5928   74.7547 O   0  0  0  0  0  0  0  0  0  0  0  0
  133.5045   10.3062   73.6836 C   0  0  0  0  0  0  0  0  0  0  0  0
  133.6330   11.6844   73.3454 O   0  0  0  0  0  0  0  0  0  0  0  0
  134.8963    9.7329   74.0069 C   0  0  0  0  0  0  0  0  0  0  0  0
  135.8134    9.9375   72.9420 O   0  0  0  0  0  0  0  0  0  0  0  0
  134.7269    8.2442   74.2957 C   0  0  0  0  0  0  0  0  0  0  0  0
  133.8697    8.0660   75.4619 O   0  0  0  0  0  0  0  0  0  0  0  0
  130.8985   10.0857   74.0457 H   0  0  0  0  0  0  0  0  0  0  0  0
  134.0394   12.1623   74.0852 H   0  0  0  0  0  0  0  0  0  0  0  0
  135.4860    9.4942   72.1437 H   0  0  0  0  0  0  0  0  0  0  0  0
  131.8475    7.8740   74.2439 O   0  0  0  0  0  0  0  0  0  0  0  0
  132.4697    4.4361   74.2689 C   0  0  0  0  0  0  0  0  0  0  0  0
  131.7995    4.7684   72.9191 C   0  0  0  0  0  0  0  0  0  0  0  0
  131.1450    3.6242   72.3472 O   0  0  0  0  0  0  0  0  0  0  0  0
  130.7251    5.7127   73.3994 C   0  0  0  0  0  0  0  0  0  0  0  0
  130.2288    6.5765   72.3611 O   0  0  0  0  0  0  0  0  0  0  0  0
  132.4591    5.6819   75.0213 O   0  0  0  0  0  0  0  0  0  0  0  0
  131.3503    6.5006   74.5716 C   0  0  0  0  0  0  0  0  0  0  0  0
  130.5116    3.2611   72.9859 H   0  0  0  0  0  0  0  0  0  0  0  0
  130.9568    7.1143   72.0124 H   0  0  0  0  0  0  0  0  0  0  0  0
  134.4435    3.2774   75.2677 O   0  0  0  0  0  0  0  0  0  0  0  0
  133.9622    4.0321   74.1297 C   0  0  0  0  0  0  0  0  0  0  0  0
  135.3768    3.0497   75.1334 H   0  0  0  0  0  0  0  0  0  0  0  0
  130.1811    6.6619   75.5727 C   0  0  0  0  0  0  0  0  0  0  0  0
  129.1427    7.4883   75.0805 O   0  0  0  0  0  0  0  0  0  0  0  0
  129.4883    8.3800   74.9187 H   0  0  0  0  0  0  0  0  0  0  0  0
  136.0580    7.6179   74.6866 C   0  0  0  0  0  0  0  0  0  0  0  0
  136.0339    7.3174   76.0818 O   0  0  0  0  0  0  0  0  0  0  0  0
  137.1512    6.5060   76.4251 C   0  0  0  0  0  0  0  0  0  0  0  0
  138.3634    7.0670   75.8327 O   0  0  0  0  0  0  0  0  0  0  0  0
  138.8199    8.3441   76.3052 C   0  0  0  0  0  0  0  0  0  0  0  0
  139.1612    8.1955   77.7814 C   0  0  0  0  0  0  0  0  0  0  0  0
  140.1001    7.0943   77.9542 O   0  0  0  0  0  0  0  0  0  0  0  0
  137.8373    7.8228   78.5050 C   0  0  0  0  0  0  0  0  0  0  0  0
  138.1125    7.6805   79.8702 O   0  0  0  0  0  0  0  0  0  0  0  0
  137.2782    6.4664   77.9803 C   0  0  0  0  0  0  0  0  0  0  0  0
  135.9876    6.2554   78.5515 O   0  0  0  0  0  0  0  0  0  0  0  0
  139.7092    6.2783   77.6046 H   0  0  0  0  0  0  0  0  0  0  0  0
  138.7696    6.9781   79.9961 H   0  0  0  0  0  0  0  0  0  0  0  0
  135.3974    6.9808   78.2939 H   0  0  0  0  0  0  0  0  0  0  0  0
  139.9994    8.8075   75.4217 C   0  0  0  0  0  0  0  0  0  0  0  0
  139.9640    8.0312   74.2166 O   0  0  0  0  0  0  0  0  0  0  0  0
  140.0384    7.0893   74.4364 H   0  0  0  0  0  0  0  0  0  0  0  0
 23 24  1  0  0  0
 24 14  1  0  0  0
 14 15  1  0  0  0
 14 19  1  0  0  0
 15 16  1  0  0  0
 15 17  1  0  0  0
 17 18  1  0  0  0
 17 20  1  0  0  0
 19 20  1  0  0  0
 20 26  1  0  0  0
 20 13  1  0  0  0
 26 27  1  0  0  0
 13  1  1  0  0  0
  1  2  1  0  0  0
  1  9  1  0  0  0
  2  3  1  0  0  0
  2  4  1  0  0  0
  4  5  1  0  0  0
  4  6  1  0  0  0
  6  7  1  0  0  0
  6  8  1  0  0  0
  8  9  1  0  0  0
  8 29  1  0  0  0
 29 30  1  0  0  0
 30 31  1  0  0  0
 31 32  1  0  0  0
 31 38  1  0  0  0
 32 33  1  0  0  0
 33 43  1  0  0  0
 33 34  1  0  0  0
 43 44  1  0  0  0
 34 35  1  0  0  0
 34 36  1  0  0  0
 36 37  1  0  0  0
 36 38  1  0  0  0
 38 39  1  0  0  0
 23 25  1  0  0  0
 16 21  1  0  0  0
 18 22  1  0  0  0
 27 28  1  0  0  0
  3 10  1  0  0  0
  5 11  1  0  0  0
  7 12  1  0  0  0
 44 45  1  0  0  0
 35 40  1  0  0  0
 37 41  1  0  0  0
 39 42  1  0  0  0
M  END
> <minimizedAffinity>
-11.23567

$$$$
6EPY_RAF_A_701


 45 47  0  0  0  0  0  0  0  0999 V2000
  134.1814    8.8307   74.3599 C   0  0  0  0  0  0  0  0  0  0  0  0
  134.2628   10.1517   73.5878 C   0  0  0  0  0  0  0  0  0  0  0  0
  135.5816   10.3086   73.1493 O   0  0  0  0  0  0  0  0  0  0  0  0
  133.8070   11.3025   74.5083 C   0  0  0  0  0  0  0  0  0  0  0  0
  133.8356   12.5480   73.8168 O   0  0  0  0  0  0  0  0  0  0  0  0
  132.3616   10.9982   74.9426 C   0  0  0  0  0  0  0  0  0  0  0  0
  131.8092   12.0517   75.7184 O   0  0  0  0  0  0  0  0  0  0  0  0
  132.3826    9.6957   75.7372 C   0  0  0  0  0  0  0  0  0  0  0  0
  132.8488    8.6089   74.8838 O   0  0  0  0  0  0  0  0  0  0  0  0
  136.1789   10.3066   73.9135 H   0  0  0  0  0  0  0  0  0  0  0  0
  133.2464   12.5043   73.0475 H   0  0  0  0  0  0  0  0  0  0  0  0
  132.3417   12.1767   76.5196 H   0  0  0  0  0  0  0  0  0  0  0  0
  135.1324    8.7987   75.4828 O   0  0  0  0  0  0  0  0  0  0  0  0
  137.5276    7.1141   77.3886 C   0  0  0  0  0  0  0  0  0  0  0  0
  138.2834    8.1060   76.4797 C   0  0  0  0  0  0  0  0  0  0  0  0
  139.6436    7.7009   76.2549 O   0  0  0  0  0  0  0  0  0  0  0  0
  137.5272    7.8908   75.1918 C   0  0  0  0  0  0  0  0  0  0  0  0
  137.6524    8.9920   74.2741 O   0  0  0  0  0  0  0  0  0  0  0  0
  136.1316    7.2122   76.9890 O   0  0  0  0  0  0  0  0  0  0  0  0
  136.0612    7.6308   75.6027 C   0  0  0  0  0  0  0  0  0  0  0  0
  139.6576    6.7995   75.8970 H   0  0  0  0  0  0  0  0  0  0  0  0
  137.3045    9.7980   74.6867 H   0  0  0  0  0  0  0  0  0  0  0  0
  138.9064    7.8386   79.3406 O   0  0  0  0  0  0  0  0  0  0  0  0
  137.5718    7.5027   78.8910 C   0  0  0  0  0  0  0  0  0  0  0  0
  138.8811    8.0732   80.2814 H   0  0  0  0  0  0  0  0  0  0  0  0
  135.5812    6.5569   74.5970 C   0  0  0  0  0  0  0  0  0  0  0  0
  135.2817    5.3182   75.2127 O   0  0  0  0  0  0  0  0  0  0  0  0
  136.0819    4.9628   75.6302 H   0  0  0  0  0  0  0  0  0  0  0  0
  130.9732    9.2950   76.1494 C   0  0  0  0  0  0  0  0  0  0  0  0
  130.7208    7.9653   75.6960 O   0  0  0  0  0  0  0  0  0  0  0  0
  129.5563    7.9418   74.8786 C   0  0  0  0  0  0  0  0  0  0  0  0
  129.7376    8.8433   73.7430 O   0  0  0  0  0  0  0  0  0  0  0  0
  130.7404    8.5133   72.7694 C   0  0  0  0  0  0  0  0  0  0  0  0
  130.3477    7.1872   72.1329 C   0  0  0  0  0  0  0  0  0  0  0  0
  128.9865    7.2788   71.6203 O   0  0  0  0  0  0  0  0  0  0  0  0
  130.3678    6.1288   73.2707 C   0  0  0  0  0  0  0  0  0  0  0  0
  130.0135    4.8912   72.7204 O   0  0  0  0  0  0  0  0  0  0  0  0
  129.3295    6.4808   74.3777 C   0  0  0  0  0  0  0  0  0  0  0  0
  129.5048    5.5780   75.4690 O   0  0  0  0  0  0  0  0  0  0  0  0
  128.3832    7.5084   72.3443 H   0  0  0  0  0  0  0  0  0  0  0  0
  129.1245    4.9506   72.3368 H   0  0  0  0  0  0  0  0  0  0  0  0
  130.4058    5.6637   75.8180 H   0  0  0  0  0  0  0  0  0  0  0  0
  130.8685    9.6859   71.7718 C   0  0  0  0  0  0  0  0  0  0  0  0
  129.5498    9.9952   71.3011 O   0  0  0  0  0  0  0  0  0  0  0  0
  129.1664    9.2122   70.8758 H   0  0  0  0  0  0  0  0  0  0  0  0
 23 24  1  0  0  0
 24 14  1  0  0  0
 14 15  1  0  0  0
 14 19  1  0  0  0
 15 16  1  0  0  0
 15 17  1  0  0  0
 17 18  1  0  0  0
 17 20  1  0  0  0
 19 20  1  0  0  0
 20 26  1  0  0  0
 20 13  1  0  0  0
 26 27  1  0  0  0
 13  1  1  0  0  0
  1  2  1  0  0  0
  1  9  1  0  0  0
  2  3  1  0  0  0
  2  4  1  0  0  0
  4  5  1  0  0  0
  4  6  1  0  0  0
  6  7  1  0  0  0
  6  8  1  0  0  0
  8  9  1  0  0  0
  8 29  1  0  0  0
 29 30  1  0  0  0
 30 31  1  0  0  0
 31 32  1  0  0  0
 31 38  1  0  0  0
 32 33  1  0  0  0
 33 43  1  0  0  0
 33 34  1  0  0  0
 43 44  1  0  0  0
 34 35  1  0  0  0
 34 36  1  0  0  0
 36 37  1  0  0  0
 36 38  1  0  0  0
 38 39  1  0  0  0
 23 25  1  0  0  0
 16 21  1  0  0  0
 18 22  1  0  0  0
 27 28  1  0  0  0
  3 10  1  0  0  0
  5 11  1  0  0  0
  7 12  1  0  0  0
 44 45  1  0  0  0
 35 40  1  0  0  0
 37 41  1  0  0  0
 39 42  1  0  0  0
M  END
> <minimizedAffinity>
-11.13289

$$$$
6EPY_RAF_A_701


 45 47  0  0  0  0  0  0  0  0999 V2000
  133.0486    6.6242   74.3047 C   0  0  0  0  0  0  0  0  0  0  0  0
  134.2716    5.7208   74.4938 C   0  0  0  0  0  0  0  0  0  0  0  0
  133.8485    4.5637   75.1560 O   0  0  0  0  0  0  0  0  0  0  0  0
  135.3499    6.4908   75.2834 C   0  0  0  0  0  0  0  0  0  0  0  0
  136.5204    5.6960   75.4525 O   0  0  0  0  0  0  0  0  0  0  0  0
  135.7055    7.7480   74.4689 C   0  0  0  0  0  0  0  0  0  0  0  0
  136.7666    8.4811   75.0634 O   0  0  0  0  0  0  0  0  0  0  0  0
  134.4468    8.6046   74.3685 C   0  0  0  0  0  0  0  0  0  0  0  0
  133.4091    7.8685   73.6556 O   0  0  0  0  0  0  0  0  0  0  0  0
  133.4507    4.8054   76.0070 H   0  0  0  0  0  0  0  0  0  0  0  0
  136.8756    5.4544   74.5829 H   0  0  0  0  0  0  0  0  0  0  0  0
  136.5043    8.7659   75.9528 H   0  0  0  0  0  0  0  0  0  0  0  0
  132.4039    6.9412   75.5894 O   0  0  0  0  0  0  0  0  0  0  0  0
  129.7402    8.3104   73.7903 C   0  0  0  0  0  0  0  0  0  0  0  0
  130.4903    9.4825   74.4571 C   0  0  0  0  0  0  0  0  0  0  0  0
  129.6467   10.6328   74.6296 O   0  0  0  0  0  0  0  0  0  0  0  0
  130.7261    8.8841   75.8221 C   0  0  0  0  0  0  0  0  0  0  0  0
  131.8087    9.5110   76.5329 O   0  0  0  0  0  0  0  0  0  0  0  0
  130.3903    7.1058   74.2848 O   0  0  0  0  0  0  0  0  0  0  0  0
  130.9721    7.3779   75.5846 C   0  0  0  0  0  0  0  0  0  0  0  0
  128.8537   10.3804   75.1280 H   0  0  0  0  0  0  0  0  0  0  0  0
  132.6290    9.4130   76.0246 H   0  0  0  0  0  0  0  0  0  0  0  0
  129.4238    9.4923   71.6133 O   0  0  0  0  0  0  0  0  0  0  0  0
  129.8986    8.2798   72.2462 C   0  0  0  0  0  0  0  0  0  0  0  0
  129.5439    9.4243   70.6532 H   0  0  0  0  0  0  0  0  0  0  0  0
  130.2800    6.6966   76.7897 C   0  0  0  0  0  0  0  0  0  0  0  0
  130.4114    5.2875   76.7779 O   0  0  0  0  0  0  0  0  0  0  0  0
  129.9876    4.9299   75.9820 H   0  0  0  0  0  0  0  0  0  0  0  0
  134.7051    9.8415   73.5197 C   0  0  0  0  0  0  0  0  0  0  0  0
  133.7101    9.9159   72.4989 O   0  0  0  0  0  0  0  0  0  0  0  0
  132.9615   11.1183   72.6348 C   0  0  0  0  0  0  0  0  0  0  0  0
  133.8064   12.1571   73.2198 O   0  0  0  0  0  0  0  0  0  0  0  0
  134.9217   12.6354   72.4519 C   0  0  0  0  0  0  0  0  0  0  0  0
  134.3702   13.2741   71.1847 C   0  0  0  0  0  0  0  0  0  0  0  0
  133.3794   14.2820   71.5405 O   0  0  0  0  0  0  0  0  0  0  0  0
  133.6513   12.1432   70.3977 C   0  0  0  0  0  0  0  0  0  0  0  0
  133.1321   12.6944   69.2202 O   0  0  0  0  0  0  0  0  0  0  0  0
  132.4654   11.5578   71.2215 C   0  0  0  0  0  0  0  0  0  0  0  0
  131.9494   10.4208   70.5306 O   0  0  0  0  0  0  0  0  0  0  0  0
  132.6703   13.8696   72.0582 H   0  0  0  0  0  0  0  0  0  0  0  0
  132.5018   13.3974   69.4428 H   0  0  0  0  0  0  0  0  0  0  0  0
  132.6490    9.7556   70.4350 H   0  0  0  0  0  0  0  0  0  0  0  0
  135.7592   13.5883   73.3335 C   0  0  0  0  0  0  0  0  0  0  0  0
  136.3132   14.5931   72.4733 O   0  0  0  0  0  0  0  0  0  0  0  0
  136.8613   14.1704   71.7936 H   0  0  0  0  0  0  0  0  0  0  0  0
 23 24  1  0  0  0
 24 14  1  0  0  0
 14 15  1  0  0  0
 14 19  1  0  0  0
 15 16  1  0  0  0
 15 17  1  0  0  0
 17 18  1  0  0  0
 17 20  1  0  0  0
 19 20  1  0  0  0
 20 26  1  0  0  0
 20 13  1  0  0  0
 26 27  1  0  0  0
 13  1  1  0  0  0
  1  2  1  0  0  0
  1  9  1  0  0  0
  2  3  1  0  0  0
  2  4  1  0  0  0
  4  5  1  0  0  0
  4  6  1  0  0  0
  6  7  1  0  0  0
  6  8  1  0  0  0
  8  9  1  0  0  0
  8 29  1  0  0  0
 29 30  1  0  0  0
 30 31  1  0  0  0
 31 32  1  0  0  0
 31 38  1  0  0  0
 32 33  1  0  0  0
 33 43  1  0  0  0
 33 34  1  0  0  0
 43 44  1  0  0  0
 34 35  1  0  0  0
 34 36  1  0  0  0
 36 37  1  0  0  0
 36 38  1  0  0  0
 38 39  1  0  0  0
 23 25  1  0  0  0
 16 21  1  0  0  0
 18 22  1  0  0  0
 27 28  1  0  0  0
  3 10  1  0  0  0
  5 11  1  0  0  0
  7 12  1  0  0  0
 44 45  1  0  0  0
 35 40  1  0  0  0
 37 41  1  0  0  0
 39 42  1  0  0  0
M  END
> <minimizedAffinity>
-10.72643

$$$$
6EPY_RAF_A_701


 45 47  0  0  0  0  0  0  0  0999 V2000
  134.0412    6.7734   73.9643 C   0  0  0  0  0  0  0  0  0  0  0  0
  134.9927    5.7822   74.6425 C   0  0  0  0  0  0  0  0  0  0  0  0
  134.2141    4.7938   75.2533 O   0  0  0  0  0  0  0  0  0  0  0  0
  135.8776    6.5426   75.6514 C   0  0  0  0  0  0  0  0  0  0  0  0
  136.8025    5.6609   76.2816 O   0  0  0  0  0  0  0  0  0  0  0  0
  136.6552    7.6133   74.8645 C   0  0  0  0  0  0  0  0  0  0  0  0
  137.5787    8.3094   75.6888 O   0  0  0  0  0  0  0  0  0  0  0  0
  135.6355    8.5760   74.2630 C   0  0  0  0  0  0  0  0  0  0  0  0
  134.7703    7.8563   73.3357 O   0  0  0  0  0  0  0  0  0  0  0  0
  133.6140    5.2053   75.8947 H   0  0  0  0  0  0  0  0  0  0  0  0
  137.3684    5.2511   75.6087 H   0  0  0  0  0  0  0  0  0  0  0  0
  137.1005    8.7545   76.4058 H   0  0  0  0  0  0  0  0  0  0  0  0
  133.0865    7.3524   74.9235 O   0  0  0  0  0  0  0  0  0  0  0  0
  130.6468    5.4514   73.2986 C   0  0  0  0  0  0  0  0  0  0  0  0
  130.7231    6.8112   72.5732 C   0  0  0  0  0  0  0  0  0  0  0  0
  129.5024    7.1216   71.8816 O   0  0  0  0  0  0  0  0  0  0  0  0
  130.8128    7.7275   73.7687 C   0  0  0  0  0  0  0  0  0  0  0  0
  131.3759    9.0133   73.4524 O   0  0  0  0  0  0  0  0  0  0  0  0
  131.5472    5.5702   74.4358 O   0  0  0  0  0  0  0  0  0  0  0  0
  131.6444    6.9640   74.8229 C   0  0  0  0  0  0  0  0  0  0  0  0
  128.7597    7.0849   72.5044 H   0  0  0  0  0  0  0  0  0  0  0  0
  132.2740    8.8963   73.1051 H   0  0  0  0  0  0  0  0  0  0  0  0
  130.2294    3.1905   72.3238 O   0  0  0  0  0  0  0  0  0  0  0  0
  131.1856    4.2706   72.4468 C   0  0  0  0  0  0  0  0  0  0  0  0
  130.6116    2.4801   71.7851 H   0  0  0  0  0  0  0  0  0  0  0  0
  130.9726    7.3400   76.1655 C   0  0  0  0  0  0  0  0  0  0  0  0
  131.1017    8.7134   76.4822 O   0  0  0  0  0  0  0  0  0  0  0  0
  132.0410    8.9369   76.5751 H   0  0  0  0  0  0  0  0  0  0  0  0
  136.3293    9.6321   73.4143 C   0  0  0  0  0  0  0  0  0  0  0  0
  135.4174   10.7041   73.1762 O   0  0  0  0  0  0  0  0  0  0  0  0
  135.5243   11.1443   71.8273 C   0  0  0  0  0  0  0  0  0  0  0  0
  134.6066   10.3768   70.9882 O   0  0  0  0  0  0  0  0  0  0  0  0
  133.1959   10.5418   71.2003 C   0  0  0  0  0  0  0  0  0  0  0  0
  132.8500   11.9935   70.8989 C   0  0  0  0  0  0  0  0  0  0  0  0
  133.3252   12.3390   69.5651 O   0  0  0  0  0  0  0  0  0  0  0  0
  133.6294   12.8559   71.9304 C   0  0  0  0  0  0  0  0  0  0  0  0
  133.3326   14.2019   71.6852 O   0  0  0  0  0  0  0  0  0  0  0  0
  135.1671   12.6628   71.7698 C   0  0  0  0  0  0  0  0  0  0  0  0
  135.8246   13.3405   72.8398 O   0  0  0  0  0  0  0  0  0  0  0  0
  134.2828   12.1928   69.5151 H   0  0  0  0  0  0  0  0  0  0  0  0
  133.6053   14.4341   70.7838 H   0  0  0  0  0  0  0  0  0  0  0  0
  135.5291   12.9709   73.6866 H   0  0  0  0  0  0  0  0  0  0  0  0
  132.4395    9.5127   70.3311 C   0  0  0  0  0  0  0  0  0  0  0  0
  131.0442    9.6339   70.6388 O   0  0  0  0  0  0  0  0  0  0  0  0
  130.9057    9.4651   71.5839 H   0  0  0  0  0  0  0  0  0  0  0  0
 23 24  1  0  0  0
 24 14  1  0  0  0
 14 15  1  0  0  0
 14 19  1  0  0  0
 15 16  1  0  0  0
 15 17  1  0  0  0
 17 18  1  0  0  0
 17 20  1  0  0  0
 19 20  1  0  0  0
 20 26  1  0  0  0
 20 13  1  0  0  0
 26 27  1  0  0  0
 13  1  1  0  0  0
  1  2  1  0  0  0
  1  9  1  0  0  0
  2  3  1  0  0  0
  2  4  1  0  0  0
  4  5  1  0  0  0
  4  6  1  0  0  0
  6  7  1  0  0  0
  6  8  1  0  0  0
  8  9  1  0  0  0
  8 29  1  0  0  0
 29 30  1  0  0  0
 30 31  1  0  0  0
 31 32  1  0  0  0
 31 38  1  0  0  0
 32 33  1  0  0  0
 33 43  1  0  0  0
 33 34  1  0  0  0
 43 44  1  0  0  0
 34 35  1  0  0  0
 34 36  1  0  0  0
 36 37  1  0  0  0
 36 38  1  0  0  0
 38 39  1  0  0  0
 23 25  1  0  0  0
 16 21  1  0  0  0
 18 22  1  0  0  0
 27 28  1  0  0  0
  3 10  1  0  0  0
  5 11  1  0  0  0
  7 12  1  0  0  0
 44 45  1  0  0  0
 35 40  1  0  0  0
 37 41  1  0  0  0
 39 42  1  0  0  0
M  END
> <minimizedAffinity>
-10.67318

$$$$
6EPY_RAF_A_701


 45 47  0  0  0  0  0  0  0  0999 V2000
  131.5479    8.6541   74.1148 C   0  0  0  0  0  0  0  0  0  0  0  0
  130.2256    9.1403   73.5125 C   0  0  0  0  0  0  0  0  0  0  0  0
  129.1868    8.4748   74.1714 O   0  0  0  0  0  0  0  0  0  0  0  0
  130.2320    8.8661   71.9946 C   0  0  0  0  0  0  0  0  0  0  0  0
  129.0308    9.3350   71.3885 O   0  0  0  0  0  0  0  0  0  0  0  0
  131.4303    9.6249   71.3958 C   0  0  0  0  0  0  0  0  0  0  0  0
  131.4704    9.5182   69.9802 O   0  0  0  0  0  0  0  0  0  0  0  0
  132.6992    9.0486   72.0172 C   0  0  0  0  0  0  0  0  0  0  0  0
  132.6831    9.2706   73.4584 O   0  0  0  0  0  0  0  0  0  0  0  0
  129.2958    7.5172   74.0623 H   0  0  0  0  0  0  0  0  0  0  0  0
  128.9442   10.2894   71.5383 H   0  0  0  0  0  0  0  0  0  0  0  0
  131.5519    8.5850   69.7284 H   0  0  0  0  0  0  0  0  0  0  0  0
  131.6882    7.1927   74.0083 O   0  0  0  0  0  0  0  0  0  0  0  0
  134.7292    6.3312   75.4971 C   0  0  0  0  0  0  0  0  0  0  0  0
  134.4040    5.2373   74.4583 C   0  0  0  0  0  0  0  0  0  0  0  0
  135.0576    3.9944   74.7630 O   0  0  0  0  0  0  0  0  0  0  0  0
  132.9324    5.0565   74.7381 C   0  0  0  0  0  0  0  0  0  0  0  0
  132.2177    4.4668   73.6372 O   0  0  0  0  0  0  0  0  0  0  0  0
  133.5700    7.2112   75.5056 O   0  0  0  0  0  0  0  0  0  0  0  0
  132.3978    6.4589   75.1032 C   0  0  0  0  0  0  0  0  0  0  0  0
  134.8248    3.7189   75.6635 H   0  0  0  0  0  0  0  0  0  0  0  0
  132.2995    5.0365   72.8564 H   0  0  0  0  0  0  0  0  0  0  0  0
  135.5352    8.5176   74.5994 O   0  0  0  0  0  0  0  0  0  0  0  0
  135.9381    7.2185   75.0956 C   0  0  0  0  0  0  0  0  0  0  0  0
  136.3229    9.0320   74.3630 H   0  0  0  0  0  0  0  0  0  0  0  0
  131.3600    6.1796   76.2169 C   0  0  0  0  0  0  0  0  0  0  0  0
  130.0892    5.8179   75.7095 O   0  0  0  0  0  0  0  0  0  0  0  0
  129.7322    6.5486   75.1808 H   0  0  0  0  0  0  0  0  0  0  0  0
  133.9285    9.7946   71.5181 C   0  0  0  0  0  0  0  0  0  0  0  0
  133.7580   11.1882   71.7758 O   0  0  0  0  0  0  0  0  0  0  0  0
  134.7944   11.9310   71.1443 C   0  0  0  0  0  0  0  0  0  0  0  0
  134.2285   13.1215   70.5138 O   0  0  0  0  0  0  0  0  0  0  0  0
  133.6673   14.1354   71.3620 C   0  0  0  0  0  0  0  0  0  0  0  0
  134.7878   14.6760   72.2396 C   0  0  0  0  0  0  0  0  0  0  0  0
  135.8968   15.1091   71.3991 O   0  0  0  0  0  0  0  0  0  0  0  0
  135.2763   13.4872   73.1133 C   0  0  0  0  0  0  0  0  0  0  0  0
  136.3085   13.9489   73.9387 O   0  0  0  0  0  0  0  0  0  0  0  0
  135.8436   12.3393   72.2256 C   0  0  0  0  0  0  0  0  0  0  0  0
  136.1205   11.2146   73.0592 O   0  0  0  0  0  0  0  0  0  0  0  0
  136.2060   14.3630   70.8619 H   0  0  0  0  0  0  0  0  0  0  0  0
  137.0370   14.2803   73.3907 H   0  0  0  0  0  0  0  0  0  0  0  0
  135.3033   10.9259   73.4947 H   0  0  0  0  0  0  0  0  0  0  0  0
  132.9814   15.1995   70.4766 C   0  0  0  0  0  0  0  0  0  0  0  0
  132.1837   14.5036   69.5093 O   0  0  0  0  0  0  0  0  0  0  0  0
  132.7513   13.9202   68.9816 H   0  0  0  0  0  0  0  0  0  0  0  0
 23 24  1  0  0  0
 24 14  1  0  0  0
 14 15  1  0  0  0
 14 19  1  0  0  0
 15 16  1  0  0  0
 15 17  1  0  0  0
 17 18  1  0  0  0
 17 20  1  0  0  0
 19 20  1  0  0  0
 20 26  1  0  0  0
 20 13  1  0  0  0
 26 27  1  0  0  0
 13  1  1  0  0  0
  1  2  1  0  0  0
  1  9  1  0  0  0
  2  3  1  0  0  0
  2  4  1  0  0  0
  4  5  1  0  0  0
  4  6  1  0  0  0
  6  7  1  0  0  0
  6  8  1  0  0  0
  8  9  1  0  0  0
  8 29  1  0  0  0
 29 30  1  0  0  0
 30 31  1  0  0  0
 31 32  1  0  0  0
 31 38  1  0  0  0
 32 33  1  0  0  0
 33 43  1  0  0  0
 33 34  1  0  0  0
 43 44  1  0  0  0
 34 35  1  0  0  0
 34 36  1  0  0  0
 36 37  1  0  0  0
 36 38  1  0  0  0
 38 39  1  0  0  0
 23 25  1  0  0  0
 16 21  1  0  0  0
 18 22  1  0  0  0
 27 28  1  0  0  0
  3 10  1  0  0  0
  5 11  1  0  0  0
  7 12  1  0  0  0
 44 45  1  0  0  0
 35 40  1  0  0  0
 37 41  1  0  0  0
 39 42  1  0  0  0
M  END
> <minimizedAffinity>
-10.51958

$$$$
6EPY_RAF_A_701


 45 47  0  0  0  0  0  0  0  0999 V2000
  132.9065    7.6362   72.1639 C   0  0  0  0  0  0  0  0  0  0  0  0
  131.9689    6.4800   71.8011 C   0  0  0  0  0  0  0  0  0  0  0  0
  130.9546    6.9932   70.9863 O   0  0  0  0  0  0  0  0  0  0  0  0
  131.4210    5.8493   73.0977 C   0  0  0  0  0  0  0  0  0  0  0  0
  130.5686    4.7456   72.8052 O   0  0  0  0  0  0  0  0  0  0  0  0
  132.6289    5.3533   73.9133 C   0  0  0  0  0  0  0  0  0  0  0  0
  132.2271    4.6637   75.0880 O   0  0  0  0  0  0  0  0  0  0  0  0
  133.4796    6.5702   74.2653 C   0  0  0  0  0  0  0  0  0  0  0  0
  133.9708    7.1946   73.0424 O   0  0  0  0  0  0  0  0  0  0  0  0
  130.4839    7.6965   71.4604 H   0  0  0  0  0  0  0  0  0  0  0  0
  131.0660    4.0749   72.3115 H   0  0  0  0  0  0  0  0  0  0  0  0
  131.7105    5.2601   75.6523 H   0  0  0  0  0  0  0  0  0  0  0  0
  132.1836    8.7339   72.8267 O   0  0  0  0  0  0  0  0  0  0  0  0
  134.2586   11.4105   71.9688 C   0  0  0  0  0  0  0  0  0  0  0  0
  133.7991   11.6381   73.4242 C   0  0  0  0  0  0  0  0  0  0  0  0
  133.8565   13.0249   73.7961 O   0  0  0  0  0  0  0  0  0  0  0  0
  132.3435   11.2647   73.2880 C   0  0  0  0  0  0  0  0  0  0  0  0
  131.7347   10.9038   74.5408 O   0  0  0  0  0  0  0  0  0  0  0  0
  133.5399   10.2279   71.5183 O   0  0  0  0  0  0  0  0  0  0  0  0
  132.2986   10.1141   72.2587 C   0  0  0  0  0  0  0  0  0  0  0  0
  133.3380   13.5502   73.1666 H   0  0  0  0  0  0  0  0  0  0  0  0
  132.1989   10.1400   74.9177 H   0  0  0  0  0  0  0  0  0  0  0  0
  136.5800   11.7793   72.8121 O   0  0  0  0  0  0  0  0  0  0  0  0
  135.7678   11.0666   71.8485 C   0  0  0  0  0  0  0  0  0  0  0  0
  137.5107   11.5313   72.6968 H   0  0  0  0  0  0  0  0  0  0  0  0
  131.0053   10.3891   71.4542 C   0  0  0  0  0  0  0  0  0  0  0  0
  129.8672    9.7519   72.0035 O   0  0  0  0  0  0  0  0  0  0  0  0
  129.9971    8.7907   71.9909 H   0  0  0  0  0  0  0  0  0  0  0  0
  134.7314    6.1497   75.0223 C   0  0  0  0  0  0  0  0  0  0  0  0
  135.8414    6.9001   74.5303 O   0  0  0  0  0  0  0  0  0  0  0  0
  136.1712    7.9391   75.4449 C   0  0  0  0  0  0  0  0  0  0  0  0
  136.3246    7.3795   76.7860 O   0  0  0  0  0  0  0  0  0  0  0  0
  137.4148    6.4751   77.0221 C   0  0  0  0  0  0  0  0  0  0  0  0
  138.7096    7.2410   76.7880 C   0  0  0  0  0  0  0  0  0  0  0  0
  138.7133    8.4491   77.6033 O   0  0  0  0  0  0  0  0  0  0  0  0
  138.7074    7.6644   75.2927 C   0  0  0  0  0  0  0  0  0  0  0  0
  139.8889    8.3712   75.0386 O   0  0  0  0  0  0  0  0  0  0  0  0
  137.5048    8.6050   74.9815 C   0  0  0  0  0  0  0  0  0  0  0  0
  137.4540    8.8268   73.5727 O   0  0  0  0  0  0  0  0  0  0  0  0
  137.9426    8.9934   77.3782 H   0  0  0  0  0  0  0  0  0  0  0  0
  139.9244    9.1566   75.6068 H   0  0  0  0  0  0  0  0  0  0  0  0
  137.3405    7.9787   73.1158 H   0  0  0  0  0  0  0  0  0  0  0  0
  137.2714    5.8848   78.4426 C   0  0  0  0  0  0  0  0  0  0  0  0
  135.9701    6.2433   78.9269 O   0  0  0  0  0  0  0  0  0  0  0  0
  135.8839    7.2094   78.9375 H   0  0  0  0  0  0  0  0  0  0  0  0
 23 24  1  0  0  0
 24 14  1  0  0  0
 14 15  1  0  0  0
 14 19  1  0  0  0
 15 16  1  0  0  0
 15 17  1  0  0  0
 17 18  1  0  0  0
 17 20  1  0  0  0
 19 20  1  0  0  0
 20 26  1  0  0  0
 20 13  1  0  0  0
 26 27  1  0  0  0
 13  1  1  0  0  0
  1  2  1  0  0  0
  1  9  1  0  0  0
  2  3  1  0  0  0
  2  4  1  0  0  0
  4  5  1  0  0  0
  4  6  1  0  0  0
  6  7  1  0  0  0
  6  8  1  0  0  0
  8  9  1  0  0  0
  8 29  1  0  0  0
 29 30  1  0  0  0
 30 31  1  0  0  0
 31 32  1  0  0  0
 31 38  1  0  0  0
 32 33  1  0  0  0
 33 43  1  0  0  0
 33 34  1  0  0  0
 43 44  1  0  0  0
 34 35  1  0  0  0
 34 36  1  0  0  0
 36 37  1  0  0  0
 36 38  1  0  0  0
 38 39  1  0  0  0
 23 25  1  0  0  0
 16 21  1  0  0  0
 18 22  1  0  0  0
 27 28  1  0  0  0
  3 10  1  0  0  0
  5 11  1  0  0  0
  7 12  1  0  0  0
 44 45  1  0  0  0
 35 40  1  0  0  0
 37 41  1  0  0  0
 39 42  1  0  0  0
M  END
> <minimizedAffinity>
-10.41524

$$$$
