6EPY_RAF_A_701
  RCSB PDB04141810333D
Coordinates from PDB:6EPY:A:701 Model:1 without hydrogens
 34 36  0  0  0  0            999 V2000
  132.9510    9.5630   70.6300   O 0  0  0  0  0  0  0  0  0  0  0  0
  132.6090   10.8810   71.1220   C 0  0  0  0  0  0  0  0  0  0  0  0
  132.4150   10.9120   72.6620   C 0  0  0  0  0  0  0  0  0  0  0  0
  133.7130   10.6260   73.4460   C 0  0  0  0  0  0  0  0  0  0  0  0
  134.4100   11.8340   73.7920   O 0  0  0  0  0  0  0  0  0  0  0  0
  133.1200   10.0650   74.7150   C 0  0  0  0  0  0  0  0  0  0  0  0
  134.0480    9.2580   75.4620   O 0  0  0  0  0  0  0  0  0  0  0  0
  131.5230    9.8060   72.9770   O 0  0  0  0  0  0  0  0  0  0  0  0
  131.8680    9.2720   74.2800   C 0  0  0  0  0  0  0  0  0  0  0  0
  130.8480    9.5430   75.4120   C 0  0  0  0  0  0  0  0  0  0  0  0
  129.5410    9.1020   75.0950   O 0  0  0  0  0  0  0  0  0  0  0  0
  132.0370    7.7880   74.1800   O 0  0  0  0  0  0  0  0  0  0  0  0
  132.8730    7.2450   73.0970   C 0  0  0  0  0  0  0  0  0  0  0  0
  132.3920    5.8600   72.6520   C 0  0  0  0  0  0  0  0  0  0  0  0
  131.0550    5.9790   72.2590   O 0  0  0  0  0  0  0  0  0  0  0  0
  132.5780    4.8640   73.8150   C 0  0  0  0  0  0  0  0  0  0  0  0
  132.1730    3.5530   73.4310   O 0  0  0  0  0  0  0  0  0  0  0  0
  134.0760    4.8470   74.1700   C 0  0  0  0  0  0  0  0  0  0  0  0
  134.3720    3.8830   75.1700   O 0  0  0  0  0  0  0  0  0  0  0  0
  134.4550    6.2480   74.6410   C 0  0  0  0  0  0  0  0  0  0  0  0
  134.2460    7.2020   73.5580   O 0  0  0  0  0  0  0  0  0  0  0  0
  135.9430    6.3260   74.9520   C 0  0  0  0  0  0  0  0  0  0  0  0
  136.1090    6.6550   76.3310   O 0  0  0  0  0  0  0  0  0  0  0  0
  137.3380    6.1250   76.8140   C 0  0  0  0  0  0  0  0  0  0  0  0
  138.4540    6.7910   76.1460   O 0  0  0  0  0  0  0  0  0  0  0  0
  138.6600    8.1890   76.4020   C 0  0  0  0  0  0  0  0  0  0  0  0
  139.7720    8.7070   75.4630   C 0  0  0  0  0  0  0  0  0  0  0  0
  139.4140    8.3320   74.1260   O 0  0  0  0  0  0  0  0  0  0  0  0
  138.9660    8.3470   77.8850   C 0  0  0  0  0  0  0  0  0  0  0  0
  140.0770    7.4760   78.2470   O 0  0  0  0  0  0  0  0  0  0  0  0
  137.7020    7.8650   78.6500   C 0  0  0  0  0  0  0  0  0  0  0  0
  137.9460    7.9990   80.0220   O 0  0  0  0  0  0  0  0  0  0  0  0
  137.4110    6.3630   78.3550   C 0  0  0  0  0  0  0  0  0  0  0  0
  136.1570    6.0190   78.9430   O 0  0  0  0  0  0  0  0  0  0  0  0
  1  2  1  0  0  0  0
  2  3  1  0  0  0  0
  3  4  1  0  0  0  0
  3  8  1  0  0  0  0
  4  5  1  0  0  0  0
  4  6  1  0  0  0  0
  6  7  1  0  0  0  0
  6  9  1  0  0  0  0
  8  9  1  0  0  0  0
  9 10  1  0  0  0  0
  9 12  1  0  0  0  0
 10 11  1  0  0  0  0
 12 13  1  0  0  0  0
 13 14  1  0  0  0  0
 13 21  1  0  0  0  0
 14 15  1  0  0  0  0
 14 16  1  0  0  0  0
 16 17  1  0  0  0  0
 16 18  1  0  0  0  0
 18 19  1  0  0  0  0
 18 20  1  0  0  0  0
 20 21  1  0  0  0  0
 20 22  1  0  0  0  0
 22 23  1  0  0  0  0
 23 24  1  0  0  0  0
 24 25  1  0  0  0  0
 24 33  1  0  0  0  0
 25 26  1  0  0  0  0
 26 27  1  0  0  0  0
 26 29  1  0  0  0  0
 27 28  1  0  0  0  0
 29 30  1  0  0  0  0
 29 31  1  0  0  0  0
 31 32  1  0  0  0  0
 31 33  1  0  0  0  0
 33 34  1  0  0  0  0
A    1
O6'
A    2
C6'
A    3
C5'
A    4
C4'
A    5
O4'
A    6
C3'
A    7
O3'
A    8
O2'
A    9
C2'
A   10
C1'
A   11
O1'
A   12
O1
A   13
C1
A   14
C2
A   15
O2
A   16
C3
A   17
O3
A   18
C4
A   19
O4
A   20
C5
A   21
O5
A   22
C6
A   23
O6
A   24
C1X
A   25
O5X
A   26
C5X
A   27
C6X
A   28
O6X
A   29
C4X
A   30
O4X
A   31
C3X
A   32
O3X
A   33
C2X
A   34
O2X
M  END
>  <InstanceId>
6EPY_RAF_A_701

>  <ChemCompId>
RAF

>  <PdbId>
6EPY

>  <ChainId>
A

>  <ResidueNumber>
701

>  <InsertionCode>


>  <Model>
1

>  <AltIds>


>  <MissingHeavyAtoms>
0

>  <ObservedFormula>
C18 O16

>  <Name>
raffinose

>  <SystematicName>
(2S,3R,4S,5R,6R)-2-[[(2R,3S,4S,5R,6R)-6-[(2S,3S,4S,5R)-2,5-bis(hydroxymethyl)-3,4-bis(oxidanyl)oxolan-2-yl]oxy-3,4,5-tris(oxidanyl)oxan-2-yl]methoxy]-6-(hydroxymethyl)oxane-3,4,5-triol

>  <Synonyms>


>  <Type>
D-saccharide

>  <Formula>
C18 H32 O16

>  <MolecularWeight>
504.437

>  <ModifiedDate>
2012-05-16

>  <Parent>


>  <OneLetterCode>


>  <SubcomponentList>


>  <AmbiguousFlag>
N

>  <InChI>
InChI=1S/C18H32O16/c19-1-5-8(22)11(25)13(27)16(31-5)30-3-7-9(23)12(26)14(28)17(32-7)34-18(4-21)15(29)10(24)6(2-20)33-18/h5-17,19-29H,1-4H2/t5-,6-,7-,8+,9-,10-,11+,12+,13-,14-,15+,16+,17-,18+/m1/s1

>  <InChIKey>
MUPFEKGTMRGPLJ-ZQSKZDJDSA-N

>  <SMILES>
C([C@@H]1[C@@H]([C@@H]([C@H]([C@H](O1)OC[C@@H]2[C@H]([C@@H]([C@H]([C@H](O2)O[C@]3([C@H]([C@@H]([C@H](O3)CO)O)O)CO)O)O)O)O)O)O)O

$$$$
