3C79_IM4_A_301


 18 19  0  0  0  0  0  0  0  0999 V2000
   53.7988  -24.2705   -1.3435 N   0  0  0  0  0  0  0  0  0  0  0  0
   54.9479  -24.5228   -0.4951 C   0  0  0  0  0  0  0  0  0  0  0  0
   54.4332  -25.5120    0.5831 C   0  0  0  0  0  0  0  0  0  0  0  0
   53.0487  -25.7148    0.1901 N   0  0  0  0  0  0  0  0  0  0  0  0
   52.7663  -24.9682   -0.8892 C   0  0  0  0  0  0  0  0  0  0  0  0
   51.5848  -24.9510   -1.5201 N   0  0  0  0  0  0  0  0  0  0  0  0
   52.4126  -26.3110    0.6475 H   0  0  0  0  0  0  0  0  0  0  0  0
   50.6559  -25.6256   -1.0624 N   0  0  0  0  0  0  0  0  0  0  0  0
   49.3444  -25.0224   -0.4401 O   0  0  0  0  0  0  0  0  0  0  0  0
   50.8027  -27.0556   -1.1516 O   0  0  0  0  0  0  0  0  0  0  0  0
   53.7571  -23.3881   -2.5192 C   0  0  0  0  0  0  0  0  0  0  0  0
   54.1321  -21.1957   -1.1942 C   0  0  0  0  0  0  0  0  0  0  0  0
   54.7651  -19.9294   -0.9698 C   0  0  0  0  0  0  0  0  0  0  0  0
   55.7432  -19.4520   -1.8128 C   0  0  0  0  0  0  0  0  0  0  0  0
   56.4870  -18.1396   -1.6204 Cl  0  0  0  0  0  0  0  0  0  0  0  0
   55.9641  -20.2783   -2.8979 N   0  0  0  0  0  0  0  0  0  0  0  0
   55.4083  -21.4796   -3.1245 C   0  0  0  0  0  0  0  0  0  0  0  0
   54.4640  -22.0182   -2.2511 C   0  0  0  0  0  0  0  0  0  0  0  0
 12 18  1  0  0  0
 13 12  2  0  0  0
 13 14  1  0  0  0
 14 16  2  0  0  0
 15 14  1  0  0  0
 16 17  1  0  0  0
 18 17  2  0  0  0
 18 11  1  0  0  0
 11  1  1  0  0  0
  1  5  1  0  0  0
  1  2  1  0  0  0
  2  3  1  0  0  0
  4  3  1  0  0  0
  5  4  1  0  0  0
  6  5  2  0  0  0
  6  8  1  0  0  0
  8 10  1  0  0  0
  9  8  2  0  0  0
  4  7  1  0  0  0
M  CHG 1   8   1
M  CHG 1  10  -1
M  END
> <minimizedAffinity>
-8.39301

$$$$
3C79_IM4_A_301


 18 19  0  0  0  0  0  0  0  0999 V2000
   55.4500  -20.7012   -2.8677 N   0  0  0  0  0  0  0  0  0  0  0  0
   55.4722  -19.6154   -1.9063 C   0  0  0  0  0  0  0  0  0  0  0  0
   54.7163  -20.1675   -0.6694 C   0  0  0  0  0  0  0  0  0  0  0  0
   54.3787  -21.5192   -1.0834 N   0  0  0  0  0  0  0  0  0  0  0  0
   54.8094  -21.7340   -2.3365 C   0  0  0  0  0  0  0  0  0  0  0  0
   54.6842  -22.8903   -3.0012 N   0  0  0  0  0  0  0  0  0  0  0  0
   53.9047  -22.1790   -0.5274 H   0  0  0  0  0  0  0  0  0  0  0  0
   54.0864  -23.8264   -2.4594 N   0  0  0  0  0  0  0  0  0  0  0  0
   52.5236  -23.9152   -2.3142 O   0  0  0  0  0  0  0  0  0  0  0  0
   54.9039  -24.9064   -1.9698 O   0  0  0  0  0  0  0  0  0  0  0  0
   56.0321  -20.6852   -4.2181 C   0  0  0  0  0  0  0  0  0  0  0  0
   55.0623  -20.7276   -6.6182 C   0  0  0  0  0  0  0  0  0  0  0  0
   54.1069  -20.3513   -7.6183 C   0  0  0  0  0  0  0  0  0  0  0  0
   53.0444  -19.5257   -7.3271 C   0  0  0  0  0  0  0  0  0  0  0  0
   51.9702  -19.1138   -8.3216 Cl  0  0  0  0  0  0  0  0  0  0  0  0
   53.0672  -19.0637   -6.0252 N   0  0  0  0  0  0  0  0  0  0  0  0
   53.9307  -19.4151   -5.0586 C   0  0  0  0  0  0  0  0  0  0  0  0
   54.9769  -20.3026   -5.3083 C   0  0  0  0  0  0  0  0  0  0  0  0
 12 18  1  0  0  0
 13 12  2  0  0  0
 13 14  1  0  0  0
 14 16  2  0  0  0
 15 14  1  0  0  0
 16 17  1  0  0  0
 18 17  2  0  0  0
 18 11  1  0  0  0
 11  1  1  0  0  0
  1  5  1  0  0  0
  1  2  1  0  0  0
  2  3  1  0  0  0
  4  3  1  0  0  0
  5  4  1  0  0  0
  6  5  2  0  0  0
  6  8  1  0  0  0
  8 10  1  0  0  0
  9  8  2  0  0  0
  4  7  1  0  0  0
M  CHG 1   8   1
M  CHG 1  10  -1
M  END
> <minimizedAffinity>
-7.55263

$$$$
3C79_IM4_A_301


 18 19  0  0  0  0  0  0  0  0999 V2000
   54.3041  -19.7458   -5.2218 N   0  0  0  0  0  0  0  0  0  0  0  0
   55.4480  -20.3740   -5.8546 C   0  0  0  0  0  0  0  0  0  0  0  0
   55.1329  -20.3302   -7.3728 C   0  0  0  0  0  0  0  0  0  0  0  0
   53.8468  -19.6542   -7.4087 N   0  0  0  0  0  0  0  0  0  0  0  0
   53.4418  -19.3763   -6.1594 C   0  0  0  0  0  0  0  0  0  0  0  0
   52.3118  -18.7281   -5.8474 N   0  0  0  0  0  0  0  0  0  0  0  0
   53.3470  -19.4329   -8.2276 H   0  0  0  0  0  0  0  0  0  0  0  0
   51.5451  -18.3967   -6.7582 N   0  0  0  0  0  0  0  0  0  0  0  0
   51.6914  -18.8598   -8.2534 O   0  0  0  0  0  0  0  0  0  0  0  0
   50.4359  -17.5577   -6.3839 O   0  0  0  0  0  0  0  0  0  0  0  0
   54.1058  -19.5420   -3.7789 C   0  0  0  0  0  0  0  0  0  0  0  0
   53.7847  -22.0911   -3.4596 C   0  0  0  0  0  0  0  0  0  0  0  0
   53.8760  -23.3072   -2.7063 C   0  0  0  0  0  0  0  0  0  0  0  0
   54.4079  -23.3314   -1.4367 C   0  0  0  0  0  0  0  0  0  0  0  0
   54.5739  -24.5847   -0.5915 Cl  0  0  0  0  0  0  0  0  0  0  0  0
   54.7492  -22.0745   -0.9757 N   0  0  0  0  0  0  0  0  0  0  0  0
   54.7002  -20.9216   -1.6625 C   0  0  0  0  0  0  0  0  0  0  0  0
   54.2290  -20.8783   -2.9743 C   0  0  0  0  0  0  0  0  0  0  0  0
 12 18  1  0  0  0
 13 12  2  0  0  0
 13 14  1  0  0  0
 14 16  2  0  0  0
 15 14  1  0  0  0
 16 17  1  0  0  0
 18 17  2  0  0  0
 18 11  1  0  0  0
 11  1  1  0  0  0
  1  5  1  0  0  0
  1  2  1  0  0  0
  2  3  1  0  0  0
  4  3  1  0  0  0
  5  4  1  0  0  0
  6  5  2  0  0  0
  6  8  1  0  0  0
  8 10  1  0  0  0
  9  8  2  0  0  0
  4  7  1  0  0  0
M  CHG 1   8   1
M  CHG 1  10  -1
M  END
> <minimizedAffinity>
-6.70909

$$$$
3C79_IM4_A_301


 18 19  0  0  0  0  0  0  0  0999 V2000
   55.2628  -20.9727   -3.6783 N   0  0  0  0  0  0  0  0  0  0  0  0
   54.4214  -22.0858   -3.2825 C   0  0  0  0  0  0  0  0  0  0  0  0
   54.2364  -21.9162   -1.7518 C   0  0  0  0  0  0  0  0  0  0  0  0
   54.9857  -20.7018   -1.4760 N   0  0  0  0  0  0  0  0  0  0  0  0
   55.5468  -20.2446   -2.6067 C   0  0  0  0  0  0  0  0  0  0  0  0
   56.2766  -19.1253   -2.7008 N   0  0  0  0  0  0  0  0  0  0  0  0
   55.0694  -20.2775   -0.5916 H   0  0  0  0  0  0  0  0  0  0  0  0
   56.5060  -18.4765   -1.6743 N   0  0  0  0  0  0  0  0  0  0  0  0
   55.7344  -18.6613   -0.3172 O   0  0  0  0  0  0  0  0  0  0  0  0
   57.5801  -17.5200   -1.7516 O   0  0  0  0  0  0  0  0  0  0  0  0
   55.7401  -20.6779   -5.0377 C   0  0  0  0  0  0  0  0  0  0  0  0
   54.3857  -20.8312   -7.2388 C   0  0  0  0  0  0  0  0  0  0  0  0
   53.3298  -20.4301   -8.1213 C   0  0  0  0  0  0  0  0  0  0  0  0
   52.4392  -19.4383   -7.7770 C   0  0  0  0  0  0  0  0  0  0  0  0
   51.2723  -18.9847   -8.6403 Cl  0  0  0  0  0  0  0  0  0  0  0  0
   52.7349  -18.8523   -6.5611 N   0  0  0  0  0  0  0  0  0  0  0  0
   53.6983  -19.2197   -5.7007 C   0  0  0  0  0  0  0  0  0  0  0  0
   54.5724  -20.2658   -5.9942 C   0  0  0  0  0  0  0  0  0  0  0  0
 12 18  1  0  0  0
 13 12  2  0  0  0
 13 14  1  0  0  0
 14 16  2  0  0  0
 15 14  1  0  0  0
 16 17  1  0  0  0
 18 17  2  0  0  0
 18 11  1  0  0  0
 11  1  1  0  0  0
  1  5  1  0  0  0
  1  2  1  0  0  0
  2  3  1  0  0  0
  4  3  1  0  0  0
  5  4  1  0  0  0
  6  5  2  0  0  0
  6  8  1  0  0  0
  8 10  1  0  0  0
  9  8  2  0  0  0
  4  7  1  0  0  0
M  CHG 1   8   1
M  CHG 1  10  -1
M  END
> <minimizedAffinity>
-6.49289

$$$$
3C79_IM4_A_301


 18 19  0  0  0  0  0  0  0  0999 V2000
   54.0661  -20.1708   -3.1970 N   0  0  0  0  0  0  0  0  0  0  0  0
   53.6199  -21.4883   -2.7863 C   0  0  0  0  0  0  0  0  0  0  0  0
   54.4732  -21.8218   -1.5346 C   0  0  0  0  0  0  0  0  0  0  0  0
   55.2868  -20.6275   -1.3799 N   0  0  0  0  0  0  0  0  0  0  0  0
   55.0113  -19.7566   -2.3637 C   0  0  0  0  0  0  0  0  0  0  0  0
   55.5669  -18.5444   -2.4906 N   0  0  0  0  0  0  0  0  0  0  0  0
   55.9424  -20.4792   -0.6606 H   0  0  0  0  0  0  0  0  0  0  0  0
   56.4372  -18.2012   -1.6831 N   0  0  0  0  0  0  0  0  0  0  0  0
   56.2671  -18.2514   -0.1211 O   0  0  0  0  0  0  0  0  0  0  0  0
   57.6895  -17.7633   -2.2436 O   0  0  0  0  0  0  0  0  0  0  0  0
   53.5708  -19.3991   -4.3467 C   0  0  0  0  0  0  0  0  0  0  0  0
   53.3200  -20.0356   -6.8437 C   0  0  0  0  0  0  0  0  0  0  0  0
   53.8007  -20.5814   -8.0788 C   0  0  0  0  0  0  0  0  0  0  0  0
   55.0770  -21.0837   -8.1977 C   0  0  0  0  0  0  0  0  0  0  0  0
   55.6714  -21.6424   -9.4812 Cl  0  0  0  0  0  0  0  0  0  0  0  0
   55.7713  -21.0681   -7.0033 N   0  0  0  0  0  0  0  0  0  0  0  0
   55.3610  -20.5427   -5.8375 C   0  0  0  0  0  0  0  0  0  0  0  0
   54.0981  -19.9664   -5.7063 C   0  0  0  0  0  0  0  0  0  0  0  0
 12 18  1  0  0  0
 13 12  2  0  0  0
 13 14  1  0  0  0
 14 16  2  0  0  0
 15 14  1  0  0  0
 16 17  1  0  0  0
 18 17  2  0  0  0
 18 11  1  0  0  0
 11  1  1  0  0  0
  1  5  1  0  0  0
  1  2  1  0  0  0
  2  3  1  0  0  0
  4  3  1  0  0  0
  5  4  1  0  0  0
  6  5  2  0  0  0
  6  8  1  0  0  0
  8 10  1  0  0  0
  9  8  2  0  0  0
  4  7  1  0  0  0
M  CHG 1   8   1
M  CHG 1  10  -1
M  END
> <minimizedAffinity>
-6.20076

$$$$
3C79_IM4_A_301


 18 19  0  0  0  0  0  0  0  0999 V2000
   53.9997  -23.6039   -1.3862 N   0  0  0  0  0  0  0  0  0  0  0  0
   52.8020  -23.8785   -2.1568 C   0  0  0  0  0  0  0  0  0  0  0  0
   52.2530  -25.2068   -1.5734 C   0  0  0  0  0  0  0  0  0  0  0  0
   53.2074  -25.5067   -0.5192 N   0  0  0  0  0  0  0  0  0  0  0  0
   54.1672  -24.5687   -0.4915 C   0  0  0  0  0  0  0  0  0  0  0  0
   55.1801  -24.5354    0.3845 N   0  0  0  0  0  0  0  0  0  0  0  0
   53.1574  -26.2825    0.0849 H   0  0  0  0  0  0  0  0  0  0  0  0
   55.2877  -25.4535    1.2047 N   0  0  0  0  0  0  0  0  0  0  0  0
   56.5540  -26.3747    1.3437 O   0  0  0  0  0  0  0  0  0  0  0  0
   54.1748  -25.6429    2.0991 O   0  0  0  0  0  0  0  0  0  0  0  0
   54.9007  -22.4533   -1.5511 C   0  0  0  0  0  0  0  0  0  0  0  0
   54.9349  -21.6887   -4.0244 C   0  0  0  0  0  0  0  0  0  0  0  0
   54.5520  -20.8232   -5.1008 C   0  0  0  0  0  0  0  0  0  0  0  0
   53.6921  -19.7659   -4.9057 C   0  0  0  0  0  0  0  0  0  0  0  0
   53.2095  -18.8288   -6.0020 Cl  0  0  0  0  0  0  0  0  0  0  0  0
   53.3302  -19.6080   -3.5817 N   0  0  0  0  0  0  0  0  0  0  0  0
   53.6497  -20.4134   -2.5557 C   0  0  0  0  0  0  0  0  0  0  0  0
   54.4644  -21.5305   -2.7370 C   0  0  0  0  0  0  0  0  0  0  0  0
 12 18  1  0  0  0
 13 12  2  0  0  0
 13 14  1  0  0  0
 14 16  2  0  0  0
 15 14  1  0  0  0
 16 17  1  0  0  0
 18 17  2  0  0  0
 18 11  1  0  0  0
 11  1  1  0  0  0
  1  5  1  0  0  0
  1  2  1  0  0  0
  2  3  1  0  0  0
  4  3  1  0  0  0
  5  4  1  0  0  0
  6  5  2  0  0  0
  6  8  1  0  0  0
  8 10  1  0  0  0
  9  8  2  0  0  0
  4  7  1  0  0  0
M  CHG 1   8   1
M  CHG 1  10  -1
M  END
> <minimizedAffinity>
-6.08562

$$$$
3C79_IM4_A_301


 18 19  0  0  0  0  0  0  0  0999 V2000
   53.4552  -24.2753   -1.9123 N   0  0  0  0  0  0  0  0  0  0  0  0
   52.0403  -24.2793   -2.2315 C   0  0  0  0  0  0  0  0  0  0  0  0
   51.3653  -24.9823   -1.0248 C   0  0  0  0  0  0  0  0  0  0  0  0
   52.4938  -25.2693   -0.1551 N   0  0  0  0  0  0  0  0  0  0  0  0
   53.6328  -24.8578   -0.7341 C   0  0  0  0  0  0  0  0  0  0  0  0
   54.8490  -24.9469   -0.1796 N   0  0  0  0  0  0  0  0  0  0  0  0
   52.4320  -25.7013    0.7274 H   0  0  0  0  0  0  0  0  0  0  0  0
   54.9611  -25.4907    0.9245 N   0  0  0  0  0  0  0  0  0  0  0  0
   53.8157  -25.5613    1.9989 O   0  0  0  0  0  0  0  0  0  0  0  0
   56.2269  -26.1206    1.1991 O   0  0  0  0  0  0  0  0  0  0  0  0
   54.5370  -23.7249   -2.7426 C   0  0  0  0  0  0  0  0  0  0  0  0
   54.4205  -21.6560   -1.1906 C   0  0  0  0  0  0  0  0  0  0  0  0
   54.7425  -20.3058   -0.8329 C   0  0  0  0  0  0  0  0  0  0  0  0
   55.5564  -19.5247   -1.6221 C   0  0  0  0  0  0  0  0  0  0  0  0
   55.9742  -18.1003   -1.2916 Cl  0  0  0  0  0  0  0  0  0  0  0  0
   55.9358  -20.1575   -2.7903 N   0  0  0  0  0  0  0  0  0  0  0  0
   55.6733  -21.4263   -3.1433 C   0  0  0  0  0  0  0  0  0  0  0  0
   54.9077  -22.2617   -2.3306 C   0  0  0  0  0  0  0  0  0  0  0  0
 12 18  1  0  0  0
 13 12  2  0  0  0
 13 14  1  0  0  0
 14 16  2  0  0  0
 15 14  1  0  0  0
 16 17  1  0  0  0
 18 17  2  0  0  0
 18 11  1  0  0  0
 11  1  1  0  0  0
  1  5  1  0  0  0
  1  2  1  0  0  0
  2  3  1  0  0  0
  4  3  1  0  0  0
  5  4  1  0  0  0
  6  5  2  0  0  0
  6  8  1  0  0  0
  8 10  1  0  0  0
  9  8  2  0  0  0
  4  7  1  0  0  0
M  CHG 1   8   1
M  CHG 1  10  -1
M  END
> <minimizedAffinity>
-6.01989

$$$$
3C79_IM4_A_301


 18 19  0  0  0  0  0  0  0  0999 V2000
   54.4690  -20.6891   -6.4474 N   0  0  0  0  0  0  0  0  0  0  0  0
   55.6372  -20.8607   -7.2898 C   0  0  0  0  0  0  0  0  0  0  0  0
   55.3529  -19.9897   -8.5414 C   0  0  0  0  0  0  0  0  0  0  0  0
   54.0557  -19.4105   -8.2348 N   0  0  0  0  0  0  0  0  0  0  0  0
   53.6198  -19.8678   -7.0504 C   0  0  0  0  0  0  0  0  0  0  0  0
   52.4718  -19.5028   -6.4644 N   0  0  0  0  0  0  0  0  0  0  0  0
   53.5690  -18.7770   -8.8102 H   0  0  0  0  0  0  0  0  0  0  0  0
   51.7182  -18.7277   -7.0633 N   0  0  0  0  0  0  0  0  0  0  0  0
   51.4882  -18.7388   -8.6184 O   0  0  0  0  0  0  0  0  0  0  0  0
   50.9929  -17.7872   -6.2486 O   0  0  0  0  0  0  0  0  0  0  0  0
   54.2371  -21.3139   -5.1365 C   0  0  0  0  0  0  0  0  0  0  0  0
   56.1793  -20.1817   -3.8524 C   0  0  0  0  0  0  0  0  0  0  0  0
   56.7227  -19.4246   -2.7633 C   0  0  0  0  0  0  0  0  0  0  0  0
   55.9242  -18.9402   -1.7519 C   0  0  0  0  0  0  0  0  0  0  0  0
   56.4191  -18.0983   -0.5861 Cl  0  0  0  0  0  0  0  0  0  0  0  0
   54.6054  -19.3327   -1.8770 N   0  0  0  0  0  0  0  0  0  0  0  0
   54.0600  -20.0185   -2.8947 C   0  0  0  0  0  0  0  0  0  0  0  0
   54.8334  -20.4634   -3.9663 C   0  0  0  0  0  0  0  0  0  0  0  0
 12 18  1  0  0  0
 13 12  2  0  0  0
 13 14  1  0  0  0
 14 16  2  0  0  0
 15 14  1  0  0  0
 16 17  1  0  0  0
 18 17  2  0  0  0
 18 11  1  0  0  0
 11  1  1  0  0  0
  1  5  1  0  0  0
  1  2  1  0  0  0
  2  3  1  0  0  0
  4  3  1  0  0  0
  5  4  1  0  0  0
  6  5  2  0  0  0
  6  8  1  0  0  0
  8 10  1  0  0  0
  9  8  2  0  0  0
  4  7  1  0  0  0
M  CHG 1   8   1
M  CHG 1  10  -1
M  END
> <minimizedAffinity>
-5.85593

$$$$
3C79_IM4_A_301


 18 19  0  0  0  0  0  0  0  0999 V2000
   54.9975  -20.2290   -6.0948 N   0  0  0  0  0  0  0  0  0  0  0  0
   53.8677  -19.3844   -5.7571 C   0  0  0  0  0  0  0  0  0  0  0  0
   53.0752  -19.2364   -7.0822 C   0  0  0  0  0  0  0  0  0  0  0  0
   53.8528  -20.0442   -8.0069 N   0  0  0  0  0  0  0  0  0  0  0  0
   54.9257  -20.5514   -7.3794 C   0  0  0  0  0  0  0  0  0  0  0  0
   55.8277  -21.3660   -7.9425 N   0  0  0  0  0  0  0  0  0  0  0  0
   53.6264  -20.1968   -8.9527 H   0  0  0  0  0  0  0  0  0  0  0  0
   55.7121  -21.6439   -9.1411 N   0  0  0  0  0  0  0  0  0  0  0  0
   54.3722  -22.1106   -9.8181 O   0  0  0  0  0  0  0  0  0  0  0  0
   56.8942  -21.4868   -9.9488 O   0  0  0  0  0  0  0  0  0  0  0  0
   56.0640  -20.6684   -5.1826 C   0  0  0  0  0  0  0  0  0  0  0  0
   56.2036  -19.3621   -2.9517 C   0  0  0  0  0  0  0  0  0  0  0  0
   55.8832  -19.1520   -1.5705 C   0  0  0  0  0  0  0  0  0  0  0  0
   55.0498  -20.0069   -0.8849 C   0  0  0  0  0  0  0  0  0  0  0  0
   54.6327  -19.8301    0.5669 Cl  0  0  0  0  0  0  0  0  0  0  0  0
   54.6492  -21.0881   -1.6460 N   0  0  0  0  0  0  0  0  0  0  0  0
   54.9098  -21.3015   -2.9460 C   0  0  0  0  0  0  0  0  0  0  0  0
   55.6956  -20.4161   -3.6829 C   0  0  0  0  0  0  0  0  0  0  0  0
 12 18  1  0  0  0
 13 12  2  0  0  0
 13 14  1  0  0  0
 14 16  2  0  0  0
 15 14  1  0  0  0
 16 17  1  0  0  0
 18 17  2  0  0  0
 18 11  1  0  0  0
 11  1  1  0  0  0
  1  5  1  0  0  0
  1  2  1  0  0  0
  2  3  1  0  0  0
  4  3  1  0  0  0
  5  4  1  0  0  0
  6  5  2  0  0  0
  6  8  1  0  0  0
  8 10  1  0  0  0
  9  8  2  0  0  0
  4  7  1  0  0  0
M  CHG 1   8   1
M  CHG 1  10  -1
M  END
> <minimizedAffinity>
-5.81442

$$$$
3C79_IM4_A_301


 18 19  0  0  0  0  0  0  0  0999 V2000
   54.1196  -19.8712   -3.1638 N   0  0  0  0  0  0  0  0  0  0  0  0
   54.9926  -19.0115   -2.3876 C   0  0  0  0  0  0  0  0  0  0  0  0
   55.5422  -19.9224   -1.2589 C   0  0  0  0  0  0  0  0  0  0  0  0
   54.9220  -21.2027   -1.5564 N   0  0  0  0  0  0  0  0  0  0  0  0
   54.1239  -21.0851   -2.6294 C   0  0  0  0  0  0  0  0  0  0  0  0
   53.4313  -22.0898   -3.1820 N   0  0  0  0  0  0  0  0  0  0  0  0
   55.0657  -22.0327   -1.0468 H   0  0  0  0  0  0  0  0  0  0  0  0
   53.4750  -23.2051   -2.6514 N   0  0  0  0  0  0  0  0  0  0  0  0
   52.2093  -24.0417   -2.2399 O   0  0  0  0  0  0  0  0  0  0  0  0
   54.7874  -23.7599   -2.4412 O   0  0  0  0  0  0  0  0  0  0  0  0
   53.3428  -19.4851   -4.3514 C   0  0  0  0  0  0  0  0  0  0  0  0
   53.3004  -20.1330   -6.8576 C   0  0  0  0  0  0  0  0  0  0  0  0
   53.9011  -20.6298   -8.0604 C   0  0  0  0  0  0  0  0  0  0  0  0
   55.2219  -21.0162   -8.1012 C   0  0  0  0  0  0  0  0  0  0  0  0
   55.9398  -21.5156   -9.3454 Cl  0  0  0  0  0  0  0  0  0  0  0  0
   55.8389  -20.9430   -6.8671 N   0  0  0  0  0  0  0  0  0  0  0  0
   55.3141  -20.4601   -5.7293 C   0  0  0  0  0  0  0  0  0  0  0  0
   53.9993  -19.9988   -5.6755 C   0  0  0  0  0  0  0  0  0  0  0  0
 12 18  1  0  0  0
 13 12  2  0  0  0
 13 14  1  0  0  0
 14 16  2  0  0  0
 15 14  1  0  0  0
 16 17  1  0  0  0
 18 17  2  0  0  0
 18 11  1  0  0  0
 11  1  1  0  0  0
  1  5  1  0  0  0
  1  2  1  0  0  0
  2  3  1  0  0  0
  4  3  1  0  0  0
  5  4  1  0  0  0
  6  5  2  0  0  0
  6  8  1  0  0  0
  8 10  1  0  0  0
  9  8  2  0  0  0
  4  7  1  0  0  0
M  CHG 1   8   1
M  CHG 1  10  -1
M  END
> <minimizedAffinity>
-5.64943

$$$$
