4Z1E_DF5_A_302


 26 28  0  0  0  0  0  0  0  0999 V2000
   17.4434    5.4477   12.6186 C   0  0  0  0  0  0  0  0  0  0  0  0
   16.8340    5.6136   11.5253 O   0  0  0  0  0  0  0  0  0  0  0  0
   18.8427    5.7840   12.5967 N   0  0  0  0  0  0  0  0  0  0  0  0
   19.4941    5.9150   11.3301 C   0  0  0  0  0  0  0  0  0  0  0  0
   19.5265    4.8514   10.3880 C   0  0  0  0  0  0  0  0  0  0  0  0
   20.1705    4.9720    9.1480 C   0  0  0  0  0  0  0  0  0  0  0  0
   20.8118    6.1721    8.8263 C   0  0  0  0  0  0  0  0  0  0  0  0
   20.8023    7.2478    9.7327 C   0  0  0  0  0  0  0  0  0  0  0  0
   20.1487    7.1337   10.9703 C   0  0  0  0  0  0  0  0  0  0  0  0
   20.2051    8.3048   11.8859 C   0  0  0  0  0  0  0  0  0  0  0  0
   19.7803    8.0645   13.3034 C   0  0  0  0  0  0  0  0  0  0  0  0
   19.2023    6.7010   13.6646 C   0  0  0  0  0  0  0  0  0  0  0  0
   15.4539    3.7228   16.0906 C   0  0  0  0  0  0  0  0  0  0  0  0
   15.0754    5.0064   15.6514 C   0  0  0  0  0  0  0  0  0  0  0  0
   16.4554    3.0515   15.3503 C   0  0  0  0  0  0  0  0  0  0  0  0
   17.0768    3.6386   14.2521 C   0  0  0  0  0  0  0  0  0  0  0  0
   16.7133    4.9178   13.8330 C   0  0  0  0  0  0  0  0  0  0  0  0
   15.7085    5.6099   14.5452 C   0  0  0  0  0  0  0  0  0  0  0  0
   13.4549    2.6364   17.0401 O   0  0  0  0  0  0  0  0  0  0  0  0
   14.7658    2.9443   17.4361 S   0  0  0  0  0  0  0  0  0  0  0  0
   14.8604    3.8080   18.5681 O   0  0  0  0  0  0  0  0  0  0  0  0
   15.5219    1.5512   17.5736 N   0  0  0  0  0  0  0  0  0  0  0  0
   15.3952    1.0097   16.7185 H   0  0  0  0  0  0  0  0  0  0  0  0
   15.1386    1.0329   18.3641 H   0  0  0  0  0  0  0  0  0  0  0  0
   21.4763    6.4048    7.6381 O   0  0  0  0  0  0  0  0  0  0  0  0
   21.8729    5.2317    6.8807 C   0  0  0  0  0  0  0  0  0  0  0  0
 26 25  1  0  0  0
 25  7  1  0  0  0
  6  7  2  0  0  0
  6  5  1  0  0  0
  7  8  1  0  0  0
  5  4  2  0  0  0
  8  9  2  0  0  0
  4  9  1  0  0  0
  4  3  1  0  0  0
  9 10  1  0  0  0
  2  1  2  0  0  0
  3  1  1  0  0  0
  3 12  2  0  0  0
  1 17  1  0  0  0
 10 11  2  0  0  0
 17 18  2  0  0  0
 17 16  1  0  0  0
 12 11  1  0  0  0
 18 14  1  0  0  0
 16 15  2  0  0  0
 14 13  2  0  0  0
 15 13  1  0  0  0
 13 20  1  0  0  0
 22 20  1  0  0  0
 19 20  2  0  0  0
 20 21  2  0  0  0
 22 23  1  0  0  0
 22 24  1  0  0  0
M  CHG 1   3   1
M  END
> <minimizedAffinity>
-7.65148

$$$$
4Z1E_DF5_A_302


 26 28  0  0  0  0  0  0  0  0999 V2000
   16.7419    6.9869   13.2184 C   0  0  0  0  0  0  0  0  0  0  0  0
   17.2324    8.0948   13.5735 O   0  0  0  0  0  0  0  0  0  0  0  0
   16.5293    6.8371   11.8028 N   0  0  0  0  0  0  0  0  0  0  0  0
   16.5322    8.0095   10.9836 C   0  0  0  0  0  0  0  0  0  0  0  0
   15.6338    9.0871   11.2106 C   0  0  0  0  0  0  0  0  0  0  0  0
   15.6272   10.2355   10.4055 C   0  0  0  0  0  0  0  0  0  0  0  0
   16.5250   10.3248    9.3372 C   0  0  0  0  0  0  0  0  0  0  0  0
   17.4295    9.2787    9.0801 C   0  0  0  0  0  0  0  0  0  0  0  0
   17.4459    8.1326    9.8913 C   0  0  0  0  0  0  0  0  0  0  0  0
   18.4128    7.0580    9.5402 C   0  0  0  0  0  0  0  0  0  0  0  0
   18.2091    5.7323   10.2100 C   0  0  0  0  0  0  0  0  0  0  0  0
   17.1331    5.6217   11.2841 C   0  0  0  0  0  0  0  0  0  0  0  0
   15.5699    4.0434   16.2101 C   0  0  0  0  0  0  0  0  0  0  0  0
   16.8742    3.9997   15.6800 C   0  0  0  0  0  0  0  0  0  0  0  0
   14.7151    5.0723   15.7494 C   0  0  0  0  0  0  0  0  0  0  0  0
   15.1206    5.9891   14.7842 C   0  0  0  0  0  0  0  0  0  0  0  0
   16.4060    5.9298   14.2472 C   0  0  0  0  0  0  0  0  0  0  0  0
   17.2872    4.9202   14.6947 C   0  0  0  0  0  0  0  0  0  0  0  0
   13.6631    2.6842   16.9815 O   0  0  0  0  0  0  0  0  0  0  0  0
   14.9856    2.9476   17.3711 S   0  0  0  0  0  0  0  0  0  0  0  0
   15.1218    3.5305   18.6664 O   0  0  0  0  0  0  0  0  0  0  0  0
   15.7888    1.5934   17.1425 N   0  0  0  0  0  0  0  0  0  0  0  0
   15.6276    1.2587   16.1925 H   0  0  0  0  0  0  0  0  0  0  0  0
   15.4684    0.8912   17.8093 H   0  0  0  0  0  0  0  0  0  0  0  0
   16.6088   11.4044    8.4799 O   0  0  0  0  0  0  0  0  0  0  0  0
   15.3540   12.0353    8.1129 C   0  0  0  0  0  0  0  0  0  0  0  0
 26 25  1  0  0  0
 25  7  1  0  0  0
  6  7  2  0  0  0
  6  5  1  0  0  0
  7  8  1  0  0  0
  5  4  2  0  0  0
  8  9  2  0  0  0
  4  9  1  0  0  0
  4  3  1  0  0  0
  9 10  1  0  0  0
  2  1  2  0  0  0
  3  1  1  0  0  0
  3 12  2  0  0  0
  1 17  1  0  0  0
 10 11  2  0  0  0
 17 18  2  0  0  0
 17 16  1  0  0  0
 12 11  1  0  0  0
 18 14  1  0  0  0
 16 15  2  0  0  0
 14 13  2  0  0  0
 15 13  1  0  0  0
 13 20  1  0  0  0
 22 20  1  0  0  0
 19 20  2  0  0  0
 20 21  2  0  0  0
 22 23  1  0  0  0
 22 24  1  0  0  0
M  CHG 1   3   1
M  END
> <minimizedAffinity>
-7.35661

$$$$
4Z1E_DF5_A_302


 26 28  0  0  0  0  0  0  0  0999 V2000
   16.6491    7.0797   13.3440 C   0  0  0  0  0  0  0  0  0  0  0  0
   15.7433    7.6047   12.6383 O   0  0  0  0  0  0  0  0  0  0  0  0
   17.9755    7.5899   13.1163 N   0  0  0  0  0  0  0  0  0  0  0  0
   18.2244    8.3377   11.9227 C   0  0  0  0  0  0  0  0  0  0  0  0
   17.9930    7.7910   10.6314 C   0  0  0  0  0  0  0  0  0  0  0  0
   18.2427    8.5172    9.4578 C   0  0  0  0  0  0  0  0  0  0  0  0
   18.7449    9.8186    9.5547 C   0  0  0  0  0  0  0  0  0  0  0  0
   18.9874   10.3945   10.8150 C   0  0  0  0  0  0  0  0  0  0  0  0
   18.7277    9.6738   11.9919 C   0  0  0  0  0  0  0  0  0  0  0  0
   19.0346   10.3405   13.2858 C   0  0  0  0  0  0  0  0  0  0  0  0
   19.0482    9.4634   14.5015 C   0  0  0  0  0  0  0  0  0  0  0  0
   18.6205    8.0082   14.3491 C   0  0  0  0  0  0  0  0  0  0  0  0
   15.4952    4.0447   16.2500 C   0  0  0  0  0  0  0  0  0  0  0  0
   16.7409    3.9343   15.6019 C   0  0  0  0  0  0  0  0  0  0  0  0
   14.6933    5.1657   15.9307 C   0  0  0  0  0  0  0  0  0  0  0  0
   15.0901    6.1101   14.9887 C   0  0  0  0  0  0  0  0  0  0  0  0
   16.3152    5.9861   14.3345 C   0  0  0  0  0  0  0  0  0  0  0  0
   17.1437    4.8831   14.6395 C   0  0  0  0  0  0  0  0  0  0  0  0
   13.6132    2.6298   16.9811 O   0  0  0  0  0  0  0  0  0  0  0  0
   14.9227    2.9233   17.3923 S   0  0  0  0  0  0  0  0  0  0  0  0
   15.0252    3.4972   18.6948 O   0  0  0  0  0  0  0  0  0  0  0  0
   15.7638    1.5924   17.1631 N   0  0  0  0  0  0  0  0  0  0  0  0
   15.6250    1.2627   16.2079 H   0  0  0  0  0  0  0  0  0  0  0  0
   15.4520    0.8760   17.8188 H   0  0  0  0  0  0  0  0  0  0  0  0
   19.0278   10.6259    8.4703 O   0  0  0  0  0  0  0  0  0  0  0  0
   18.2296   10.4069    7.2778 C   0  0  0  0  0  0  0  0  0  0  0  0
 26 25  1  0  0  0
 25  7  1  0  0  0
  6  7  2  0  0  0
  6  5  1  0  0  0
  7  8  1  0  0  0
  5  4  2  0  0  0
  8  9  2  0  0  0
  4  9  1  0  0  0
  4  3  1  0  0  0
  9 10  1  0  0  0
  2  1  2  0  0  0
  3  1  1  0  0  0
  3 12  2  0  0  0
  1 17  1  0  0  0
 10 11  2  0  0  0
 17 18  2  0  0  0
 17 16  1  0  0  0
 12 11  1  0  0  0
 18 14  1  0  0  0
 16 15  2  0  0  0
 14 13  2  0  0  0
 15 13  1  0  0  0
 13 20  1  0  0  0
 22 20  1  0  0  0
 19 20  2  0  0  0
 20 21  2  0  0  0
 22 23  1  0  0  0
 22 24  1  0  0  0
M  CHG 1   3   1
M  END
> <minimizedAffinity>
-7.35317

$$$$
4Z1E_DF5_A_302


 26 28  0  0  0  0  0  0  0  0999 V2000
   19.1680    5.9618   13.1391 C   0  0  0  0  0  0  0  0  0  0  0  0
   19.4464    5.9238   14.3700 O   0  0  0  0  0  0  0  0  0  0  0  0
   17.7648    5.8926   12.8263 N   0  0  0  0  0  0  0  0  0  0  0  0
   16.8614    5.4356   13.8366 C   0  0  0  0  0  0  0  0  0  0  0  0
   16.9970    4.1578   14.4439 C   0  0  0  0  0  0  0  0  0  0  0  0
   16.1093    3.7017   15.4293 C   0  0  0  0  0  0  0  0  0  0  0  0
   15.0486    4.5225   15.8245 C   0  0  0  0  0  0  0  0  0  0  0  0
   14.8806    5.7939   15.2465 C   0  0  0  0  0  0  0  0  0  0  0  0
   15.7743    6.2576   14.2677 C   0  0  0  0  0  0  0  0  0  0  0  0
   15.5155    7.6014   13.6845 C   0  0  0  0  0  0  0  0  0  0  0  0
   16.2788    7.9476   12.4415 C   0  0  0  0  0  0  0  0  0  0  0  0
   17.3446    6.9740   11.9518 C   0  0  0  0  0  0  0  0  0  0  0  0
   22.2789    6.0326   10.0887 C   0  0  0  0  0  0  0  0  0  0  0  0
   22.1780    7.1106   10.9897 C   0  0  0  0  0  0  0  0  0  0  0  0
   21.3651    4.9644   10.2482 C   0  0  0  0  0  0  0  0  0  0  0  0
   20.3770    4.9812   11.2279 C   0  0  0  0  0  0  0  0  0  0  0  0
   20.2677    6.0598   12.1048 C   0  0  0  0  0  0  0  0  0  0  0  0
   21.1726    7.1373   11.9781 C   0  0  0  0  0  0  0  0  0  0  0  0
   24.4753    5.1642    9.3815 O   0  0  0  0  0  0  0  0  0  0  0  0
   23.4378    5.9446    8.8479 S   0  0  0  0  0  0  0  0  0  0  0  0
   23.8174    7.2687    8.4754 O   0  0  0  0  0  0  0  0  0  0  0  0
   22.7804    5.0707    7.6922 N   0  0  0  0  0  0  0  0  0  0  0  0
   22.5458    4.1472    8.0560 H   0  0  0  0  0  0  0  0  0  0  0  0
   23.4410    4.9747    6.9210 H   0  0  0  0  0  0  0  0  0  0  0  0
   14.1150    4.1796   16.7828 O   0  0  0  0  0  0  0  0  0  0  0  0
   14.1077    2.7918   17.2084 C   0  0  0  0  0  0  0  0  0  0  0  0
 26 25  1  0  0  0
 25  7  1  0  0  0
  6  7  2  0  0  0
  6  5  1  0  0  0
  7  8  1  0  0  0
  5  4  2  0  0  0
  8  9  2  0  0  0
  4  9  1  0  0  0
  4  3  1  0  0  0
  9 10  1  0  0  0
  2  1  2  0  0  0
  3  1  1  0  0  0
  3 12  2  0  0  0
  1 17  1  0  0  0
 10 11  2  0  0  0
 17 18  2  0  0  0
 17 16  1  0  0  0
 12 11  1  0  0  0
 18 14  1  0  0  0
 16 15  2  0  0  0
 14 13  2  0  0  0
 15 13  1  0  0  0
 13 20  1  0  0  0
 22 20  1  0  0  0
 19 20  2  0  0  0
 20 21  2  0  0  0
 22 23  1  0  0  0
 22 24  1  0  0  0
M  CHG 1   3   1
M  END
> <minimizedAffinity>
-7.34581

$$$$
4Z1E_DF5_A_302


 26 28  0  0  0  0  0  0  0  0999 V2000
   17.5784    5.6387   12.8575 C   0  0  0  0  0  0  0  0  0  0  0  0
   18.2065    6.7279   12.9732 O   0  0  0  0  0  0  0  0  0  0  0  0
   17.6622    5.0184   11.5615 N   0  0  0  0  0  0  0  0  0  0  0  0
   18.1057    5.8072   10.4538 C   0  0  0  0  0  0  0  0  0  0  0  0
   17.4373    6.9996   10.0649 C   0  0  0  0  0  0  0  0  0  0  0  0
   17.8634    7.7725    8.9749 C   0  0  0  0  0  0  0  0  0  0  0  0
   18.9756    7.3563    8.2368 C   0  0  0  0  0  0  0  0  0  0  0  0
   19.6635    6.1812    8.5903 C   0  0  0  0  0  0  0  0  0  0  0  0
   19.2459    5.4115    9.6880 C   0  0  0  0  0  0  0  0  0  0  0  0
   20.0079    4.1684    9.9831 C   0  0  0  0  0  0  0  0  0  0  0  0
   19.3739    3.2099   10.9458 C   0  0  0  0  0  0  0  0  0  0  0  0
   18.0864    3.6313   11.6447 C   0  0  0  0  0  0  0  0  0  0  0  0
   15.5074    3.8781   16.2632 C   0  0  0  0  0  0  0  0  0  0  0  0
   14.8204    4.7933   15.4419 C   0  0  0  0  0  0  0  0  0  0  0  0
   16.8409    3.5628   15.9114 C   0  0  0  0  0  0  0  0  0  0  0  0
   17.4740    4.1535   14.8219 C   0  0  0  0  0  0  0  0  0  0  0  0
   16.7969    5.0744   14.0234 C   0  0  0  0  0  0  0  0  0  0  0  0
   15.4601    5.4021   14.3424 C   0  0  0  0  0  0  0  0  0  0  0  0
   13.5388    2.7342   17.2089 O   0  0  0  0  0  0  0  0  0  0  0  0
   14.8186    3.1317   17.6265 S   0  0  0  0  0  0  0  0  0  0  0  0
   14.8319    4.0545   18.7148 O   0  0  0  0  0  0  0  0  0  0  0  0
   15.6418    1.7899   17.8573 N   0  0  0  0  0  0  0  0  0  0  0  0
   15.5709    1.2005   17.0278 H   0  0  0  0  0  0  0  0  0  0  0  0
   15.2614    1.2917   18.6619 H   0  0  0  0  0  0  0  0  0  0  0  0
   19.4842    8.0352    7.1469 O   0  0  0  0  0  0  0  0  0  0  0  0
   19.1823    7.4770    5.8413 C   0  0  0  0  0  0  0  0  0  0  0  0
 26 25  1  0  0  0
 25  7  1  0  0  0
  6  7  2  0  0  0
  6  5  1  0  0  0
  7  8  1  0  0  0
  5  4  2  0  0  0
  8  9  2  0  0  0
  4  9  1  0  0  0
  4  3  1  0  0  0
  9 10  1  0  0  0
  2  1  2  0  0  0
  3  1  1  0  0  0
  3 12  2  0  0  0
  1 17  1  0  0  0
 10 11  2  0  0  0
 17 18  2  0  0  0
 17 16  1  0  0  0
 12 11  1  0  0  0
 18 14  1  0  0  0
 16 15  2  0  0  0
 14 13  2  0  0  0
 15 13  1  0  0  0
 13 20  1  0  0  0
 22 20  1  0  0  0
 19 20  2  0  0  0
 20 21  2  0  0  0
 22 23  1  0  0  0
 22 24  1  0  0  0
M  CHG 1   3   1
M  END
> <minimizedAffinity>
-7.34460

$$$$
4Z1E_DF5_A_302


 26 28  0  0  0  0  0  0  0  0999 V2000
   17.5174    6.5386   13.3129 C   0  0  0  0  0  0  0  0  0  0  0  0
   17.1097    6.6150   12.1204 O   0  0  0  0  0  0  0  0  0  0  0  0
   18.7311    7.2600   13.5924 N   0  0  0  0  0  0  0  0  0  0  0  0
   19.5466    7.6767   12.4937 C   0  0  0  0  0  0  0  0  0  0  0  0
   20.0738    6.7490   11.5549 C   0  0  0  0  0  0  0  0  0  0  0  0
   20.8804    7.1514   10.4804 C   0  0  0  0  0  0  0  0  0  0  0  0
   21.1875    8.5070   10.3282 C   0  0  0  0  0  0  0  0  0  0  0  0
   20.6849    9.4557   11.2372 C   0  0  0  0  0  0  0  0  0  0  0  0
   19.8679    9.0570   12.3074 C   0  0  0  0  0  0  0  0  0  0  0  0
   19.3969   10.1147   13.2414 C   0  0  0  0  0  0  0  0  0  0  0  0
   18.7965    9.6456   14.5325 C   0  0  0  0  0  0  0  0  0  0  0  0
   18.5895    8.1488   14.7329 C   0  0  0  0  0  0  0  0  0  0  0  0
   15.5090    4.0520   16.2745 C   0  0  0  0  0  0  0  0  0  0  0  0
   14.7948    5.1004   15.6623 C   0  0  0  0  0  0  0  0  0  0  0  0
   16.8485    3.8520   15.8652 C   0  0  0  0  0  0  0  0  0  0  0  0
   17.4608    4.6736   14.9235 C   0  0  0  0  0  0  0  0  0  0  0  0
   16.7563    5.7230   14.3348 C   0  0  0  0  0  0  0  0  0  0  0  0
   15.4133    5.9419   14.7146 C   0  0  0  0  0  0  0  0  0  0  0  0
   13.5514    2.7355   16.9905 O   0  0  0  0  0  0  0  0  0  0  0  0
   14.8464    3.0196   17.4514 S   0  0  0  0  0  0  0  0  0  0  0  0
   14.8993    3.6707   18.7200 O   0  0  0  0  0  0  0  0  0  0  0  0
   15.6585    1.6553   17.3484 N   0  0  0  0  0  0  0  0  0  0  0  0
   15.5588    1.2704   16.4091 H   0  0  0  0  0  0  0  0  0  0  0  0
   15.2927    0.9896   18.0292 H   0  0  0  0  0  0  0  0  0  0  0  0
   21.9700    9.0178    9.3112 O   0  0  0  0  0  0  0  0  0  0  0  0
   22.2810    8.1124    8.2200 C   0  0  0  0  0  0  0  0  0  0  0  0
 26 25  1  0  0  0
 25  7  1  0  0  0
  6  7  2  0  0  0
  6  5  1  0  0  0
  7  8  1  0  0  0
  5  4  2  0  0  0
  8  9  2  0  0  0
  4  9  1  0  0  0
  4  3  1  0  0  0
  9 10  1  0  0  0
  2  1  2  0  0  0
  3  1  1  0  0  0
  3 12  2  0  0  0
  1 17  1  0  0  0
 10 11  2  0  0  0
 17 18  2  0  0  0
 17 16  1  0  0  0
 12 11  1  0  0  0
 18 14  1  0  0  0
 16 15  2  0  0  0
 14 13  2  0  0  0
 15 13  1  0  0  0
 13 20  1  0  0  0
 22 20  1  0  0  0
 19 20  2  0  0  0
 20 21  2  0  0  0
 22 23  1  0  0  0
 22 24  1  0  0  0
M  CHG 1   3   1
M  END
> <minimizedAffinity>
-7.28629

$$$$
4Z1E_DF5_A_302


 26 28  0  0  0  0  0  0  0  0999 V2000
   16.4186    7.5473   12.3144 C   0  0  0  0  0  0  0  0  0  0  0  0
   16.2263    6.4179   11.7836 O   0  0  0  0  0  0  0  0  0  0  0  0
   16.8904    7.5126   13.6737 N   0  0  0  0  0  0  0  0  0  0  0  0
   16.7594    6.2944   14.4115 C   0  0  0  0  0  0  0  0  0  0  0  0
   15.4979    5.6734   14.6189 C   0  0  0  0  0  0  0  0  0  0  0  0
   15.3629    4.4831   15.3482 C   0  0  0  0  0  0  0  0  0  0  0  0
   16.5017    3.8883   15.9000 C   0  0  0  0  0  0  0  0  0  0  0  0
   17.7680    4.4730   15.7171 C   0  0  0  0  0  0  0  0  0  0  0  0
   17.9076    5.6587   14.9778 C   0  0  0  0  0  0  0  0  0  0  0  0
   19.2750    6.2303   14.8507 C   0  0  0  0  0  0  0  0  0  0  0  0
   19.3655    7.6353   14.3355 C   0  0  0  0  0  0  0  0  0  0  0  0
   18.0873    8.3152   13.8585 C   0  0  0  0  0  0  0  0  0  0  0  0
   15.4048   11.1608   10.1001 C   0  0  0  0  0  0  0  0  0  0  0  0
   16.7601   10.8099   10.2555 C   0  0  0  0  0  0  0  0  0  0  0  0
   14.4398   10.2909   10.6601 C   0  0  0  0  0  0  0  0  0  0  0  0
   14.8013    9.1502   11.3706 C   0  0  0  0  0  0  0  0  0  0  0  0
   16.1447    8.8175   11.5396 C   0  0  0  0  0  0  0  0  0  0  0  0
   17.1323    9.6605   10.9828 C   0  0  0  0  0  0  0  0  0  0  0  0
   14.6837   13.5121   10.2726 O   0  0  0  0  0  0  0  0  0  0  0  0
   14.8779   12.5482    9.2709 S   0  0  0  0  0  0  0  0  0  0  0  0
   13.7084   12.2222    8.5211 O   0  0  0  0  0  0  0  0  0  0  0  0
   16.1220   13.0489    8.4147 N   0  0  0  0  0  0  0  0  0  0  0  0
   16.9027   13.2551    9.0379 H   0  0  0  0  0  0  0  0  0  0  0  0
   15.8644   13.8921    7.9018 H   0  0  0  0  0  0  0  0  0  0  0  0
   16.4899    2.7190   16.6350 O   0  0  0  0  0  0  0  0  0  0  0  0
   15.2271    2.3593   17.2541 C   0  0  0  0  0  0  0  0  0  0  0  0
 26 25  1  0  0  0
 25  7  1  0  0  0
  6  7  2  0  0  0
  6  5  1  0  0  0
  7  8  1  0  0  0
  5  4  2  0  0  0
  8  9  2  0  0  0
  4  9  1  0  0  0
  4  3  1  0  0  0
  9 10  1  0  0  0
  2  1  2  0  0  0
  3  1  1  0  0  0
  3 12  2  0  0  0
  1 17  1  0  0  0
 10 11  2  0  0  0
 17 18  2  0  0  0
 17 16  1  0  0  0
 12 11  1  0  0  0
 18 14  1  0  0  0
 16 15  2  0  0  0
 14 13  2  0  0  0
 15 13  1  0  0  0
 13 20  1  0  0  0
 22 20  1  0  0  0
 19 20  2  0  0  0
 20 21  2  0  0  0
 22 23  1  0  0  0
 22 24  1  0  0  0
M  CHG 1   3   1
M  END
> <minimizedAffinity>
-7.28016

$$$$
4Z1E_DF5_A_302


 26 28  0  0  0  0  0  0  0  0999 V2000
   18.7265    7.1053   13.8415 C   0  0  0  0  0  0  0  0  0  0  0  0
   19.5929    6.2707   14.2249 O   0  0  0  0  0  0  0  0  0  0  0  0
   17.4874    6.5344   13.3827 N   0  0  0  0  0  0  0  0  0  0  0  0
   17.4562    5.1422   13.0562 C   0  0  0  0  0  0  0  0  0  0  0  0
   18.3144    4.5818   12.0717 C   0  0  0  0  0  0  0  0  0  0  0  0
   18.2823    3.2189   11.7421 C   0  0  0  0  0  0  0  0  0  0  0  0
   17.3717    2.3809   12.3931 C   0  0  0  0  0  0  0  0  0  0  0  0
   16.5053    2.8984   13.3731 C   0  0  0  0  0  0  0  0  0  0  0  0
   16.5430    4.2603   13.7131 C   0  0  0  0  0  0  0  0  0  0  0  0
   15.5778    4.7376   14.7395 C   0  0  0  0  0  0  0  0  0  0  0  0
   15.4171    6.2229   14.8646 C   0  0  0  0  0  0  0  0  0  0  0  0
   16.3355    7.1220   14.0449 C   0  0  0  0  0  0  0  0  0  0  0  0
   19.5989   11.3719   13.6911 C   0  0  0  0  0  0  0  0  0  0  0  0
   19.4617   10.7443   14.9446 C   0  0  0  0  0  0  0  0  0  0  0  0
   19.4677   10.5601   12.5398 C   0  0  0  0  0  0  0  0  0  0  0  0
   19.1779    9.2017   12.6262 C   0  0  0  0  0  0  0  0  0  0  0  0
   19.0228    8.5885   13.8688 C   0  0  0  0  0  0  0  0  0  0  0  0
   19.1585    9.3702   15.0378 C   0  0  0  0  0  0  0  0  0  0  0  0
   18.7158   13.6711   13.7995 O   0  0  0  0  0  0  0  0  0  0  0  0
   19.9261   13.0287   13.4956 S   0  0  0  0  0  0  0  0  0  0  0  0
   20.4044   13.2520   12.1698 O   0  0  0  0  0  0  0  0  0  0  0  0
   20.9356   13.4191   14.6617 N   0  0  0  0  0  0  0  0  0  0  0  0
   20.5038   13.2235   15.5649 H   0  0  0  0  0  0  0  0  0  0  0  0
   21.1590   14.4124   14.5997 H   0  0  0  0  0  0  0  0  0  0  0  0
   17.2508    1.0265   12.1512 O   0  0  0  0  0  0  0  0  0  0  0  0
   18.1124    0.4761   11.1207 C   0  0  0  0  0  0  0  0  0  0  0  0
 26 25  1  0  0  0
 25  7  1  0  0  0
  6  7  2  0  0  0
  6  5  1  0  0  0
  7  8  1  0  0  0
  5  4  2  0  0  0
  8  9  2  0  0  0
  4  9  1  0  0  0
  4  3  1  0  0  0
  9 10  1  0  0  0
  2  1  2  0  0  0
  3  1  1  0  0  0
  3 12  2  0  0  0
  1 17  1  0  0  0
 10 11  2  0  0  0
 17 18  2  0  0  0
 17 16  1  0  0  0
 12 11  1  0  0  0
 18 14  1  0  0  0
 16 15  2  0  0  0
 14 13  2  0  0  0
 15 13  1  0  0  0
 13 20  1  0  0  0
 22 20  1  0  0  0
 19 20  2  0  0  0
 20 21  2  0  0  0
 22 23  1  0  0  0
 22 24  1  0  0  0
M  CHG 1   3   1
M  END
> <minimizedAffinity>
-7.23648

$$$$
4Z1E_DF5_A_302


 26 28  0  0  0  0  0  0  0  0999 V2000
   18.8474    4.7934   11.3399 C   0  0  0  0  0  0  0  0  0  0  0  0
   19.6717    3.9957   11.8675 O   0  0  0  0  0  0  0  0  0  0  0  0
   17.6715    5.0657   12.1239 N   0  0  0  0  0  0  0  0  0  0  0  0
   17.3524    4.1857   13.2053 C   0  0  0  0  0  0  0  0  0  0  0  0
   17.1450    2.7939   13.0055 C   0  0  0  0  0  0  0  0  0  0  0  0
   16.8243    1.9281   14.0612 C   0  0  0  0  0  0  0  0  0  0  0  0
   16.6933    2.4467   15.3531 C   0  0  0  0  0  0  0  0  0  0  0  0
   16.8904    3.8190   15.5910 C   0  0  0  0  0  0  0  0  0  0  0  0
   17.2227    4.6864   14.5379 C   0  0  0  0  0  0  0  0  0  0  0  0
   17.3891    6.1283   14.8638 C   0  0  0  0  0  0  0  0  0  0  0  0
   17.4339    7.0741   13.7016 C   0  0  0  0  0  0  0  0  0  0  0  0
   17.4443    6.4906   12.2933 C   0  0  0  0  0  0  0  0  0  0  0  0
   19.8344    6.4095    7.4154 C   0  0  0  0  0  0  0  0  0  0  0  0
   18.5754    6.6968    7.9779 C   0  0  0  0  0  0  0  0  0  0  0  0
   20.7248    5.6221    8.1827 C   0  0  0  0  0  0  0  0  0  0  0  0
   20.3709    5.1137    9.4288 C   0  0  0  0  0  0  0  0  0  0  0  0
   19.1158    5.3835    9.9731 C   0  0  0  0  0  0  0  0  0  0  0  0
   18.2079    6.1762    9.2359 C   0  0  0  0  0  0  0  0  0  0  0  0
   19.1564    7.0576    5.1354 O   0  0  0  0  0  0  0  0  0  0  0  0
   20.3365    6.9677    5.8901 S   0  0  0  0  0  0  0  0  0  0  0  0
   21.3127    6.0679    5.3671 O   0  0  0  0  0  0  0  0  0  0  0  0
   20.8327    8.4634    6.1096 N   0  0  0  0  0  0  0  0  0  0  0  0
   20.0671    9.0241    6.4837 H   0  0  0  0  0  0  0  0  0  0  0  0
   21.1369    8.8549    5.2182 H   0  0  0  0  0  0  0  0  0  0  0  0
   16.3814    1.6914   16.4665 O   0  0  0  0  0  0  0  0  0  0  0  0
   15.3226    2.2038   17.3172 C   0  0  0  0  0  0  0  0  0  0  0  0
 26 25  1  0  0  0
 25  7  1  0  0  0
  6  7  2  0  0  0
  6  5  1  0  0  0
  7  8  1  0  0  0
  5  4  2  0  0  0
  8  9  2  0  0  0
  4  9  1  0  0  0
  4  3  1  0  0  0
  9 10  1  0  0  0
  2  1  2  0  0  0
  3  1  1  0  0  0
  3 12  2  0  0  0
  1 17  1  0  0  0
 10 11  2  0  0  0
 17 18  2  0  0  0
 17 16  1  0  0  0
 12 11  1  0  0  0
 18 14  1  0  0  0
 16 15  2  0  0  0
 14 13  2  0  0  0
 15 13  1  0  0  0
 13 20  1  0  0  0
 22 20  1  0  0  0
 19 20  2  0  0  0
 20 21  2  0  0  0
 22 23  1  0  0  0
 22 24  1  0  0  0
M  CHG 1   3   1
M  END
> <minimizedAffinity>
-6.95543

$$$$
4Z1E_DF5_A_302


 26 28  0  0  0  0  0  0  0  0999 V2000
   17.8530    6.7716   13.6252 C   0  0  0  0  0  0  0  0  0  0  0  0
   18.6852    7.5797   14.1234 O   0  0  0  0  0  0  0  0  0  0  0  0
   17.7122    6.8419   12.1945 N   0  0  0  0  0  0  0  0  0  0  0  0
   18.2084    7.9988   11.5153 C   0  0  0  0  0  0  0  0  0  0  0  0
   17.7517    9.3077   11.8285 C   0  0  0  0  0  0  0  0  0  0  0  0
   18.2292   10.4446   11.1603 C   0  0  0  0  0  0  0  0  0  0  0  0
   19.1783   10.2908   10.1451 C   0  0  0  0  0  0  0  0  0  0  0  0
   19.6545    9.0114    9.8057 C   0  0  0  0  0  0  0  0  0  0  0  0
   19.1866    7.8724   10.4807 C   0  0  0  0  0  0  0  0  0  0  0  0
   19.7176    6.5522   10.0472 C   0  0  0  0  0  0  0  0  0  0  0  0
   18.9909    5.3423   10.5528 C   0  0  0  0  0  0  0  0  0  0  0  0
   17.8682    5.5422   11.5643 C   0  0  0  0  0  0  0  0  0  0  0  0
   15.8029    3.9292   16.2148 C   0  0  0  0  0  0  0  0  0  0  0  0
   15.0536    4.9325   15.5698 C   0  0  0  0  0  0  0  0  0  0  0  0
   17.1936    3.8902   15.9582 C   0  0  0  0  0  0  0  0  0  0  0  0
   17.8162    4.8219   15.1330 C   0  0  0  0  0  0  0  0  0  0  0  0
   17.0738    5.8259   14.5125 C   0  0  0  0  0  0  0  0  0  0  0  0
   15.6807    5.8851   14.7403 C   0  0  0  0  0  0  0  0  0  0  0  0
   15.2782    3.3123   18.5434 O   0  0  0  0  0  0  0  0  0  0  0  0
   15.1268    2.7695   17.2579 S   0  0  0  0  0  0  0  0  0  0  0  0
   15.7897    1.5224   17.0543 O   0  0  0  0  0  0  0  0  0  0  0  0
   13.5634    2.7693   16.9624 N   0  0  0  0  0  0  0  0  0  0  0  0
   13.1844    3.7001   17.1363 H   0  0  0  0  0  0  0  0  0  0  0  0
   13.1021    2.0949   17.5730 H   0  0  0  0  0  0  0  0  0  0  0  0
   19.7185   11.3352    9.4206 O   0  0  0  0  0  0  0  0  0  0  0  0
   21.1547   11.5183    9.5263 C   0  0  0  0  0  0  0  0  0  0  0  0
 26 25  1  0  0  0
 25  7  1  0  0  0
  6  7  2  0  0  0
  6  5  1  0  0  0
  7  8  1  0  0  0
  5  4  2  0  0  0
  8  9  2  0  0  0
  4  9  1  0  0  0
  4  3  1  0  0  0
  9 10  1  0  0  0
  2  1  2  0  0  0
  3  1  1  0  0  0
  3 12  2  0  0  0
  1 17  1  0  0  0
 10 11  2  0  0  0
 17 18  2  0  0  0
 17 16  1  0  0  0
 12 11  1  0  0  0
 18 14  1  0  0  0
 16 15  2  0  0  0
 14 13  2  0  0  0
 15 13  1  0  0  0
 13 20  1  0  0  0
 22 20  1  0  0  0
 19 20  2  0  0  0
 20 21  2  0  0  0
 22 23  1  0  0  0
 22 24  1  0  0  0
M  CHG 1   3   1
M  END
> <minimizedAffinity>
-6.71972

$$$$
