4B1J_A1R_A_1966


 44 47  0  0  0  0  0  0  0  0999 V2000
   29.3885   -2.8515    3.6852 C   0  0  0  0  0  0  0  0  0  0  0  0
   28.1509   -4.3494    0.6346 C   0  0  0  0  0  0  0  0  0  0  0  0
   29.4636   -3.8133    0.0451 C   0  0  0  0  0  0  0  0  0  0  0  0
   30.3519   -4.9137   -0.1686 O   0  0  0  0  0  0  0  0  0  0  0  0
   29.9516   -2.8992    1.1574 C   0  0  0  0  0  0  0  0  0  0  0  0
   31.3614   -2.7591    1.1540 O   0  0  0  0  0  0  0  0  0  0  0  0
   28.2093   -4.1826    2.0394 O   0  0  0  0  0  0  0  0  0  0  0  0
   29.4992   -3.6558    2.4063 C   0  0  0  0  0  0  0  0  0  0  0  0
   30.4627   -5.4054    0.6602 H   0  0  0  0  0  0  0  0  0  0  0  0
   31.7734   -3.6341    1.2271 H   0  0  0  0  0  0  0  0  0  0  0  0
   23.3765   -5.0403   -1.1358 N   0  0  0  0  0  0  0  0  0  0  0  0
   24.3087   -5.9012   -0.7107 C   0  0  0  0  0  0  0  0  0  0  0  0
   25.5407   -5.6407   -0.2690 N   0  0  0  0  0  0  0  0  0  0  0  0
   25.7899   -4.3285   -0.2701 C   0  0  0  0  0  0  0  0  0  0  0  0
   24.9294   -3.3240   -0.6759 C   0  0  0  0  0  0  0  0  0  0  0  0
   23.6551   -3.7207   -1.1389 C   0  0  0  0  0  0  0  0  0  0  0  0
   22.7156   -2.8805   -1.5817 N   0  0  0  0  0  0  0  0  0  0  0  0
   25.5305   -2.0841   -0.5431 N   0  0  0  0  0  0  0  0  0  0  0  0
   26.7009   -2.3655   -0.0460 C   0  0  0  0  0  0  0  0  0  0  0  0
   26.9336   -3.6998    0.1354 N   0  0  0  0  0  0  0  0  0  0  0  0
   21.8483   -3.2299   -1.8898 H   0  0  0  0  0  0  0  0  0  0  0  0
   22.8906   -1.9118   -1.6000 H   0  0  0  0  0  0  0  0  0  0  0  0
   28.7903   -1.5863    3.4005 O   0  0  0  0  0  0  0  0  0  0  0  0
   28.9889   -0.3693    4.3693 P   0  0  0  0  0  0  0  0  0  0  0  0
   28.0611    0.7037    3.9819 O   0  0  0  0  0  0  0  0  0  0  0  0
   30.4447    0.0409    4.3332 O   0  0  0  0  0  0  0  0  0  0  0  0
   30.9988   -0.7098    4.5983 H   0  0  0  0  0  0  0  0  0  0  0  0
   28.6865   -1.0280    5.7877 O   0  0  0  0  0  0  0  0  0  0  0  0
   29.5095   -1.1199    7.1590 P   0  0  0  0  0  0  0  0  0  0  0  0
   28.5967   -1.7659    8.1755 O   0  0  0  0  0  0  0  0  0  0  0  0
   30.8397   -1.7344    6.9306 O   0  0  0  0  0  0  0  0  0  0  0  0
   28.4674   -2.6997    7.9467 H   0  0  0  0  0  0  0  0  0  0  0  0
   29.7281    0.3978    7.5189 O   0  0  0  0  0  0  0  0  0  0  0  0
   28.7670    1.1019    8.3109 C   0  0  0  0  0  0  0  0  0  0  0  0
   27.0332    2.7634    7.7165 N   0  0  0  0  0  0  0  0  0  0  0  0
   26.8624    3.8257    8.7249 C   0  0  0  0  0  0  0  0  0  0  0  0
   28.3564    5.2952    9.8715 O   0  0  0  0  0  0  0  0  0  0  0  0
   28.2205    3.9835    9.3808 C   0  0  0  0  0  0  0  0  0  0  0  0
   29.3271    4.6610    7.3215 O   0  0  0  0  0  0  0  0  0  0  0  0
   29.1695    3.6329    8.2632 C   0  0  0  0  0  0  0  0  0  0  0  0
   28.4663    2.4266    7.6338 C   0  0  0  0  0  0  0  0  0  0  0  0
   26.5007    1.9382    7.9918 H   0  0  0  0  0  0  0  0  0  0  0  0
   27.7148    5.4420   10.5840 H   0  0  0  0  0  0  0  0  0  0  0  0
   29.7735    5.4150    7.7376 H   0  0  0  0  0  0  0  0  0  0  0  0
 11 12  2  0  0  0
 11 16  1  0  0  0
 12 13  1  0  0  0
 13 14  2  0  0  0
 14 15  1  0  0  0
 14 20  1  0  0  0
 15 16  2  0  0  0
 15 18  1  0  0  0
 16 17  1  0  0  0
 18 19  2  0  0  0
 19 20  1  0  0  0
 20  2  1  0  0  0
  2  7  1  0  0  0
  2  3  1  0  0  0
  3  4  1  0  0  0
  3  5  1  0  0  0
  5  8  1  0  0  0
  5  6  1  0  0  0
  7  8  1  0  0  0
  8  1  1  0  0  0
  1 23  1  0  0  0
 23 24  1  0  0  0
 24 28  1  0  0  0
 24 25  2  0  0  0
 24 26  1  0  0  0
 28 29  1  0  0  0
 29 31  2  0  0  0
 29 30  1  0  0  0
 29 33  1  0  0  0
 33 34  1  0  0  0
 34 41  1  0  0  0
 35 41  1  0  0  0
 35 36  1  0  0  0
 36 38  1  0  0  0
 37 38  1  0  0  0
 38 40  1  0  0  0
 39 40  1  0  0  0
 40 41  1  0  0  0
 17 21  1  0  0  0
 17 22  1  0  0  0
  4  9  1  0  0  0
  6 10  1  0  0  0
 26 27  1  0  0  0
 30 32  1  0  0  0
 35 42  1  0  0  0
 37 43  1  0  0  0
 39 44  1  0  0  0
M  END
> <minimizedAffinity>
-11.69770

$$$$
4B1J_A1R_A_1966


 44 47  0  0  0  0  0  0  0  0999 V2000
   28.6687   -1.6363    3.0880 C   0  0  0  0  0  0  0  0  0  0  0  0
   29.5310    0.4118    5.9416 C   0  0  0  0  0  0  0  0  0  0  0  0
   29.4927   -0.9267    6.6934 C   0  0  0  0  0  0  0  0  0  0  0  0
   30.8344   -1.3218    6.9923 O   0  0  0  0  0  0  0  0  0  0  0  0
   28.8489   -1.8413    5.6638 C   0  0  0  0  0  0  0  0  0  0  0  0
   29.2306   -3.1944    5.8384 O   0  0  0  0  0  0  0  0  0  0  0  0
   29.4351    0.1316    4.5571 O   0  0  0  0  0  0  0  0  0  0  0  0
   29.4231   -1.2952    4.3565 C   0  0  0  0  0  0  0  0  0  0  0  0
   31.3551   -1.3429    6.1742 H   0  0  0  0  0  0  0  0  0  0  0  0
   30.1972   -3.2653    5.7996 H   0  0  0  0  0  0  0  0  0  0  0  0
   28.1997    4.3771    8.9268 N   0  0  0  0  0  0  0  0  0  0  0  0
   29.3400    3.6869    8.8082 C   0  0  0  0  0  0  0  0  0  0  0  0
   29.6067    2.6540    8.0066 N   0  0  0  0  0  0  0  0  0  0  0  0
   28.5520    2.3420    7.2489 C   0  0  0  0  0  0  0  0  0  0  0  0
   27.3153    2.9624    7.2578 C   0  0  0  0  0  0  0  0  0  0  0  0
   27.1441    4.0362    8.1595 C   0  0  0  0  0  0  0  0  0  0  0  0
   26.0110    4.7287    8.3051 N   0  0  0  0  0  0  0  0  0  0  0  0
   26.4645    2.3665    6.3427 N   0  0  0  0  0  0  0  0  0  0  0  0
   27.2026    1.4414    5.7992 C   0  0  0  0  0  0  0  0  0  0  0  0
   28.4702    1.3590    6.3031 N   0  0  0  0  0  0  0  0  0  0  0  0
   25.9650    5.4665    8.9553 H   0  0  0  0  0  0  0  0  0  0  0  0
   25.2218    4.5012    7.7622 H   0  0  0  0  0  0  0  0  0  0  0  0
   29.5998   -1.9403    2.0487 O   0  0  0  0  0  0  0  0  0  0  0  0
   29.7969   -3.4157    1.5550 P   0  0  0  0  0  0  0  0  0  0  0  0
   30.5830   -4.1516    2.5563 O   0  0  0  0  0  0  0  0  0  0  0  0
   30.4347   -3.3822    0.1835 O   0  0  0  0  0  0  0  0  0  0  0  0
   29.8670   -2.8838   -0.4250 H   0  0  0  0  0  0  0  0  0  0  0  0
   28.2913   -3.9116    1.3981 O   0  0  0  0  0  0  0  0  0  0  0  0
   27.5863   -5.0258    0.4882 P   0  0  0  0  0  0  0  0  0  0  0  0
   28.6529   -5.5856   -0.4243 O   0  0  0  0  0  0  0  0  0  0  0  0
   26.8203   -5.9787    1.3275 O   0  0  0  0  0  0  0  0  0  0  0  0
   29.2819   -6.1089    0.0966 H   0  0  0  0  0  0  0  0  0  0  0  0
   26.5572   -4.1731   -0.3454 O   0  0  0  0  0  0  0  0  0  0  0  0
   25.1754   -4.5415   -0.3881 C   0  0  0  0  0  0  0  0  0  0  0  0
   25.0868   -2.0833   -0.1252 N   0  0  0  0  0  0  0  0  0  0  0  0
   24.5399   -1.3826   -1.3018 C   0  0  0  0  0  0  0  0  0  0  0  0
   22.5797   -1.6477   -2.6410 O   0  0  0  0  0  0  0  0  0  0  0  0
   23.5712   -2.3590   -1.9405 C   0  0  0  0  0  0  0  0  0  0  0  0
   22.1082   -2.4442    0.0030 O   0  0  0  0  0  0  0  0  0  0  0  0
   23.0611   -3.1400   -0.7562 C   0  0  0  0  0  0  0  0  0  0  0  0
   24.3474   -3.3470    0.0490 C   0  0  0  0  0  0  0  0  0  0  0  0
   26.0768   -2.2808   -0.2713 H   0  0  0  0  0  0  0  0  0  0  0  0
   22.9854   -1.1742   -3.3840 H   0  0  0  0  0  0  0  0  0  0  0  0
   21.3020   -2.3229   -0.5226 H   0  0  0  0  0  0  0  0  0  0  0  0
 11 12  2  0  0  0
 11 16  1  0  0  0
 12 13  1  0  0  0
 13 14  2  0  0  0
 14 15  1  0  0  0
 14 20  1  0  0  0
 15 16  2  0  0  0
 15 18  1  0  0  0
 16 17  1  0  0  0
 18 19  2  0  0  0
 19 20  1  0  0  0
 20  2  1  0  0  0
  2  7  1  0  0  0
  2  3  1  0  0  0
  3  4  1  0  0  0
  3  5  1  0  0  0
  5  8  1  0  0  0
  5  6  1  0  0  0
  7  8  1  0  0  0
  8  1  1  0  0  0
  1 23  1  0  0  0
 23 24  1  0  0  0
 24 28  1  0  0  0
 24 25  2  0  0  0
 24 26  1  0  0  0
 28 29  1  0  0  0
 29 31  2  0  0  0
 29 30  1  0  0  0
 29 33  1  0  0  0
 33 34  1  0  0  0
 34 41  1  0  0  0
 35 41  1  0  0  0
 35 36  1  0  0  0
 36 38  1  0  0  0
 37 38  1  0  0  0
 38 40  1  0  0  0
 39 40  1  0  0  0
 40 41  1  0  0  0
 17 21  1  0  0  0
 17 22  1  0  0  0
  4  9  1  0  0  0
  6 10  1  0  0  0
 26 27  1  0  0  0
 30 32  1  0  0  0
 35 42  1  0  0  0
 37 43  1  0  0  0
 39 44  1  0  0  0
M  END
> <minimizedAffinity>
-10.18433

$$$$
4B1J_A1R_A_1966


 44 47  0  0  0  0  0  0  0  0999 V2000
   28.4428    0.8933    8.8441 C   0  0  0  0  0  0  0  0  0  0  0  0
   27.9983    4.4733    9.1040 C   0  0  0  0  0  0  0  0  0  0  0  0
   27.3686    4.3204    7.7118 C   0  0  0  0  0  0  0  0  0  0  0  0
   25.9514    4.4711    7.8318 O   0  0  0  0  0  0  0  0  0  0  0  0
   27.7582    2.8959    7.3509 C   0  0  0  0  0  0  0  0  0  0  0  0
   26.8432    2.3050    6.4450 O   0  0  0  0  0  0  0  0  0  0  0  0
   28.2092    3.1745    9.6268 O   0  0  0  0  0  0  0  0  0  0  0  0
   27.6832    2.1968    8.7083 C   0  0  0  0  0  0  0  0  0  0  0  0
   25.6140    3.8427    8.4892 H   0  0  0  0  0  0  0  0  0  0  0  0
   25.9512    2.3280    6.8253 H   0  0  0  0  0  0  0  0  0  0  0  0
   30.5102    8.5755   10.9119 N   0  0  0  0  0  0  0  0  0  0  0  0
   29.2581    8.1392   11.0925 C   0  0  0  0  0  0  0  0  0  0  0  0
   28.6727    7.0569   10.5761 N   0  0  0  0  0  0  0  0  0  0  0  0
   29.5178    6.3693    9.8036 C   0  0  0  0  0  0  0  0  0  0  0  0
   30.8342    6.6927    9.5266 C   0  0  0  0  0  0  0  0  0  0  0  0
   31.3421    7.8709   10.1179 C   0  0  0  0  0  0  0  0  0  0  0  0
   32.5829    8.3328    9.9394 N   0  0  0  0  0  0  0  0  0  0  0  0
   31.3998    5.7526    8.6825 N   0  0  0  0  0  0  0  0  0  0  0  0
   30.4397    4.8921    8.4991 C   0  0  0  0  0  0  0  0  0  0  0  0
   29.2706    5.2035    9.1346 N   0  0  0  0  0  0  0  0  0  0  0  0
   32.8678    9.1632   10.3849 H   0  0  0  0  0  0  0  0  0  0  0  0
   33.2123    7.8428    9.3623 H   0  0  0  0  0  0  0  0  0  0  0  0
   28.9625    0.5113    7.5699 O   0  0  0  0  0  0  0  0  0  0  0  0
   29.2147   -0.9979    7.2265 P   0  0  0  0  0  0  0  0  0  0  0  0
   28.5670   -1.8333    8.2487 O   0  0  0  0  0  0  0  0  0  0  0  0
   30.7066   -1.2217    7.1119 O   0  0  0  0  0  0  0  0  0  0  0  0
   31.0685   -0.6422    6.4232 H   0  0  0  0  0  0  0  0  0  0  0  0
   28.5751   -1.1134    5.7722 O   0  0  0  0  0  0  0  0  0  0  0  0
   28.8824   -0.3980    4.3723 P   0  0  0  0  0  0  0  0  0  0  0  0
   27.9711    0.8044    4.2852 O   0  0  0  0  0  0  0  0  0  0  0  0
   30.3396   -0.1785    4.2057 O   0  0  0  0  0  0  0  0  0  0  0  0
   28.2555    1.4728    4.9281 H   0  0  0  0  0  0  0  0  0  0  0  0
   28.4316   -1.4921    3.3327 O   0  0  0  0  0  0  0  0  0  0  0  0
   29.2166   -2.6714    3.1335 C   0  0  0  0  0  0  0  0  0  0  0  0
   30.3564   -2.1244    1.0072 N   0  0  0  0  0  0  0  0  0  0  0  0
   31.5095   -2.9954    0.7137 C   0  0  0  0  0  0  0  0  0  0  0  0
   31.8497   -5.3595    0.6782 O   0  0  0  0  0  0  0  0  0  0  0  0
   31.1884   -4.3259    1.3667 C   0  0  0  0  0  0  0  0  0  0  0  0
   29.2091   -4.7120    0.0037 O   0  0  0  0  0  0  0  0  0  0  0  0
   29.6843   -4.3808    1.2816 C   0  0  0  0  0  0  0  0  0  0  0  0
   29.3061   -2.9412    1.6426 C   0  0  0  0  0  0  0  0  0  0  0  0
   30.6415   -1.3769    1.6399 H   0  0  0  0  0  0  0  0  0  0  0  0
   32.8085   -5.2544    0.7806 H   0  0  0  0  0  0  0  0  0  0  0  0
   29.4577   -5.6256   -0.2069 H   0  0  0  0  0  0  0  0  0  0  0  0
 11 12  2  0  0  0
 11 16  1  0  0  0
 12 13  1  0  0  0
 13 14  2  0  0  0
 14 15  1  0  0  0
 14 20  1  0  0  0
 15 16  2  0  0  0
 15 18  1  0  0  0
 16 17  1  0  0  0
 18 19  2  0  0  0
 19 20  1  0  0  0
 20  2  1  0  0  0
  2  7  1  0  0  0
  2  3  1  0  0  0
  3  4  1  0  0  0
  3  5  1  0  0  0
  5  8  1  0  0  0
  5  6  1  0  0  0
  7  8  1  0  0  0
  8  1  1  0  0  0
  1 23  1  0  0  0
 23 24  1  0  0  0
 24 28  1  0  0  0
 24 25  2  0  0  0
 24 26  1  0  0  0
 28 29  1  0  0  0
 29 31  2  0  0  0
 29 30  1  0  0  0
 29 33  1  0  0  0
 33 34  1  0  0  0
 34 41  1  0  0  0
 35 41  1  0  0  0
 35 36  1  0  0  0
 36 38  1  0  0  0
 37 38  1  0  0  0
 38 40  1  0  0  0
 39 40  1  0  0  0
 40 41  1  0  0  0
 17 21  1  0  0  0
 17 22  1  0  0  0
  4  9  1  0  0  0
  6 10  1  0  0  0
 26 27  1  0  0  0
 30 32  1  0  0  0
 35 42  1  0  0  0
 37 43  1  0  0  0
 39 44  1  0  0  0
M  END
> <minimizedAffinity>
-9.88943

$$$$
4B1J_A1R_A_1966


 44 47  0  0  0  0  0  0  0  0999 V2000
   30.0878   -0.9004    2.9879 C   0  0  0  0  0  0  0  0  0  0  0  0
   28.6845   -3.8658    1.4652 C   0  0  0  0  0  0  0  0  0  0  0  0
   29.9678   -3.8282    0.6225 C   0  0  0  0  0  0  0  0  0  0  0  0
   30.8375   -4.8729    1.0670 O   0  0  0  0  0  0  0  0  0  0  0  0
   30.5182   -2.4515    0.9586 C   0  0  0  0  0  0  0  0  0  0  0  0
   31.9266   -2.3904    0.8184 O   0  0  0  0  0  0  0  0  0  0  0  0
   28.8170   -2.9038    2.4955 O   0  0  0  0  0  0  0  0  0  0  0  0
   30.1272   -2.3080    2.4295 C   0  0  0  0  0  0  0  0  0  0  0  0
   30.9886   -4.7838    2.0211 H   0  0  0  0  0  0  0  0  0  0  0  0
   32.3370   -3.0673    1.3791 H   0  0  0  0  0  0  0  0  0  0  0  0
   24.3622   -5.8531   -0.4779 N   0  0  0  0  0  0  0  0  0  0  0  0
   25.3674   -6.3992    0.2166 C   0  0  0  0  0  0  0  0  0  0  0  0
   26.4705   -5.8112    0.6836 N   0  0  0  0  0  0  0  0  0  0  0  0
   26.4885   -4.5085    0.3893 C   0  0  0  0  0  0  0  0  0  0  0  0
   25.5262   -3.8068   -0.3149 C   0  0  0  0  0  0  0  0  0  0  0  0
   24.4079   -4.5380   -0.7735 C   0  0  0  0  0  0  0  0  0  0  0  0
   23.4014   -4.0169   -1.4808 N   0  0  0  0  0  0  0  0  0  0  0  0
   25.8835   -2.4746   -0.4332 N   0  0  0  0  0  0  0  0  0  0  0  0
   27.0126   -2.4044    0.2120 C   0  0  0  0  0  0  0  0  0  0  0  0
   27.4465   -3.5939    0.7259 N   0  0  0  0  0  0  0  0  0  0  0  0
   22.6531   -4.5890   -1.7670 H   0  0  0  0  0  0  0  0  0  0  0  0
   23.4081   -3.0609   -1.7157 H   0  0  0  0  0  0  0  0  0  0  0  0
   30.4541   -0.9264    4.3680 O   0  0  0  0  0  0  0  0  0  0  0  0
   29.3690   -1.1281    5.4820 P   0  0  0  0  0  0  0  0  0  0  0  0
   29.6002   -2.4210    6.1431 O   0  0  0  0  0  0  0  0  0  0  0  0
   28.0009   -1.0033    4.8482 O   0  0  0  0  0  0  0  0  0  0  0  0
   27.9156   -0.1312    4.4322 H   0  0  0  0  0  0  0  0  0  0  0  0
   29.6122    0.1442    6.4092 O   0  0  0  0  0  0  0  0  0  0  0  0
   28.7201    0.8950    7.5077 P   0  0  0  0  0  0  0  0  0  0  0  0
   27.4584    1.3499    6.8113 O   0  0  0  0  0  0  0  0  0  0  0  0
   28.5787    0.0610    8.7258 O   0  0  0  0  0  0  0  0  0  0  0  0
   26.9137    0.5778    6.5921 H   0  0  0  0  0  0  0  0  0  0  0  0
   29.6146    2.1398    7.8695 O   0  0  0  0  0  0  0  0  0  0  0  0
   29.1022    3.4680    7.7272 C   0  0  0  0  0  0  0  0  0  0  0  0
   30.2594    5.6544    7.7242 N   0  0  0  0  0  0  0  0  0  0  0  0
   29.4708    6.7412    8.3339 C   0  0  0  0  0  0  0  0  0  0  0  0
   28.2857    6.9916   10.3928 O   0  0  0  0  0  0  0  0  0  0  0  0
   28.5947    6.0710    9.3746 C   0  0  0  0  0  0  0  0  0  0  0  0
   30.4775    5.2735   10.6951 O   0  0  0  0  0  0  0  0  0  0  0  0
   29.4433    4.9074    9.8205 C   0  0  0  0  0  0  0  0  0  0  0  0
   30.0123    4.4165    8.4860 C   0  0  0  0  0  0  0  0  0  0  0  0
   29.9740    5.5244    6.7536 H   0  0  0  0  0  0  0  0  0  0  0  0
   27.7406    7.7062   10.0281 H   0  0  0  0  0  0  0  0  0  0  0  0
   30.0984    5.5812   11.5333 H   0  0  0  0  0  0  0  0  0  0  0  0
 11 12  2  0  0  0
 11 16  1  0  0  0
 12 13  1  0  0  0
 13 14  2  0  0  0
 14 15  1  0  0  0
 14 20  1  0  0  0
 15 16  2  0  0  0
 15 18  1  0  0  0
 16 17  1  0  0  0
 18 19  2  0  0  0
 19 20  1  0  0  0
 20  2  1  0  0  0
  2  7  1  0  0  0
  2  3  1  0  0  0
  3  4  1  0  0  0
  3  5  1  0  0  0
  5  8  1  0  0  0
  5  6  1  0  0  0
  7  8  1  0  0  0
  8  1  1  0  0  0
  1 23  1  0  0  0
 23 24  1  0  0  0
 24 28  1  0  0  0
 24 25  2  0  0  0
 24 26  1  0  0  0
 28 29  1  0  0  0
 29 31  2  0  0  0
 29 30  1  0  0  0
 29 33  1  0  0  0
 33 34  1  0  0  0
 34 41  1  0  0  0
 35 41  1  0  0  0
 35 36  1  0  0  0
 36 38  1  0  0  0
 37 38  1  0  0  0
 38 40  1  0  0  0
 39 40  1  0  0  0
 40 41  1  0  0  0
 17 21  1  0  0  0
 17 22  1  0  0  0
  4  9  1  0  0  0
  6 10  1  0  0  0
 26 27  1  0  0  0
 30 32  1  0  0  0
 35 42  1  0  0  0
 37 43  1  0  0  0
 39 44  1  0  0  0
M  END
> <minimizedAffinity>
-9.46029

$$$$
4B1J_A1R_A_1966


 44 47  0  0  0  0  0  0  0  0999 V2000
   28.6056   -1.5810    2.6038 C   0  0  0  0  0  0  0  0  0  0  0  0
   27.9765   -4.6789    0.8462 C   0  0  0  0  0  0  0  0  0  0  0  0
   29.0358   -4.1393   -0.1260 C   0  0  0  0  0  0  0  0  0  0  0  0
   30.2461   -4.8782    0.0603 O   0  0  0  0  0  0  0  0  0  0  0  0
   29.1752   -2.6981    0.3373 C   0  0  0  0  0  0  0  0  0  0  0  0
   30.4542   -2.1640    0.0444 O   0  0  0  0  0  0  0  0  0  0  0  0
   27.9619   -3.8324    1.9811 O   0  0  0  0  0  0  0  0  0  0  0  0
   28.9939   -2.8357    1.8490 C   0  0  0  0  0  0  0  0  0  0  0  0
   30.5090   -4.8382    0.9931 H   0  0  0  0  0  0  0  0  0  0  0  0
   31.1375   -2.7198    0.4509 H   0  0  0  0  0  0  0  0  0  0  0  0
   24.0510   -2.0695   -1.2002 N   0  0  0  0  0  0  0  0  0  0  0  0
   25.2657   -1.6863   -0.7897 C   0  0  0  0  0  0  0  0  0  0  0  0
   26.2359   -2.4313   -0.2564 N   0  0  0  0  0  0  0  0  0  0  0  0
   25.8720   -3.7135   -0.1695 C   0  0  0  0  0  0  0  0  0  0  0  0
   24.6584   -4.2561   -0.5532 C   0  0  0  0  0  0  0  0  0  0  0  0
   23.7013   -3.3675   -1.0917 C   0  0  0  0  0  0  0  0  0  0  0  0
   22.4784   -3.7253   -1.4934 N   0  0  0  0  0  0  0  0  0  0  0  0
   24.6350   -5.6186   -0.3095 N   0  0  0  0  0  0  0  0  0  0  0  0
   25.8182   -5.8606    0.1778 C   0  0  0  0  0  0  0  0  0  0  0  0
   26.6160   -4.7580    0.3026 N   0  0  0  0  0  0  0  0  0  0  0  0
   21.8633   -3.0495   -1.8597 H   0  0  0  0  0  0  0  0  0  0  0  0
   22.1924   -4.6647   -1.4232 H   0  0  0  0  0  0  0  0  0  0  0  0
   28.2131   -1.9282    3.9324 O   0  0  0  0  0  0  0  0  0  0  0  0
   29.2639   -1.9616    5.0960 P   0  0  0  0  0  0  0  0  0  0  0  0
   30.4338   -1.1618    4.7039 O   0  0  0  0  0  0  0  0  0  0  0  0
   29.5894   -3.4058    5.4081 O   0  0  0  0  0  0  0  0  0  0  0  0
   28.7772   -3.8735    5.6582 H   0  0  0  0  0  0  0  0  0  0  0  0
   28.4261   -1.3606    6.3102 O   0  0  0  0  0  0  0  0  0  0  0  0
   28.8281   -0.7905    7.7523 P   0  0  0  0  0  0  0  0  0  0  0  0
   27.9579   -1.5013    8.7628 O   0  0  0  0  0  0  0  0  0  0  0  0
   30.2978   -0.8412    7.9438 O   0  0  0  0  0  0  0  0  0  0  0  0
   28.2268   -2.4313    8.8236 H   0  0  0  0  0  0  0  0  0  0  0  0
   28.4019    0.7219    7.6434 O   0  0  0  0  0  0  0  0  0  0  0  0
   29.3752    1.7320    7.3617 C   0  0  0  0  0  0  0  0  0  0  0  0
   29.6325    4.1428    7.8532 N   0  0  0  0  0  0  0  0  0  0  0  0
   28.4100    4.9298    7.6071 C   0  0  0  0  0  0  0  0  0  0  0  0
   26.1196    4.6998    8.2456 O   0  0  0  0  0  0  0  0  0  0  0  0
   27.2577    3.9739    7.8485 C   0  0  0  0  0  0  0  0  0  0  0  0
   27.8206    3.6154   10.1893 O   0  0  0  0  0  0  0  0  0  0  0  0
   27.8103    3.0511    8.9048 C   0  0  0  0  0  0  0  0  0  0  0  0
   29.2393    2.8310    8.3996 C   0  0  0  0  0  0  0  0  0  0  0  0
   30.1407    4.0132    6.9783 H   0  0  0  0  0  0  0  0  0  0  0  0
   25.8267    5.2668    7.5151 H   0  0  0  0  0  0  0  0  0  0  0  0
   26.9084    3.7472   10.4919 H   0  0  0  0  0  0  0  0  0  0  0  0
 11 12  2  0  0  0
 11 16  1  0  0  0
 12 13  1  0  0  0
 13 14  2  0  0  0
 14 15  1  0  0  0
 14 20  1  0  0  0
 15 16  2  0  0  0
 15 18  1  0  0  0
 16 17  1  0  0  0
 18 19  2  0  0  0
 19 20  1  0  0  0
 20  2  1  0  0  0
  2  7  1  0  0  0
  2  3  1  0  0  0
  3  4  1  0  0  0
  3  5  1  0  0  0
  5  8  1  0  0  0
  5  6  1  0  0  0
  7  8  1  0  0  0
  8  1  1  0  0  0
  1 23  1  0  0  0
 23 24  1  0  0  0
 24 28  1  0  0  0
 24 25  2  0  0  0
 24 26  1  0  0  0
 28 29  1  0  0  0
 29 31  2  0  0  0
 29 30  1  0  0  0
 29 33  1  0  0  0
 33 34  1  0  0  0
 34 41  1  0  0  0
 35 41  1  0  0  0
 35 36  1  0  0  0
 36 38  1  0  0  0
 37 38  1  0  0  0
 38 40  1  0  0  0
 39 40  1  0  0  0
 40 41  1  0  0  0
 17 21  1  0  0  0
 17 22  1  0  0  0
  4  9  1  0  0  0
  6 10  1  0  0  0
 26 27  1  0  0  0
 30 32  1  0  0  0
 35 42  1  0  0  0
 37 43  1  0  0  0
 39 44  1  0  0  0
M  END
> <minimizedAffinity>
-9.37093

$$$$
4B1J_A1R_A_1966


 44 47  0  0  0  0  0  0  0  0999 V2000
   28.5417    0.7682    8.7131 C   0  0  0  0  0  0  0  0  0  0  0  0
   28.1519    4.3570    8.9373 C   0  0  0  0  0  0  0  0  0  0  0  0
   27.4730    4.1934    7.5697 C   0  0  0  0  0  0  0  0  0  0  0  0
   26.0628    4.3644    7.7359 O   0  0  0  0  0  0  0  0  0  0  0  0
   27.8318    2.7591    7.2159 C   0  0  0  0  0  0  0  0  0  0  0  0
   26.8789    2.1680    6.3502 O   0  0  0  0  0  0  0  0  0  0  0  0
   28.3641    3.0628    9.4709 O   0  0  0  0  0  0  0  0  0  0  0  0
   27.7946    2.0797    8.5849 C   0  0  0  0  0  0  0  0  0  0  0  0
   25.7401    3.7496    8.4132 H   0  0  0  0  0  0  0  0  0  0  0  0
   26.0007    2.2079    6.7603 H   0  0  0  0  0  0  0  0  0  0  0  0
   31.3661    7.2471    6.1582 N   0  0  0  0  0  0  0  0  0  0  0  0
   30.1658    6.7231    5.8835 C   0  0  0  0  0  0  0  0  0  0  0  0
   29.3897    5.9691    6.6644 N   0  0  0  0  0  0  0  0  0  0  0  0
   29.9501    5.7713    7.8606 C   0  0  0  0  0  0  0  0  0  0  0  0
   31.1766    6.2483    8.2879 C   0  0  0  0  0  0  0  0  0  0  0  0
   31.9175    7.0240    7.3687 C   0  0  0  0  0  0  0  0  0  0  0  0
   33.1231    7.5436    7.6162 N   0  0  0  0  0  0  0  0  0  0  0  0
   31.4336    5.8388    9.5850 N   0  0  0  0  0  0  0  0  0  0  0  0
   30.3675    5.1642    9.9077 C   0  0  0  0  0  0  0  0  0  0  0  0
   29.4338    5.0707    8.9142 N   0  0  0  0  0  0  0  0  0  0  0  0
   33.5812    8.0753    6.9257 H   0  0  0  0  0  0  0  0  0  0  0  0
   33.5534    7.3950    8.4891 H   0  0  0  0  0  0  0  0  0  0  0  0
   29.1001    0.4138    7.4473 O   0  0  0  0  0  0  0  0  0  0  0  0
   29.3283   -1.0896    7.0642 P   0  0  0  0  0  0  0  0  0  0  0  0
   28.5282   -1.9361    7.9616 O   0  0  0  0  0  0  0  0  0  0  0  0
   30.8125   -1.3785    7.1158 O   0  0  0  0  0  0  0  0  0  0  0  0
   31.2783   -0.7881    6.5033 H   0  0  0  0  0  0  0  0  0  0  0  0
   28.8636   -1.1127    5.5408 O   0  0  0  0  0  0  0  0  0  0  0  0
   29.2414   -0.2293    4.2590 P   0  0  0  0  0  0  0  0  0  0  0  0
   28.0254    0.6045    3.9274 O   0  0  0  0  0  0  0  0  0  0  0  0
   30.5295    0.4747    4.4700 O   0  0  0  0  0  0  0  0  0  0  0  0
   27.8977    1.2773    4.6144 H   0  0  0  0  0  0  0  0  0  0  0  0
   29.4608   -1.3267    3.1506 O   0  0  0  0  0  0  0  0  0  0  0  0
   29.1363   -2.6957    3.4102 C   0  0  0  0  0  0  0  0  0  0  0  0
   28.3939   -4.6084    2.0282 N   0  0  0  0  0  0  0  0  0  0  0  0
   27.3672   -4.2537    1.0309 C   0  0  0  0  0  0  0  0  0  0  0  0
   27.1701   -2.5453   -0.6270 O   0  0  0  0  0  0  0  0  0  0  0  0
   27.6306   -2.8027    0.6774 C   0  0  0  0  0  0  0  0  0  0  0  0
   29.8513   -3.2446   -0.2157 O   0  0  0  0  0  0  0  0  0  0  0  0
   29.1241   -2.6875    0.8471 C   0  0  0  0  0  0  0  0  0  0  0  0
   29.3471   -3.4885    2.1333 C   0  0  0  0  0  0  0  0  0  0  0  0
   27.9530   -4.7717    2.9334 H   0  0  0  0  0  0  0  0  0  0  0  0
   26.2050   -2.6391   -0.6537 H   0  0  0  0  0  0  0  0  0  0  0  0
   29.6978   -2.7249   -1.0201 H   0  0  0  0  0  0  0  0  0  0  0  0
 11 12  2  0  0  0
 11 16  1  0  0  0
 12 13  1  0  0  0
 13 14  2  0  0  0
 14 15  1  0  0  0
 14 20  1  0  0  0
 15 16  2  0  0  0
 15 18  1  0  0  0
 16 17  1  0  0  0
 18 19  2  0  0  0
 19 20  1  0  0  0
 20  2  1  0  0  0
  2  7  1  0  0  0
  2  3  1  0  0  0
  3  4  1  0  0  0
  3  5  1  0  0  0
  5  8  1  0  0  0
  5  6  1  0  0  0
  7  8  1  0  0  0
  8  1  1  0  0  0
  1 23  1  0  0  0
 23 24  1  0  0  0
 24 28  1  0  0  0
 24 25  2  0  0  0
 24 26  1  0  0  0
 28 29  1  0  0  0
 29 31  2  0  0  0
 29 30  1  0  0  0
 29 33  1  0  0  0
 33 34  1  0  0  0
 34 41  1  0  0  0
 35 41  1  0  0  0
 35 36  1  0  0  0
 36 38  1  0  0  0
 37 38  1  0  0  0
 38 40  1  0  0  0
 39 40  1  0  0  0
 40 41  1  0  0  0
 17 21  1  0  0  0
 17 22  1  0  0  0
  4  9  1  0  0  0
  6 10  1  0  0  0
 26 27  1  0  0  0
 30 32  1  0  0  0
 35 42  1  0  0  0
 37 43  1  0  0  0
 39 44  1  0  0  0
M  END
> <minimizedAffinity>
-9.36148

$$$$
4B1J_A1R_A_1966


 44 47  0  0  0  0  0  0  0  0999 V2000
   29.3002   -1.2726    3.0615 C   0  0  0  0  0  0  0  0  0  0  0  0
   29.6575    0.4677    6.2120 C   0  0  0  0  0  0  0  0  0  0  0  0
   29.4770   -0.9360    6.8081 C   0  0  0  0  0  0  0  0  0  0  0  0
   30.7416   -1.3911    7.2972 O   0  0  0  0  0  0  0  0  0  0  0  0
   29.0195   -1.7305    5.5955 C   0  0  0  0  0  0  0  0  0  0  0  0
   29.3545   -3.1031    5.6986 O   0  0  0  0  0  0  0  0  0  0  0  0
   29.8065    0.3253    4.8112 O   0  0  0  0  0  0  0  0  0  0  0  0
   29.8202   -1.0746    4.4705 C   0  0  0  0  0  0  0  0  0  0  0  0
   31.3989   -1.3457    6.5854 H   0  0  0  0  0  0  0  0  0  0  0  0
   30.3122   -3.1937    5.8234 H   0  0  0  0  0  0  0  0  0  0  0  0
   28.0487    4.4829    8.9864 N   0  0  0  0  0  0  0  0  0  0  0  0
   29.2078    3.8144    8.9647 C   0  0  0  0  0  0  0  0  0  0  0  0
   29.5486    2.7661    8.2126 N   0  0  0  0  0  0  0  0  0  0  0  0
   28.5541    2.4110    7.3948 C   0  0  0  0  0  0  0  0  0  0  0  0
   27.3078    3.0047    7.3026 C   0  0  0  0  0  0  0  0  0  0  0  0
   27.0546    4.0986    8.1598 C   0  0  0  0  0  0  0  0  0  0  0  0
   25.9008    4.7702    8.2089 N   0  0  0  0  0  0  0  0  0  0  0  0
   26.5330    2.3660    6.3497 N   0  0  0  0  0  0  0  0  0  0  0  0
   27.3243    1.4426    5.8837 C   0  0  0  0  0  0  0  0  0  0  0  0
   28.5562    1.4012    6.4740 N   0  0  0  0  0  0  0  0  0  0  0  0
   25.7963    5.5242    8.8332 H   0  0  0  0  0  0  0  0  0  0  0  0
   25.1550    4.5111    7.6208 H   0  0  0  0  0  0  0  0  0  0  0  0
   30.3212   -1.8641    2.2571 O   0  0  0  0  0  0  0  0  0  0  0  0
   30.2501   -3.3787    1.8570 P   0  0  0  0  0  0  0  0  0  0  0  0
   30.5869   -4.1974    3.0310 O   0  0  0  0  0  0  0  0  0  0  0  0
   31.1636   -3.6062    0.6726 O   0  0  0  0  0  0  0  0  0  0  0  0
   30.8868   -3.0379   -0.0631 H   0  0  0  0  0  0  0  0  0  0  0  0
   28.7419   -3.5158    1.3631 O   0  0  0  0  0  0  0  0  0  0  0  0
   27.8931   -2.8098    0.2023 P   0  0  0  0  0  0  0  0  0  0  0  0
   26.8892   -1.9067    0.8808 O   0  0  0  0  0  0  0  0  0  0  0  0
   28.7927   -2.2094   -0.8123 O   0  0  0  0  0  0  0  0  0  0  0  0
   27.3514   -1.1569    1.2869 H   0  0  0  0  0  0  0  0  0  0  0  0
   27.1553   -4.0326   -0.4619 O   0  0  0  0  0  0  0  0  0  0  0  0
   27.1638   -5.3161    0.1700 C   0  0  0  0  0  0  0  0  0  0  0  0
   24.9031   -4.4384    0.6585 N   0  0  0  0  0  0  0  0  0  0  0  0
   24.0008   -4.4478   -0.5078 C   0  0  0  0  0  0  0  0  0  0  0  0
   23.3799   -6.0926   -2.1250 O   0  0  0  0  0  0  0  0  0  0  0  0
   24.4624   -5.6088   -1.3673 C   0  0  0  0  0  0  0  0  0  0  0  0
   23.9905   -7.2814    0.3369 O   0  0  0  0  0  0  0  0  0  0  0  0
   24.9962   -6.5825   -0.3477 C   0  0  0  0  0  0  0  0  0  0  0  0
   25.7472   -5.6461    0.6035 C   0  0  0  0  0  0  0  0  0  0  0  0
   25.4914   -3.6055    0.6323 H   0  0  0  0  0  0  0  0  0  0  0  0
   23.0958   -5.4114   -2.7544 H   0  0  0  0  0  0  0  0  0  0  0  0
   23.5268   -7.8682   -0.2807 H   0  0  0  0  0  0  0  0  0  0  0  0
 11 12  2  0  0  0
 11 16  1  0  0  0
 12 13  1  0  0  0
 13 14  2  0  0  0
 14 15  1  0  0  0
 14 20  1  0  0  0
 15 16  2  0  0  0
 15 18  1  0  0  0
 16 17  1  0  0  0
 18 19  2  0  0  0
 19 20  1  0  0  0
 20  2  1  0  0  0
  2  7  1  0  0  0
  2  3  1  0  0  0
  3  4  1  0  0  0
  3  5  1  0  0  0
  5  8  1  0  0  0
  5  6  1  0  0  0
  7  8  1  0  0  0
  8  1  1  0  0  0
  1 23  1  0  0  0
 23 24  1  0  0  0
 24 28  1  0  0  0
 24 25  2  0  0  0
 24 26  1  0  0  0
 28 29  1  0  0  0
 29 31  2  0  0  0
 29 30  1  0  0  0
 29 33  1  0  0  0
 33 34  1  0  0  0
 34 41  1  0  0  0
 35 41  1  0  0  0
 35 36  1  0  0  0
 36 38  1  0  0  0
 37 38  1  0  0  0
 38 40  1  0  0  0
 39 40  1  0  0  0
 40 41  1  0  0  0
 17 21  1  0  0  0
 17 22  1  0  0  0
  4  9  1  0  0  0
  6 10  1  0  0  0
 26 27  1  0  0  0
 30 32  1  0  0  0
 35 42  1  0  0  0
 37 43  1  0  0  0
 39 44  1  0  0  0
M  END
> <minimizedAffinity>
-9.18228

$$$$
4B1J_A1R_A_1966


 44 47  0  0  0  0  0  0  0  0999 V2000
   29.3980    0.4020    6.8808 C   0  0  0  0  0  0  0  0  0  0  0  0
   28.5876    3.5065    8.5501 C   0  0  0  0  0  0  0  0  0  0  0  0
   27.3423    3.4613    7.6526 C   0  0  0  0  0  0  0  0  0  0  0  0
   26.2106    3.1198    8.4577 O   0  0  0  0  0  0  0  0  0  0  0  0
   27.7020    2.3495    6.6803 C   0  0  0  0  0  0  0  0  0  0  0  0
   26.5540    1.7045    6.1578 O   0  0  0  0  0  0  0  0  0  0  0  0
   29.2548    2.2640    8.4246 O   0  0  0  0  0  0  0  0  0  0  0  0
   28.4846    1.3899    7.5769 C   0  0  0  0  0  0  0  0  0  0  0  0
   26.3878    2.2910    8.9295 H   0  0  0  0  0  0  0  0  0  0  0  0
   26.0174    1.3580    6.8877 H   0  0  0  0  0  0  0  0  0  0  0  0
   31.8333    6.9972   10.4702 N   0  0  0  0  0  0  0  0  0  0  0  0
   31.0622    6.0726   11.0544 C   0  0  0  0  0  0  0  0  0  0  0  0
   30.2321    5.1996   10.4805 N   0  0  0  0  0  0  0  0  0  0  0  0
   30.2425    5.3214    9.1504 C   0  0  0  0  0  0  0  0  0  0  0  0
   30.9848    6.2232    8.4087 C   0  0  0  0  0  0  0  0  0  0  0  0
   31.8184    7.1097    9.1262 C   0  0  0  0  0  0  0  0  0  0  0  0
   32.5842    8.0495    8.5651 N   0  0  0  0  0  0  0  0  0  0  0  0
   30.7360    6.0633    7.0563 N   0  0  0  0  0  0  0  0  0  0  0  0
   29.8905    5.0736    7.0177 C   0  0  0  0  0  0  0  0  0  0  0  0
   29.5372    4.5820    8.2430 N   0  0  0  0  0  0  0  0  0  0  0  0
   33.1410    8.6328    9.1299 H   0  0  0  0  0  0  0  0  0  0  0  0
   32.5919    8.1588    7.5867 H   0  0  0  0  0  0  0  0  0  0  0  0
   29.9467    1.0065    5.7090 O   0  0  0  0  0  0  0  0  0  0  0  0
   29.7921    0.3222    4.3064 P   0  0  0  0  0  0  0  0  0  0  0  0
   30.8097    0.8678    3.3960 O   0  0  0  0  0  0  0  0  0  0  0  0
   28.3720    0.5263    3.8263 O   0  0  0  0  0  0  0  0  0  0  0  0
   27.7550    0.1449    4.4702 H   0  0  0  0  0  0  0  0  0  0  0  0
   29.9841   -1.2166    4.6707 O   0  0  0  0  0  0  0  0  0  0  0  0
   29.2188   -2.5559    4.2388 P   0  0  0  0  0  0  0  0  0  0  0  0
   29.0643   -3.3943    5.4866 O   0  0  0  0  0  0  0  0  0  0  0  0
   27.9965   -2.2332    3.4633 O   0  0  0  0  0  0  0  0  0  0  0  0
   28.4261   -2.9721    6.0828 H   0  0  0  0  0  0  0  0  0  0  0  0
   30.2532   -3.2305    3.2611 O   0  0  0  0  0  0  0  0  0  0  0  0
   30.0260   -3.2268    1.8486 C   0  0  0  0  0  0  0  0  0  0  0  0
   30.1303   -4.7031   -0.1337 N   0  0  0  0  0  0  0  0  0  0  0  0
   31.3284   -4.4904   -0.9665 C   0  0  0  0  0  0  0  0  0  0  0  0
   33.6715   -4.3633   -0.5192 O   0  0  0  0  0  0  0  0  0  0  0  0
   32.4063   -4.0153   -0.0114 C   0  0  0  0  0  0  0  0  0  0  0  0
   32.3904   -6.0670    1.2982 O   0  0  0  0  0  0  0  0  0  0  0  0
   32.0367   -4.7094    1.2748 C   0  0  0  0  0  0  0  0  0  0  0  0
   30.5137   -4.5475    1.2815 C   0  0  0  0  0  0  0  0  0  0  0  0
   29.4166   -4.0154   -0.3748 H   0  0  0  0  0  0  0  0  0  0  0  0
   33.8340   -3.8775   -1.3430 H   0  0  0  0  0  0  0  0  0  0  0  0
   33.3569   -6.1494    1.2936 H   0  0  0  0  0  0  0  0  0  0  0  0
 11 12  2  0  0  0
 11 16  1  0  0  0
 12 13  1  0  0  0
 13 14  2  0  0  0
 14 15  1  0  0  0
 14 20  1  0  0  0
 15 16  2  0  0  0
 15 18  1  0  0  0
 16 17  1  0  0  0
 18 19  2  0  0  0
 19 20  1  0  0  0
 20  2  1  0  0  0
  2  7  1  0  0  0
  2  3  1  0  0  0
  3  4  1  0  0  0
  3  5  1  0  0  0
  5  8  1  0  0  0
  5  6  1  0  0  0
  7  8  1  0  0  0
  8  1  1  0  0  0
  1 23  1  0  0  0
 23 24  1  0  0  0
 24 28  1  0  0  0
 24 25  2  0  0  0
 24 26  1  0  0  0
 28 29  1  0  0  0
 29 31  2  0  0  0
 29 30  1  0  0  0
 29 33  1  0  0  0
 33 34  1  0  0  0
 34 41  1  0  0  0
 35 41  1  0  0  0
 35 36  1  0  0  0
 36 38  1  0  0  0
 37 38  1  0  0  0
 38 40  1  0  0  0
 39 40  1  0  0  0
 40 41  1  0  0  0
 17 21  1  0  0  0
 17 22  1  0  0  0
  4  9  1  0  0  0
  6 10  1  0  0  0
 26 27  1  0  0  0
 30 32  1  0  0  0
 35 42  1  0  0  0
 37 43  1  0  0  0
 39 44  1  0  0  0
M  END
> <minimizedAffinity>
-8.90407

$$$$
4B1J_A1R_A_1966


 44 47  0  0  0  0  0  0  0  0999 V2000
   28.5079   -1.7323    3.0344 C   0  0  0  0  0  0  0  0  0  0  0  0
   29.4527    0.3482    5.8380 C   0  0  0  0  0  0  0  0  0  0  0  0
   29.4058   -0.9769    6.6127 C   0  0  0  0  0  0  0  0  0  0  0  0
   30.7458   -1.3891    6.8952 O   0  0  0  0  0  0  0  0  0  0  0  0
   28.7295   -1.8977    5.6098 C   0  0  0  0  0  0  0  0  0  0  0  0
   29.0921   -3.2538    5.8005 O   0  0  0  0  0  0  0  0  0  0  0  0
   29.3282    0.0468    4.4602 O   0  0  0  0  0  0  0  0  0  0  0  0
   29.2897   -1.3827    4.2839 C   0  0  0  0  0  0  0  0  0  0  0  0
   31.2518   -1.4323    6.0688 H   0  0  0  0  0  0  0  0  0  0  0  0
   30.0566   -3.3413    5.7464 H   0  0  0  0  0  0  0  0  0  0  0  0
   28.1812    4.2805    8.8920 N   0  0  0  0  0  0  0  0  0  0  0  0
   29.3024    3.5587    8.7791 C   0  0  0  0  0  0  0  0  0  0  0  0
   29.5541    2.5374    7.9580 N   0  0  0  0  0  0  0  0  0  0  0  0
   28.5060    2.2759    7.1724 C   0  0  0  0  0  0  0  0  0  0  0  0
   27.2887    2.9336    7.1722 C   0  0  0  0  0  0  0  0  0  0  0  0
   27.1316    3.9904    8.0962 C   0  0  0  0  0  0  0  0  0  0  0  0
   26.0171    4.7136    8.2364 N   0  0  0  0  0  0  0  0  0  0  0  0
   26.4390    2.3858    6.2264 N   0  0  0  0  0  0  0  0  0  0  0  0
   27.1597    1.4516    5.6752 C   0  0  0  0  0  0  0  0  0  0  0  0
   28.4139    1.3186    6.2015 N   0  0  0  0  0  0  0  0  0  0  0  0
   25.9803    5.4369    8.9033 H   0  0  0  0  0  0  0  0  0  0  0  0
   25.2327    4.5233    7.6728 H   0  0  0  0  0  0  0  0  0  0  0  0
   29.3942   -2.2783    2.0567 O   0  0  0  0  0  0  0  0  0  0  0  0
   29.5655   -3.8300    1.9073 P   0  0  0  0  0  0  0  0  0  0  0  0
   28.2675   -4.4774    2.1480 O   0  0  0  0  0  0  0  0  0  0  0  0
   30.6582   -4.2855    2.8493 O   0  0  0  0  0  0  0  0  0  0  0  0
   31.4830   -3.8216    2.6362 H   0  0  0  0  0  0  0  0  0  0  0  0
   30.1035   -3.9570    0.4133 O   0  0  0  0  0  0  0  0  0  0  0  0
   31.5693   -4.0313   -0.2285 P   0  0  0  0  0  0  0  0  0  0  0  0
   32.4582   -3.1367    0.6042 O   0  0  0  0  0  0  0  0  0  0  0  0
   31.9863   -5.4417   -0.4185 O   0  0  0  0  0  0  0  0  0  0  0  0
   32.5922   -3.5367    1.4777 H   0  0  0  0  0  0  0  0  0  0  0  0
   31.3434   -3.3932   -1.6506 O   0  0  0  0  0  0  0  0  0  0  0  0
   32.4584   -2.9853   -2.4488 C   0  0  0  0  0  0  0  0  0  0  0  0
   32.9219   -0.7802   -1.4277 N   0  0  0  0  0  0  0  0  0  0  0  0
   34.2603   -0.2503   -1.7478 C   0  0  0  0  0  0  0  0  0  0  0  0
   35.4978    0.0491   -3.7690 O   0  0  0  0  0  0  0  0  0  0  0  0
   34.6043   -0.8167   -3.1118 C   0  0  0  0  0  0  0  0  0  0  0  0
   32.7448    0.2871   -4.2292 O   0  0  0  0  0  0  0  0  0  0  0  0
   33.2531   -0.9372   -3.7694 C   0  0  0  0  0  0  0  0  0  0  0  0
   32.4009   -1.4780   -2.6175 C   0  0  0  0  0  0  0  0  0  0  0  0
   32.9876   -1.4330   -0.6467 H   0  0  0  0  0  0  0  0  0  0  0  0
   36.3393    0.0721   -3.2870 H   0  0  0  0  0  0  0  0  0  0  0  0
   33.2965    0.6133   -4.9572 H   0  0  0  0  0  0  0  0  0  0  0  0
 11 12  2  0  0  0
 11 16  1  0  0  0
 12 13  1  0  0  0
 13 14  2  0  0  0
 14 15  1  0  0  0
 14 20  1  0  0  0
 15 16  2  0  0  0
 15 18  1  0  0  0
 16 17  1  0  0  0
 18 19  2  0  0  0
 19 20  1  0  0  0
 20  2  1  0  0  0
  2  7  1  0  0  0
  2  3  1  0  0  0
  3  4  1  0  0  0
  3  5  1  0  0  0
  5  8  1  0  0  0
  5  6  1  0  0  0
  7  8  1  0  0  0
  8  1  1  0  0  0
  1 23  1  0  0  0
 23 24  1  0  0  0
 24 28  1  0  0  0
 24 25  2  0  0  0
 24 26  1  0  0  0
 28 29  1  0  0  0
 29 31  2  0  0  0
 29 30  1  0  0  0
 29 33  1  0  0  0
 33 34  1  0  0  0
 34 41  1  0  0  0
 35 41  1  0  0  0
 35 36  1  0  0  0
 36 38  1  0  0  0
 37 38  1  0  0  0
 38 40  1  0  0  0
 39 40  1  0  0  0
 40 41  1  0  0  0
 17 21  1  0  0  0
 17 22  1  0  0  0
  4  9  1  0  0  0
  6 10  1  0  0  0
 26 27  1  0  0  0
 30 32  1  0  0  0
 35 42  1  0  0  0
 37 43  1  0  0  0
 39 44  1  0  0  0
M  END
> <minimizedAffinity>
-8.77901

$$$$
