1B6K_PI5_A_201


 55 58  0  0  0  0  0  0  0  0999 V2000
    5.0259   -0.1932   15.1544 C   0  0  0  0  0  0  0  0  0  0  0  0
    6.2276    0.5983   14.6578 C   0  0  0  0  0  0  0  0  0  0  0  0
    7.4085   -0.1957   14.7989 O   0  0  0  0  0  0  0  0  0  0  0  0
    7.3214   -1.0021   14.2668 H   0  0  0  0  0  0  0  0  0  0  0  0
    6.0638    0.9695   13.1955 C   0  0  0  0  0  0  0  0  0  0  0  0
    3.8894    1.2501   12.1100 C   0  0  0  0  0  0  0  0  0  0  0  0
    4.0189    0.2117   11.4439 O   0  0  0  0  0  0  0  0  0  0  0  0
    4.8143    1.6954   12.9551 N   0  0  0  0  0  0  0  0  0  0  0  0
    4.6542    2.5402   13.4347 H   0  0  0  0  0  0  0  0  0  0  0  0
    2.6538    2.1310   11.9675 C   0  0  0  0  0  0  0  0  0  0  0  0
    3.0894    3.6110    8.4704 C   0  0  0  0  0  0  0  0  0  0  0  0
    2.4713    2.4781    9.3301 C   0  0  0  0  0  0  0  0  0  0  0  0
    3.3712    4.0985   10.7192 C   0  0  0  0  0  0  0  0  0  0  0  0
    3.7837    4.6353   11.7527 O   0  0  0  0  0  0  0  0  0  0  0  0
    3.4699    4.7605    9.3769 C   0  0  0  0  0  0  0  0  0  0  0  0
    2.8041    2.8822   10.7222 N   0  0  0  0  0  0  0  0  0  0  0  0
    1.3425    1.3040   11.9210 C   0  0  0  0  0  0  0  0  0  0  0  0
    1.2786    0.3470   13.0965 C   0  0  0  0  0  0  0  0  0  0  0  0
    0.1433    2.2291   11.9710 C   0  0  0  0  0  0  0  0  0  0  0  0
    7.2558    1.8140   12.7487 C   0  0  0  0  0  0  0  0  0  0  0  0
    7.5211    1.7424   11.2743 C   0  0  0  0  0  0  0  0  0  0  0  0
    8.4242    0.8209   10.7590 C   0  0  0  0  0  0  0  0  0  0  0  0
    6.8504    2.5805   10.3873 C   0  0  0  0  0  0  0  0  0  0  0  0
    8.6531    0.7292    9.3981 C   0  0  0  0  0  0  0  0  0  0  0  0
    7.0709    2.4993    9.0248 C   0  0  0  0  0  0  0  0  0  0  0  0
    7.9731    1.5696    8.5374 C   0  0  0  0  0  0  0  0  0  0  0  0
    8.1944    1.4678    7.1824 O   0  0  0  0  0  0  0  0  0  0  0  0
    8.8053    0.8381    6.8535 H   0  0  0  0  0  0  0  0  0  0  0  0
    5.3153   -0.6515   16.5162 N   0  0  0  0  0  0  0  0  0  0  0  0
    4.7187   -0.1299   17.1584 H   0  0  0  0  0  0  0  0  0  0  0  0
    5.0910   -2.1086   16.7567 C   0  0  0  0  0  0  0  0  0  0  0  0
    3.7180   -2.5555   16.2542 C   0  0  0  0  0  0  0  0  0  0  0  0
    3.5653   -4.0491   16.3389 C   0  0  0  0  0  0  0  0  0  0  0  0
    3.4447   -4.6863   17.5758 C   0  0  0  0  0  0  0  0  0  0  0  0
    3.4424   -6.0646   17.6710 C   0  0  0  0  0  0  0  0  0  0  0  0
    3.6657   -4.8373   15.1971 C   0  0  0  0  0  0  0  0  0  0  0  0
    3.6660   -6.2133   15.2825 C   0  0  0  0  0  0  0  0  0  0  0  0
    3.5604   -6.8215   16.5190 C   0  0  0  0  0  0  0  0  0  0  0  0
    3.6040   -8.1929   16.5821 O   0  0  0  0  0  0  0  0  0  0  0  0
    4.0555   -8.8714   17.7386 C   0  0  0  0  0  0  0  0  0  0  0  0
    6.1509   -3.0894   16.2523 C   0  0  0  0  0  0  0  0  0  0  0  0
    6.4807   -3.1235   15.0641 O   0  0  0  0  0  0  0  0  0  0  0  0
    6.6630   -3.8997   17.1743 N   0  0  0  0  0  0  0  0  0  0  0  0
    7.6755   -4.9240   16.8766 C   0  0  0  0  0  0  0  0  0  0  0  0
    7.2974   -6.0252   17.8697 C   0  0  0  0  0  0  0  0  0  0  0  0
    7.3670   -5.8192   19.0897 O   0  0  0  0  0  0  0  0  0  0  0  0
    6.8517   -7.1675   17.3527 N   0  0  0  0  0  0  0  0  0  0  0  0
    6.4781   -8.2731   18.2218 C   0  0  0  0  0  0  0  0  0  0  0  0
    5.5172   -9.2882   17.6071 C   0  0  0  0  0  0  0  0  0  0  0  0
    6.3485   -3.8094   18.1028 H   0  0  0  0  0  0  0  0  0  0  0  0
    6.7743   -7.2651   16.3762 H   0  0  0  0  0  0  0  0  0  0  0  0
    9.1246   -4.4510   17.1958 C   0  0  0  0  0  0  0  0  0  0  0  0
   10.0562   -5.6497   17.3355 C   0  0  0  0  0  0  0  0  0  0  0  0
    9.6519   -3.5312   16.0965 C   0  0  0  0  0  0  0  0  0  0  0  0
    9.8029   -4.1928   14.7567 C   0  0  0  0  0  0  0  0  0  0  0  0
 11 12  1  0  0  0
 11 15  1  0  0  0
 12 16  1  0  0  0
 13 14  2  0  0  0
 13 15  1  0  0  0
 13 16  1  0  0  0
 16 10  1  0  0  0
 10 17  1  0  0  0
 10  6  1  0  0  0
 17 18  1  0  0  0
 17 19  1  0  0  0
  6  7  2  0  0  0
  6  8  1  0  0  0
  8  5  1  0  0  0
  5 20  1  0  0  0
  5  2  1  0  0  0
 20 21  1  0  0  0
 21 22  2  0  0  0
 21 23  1  0  0  0
 22 24  1  0  0  0
 23 25  2  0  0  0
 24 26  2  0  0  0
 25 26  1  0  0  0
 26 27  1  0  0  0
  2  1  1  0  0  0
  2  3  1  0  0  0
  1 29  1  0  0  0
 29 31  1  0  0  0
 31 32  1  0  0  0
 31 41  1  0  0  0
 32 33  1  0  0  0
 33 34  1  0  0  0
 33 36  2  0  0  0
 34 35  2  0  0  0
 35 38  1  0  0  0
 36 37  1  0  0  0
 37 38  2  0  0  0
 38 39  1  0  0  0
 39 40  1  0  0  0
 40 49  1  0  0  0
 41 42  2  0  0  0
 41 43  1  0  0  0
 43 44  1  0  0  0
 44 45  1  0  0  0
 44 52  1  0  0  0
 45 46  2  0  0  0
 45 47  1  0  0  0
 52 54  1  0  0  0
 52 53  1  0  0  0
 54 55  1  0  0  0
 47 48  1  0  0  0
 48 49  1  0  0  0
  8  9  1  0  0  0
  3  4  1  0  0  0
 27 28  1  0  0  0
 29 30  1  0  0  0
 43 50  1  0  0  0
 47 51  1  0  0  0
M  END
> <minimizedAffinity>
-11.93752

$$$$
1B6K_PI5_A_201


 55 58  0  0  0  0  0  0  0  0999 V2000
    4.8161   -0.1074   14.7231 C   0  0  0  0  0  0  0  0  0  0  0  0
    5.7413    0.9652   14.1658 C   0  0  0  0  0  0  0  0  0  0  0  0
    6.9655    0.9649   14.9049 O   0  0  0  0  0  0  0  0  0  0  0  0
    7.3967    0.1006   14.8160 H   0  0  0  0  0  0  0  0  0  0  0  0
    6.0559    0.7022   12.7048 C   0  0  0  0  0  0  0  0  0  0  0  0
    4.1775    0.9857   11.1634 C   0  0  0  0  0  0  0  0  0  0  0  0
    3.8585   -0.2110   11.2347 O   0  0  0  0  0  0  0  0  0  0  0  0
    5.2144    1.5048   11.8139 N   0  0  0  0  0  0  0  0  0  0  0  0
    5.4233    2.4592   11.6930 H   0  0  0  0  0  0  0  0  0  0  0  0
    3.4138    1.9546   10.2685 C   0  0  0  0  0  0  0  0  0  0  0  0
    0.1471    2.1385   12.2445 C   0  0  0  0  0  0  0  0  0  0  0  0
    1.6964    2.1082   12.3023 C   0  0  0  0  0  0  0  0  0  0  0  0
    1.0097    2.3237   10.1007 C   0  0  0  0  0  0  0  0  0  0  0  0
    1.0726    2.3396    8.8669 O   0  0  0  0  0  0  0  0  0  0  0  0
   -0.2827    2.5023   10.8406 C   0  0  0  0  0  0  0  0  0  0  0  0
    2.0948    2.1449   10.8699 N   0  0  0  0  0  0  0  0  0  0  0  0
    4.1287    3.3249   10.1383 C   0  0  0  0  0  0  0  0  0  0  0  0
    4.2960    3.6976    8.6772 C   0  0  0  0  0  0  0  0  0  0  0  0
    3.3189    4.4010   10.8333 C   0  0  0  0  0  0  0  0  0  0  0  0
    7.5313    0.9983   12.4410 C   0  0  0  0  0  0  0  0  0  0  0  0
    7.7532    2.1585   11.5170 C   0  0  0  0  0  0  0  0  0  0  0  0
    8.1040    1.9517   10.1887 C   0  0  0  0  0  0  0  0  0  0  0  0
    7.5885    3.4673   11.9630 C   0  0  0  0  0  0  0  0  0  0  0  0
    8.2825    3.0154    9.3230 C   0  0  0  0  0  0  0  0  0  0  0  0
    7.7647    4.5394   11.1079 C   0  0  0  0  0  0  0  0  0  0  0  0
    8.1104    4.3052    9.7881 C   0  0  0  0  0  0  0  0  0  0  0  0
    8.2771    5.3615    8.9211 O   0  0  0  0  0  0  0  0  0  0  0  0
    8.5111    5.2019    8.0279 H   0  0  0  0  0  0  0  0  0  0  0  0
    5.3368   -0.5228   16.0287 N   0  0  0  0  0  0  0  0  0  0  0  0
    4.9185    0.0760   16.7406 H   0  0  0  0  0  0  0  0  0  0  0  0
    5.0611   -1.9434   16.3991 C   0  0  0  0  0  0  0  0  0  0  0  0
    3.6649   -2.3787   15.9538 C   0  0  0  0  0  0  0  0  0  0  0  0
    3.4571   -3.8521   16.1715 C   0  0  0  0  0  0  0  0  0  0  0  0
    3.3311   -4.3734   17.4610 C   0  0  0  0  0  0  0  0  0  0  0  0
    3.2780   -5.7369   17.6773 C   0  0  0  0  0  0  0  0  0  0  0  0
    3.5105   -4.7405   15.1025 C   0  0  0  0  0  0  0  0  0  0  0  0
    3.4601   -6.1028   15.3088 C   0  0  0  0  0  0  0  0  0  0  0  0
    3.3500   -6.5958   16.5951 C   0  0  0  0  0  0  0  0  0  0  0  0
    3.3428   -7.9571   16.7782 O   0  0  0  0  0  0  0  0  0  0  0  0
    3.7855   -8.5487   17.9847 C   0  0  0  0  0  0  0  0  0  0  0  0
    6.0756   -3.0052   15.9708 C   0  0  0  0  0  0  0  0  0  0  0  0
    6.3860   -3.1561   14.7865 O   0  0  0  0  0  0  0  0  0  0  0  0
    6.5704   -3.7510   16.9546 N   0  0  0  0  0  0  0  0  0  0  0  0
    7.5389   -4.8361   16.7365 C   0  0  0  0  0  0  0  0  0  0  0  0
    7.1343   -5.8306   17.8271 C   0  0  0  0  0  0  0  0  0  0  0  0
    7.2299   -5.5214   19.0233 O   0  0  0  0  0  0  0  0  0  0  0  0
    6.6381   -6.9954   17.4179 N   0  0  0  0  0  0  0  0  0  0  0  0
    6.2360   -8.0054   18.3852 C   0  0  0  0  0  0  0  0  0  0  0  0
    5.2282   -9.0322   17.8735 C   0  0  0  0  0  0  0  0  0  0  0  0
    6.2734   -3.5675   17.8751 H   0  0  0  0  0  0  0  0  0  0  0  0
    6.5424   -7.1751   16.4547 H   0  0  0  0  0  0  0  0  0  0  0  0
    9.0095   -4.3939   16.9961 C   0  0  0  0  0  0  0  0  0  0  0  0
    9.9085   -5.6130   17.1683 C   0  0  0  0  0  0  0  0  0  0  0  0
    9.5340   -3.5427   15.8416 C   0  0  0  0  0  0  0  0  0  0  0  0
    9.7462   -4.2999   14.5621 C   0  0  0  0  0  0  0  0  0  0  0  0
 11 12  1  0  0  0
 11 15  1  0  0  0
 12 16  1  0  0  0
 13 14  2  0  0  0
 13 15  1  0  0  0
 13 16  1  0  0  0
 16 10  1  0  0  0
 10 17  1  0  0  0
 10  6  1  0  0  0
 17 18  1  0  0  0
 17 19  1  0  0  0
  6  7  2  0  0  0
  6  8  1  0  0  0
  8  5  1  0  0  0
  5 20  1  0  0  0
  5  2  1  0  0  0
 20 21  1  0  0  0
 21 22  2  0  0  0
 21 23  1  0  0  0
 22 24  1  0  0  0
 23 25  2  0  0  0
 24 26  2  0  0  0
 25 26  1  0  0  0
 26 27  1  0  0  0
  2  1  1  0  0  0
  2  3  1  0  0  0
  1 29  1  0  0  0
 29 31  1  0  0  0
 31 32  1  0  0  0
 31 41  1  0  0  0
 32 33  1  0  0  0
 33 34  1  0  0  0
 33 36  2  0  0  0
 34 35  2  0  0  0
 35 38  1  0  0  0
 36 37  1  0  0  0
 37 38  2  0  0  0
 38 39  1  0  0  0
 39 40  1  0  0  0
 40 49  1  0  0  0
 41 42  2  0  0  0
 41 43  1  0  0  0
 43 44  1  0  0  0
 44 45  1  0  0  0
 44 52  1  0  0  0
 45 46  2  0  0  0
 45 47  1  0  0  0
 52 54  1  0  0  0
 52 53  1  0  0  0
 54 55  1  0  0  0
 47 48  1  0  0  0
 48 49  1  0  0  0
  8  9  1  0  0  0
  3  4  1  0  0  0
 27 28  1  0  0  0
 29 30  1  0  0  0
 43 50  1  0  0  0
 47 51  1  0  0  0
M  END
> <minimizedAffinity>
-11.06230

$$$$
1B6K_PI5_A_201


 55 58  0  0  0  0  0  0  0  0999 V2000
    4.1833   -1.2766   14.9471 C   0  0  0  0  0  0  0  0  0  0  0  0
    5.2748   -1.7501   15.8966 C   0  0  0  0  0  0  0  0  0  0  0  0
    5.1555   -1.0536   17.1398 O   0  0  0  0  0  0  0  0  0  0  0  0
    4.2905   -1.2438   17.5353 H   0  0  0  0  0  0  0  0  0  0  0  0
    5.1533   -3.2395   16.1607 C   0  0  0  0  0  0  0  0  0  0  0  0
    7.3249   -4.3520   16.3387 C   0  0  0  0  0  0  0  0  0  0  0  0
    7.3927   -4.5501   15.1160 O   0  0  0  0  0  0  0  0  0  0  0  0
    6.2935   -3.7515   16.9248 N   0  0  0  0  0  0  0  0  0  0  0  0
    6.2961   -3.6476   17.9038 H   0  0  0  0  0  0  0  0  0  0  0  0
    8.4221   -4.8357   17.2793 C   0  0  0  0  0  0  0  0  0  0  0  0
    7.8610   -8.6142   17.4142 C   0  0  0  0  0  0  0  0  0  0  0  0
    8.6757   -7.4464   16.8002 C   0  0  0  0  0  0  0  0  0  0  0  0
    7.3379   -6.6395   18.5102 C   0  0  0  0  0  0  0  0  0  0  0  0
    6.7495   -5.8275   19.2319 O   0  0  0  0  0  0  0  0  0  0  0  0
    7.1669   -8.1215   18.6646 C   0  0  0  0  0  0  0  0  0  0  0  0
    8.1742   -6.2540   17.5340 N   0  0  0  0  0  0  0  0  0  0  0  0
    9.8389   -4.6559   16.6742 C   0  0  0  0  0  0  0  0  0  0  0  0
   10.1518   -3.1830   16.4884 C   0  0  0  0  0  0  0  0  0  0  0  0
   10.8771   -5.2698   17.5917 C   0  0  0  0  0  0  0  0  0  0  0  0
    3.8514   -3.5185   16.9098 C   0  0  0  0  0  0  0  0  0  0  0  0
    3.7226   -4.9374   17.3783 C   0  0  0  0  0  0  0  0  0  0  0  0
    4.0138   -5.9958   16.5267 C   0  0  0  0  0  0  0  0  0  0  0  0
    3.3325   -5.2250   18.6837 C   0  0  0  0  0  0  0  0  0  0  0  0
    3.9251   -7.3063   16.9597 C   0  0  0  0  0  0  0  0  0  0  0  0
    3.2392   -6.5307   19.1286 C   0  0  0  0  0  0  0  0  0  0  0  0
    3.5387   -7.5666   18.2606 C   0  0  0  0  0  0  0  0  0  0  0  0
    3.4628   -8.8717   18.6921 O   0  0  0  0  0  0  0  0  0  0  0  0
    3.6658   -9.5722   18.1038 H   0  0  0  0  0  0  0  0  0  0  0  0
    4.1830    0.1891   14.9502 N   0  0  0  0  0  0  0  0  0  0  0  0
    4.5981    0.5031   15.8274 H   0  0  0  0  0  0  0  0  0  0  0  0
    4.9355    0.8263   13.8281 C   0  0  0  0  0  0  0  0  0  0  0  0
    6.4345    0.5422   13.9250 C   0  0  0  0  0  0  0  0  0  0  0  0
    7.1635    1.0355   12.7057 C   0  0  0  0  0  0  0  0  0  0  0  0
    7.3236    2.4033   12.4732 C   0  0  0  0  0  0  0  0  0  0  0  0
    7.8690    2.8670   11.2915 C   0  0  0  0  0  0  0  0  0  0  0  0
    7.5840    0.1451   11.7233 C   0  0  0  0  0  0  0  0  0  0  0  0
    8.1278    0.5986   10.5403 C   0  0  0  0  0  0  0  0  0  0  0  0
    8.2627    1.9573   10.3265 C   0  0  0  0  0  0  0  0  0  0  0  0
    8.7693    2.3856    9.1238 O   0  0  0  0  0  0  0  0  0  0  0  0
    8.4455    3.6547    8.5887 C   0  0  0  0  0  0  0  0  0  0  0  0
    4.4653    0.5459   12.3998 C   0  0  0  0  0  0  0  0  0  0  0  0
    4.3815   -0.6058   11.9658 O   0  0  0  0  0  0  0  0  0  0  0  0
    4.1797    1.6216   11.6717 N   0  0  0  0  0  0  0  0  0  0  0  0
    3.7353    1.5542   10.2715 C   0  0  0  0  0  0  0  0  0  0  0  0
    4.3558    2.8276    9.6923 C   0  0  0  0  0  0  0  0  0  0  0  0
    4.0056    3.9407   10.1096 O   0  0  0  0  0  0  0  0  0  0  0  0
    5.3060    2.6645    8.7753 N   0  0  0  0  0  0  0  0  0  0  0  0
    5.9450    3.8196    8.1631 C   0  0  0  0  0  0  0  0  0  0  0  0
    7.3231    3.5575    7.5599 C   0  0  0  0  0  0  0  0  0  0  0  0
    4.2705    2.5076   12.0913 H   0  0  0  0  0  0  0  0  0  0  0  0
    5.5785    1.7566    8.5094 H   0  0  0  0  0  0  0  0  0  0  0  0
    2.1878    1.6509   10.1240 C   0  0  0  0  0  0  0  0  0  0  0  0
    1.6642    0.5106    9.2582 C   0  0  0  0  0  0  0  0  0  0  0  0
    1.5063    1.5976   11.4897 C   0  0  0  0  0  0  0  0  0  0  0  0
    0.7655    0.3197   11.7613 C   0  0  0  0  0  0  0  0  0  0  0  0
 11 12  1  0  0  0
 11 15  1  0  0  0
 12 16  1  0  0  0
 13 14  2  0  0  0
 13 15  1  0  0  0
 13 16  1  0  0  0
 16 10  1  0  0  0
 10 17  1  0  0  0
 10  6  1  0  0  0
 17 18  1  0  0  0
 17 19  1  0  0  0
  6  7  2  0  0  0
  6  8  1  0  0  0
  8  5  1  0  0  0
  5 20  1  0  0  0
  5  2  1  0  0  0
 20 21  1  0  0  0
 21 22  2  0  0  0
 21 23  1  0  0  0
 22 24  1  0  0  0
 23 25  2  0  0  0
 24 26  2  0  0  0
 25 26  1  0  0  0
 26 27  1  0  0  0
  2  1  1  0  0  0
  2  3  1  0  0  0
  1 29  1  0  0  0
 29 31  1  0  0  0
 31 32  1  0  0  0
 31 41  1  0  0  0
 32 33  1  0  0  0
 33 34  1  0  0  0
 33 36  2  0  0  0
 34 35  2  0  0  0
 35 38  1  0  0  0
 36 37  1  0  0  0
 37 38  2  0  0  0
 38 39  1  0  0  0
 39 40  1  0  0  0
 40 49  1  0  0  0
 41 42  2  0  0  0
 41 43  1  0  0  0
 43 44  1  0  0  0
 44 45  1  0  0  0
 44 52  1  0  0  0
 45 46  2  0  0  0
 45 47  1  0  0  0
 52 54  1  0  0  0
 52 53  1  0  0  0
 54 55  1  0  0  0
 47 48  1  0  0  0
 48 49  1  0  0  0
  8  9  1  0  0  0
  3  4  1  0  0  0
 27 28  1  0  0  0
 29 30  1  0  0  0
 43 50  1  0  0  0
 47 51  1  0  0  0
M  END
> <minimizedAffinity>
-11.05154

$$$$
1B6K_PI5_A_201


 55 58  0  0  0  0  0  0  0  0999 V2000
    7.6285   -0.3339   12.1244 C   0  0  0  0  0  0  0  0  0  0  0  0
    6.9775    0.9138   12.7045 C   0  0  0  0  0  0  0  0  0  0  0  0
    7.9796    1.7290   13.3178 O   0  0  0  0  0  0  0  0  0  0  0  0
    8.6319    1.9957   12.6513 H   0  0  0  0  0  0  0  0  0  0  0  0
    6.2925    1.7214   11.6176 C   0  0  0  0  0  0  0  0  0  0  0  0
    3.9628    1.0167   11.8647 C   0  0  0  0  0  0  0  0  0  0  0  0
    4.2119   -0.1448   11.5073 O   0  0  0  0  0  0  0  0  0  0  0  0
    4.8841    1.9730   11.9325 N   0  0  0  0  0  0  0  0  0  0  0  0
    4.6109    2.8794   12.2029 H   0  0  0  0  0  0  0  0  0  0  0  0
    2.5435    1.4486   12.2134 C   0  0  0  0  0  0  0  0  0  0  0  0
    1.2486    2.2555    8.7089 C   0  0  0  0  0  0  0  0  0  0  0  0
    1.8370    1.1784    9.6566 C   0  0  0  0  0  0  0  0  0  0  0  0
    1.3281    3.0827   10.8730 C   0  0  0  0  0  0  0  0  0  0  0  0
    1.3020    3.8770   11.8190 O   0  0  0  0  0  0  0  0  0  0  0  0
    0.7159    3.4007    9.5413 C   0  0  0  0  0  0  0  0  0  0  0  0
    1.9070    1.8758   10.9684 N   0  0  0  0  0  0  0  0  0  0  0  0
    1.7184    0.3011   12.8523 C   0  0  0  0  0  0  0  0  0  0  0  0
    2.3324   -0.1196   14.1743 C   0  0  0  0  0  0  0  0  0  0  0  0
    0.2934    0.7576   13.0923 C   0  0  0  0  0  0  0  0  0  0  0  0
    7.0317    3.0444   11.4248 C   0  0  0  0  0  0  0  0  0  0  0  0
    7.5496    3.2433   10.0314 C   0  0  0  0  0  0  0  0  0  0  0  0
    7.7790    2.1563    9.1971 C   0  0  0  0  0  0  0  0  0  0  0  0
    7.7883    4.5221    9.5348 C   0  0  0  0  0  0  0  0  0  0  0  0
    8.2293    2.3330    7.9013 C   0  0  0  0  0  0  0  0  0  0  0  0
    8.2391    4.7121    8.2417 C   0  0  0  0  0  0  0  0  0  0  0  0
    8.4560    3.6120    7.4300 C   0  0  0  0  0  0  0  0  0  0  0  0
    8.8928    3.7851    6.1360 O   0  0  0  0  0  0  0  0  0  0  0  0
    9.0393    3.0398    5.5873 H   0  0  0  0  0  0  0  0  0  0  0  0
    6.7007   -1.4546   12.3018 N   0  0  0  0  0  0  0  0  0  0  0  0
    6.5590   -1.8942   11.3924 H   0  0  0  0  0  0  0  0  0  0  0  0
    7.1534   -2.5080   13.2592 C   0  0  0  0  0  0  0  0  0  0  0  0
    8.6763   -2.5281   13.3925 C   0  0  0  0  0  0  0  0  0  0  0  0
    9.1165   -3.4668   14.4819 C   0  0  0  0  0  0  0  0  0  0  0  0
    8.9995   -4.8496   14.3244 C   0  0  0  0  0  0  0  0  0  0  0  0
    9.2718   -5.7120   15.3688 C   0  0  0  0  0  0  0  0  0  0  0  0
    9.5326   -2.9755   15.7149 C   0  0  0  0  0  0  0  0  0  0  0  0
    9.8049   -3.8284   16.7633 C   0  0  0  0  0  0  0  0  0  0  0  0
    9.6679   -5.1923   16.5883 C   0  0  0  0  0  0  0  0  0  0  0  0
    9.9054   -6.0190   17.6592 O   0  0  0  0  0  0  0  0  0  0  0  0
    9.2892   -7.2875   17.7721 C   0  0  0  0  0  0  0  0  0  0  0  0
    6.5296   -2.5226   14.6558 C   0  0  0  0  0  0  0  0  0  0  0  0
    6.5829   -1.5352   15.3933 O   0  0  0  0  0  0  0  0  0  0  0  0
    5.9551   -3.6680   15.0120 N   0  0  0  0  0  0  0  0  0  0  0  0
    5.3235   -3.8812   16.3229 C   0  0  0  0  0  0  0  0  0  0  0  0
    5.6189   -5.3628   16.5671 C   0  0  0  0  0  0  0  0  0  0  0  0
    5.1474   -6.2276   15.8151 O   0  0  0  0  0  0  0  0  0  0  0  0
    6.4341   -5.6498   17.5789 N   0  0  0  0  0  0  0  0  0  0  0  0
    6.7630   -7.0325   17.8904 C   0  0  0  0  0  0  0  0  0  0  0  0
    8.0590   -7.2330   18.6728 C   0  0  0  0  0  0  0  0  0  0  0  0
    5.9526   -4.4106   14.3656 H   0  0  0  0  0  0  0  0  0  0  0  0
    6.8170   -4.9220   18.1201 H   0  0  0  0  0  0  0  0  0  0  0  0
    3.7786   -3.6877   16.2872 C   0  0  0  0  0  0  0  0  0  0  0  0
    3.3859   -2.4099   17.0202 C   0  0  0  0  0  0  0  0  0  0  0  0
    3.2717   -3.6167   14.8483 C   0  0  0  0  0  0  0  0  0  0  0  0
    2.2346   -4.6479   14.5067 C   0  0  0  0  0  0  0  0  0  0  0  0
 11 12  1  0  0  0
 11 15  1  0  0  0
 12 16  1  0  0  0
 13 14  2  0  0  0
 13 15  1  0  0  0
 13 16  1  0  0  0
 16 10  1  0  0  0
 10 17  1  0  0  0
 10  6  1  0  0  0
 17 18  1  0  0  0
 17 19  1  0  0  0
  6  7  2  0  0  0
  6  8  1  0  0  0
  8  5  1  0  0  0
  5 20  1  0  0  0
  5  2  1  0  0  0
 20 21  1  0  0  0
 21 22  2  0  0  0
 21 23  1  0  0  0
 22 24  1  0  0  0
 23 25  2  0  0  0
 24 26  2  0  0  0
 25 26  1  0  0  0
 26 27  1  0  0  0
  2  1  1  0  0  0
  2  3  1  0  0  0
  1 29  1  0  0  0
 29 31  1  0  0  0
 31 32  1  0  0  0
 31 41  1  0  0  0
 32 33  1  0  0  0
 33 34  1  0  0  0
 33 36  2  0  0  0
 34 35  2  0  0  0
 35 38  1  0  0  0
 36 37  1  0  0  0
 37 38  2  0  0  0
 38 39  1  0  0  0
 39 40  1  0  0  0
 40 49  1  0  0  0
 41 42  2  0  0  0
 41 43  1  0  0  0
 43 44  1  0  0  0
 44 45  1  0  0  0
 44 52  1  0  0  0
 45 46  2  0  0  0
 45 47  1  0  0  0
 52 54  1  0  0  0
 52 53  1  0  0  0
 54 55  1  0  0  0
 47 48  1  0  0  0
 48 49  1  0  0  0
  8  9  1  0  0  0
  3  4  1  0  0  0
 27 28  1  0  0  0
 29 30  1  0  0  0
 43 50  1  0  0  0
 47 51  1  0  0  0
M  END
> <minimizedAffinity>
-10.86577

$$$$
1B6K_PI5_A_201


 55 58  0  0  0  0  0  0  0  0999 V2000
    4.6960   -2.1782   13.7332 C   0  0  0  0  0  0  0  0  0  0  0  0
    5.0013   -2.2629   15.2221 C   0  0  0  0  0  0  0  0  0  0  0  0
    4.0119   -1.5314   15.9506 O   0  0  0  0  0  0  0  0  0  0  0  0
    3.1377   -1.9183   15.7864 H   0  0  0  0  0  0  0  0  0  0  0  0
    4.9865   -3.7045   15.6960 C   0  0  0  0  0  0  0  0  0  0  0  0
    7.3078   -4.3999   16.0322 C   0  0  0  0  0  0  0  0  0  0  0  0
    7.5006   -4.5592   14.8171 O   0  0  0  0  0  0  0  0  0  0  0  0
    6.1427   -4.0113   16.5415 N   0  0  0  0  0  0  0  0  0  0  0  0
    6.0543   -3.9270   17.5184 H   0  0  0  0  0  0  0  0  0  0  0  0
    8.4038   -4.6901   17.0506 C   0  0  0  0  0  0  0  0  0  0  0  0
    8.2281   -8.4878   17.4466 C   0  0  0  0  0  0  0  0  0  0  0  0
    8.9272   -7.2880   16.7563 C   0  0  0  0  0  0  0  0  0  0  0  0
    7.4940   -6.5060   18.3993 C   0  0  0  0  0  0  0  0  0  0  0  0
    6.8176   -5.7106   19.0597 O   0  0  0  0  0  0  0  0  0  0  0  0
    7.4727   -7.9835   18.6561 C   0  0  0  0  0  0  0  0  0  0  0  0
    8.2983   -6.1053   17.4026 N   0  0  0  0  0  0  0  0  0  0  0  0
    9.8206   -4.3975   16.4913 C   0  0  0  0  0  0  0  0  0  0  0  0
   10.0101   -2.9066   16.2842 C   0  0  0  0  0  0  0  0  0  0  0  0
   10.8742   -4.9001   17.4577 C   0  0  0  0  0  0  0  0  0  0  0  0
    3.6912   -3.9755   16.4593 C   0  0  0  0  0  0  0  0  0  0  0  0
    3.6409   -5.3357   17.0891 C   0  0  0  0  0  0  0  0  0  0  0  0
    3.3294   -5.4841   18.4349 C   0  0  0  0  0  0  0  0  0  0  0  0
    3.8807   -6.4807   16.3341 C   0  0  0  0  0  0  0  0  0  0  0  0
    3.2529   -6.7366   19.0165 C   0  0  0  0  0  0  0  0  0  0  0  0
    3.8081   -7.7385   16.9036 C   0  0  0  0  0  0  0  0  0  0  0  0
    3.4919   -7.8585   18.2459 C   0  0  0  0  0  0  0  0  0  0  0  0
    3.4034   -9.1043   18.8249 O   0  0  0  0  0  0  0  0  0  0  0  0
    3.1894   -9.1845   19.7336 H   0  0  0  0  0  0  0  0  0  0  0  0
    3.3061   -1.7393   13.5789 N   0  0  0  0  0  0  0  0  0  0  0  0
    2.9766   -1.4090   14.4860 H   0  0  0  0  0  0  0  0  0  0  0  0
    3.0924   -0.6463   12.5834 C   0  0  0  0  0  0  0  0  0  0  0  0
    1.6057   -0.3490   12.3867 C   0  0  0  0  0  0  0  0  0  0  0  0
    1.4014    0.8627   11.5198 C   0  0  0  0  0  0  0  0  0  0  0  0
    1.6889    0.8210   10.1538 C   0  0  0  0  0  0  0  0  0  0  0  0
    1.6356    1.9632    9.3783 C   0  0  0  0  0  0  0  0  0  0  0  0
    1.0410    2.0830   12.0817 C   0  0  0  0  0  0  0  0  0  0  0  0
    0.9868    3.2284   11.3161 C   0  0  0  0  0  0  0  0  0  0  0  0
    1.2899    3.1653    9.9693 C   0  0  0  0  0  0  0  0  0  0  0  0
    1.2685    4.3268    9.2364 O   0  0  0  0  0  0  0  0  0  0  0  0
    2.0585    4.4886    8.0739 C   0  0  0  0  0  0  0  0  0  0  0  0
    3.8416    0.6707   12.7936 C   0  0  0  0  0  0  0  0  0  0  0  0
    3.7250    1.3160   13.8384 O   0  0  0  0  0  0  0  0  0  0  0  0
    4.5967    1.0666   11.7729 N   0  0  0  0  0  0  0  0  0  0  0  0
    5.3723    2.3161   11.7792 C   0  0  0  0  0  0  0  0  0  0  0  0
    5.3044    2.7253   10.3061 C   0  0  0  0  0  0  0  0  0  0  0  0
    5.8154    2.0094    9.4331 O   0  0  0  0  0  0  0  0  0  0  0  0
    4.6348    3.8407   10.0270 N   0  0  0  0  0  0  0  0  0  0  0  0
    4.5268    4.3112    8.6543 C   0  0  0  0  0  0  0  0  0  0  0  0
    3.3496    5.2432    8.3763 C   0  0  0  0  0  0  0  0  0  0  0  0
    4.6386    0.4944   10.9728 H   0  0  0  0  0  0  0  0  0  0  0  0
    4.2097    4.3509   10.7538 H   0  0  0  0  0  0  0  0  0  0  0  0
    6.8666    2.0972   12.1598 C   0  0  0  0  0  0  0  0  0  0  0  0
    7.6742    3.3619   11.8911 C   0  0  0  0  0  0  0  0  0  0  0  0
    7.0034    1.7180   13.6329 C   0  0  0  0  0  0  0  0  0  0  0  0
    7.3711    0.2813   13.8697 C   0  0  0  0  0  0  0  0  0  0  0  0
 11 12  1  0  0  0
 11 15  1  0  0  0
 12 16  1  0  0  0
 13 14  2  0  0  0
 13 15  1  0  0  0
 13 16  1  0  0  0
 16 10  1  0  0  0
 10 17  1  0  0  0
 10  6  1  0  0  0
 17 18  1  0  0  0
 17 19  1  0  0  0
  6  7  2  0  0  0
  6  8  1  0  0  0
  8  5  1  0  0  0
  5 20  1  0  0  0
  5  2  1  0  0  0
 20 21  1  0  0  0
 21 22  2  0  0  0
 21 23  1  0  0  0
 22 24  1  0  0  0
 23 25  2  0  0  0
 24 26  2  0  0  0
 25 26  1  0  0  0
 26 27  1  0  0  0
  2  1  1  0  0  0
  2  3  1  0  0  0
  1 29  1  0  0  0
 29 31  1  0  0  0
 31 32  1  0  0  0
 31 41  1  0  0  0
 32 33  1  0  0  0
 33 34  1  0  0  0
 33 36  2  0  0  0
 34 35  2  0  0  0
 35 38  1  0  0  0
 36 37  1  0  0  0
 37 38  2  0  0  0
 38 39  1  0  0  0
 39 40  1  0  0  0
 40 49  1  0  0  0
 41 42  2  0  0  0
 41 43  1  0  0  0
 43 44  1  0  0  0
 44 45  1  0  0  0
 44 52  1  0  0  0
 45 46  2  0  0  0
 45 47  1  0  0  0
 52 54  1  0  0  0
 52 53  1  0  0  0
 54 55  1  0  0  0
 47 48  1  0  0  0
 48 49  1  0  0  0
  8  9  1  0  0  0
  3  4  1  0  0  0
 27 28  1  0  0  0
 29 30  1  0  0  0
 43 50  1  0  0  0
 47 51  1  0  0  0
M  END
> <minimizedAffinity>
-10.71736

$$$$
1B6K_PI5_A_201


 55 58  0  0  0  0  0  0  0  0999 V2000
    4.3768   -0.2133   15.4036 C   0  0  0  0  0  0  0  0  0  0  0  0
    4.9067    0.0092   13.9940 C   0  0  0  0  0  0  0  0  0  0  0  0
    4.9671   -1.2438   13.3078 O   0  0  0  0  0  0  0  0  0  0  0  0
    4.0769   -1.6253   13.2524 H   0  0  0  0  0  0  0  0  0  0  0  0
    4.0000    0.9455   13.2170 C   0  0  0  0  0  0  0  0  0  0  0  0
    5.6383    1.6499   11.5422 C   0  0  0  0  0  0  0  0  0  0  0  0
    5.8980    0.4818   11.2154 O   0  0  0  0  0  0  0  0  0  0  0  0
    4.7628    1.9647   12.4921 N   0  0  0  0  0  0  0  0  0  0  0  0
    4.6227    2.9132   12.7155 H   0  0  0  0  0  0  0  0  0  0  0  0
    6.3553    2.8290   10.8954 C   0  0  0  0  0  0  0  0  0  0  0  0
    3.3577    4.8299    9.6223 C   0  0  0  0  0  0  0  0  0  0  0  0
    4.1664    4.3511   10.8557 C   0  0  0  0  0  0  0  0  0  0  0  0
    5.3191    3.8131    8.9200 C   0  0  0  0  0  0  0  0  0  0  0  0
    6.1594    3.2845    8.1846 O   0  0  0  0  0  0  0  0  0  0  0  0
    4.2156    4.6772    8.3859 C   0  0  0  0  0  0  0  0  0  0  0  0
    5.3325    3.6525   10.2523 N   0  0  0  0  0  0  0  0  0  0  0  0
    7.1365    3.6825   11.9283 C   0  0  0  0  0  0  0  0  0  0  0  0
    8.0375    2.7995   12.7710 C   0  0  0  0  0  0  0  0  0  0  0  0
    7.9849    4.7148   11.2132 C   0  0  0  0  0  0  0  0  0  0  0  0
    3.1479    0.1351   12.2417 C   0  0  0  0  0  0  0  0  0  0  0  0
    2.1642    0.9660   11.4728 C   0  0  0  0  0  0  0  0  0  0  0  0
    1.1945    1.7106   12.1327 C   0  0  0  0  0  0  0  0  0  0  0  0
    2.2164    1.0292   10.0828 C   0  0  0  0  0  0  0  0  0  0  0  0
    0.3020    2.5017   11.4324 C   0  0  0  0  0  0  0  0  0  0  0  0
    1.3295    1.8155    9.3710 C   0  0  0  0  0  0  0  0  0  0  0  0
    0.3755    2.5506   10.0534 C   0  0  0  0  0  0  0  0  0  0  0  0
   -0.5067    3.3481    9.3600 O   0  0  0  0  0  0  0  0  0  0  0  0
   -1.1521    3.8453    9.8228 H   0  0  0  0  0  0  0  0  0  0  0  0
    5.4218   -0.8860   16.1807 N   0  0  0  0  0  0  0  0  0  0  0  0
    5.5633   -0.3588   17.0423 H   0  0  0  0  0  0  0  0  0  0  0  0
    5.1258   -2.3031   16.5489 C   0  0  0  0  0  0  0  0  0  0  0  0
    3.7252   -2.7192   16.0989 C   0  0  0  0  0  0  0  0  0  0  0  0
    3.4970   -4.1898   16.3145 C   0  0  0  0  0  0  0  0  0  0  0  0
    3.3599   -4.7106   17.6032 C   0  0  0  0  0  0  0  0  0  0  0  0
    3.2878   -6.0734   17.8180 C   0  0  0  0  0  0  0  0  0  0  0  0
    3.5417   -5.0779   15.2449 C   0  0  0  0  0  0  0  0  0  0  0  0
    3.4722   -6.4395   15.4497 C   0  0  0  0  0  0  0  0  0  0  0  0
    3.3516   -6.9322   16.7352 C   0  0  0  0  0  0  0  0  0  0  0  0
    3.3254   -8.2934   16.9170 O   0  0  0  0  0  0  0  0  0  0  0  0
    3.7563   -8.8921   18.1242 C   0  0  0  0  0  0  0  0  0  0  0  0
    6.1272   -3.3781   16.1227 C   0  0  0  0  0  0  0  0  0  0  0  0
    6.4392   -3.5320   14.9392 O   0  0  0  0  0  0  0  0  0  0  0  0
    6.6089   -4.1314   17.1073 N   0  0  0  0  0  0  0  0  0  0  0  0
    7.5633   -5.2293   16.8912 C   0  0  0  0  0  0  0  0  0  0  0  0
    7.1419   -6.2192   17.9795 C   0  0  0  0  0  0  0  0  0  0  0  0
    7.2380   -5.9124   19.1764 O   0  0  0  0  0  0  0  0  0  0  0  0
    6.6314   -7.3769   17.5677 N   0  0  0  0  0  0  0  0  0  0  0  0
    6.2127   -8.3822   18.5328 C   0  0  0  0  0  0  0  0  0  0  0  0
    5.1928   -9.3948   18.0170 C   0  0  0  0  0  0  0  0  0  0  0  0
    6.3115   -3.9448   18.0271 H   0  0  0  0  0  0  0  0  0  0  0  0
    6.5363   -7.5544   16.6041 H   0  0  0  0  0  0  0  0  0  0  0  0
    9.0389   -4.8071   17.1557 C   0  0  0  0  0  0  0  0  0  0  0  0
    9.8748   -6.0182   17.5542 C   0  0  0  0  0  0  0  0  0  0  0  0
    9.6514   -4.1612   15.9147 C   0  0  0  0  0  0  0  0  0  0  0  0
    9.8764   -2.6812   16.0355 C   0  0  0  0  0  0  0  0  0  0  0  0
 11 12  1  0  0  0
 11 15  1  0  0  0
 12 16  1  0  0  0
 13 14  2  0  0  0
 13 15  1  0  0  0
 13 16  1  0  0  0
 16 10  1  0  0  0
 10 17  1  0  0  0
 10  6  1  0  0  0
 17 18  1  0  0  0
 17 19  1  0  0  0
  6  7  2  0  0  0
  6  8  1  0  0  0
  8  5  1  0  0  0
  5 20  1  0  0  0
  5  2  1  0  0  0
 20 21  1  0  0  0
 21 22  2  0  0  0
 21 23  1  0  0  0
 22 24  1  0  0  0
 23 25  2  0  0  0
 24 26  2  0  0  0
 25 26  1  0  0  0
 26 27  1  0  0  0
  2  1  1  0  0  0
  2  3  1  0  0  0
  1 29  1  0  0  0
 29 31  1  0  0  0
 31 32  1  0  0  0
 31 41  1  0  0  0
 32 33  1  0  0  0
 33 34  1  0  0  0
 33 36  2  0  0  0
 34 35  2  0  0  0
 35 38  1  0  0  0
 36 37  1  0  0  0
 37 38  2  0  0  0
 38 39  1  0  0  0
 39 40  1  0  0  0
 40 49  1  0  0  0
 41 42  2  0  0  0
 41 43  1  0  0  0
 43 44  1  0  0  0
 44 45  1  0  0  0
 44 52  1  0  0  0
 45 46  2  0  0  0
 45 47  1  0  0  0
 52 54  1  0  0  0
 52 53  1  0  0  0
 54 55  1  0  0  0
 47 48  1  0  0  0
 48 49  1  0  0  0
  8  9  1  0  0  0
  3  4  1  0  0  0
 27 28  1  0  0  0
 29 30  1  0  0  0
 43 50  1  0  0  0
 47 51  1  0  0  0
M  END
> <minimizedAffinity>
-10.53731

$$$$
1B6K_PI5_A_201


 55 58  0  0  0  0  0  0  0  0999 V2000
    3.3798   -1.8999   15.4986 C   0  0  0  0  0  0  0  0  0  0  0  0
    4.1892   -1.7122   14.2231 C   0  0  0  0  0  0  0  0  0  0  0  0
    3.9461   -2.8120   13.3422 O   0  0  0  0  0  0  0  0  0  0  0  0
    3.0036   -2.8419   13.1148 H   0  0  0  0  0  0  0  0  0  0  0  0
    3.7958   -0.4280   13.5170 C   0  0  0  0  0  0  0  0  0  0  0  0
    5.8491    0.6230   12.7017 C   0  0  0  0  0  0  0  0  0  0  0  0
    6.1482    1.0536   13.8260 O   0  0  0  0  0  0  0  0  0  0  0  0
    4.7450   -0.0765   12.4579 N   0  0  0  0  0  0  0  0  0  0  0  0
    4.5594   -0.3677   11.5359 H   0  0  0  0  0  0  0  0  0  0  0  0
    6.7227    0.9128   11.4870 C   0  0  0  0  0  0  0  0  0  0  0  0
    6.8272    4.7335   11.4616 C   0  0  0  0  0  0  0  0  0  0  0  0
    7.4874    3.4226   11.9618 C   0  0  0  0  0  0  0  0  0  0  0  0
    5.8409    2.9162   10.4133 C   0  0  0  0  0  0  0  0  0  0  0  0
    5.0393    2.2428    9.7573 O   0  0  0  0  0  0  0  0  0  0  0  0
    5.9182    4.4095   10.2967 C   0  0  0  0  0  0  0  0  0  0  0  0
    6.7020    2.3599   11.2793 N   0  0  0  0  0  0  0  0  0  0  0  0
    8.1853    0.4366   11.6857 C   0  0  0  0  0  0  0  0  0  0  0  0
    8.2114   -0.9714   12.2500 C   0  0  0  0  0  0  0  0  0  0  0  0
    8.9208    0.4517   10.3607 C   0  0  0  0  0  0  0  0  0  0  0  0
    2.3914   -0.5775   12.9347 C   0  0  0  0  0  0  0  0  0  0  0  0
    1.8761    0.6725   12.2857 C   0  0  0  0  0  0  0  0  0  0  0  0
    0.6551    0.6772   11.6228 C   0  0  0  0  0  0  0  0  0  0  0  0
    2.5977    1.8614   12.3542 C   0  0  0  0  0  0  0  0  0  0  0  0
    0.1597    1.8327   11.0464 C   0  0  0  0  0  0  0  0  0  0  0  0
    2.1138    3.0231   11.7815 C   0  0  0  0  0  0  0  0  0  0  0  0
    0.8926    3.0011   11.1302 C   0  0  0  0  0  0  0  0  0  0  0  0
    0.3913    4.1523   10.5657 O   0  0  0  0  0  0  0  0  0  0  0  0
   -0.4355    4.1364   10.1250 H   0  0  0  0  0  0  0  0  0  0  0  0
    4.3177   -2.1147   16.6042 N   0  0  0  0  0  0  0  0  0  0  0  0
    3.9400   -1.6548   17.4326 H   0  0  0  0  0  0  0  0  0  0  0  0
    4.5774   -3.5451   16.9474 C   0  0  0  0  0  0  0  0  0  0  0  0
    3.3329   -4.4076   16.7369 C   0  0  0  0  0  0  0  0  0  0  0  0
    3.6443   -5.8680   16.9152 C   0  0  0  0  0  0  0  0  0  0  0  0
    3.9292   -6.3890   18.1794 C   0  0  0  0  0  0  0  0  0  0  0  0
    4.3497   -7.6959   18.3342 C   0  0  0  0  0  0  0  0  0  0  0  0
    3.7770   -6.7039   15.8114 C   0  0  0  0  0  0  0  0  0  0  0  0
    4.1977   -8.0089   15.9560 C   0  0  0  0  0  0  0  0  0  0  0  0
    4.4880   -8.4980   17.2155 C   0  0  0  0  0  0  0  0  0  0  0  0
    4.9443   -9.7885   17.3297 O   0  0  0  0  0  0  0  0  0  0  0  0
    5.7655  -10.1955   18.4074 C   0  0  0  0  0  0  0  0  0  0  0  0
    5.7776   -4.2321   16.2935 C   0  0  0  0  0  0  0  0  0  0  0  0
    5.8957   -4.2882   15.0669 O   0  0  0  0  0  0  0  0  0  0  0  0
    6.6549   -4.7709   17.1355 N   0  0  0  0  0  0  0  0  0  0  0  0
    7.8584   -5.4925   16.6953 C   0  0  0  0  0  0  0  0  0  0  0  0
    7.9965   -6.5528   17.7902 C   0  0  0  0  0  0  0  0  0  0  0  0
    8.2087   -6.2170   18.9640 O   0  0  0  0  0  0  0  0  0  0  0  0
    7.8265   -7.8193   17.4190 N   0  0  0  0  0  0  0  0  0  0  0  0
    7.9491   -8.8947   18.3915 C   0  0  0  0  0  0  0  0  0  0  0  0
    7.2405  -10.1945   18.0175 C   0  0  0  0  0  0  0  0  0  0  0  0
    6.4904   -4.6823   18.1021 H   0  0  0  0  0  0  0  0  0  0  0  0
    7.6165   -8.0300   16.4806 H   0  0  0  0  0  0  0  0  0  0  0  0
    9.1357   -4.6016   16.7104 C   0  0  0  0  0  0  0  0  0  0  0  0
   10.3718   -5.4494   16.9889 C   0  0  0  0  0  0  0  0  0  0  0  0
    9.3123   -3.8802   15.3759 C   0  0  0  0  0  0  0  0  0  0  0  0
    9.3154   -4.7872   14.1787 C   0  0  0  0  0  0  0  0  0  0  0  0
 11 12  1  0  0  0
 11 15  1  0  0  0
 12 16  1  0  0  0
 13 14  2  0  0  0
 13 15  1  0  0  0
 13 16  1  0  0  0
 16 10  1  0  0  0
 10 17  1  0  0  0
 10  6  1  0  0  0
 17 18  1  0  0  0
 17 19  1  0  0  0
  6  7  2  0  0  0
  6  8  1  0  0  0
  8  5  1  0  0  0
  5 20  1  0  0  0
  5  2  1  0  0  0
 20 21  1  0  0  0
 21 22  2  0  0  0
 21 23  1  0  0  0
 22 24  1  0  0  0
 23 25  2  0  0  0
 24 26  2  0  0  0
 25 26  1  0  0  0
 26 27  1  0  0  0
  2  1  1  0  0  0
  2  3  1  0  0  0
  1 29  1  0  0  0
 29 31  1  0  0  0
 31 32  1  0  0  0
 31 41  1  0  0  0
 32 33  1  0  0  0
 33 34  1  0  0  0
 33 36  2  0  0  0
 34 35  2  0  0  0
 35 38  1  0  0  0
 36 37  1  0  0  0
 37 38  2  0  0  0
 38 39  1  0  0  0
 39 40  1  0  0  0
 40 49  1  0  0  0
 41 42  2  0  0  0
 41 43  1  0  0  0
 43 44  1  0  0  0
 44 45  1  0  0  0
 44 52  1  0  0  0
 45 46  2  0  0  0
 45 47  1  0  0  0
 52 54  1  0  0  0
 52 53  1  0  0  0
 54 55  1  0  0  0
 47 48  1  0  0  0
 48 49  1  0  0  0
  8  9  1  0  0  0
  3  4  1  0  0  0
 27 28  1  0  0  0
 29 30  1  0  0  0
 43 50  1  0  0  0
 47 51  1  0  0  0
M  END
> <minimizedAffinity>
-10.49556

$$$$
1B6K_PI5_A_201


 55 58  0  0  0  0  0  0  0  0999 V2000
    6.7297   -0.7202   13.3618 C   0  0  0  0  0  0  0  0  0  0  0  0
    5.9167   -0.5800   12.0826 C   0  0  0  0  0  0  0  0  0  0  0  0
    5.3464   -1.8466   11.7431 O   0  0  0  0  0  0  0  0  0  0  0  0
    4.7596   -2.1391   12.4580 H   0  0  0  0  0  0  0  0  0  0  0  0
    4.7945    0.4255   12.2624 C   0  0  0  0  0  0  0  0  0  0  0  0
    5.8039    2.5246   11.5141 C   0  0  0  0  0  0  0  0  0  0  0  0
    6.5702    2.5748   12.4882 O   0  0  0  0  0  0  0  0  0  0  0  0
    4.9175    1.5504   11.3321 N   0  0  0  0  0  0  0  0  0  0  0  0
    4.3248    1.5862   10.5468 H   0  0  0  0  0  0  0  0  0  0  0  0
    5.7933    3.6252   10.4598 C   0  0  0  0  0  0  0  0  0  0  0  0
    8.3840    2.2307    8.0198 C   0  0  0  0  0  0  0  0  0  0  0  0
    6.9791    2.0621    8.6542 C   0  0  0  0  0  0  0  0  0  0  0  0
    7.8606    4.1154    9.2640 C   0  0  0  0  0  0  0  0  0  0  0  0
    7.9885    5.1837    9.8713 O   0  0  0  0  0  0  0  0  0  0  0  0
    8.8509    3.6529    8.2369 C   0  0  0  0  0  0  0  0  0  0  0  0
    6.8248    3.2898    9.4794 N   0  0  0  0  0  0  0  0  0  0  0  0
    4.4202    3.7474    9.7490 C   0  0  0  0  0  0  0  0  0  0  0  0
    3.4236    4.4617   10.6425 C   0  0  0  0  0  0  0  0  0  0  0  0
    4.5718    4.5251    8.4572 C   0  0  0  0  0  0  0  0  0  0  0  0
    3.4498   -0.2728   12.0669 C   0  0  0  0  0  0  0  0  0  0  0  0
    2.3946    0.6147   11.4769 C   0  0  0  0  0  0  0  0  0  0  0  0
    1.5759    1.3846   12.2937 C   0  0  0  0  0  0  0  0  0  0  0  0
    2.2284    0.7055   10.0974 C   0  0  0  0  0  0  0  0  0  0  0  0
    0.6197    2.2270   11.7563 C   0  0  0  0  0  0  0  0  0  0  0  0
    1.2757    1.5432    9.5477 C   0  0  0  0  0  0  0  0  0  0  0  0
    0.4756    2.3024   10.3841 C   0  0  0  0  0  0  0  0  0  0  0  0
   -0.4690    3.1507    9.8519 O   0  0  0  0  0  0  0  0  0  0  0  0
   -1.0101    3.6642   10.4189 H   0  0  0  0  0  0  0  0  0  0  0  0
    5.8381   -0.4651   14.4968 N   0  0  0  0  0  0  0  0  0  0  0  0
    5.0102    0.0165   14.1460 H   0  0  0  0  0  0  0  0  0  0  0  0
    5.3867   -1.6825   15.2355 C   0  0  0  0  0  0  0  0  0  0  0  0
    3.8922   -1.9366   15.0382 C   0  0  0  0  0  0  0  0  0  0  0  0
    3.4786   -3.2527   15.6370 C   0  0  0  0  0  0  0  0  0  0  0  0
    3.4400   -3.4271   17.0222 C   0  0  0  0  0  0  0  0  0  0  0  0
    3.1954   -4.6679   17.5784 C   0  0  0  0  0  0  0  0  0  0  0  0
    3.2464   -4.3583   14.8255 C   0  0  0  0  0  0  0  0  0  0  0  0
    3.0032   -5.6007   15.3716 C   0  0  0  0  0  0  0  0  0  0  0  0
    2.9845   -5.7519   16.7451 C   0  0  0  0  0  0  0  0  0  0  0  0
    2.7806   -7.0070   17.2648 O   0  0  0  0  0  0  0  0  0  0  0  0
    3.2760   -7.3755   18.5377 C   0  0  0  0  0  0  0  0  0  0  0  0
    6.1504   -2.9869   15.0010 C   0  0  0  0  0  0  0  0  0  0  0  0
    6.2741   -3.4643   13.8703 O   0  0  0  0  0  0  0  0  0  0  0  0
    6.6425   -3.5641   16.0935 N   0  0  0  0  0  0  0  0  0  0  0  0
    7.3851   -4.8334   16.0715 C   0  0  0  0  0  0  0  0  0  0  0  0
    6.9712   -5.4528   17.4083 C   0  0  0  0  0  0  0  0  0  0  0  0
    7.2720   -4.8985   18.4751 O   0  0  0  0  0  0  0  0  0  0  0  0
    6.2433   -6.5651   17.3506 N   0  0  0  0  0  0  0  0  0  0  0  0
    5.8133   -7.2282   18.5723 C   0  0  0  0  0  0  0  0  0  0  0  0
    4.5940   -8.1358   18.4258 C   0  0  0  0  0  0  0  0  0  0  0  0
    6.5027   -3.1193   16.9606 H   0  0  0  0  0  0  0  0  0  0  0  0
    5.9942   -6.9418   16.4758 H   0  0  0  0  0  0  0  0  0  0  0  0
    8.9291   -4.6297   16.0815 C   0  0  0  0  0  0  0  0  0  0  0  0
    9.6357   -5.9387   16.4152 C   0  0  0  0  0  0  0  0  0  0  0  0
    9.4207   -4.1255   14.7263 C   0  0  0  0  0  0  0  0  0  0  0  0
    9.5775   -5.1987   13.6874 C   0  0  0  0  0  0  0  0  0  0  0  0
 11 12  1  0  0  0
 11 15  1  0  0  0
 12 16  1  0  0  0
 13 14  2  0  0  0
 13 15  1  0  0  0
 13 16  1  0  0  0
 16 10  1  0  0  0
 10 17  1  0  0  0
 10  6  1  0  0  0
 17 18  1  0  0  0
 17 19  1  0  0  0
  6  7  2  0  0  0
  6  8  1  0  0  0
  8  5  1  0  0  0
  5 20  1  0  0  0
  5  2  1  0  0  0
 20 21  1  0  0  0
 21 22  2  0  0  0
 21 23  1  0  0  0
 22 24  1  0  0  0
 23 25  2  0  0  0
 24 26  2  0  0  0
 25 26  1  0  0  0
 26 27  1  0  0  0
  2  1  1  0  0  0
  2  3  1  0  0  0
  1 29  1  0  0  0
 29 31  1  0  0  0
 31 32  1  0  0  0
 31 41  1  0  0  0
 32 33  1  0  0  0
 33 34  1  0  0  0
 33 36  2  0  0  0
 34 35  2  0  0  0
 35 38  1  0  0  0
 36 37  1  0  0  0
 37 38  2  0  0  0
 38 39  1  0  0  0
 39 40  1  0  0  0
 40 49  1  0  0  0
 41 42  2  0  0  0
 41 43  1  0  0  0
 43 44  1  0  0  0
 44 45  1  0  0  0
 44 52  1  0  0  0
 45 46  2  0  0  0
 45 47  1  0  0  0
 52 54  1  0  0  0
 52 53  1  0  0  0
 54 55  1  0  0  0
 47 48  1  0  0  0
 48 49  1  0  0  0
  8  9  1  0  0  0
  3  4  1  0  0  0
 27 28  1  0  0  0
 29 30  1  0  0  0
 43 50  1  0  0  0
 47 51  1  0  0  0
M  END
> <minimizedAffinity>
-10.34638

$$$$
1B6K_PI5_A_201


 55 58  0  0  0  0  0  0  0  0999 V2000
    7.4360   -0.7974   14.5610 C   0  0  0  0  0  0  0  0  0  0  0  0
    6.1281   -0.0633   14.3009 C   0  0  0  0  0  0  0  0  0  0  0  0
    5.9120    0.8998   15.3356 O   0  0  0  0  0  0  0  0  0  0  0  0
    6.6385    1.5425   15.3358 H   0  0  0  0  0  0  0  0  0  0  0  0
    6.1689    0.6581   12.9665 C   0  0  0  0  0  0  0  0  0  0  0  0
    3.9152    1.0966   12.1216 C   0  0  0  0  0  0  0  0  0  0  0  0
    3.8240   -0.0272   11.6043 O   0  0  0  0  0  0  0  0  0  0  0  0
    4.9956    1.5140   12.7745 N   0  0  0  0  0  0  0  0  0  0  0  0
    5.0075    2.4278   13.1407 H   0  0  0  0  0  0  0  0  0  0  0  0
    2.7881    2.1153   12.0013 C   0  0  0  0  0  0  0  0  0  0  0  0
    3.5161    3.6833    8.5923 C   0  0  0  0  0  0  0  0  0  0  0  0
    2.8211    2.5347    9.3683 C   0  0  0  0  0  0  0  0  0  0  0  0
    3.6206    4.1076   10.8690 C   0  0  0  0  0  0  0  0  0  0  0  0
    3.9532    4.6120   11.9466 O   0  0  0  0  0  0  0  0  0  0  0  0
    3.8325    4.8040    9.5577 C   0  0  0  0  0  0  0  0  0  0  0  0
    3.0445    2.8979   10.7931 N   0  0  0  0  0  0  0  0  0  0  0  0
    1.3942    1.4429   11.8993 C   0  0  0  0  0  0  0  0  0  0  0  0
    1.1581    0.5314   13.0890 C   0  0  0  0  0  0  0  0  0  0  0  0
    0.3091    2.5002   11.8638 C   0  0  0  0  0  0  0  0  0  0  0  0
    7.4465    1.4909   12.8776 C   0  0  0  0  0  0  0  0  0  0  0  0
    7.4421    2.4750   11.7458 C   0  0  0  0  0  0  0  0  0  0  0  0
    7.5447    3.8388   11.9901 C   0  0  0  0  0  0  0  0  0  0  0  0
    7.3601    2.0426   10.4248 C   0  0  0  0  0  0  0  0  0  0  0  0
    7.5701    4.7508   10.9506 C   0  0  0  0  0  0  0  0  0  0  0  0
    7.3837    2.9440    9.3767 C   0  0  0  0  0  0  0  0  0  0  0  0
    7.4905    4.2973    9.6477 C   0  0  0  0  0  0  0  0  0  0  0  0
    7.5280    5.2066    8.6148 O   0  0  0  0  0  0  0  0  0  0  0  0
    7.6003    6.1224    8.7993 H   0  0  0  0  0  0  0  0  0  0  0  0
    7.4270   -2.0339   13.7742 N   0  0  0  0  0  0  0  0  0  0  0  0
    8.2013   -1.9922   13.1115 H   0  0  0  0  0  0  0  0  0  0  0  0
    7.5648   -3.2921   14.5676 C   0  0  0  0  0  0  0  0  0  0  0  0
    9.0045   -3.5059   15.0352 C   0  0  0  0  0  0  0  0  0  0  0  0
    9.1051   -4.6754   15.9752 C   0  0  0  0  0  0  0  0  0  0  0  0
    8.9431   -5.9823   15.5101 C   0  0  0  0  0  0  0  0  0  0  0  0
    8.8970   -7.0504   16.3853 C   0  0  0  0  0  0  0  0  0  0  0  0
    9.2377   -4.4737   17.3451 C   0  0  0  0  0  0  0  0  0  0  0  0
    9.1912   -5.5332   18.2261 C   0  0  0  0  0  0  0  0  0  0  0  0
    9.0152   -6.8162   17.7436 C   0  0  0  0  0  0  0  0  0  0  0  0
    8.9313   -7.8504   18.6437 O   0  0  0  0  0  0  0  0  0  0  0  0
    8.2273   -9.0411   18.3466 C   0  0  0  0  0  0  0  0  0  0  0  0
    6.6190   -3.4992   15.7519 C   0  0  0  0  0  0  0  0  0  0  0  0
    6.5529   -2.6800   16.6718 O   0  0  0  0  0  0  0  0  0  0  0  0
    5.9038   -4.6201   15.7215 N   0  0  0  0  0  0  0  0  0  0  0  0
    4.9590   -5.0042   16.7810 C   0  0  0  0  0  0  0  0  0  0  0  0
    5.0916   -6.5288   16.7708 C   0  0  0  0  0  0  0  0  0  0  0  0
    4.7645   -7.1792   15.7679 O   0  0  0  0  0  0  0  0  0  0  0  0
    5.6151   -7.0894   17.8580 N   0  0  0  0  0  0  0  0  0  0  0  0
    5.7700   -8.5339   17.9402 C   0  0  0  0  0  0  0  0  0  0  0  0
    6.8203   -9.0204   18.9361 C   0  0  0  0  0  0  0  0  0  0  0  0
    6.0123   -5.2231   14.9508 H   0  0  0  0  0  0  0  0  0  0  0  0
    5.8995   -6.5233   18.6116 H   0  0  0  0  0  0  0  0  0  0  0  0
    3.4849   -4.6371   16.4375 C   0  0  0  0  0  0  0  0  0  0  0  0
    3.0839   -3.3414   17.1337 C   0  0  0  0  0  0  0  0  0  0  0  0
    3.3014   -4.4742   14.9301 C   0  0  0  0  0  0  0  0  0  0  0  0
    3.1377   -3.0515   14.4775 C   0  0  0  0  0  0  0  0  0  0  0  0
 11 12  1  0  0  0
 11 15  1  0  0  0
 12 16  1  0  0  0
 13 14  2  0  0  0
 13 15  1  0  0  0
 13 16  1  0  0  0
 16 10  1  0  0  0
 10 17  1  0  0  0
 10  6  1  0  0  0
 17 18  1  0  0  0
 17 19  1  0  0  0
  6  7  2  0  0  0
  6  8  1  0  0  0
  8  5  1  0  0  0
  5 20  1  0  0  0
  5  2  1  0  0  0
 20 21  1  0  0  0
 21 22  2  0  0  0
 21 23  1  0  0  0
 22 24  1  0  0  0
 23 25  2  0  0  0
 24 26  2  0  0  0
 25 26  1  0  0  0
 26 27  1  0  0  0
  2  1  1  0  0  0
  2  3  1  0  0  0
  1 29  1  0  0  0
 29 31  1  0  0  0
 31 32  1  0  0  0
 31 41  1  0  0  0
 32 33  1  0  0  0
 33 34  1  0  0  0
 33 36  2  0  0  0
 34 35  2  0  0  0
 35 38  1  0  0  0
 36 37  1  0  0  0
 37 38  2  0  0  0
 38 39  1  0  0  0
 39 40  1  0  0  0
 40 49  1  0  0  0
 41 42  2  0  0  0
 41 43  1  0  0  0
 43 44  1  0  0  0
 44 45  1  0  0  0
 44 52  1  0  0  0
 45 46  2  0  0  0
 45 47  1  0  0  0
 52 54  1  0  0  0
 52 53  1  0  0  0
 54 55  1  0  0  0
 47 48  1  0  0  0
 48 49  1  0  0  0
  8  9  1  0  0  0
  3  4  1  0  0  0
 27 28  1  0  0  0
 29 30  1  0  0  0
 43 50  1  0  0  0
 47 51  1  0  0  0
M  END
> <minimizedAffinity>
-10.05811

$$$$
1B6K_PI5_A_201


 55 58  0  0  0  0  0  0  0  0999 V2000
    5.4224   -0.6901   13.2523 C   0  0  0  0  0  0  0  0  0  0  0  0
    6.2080   -1.9326   12.8573 C   0  0  0  0  0  0  0  0  0  0  0  0
    7.2332   -1.5692   11.9291 O   0  0  0  0  0  0  0  0  0  0  0  0
    7.8371   -0.9349   12.3462 H   0  0  0  0  0  0  0  0  0  0  0  0
    6.8563   -2.5713   14.0716 C   0  0  0  0  0  0  0  0  0  0  0  0
    5.3467   -3.8177   15.5388 C   0  0  0  0  0  0  0  0  0  0  0  0
    5.1422   -2.8340   16.2663 O   0  0  0  0  0  0  0  0  0  0  0  0
    6.1562   -3.7901   14.4844 N   0  0  0  0  0  0  0  0  0  0  0  0
    6.2894   -4.6153   13.9643 H   0  0  0  0  0  0  0  0  0  0  0  0
    4.7063   -5.1680   15.8378 C   0  0  0  0  0  0  0  0  0  0  0  0
    7.0293   -6.3723   18.6240 C   0  0  0  0  0  0  0  0  0  0  0  0
    6.5514   -5.1747   17.7626 C   0  0  0  0  0  0  0  0  0  0  0  0
    5.1828   -7.0021   17.3718 C   0  0  0  0  0  0  0  0  0  0  0  0
    4.3301   -7.7119   16.8282 O   0  0  0  0  0  0  0  0  0  0  0  0
    6.0039   -7.4805   18.5321 C   0  0  0  0  0  0  0  0  0  0  0  0
    5.4368   -5.7494   16.9630 N   0  0  0  0  0  0  0  0  0  0  0  0
    3.2043   -5.0400   16.2032 C   0  0  0  0  0  0  0  0  0  0  0  0
    3.0199   -4.0625   17.3487 C   0  0  0  0  0  0  0  0  0  0  0  0
    2.4182   -4.5498   15.0039 C   0  0  0  0  0  0  0  0  0  0  0  0
    8.3187   -2.8855   13.7611 C   0  0  0  0  0  0  0  0  0  0  0  0
    9.0028   -3.6756   14.8368 C   0  0  0  0  0  0  0  0  0  0  0  0
    9.4773   -3.0513   15.9837 C   0  0  0  0  0  0  0  0  0  0  0  0
    9.1555   -5.0548   14.7214 C   0  0  0  0  0  0  0  0  0  0  0  0
   10.0837   -3.7768   16.9931 C   0  0  0  0  0  0  0  0  0  0  0  0
    9.7604   -5.7914   15.7229 C   0  0  0  0  0  0  0  0  0  0  0  0
   10.2209   -5.1451   16.8571 C   0  0  0  0  0  0  0  0  0  0  0  0
   10.8143   -5.8661   17.8687 O   0  0  0  0  0  0  0  0  0  0  0  0
   11.1257   -5.4277   18.6360 H   0  0  0  0  0  0  0  0  0  0  0  0
    4.0439   -0.8561   12.7829 N   0  0  0  0  0  0  0  0  0  0  0  0
    3.4224   -0.7518   13.5849 H   0  0  0  0  0  0  0  0  0  0  0  0
    3.6100    0.1135   11.7325 C   0  0  0  0  0  0  0  0  0  0  0  0
    2.1054    0.0267   11.4758 C   0  0  0  0  0  0  0  0  0  0  0  0
    1.6460    1.1181   10.5488 C   0  0  0  0  0  0  0  0  0  0  0  0
    1.9917    1.0994    9.1958 C   0  0  0  0  0  0  0  0  0  0  0  0
    1.6919    2.1642    8.3681 C   0  0  0  0  0  0  0  0  0  0  0  0
    0.9736    2.2309   11.0432 C   0  0  0  0  0  0  0  0  0  0  0  0
    0.6716    3.2988   10.2251 C   0  0  0  0  0  0  0  0  0  0  0  0
    1.0370    3.2640    8.8928 C   0  0  0  0  0  0  0  0  0  0  0  0
    0.7615    4.3569    8.1077 O   0  0  0  0  0  0  0  0  0  0  0  0
    1.5354    4.6669    6.9646 C   0  0  0  0  0  0  0  0  0  0  0  0
    4.0031    1.5815   11.9064 C   0  0  0  0  0  0  0  0  0  0  0  0
    3.6880    2.2153   12.9167 O   0  0  0  0  0  0  0  0  0  0  0  0
    4.6798    2.1147   10.8931 N   0  0  0  0  0  0  0  0  0  0  0  0
    5.1236    3.5165   10.8673 C   0  0  0  0  0  0  0  0  0  0  0  0
    5.0189    3.8427    9.3757 C   0  0  0  0  0  0  0  0  0  0  0  0
    5.7261    3.2443    8.5526 O   0  0  0  0  0  0  0  0  0  0  0  0
    4.1079    4.7471    9.0254 N   0  0  0  0  0  0  0  0  0  0  0  0
    3.9451    5.1264    7.6300 C   0  0  0  0  0  0  0  0  0  0  0  0
    2.5877    5.7277    7.2730 C   0  0  0  0  0  0  0  0  0  0  0  0
    4.8944    1.5421   10.1216 H   0  0  0  0  0  0  0  0  0  0  0  0
    3.5406    5.1623    9.7145 H   0  0  0  0  0  0  0  0  0  0  0  0
    6.6086    3.6877   11.3044 C   0  0  0  0  0  0  0  0  0  0  0  0
    6.8023    5.0213   12.0174 C   0  0  0  0  0  0  0  0  0  0  0  0
    7.0365    2.5546   12.2347 C   0  0  0  0  0  0  0  0  0  0  0  0
    8.1343    1.6875   11.6882 C   0  0  0  0  0  0  0  0  0  0  0  0
 11 12  1  0  0  0
 11 15  1  0  0  0
 12 16  1  0  0  0
 13 14  2  0  0  0
 13 15  1  0  0  0
 13 16  1  0  0  0
 16 10  1  0  0  0
 10 17  1  0  0  0
 10  6  1  0  0  0
 17 18  1  0  0  0
 17 19  1  0  0  0
  6  7  2  0  0  0
  6  8  1  0  0  0
  8  5  1  0  0  0
  5 20  1  0  0  0
  5  2  1  0  0  0
 20 21  1  0  0  0
 21 22  2  0  0  0
 21 23  1  0  0  0
 22 24  1  0  0  0
 23 25  2  0  0  0
 24 26  2  0  0  0
 25 26  1  0  0  0
 26 27  1  0  0  0
  2  1  1  0  0  0
  2  3  1  0  0  0
  1 29  1  0  0  0
 29 31  1  0  0  0
 31 32  1  0  0  0
 31 41  1  0  0  0
 32 33  1  0  0  0
 33 34  1  0  0  0
 33 36  2  0  0  0
 34 35  2  0  0  0
 35 38  1  0  0  0
 36 37  1  0  0  0
 37 38  2  0  0  0
 38 39  1  0  0  0
 39 40  1  0  0  0
 40 49  1  0  0  0
 41 42  2  0  0  0
 41 43  1  0  0  0
 43 44  1  0  0  0
 44 45  1  0  0  0
 44 52  1  0  0  0
 45 46  2  0  0  0
 45 47  1  0  0  0
 52 54  1  0  0  0
 52 53  1  0  0  0
 54 55  1  0  0  0
 47 48  1  0  0  0
 48 49  1  0  0  0
  8  9  1  0  0  0
  3  4  1  0  0  0
 27 28  1  0  0  0
 29 30  1  0  0  0
 43 50  1  0  0  0
 47 51  1  0  0  0
M  END
> <minimizedAffinity>
-10.04834

$$$$
