1B6K_PI5_A_201
  RCSB PDB12061702033D
Coordinates from PDB:1B6K:A:201 Model:1 without hydrogens
 49 52  0  0  0  0            999 V2000
    3.9510    3.5910    8.4490   C 0  0  0  0  0  0  0  0  0  0  0  0
    3.3590    2.3660    9.1930   C 0  0  0  0  0  0  0  0  0  0  0  0
    3.5310    4.1510   10.6590   C 0  0  0  0  0  0  0  0  0  0  0  0
    3.5450    4.7720   11.7270   O 0  0  0  0  0  0  0  0  0  0  0  0
    3.8500    4.8040    9.3470   C 0  0  0  0  0  0  0  0  0  0  0  0
    3.2290    2.8450   10.5950   N 0  0  0  0  0  0  0  0  0  0  0  0
    2.9040    2.0930   11.8060   C 0  0  0  0  0  0  0  0  0  0  0  0
    1.6140    1.2640   11.5730   C 0  0  0  0  0  0  0  0  0  0  0  0
    1.2720    0.4580   12.8120   C 0  0  0  0  0  0  0  0  0  0  0  0
    0.4560    2.1860   11.2480   C 0  0  0  0  0  0  0  0  0  0  0  0
    4.1080    1.2140   12.1230   C 0  0  0  0  0  0  0  0  0  0  0  0
    4.2510    0.1030   11.5900   O 0  0  0  0  0  0  0  0  0  0  0  0
    4.9930    1.7390   12.9650   N 0  0  0  0  0  0  0  0  0  0  0  0
    6.2090    1.0250   13.3620   C 0  0  0  0  0  0  0  0  0  0  0  0
    7.4370    1.8970   13.1060   C 0  0  0  0  0  0  0  0  0  0  0  0
    7.5970    2.2990   11.6700   C 0  0  0  0  0  0  0  0  0  0  0  0
    7.8070    1.3430   10.6840   C 0  0  0  0  0  0  0  0  0  0  0  0
    7.5140    3.6360   11.2900   C 0  0  0  0  0  0  0  0  0  0  0  0
    7.9270    1.7030    9.3540   C 0  0  0  0  0  0  0  0  0  0  0  0
    7.6330    4.0090    9.9640   C 0  0  0  0  0  0  0  0  0  0  0  0
    7.8380    3.0360    9.0010   C 0  0  0  0  0  0  0  0  0  0  0  0
    6.1730    0.6200   14.8240   C 0  0  0  0  0  0  0  0  0  0  0  0
    4.9850   -0.2890   15.1060   C 0  0  0  0  0  0  0  0  0  0  0  0
    7.3840   -0.0730   15.1370   O 0  0  0  0  0  0  0  0  0  0  0  0
    7.9460    3.3900    7.6750   O 0  0  0  0  0  0  0  0  0  0  0  0
    5.0220   -0.6580   16.5240   N 0  0  0  0  0  0  0  0  0  0  0  0
    4.8090   -2.1090   16.8080   C 0  0  0  0  0  0  0  0  0  0  0  0
    3.4070   -2.5610   16.3990   C 0  0  0  0  0  0  0  0  0  0  0  0
    3.2560   -4.0520   16.5240   C 0  0  0  0  0  0  0  0  0  0  0  0
    3.2090   -4.6630   17.7790   C 0  0  0  0  0  0  0  0  0  0  0  0
    3.2090   -6.0390   17.9030   C 0  0  0  0  0  0  0  0  0  0  0  0
    3.2850   -4.8640   15.3950   C 0  0  0  0  0  0  0  0  0  0  0  0
    3.2870   -6.2380   15.5090   C 0  0  0  0  0  0  0  0  0  0  0  0
    3.2550   -6.8200   16.7620   C 0  0  0  0  0  0  0  0  0  0  0  0
    3.2990   -8.1900   16.8510   O 0  0  0  0  0  0  0  0  0  0  0  0
    3.8180   -8.8460   17.9920   C 0  0  0  0  0  0  0  0  0  0  0  0
    5.8340   -3.1040   16.2610   C 0  0  0  0  0  0  0  0  0  0  0  0
    6.0910   -3.1640   15.0560   O 0  0  0  0  0  0  0  0  0  0  0  0
    6.3990   -3.8970   17.1670   N 0  0  0  0  0  0  0  0  0  0  0  0
    7.3890   -4.9310   16.8300   C 0  0  0  0  0  0  0  0  0  0  0  0
    7.0690   -6.0100   17.8670   C 0  0  0  0  0  0  0  0  0  0  0  0
    7.2130   -5.7790   19.0760   O 0  0  0  0  0  0  0  0  0  0  0  0
    8.8560   -4.4570   17.0510   C 0  0  0  0  0  0  0  0  0  0  0  0
    9.2160   -3.3310   16.0840   C 0  0  0  0  0  0  0  0  0  0  0  0
    9.8250   -5.6170   16.8520   C 0  0  0  0  0  0  0  0  0  0  0  0
    9.5520   -3.7930   14.6950   C 0  0  0  0  0  0  0  0  0  0  0  0
    6.5900   -7.1610   17.4020   N 0  0  0  0  0  0  0  0  0  0  0  0
    6.2670   -8.2470   18.3150   C 0  0  0  0  0  0  0  0  0  0  0  0
    5.2680   -9.2710   17.7810   C 0  0  0  0  0  0  0  0  0  0  0  0
  1  2  1  0  0  0  0
  1  5  1  0  0  0  0
  2  6  1  0  0  0  0
  3  4  2  0  0  0  0
  3  5  1  0  0  0  0
  3  6  1  0  0  0  0
  6  7  1  0  0  0  0
  7  8  1  0  0  0  0
  7 11  1  0  0  0  0
  8  9  1  0  0  0  0
  8 10  1  0  0  0  0
 11 12  2  0  0  0  0
 11 13  1  0  0  0  0
 13 14  1  0  0  0  0
 14 15  1  0  0  0  0
 14 22  1  0  0  0  0
 15 16  1  0  0  0  0
 16 17  2  0  0  0  0
 16 18  1  0  0  0  0
 17 19  1  0  0  0  0
 18 20  2  0  0  0  0
 19 21  2  0  0  0  0
 20 21  1  0  0  0  0
 21 25  1  0  0  0  0
 22 23  1  0  0  0  0
 22 24  1  0  0  0  0
 23 26  1  0  0  0  0
 26 27  1  0  0  0  0
 27 28  1  0  0  0  0
 27 37  1  0  0  0  0
 28 29  1  0  0  0  0
 29 30  1  0  0  0  0
 29 32  2  0  0  0  0
 30 31  2  0  0  0  0
 31 34  1  0  0  0  0
 32 33  1  0  0  0  0
 33 34  2  0  0  0  0
 34 35  1  0  0  0  0
 35 36  1  0  0  0  0
 36 49  1  0  0  0  0
 37 38  2  0  0  0  0
 37 39  1  0  0  0  0
 39 40  1  0  0  0  0
 40 41  1  0  0  0  0
 40 43  1  0  0  0  0
 41 42  2  0  0  0  0
 41 47  1  0  0  0  0
 43 44  1  0  0  0  0
 43 45  1  0  0  0  0
 44 46  1  0  0  0  0
 47 48  1  0  0  0  0
 48 49  1  0  0  0  0
A    1
C1
A    2
C2
A    3
C3
A    4
O4
A    5
C5
A    6
N6
A    7
C7
A    8
C8
A    9
C9
A   10
C10
A   11
C11
A   12
O12
A   13
N13
A   14
C14
A   15
C15
A   16
C16
A   17
C17
A   18
C18
A   19
C19
A   20
C20
A   21
C21
A   22
C22
A   23
C23
A   24
O24
A   25
O25
A   26
N26
A   27
C27
A   28
C28
A   29
C29
A   30
C30
A   31
C31
A   32
C32
A   33
C33
A   34
C34
A   35
O35
A   36
C36
A   37
C37
A   38
O38
A   39
N39
A   40
C40
A   41
C41
A   42
O42
A   43
C43
A   44
C44
A   45
C45
A   46
C46
A   47
N47
A   48
C48
A   49
C49
M  END
>  <InstanceId>
1B6K_PI5_A_201

>  <ChemCompId>
PI5

>  <PdbId>
1B6K

>  <ChainId>
A

>  <ResidueNumber>
201

>  <InsertionCode>


>  <Model>
1

>  <AltIds>


>  <MissingHeavyAtoms>
0

>  <ObservedFormula>
C37 N5 O7

>  <Name>
N-[3-(8-SEC-BUTYL-7,10-DIOXO-2-OXA-6,9-DIAZA-BICYCLO[11.2.2]HEPTADECA-1(16),13(17),14- TRIEN-11-YLAMINO)-2-HYDROXY-1-(4-HYDROXY-BENZYL)-PROPYL]-3-METHYL-2- (2-OXO-PYRROLIDIN-1-YL)-BUTYRAMIDE

>  <SystematicName>
(2S)-N-[(2S,3R)-4-[[(3S,6S)-6-[(2S)-butan-2-yl]-4,7-dioxo-12-oxa-5,8-diazabicyclo[11.2.2]heptadeca-1(15),13,16-trien-3-yl]amino]-3-hydroxy-1-(4-hydroxyphenyl)butan-2-yl]-3-methyl-2-(2-oxopyrrolidin-1-yl)butanamide

>  <Synonyms>
MACROCYCLIC PEPTIDOMIMETIC INHIBITOR 5

>  <Type>
NON-POLYMER

>  <Formula>
C37 H53 N5 O7

>  <MolecularWeight>
679.846

>  <ModifiedDate>
2011-06-04

>  <Parent>


>  <OneLetterCode>


>  <SubcomponentList>


>  <AmbiguousFlag>
N

>  <InChI>
InChI=1S/C37H53N5O7/c1-5-24(4)33-36(47)38-17-7-19-49-28-15-11-26(12-16-28)21-30(35(46)41-33)39-22-31(44)29(20-25-9-13-27(43)14-10-25)40-37(48)34(23(2)3)42-18-6-8-32(42)45/h9-16,23-24,29-31,33-34,39,43-44H,5-8,17-22H2,1-4H3,(H,38,47)(H,40,48)(H,41,46)/t24-,29-,30-,31+,33-,34-/m0/s1

>  <InChIKey>
WGWWDGLTNADWNS-HKERLIEGSA-N

>  <SMILES>
CC[C@H](C)[C@H]1C(=O)NCCCOc2ccc(cc2)C[C@@H](C(=O)N1)NC[C@H]([C@H](Cc3ccc(cc3)O)NC(=O)[C@H](C(C)C)N4CCCC4=O)O

$$$$
