3KDM_TES_H_226


 22 25  0  0  0  0  0  0  0  0999 V2000
   -2.2338   -0.3041   20.9288 C   0  0  0  0  0  0  0  0  0  0  0  0
   -3.4097   -1.1162   20.3888 C   0  0  0  0  0  0  0  0  0  0  0  0
   -3.7649   -0.7473   18.9670 C   0  0  0  0  0  0  0  0  0  0  0  0
   -4.8996   -0.9439   18.5426 O   0  0  0  0  0  0  0  0  0  0  0  0
   -2.7180   -0.1532   18.0961 C   0  0  0  0  0  0  0  0  0  0  0  0
   -1.5059    0.1817   18.5461 C   0  0  0  0  0  0  0  0  0  0  0  0
   -0.5555    0.8077   17.5541 C   0  0  0  0  0  0  0  0  0  0  0  0
    0.4032    1.8331   18.1500 C   0  0  0  0  0  0  0  0  0  0  0  0
    0.9290    1.4428   19.5245 C   0  0  0  0  0  0  0  0  0  0  0  0
   -0.2351    1.1014   20.4527 C   0  0  0  0  0  0  0  0  0  0  0  0
   -1.0681   -0.0954   19.9623 C   0  0  0  0  0  0  0  0  0  0  0  0
    0.1721    0.9843   21.9375 C   0  0  0  0  0  0  0  0  0  0  0  0
    0.9272    2.2344   22.4444 C   0  0  0  0  0  0  0  0  0  0  0  0
    2.1466    2.4341   21.5620 C   0  0  0  0  0  0  0  0  0  0  0  0
    1.7230    2.6058   20.1226 C   0  0  0  0  0  0  0  0  0  0  0  0
    3.0158    3.0008   19.4224 C   0  0  0  0  0  0  0  0  0  0  0  0
    3.8005    3.7700   20.4907 C   0  0  0  0  0  0  0  0  0  0  0  0
    2.9196    3.7429   21.7447 C   0  0  0  0  0  0  0  0  0  0  0  0
    3.6654    3.8212   22.9730 O   0  0  0  0  0  0  0  0  0  0  0  0
    3.1172    1.2528   21.7291 C   0  0  0  0  0  0  0  0  0  0  0  0
   -0.2318   -1.3723   19.9527 C   0  0  0  0  0  0  0  0  0  0  0  0
    4.2971    3.0864   23.0151 H   0  0  0  0  0  0  0  0  0  0  0  0
  1  2  1  0  0  0
  1 11  1  0  0  0
  2  3  1  0  0  0
  3  4  2  0  0  0
  3  5  1  0  0  0
  5  6  2  0  0  0
  6  7  1  0  0  0
  6 11  1  0  0  0
  7  8  1  0  0  0
  8  9  1  0  0  0
  9 10  1  0  0  0
  9 15  1  0  0  0
 10 11  1  0  0  0
 10 12  1  0  0  0
 11 21  1  0  0  0
 12 13  1  0  0  0
 13 14  1  0  0  0
 14 15  1  0  0  0
 14 18  1  0  0  0
 14 20  1  0  0  0
 15 16  1  0  0  0
 16 17  1  0  0  0
 17 18  1  0  0  0
 18 19  1  0  0  0
 19 22  1  0  0  0
M  END
> <minimizedAffinity>
-13.71591

$$$$
