1I37_DHT_A_201
  RCSB PDB12061702483D
Coordinates from PDB:1I37:A:201 Model:1 without hydrogens
 21 24  0  0  0  0            999 V2000
   27.6850    5.1990    4.5650   C 0  0  0  0  0  0  0  0  0  0  0  0
   26.8140    6.4850    4.6360   C 0  0  0  0  0  0  0  0  0  0  0  0
   25.4840    6.2800    3.9440   C 0  0  0  0  0  0  0  0  0  0  0  0
   24.9040    7.2490    3.4480   O 0  0  0  0  0  0  0  0  0  0  0  0
   24.8870    4.9640    3.8570   C 0  0  0  0  0  0  0  0  0  0  0  0
   25.4640    3.9030    4.3570   C 0  0  0  0  0  0  0  0  0  0  0  0
   24.7270    2.5600    4.2410   C 0  0  0  0  0  0  0  0  0  0  0  0
   25.6130    1.4540    3.6090   C 0  0  0  0  0  0  0  0  0  0  0  0
   26.9550    1.3030    4.3590   C 0  0  0  0  0  0  0  0  0  0  0  0
   27.7080    2.6560    4.2790   C 0  0  0  0  0  0  0  0  0  0  0  0
   26.9430    3.8760    4.9490   C 0  0  0  0  0  0  0  0  0  0  0  0
   29.1610    2.5250    4.8300   C 0  0  0  0  0  0  0  0  0  0  0  0
   29.9510    1.3440    4.1920   C 0  0  0  0  0  0  0  0  0  0  0  0
   29.1940   -0.0100    4.3390   C 0  0  0  0  0  0  0  0  0  0  0  0
   27.7840    0.2120    3.6800   C 0  0  0  0  0  0  0  0  0  0  0  0
   27.1780   -1.2320    3.6470   C 0  0  0  0  0  0  0  0  0  0  0  0
   28.4350   -2.1180    3.3100   C 0  0  0  0  0  0  0  0  0  0  0  0
   29.6790   -1.1890    3.4260   C 0  0  0  0  0  0  0  0  0  0  0  0
   30.9100   -1.9180    3.9810   O 0  0  0  0  0  0  0  0  0  0  0  0
   29.1070   -0.4500    5.8470   C 0  0  0  0  0  0  0  0  0  0  0  0
   26.7810    3.7700    6.5240   C 0  0  0  0  0  0  0  0  0  0  0  0
  1  2  1  0  0  0  0
  1 11  1  0  0  0  0
  2  3  1  0  0  0  0
  3  4  2  0  0  0  0
  3  5  1  0  0  0  0
  5  6  1  0  0  0  0
  6  7  1  0  0  0  0
  6 11  1  0  0  0  0
  7  8  1  0  0  0  0
  8  9  1  0  0  0  0
  9 10  1  0  0  0  0
  9 15  1  0  0  0  0
 10 11  1  0  0  0  0
 10 12  1  0  0  0  0
 11 21  1  0  0  0  0
 12 13  1  0  0  0  0
 13 14  1  0  0  0  0
 14 15  1  0  0  0  0
 14 18  1  0  0  0  0
 14 20  1  0  0  0  0
 15 16  1  0  0  0  0
 16 17  1  0  0  0  0
 17 18  1  0  0  0  0
 18 19  1  0  0  0  0
A    1
C1
A    2
C2
A    3
C3
A    4
O3
A    5
C4
A    6
C5
A    7
C6
A    8
C7
A    9
C8
A   10
C9
A   11
C10
A   12
C11
A   13
C12
A   14
C13
A   15
C14
A   16
C15
A   17
C16
A   18
C17
A   19
O17
A   20
C18
A   21
C19
M  END
>  <InstanceId>
1I37_DHT_A_201

>  <ChemCompId>
DHT

>  <PdbId>
1I37

>  <ChainId>
A

>  <ResidueNumber>
201

>  <InsertionCode>


>  <Model>
1

>  <AltIds>


>  <MissingHeavyAtoms>
0

>  <ObservedFormula>
C19 O2

>  <Name>
5-ALPHA-DIHYDROTESTOSTERONE

>  <SystematicName>
(5S,8R,9S,10S,13S,14S,17S)-17-hydroxy-10,13-dimethyl-1,2,4,5,6,7,8,9,11,12,14,15,16,17-tetradecahydrocyclopenta[a]phenanthren-3-one

>  <Synonyms>


>  <Type>
NON-POLYMER

>  <Formula>
C19 H30 O2

>  <MolecularWeight>
290.44

>  <ModifiedDate>
2011-06-04

>  <Parent>


>  <OneLetterCode>


>  <SubcomponentList>


>  <AmbiguousFlag>
N

>  <InChI>
InChI=1S/C19H30O2/c1-18-9-7-13(20)11-12(18)3-4-14-15-5-6-17(21)19(15,2)10-8-16(14)18/h12,14-17,21H,3-11H2,1-2H3/t12-,14-,15-,16-,17-,18-,19-/m0/s1

>  <InChIKey>
NVKAWKQGWWIWPM-ABEVXSGRSA-N

>  <SMILES>
C[C@]12CCC(=O)C[C@@H]1CC[C@@H]3[C@@H]2CC[C@]4([C@H]3CC[C@@H]4O)C

$$$$
