6GFZ_EXE_C_301


 37 39  0  0  0  0  0  0  0  0999 V2000
   12.4305   54.0347   91.9889 C   0  0  0  0  0  0  0  0  0  0  0  0
   11.2636   53.7607   91.7339 O   0  0  0  0  0  0  0  0  0  0  0  0
   13.3359   54.3550   91.0216 N   0  0  0  0  0  0  0  0  0  0  0  0
   14.7825   54.7678   91.1188 C   0  0  0  0  0  0  0  0  0  0  0  0
   15.0658   55.5751   89.8283 C   0  0  0  0  0  0  0  0  0  0  0  0
   14.6484   56.9298   89.9638 O   0  0  0  0  0  0  0  0  0  0  0  0
   14.2273   54.8542   88.8243 C   0  0  0  0  0  0  0  0  0  0  0  0
   14.9680   53.7486   88.4318 F   0  0  0  0  0  0  0  0  0  0  0  0
   12.9383   54.3809   89.5791 C   0  0  0  0  0  0  0  0  0  0  0  0
   13.7075   56.9564   90.1981 H   0  0  0  0  0  0  0  0  0  0  0  0
   12.5981   53.1194   89.1079 C   0  0  0  0  0  0  0  0  0  0  0  0
   13.1120   52.1407   89.6520 O   0  0  0  0  0  0  0  0  0  0  0  0
   11.8405   53.0679   87.9720 N   0  0  0  0  0  0  0  0  0  0  0  0
   11.4919   53.8981   87.5738 H   0  0  0  0  0  0  0  0  0  0  0  0
   11.5451   51.7647   87.3422 C   0  0  0  0  0  0  0  0  0  0  0  0
   12.3158   51.5630   86.1317 C   0  0  0  0  0  0  0  0  0  0  0  0
   12.9674   52.6635   85.5454 C   0  0  0  0  0  0  0  0  0  0  0  0
   13.7207   52.5409   84.3676 C   0  0  0  0  0  0  0  0  0  0  0  0
   12.4409   50.3253   85.4697 C   0  0  0  0  0  0  0  0  0  0  0  0
   13.2105   50.2141   84.2926 C   0  0  0  0  0  0  0  0  0  0  0  0
   13.8782   51.2991   83.7184 C   0  0  0  0  0  0  0  0  0  0  0  0
   14.5821   51.1593   82.5632 C   0  0  0  0  0  0  0  0  0  0  0  0
   14.0264   50.3435   81.1664 S   0  0  0  0  0  0  0  0  0  0  0  0
   15.3412   50.6600   80.2323 C   0  0  0  0  0  0  0  0  0  0  0  0
   16.2062   51.3675   80.9455 N   0  0  0  0  0  0  0  0  0  0  0  0
   15.8018   51.6399   82.2106 C   0  0  0  0  0  0  0  0  0  0  0  0
   16.7325   52.4616   83.1071 C   0  0  0  0  0  0  0  0  0  0  0  0
   12.8543   54.1135   93.4769 C   0  0  0  0  0  0  0  0  0  0  0  0
   10.4061   56.3484   95.4176 C   0  0  0  0  0  0  0  0  0  0  0  0
   11.7516   55.9157   94.7995 C   0  0  0  0  0  0  0  0  0  0  0  0
   12.7481   56.6157   94.9327 O   0  0  0  0  0  0  0  0  0  0  0  0
   11.7183   54.7328   94.1714 N   0  0  0  0  0  0  0  0  0  0  0  0
   10.8658   54.2404   94.1758 H   0  0  0  0  0  0  0  0  0  0  0  0
   13.1627   52.7236   94.0798 C   0  0  0  0  0  0  0  0  0  0  0  0
   13.9955   51.8885   93.0696 C   0  0  0  0  0  0  0  0  0  0  0  0
   11.8944   51.9036   94.4474 C   0  0  0  0  0  0  0  0  0  0  0  0
   13.9453   52.9590   95.3821 C   0  0  0  0  0  0  0  0  0  0  0  0
 25 24  2  0  0  0
 25 26  1  0  0  0
 24 23  1  0  0  0
 27 26  1  0  0  0
 26 22  2  0  0  0
 23 22  1  0  0  0
 22 21  1  0  0  0
 21 18  2  0  0  0
 21 20  1  0  0  0
 18 17  1  0  0  0
 20 19  2  0  0  0
 17 16  2  0  0  0
 19 16  1  0  0  0
 16 15  1  0  0  0
 15 13  1  0  0  0
 13 11  1  0  0  0
  8  7  1  0  0  0
  7  9  1  0  0  0
  7  5  1  0  0  0
 11 12  2  0  0  0
 11  9  1  0  0  0
  9  3  1  0  0  0
  5  6  1  0  0  0
  5  4  1  0  0  0
  3  4  1  0  0  0
  3  1  1  0  0  0
  2  1  2  0  0  0
  1 28  1  0  0  0
 35 34  1  0  0  0
 28 34  1  0  0  0
 28 32  1  0  0  0
 36 34  1  0  0  0
 34 37  1  0  0  0
 32 30  1  0  0  0
 30 31  2  0  0  0
 30 29  1  0  0  0
 32 33  1  0  0  0
  6 10  1  0  0  0
 13 14  1  0  0  0
M  END
> <minimizedAffinity>
-9.21581

$$$$
6GFZ_EXE_C_301


 37 39  0  0  0  0  0  0  0  0999 V2000
   11.3442   50.9272   88.5468 C   0  0  0  0  0  0  0  0  0  0  0  0
   11.4312   50.9992   87.3266 O   0  0  0  0  0  0  0  0  0  0  0  0
   11.4753   52.0164   89.3559 N   0  0  0  0  0  0  0  0  0  0  0  0
   11.3549   52.1571   90.8520 C   0  0  0  0  0  0  0  0  0  0  0  0
   10.9828   53.6401   91.0954 C   0  0  0  0  0  0  0  0  0  0  0  0
    9.5833   53.8540   90.9416 O   0  0  0  0  0  0  0  0  0  0  0  0
   11.7517   54.3311   90.0174 C   0  0  0  0  0  0  0  0  0  0  0  0
   13.0479   54.4591   90.4954 F   0  0  0  0  0  0  0  0  0  0  0  0
   11.7418   53.3712   88.7789 C   0  0  0  0  0  0  0  0  0  0  0  0
    9.3063   53.5601   90.0597 H   0  0  0  0  0  0  0  0  0  0  0  0
   12.9855   53.4425   88.1647 C   0  0  0  0  0  0  0  0  0  0  0  0
   13.9816   53.5325   88.8842 O   0  0  0  0  0  0  0  0  0  0  0  0
   12.9963   53.5670   86.8041 N   0  0  0  0  0  0  0  0  0  0  0  0
   12.1532   53.5189   86.2979 H   0  0  0  0  0  0  0  0  0  0  0  0
   14.2748   53.7740   86.0936 C   0  0  0  0  0  0  0  0  0  0  0  0
   14.3476   52.9937   84.8746 C   0  0  0  0  0  0  0  0  0  0  0  0
   13.2271   52.2413   84.4773 C   0  0  0  0  0  0  0  0  0  0  0  0
   13.2333   51.4553   83.3146 C   0  0  0  0  0  0  0  0  0  0  0  0
   15.4910   52.9099   84.0553 C   0  0  0  0  0  0  0  0  0  0  0  0
   15.4795   52.1248   82.8832 C   0  0  0  0  0  0  0  0  0  0  0  0
   14.3622   51.3933   82.4720 C   0  0  0  0  0  0  0  0  0  0  0  0
   14.4015   50.6201   81.3538 C   0  0  0  0  0  0  0  0  0  0  0  0
   13.3056   49.3574   80.9931 S   0  0  0  0  0  0  0  0  0  0  0  0
   13.9344   48.9817   79.5219 C   0  0  0  0  0  0  0  0  0  0  0  0
   14.9640   49.7826   79.2850 N   0  0  0  0  0  0  0  0  0  0  0  0
   15.2238   50.6718   80.2749 C   0  0  0  0  0  0  0  0  0  0  0  0
   16.3903   51.6457   80.0854 C   0  0  0  0  0  0  0  0  0  0  0  0
   10.9725   49.5602   89.1736 C   0  0  0  0  0  0  0  0  0  0  0  0
    7.4718   48.8459   87.7630 C   0  0  0  0  0  0  0  0  0  0  0  0
    8.5239   49.4379   88.7234 C   0  0  0  0  0  0  0  0  0  0  0  0
    8.1757   50.1211   89.6787 O   0  0  0  0  0  0  0  0  0  0  0  0
    9.7887   49.1037   88.4343 N   0  0  0  0  0  0  0  0  0  0  0  0
    9.9359   48.5054   87.6664 H   0  0  0  0  0  0  0  0  0  0  0  0
   12.1144   48.5244   89.0567 C   0  0  0  0  0  0  0  0  0  0  0  0
   13.3667   49.0385   89.8176 C   0  0  0  0  0  0  0  0  0  0  0  0
   12.5365   48.2184   87.5924 C   0  0  0  0  0  0  0  0  0  0  0  0
   11.5972   47.2104   89.6649 C   0  0  0  0  0  0  0  0  0  0  0  0
 25 24  2  0  0  0
 25 26  1  0  0  0
 24 23  1  0  0  0
 27 26  1  0  0  0
 26 22  2  0  0  0
 23 22  1  0  0  0
 22 21  1  0  0  0
 21 18  2  0  0  0
 21 20  1  0  0  0
 18 17  1  0  0  0
 20 19  2  0  0  0
 17 16  2  0  0  0
 19 16  1  0  0  0
 16 15  1  0  0  0
 15 13  1  0  0  0
 13 11  1  0  0  0
  8  7  1  0  0  0
  7  9  1  0  0  0
  7  5  1  0  0  0
 11 12  2  0  0  0
 11  9  1  0  0  0
  9  3  1  0  0  0
  5  6  1  0  0  0
  5  4  1  0  0  0
  3  4  1  0  0  0
  3  1  1  0  0  0
  2  1  2  0  0  0
  1 28  1  0  0  0
 35 34  1  0  0  0
 28 34  1  0  0  0
 28 32  1  0  0  0
 36 34  1  0  0  0
 34 37  1  0  0  0
 32 30  1  0  0  0
 30 31  2  0  0  0
 30 29  1  0  0  0
 32 33  1  0  0  0
  6 10  1  0  0  0
 13 14  1  0  0  0
M  END
> <minimizedAffinity>
-6.78012

$$$$
6GFZ_EXE_C_301


 37 39  0  0  0  0  0  0  0  0999 V2000
   13.0402   52.4185   92.9452 C   0  0  0  0  0  0  0  0  0  0  0  0
   14.0611   52.7816   92.3727 O   0  0  0  0  0  0  0  0  0  0  0  0
   12.0825   51.6689   92.3297 N   0  0  0  0  0  0  0  0  0  0  0  0
   10.7974   51.0814   92.8548 C   0  0  0  0  0  0  0  0  0  0  0  0
   10.4925   49.8743   91.9344 C   0  0  0  0  0  0  0  0  0  0  0  0
   11.2136   48.7166   92.3440 O   0  0  0  0  0  0  0  0  0  0  0  0
   10.9776   50.3668   90.6105 C   0  0  0  0  0  0  0  0  0  0  0  0
    9.9584   51.1587   90.1011 F   0  0  0  0  0  0  0  0  0  0  0  0
   12.2363   51.2541   90.9001 C   0  0  0  0  0  0  0  0  0  0  0  0
   12.1626   48.9165   92.3623 H   0  0  0  0  0  0  0  0  0  0  0  0
   12.2098   52.3403   90.0348 C   0  0  0  0  0  0  0  0  0  0  0  0
   11.5346   53.3195   90.3561 O   0  0  0  0  0  0  0  0  0  0  0  0
   12.8089   52.1754   88.8179 N   0  0  0  0  0  0  0  0  0  0  0  0
   13.3041   51.3477   88.6203 H   0  0  0  0  0  0  0  0  0  0  0  0
   12.7125   53.2408   87.7992 C   0  0  0  0  0  0  0  0  0  0  0  0
   13.0833   52.7636   86.4820 C   0  0  0  0  0  0  0  0  0  0  0  0
   12.5184   51.5665   86.0052 C   0  0  0  0  0  0  0  0  0  0  0  0
   12.8418   51.0419   84.7443 C   0  0  0  0  0  0  0  0  0  0  0  0
   14.0079   53.4093   85.6372 C   0  0  0  0  0  0  0  0  0  0  0  0
   14.3153   52.8768   84.3675 C   0  0  0  0  0  0  0  0  0  0  0  0
   13.7404   51.7003   83.8797 C   0  0  0  0  0  0  0  0  0  0  0  0
   14.0886   51.1998   82.6640 C   0  0  0  0  0  0  0  0  0  0  0  0
   13.0319   50.3757   81.6012 S   0  0  0  0  0  0  0  0  0  0  0  0
   14.1175   50.1696   80.3845 C   0  0  0  0  0  0  0  0  0  0  0  0
   15.2733   50.7034   80.7541 N   0  0  0  0  0  0  0  0  0  0  0  0
   15.2651   51.2618   81.9895 C   0  0  0  0  0  0  0  0  0  0  0  0
   16.5545   51.9125   82.4984 C   0  0  0  0  0  0  0  0  0  0  0  0
   12.8917   52.7456   94.4522 C   0  0  0  0  0  0  0  0  0  0  0  0
   15.9278   51.4135   96.3918 C   0  0  0  0  0  0  0  0  0  0  0  0
   14.4485   51.5256   95.9692 C   0  0  0  0  0  0  0  0  0  0  0  0
   13.5984   50.8183   96.4962 O   0  0  0  0  0  0  0  0  0  0  0  0
   14.2063   52.4618   95.0420 N   0  0  0  0  0  0  0  0  0  0  0  0
   14.9690   53.0016   94.7319 H   0  0  0  0  0  0  0  0  0  0  0  0
   12.4944   54.2186   94.7026 C   0  0  0  0  0  0  0  0  0  0  0  0
   11.1321   54.5162   94.0193 C   0  0  0  0  0  0  0  0  0  0  0  0
   13.5312   55.2473   94.1709 C   0  0  0  0  0  0  0  0  0  0  0  0
   12.4039   54.4099   96.2256 C   0  0  0  0  0  0  0  0  0  0  0  0
 25 24  2  0  0  0
 25 26  1  0  0  0
 24 23  1  0  0  0
 27 26  1  0  0  0
 26 22  2  0  0  0
 23 22  1  0  0  0
 22 21  1  0  0  0
 21 18  2  0  0  0
 21 20  1  0  0  0
 18 17  1  0  0  0
 20 19  2  0  0  0
 17 16  2  0  0  0
 19 16  1  0  0  0
 16 15  1  0  0  0
 15 13  1  0  0  0
 13 11  1  0  0  0
  8  7  1  0  0  0
  7  9  1  0  0  0
  7  5  1  0  0  0
 11 12  2  0  0  0
 11  9  1  0  0  0
  9  3  1  0  0  0
  5  6  1  0  0  0
  5  4  1  0  0  0
  3  4  1  0  0  0
  3  1  1  0  0  0
  2  1  2  0  0  0
  1 28  1  0  0  0
 35 34  1  0  0  0
 28 34  1  0  0  0
 28 32  1  0  0  0
 36 34  1  0  0  0
 34 37  1  0  0  0
 32 30  1  0  0  0
 30 31  2  0  0  0
 30 29  1  0  0  0
 32 33  1  0  0  0
  6 10  1  0  0  0
 13 14  1  0  0  0
M  END
> <minimizedAffinity>
-6.65238

$$$$
6GFZ_EXE_C_301


 37 39  0  0  0  0  0  0  0  0999 V2000
   11.4766   51.6012   85.4152 C   0  0  0  0  0  0  0  0  0  0  0  0
   12.3573   52.4225   85.1884 O   0  0  0  0  0  0  0  0  0  0  0  0
   10.6340   51.7064   86.4815 N   0  0  0  0  0  0  0  0  0  0  0  0
    9.4691   50.8506   86.9096 C   0  0  0  0  0  0  0  0  0  0  0  0
    8.5690   51.7797   87.7603 C   0  0  0  0  0  0  0  0  0  0  0  0
    7.7147   52.5675   86.9372 O   0  0  0  0  0  0  0  0  0  0  0  0
    9.5783   52.6330   88.4560 C   0  0  0  0  0  0  0  0  0  0  0  0
   10.0273   51.8884   89.5372 F   0  0  0  0  0  0  0  0  0  0  0  0
   10.7538   52.8474   87.4423 C   0  0  0  0  0  0  0  0  0  0  0  0
    8.2504   53.0743   86.3070 H   0  0  0  0  0  0  0  0  0  0  0  0
   11.9486   52.8120   88.1497 C   0  0  0  0  0  0  0  0  0  0  0  0
   12.4763   51.7148   88.3391 O   0  0  0  0  0  0  0  0  0  0  0  0
   12.3650   53.9827   88.7180 N   0  0  0  0  0  0  0  0  0  0  0  0
   11.8703   54.8166   88.5477 H   0  0  0  0  0  0  0  0  0  0  0  0
   13.5585   53.9951   89.5884 C   0  0  0  0  0  0  0  0  0  0  0  0
   13.2075   54.1688   90.9836 C   0  0  0  0  0  0  0  0  0  0  0  0
   14.1609   54.7100   91.8655 C   0  0  0  0  0  0  0  0  0  0  0  0
   13.8911   54.8947   93.2303 C   0  0  0  0  0  0  0  0  0  0  0  0
   11.9653   53.8027   91.5391 C   0  0  0  0  0  0  0  0  0  0  0  0
   11.7036   54.0045   92.9107 C   0  0  0  0  0  0  0  0  0  0  0  0
   12.6388   54.5622   93.7865 C   0  0  0  0  0  0  0  0  0  0  0  0
   12.3615   54.7087   95.1099 C   0  0  0  0  0  0  0  0  0  0  0  0
   12.4149   53.4530   96.2700 S   0  0  0  0  0  0  0  0  0  0  0  0
   12.0500   54.3881   97.5713 C   0  0  0  0  0  0  0  0  0  0  0  0
   11.8800   55.6370   97.1603 N   0  0  0  0  0  0  0  0  0  0  0  0
   12.0455   55.8173   95.8268 C   0  0  0  0  0  0  0  0  0  0  0  0
   11.8782   57.2305   95.2610 C   0  0  0  0  0  0  0  0  0  0  0  0
   11.2592   50.4607   84.3895 C   0  0  0  0  0  0  0  0  0  0  0  0
   10.6896   51.7974   80.8338 C   0  0  0  0  0  0  0  0  0  0  0  0
   10.3964   50.9816   82.1098 C   0  0  0  0  0  0  0  0  0  0  0  0
    9.4053   50.2643   82.1723 O   0  0  0  0  0  0  0  0  0  0  0  0
   11.3198   51.1070   83.0723 N   0  0  0  0  0  0  0  0  0  0  0  0
   12.0996   51.6768   82.8817 H   0  0  0  0  0  0  0  0  0  0  0  0
   12.3333   49.3538   84.4975 C   0  0  0  0  0  0  0  0  0  0  0  0
   11.7896   48.0358   83.8822 C   0  0  0  0  0  0  0  0  0  0  0  0
   12.7797   49.0527   85.9555 C   0  0  0  0  0  0  0  0  0  0  0  0
   13.5730   49.8508   83.7358 C   0  0  0  0  0  0  0  0  0  0  0  0
 25 24  2  0  0  0
 25 26  1  0  0  0
 24 23  1  0  0  0
 27 26  1  0  0  0
 26 22  2  0  0  0
 23 22  1  0  0  0
 22 21  1  0  0  0
 21 18  2  0  0  0
 21 20  1  0  0  0
 18 17  1  0  0  0
 20 19  2  0  0  0
 17 16  2  0  0  0
 19 16  1  0  0  0
 16 15  1  0  0  0
 15 13  1  0  0  0
 13 11  1  0  0  0
  8  7  1  0  0  0
  7  9  1  0  0  0
  7  5  1  0  0  0
 11 12  2  0  0  0
 11  9  1  0  0  0
  9  3  1  0  0  0
  5  6  1  0  0  0
  5  4  1  0  0  0
  3  4  1  0  0  0
  3  1  1  0  0  0
  2  1  2  0  0  0
  1 28  1  0  0  0
 35 34  1  0  0  0
 28 34  1  0  0  0
 28 32  1  0  0  0
 36 34  1  0  0  0
 34 37  1  0  0  0
 32 30  1  0  0  0
 30 31  2  0  0  0
 30 29  1  0  0  0
 32 33  1  0  0  0
  6 10  1  0  0  0
 13 14  1  0  0  0
M  END
> <minimizedAffinity>
-6.57895

$$$$
6GFZ_EXE_C_301


 37 39  0  0  0  0  0  0  0  0999 V2000
   11.8843   50.8256   89.3169 C   0  0  0  0  0  0  0  0  0  0  0  0
   11.9183   50.6220   88.1089 O   0  0  0  0  0  0  0  0  0  0  0  0
   11.8403   52.0806   89.8471 N   0  0  0  0  0  0  0  0  0  0  0  0
   11.7434   52.5470   91.2773 C   0  0  0  0  0  0  0  0  0  0  0  0
   11.1152   53.9603   91.2057 C   0  0  0  0  0  0  0  0  0  0  0  0
    9.6960   53.8912   91.1101 O   0  0  0  0  0  0  0  0  0  0  0  0
   11.7112   54.4983   89.9463 C   0  0  0  0  0  0  0  0  0  0  0  0
   12.9768   54.9534   90.2871 F   0  0  0  0  0  0  0  0  0  0  0  0
   11.8373   53.2865   88.9609 C   0  0  0  0  0  0  0  0  0  0  0  0
    9.4496   53.3553   90.3400 H   0  0  0  0  0  0  0  0  0  0  0  0
   13.0273   53.4213   88.2574 C   0  0  0  0  0  0  0  0  0  0  0  0
   14.0590   53.6247   88.8996 O   0  0  0  0  0  0  0  0  0  0  0  0
   12.9368   53.4756   86.8952 N   0  0  0  0  0  0  0  0  0  0  0  0
   12.0683   53.3367   86.4528 H   0  0  0  0  0  0  0  0  0  0  0  0
   14.1441   53.7432   86.0870 C   0  0  0  0  0  0  0  0  0  0  0  0
   14.1870   52.9235   84.8927 C   0  0  0  0  0  0  0  0  0  0  0  0
   15.3407   52.9491   84.0878 C   0  0  0  0  0  0  0  0  0  0  0  0
   15.4447   52.1891   82.9126 C   0  0  0  0  0  0  0  0  0  0  0  0
   13.1259   52.1064   84.4546 C   0  0  0  0  0  0  0  0  0  0  0  0
   13.2483   51.3389   83.2772 C   0  0  0  0  0  0  0  0  0  0  0  0
   14.4001   51.3434   82.4860 C   0  0  0  0  0  0  0  0  0  0  0  0
   14.4670   50.6163   81.3387 C   0  0  0  0  0  0  0  0  0  0  0  0
   13.3983   49.3502   80.9139 S   0  0  0  0  0  0  0  0  0  0  0  0
   14.0519   49.0444   79.4373 C   0  0  0  0  0  0  0  0  0  0  0  0
   15.0699   49.8718   79.2458 N   0  0  0  0  0  0  0  0  0  0  0  0
   15.3015   50.7251   80.2736 C   0  0  0  0  0  0  0  0  0  0  0  0
   16.4527   51.7259   80.1381 C   0  0  0  0  0  0  0  0  0  0  0  0
   11.7876   49.6019   90.2618 C   0  0  0  0  0  0  0  0  0  0  0  0
   14.3787   49.9812   93.0720 C   0  0  0  0  0  0  0  0  0  0  0  0
   13.7360   49.3873   91.8016 C   0  0  0  0  0  0  0  0  0  0  0  0
   14.2619   48.4433   91.2247 O   0  0  0  0  0  0  0  0  0  0  0  0
   12.5795   49.9619   91.4449 N   0  0  0  0  0  0  0  0  0  0  0  0
   12.2337   50.6816   92.0208 H   0  0  0  0  0  0  0  0  0  0  0  0
   10.3307   49.2784   90.6656 C   0  0  0  0  0  0  0  0  0  0  0  0
    9.3521   50.1603   89.8433 C   0  0  0  0  0  0  0  0  0  0  0  0
   10.0313   49.5095   92.1732 C   0  0  0  0  0  0  0  0  0  0  0  0
   10.1034   47.7847   90.3805 C   0  0  0  0  0  0  0  0  0  0  0  0
 25 24  2  0  0  0
 25 26  1  0  0  0
 24 23  1  0  0  0
 27 26  1  0  0  0
 26 22  2  0  0  0
 23 22  1  0  0  0
 22 21  1  0  0  0
 21 18  2  0  0  0
 21 20  1  0  0  0
 18 17  1  0  0  0
 20 19  2  0  0  0
 17 16  2  0  0  0
 19 16  1  0  0  0
 16 15  1  0  0  0
 15 13  1  0  0  0
 13 11  1  0  0  0
  8  7  1  0  0  0
  7  9  1  0  0  0
  7  5  1  0  0  0
 11 12  2  0  0  0
 11  9  1  0  0  0
  9  3  1  0  0  0
  5  6  1  0  0  0
  5  4  1  0  0  0
  3  4  1  0  0  0
  3  1  1  0  0  0
  2  1  2  0  0  0
  1 28  1  0  0  0
 35 34  1  0  0  0
 28 34  1  0  0  0
 28 32  1  0  0  0
 36 34  1  0  0  0
 34 37  1  0  0  0
 32 30  1  0  0  0
 30 31  2  0  0  0
 30 29  1  0  0  0
 32 33  1  0  0  0
  6 10  1  0  0  0
 13 14  1  0  0  0
M  END
> <minimizedAffinity>
-6.52427

$$$$
6GFZ_EXE_C_301


 37 39  0  0  0  0  0  0  0  0999 V2000
   11.4714   52.7142   92.0069 C   0  0  0  0  0  0  0  0  0  0  0  0
   11.4373   51.5312   92.3248 O   0  0  0  0  0  0  0  0  0  0  0  0
   11.0861   53.1530   90.7752 N   0  0  0  0  0  0  0  0  0  0  0  0
   11.0011   54.5452   90.2034 C   0  0  0  0  0  0  0  0  0  0  0  0
    9.9499   54.4592   89.0698 C   0  0  0  0  0  0  0  0  0  0  0  0
    8.6259   54.5665   89.5832 O   0  0  0  0  0  0  0  0  0  0  0  0
   10.2019   53.0936   88.5199 C   0  0  0  0  0  0  0  0  0  0  0  0
   11.2846   53.2217   87.6616 F   0  0  0  0  0  0  0  0  0  0  0  0
   10.6012   52.1907   89.7367 C   0  0  0  0  0  0  0  0  0  0  0  0
    8.4818   53.8790   90.2521 H   0  0  0  0  0  0  0  0  0  0  0  0
   11.6017   51.3212   89.3220 C   0  0  0  0  0  0  0  0  0  0  0  0
   12.7728   51.6575   89.5047 O   0  0  0  0  0  0  0  0  0  0  0  0
   11.2108   50.2296   88.5991 N   0  0  0  0  0  0  0  0  0  0  0  0
   10.2533   50.0437   88.4657 H   0  0  0  0  0  0  0  0  0  0  0  0
   12.2271   49.3286   88.0181 C   0  0  0  0  0  0  0  0  0  0  0  0
   12.4572   49.6077   86.6148 C   0  0  0  0  0  0  0  0  0  0  0  0
   12.8631   48.5603   85.7677 C   0  0  0  0  0  0  0  0  0  0  0  0
   13.1139   48.7631   84.4018 C   0  0  0  0  0  0  0  0  0  0  0  0
   12.3279   50.8830   86.0296 C   0  0  0  0  0  0  0  0  0  0  0  0
   12.5722   51.0704   84.6528 C   0  0  0  0  0  0  0  0  0  0  0  0
   12.9539   50.0294   83.8023 C   0  0  0  0  0  0  0  0  0  0  0  0
   13.2143   50.2566   82.4870 C   0  0  0  0  0  0  0  0  0  0  0  0
   12.1261   49.9523   81.2029 S   0  0  0  0  0  0  0  0  0  0  0  0
   13.0919   50.5250   80.0028 C   0  0  0  0  0  0  0  0  0  0  0  0
   14.2304   50.9421   80.5388 N   0  0  0  0  0  0  0  0  0  0  0  0
   14.3040   50.7975   81.8848 C   0  0  0  0  0  0  0  0  0  0  0  0
   15.5796   51.2615   82.5940 C   0  0  0  0  0  0  0  0  0  0  0  0
   11.8745   53.7497   93.0863 C   0  0  0  0  0  0  0  0  0  0  0  0
    9.4580   53.5338   96.0643 C   0  0  0  0  0  0  0  0  0  0  0  0
   10.1532   54.1653   94.8406 C   0  0  0  0  0  0  0  0  0  0  0  0
    9.8599   55.2980   94.4776 O   0  0  0  0  0  0  0  0  0  0  0  0
   11.0920   53.3935   94.2768 N   0  0  0  0  0  0  0  0  0  0  0  0
   11.2712   52.5195   94.6930 H   0  0  0  0  0  0  0  0  0  0  0  0
   13.3871   53.7156   93.4047 C   0  0  0  0  0  0  0  0  0  0  0  0
   14.2001   53.7130   92.0816 C   0  0  0  0  0  0  0  0  0  0  0  0
   13.8253   52.4788   94.2379 C   0  0  0  0  0  0  0  0  0  0  0  0
   13.7006   54.9644   94.2451 C   0  0  0  0  0  0  0  0  0  0  0  0
 25 24  2  0  0  0
 25 26  1  0  0  0
 24 23  1  0  0  0
 27 26  1  0  0  0
 26 22  2  0  0  0
 23 22  1  0  0  0
 22 21  1  0  0  0
 21 18  2  0  0  0
 21 20  1  0  0  0
 18 17  1  0  0  0
 20 19  2  0  0  0
 17 16  2  0  0  0
 19 16  1  0  0  0
 16 15  1  0  0  0
 15 13  1  0  0  0
 13 11  1  0  0  0
  8  7  1  0  0  0
  7  9  1  0  0  0
  7  5  1  0  0  0
 11 12  2  0  0  0
 11  9  1  0  0  0
  9  3  1  0  0  0
  5  6  1  0  0  0
  5  4  1  0  0  0
  3  4  1  0  0  0
  3  1  1  0  0  0
  2  1  2  0  0  0
  1 28  1  0  0  0
 35 34  1  0  0  0
 28 34  1  0  0  0
 28 32  1  0  0  0
 36 34  1  0  0  0
 34 37  1  0  0  0
 32 30  1  0  0  0
 30 31  2  0  0  0
 30 29  1  0  0  0
 32 33  1  0  0  0
  6 10  1  0  0  0
 13 14  1  0  0  0
M  END
> <minimizedAffinity>
-6.36398

$$$$
6GFZ_EXE_C_301


 37 39  0  0  0  0  0  0  0  0999 V2000
   11.2900   53.3134   89.7665 C   0  0  0  0  0  0  0  0  0  0  0  0
   10.8844   54.2815   89.1339 O   0  0  0  0  0  0  0  0  0  0  0  0
   12.3721   53.3796   90.5928 N   0  0  0  0  0  0  0  0  0  0  0  0
   12.9978   52.3405   91.4878 C   0  0  0  0  0  0  0  0  0  0  0  0
   13.7387   53.1396   92.5877 C   0  0  0  0  0  0  0  0  0  0  0  0
   12.8502   53.5318   93.6291 O   0  0  0  0  0  0  0  0  0  0  0  0
   14.2296   54.3274   91.8269 C   0  0  0  0  0  0  0  0  0  0  0  0
   15.3887   53.9166   91.1843 F   0  0  0  0  0  0  0  0  0  0  0  0
   13.1291   54.6594   90.7620 C   0  0  0  0  0  0  0  0  0  0  0  0
   12.1173   54.0439   93.2530 H   0  0  0  0  0  0  0  0  0  0  0  0
   13.7634   55.0505   89.5899 C   0  0  0  0  0  0  0  0  0  0  0  0
   14.2262   56.1911   89.5355 O   0  0  0  0  0  0  0  0  0  0  0  0
   13.6855   54.1924   88.5294 N   0  0  0  0  0  0  0  0  0  0  0  0
   13.2690   53.3074   88.6410 H   0  0  0  0  0  0  0  0  0  0  0  0
   14.2272   54.5947   87.2153 C   0  0  0  0  0  0  0  0  0  0  0  0
   13.9608   53.6013   86.1944 C   0  0  0  0  0  0  0  0  0  0  0  0
   14.8029   53.5355   85.0692 C   0  0  0  0  0  0  0  0  0  0  0  0
   14.5957   52.6057   84.0385 C   0  0  0  0  0  0  0  0  0  0  0  0
   12.8820   52.6955   86.2332 C   0  0  0  0  0  0  0  0  0  0  0  0
   12.6922   51.7586   85.1957 C   0  0  0  0  0  0  0  0  0  0  0  0
   13.5384   51.6739   84.0869 C   0  0  0  0  0  0  0  0  0  0  0  0
   13.3021   50.7800   83.0897 C   0  0  0  0  0  0  0  0  0  0  0  0
   11.8356   49.9307   82.8583 S   0  0  0  0  0  0  0  0  0  0  0  0
   12.2880   49.1522   81.4833 C   0  0  0  0  0  0  0  0  0  0  0  0
   13.5295   49.5084   81.1846 N   0  0  0  0  0  0  0  0  0  0  0  0
   14.0858   50.3890   82.0524 C   0  0  0  0  0  0  0  0  0  0  0  0
   15.5159   50.8659   81.7828 C   0  0  0  0  0  0  0  0  0  0  0  0
   10.4746   51.9983   89.6924 C   0  0  0  0  0  0  0  0  0  0  0  0
   12.8136   49.0142   89.0772 C   0  0  0  0  0  0  0  0  0  0  0  0
   11.6798   50.0168   88.7791 C   0  0  0  0  0  0  0  0  0  0  0  0
   11.0295   49.9270   87.7448 O   0  0  0  0  0  0  0  0  0  0  0  0
   11.4709   50.9208   89.7455 N   0  0  0  0  0  0  0  0  0  0  0  0
   12.0288   50.8579   90.5542 H   0  0  0  0  0  0  0  0  0  0  0  0
    9.4668   51.8594   90.8567 C   0  0  0  0  0  0  0  0  0  0  0  0
    8.0698   51.4776   90.2964 C   0  0  0  0  0  0  0  0  0  0  0  0
    9.3053   53.1521   91.7045 C   0  0  0  0  0  0  0  0  0  0  0  0
   10.0059   50.7657   91.7934 C   0  0  0  0  0  0  0  0  0  0  0  0
 25 24  2  0  0  0
 25 26  1  0  0  0
 24 23  1  0  0  0
 27 26  1  0  0  0
 26 22  2  0  0  0
 23 22  1  0  0  0
 22 21  1  0  0  0
 21 18  2  0  0  0
 21 20  1  0  0  0
 18 17  1  0  0  0
 20 19  2  0  0  0
 17 16  2  0  0  0
 19 16  1  0  0  0
 16 15  1  0  0  0
 15 13  1  0  0  0
 13 11  1  0  0  0
  8  7  1  0  0  0
  7  9  1  0  0  0
  7  5  1  0  0  0
 11 12  2  0  0  0
 11  9  1  0  0  0
  9  3  1  0  0  0
  5  6  1  0  0  0
  5  4  1  0  0  0
  3  4  1  0  0  0
  3  1  1  0  0  0
  2  1  2  0  0  0
  1 28  1  0  0  0
 35 34  1  0  0  0
 28 34  1  0  0  0
 28 32  1  0  0  0
 36 34  1  0  0  0
 34 37  1  0  0  0
 32 30  1  0  0  0
 30 31  2  0  0  0
 30 29  1  0  0  0
 32 33  1  0  0  0
  6 10  1  0  0  0
 13 14  1  0  0  0
M  END
> <minimizedAffinity>
-6.33836

$$$$
6GFZ_EXE_C_301


 37 39  0  0  0  0  0  0  0  0999 V2000
   11.5308   53.1695   89.3925 C   0  0  0  0  0  0  0  0  0  0  0  0
   11.1380   53.8963   88.4874 O   0  0  0  0  0  0  0  0  0  0  0  0
   12.5798   53.5028   90.1966 N   0  0  0  0  0  0  0  0  0  0  0  0
   13.1834   52.7912   91.3805 C   0  0  0  0  0  0  0  0  0  0  0  0
   13.8721   53.8977   92.2163 C   0  0  0  0  0  0  0  0  0  0  0  0
   12.9399   54.5613   93.0639 O   0  0  0  0  0  0  0  0  0  0  0  0
   14.3773   54.8167   91.1528 C   0  0  0  0  0  0  0  0  0  0  0  0
   15.5649   54.2601   90.7001 F   0  0  0  0  0  0  0  0  0  0  0  0
   13.3143   54.7920   90.0019 C   0  0  0  0  0  0  0  0  0  0  0  0
   12.2157   54.9216   92.5285 H   0  0  0  0  0  0  0  0  0  0  0  0
   13.9881   54.8316   88.7880 C   0  0  0  0  0  0  0  0  0  0  0  0
   14.6787   55.8218   88.5417 O   0  0  0  0  0  0  0  0  0  0  0  0
   13.7060   53.8391   87.8923 N   0  0  0  0  0  0  0  0  0  0  0  0
   13.1157   53.0949   88.1508 H   0  0  0  0  0  0  0  0  0  0  0  0
   14.2882   53.8844   86.5353 C   0  0  0  0  0  0  0  0  0  0  0  0
   13.4604   53.1906   85.5691 C   0  0  0  0  0  0  0  0  0  0  0  0
   12.0922   53.5086   85.4886 C   0  0  0  0  0  0  0  0  0  0  0  0
   11.2317   52.8679   84.5839 C   0  0  0  0  0  0  0  0  0  0  0  0
   13.9288   52.1808   84.7052 C   0  0  0  0  0  0  0  0  0  0  0  0
   13.0551   51.5529   83.7928 C   0  0  0  0  0  0  0  0  0  0  0  0
   11.7003   51.8804   83.6930 C   0  0  0  0  0  0  0  0  0  0  0  0
   10.8820   51.2279   82.8246 C   0  0  0  0  0  0  0  0  0  0  0  0
   10.6740   51.6341   81.1762 S   0  0  0  0  0  0  0  0  0  0  0  0
    9.6472   50.4040   80.8109 C   0  0  0  0  0  0  0  0  0  0  0  0
    9.4438   49.6838   81.9052 N   0  0  0  0  0  0  0  0  0  0  0  0
   10.1087   50.1262   83.0008 C   0  0  0  0  0  0  0  0  0  0  0  0
    9.9425   49.3505   84.3108 C   0  0  0  0  0  0  0  0  0  0  0  0
   10.7348   51.8735   89.6867 C   0  0  0  0  0  0  0  0  0  0  0  0
    7.4592   53.1360   91.2458 C   0  0  0  0  0  0  0  0  0  0  0  0
    8.9309   52.6754   91.2086 C   0  0  0  0  0  0  0  0  0  0  0  0
    9.5900   52.6234   92.2399 O   0  0  0  0  0  0  0  0  0  0  0  0
    9.3695   52.3183   89.9941 N   0  0  0  0  0  0  0  0  0  0  0  0
    8.7263   52.3571   89.2497 H   0  0  0  0  0  0  0  0  0  0  0  0
   10.7272   50.8974   88.4876 C   0  0  0  0  0  0  0  0  0  0  0  0
   10.3114   49.4809   88.9690 C   0  0  0  0  0  0  0  0  0  0  0  0
   12.1004   50.7748   87.7697 C   0  0  0  0  0  0  0  0  0  0  0  0
    9.7250   51.4501   87.4608 C   0  0  0  0  0  0  0  0  0  0  0  0
 25 24  2  0  0  0
 25 26  1  0  0  0
 24 23  1  0  0  0
 27 26  1  0  0  0
 26 22  2  0  0  0
 23 22  1  0  0  0
 22 21  1  0  0  0
 21 18  2  0  0  0
 21 20  1  0  0  0
 18 17  1  0  0  0
 20 19  2  0  0  0
 17 16  2  0  0  0
 19 16  1  0  0  0
 16 15  1  0  0  0
 15 13  1  0  0  0
 13 11  1  0  0  0
  8  7  1  0  0  0
  7  9  1  0  0  0
  7  5  1  0  0  0
 11 12  2  0  0  0
 11  9  1  0  0  0
  9  3  1  0  0  0
  5  6  1  0  0  0
  5  4  1  0  0  0
  3  4  1  0  0  0
  3  1  1  0  0  0
  2  1  2  0  0  0
  1 28  1  0  0  0
 35 34  1  0  0  0
 28 34  1  0  0  0
 28 32  1  0  0  0
 36 34  1  0  0  0
 34 37  1  0  0  0
 32 30  1  0  0  0
 30 31  2  0  0  0
 30 29  1  0  0  0
 32 33  1  0  0  0
  6 10  1  0  0  0
 13 14  1  0  0  0
M  END
> <minimizedAffinity>
-6.25195

$$$$
6GFZ_EXE_C_301


 37 39  0  0  0  0  0  0  0  0999 V2000
   11.7216   50.4442   89.6055 C   0  0  0  0  0  0  0  0  0  0  0  0
   12.0563   50.0611   88.4907 O   0  0  0  0  0  0  0  0  0  0  0  0
   11.3535   51.7323   89.8575 N   0  0  0  0  0  0  0  0  0  0  0  0
   10.8653   52.3920   91.1219 C   0  0  0  0  0  0  0  0  0  0  0  0
   10.0434   53.6177   90.6537 C   0  0  0  0  0  0  0  0  0  0  0  0
    8.7125   53.2465   90.3087 O   0  0  0  0  0  0  0  0  0  0  0  0
   10.8066   54.0571   89.4473 C   0  0  0  0  0  0  0  0  0  0  0  0
   11.8715   54.8090   89.9225 F   0  0  0  0  0  0  0  0  0  0  0  0
   11.3475   52.7546   88.7645 C   0  0  0  0  0  0  0  0  0  0  0  0
    8.7356   52.5555   89.6284 H   0  0  0  0  0  0  0  0  0  0  0  0
   12.6248   53.0145   88.2848 C   0  0  0  0  0  0  0  0  0  0  0  0
   13.5400   53.1183   89.1032 O   0  0  0  0  0  0  0  0  0  0  0  0
   12.7394   53.2924   86.9520 N   0  0  0  0  0  0  0  0  0  0  0  0
   11.9530   53.2206   86.3640 H   0  0  0  0  0  0  0  0  0  0  0  0
   14.0450   53.7008   86.3944 C   0  0  0  0  0  0  0  0  0  0  0  0
   14.3055   53.0733   85.1144 C   0  0  0  0  0  0  0  0  0  0  0  0
   13.3511   52.1881   84.5807 C   0  0  0  0  0  0  0  0  0  0  0  0
   13.5446   51.5379   83.3521 C   0  0  0  0  0  0  0  0  0  0  0  0
   15.4811   53.2675   84.3621 C   0  0  0  0  0  0  0  0  0  0  0  0
   15.6576   52.6162   83.1231 C   0  0  0  0  0  0  0  0  0  0  0  0
   14.7032   51.7535   82.5778 C   0  0  0  0  0  0  0  0  0  0  0  0
   14.9251   51.1170   81.3966 C   0  0  0  0  0  0  0  0  0  0  0  0
   16.2466   51.4153   80.3526 S   0  0  0  0  0  0  0  0  0  0  0  0
   15.8693   50.2630   79.2431 C   0  0  0  0  0  0  0  0  0  0  0  0
   14.7597   49.6498   79.6308 N   0  0  0  0  0  0  0  0  0  0  0  0
   14.2416   50.1093   80.7964 C   0  0  0  0  0  0  0  0  0  0  0  0
   12.9641   49.4538   81.3289 C   0  0  0  0  0  0  0  0  0  0  0  0
   11.6217   49.3938   90.7398 C   0  0  0  0  0  0  0  0  0  0  0  0
    9.5021   46.4468   89.4842 C   0  0  0  0  0  0  0  0  0  0  0  0
    9.8362   47.7100   90.3040 C   0  0  0  0  0  0  0  0  0  0  0  0
    9.0165   48.1754   91.0864 O   0  0  0  0  0  0  0  0  0  0  0  0
   11.0714   48.1892   90.1054 N   0  0  0  0  0  0  0  0  0  0  0  0
   11.6558   47.6952   89.4859 H   0  0  0  0  0  0  0  0  0  0  0  0
   12.9926   49.0858   91.3848 C   0  0  0  0  0  0  0  0  0  0  0  0
   12.8074   48.0760   92.5498 C   0  0  0  0  0  0  0  0  0  0  0  0
   13.7165   50.3401   91.9495 C   0  0  0  0  0  0  0  0  0  0  0  0
   13.8902   48.5009   90.2819 C   0  0  0  0  0  0  0  0  0  0  0  0
 25 24  2  0  0  0
 25 26  1  0  0  0
 24 23  1  0  0  0
 27 26  1  0  0  0
 26 22  2  0  0  0
 23 22  1  0  0  0
 22 21  1  0  0  0
 21 18  2  0  0  0
 21 20  1  0  0  0
 18 17  1  0  0  0
 20 19  2  0  0  0
 17 16  2  0  0  0
 19 16  1  0  0  0
 16 15  1  0  0  0
 15 13  1  0  0  0
 13 11  1  0  0  0
  8  7  1  0  0  0
  7  9  1  0  0  0
  7  5  1  0  0  0
 11 12  2  0  0  0
 11  9  1  0  0  0
  9  3  1  0  0  0
  5  6  1  0  0  0
  5  4  1  0  0  0
  3  4  1  0  0  0
  3  1  1  0  0  0
  2  1  2  0  0  0
  1 28  1  0  0  0
 35 34  1  0  0  0
 28 34  1  0  0  0
 28 32  1  0  0  0
 36 34  1  0  0  0
 34 37  1  0  0  0
 32 30  1  0  0  0
 30 31  2  0  0  0
 30 29  1  0  0  0
 32 33  1  0  0  0
  6 10  1  0  0  0
 13 14  1  0  0  0
M  END
> <minimizedAffinity>
-6.25122

$$$$
