4JYM_KKN_A_301


 11 12  0  0  0  0  0  0  0  0999 V2000
   84.0140  -54.2808  -24.7633 O   0  0  0  0  0  0  0  0  0  0  0  0
   84.9346  -53.2042  -24.9991 C   0  0  0  0  0  0  0  0  0  0  0  0
   86.0488  -53.4338  -25.9844 C   0  0  0  0  0  0  0  0  0  0  0  0
   86.1830  -54.6713  -26.6554 C   0  0  0  0  0  0  0  0  0  0  0  0
   85.2568  -55.7567  -26.4201 C   0  0  0  0  0  0  0  0  0  0  0  0
   84.1609  -55.5374  -25.4548 C   0  0  0  0  0  0  0  0  0  0  0  0
   87.3235  -54.6225  -27.5362 C   0  0  0  0  0  0  0  0  0  0  0  0
   87.8798  -53.2845  -27.3672 C   0  0  0  0  0  0  0  0  0  0  0  0
   88.8575  -52.8227  -27.9316 O   0  0  0  0  0  0  0  0  0  0  0  0
   87.0799  -52.4923  -26.3712 O   0  0  0  0  0  0  0  0  0  0  0  0
   87.8229  -55.7124  -28.4295 C   0  0  0  0  0  0  0  0  0  0  0  0
  6  1  1  0  0  0
  6  5  2  0  0  0
  1  2  1  0  0  0
  5  4  1  0  0  0
  2  3  2  0  0  0
  4  3  1  0  0  0
  4  7  2  0  0  0
  3 10  1  0  0  0
  7 11  1  0  0  0
  7  8  1  0  0  0
 10  8  1  0  0  0
  8  9  2  0  0  0
M  END
> <minimizedAffinity>
-6.96616

$$$$
4JYM_KKN_A_301


 11 12  0  0  0  0  0  0  0  0999 V2000
   83.9209  -54.5087  -24.7204 O   0  0  0  0  0  0  0  0  0  0  0  0
   84.4680  -55.5242  -25.5757 C   0  0  0  0  0  0  0  0  0  0  0  0
   85.6741  -55.1722  -26.4041 C   0  0  0  0  0  0  0  0  0  0  0  0
   86.2485  -53.8816  -26.3409 C   0  0  0  0  0  0  0  0  0  0  0  0
   85.6997  -52.8574  -25.4799 C   0  0  0  0  0  0  0  0  0  0  0  0
   84.5167  -53.1969  -24.6639 C   0  0  0  0  0  0  0  0  0  0  0  0
   87.3842  -53.8138  -27.2268 C   0  0  0  0  0  0  0  0  0  0  0  0
   87.4731  -55.1366  -27.8356 C   0  0  0  0  0  0  0  0  0  0  0  0
   88.2987  -55.5117  -28.6514 O   0  0  0  0  0  0  0  0  0  0  0  0
   86.3826  -56.0368  -27.3259 O   0  0  0  0  0  0  0  0  0  0  0  0
   88.2758  -52.6377  -27.4648 C   0  0  0  0  0  0  0  0  0  0  0  0
  6  1  1  0  0  0
  6  5  2  0  0  0
  1  2  1  0  0  0
  5  4  1  0  0  0
  2  3  2  0  0  0
  4  3  1  0  0  0
  4  7  2  0  0  0
  3 10  1  0  0  0
  7 11  1  0  0  0
  7  8  1  0  0  0
 10  8  1  0  0  0
  8  9  2  0  0  0
M  END
> <minimizedAffinity>
-6.69646

$$$$
4JYM_KKN_A_301


 11 12  0  0  0  0  0  0  0  0999 V2000
   86.2927  -54.7829  -26.9712 O   0  0  0  0  0  0  0  0  0  0  0  0
   85.2562  -55.5171  -26.3013 C   0  0  0  0  0  0  0  0  0  0  0  0
   84.6474  -54.9083  -25.0670 C   0  0  0  0  0  0  0  0  0  0  0  0
   85.0840  -53.6531  -24.5838 C   0  0  0  0  0  0  0  0  0  0  0  0
   86.1272  -52.9115  -25.2571 C   0  0  0  0  0  0  0  0  0  0  0  0
   86.7281  -53.5033  -26.4693 C   0  0  0  0  0  0  0  0  0  0  0  0
   84.3400  -53.3058  -23.3986 C   0  0  0  0  0  0  0  0  0  0  0  0
   83.4223  -54.4194  -23.1836 C   0  0  0  0  0  0  0  0  0  0  0  0
   82.6068  -54.5312  -22.2835 O   0  0  0  0  0  0  0  0  0  0  0  0
   83.5965  -55.4709  -24.2435 O   0  0  0  0  0  0  0  0  0  0  0  0
   84.4824  -52.0680  -22.5724 C   0  0  0  0  0  0  0  0  0  0  0  0
  6  1  1  0  0  0
  6  5  2  0  0  0
  1  2  1  0  0  0
  5  4  1  0  0  0
  2  3  2  0  0  0
  4  3  1  0  0  0
  4  7  2  0  0  0
  3 10  1  0  0  0
  7 11  1  0  0  0
  7  8  1  0  0  0
 10  8  1  0  0  0
  8  9  2  0  0  0
M  END
> <minimizedAffinity>
-6.64762

$$$$
4JYM_KKN_A_301


 11 12  0  0  0  0  0  0  0  0999 V2000
   88.4058  -54.4450  -28.2448 O   0  0  0  0  0  0  0  0  0  0  0  0
   87.3772  -55.4042  -27.9551 C   0  0  0  0  0  0  0  0  0  0  0  0
   86.3245  -55.0252  -26.9485 C   0  0  0  0  0  0  0  0  0  0  0  0
   86.3498  -53.7641  -26.3093 C   0  0  0  0  0  0  0  0  0  0  0  0
   87.3843  -52.7962  -26.5999 C   0  0  0  0  0  0  0  0  0  0  0  0
   88.4198  -53.1619  -27.5873 C   0  0  0  0  0  0  0  0  0  0  0  0
   85.2352  -53.6602  -25.4005 C   0  0  0  0  0  0  0  0  0  0  0  0
   84.5254  -54.9292  -25.5199 C   0  0  0  0  0  0  0  0  0  0  0  0
   83.5162  -55.2614  -24.9207 O   0  0  0  0  0  0  0  0  0  0  0  0
   85.2040  -55.8328  -26.5110 O   0  0  0  0  0  0  0  0  0  0  0  0
   84.8866  -52.4981  -24.5269 C   0  0  0  0  0  0  0  0  0  0  0  0
  6  1  1  0  0  0
  6  5  2  0  0  0
  1  2  1  0  0  0
  5  4  1  0  0  0
  2  3  2  0  0  0
  4  3  1  0  0  0
  4  7  2  0  0  0
  3 10  1  0  0  0
  7 11  1  0  0  0
  7  8  1  0  0  0
 10  8  1  0  0  0
  8  9  2  0  0  0
M  END
> <minimizedAffinity>
-6.60772

$$$$
4JYM_KKN_A_301


 11 12  0  0  0  0  0  0  0  0999 V2000
   88.6043  -53.7435  -27.9827 O   0  0  0  0  0  0  0  0  0  0  0  0
   88.0195  -52.8082  -27.0633 C   0  0  0  0  0  0  0  0  0  0  0  0
   86.7647  -53.2209  -26.3421 C   0  0  0  0  0  0  0  0  0  0  0  0
   86.1818  -54.4899  -26.5646 C   0  0  0  0  0  0  0  0  0  0  0  0
   86.7693  -55.4338  -27.4894 C   0  0  0  0  0  0  0  0  0  0  0  0
   88.0010  -55.0349  -28.1997 C   0  0  0  0  0  0  0  0  0  0  0  0
   84.9983  -54.6274  -25.7523 C   0  0  0  0  0  0  0  0  0  0  0  0
   84.8900  -53.3707  -25.0192 C   0  0  0  0  0  0  0  0  0  0  0  0
   84.0252  -53.0661  -24.2148 O   0  0  0  0  0  0  0  0  0  0  0  0
   86.0151  -52.4409  -25.3783 O   0  0  0  0  0  0  0  0  0  0  0  0
   84.0836  -55.8077  -25.6806 C   0  0  0  0  0  0  0  0  0  0  0  0
  6  1  1  0  0  0
  6  5  2  0  0  0
  1  2  1  0  0  0
  5  4  1  0  0  0
  2  3  2  0  0  0
  4  3  1  0  0  0
  4  7  2  0  0  0
  3 10  1  0  0  0
  7 11  1  0  0  0
  7  8  1  0  0  0
 10  8  1  0  0  0
  8  9  2  0  0  0
M  END
> <minimizedAffinity>
-6.15155

$$$$
4JYM_KKN_A_301


 11 12  0  0  0  0  0  0  0  0999 V2000
   87.4801  -53.3474  -27.7521 O   0  0  0  0  0  0  0  0  0  0  0  0
   86.8471  -52.5820  -26.7151 C   0  0  0  0  0  0  0  0  0  0  0  0
   85.8847  -53.2934  -25.8026 C   0  0  0  0  0  0  0  0  0  0  0  0
   85.6138  -54.6720  -25.9634 C   0  0  0  0  0  0  0  0  0  0  0  0
   86.2506  -55.4451  -27.0066 C   0  0  0  0  0  0  0  0  0  0  0  0
   87.1965  -54.7528  -27.9048 C   0  0  0  0  0  0  0  0  0  0  0  0
   84.6653  -55.0981  -24.9645 C   0  0  0  0  0  0  0  0  0  0  0  0
   84.3713  -53.9022  -24.1822 C   0  0  0  0  0  0  0  0  0  0  0  0
   83.6121  -53.8194  -23.2311 O   0  0  0  0  0  0  0  0  0  0  0  0
   85.1422  -52.7197  -24.6986 O   0  0  0  0  0  0  0  0  0  0  0  0
   84.1078  -56.4723  -24.7755 C   0  0  0  0  0  0  0  0  0  0  0  0
  6  1  1  0  0  0
  6  5  2  0  0  0
  1  2  1  0  0  0
  5  4  1  0  0  0
  2  3  2  0  0  0
  4  3  1  0  0  0
  4  7  2  0  0  0
  3 10  1  0  0  0
  7 11  1  0  0  0
  7  8  1  0  0  0
 10  8  1  0  0  0
  8  9  2  0  0  0
M  END
> <minimizedAffinity>
-5.86150

$$$$
4JYM_KKN_A_301


 11 12  0  0  0  0  0  0  0  0999 V2000
   83.5557  -53.7610  -22.6564 O   0  0  0  0  0  0  0  0  0  0  0  0
   83.6995  -54.8944  -23.5264 C   0  0  0  0  0  0  0  0  0  0  0  0
   84.6252  -54.7635  -24.7058 C   0  0  0  0  0  0  0  0  0  0  0  0
   85.3296  -53.5614  -24.9477 C   0  0  0  0  0  0  0  0  0  0  0  0
   85.1869  -52.4189  -24.0726 C   0  0  0  0  0  0  0  0  0  0  0  0
   84.2806  -52.5414  -22.9131 C   0  0  0  0  0  0  0  0  0  0  0  0
   86.1398  -53.7057  -26.1317 C   0  0  0  0  0  0  0  0  0  0  0  0
   85.8921  -55.0647  -26.6008 C   0  0  0  0  0  0  0  0  0  0  0  0
   86.3819  -55.6002  -27.5812 O   0  0  0  0  0  0  0  0  0  0  0  0
   84.9179  -55.7738  -25.7022 O   0  0  0  0  0  0  0  0  0  0  0  0
   87.0395  -52.6793  -26.7417 C   0  0  0  0  0  0  0  0  0  0  0  0
  6  1  1  0  0  0
  6  5  2  0  0  0
  1  2  1  0  0  0
  5  4  1  0  0  0
  2  3  2  0  0  0
  4  3  1  0  0  0
  4  7  2  0  0  0
  3 10  1  0  0  0
  7 11  1  0  0  0
  7  8  1  0  0  0
 10  8  1  0  0  0
  8  9  2  0  0  0
M  END
> <minimizedAffinity>
-5.67370

$$$$
4JYM_KKN_A_301


 11 12  0  0  0  0  0  0  0  0999 V2000
   83.7309  -51.7192  -22.8714 O   0  0  0  0  0  0  0  0  0  0  0  0
   83.4456  -53.0634  -22.4544 C   0  0  0  0  0  0  0  0  0  0  0  0
   83.8419  -54.1854  -23.3758 C   0  0  0  0  0  0  0  0  0  0  0  0
   84.4748  -53.9218  -24.6126 C   0  0  0  0  0  0  0  0  0  0  0  0
   84.7638  -52.5690  -25.0344 C   0  0  0  0  0  0  0  0  0  0  0  0
   84.3780  -51.4637  -24.1343 C   0  0  0  0  0  0  0  0  0  0  0  0
   84.7448  -55.1646  -25.2921 C   0  0  0  0  0  0  0  0  0  0  0  0
   84.2419  -56.2044  -24.4008 C   0  0  0  0  0  0  0  0  0  0  0  0
   84.2712  -57.4086  -24.5927 O   0  0  0  0  0  0  0  0  0  0  0  0
   83.6520  -55.6047  -23.1551 O   0  0  0  0  0  0  0  0  0  0  0  0
   85.4008  -55.3427  -26.6237 C   0  0  0  0  0  0  0  0  0  0  0  0
  6  1  1  0  0  0
  6  5  2  0  0  0
  1  2  1  0  0  0
  5  4  1  0  0  0
  2  3  2  0  0  0
  4  3  1  0  0  0
  4  7  2  0  0  0
  3 10  1  0  0  0
  7 11  1  0  0  0
  7  8  1  0  0  0
 10  8  1  0  0  0
  8  9  2  0  0  0
M  END
> <minimizedAffinity>
-5.46263

$$$$
4JYM_KKN_A_301


 11 12  0  0  0  0  0  0  0  0999 V2000
   84.3996  -56.6581  -24.3012 O   0  0  0  0  0  0  0  0  0  0  0  0
   84.1253  -55.7514  -23.2219 C   0  0  0  0  0  0  0  0  0  0  0  0
   84.1770  -54.2756  -23.5119 C   0  0  0  0  0  0  0  0  0  0  0  0
   84.4865  -53.7992  -24.8069 C   0  0  0  0  0  0  0  0  0  0  0  0
   84.7625  -54.7103  -25.8956 C   0  0  0  0  0  0  0  0  0  0  0  0
   84.7125  -56.1598  -25.6174 C   0  0  0  0  0  0  0  0  0  0  0  0
   84.4672  -52.3574  -24.8091 C   0  0  0  0  0  0  0  0  0  0  0  0
   84.1277  -51.9778  -23.4420 C   0  0  0  0  0  0  0  0  0  0  0  0
   84.0053  -50.8449  -23.0070 O   0  0  0  0  0  0  0  0  0  0  0  0
   83.9347  -53.1936  -22.5793 O   0  0  0  0  0  0  0  0  0  0  0  0
   84.7371  -51.4517  -25.9675 C   0  0  0  0  0  0  0  0  0  0  0  0
  6  1  1  0  0  0
  6  5  2  0  0  0
  1  2  1  0  0  0
  5  4  1  0  0  0
  2  3  2  0  0  0
  4  3  1  0  0  0
  4  7  2  0  0  0
  3 10  1  0  0  0
  7 11  1  0  0  0
  7  8  1  0  0  0
 10  8  1  0  0  0
  8  9  2  0  0  0
M  END
> <minimizedAffinity>
-5.34900

$$$$
4JYM_KKN_A_301


 11 12  0  0  0  0  0  0  0  0999 V2000
   84.3574  -56.7863  -24.9431 O   0  0  0  0  0  0  0  0  0  0  0  0
   84.4432  -55.7216  -25.9030 C   0  0  0  0  0  0  0  0  0  0  0  0
   84.4409  -54.3075  -25.3879 C   0  0  0  0  0  0  0  0  0  0  0  0
   84.3565  -54.0382  -24.0022 C   0  0  0  0  0  0  0  0  0  0  0  0
   84.2707  -55.1087  -23.0337 C   0  0  0  0  0  0  0  0  0  0  0  0
   84.2733  -56.4986  -23.5328 C   0  0  0  0  0  0  0  0  0  0  0  0
   84.3751  -52.6130  -23.7847 C   0  0  0  0  0  0  0  0  0  0  0  0
   84.4763  -52.0246  -25.1158 C   0  0  0  0  0  0  0  0  0  0  0  0
   84.5222  -50.8366  -25.3883 O   0  0  0  0  0  0  0  0  0  0  0  0
   84.5200  -53.0924  -26.1729 O   0  0  0  0  0  0  0  0  0  0  0  0
   84.3062  -51.8979  -22.4736 C   0  0  0  0  0  0  0  0  0  0  0  0
  6  1  1  0  0  0
  6  5  2  0  0  0
  1  2  1  0  0  0
  5  4  1  0  0  0
  2  3  2  0  0  0
  4  3  1  0  0  0
  4  7  2  0  0  0
  3 10  1  0  0  0
  7 11  1  0  0  0
  7  8  1  0  0  0
 10  8  1  0  0  0
  8  9  2  0  0  0
M  END
> <minimizedAffinity>
-5.22425

$$$$
