1X38_IDD_A_1001


 24 26  0  0  0  0  0  0  0  0999 V2000
   25.1107   26.3874   36.0885 C   0  0  0  0  0  0  0  0  0  0  0  0
   24.5415   25.3389   36.9460 C   0  0  0  0  0  0  0  0  0  0  0  0
   24.0792   24.1372   36.1275 C   0  0  0  0  0  0  0  0  0  0  0  0
   23.4811   24.5737   34.7619 C   0  0  0  0  0  0  0  0  0  0  0  0
   24.5579   25.2863   33.9121 C   0  0  0  0  0  0  0  0  0  0  0  0
   25.4650   24.9827   37.9871 O   0  0  0  0  0  0  0  0  0  0  0  0
   23.0936   23.4278   36.8834 O   0  0  0  0  0  0  0  0  0  0  0  0
   22.9897   23.4216   34.1022 O   0  0  0  0  0  0  0  0  0  0  0  0
   25.0915   26.3993   34.7438 N   0  0  0  0  0  0  0  0  0  0  0  0
   25.6748   27.5100   36.5029 N   0  0  0  0  0  0  0  0  0  0  0  0
   26.0150   28.2378   35.3863 C   0  0  0  0  0  0  0  0  0  0  0  0
   25.6682   27.5772   34.2547 C   0  0  0  0  0  0  0  0  0  0  0  0
   26.2756   24.6254   37.5919 H   0  0  0  0  0  0  0  0  0  0  0  0
   22.3383   24.0109   37.0576 H   0  0  0  0  0  0  0  0  0  0  0  0
   23.7156   22.7927   33.9660 H   0  0  0  0  0  0  0  0  0  0  0  0
   26.6634   29.5774   35.4044 C   0  0  0  0  0  0  0  0  0  0  0  0
   26.1568   30.5547   34.5249 C   0  0  0  0  0  0  0  0  0  0  0  0
   26.7388   31.8309   34.4614 C   0  0  0  0  0  0  0  0  0  0  0  0
   27.8344   32.1265   35.2770 C   0  0  0  0  0  0  0  0  0  0  0  0
   28.3515   31.1552   36.1421 C   0  0  0  0  0  0  0  0  0  0  0  0
   27.7825   29.8765   36.2078 C   0  0  0  0  0  0  0  0  0  0  0  0
   24.0227   25.7356   32.5413 C   0  0  0  0  0  0  0  0  0  0  0  0
   23.6703   24.6124   31.7755 O   0  0  0  0  0  0  0  0  0  0  0  0
   24.4516   24.0526   31.6440 H   0  0  0  0  0  0  0  0  0  0  0  0
 16 17  2  0  0  0
 16 21  1  0  0  0
 16 11  1  0  0  0
 17 18  1  0  0  0
 18 19  2  0  0  0
 19 20  1  0  0  0
 20 21  2  0  0  0
  1  2  1  0  0  0
  1  9  1  0  0  0
  1 10  2  0  0  0
  2  3  1  0  0  0
  2  6  1  0  0  0
  3  4  1  0  0  0
  3  7  1  0  0  0
  4  5  1  0  0  0
  4  8  1  0  0  0
  5 22  1  0  0  0
  5  9  1  0  0  0
 22 23  1  0  0  0
  9 12  1  0  0  0
 10 11  1  0  0  0
 11 12  2  0  0  0
  6 13  1  0  0  0
  7 14  1  0  0  0
  8 15  1  0  0  0
 23 24  1  0  0  0
M  END
> <minimizedAffinity>
-10.12896

$$$$
1X38_IDD_A_1001


 24 26  0  0  0  0  0  0  0  0999 V2000
   24.7614   26.8869   33.8792 C   0  0  0  0  0  0  0  0  0  0  0  0
   24.3341   25.9154   32.8632 C   0  0  0  0  0  0  0  0  0  0  0  0
   23.6181   24.7250   33.4943 C   0  0  0  0  0  0  0  0  0  0  0  0
   24.2446   24.3435   34.8636 C   0  0  0  0  0  0  0  0  0  0  0  0
   24.0973   25.5146   35.8617 C   0  0  0  0  0  0  0  0  0  0  0  0
   23.5522   26.5612   31.8458 O   0  0  0  0  0  0  0  0  0  0  0  0
   23.7065   23.6160   32.5952 O   0  0  0  0  0  0  0  0  0  0  0  0
   23.5953   23.1800   35.3418 O   0  0  0  0  0  0  0  0  0  0  0  0
   24.7004   26.7094   35.2110 N   0  0  0  0  0  0  0  0  0  0  0  0
   25.3281   28.0592   33.6447 N   0  0  0  0  0  0  0  0  0  0  0  0
   25.6265   28.6244   34.8628 C   0  0  0  0  0  0  0  0  0  0  0  0
   25.2478   27.8111   35.8789 C   0  0  0  0  0  0  0  0  0  0  0  0
   22.7508   26.9363   32.2432 H   0  0  0  0  0  0  0  0  0  0  0  0
   24.6389   23.3924   32.4484 H   0  0  0  0  0  0  0  0  0  0  0  0
   22.6471   23.3576   35.4435 H   0  0  0  0  0  0  0  0  0  0  0  0
   26.2887   29.9437   35.0532 C   0  0  0  0  0  0  0  0  0  0  0  0
   25.7547   31.0440   34.3537 C   0  0  0  0  0  0  0  0  0  0  0  0
   26.3464   32.3132   34.4569 C   0  0  0  0  0  0  0  0  0  0  0  0
   27.4791   32.4787   35.2584 C   0  0  0  0  0  0  0  0  0  0  0  0
   28.0231   31.3865   35.9442 C   0  0  0  0  0  0  0  0  0  0  0  0
   27.4444   30.1144   35.8421 C   0  0  0  0  0  0  0  0  0  0  0  0
   24.6952   25.1897   37.2416 C   0  0  0  0  0  0  0  0  0  0  0  0
   24.3174   23.8946   37.6321 O   0  0  0  0  0  0  0  0  0  0  0  0
   23.3502   23.8417   37.6841 H   0  0  0  0  0  0  0  0  0  0  0  0
 16 17  2  0  0  0
 16 21  1  0  0  0
 16 11  1  0  0  0
 17 18  1  0  0  0
 18 19  2  0  0  0
 19 20  1  0  0  0
 20 21  2  0  0  0
  1  2  1  0  0  0
  1  9  1  0  0  0
  1 10  2  0  0  0
  2  3  1  0  0  0
  2  6  1  0  0  0
  3  4  1  0  0  0
  3  7  1  0  0  0
  4  5  1  0  0  0
  4  8  1  0  0  0
  5 22  1  0  0  0
  5  9  1  0  0  0
 22 23  1  0  0  0
  9 12  1  0  0  0
 10 11  1  0  0  0
 11 12  2  0  0  0
  6 13  1  0  0  0
  7 14  1  0  0  0
  8 15  1  0  0  0
 23 24  1  0  0  0
M  END
> <minimizedAffinity>
-9.16421

$$$$
1X38_IDD_A_1001


 24 26  0  0  0  0  0  0  0  0999 V2000
   27.0146   28.7927   36.0429 C   0  0  0  0  0  0  0  0  0  0  0  0
   28.1619   29.2965   36.8100 C   0  0  0  0  0  0  0  0  0  0  0  0
   28.2412   30.8195   36.7616 C   0  0  0  0  0  0  0  0  0  0  0  0
   27.8029   31.3694   35.3764 C   0  0  0  0  0  0  0  0  0  0  0  0
   26.3260   31.0050   35.1017 C   0  0  0  0  0  0  0  0  0  0  0  0
   28.1371   28.7816   38.1507 O   0  0  0  0  0  0  0  0  0  0  0  0
   29.5900   31.2105   37.0333 O   0  0  0  0  0  0  0  0  0  0  0  0
   27.9919   32.7723   35.3741 O   0  0  0  0  0  0  0  0  0  0  0  0
   26.2152   29.5283   35.2501 N   0  0  0  0  0  0  0  0  0  0  0  0
   26.6262   27.5305   35.9631 N   0  0  0  0  0  0  0  0  0  0  0  0
   25.5576   27.4812   35.0983 C   0  0  0  0  0  0  0  0  0  0  0  0
   25.2614   28.7165   34.6252 C   0  0  0  0  0  0  0  0  0  0  0  0
   27.3326   29.0860   38.5991 H   0  0  0  0  0  0  0  0  0  0  0  0
   30.1777   30.8341   36.3597 H   0  0  0  0  0  0  0  0  0  0  0  0
   27.4581   33.1716   36.0788 H   0  0  0  0  0  0  0  0  0  0  0  0
   24.8257   26.2435   34.7142 C   0  0  0  0  0  0  0  0  0  0  0  0
   24.2421   25.4876   35.7502 C   0  0  0  0  0  0  0  0  0  0  0  0
   23.5647   24.2904   35.4683 C   0  0  0  0  0  0  0  0  0  0  0  0
   23.4769   23.8470   34.1460 C   0  0  0  0  0  0  0  0  0  0  0  0
   24.0673   24.5858   33.1141 C   0  0  0  0  0  0  0  0  0  0  0  0
   24.7516   25.7779   33.3857 C   0  0  0  0  0  0  0  0  0  0  0  0
   25.8334   31.5322   33.7427 C   0  0  0  0  0  0  0  0  0  0  0  0
   25.3192   32.8305   33.8928 O   0  0  0  0  0  0  0  0  0  0  0  0
   24.5759   32.8138   34.5158 H   0  0  0  0  0  0  0  0  0  0  0  0
 16 17  2  0  0  0
 16 21  1  0  0  0
 16 11  1  0  0  0
 17 18  1  0  0  0
 18 19  2  0  0  0
 19 20  1  0  0  0
 20 21  2  0  0  0
  1  2  1  0  0  0
  1  9  1  0  0  0
  1 10  2  0  0  0
  2  3  1  0  0  0
  2  6  1  0  0  0
  3  4  1  0  0  0
  3  7  1  0  0  0
  4  5  1  0  0  0
  4  8  1  0  0  0
  5 22  1  0  0  0
  5  9  1  0  0  0
 22 23  1  0  0  0
  9 12  1  0  0  0
 10 11  1  0  0  0
 11 12  2  0  0  0
  6 13  1  0  0  0
  7 14  1  0  0  0
  8 15  1  0  0  0
 23 24  1  0  0  0
M  END
> <minimizedAffinity>
-9.00572

$$$$
1X38_IDD_A_1001


 24 26  0  0  0  0  0  0  0  0999 V2000
   24.7974   27.9824   33.9442 C   0  0  0  0  0  0  0  0  0  0  0  0
   24.1209   27.0755   33.0070 C   0  0  0  0  0  0  0  0  0  0  0  0
   23.7087   25.7738   33.6880 C   0  0  0  0  0  0  0  0  0  0  0  0
   24.7591   25.3234   34.7401 C   0  0  0  0  0  0  0  0  0  0  0  0
   24.8755   26.3798   35.8625 C   0  0  0  0  0  0  0  0  0  0  0  0
   23.0217   27.7418   32.3656 O   0  0  0  0  0  0  0  0  0  0  0  0
   23.5649   24.7648   32.6844 O   0  0  0  0  0  0  0  0  0  0  0  0
   24.3598   24.0684   35.2591 O   0  0  0  0  0  0  0  0  0  0  0  0
   25.1744   27.6779   35.1988 N   0  0  0  0  0  0  0  0  0  0  0  0
   25.1959   29.2164   33.6818 N   0  0  0  0  0  0  0  0  0  0  0  0
   25.8368   29.6905   34.8029 C   0  0  0  0  0  0  0  0  0  0  0  0
   25.8465   28.7566   35.7853 C   0  0  0  0  0  0  0  0  0  0  0  0
   22.3702   28.0070   33.0335 H   0  0  0  0  0  0  0  0  0  0  0  0
   24.4122   24.6381   32.2295 H   0  0  0  0  0  0  0  0  0  0  0  0
   23.4856   24.1523   35.6710 H   0  0  0  0  0  0  0  0  0  0  0  0
   26.4534   31.0393   34.9284 C   0  0  0  0  0  0  0  0  0  0  0  0
   27.6488   31.1393   35.6674 C   0  0  0  0  0  0  0  0  0  0  0  0
   28.2706   32.3838   35.8575 C   0  0  0  0  0  0  0  0  0  0  0  0
   27.6899   33.5313   35.3106 C   0  0  0  0  0  0  0  0  0  0  0  0
   26.4946   33.4405   34.5880 C   0  0  0  0  0  0  0  0  0  0  0  0
   25.8625   32.2044   34.3987 C   0  0  0  0  0  0  0  0  0  0  0  0
   25.8992   25.9821   36.9402 C   0  0  0  0  0  0  0  0  0  0  0  0
   25.3287   25.0452   37.8173 O   0  0  0  0  0  0  0  0  0  0  0  0
   24.5509   25.4354   38.2460 H   0  0  0  0  0  0  0  0  0  0  0  0
 16 17  2  0  0  0
 16 21  1  0  0  0
 16 11  1  0  0  0
 17 18  1  0  0  0
 18 19  2  0  0  0
 19 20  1  0  0  0
 20 21  2  0  0  0
  1  2  1  0  0  0
  1  9  1  0  0  0
  1 10  2  0  0  0
  2  3  1  0  0  0
  2  6  1  0  0  0
  3  4  1  0  0  0
  3  7  1  0  0  0
  4  5  1  0  0  0
  4  8  1  0  0  0
  5 22  1  0  0  0
  5  9  1  0  0  0
 22 23  1  0  0  0
  9 12  1  0  0  0
 10 11  1  0  0  0
 11 12  2  0  0  0
  6 13  1  0  0  0
  7 14  1  0  0  0
  8 15  1  0  0  0
 23 24  1  0  0  0
M  END
> <minimizedAffinity>
-8.89999

$$$$
1X38_IDD_A_1001


 24 26  0  0  0  0  0  0  0  0999 V2000
   24.8255   29.0433   33.8157 C   0  0  0  0  0  0  0  0  0  0  0  0
   24.4923   27.6240   33.6337 C   0  0  0  0  0  0  0  0  0  0  0  0
   24.8993   26.7942   34.8478 C   0  0  0  0  0  0  0  0  0  0  0  0
   26.2242   27.3106   35.4731 C   0  0  0  0  0  0  0  0  0  0  0  0
   26.0443   28.7594   35.9810 C   0  0  0  0  0  0  0  0  0  0  0  0
   23.1051   27.4715   33.2936 O   0  0  0  0  0  0  0  0  0  0  0  0
   25.0570   25.4343   34.4332 O   0  0  0  0  0  0  0  0  0  0  0  0
   26.5872   26.4405   36.5290 O   0  0  0  0  0  0  0  0  0  0  0  0
   25.5457   29.5579   34.8283 N   0  0  0  0  0  0  0  0  0  0  0  0
   24.5234   30.0261   32.9832 N   0  0  0  0  0  0  0  0  0  0  0  0
   25.0700   31.1812   33.4924 C   0  0  0  0  0  0  0  0  0  0  0  0
   25.7224   30.9356   34.6549 C   0  0  0  0  0  0  0  0  0  0  0  0
   22.5555   27.8075   34.0189 H   0  0  0  0  0  0  0  0  0  0  0  0
   25.7505   25.3807   33.7572 H   0  0  0  0  0  0  0  0  0  0  0  0
   25.8826   26.4293   37.1955 H   0  0  0  0  0  0  0  0  0  0  0  0
   24.9774   32.5232   32.8555 C   0  0  0  0  0  0  0  0  0  0  0  0
   24.8127   33.6344   33.7061 C   0  0  0  0  0  0  0  0  0  0  0  0
   24.6838   34.9283   33.1762 C   0  0  0  0  0  0  0  0  0  0  0  0
   24.7145   35.1083   31.7907 C   0  0  0  0  0  0  0  0  0  0  0  0
   24.8631   34.0068   30.9399 C   0  0  0  0  0  0  0  0  0  0  0  0
   24.9853   32.7108   31.4584 C   0  0  0  0  0  0  0  0  0  0  0  0
   27.3262   29.3221   36.6192 C   0  0  0  0  0  0  0  0  0  0  0  0
   27.6484   28.5858   37.7710 O   0  0  0  0  0  0  0  0  0  0  0  0
   26.9209   28.6495   38.4095 H   0  0  0  0  0  0  0  0  0  0  0  0
 16 17  2  0  0  0
 16 21  1  0  0  0
 16 11  1  0  0  0
 17 18  1  0  0  0
 18 19  2  0  0  0
 19 20  1  0  0  0
 20 21  2  0  0  0
  1  2  1  0  0  0
  1  9  1  0  0  0
  1 10  2  0  0  0
  2  3  1  0  0  0
  2  6  1  0  0  0
  3  4  1  0  0  0
  3  7  1  0  0  0
  4  5  1  0  0  0
  4  8  1  0  0  0
  5 22  1  0  0  0
  5  9  1  0  0  0
 22 23  1  0  0  0
  9 12  1  0  0  0
 10 11  1  0  0  0
 11 12  2  0  0  0
  6 13  1  0  0  0
  7 14  1  0  0  0
  8 15  1  0  0  0
 23 24  1  0  0  0
M  END
> <minimizedAffinity>
-8.86858

$$$$
1X38_IDD_A_1001


 24 26  0  0  0  0  0  0  0  0999 V2000
   24.9717   30.5527   33.8294 C   0  0  0  0  0  0  0  0  0  0  0  0
   24.5567   31.9215   33.4936 C   0  0  0  0  0  0  0  0  0  0  0  0
   25.6665   32.9283   33.7808 C   0  0  0  0  0  0  0  0  0  0  0  0
   26.4705   32.5430   35.0529 C   0  0  0  0  0  0  0  0  0  0  0  0
   27.1676   31.1785   34.8495 C   0  0  0  0  0  0  0  0  0  0  0  0
   24.0816   31.9862   32.1395 O   0  0  0  0  0  0  0  0  0  0  0  0
   25.0725   34.2179   33.9552 O   0  0  0  0  0  0  0  0  0  0  0  0
   27.4148   33.5658   35.3097 O   0  0  0  0  0  0  0  0  0  0  0  0
   26.1059   30.2090   34.4651 N   0  0  0  0  0  0  0  0  0  0  0  0
   24.2691   29.4522   33.6152 N   0  0  0  0  0  0  0  0  0  0  0  0
   24.9861   28.3978   34.1312 C   0  0  0  0  0  0  0  0  0  0  0  0
   26.1513   28.8259   34.6756 C   0  0  0  0  0  0  0  0  0  0  0  0
   24.7990   31.7440   31.5332 H   0  0  0  0  0  0  0  0  0  0  0  0
   24.4571   34.1917   34.7045 H   0  0  0  0  0  0  0  0  0  0  0  0
   28.0104   33.6544   34.5493 H   0  0  0  0  0  0  0  0  0  0  0  0
   24.5466   26.9758   34.1136 C   0  0  0  0  0  0  0  0  0  0  0  0
   24.2773   26.3652   35.3545 C   0  0  0  0  0  0  0  0  0  0  0  0
   23.8910   25.0169   35.4198 C   0  0  0  0  0  0  0  0  0  0  0  0
   23.7798   24.2774   34.2392 C   0  0  0  0  0  0  0  0  0  0  0  0
   24.0602   24.8742   33.0045 C   0  0  0  0  0  0  0  0  0  0  0  0
   24.4535   26.2170   32.9293 C   0  0  0  0  0  0  0  0  0  0  0  0
   27.9875   30.7481   36.0783 C   0  0  0  0  0  0  0  0  0  0  0  0
   29.3321   31.1157   35.9070 O   0  0  0  0  0  0  0  0  0  0  0  0
   29.6888   30.6787   35.1178 H   0  0  0  0  0  0  0  0  0  0  0  0
 16 17  2  0  0  0
 16 21  1  0  0  0
 16 11  1  0  0  0
 17 18  1  0  0  0
 18 19  2  0  0  0
 19 20  1  0  0  0
 20 21  2  0  0  0
  1  2  1  0  0  0
  1  9  1  0  0  0
  1 10  2  0  0  0
  2  3  1  0  0  0
  2  6  1  0  0  0
  3  4  1  0  0  0
  3  7  1  0  0  0
  4  5  1  0  0  0
  4  8  1  0  0  0
  5 22  1  0  0  0
  5  9  1  0  0  0
 22 23  1  0  0  0
  9 12  1  0  0  0
 10 11  1  0  0  0
 11 12  2  0  0  0
  6 13  1  0  0  0
  7 14  1  0  0  0
  8 15  1  0  0  0
 23 24  1  0  0  0
M  END
> <minimizedAffinity>
-8.70625

$$$$
1X38_IDD_A_1001


 24 26  0  0  0  0  0  0  0  0999 V2000
   26.1583   29.4165   35.2957 C   0  0  0  0  0  0  0  0  0  0  0  0
   26.6359   28.4478   36.2918 C   0  0  0  0  0  0  0  0  0  0  0  0
   26.3462   27.0133   35.8600 C   0  0  0  0  0  0  0  0  0  0  0  0
   24.9882   26.9059   35.1133 C   0  0  0  0  0  0  0  0  0  0  0  0
   25.0248   27.7478   33.8175 C   0  0  0  0  0  0  0  0  0  0  0  0
   28.0236   28.6717   36.5876 O   0  0  0  0  0  0  0  0  0  0  0  0
   26.3243   26.1860   37.0266 O   0  0  0  0  0  0  0  0  0  0  0  0
   24.7430   25.5411   34.8290 O   0  0  0  0  0  0  0  0  0  0  0  0
   25.4103   29.1290   34.2156 N   0  0  0  0  0  0  0  0  0  0  0  0
   26.3360   30.7268   35.3376 N   0  0  0  0  0  0  0  0  0  0  0  0
   25.6815   31.2670   34.2550 C   0  0  0  0  0  0  0  0  0  0  0  0
   25.0848   30.2983   33.5182 C   0  0  0  0  0  0  0  0  0  0  0  0
   28.5504   28.5438   35.7832 H   0  0  0  0  0  0  0  0  0  0  0  0
   25.6256   26.4911   37.6263 H   0  0  0  0  0  0  0  0  0  0  0  0
   25.4595   25.1922   34.2760 H   0  0  0  0  0  0  0  0  0  0  0  0
   25.6172   32.7186   33.9326 C   0  0  0  0  0  0  0  0  0  0  0  0
   26.7967   33.4718   34.0960 C   0  0  0  0  0  0  0  0  0  0  0  0
   26.8044   34.8531   33.8439 C   0  0  0  0  0  0  0  0  0  0  0  0
   25.6260   35.4818   33.4327 C   0  0  0  0  0  0  0  0  0  0  0  0
   24.4475   34.7418   33.2828 C   0  0  0  0  0  0  0  0  0  0  0  0
   24.4276   33.3643   33.5388 C   0  0  0  0  0  0  0  0  0  0  0  0
   23.7049   27.6730   33.0303 C   0  0  0  0  0  0  0  0  0  0  0  0
   23.7301   26.5703   32.1608 O   0  0  0  0  0  0  0  0  0  0  0  0
   24.4670   26.6667   31.5375 H   0  0  0  0  0  0  0  0  0  0  0  0
 16 17  2  0  0  0
 16 21  1  0  0  0
 16 11  1  0  0  0
 17 18  1  0  0  0
 18 19  2  0  0  0
 19 20  1  0  0  0
 20 21  2  0  0  0
  1  2  1  0  0  0
  1  9  1  0  0  0
  1 10  2  0  0  0
  2  3  1  0  0  0
  2  6  1  0  0  0
  3  4  1  0  0  0
  3  7  1  0  0  0
  4  5  1  0  0  0
  4  8  1  0  0  0
  5 22  1  0  0  0
  5  9  1  0  0  0
 22 23  1  0  0  0
  9 12  1  0  0  0
 10 11  1  0  0  0
 11 12  2  0  0  0
  6 13  1  0  0  0
  7 14  1  0  0  0
  8 15  1  0  0  0
 23 24  1  0  0  0
M  END
> <minimizedAffinity>
-8.62242

$$$$
1X38_IDD_A_1001


 24 26  0  0  0  0  0  0  0  0999 V2000
   27.9309   29.8022   37.7656 C   0  0  0  0  0  0  0  0  0  0  0  0
   28.5519   29.8007   39.0971 C   0  0  0  0  0  0  0  0  0  0  0  0
   29.3586   31.0730   39.3390 C   0  0  0  0  0  0  0  0  0  0  0  0
   30.0653   31.5551   38.0423 C   0  0  0  0  0  0  0  0  0  0  0  0
   29.0161   31.9077   36.9634 C   0  0  0  0  0  0  0  0  0  0  0  0
   27.5647   29.5645   40.1135 O   0  0  0  0  0  0  0  0  0  0  0  0
   30.3334   30.8045   40.3508 O   0  0  0  0  0  0  0  0  0  0  0  0
   30.8660   32.6777   38.3625 O   0  0  0  0  0  0  0  0  0  0  0  0
   28.1555   30.7053   36.7946 N   0  0  0  0  0  0  0  0  0  0  0  0
   27.1034   28.8848   37.2923 N   0  0  0  0  0  0  0  0  0  0  0  0
   26.8063   29.2274   35.9936 C   0  0  0  0  0  0  0  0  0  0  0  0
   27.4451   30.3684   35.6365 C   0  0  0  0  0  0  0  0  0  0  0  0
   26.9095   30.2797   40.1002 H   0  0  0  0  0  0  0  0  0  0  0  0
   30.9257   30.0978   40.0496 H   0  0  0  0  0  0  0  0  0  0  0  0
   30.3052   33.3828   38.7220 H   0  0  0  0  0  0  0  0  0  0  0  0
   25.9167   28.4512   35.0873 C   0  0  0  0  0  0  0  0  0  0  0  0
   25.1657   29.1750   34.1401 C   0  0  0  0  0  0  0  0  0  0  0  0
   24.2794   28.5148   33.2739 C   0  0  0  0  0  0  0  0  0  0  0  0
   24.1414   27.1269   33.3611 C   0  0  0  0  0  0  0  0  0  0  0  0
   24.8737   26.4039   34.3099 C   0  0  0  0  0  0  0  0  0  0  0  0
   25.7553   27.0541   35.1837 C   0  0  0  0  0  0  0  0  0  0  0  0
   29.6602   32.4000   35.6556 C   0  0  0  0  0  0  0  0  0  0  0  0
   30.8272   31.6642   35.3924 O   0  0  0  0  0  0  0  0  0  0  0  0
   31.4560   31.7836   36.1212 H   0  0  0  0  0  0  0  0  0  0  0  0
 16 17  2  0  0  0
 16 21  1  0  0  0
 16 11  1  0  0  0
 17 18  1  0  0  0
 18 19  2  0  0  0
 19 20  1  0  0  0
 20 21  2  0  0  0
  1  2  1  0  0  0
  1  9  1  0  0  0
  1 10  2  0  0  0
  2  3  1  0  0  0
  2  6  1  0  0  0
  3  4  1  0  0  0
  3  7  1  0  0  0
  4  5  1  0  0  0
  4  8  1  0  0  0
  5 22  1  0  0  0
  5  9  1  0  0  0
 22 23  1  0  0  0
  9 12  1  0  0  0
 10 11  1  0  0  0
 11 12  2  0  0  0
  6 13  1  0  0  0
  7 14  1  0  0  0
  8 15  1  0  0  0
 23 24  1  0  0  0
M  END
> <minimizedAffinity>
-8.54106

$$$$
1X38_IDD_A_1001


 24 26  0  0  0  0  0  0  0  0999 V2000
   25.2609   27.8361   35.1899 C   0  0  0  0  0  0  0  0  0  0  0  0
   25.2010   26.6586   36.0666 C   0  0  0  0  0  0  0  0  0  0  0  0
   24.8476   25.3970   35.2846 C   0  0  0  0  0  0  0  0  0  0  0  0
   23.8320   25.6965   34.1480 C   0  0  0  0  0  0  0  0  0  0  0  0
   24.4498   26.6786   33.1267 C   0  0  0  0  0  0  0  0  0  0  0  0
   26.4186   26.5268   36.8173 O   0  0  0  0  0  0  0  0  0  0  0  0
   24.2903   24.4433   36.1934 O   0  0  0  0  0  0  0  0  0  0  0  0
   23.4802   24.4720   33.5309 O   0  0  0  0  0  0  0  0  0  0  0  0
   24.8946   27.8722   33.8963 N   0  0  0  0  0  0  0  0  0  0  0  0
   25.6248   29.0561   35.5499 N   0  0  0  0  0  0  0  0  0  0  0  0
   25.4809   29.8709   34.4510 C   0  0  0  0  0  0  0  0  0  0  0  0
   25.0249   29.1687   33.3850 C   0  0  0  0  0  0  0  0  0  0  0  0
   27.1618   26.3967   36.2078 H   0  0  0  0  0  0  0  0  0  0  0  0
   23.4876   24.8106   36.5954 H   0  0  0  0  0  0  0  0  0  0  0  0
   24.2761   24.0521   33.1688 H   0  0  0  0  0  0  0  0  0  0  0  0
   25.7696   31.3308   34.4262 C   0  0  0  0  0  0  0  0  0  0  0  0
   26.9359   31.7722   35.0822 C   0  0  0  0  0  0  0  0  0  0  0  0
   27.2564   33.1383   35.1301 C   0  0  0  0  0  0  0  0  0  0  0  0
   26.4034   34.0647   34.5242 C   0  0  0  0  0  0  0  0  0  0  0  0
   25.2358   33.6339   33.8836 C   0  0  0  0  0  0  0  0  0  0  0  0
   24.9032   32.2735   33.8365 C   0  0  0  0  0  0  0  0  0  0  0  0
   23.4885   27.0067   31.9709 C   0  0  0  0  0  0  0  0  0  0  0  0
   23.2759   25.8605   31.1876 O   0  0  0  0  0  0  0  0  0  0  0  0
   24.1216   25.5575   30.8216 H   0  0  0  0  0  0  0  0  0  0  0  0
 16 17  2  0  0  0
 16 21  1  0  0  0
 16 11  1  0  0  0
 17 18  1  0  0  0
 18 19  2  0  0  0
 19 20  1  0  0  0
 20 21  2  0  0  0
  1  2  1  0  0  0
  1  9  1  0  0  0
  1 10  2  0  0  0
  2  3  1  0  0  0
  2  6  1  0  0  0
  3  4  1  0  0  0
  3  7  1  0  0  0
  4  5  1  0  0  0
  4  8  1  0  0  0
  5 22  1  0  0  0
  5  9  1  0  0  0
 22 23  1  0  0  0
  9 12  1  0  0  0
 10 11  1  0  0  0
 11 12  2  0  0  0
  6 13  1  0  0  0
  7 14  1  0  0  0
  8 15  1  0  0  0
 23 24  1  0  0  0
M  END
> <minimizedAffinity>
-8.44334

$$$$
1X38_IDD_A_1001


 24 26  0  0  0  0  0  0  0  0999 V2000
   25.9413   30.1626   34.6113 C   0  0  0  0  0  0  0  0  0  0  0  0
   25.6838   28.8156   35.1382 C   0  0  0  0  0  0  0  0  0  0  0  0
   26.4867   28.5493   36.4081 C   0  0  0  0  0  0  0  0  0  0  0  0
   27.8899   29.2127   36.3449 C   0  0  0  0  0  0  0  0  0  0  0  0
   27.7487   30.7483   36.2375 C   0  0  0  0  0  0  0  0  0  0  0  0
   24.2740   28.6046   35.3152 O   0  0  0  0  0  0  0  0  0  0  0  0
   26.6264   27.1345   36.5659 O   0  0  0  0  0  0  0  0  0  0  0  0
   28.6086   28.8460   37.5080 O   0  0  0  0  0  0  0  0  0  0  0  0
   26.8784   31.0164   35.0603 N   0  0  0  0  0  0  0  0  0  0  0  0
   25.3358   30.7219   33.5763 N   0  0  0  0  0  0  0  0  0  0  0  0
   25.9119   31.9551   33.3779 C   0  0  0  0  0  0  0  0  0  0  0  0
   26.8878   32.1851   34.2901 C   0  0  0  0  0  0  0  0  0  0  0  0
   23.9308   29.2396   35.9631 H   0  0  0  0  0  0  0  0  0  0  0  0
   27.0987   26.7690   35.8016 H   0  0  0  0  0  0  0  0  0  0  0  0
   28.1282   29.1493   38.2941 H   0  0  0  0  0  0  0  0  0  0  0  0
   25.5341   32.9114   32.3018 C   0  0  0  0  0  0  0  0  0  0  0  0
   24.7426   32.4189   31.2453 C   0  0  0  0  0  0  0  0  0  0  0  0
   24.3750   33.2531   30.1774 C   0  0  0  0  0  0  0  0  0  0  0  0
   24.8062   34.5823   30.1655 C   0  0  0  0  0  0  0  0  0  0  0  0
   25.6049   35.0736   31.2047 C   0  0  0  0  0  0  0  0  0  0  0  0
   25.9832   34.2473   32.2713 C   0  0  0  0  0  0  0  0  0  0  0  0
   29.1109   31.4612   36.1790 C   0  0  0  0  0  0  0  0  0  0  0  0
   29.7083   31.4534   37.4501 O   0  0  0  0  0  0  0  0  0  0  0  0
   29.1340   31.9161   38.0801 H   0  0  0  0  0  0  0  0  0  0  0  0
 16 17  2  0  0  0
 16 21  1  0  0  0
 16 11  1  0  0  0
 17 18  1  0  0  0
 18 19  2  0  0  0
 19 20  1  0  0  0
 20 21  2  0  0  0
  1  2  1  0  0  0
  1  9  1  0  0  0
  1 10  2  0  0  0
  2  3  1  0  0  0
  2  6  1  0  0  0
  3  4  1  0  0  0
  3  7  1  0  0  0
  4  5  1  0  0  0
  4  8  1  0  0  0
  5 22  1  0  0  0
  5  9  1  0  0  0
 22 23  1  0  0  0
  9 12  1  0  0  0
 10 11  1  0  0  0
 11 12  2  0  0  0
  6 13  1  0  0  0
  7 14  1  0  0  0
  8 15  1  0  0  0
 23 24  1  0  0  0
M  END
> <minimizedAffinity>
-8.19552

$$$$
