1X38_IDD_A_1001
  RCSB PDB12061704353D
Coordinates from PDB:1X38:A:1001 Model:1 without hydrogens
 20 22  0  0  0  0            999 V2000
   27.0890   29.0720   35.9570   C 0  0  0  0  0  0  0  0  0  0  0  0
   27.7210   29.3130   37.1930   C 0  0  0  0  0  0  0  0  0  0  0  0
   28.4370   30.5010   37.4110   C 0  0  0  0  0  0  0  0  0  0  0  0
   28.5150   31.4520   36.3900   C 0  0  0  0  0  0  0  0  0  0  0  0
   27.8770   31.2250   35.1650   C 0  0  0  0  0  0  0  0  0  0  0  0
   27.1540   30.0460   34.9400   C 0  0  0  0  0  0  0  0  0  0  0  0
   25.2160   26.0070   36.3480   C 0  0  0  0  0  0  0  0  0  0  0  0
   24.5150   24.9610   37.1050   C 0  0  0  0  0  0  0  0  0  0  0  0
   23.9770   23.8700   36.1840   C 0  0  0  0  0  0  0  0  0  0  0  0
   23.4810   24.4570   34.8340   C 0  0  0  0  0  0  0  0  0  0  0  0
   24.6550   25.1200   34.0780   C 0  0  0  0  0  0  0  0  0  0  0  0
   24.2230   25.7140   32.7260   C 0  0  0  0  0  0  0  0  0  0  0  0
   25.3560   24.4450   38.1490   O 0  0  0  0  0  0  0  0  0  0  0  0
   22.8980   23.2080   36.8500   O 0  0  0  0  0  0  0  0  0  0  0  0
   22.9120   23.4070   34.0740   O 0  0  0  0  0  0  0  0  0  0  0  0
   25.2550   26.1150   35.0080   N 0  0  0  0  0  0  0  0  0  0  0  0
   23.3330   26.7800   32.9360   O 0  0  0  0  0  0  0  0  0  0  0  0
   25.8650   27.0380   36.8640   N 0  0  0  0  0  0  0  0  0  0  0  0
   26.3190   27.8060   35.8170   C 0  0  0  0  0  0  0  0  0  0  0  0
   25.9600   27.2630   34.6280   C 0  0  0  0  0  0  0  0  0  0  0  0
  1  2  2  0  0  0  0
  1  6  1  0  0  0  0
  1 19  1  0  0  0  0
  2  3  1  0  0  0  0
  3  4  2  0  0  0  0
  4  5  1  0  0  0  0
  5  6  2  0  0  0  0
  7  8  1  0  0  0  0
  7 16  1  0  0  0  0
  7 18  2  0  0  0  0
  8  9  1  0  0  0  0
  8 13  1  0  0  0  0
  9 10  1  0  0  0  0
  9 14  1  0  0  0  0
 10 11  1  0  0  0  0
 10 15  1  0  0  0  0
 11 12  1  0  0  0  0
 11 16  1  0  0  0  0
 12 17  1  0  0  0  0
 16 20  1  0  0  0  0
 18 19  1  0  0  0  0
 19 20  2  0  0  0  0
A    1
C1
A    2
C2
A    3
C3
A    4
C4
A    5
C5
A    6
C6
A    7
C1B
A    8
C2B
A    9
C3B
A   10
C4B
A   11
C5B
A   12
C6B
A   13
O2B
A   14
O3B
A   15
O4B
A   16
N1B
A   17
O6B
A   18
N2B
A   19
C7B
A   20
C8B
M  END
>  <InstanceId>
1X38_IDD_A_1001

>  <ChemCompId>
IDD

>  <PdbId>
1X38

>  <ChainId>
A

>  <ResidueNumber>
1001

>  <InsertionCode>


>  <Model>
1

>  <AltIds>


>  <MissingHeavyAtoms>
0

>  <ObservedFormula>
C14 N2 O4

>  <Name>
(5R,6R,7S,8S)-5-(HYDROXYMETHYL)-2-PHENYL-5,6,7,8-TETRAHYDROIMIDAZO[1,2-A]PYRIDINE-6,7,8-TRIOL

>  <SystematicName>
(5R,6R,7S,8S)-5-(hydroxymethyl)-2-phenyl-5,6,7,8-tetrahydroimidazo[2,1-f]pyridine-6,7,8-triol

>  <Synonyms>
GLUCO-PHENYLIMIDAZOLE

>  <Type>
NON-POLYMER

>  <Formula>
C14 H16 N2 O4

>  <MolecularWeight>
276.288

>  <ModifiedDate>
2011-06-04

>  <Parent>


>  <OneLetterCode>


>  <SubcomponentList>


>  <AmbiguousFlag>
N

>  <InChI>
InChI=1S/C14H16N2O4/c17-7-10-11(18)12(19)13(20)14-15-9(6-16(10)14)8-4-2-1-3-5-8/h1-6,10-13,17-20H,7H2/t10-,11-,12+,13-/m1/s1

>  <InChIKey>
DLVNFMROYKHANV-FVCCEPFGSA-N

>  <SMILES>
c1ccc(cc1)c2cn3c(n2)[C@@H]([C@H]([C@@H]([C@H]3CO)O)O)O

$$$$
