4C1Y_MFB_A_910
  RCSB PDB12061711573D
Coordinates from PDB:4C1Y:A:910 Model:1 without hydrogens
 12 12  0  0  0  0            999 V2000
  -44.2040   16.2970   -9.2500   C 0  0  0  0  0  0  0  0  0  0  0  0
  -42.7480   16.6460   -8.9220   C 0  0  0  0  0  0  0  0  0  0  0  0
  -42.1340   15.8180   -7.8020   C 0  0  0  0  0  0  0  0  0  0  0  0
  -42.4120   14.3370   -8.0100   C 0  0  0  0  0  0  0  0  0  0  0  0
  -43.9290   14.1490   -8.2170   C 0  0  0  0  0  0  0  0  0  0  0  0
  -44.3400   12.6980   -8.3610   C 0  0  0  0  0  0  0  0  0  0  0  0
  -44.5380   16.9790  -10.4730   O 0  0  0  0  0  0  0  0  0  0  0  0
  -42.6580   18.0350   -8.5520   O 0  0  0  0  0  0  0  0  0  0  0  0
  -40.7340   16.1140   -7.8080   O 0  0  0  0  0  0  0  0  0  0  0  0
  -41.7100   13.9040   -9.1730   O 0  0  0  0  0  0  0  0  0  0  0  0
  -44.3530   14.8700   -9.3890   O 0  0  0  0  0  0  0  0  0  0  0  0
  -45.9620   17.0790  -10.6700   C 0  0  0  0  0  0  0  0  0  0  0  0
  1  2  1  0  0  0  0
  1  7  1  0  0  0  0
  1 11  1  0  0  0  0
  2  3  1  0  0  0  0
  2  8  1  0  0  0  0
  3  4  1  0  0  0  0
  3  9  1  0  0  0  0
  4  5  1  0  0  0  0
  4 10  1  0  0  0  0
  5  6  1  0  0  0  0
  5 11  1  0  0  0  0
  7 12  1  0  0  0  0
A    1
C1
A    2
C2
A    3
C3
A    4
C4
A    5
C5
A    6
C6
A    7
O1
A    8
O2
A    9
O3
A   10
O4
A   11
O5
A   12
CM
M  END
>  <InstanceId>
4C1Y_MFB_A_910

>  <ChemCompId>
MFB

>  <PdbId>
4C1Y

>  <ChainId>
A

>  <ResidueNumber>
910

>  <InsertionCode>


>  <Model>
1

>  <AltIds>


>  <MissingHeavyAtoms>
0

>  <ObservedFormula>
C7 O5

>  <Name>
BETA-L-METHYL-FUCOSE

>  <SystematicName>
(2S,3S,4R,5S,6S)-2-methoxy-6-methyl-oxane-3,4,5-triol

>  <Synonyms>


>  <Type>
L-SACCHARIDE

>  <Formula>
C7 H14 O5

>  <MolecularWeight>
178.183

>  <ModifiedDate>
2011-06-04

>  <Parent>


>  <OneLetterCode>


>  <SubcomponentList>


>  <AmbiguousFlag>
N

>  <InChI>
InChI=1S/C7H14O5/c1-3-4(8)5(9)6(10)7(11-2)12-3/h3-10H,1-2H3/t3-,4+,5+,6-,7-/m0/s1

>  <InChIKey>
OHWCAVRRXKJCRB-XUVCUMPTSA-N

>  <SMILES>
C[C@H]1[C@H]([C@H]([C@@H]([C@H](O1)OC)O)O)O

$$$$
