4DE2_DN3_A_301


 26 28  0  0  0  0  0  0  0  0999 V2000
   -9.1602   56.0055   13.7875 O   0  0  0  0  0  0  0  0  0  0  0  0
   -8.8892   56.0822   12.5930 C   0  0  0  0  0  0  0  0  0  0  0  0
   -7.8999   55.3706   12.0378 N   0  0  0  0  0  0  0  0  0  0  0  0
   -7.7765   55.4393   11.0635 H   0  0  0  0  0  0  0  0  0  0  0  0
   -9.6998   57.0020   11.7089 C   0  0  0  0  0  0  0  0  0  0  0  0
   -9.2436   57.3636   10.4430 C   0  0  0  0  0  0  0  0  0  0  0  0
   -9.9756   58.2814    9.6900 C   0  0  0  0  0  0  0  0  0  0  0  0
  -11.1693   58.8088   10.1687 C   0  0  0  0  0  0  0  0  0  0  0  0
  -11.5666   58.5242   11.4753 C   0  0  0  0  0  0  0  0  0  0  0  0
  -10.8439   57.6045   12.2240 C   0  0  0  0  0  0  0  0  0  0  0  0
  -12.8480   59.1103   12.0459 C   0  0  0  0  0  0  0  0  0  0  0  0
  -13.9843   58.4994   11.3283 N   0  0  0  0  0  0  0  0  0  0  0  0
  -14.6781   57.5810   12.2478 C   0  0  0  0  0  0  0  0  0  0  0  0
  -14.9373   59.5193   10.8644 C   0  0  0  0  0  0  0  0  0  0  0  0
   -7.0206   54.5273   12.7552 C   0  0  0  0  0  0  0  0  0  0  0  0
   -5.6838   54.5093   12.3695 C   0  0  0  0  0  0  0  0  0  0  0  0
   -4.7607   53.7239   13.0524 C   0  0  0  0  0  0  0  0  0  0  0  0
   -5.1619   52.9441   14.1321 C   0  0  0  0  0  0  0  0  0  0  0  0
   -6.4872   52.9763   14.5381 C   0  0  0  0  0  0  0  0  0  0  0  0
   -7.4257   53.7454   13.8369 C   0  0  0  0  0  0  0  0  0  0  0  0
   -3.3419   53.7061   12.6265 C   0  0  0  0  0  0  0  0  0  0  0  0
   -2.2828   53.6688   13.4601 N   0  0  0  0  0  0  0  0  0  0  0  0
   -1.1180   53.6919   12.7029 N   0  0  0  0  0  0  0  0  0  0  0  0
   -1.5117   53.7308   11.3647 N   0  0  0  0  0  0  0  0  0  0  0  0
   -2.9078   53.7561   11.3445 N   0  0  0  0  0  0  0  0  0  0  0  0
   -2.3273   53.6313   14.4429 H   0  0  0  0  0  0  0  0  0  0  0  0
  7  8  2  0  0  0
  7  6  1  0  0  0
  8  9  1  0  0  0
  6  5  2  0  0  0
  9 11  1  0  0  0
  9 10  2  0  0  0
 12 14  1  0  0  0
 12 11  1  0  0  0
 12 13  1  0  0  0
  5 10  1  0  0  0
  5  2  1  0  0  0
 22 23  1  0  0  0
 22 21  1  0  0  0
 23 24  2  0  0  0
  3  2  1  0  0  0
  3 15  1  0  0  0
 16 15  2  0  0  0
 16 17  1  0  0  0
  2  1  2  0  0  0
 15 20  1  0  0  0
 21 17  1  0  0  0
 21 25  2  0  0  0
 24 25  1  0  0  0
 17 18  2  0  0  0
 20 19  2  0  0  0
 18 19  1  0  0  0
  3  4  1  0  0  0
 22 26  1  0  0  0
M  END
> <minimizedAffinity>
-8.37439

$$$$
4DE2_DN3_A_301


 26 28  0  0  0  0  0  0  0  0999 V2000
   -8.7891   54.2205   10.8054 O   0  0  0  0  0  0  0  0  0  0  0  0
   -8.2238   54.7626   11.7502 C   0  0  0  0  0  0  0  0  0  0  0  0
   -8.4815   56.0274   12.1068 N   0  0  0  0  0  0  0  0  0  0  0  0
   -8.0327   56.3780   12.9099 H   0  0  0  0  0  0  0  0  0  0  0  0
   -7.2067   53.9810   12.5499 C   0  0  0  0  0  0  0  0  0  0  0  0
   -7.3987   53.7366   13.9082 C   0  0  0  0  0  0  0  0  0  0  0  0
   -6.3996   53.0869   14.6327 C   0  0  0  0  0  0  0  0  0  0  0  0
   -5.2360   52.6483   14.0116 C   0  0  0  0  0  0  0  0  0  0  0  0
   -5.0041   52.9867   12.6782 C   0  0  0  0  0  0  0  0  0  0  0  0
   -6.0006   53.6263   11.9526 C   0  0  0  0  0  0  0  0  0  0  0  0
   -3.7276   52.5548   11.9747 C   0  0  0  0  0  0  0  0  0  0  0  0
   -2.6433   52.5337   12.9763 N   0  0  0  0  0  0  0  0  0  0  0  0
   -1.8111   51.3415   12.7388 C   0  0  0  0  0  0  0  0  0  0  0  0
   -1.7973   53.7329   12.8772 C   0  0  0  0  0  0  0  0  0  0  0  0
   -9.3541   56.8937   11.4088 C   0  0  0  0  0  0  0  0  0  0  0  0
  -10.5398   57.2610   12.0375 C   0  0  0  0  0  0  0  0  0  0  0  0
  -11.4285   58.1338   11.4179 C   0  0  0  0  0  0  0  0  0  0  0  0
  -11.1437   58.6522   10.1590 C   0  0  0  0  0  0  0  0  0  0  0  0
   -9.9524   58.3108    9.5371 C   0  0  0  0  0  0  0  0  0  0  0  0
   -9.0666   57.4112   10.1458 C   0  0  0  0  0  0  0  0  0  0  0  0
  -12.6920   58.5103   12.0934 C   0  0  0  0  0  0  0  0  0  0  0  0
  -12.9151   59.6814   12.7233 N   0  0  0  0  0  0  0  0  0  0  0  0
  -14.1974   59.6631   13.2581 N   0  0  0  0  0  0  0  0  0  0  0  0
  -14.7563   58.4314   12.9149 N   0  0  0  0  0  0  0  0  0  0  0  0
  -13.7882   57.7220   12.2011 N   0  0  0  0  0  0  0  0  0  0  0  0
  -12.2753   60.4264   12.7928 H   0  0  0  0  0  0  0  0  0  0  0  0
  7  8  2  0  0  0
  7  6  1  0  0  0
  8  9  1  0  0  0
  6  5  2  0  0  0
  9 11  1  0  0  0
  9 10  2  0  0  0
 12 14  1  0  0  0
 12 11  1  0  0  0
 12 13  1  0  0  0
  5 10  1  0  0  0
  5  2  1  0  0  0
 22 23  1  0  0  0
 22 21  1  0  0  0
 23 24  2  0  0  0
  3  2  1  0  0  0
  3 15  1  0  0  0
 16 15  2  0  0  0
 16 17  1  0  0  0
  2  1  2  0  0  0
 15 20  1  0  0  0
 21 17  1  0  0  0
 21 25  2  0  0  0
 24 25  1  0  0  0
 17 18  2  0  0  0
 20 19  2  0  0  0
 18 19  1  0  0  0
  3  4  1  0  0  0
 22 26  1  0  0  0
M  END
> <minimizedAffinity>
-7.45411

$$$$
4DE2_DN3_A_301


 26 28  0  0  0  0  0  0  0  0999 V2000
   -6.9621   55.2322   10.2896 O   0  0  0  0  0  0  0  0  0  0  0  0
   -7.4343   54.7203   11.3001 C   0  0  0  0  0  0  0  0  0  0  0  0
   -8.7526   54.6831   11.5328 N   0  0  0  0  0  0  0  0  0  0  0  0
   -9.0632   54.2058   12.3359 H   0  0  0  0  0  0  0  0  0  0  0  0
   -6.5047   54.1005   12.3180 C   0  0  0  0  0  0  0  0  0  0  0  0
   -6.9984   53.5653   13.5060 C   0  0  0  0  0  0  0  0  0  0  0  0
   -6.1039   53.0796   14.4595 C   0  0  0  0  0  0  0  0  0  0  0  0
   -4.7340   53.0878   14.2247 C   0  0  0  0  0  0  0  0  0  0  0  0
   -4.2405   53.7179   13.0820 C   0  0  0  0  0  0  0  0  0  0  0  0
   -5.1291   54.1950   12.1274 C   0  0  0  0  0  0  0  0  0  0  0  0
   -2.7463   53.7776   12.8082 C   0  0  0  0  0  0  0  0  0  0  0  0
   -2.4960   53.1121   11.5145 N   0  0  0  0  0  0  0  0  0  0  0  0
   -1.1994   53.5778   10.9927 C   0  0  0  0  0  0  0  0  0  0  0  0
   -2.4523   51.6493   11.6627 C   0  0  0  0  0  0  0  0  0  0  0  0
   -9.7288   55.2823   10.7041 C   0  0  0  0  0  0  0  0  0  0  0  0
  -10.1181   56.5846   11.0015 C   0  0  0  0  0  0  0  0  0  0  0  0
  -11.0526   57.2427   10.2083 C   0  0  0  0  0  0  0  0  0  0  0  0
  -11.6120   56.6066    9.1049 C   0  0  0  0  0  0  0  0  0  0  0  0
  -11.2103   55.3181    8.7874 C   0  0  0  0  0  0  0  0  0  0  0  0
  -10.2891   54.6419    9.5988 C   0  0  0  0  0  0  0  0  0  0  0  0
  -11.4659   58.6259   10.5404 C   0  0  0  0  0  0  0  0  0  0  0  0
  -11.1516   59.2766   11.6788 N   0  0  0  0  0  0  0  0  0  0  0  0
  -11.7360   60.5369   11.6482 N   0  0  0  0  0  0  0  0  0  0  0  0
  -12.4120   60.6347   10.4313 N   0  0  0  0  0  0  0  0  0  0  0  0
  -12.2418   59.4198    9.7642 N   0  0  0  0  0  0  0  0  0  0  0  0
  -10.5994   58.9181   12.4107 H   0  0  0  0  0  0  0  0  0  0  0  0
  7  8  2  0  0  0
  7  6  1  0  0  0
  8  9  1  0  0  0
  6  5  2  0  0  0
  9 11  1  0  0  0
  9 10  2  0  0  0
 12 14  1  0  0  0
 12 11  1  0  0  0
 12 13  1  0  0  0
  5 10  1  0  0  0
  5  2  1  0  0  0
 22 23  1  0  0  0
 22 21  1  0  0  0
 23 24  2  0  0  0
  3  2  1  0  0  0
  3 15  1  0  0  0
 16 15  2  0  0  0
 16 17  1  0  0  0
  2  1  2  0  0  0
 15 20  1  0  0  0
 21 17  1  0  0  0
 21 25  2  0  0  0
 24 25  1  0  0  0
 17 18  2  0  0  0
 20 19  2  0  0  0
 18 19  1  0  0  0
  3  4  1  0  0  0
 22 26  1  0  0  0
M  END
> <minimizedAffinity>
-7.30921

$$$$
4DE2_DN3_A_301


 26 28  0  0  0  0  0  0  0  0999 V2000
  -12.4924   56.2330   11.4462 O   0  0  0  0  0  0  0  0  0  0  0  0
  -12.3176   57.4428   11.5565 C   0  0  0  0  0  0  0  0  0  0  0  0
  -11.1536   58.0277   11.2458 N   0  0  0  0  0  0  0  0  0  0  0  0
  -11.1036   59.0091   11.3044 H   0  0  0  0  0  0  0  0  0  0  0  0
  -13.4516   58.3113   12.0509 C   0  0  0  0  0  0  0  0  0  0  0  0
  -13.2512   59.6626   12.3251 C   0  0  0  0  0  0  0  0  0  0  0  0
  -14.2977   60.4128   12.8610 C   0  0  0  0  0  0  0  0  0  0  0  0
  -15.5442   59.8412   13.0885 C   0  0  0  0  0  0  0  0  0  0  0  0
  -15.7085   58.4674   12.9103 C   0  0  0  0  0  0  0  0  0  0  0  0
  -14.6707   57.7198   12.3693 C   0  0  0  0  0  0  0  0  0  0  0  0
  -17.0472   57.8004   13.1822 C   0  0  0  0  0  0  0  0  0  0  0  0
  -16.8874   56.9285   14.3627 N   0  0  0  0  0  0  0  0  0  0  0  0
  -17.6414   57.5166   15.4833 C   0  0  0  0  0  0  0  0  0  0  0  0
  -17.3987   55.5740   14.1030 C   0  0  0  0  0  0  0  0  0  0  0  0
   -9.9918   57.3320   10.8394 C   0  0  0  0  0  0  0  0  0  0  0  0
   -9.1302   56.8769   11.8326 C   0  0  0  0  0  0  0  0  0  0  0  0
   -7.9847   56.1600   11.5020 C   0  0  0  0  0  0  0  0  0  0  0  0
   -7.6840   55.8879   10.1714 C   0  0  0  0  0  0  0  0  0  0  0  0
   -8.5509   56.3162    9.1777 C   0  0  0  0  0  0  0  0  0  0  0  0
   -9.6921   57.0614    9.5043 C   0  0  0  0  0  0  0  0  0  0  0  0
   -7.0703   55.6887   12.5679 C   0  0  0  0  0  0  0  0  0  0  0  0
   -5.7998   55.2805   12.3749 N   0  0  0  0  0  0  0  0  0  0  0  0
   -5.2673   54.8862   13.5962 N   0  0  0  0  0  0  0  0  0  0  0  0
   -6.2658   55.0848   14.5505 N   0  0  0  0  0  0  0  0  0  0  0  0
   -7.3894   55.5714   13.8790 N   0  0  0  0  0  0  0  0  0  0  0  0
   -5.3274   55.2645   11.5112 H   0  0  0  0  0  0  0  0  0  0  0  0
  7  8  2  0  0  0
  7  6  1  0  0  0
  8  9  1  0  0  0
  6  5  2  0  0  0
  9 11  1  0  0  0
  9 10  2  0  0  0
 12 14  1  0  0  0
 12 11  1  0  0  0
 12 13  1  0  0  0
  5 10  1  0  0  0
  5  2  1  0  0  0
 22 23  1  0  0  0
 22 21  1  0  0  0
 23 24  2  0  0  0
  3  2  1  0  0  0
  3 15  1  0  0  0
 16 15  2  0  0  0
 16 17  1  0  0  0
  2  1  2  0  0  0
 15 20  1  0  0  0
 21 17  1  0  0  0
 21 25  2  0  0  0
 24 25  1  0  0  0
 17 18  2  0  0  0
 20 19  2  0  0  0
 18 19  1  0  0  0
  3  4  1  0  0  0
 22 26  1  0  0  0
M  END
> <minimizedAffinity>
-7.13717

$$$$
4DE2_DN3_A_301


 26 28  0  0  0  0  0  0  0  0999 V2000
   -6.8544   55.0732   10.2713 O   0  0  0  0  0  0  0  0  0  0  0  0
   -7.8022   54.8370   11.0144 C   0  0  0  0  0  0  0  0  0  0  0  0
   -7.8608   53.7317   11.7683 N   0  0  0  0  0  0  0  0  0  0  0  0
   -8.6236   53.6360   12.3832 H   0  0  0  0  0  0  0  0  0  0  0  0
   -8.9427   55.8257   11.0945 C   0  0  0  0  0  0  0  0  0  0  0  0
   -9.2297   56.4925   12.2838 C   0  0  0  0  0  0  0  0  0  0  0  0
  -10.3416   57.3324   12.3442 C   0  0  0  0  0  0  0  0  0  0  0  0
  -11.1417   57.5412   11.2269 C   0  0  0  0  0  0  0  0  0  0  0  0
  -10.9114   56.7930   10.0723 C   0  0  0  0  0  0  0  0  0  0  0  0
   -9.8004   55.9623   10.0068 C   0  0  0  0  0  0  0  0  0  0  0  0
  -11.7869   56.9683    8.8418 C   0  0  0  0  0  0  0  0  0  0  0  0
  -13.1555   57.2780    9.3002 N   0  0  0  0  0  0  0  0  0  0  0  0
  -13.7470   58.2601    8.3751 C   0  0  0  0  0  0  0  0  0  0  0  0
  -14.0002   56.0740    9.3208 C   0  0  0  0  0  0  0  0  0  0  0  0
   -6.9020   52.6929   11.7414 C   0  0  0  0  0  0  0  0  0  0  0  0
   -5.6238   52.9807   12.2096 C   0  0  0  0  0  0  0  0  0  0  0  0
   -4.6419   51.9955   12.2380 C   0  0  0  0  0  0  0  0  0  0  0  0
   -4.9248   50.7068   11.7976 C   0  0  0  0  0  0  0  0  0  0  0  0
   -6.2033   50.4059   11.3533 C   0  0  0  0  0  0  0  0  0  0  0  0
   -7.1880   51.4017   11.2982 C   0  0  0  0  0  0  0  0  0  0  0  0
   -3.2821   52.3165   12.7302 C   0  0  0  0  0  0  0  0  0  0  0  0
   -2.8522   53.5477   13.0728 N   0  0  0  0  0  0  0  0  0  0  0  0
   -1.5198   53.4639   13.4580 N   0  0  0  0  0  0  0  0  0  0  0  0
   -1.1559   52.1212   13.3495 N   0  0  0  0  0  0  0  0  0  0  0  0
   -2.2711   51.4269   12.8759 N   0  0  0  0  0  0  0  0  0  0  0  0
   -3.3930   54.3701   13.0533 H   0  0  0  0  0  0  0  0  0  0  0  0
  7  8  2  0  0  0
  7  6  1  0  0  0
  8  9  1  0  0  0
  6  5  2  0  0  0
  9 11  1  0  0  0
  9 10  2  0  0  0
 12 14  1  0  0  0
 12 11  1  0  0  0
 12 13  1  0  0  0
  5 10  1  0  0  0
  5  2  1  0  0  0
 22 23  1  0  0  0
 22 21  1  0  0  0
 23 24  2  0  0  0
  3  2  1  0  0  0
  3 15  1  0  0  0
 16 15  2  0  0  0
 16 17  1  0  0  0
  2  1  2  0  0  0
 15 20  1  0  0  0
 21 17  1  0  0  0
 21 25  2  0  0  0
 24 25  1  0  0  0
 17 18  2  0  0  0
 20 19  2  0  0  0
 18 19  1  0  0  0
  3  4  1  0  0  0
 22 26  1  0  0  0
M  END
> <minimizedAffinity>
-6.96083

$$$$
4DE2_DN3_A_301


 26 28  0  0  0  0  0  0  0  0999 V2000
  -11.0604   55.5908   11.0133 O   0  0  0  0  0  0  0  0  0  0  0  0
  -10.4856   56.6711   10.9196 C   0  0  0  0  0  0  0  0  0  0  0  0
   -9.1706   56.7625   10.6836 N   0  0  0  0  0  0  0  0  0  0  0  0
   -8.7875   57.6615   10.5637 H   0  0  0  0  0  0  0  0  0  0  0  0
  -11.2824   57.9472   11.0655 C   0  0  0  0  0  0  0  0  0  0  0  0
  -10.8289   59.1417   10.5096 C   0  0  0  0  0  0  0  0  0  0  0  0
  -11.5461   60.3161   10.7371 C   0  0  0  0  0  0  0  0  0  0  0  0
  -12.7230   60.3035   11.4765 C   0  0  0  0  0  0  0  0  0  0  0  0
  -13.1154   59.1274   12.1160 C   0  0  0  0  0  0  0  0  0  0  0  0
  -12.4077   57.9551   11.8845 C   0  0  0  0  0  0  0  0  0  0  0  0
  -14.3779   59.0835   12.9617 C   0  0  0  0  0  0  0  0  0  0  0  0
  -15.3537   58.2149   12.2742 N   0  0  0  0  0  0  0  0  0  0  0  0
  -16.1932   57.5588   13.2915 C   0  0  0  0  0  0  0  0  0  0  0  0
  -16.2180   58.9889   11.3700 C   0  0  0  0  0  0  0  0  0  0  0  0
   -8.2946   55.6562   10.5948 C   0  0  0  0  0  0  0  0  0  0  0  0
   -7.5529   55.3265   11.7249 C   0  0  0  0  0  0  0  0  0  0  0  0
   -6.6946   54.2318   11.7137 C   0  0  0  0  0  0  0  0  0  0  0  0
   -6.5655   53.4501   10.5703 C   0  0  0  0  0  0  0  0  0  0  0  0
   -7.3202   53.7573    9.4485 C   0  0  0  0  0  0  0  0  0  0  0  0
   -8.1662   54.8747    9.4466 C   0  0  0  0  0  0  0  0  0  0  0  0
   -5.9033   53.8963   12.9203 C   0  0  0  0  0  0  0  0  0  0  0  0
   -5.9712   54.5491   14.0981 N   0  0  0  0  0  0  0  0  0  0  0  0
   -5.0671   53.9716   14.9811 N   0  0  0  0  0  0  0  0  0  0  0  0
   -4.4511   52.9244   14.2947 N   0  0  0  0  0  0  0  0  0  0  0  0
   -4.9795   52.9091   13.0021 N   0  0  0  0  0  0  0  0  0  0  0  0
   -6.5635   55.3094   14.2992 H   0  0  0  0  0  0  0  0  0  0  0  0
  7  8  2  0  0  0
  7  6  1  0  0  0
  8  9  1  0  0  0
  6  5  2  0  0  0
  9 11  1  0  0  0
  9 10  2  0  0  0
 12 14  1  0  0  0
 12 11  1  0  0  0
 12 13  1  0  0  0
  5 10  1  0  0  0
  5  2  1  0  0  0
 22 23  1  0  0  0
 22 21  1  0  0  0
 23 24  2  0  0  0
  3  2  1  0  0  0
  3 15  1  0  0  0
 16 15  2  0  0  0
 16 17  1  0  0  0
  2  1  2  0  0  0
 15 20  1  0  0  0
 21 17  1  0  0  0
 21 25  2  0  0  0
 24 25  1  0  0  0
 17 18  2  0  0  0
 20 19  2  0  0  0
 18 19  1  0  0  0
  3  4  1  0  0  0
 22 26  1  0  0  0
M  END
> <minimizedAffinity>
-6.74600

$$$$
4DE2_DN3_A_301


 26 28  0  0  0  0  0  0  0  0999 V2000
   -2.5669   54.0723   12.5899 O   0  0  0  0  0  0  0  0  0  0  0  0
   -3.4692   53.2697   12.3711 C   0  0  0  0  0  0  0  0  0  0  0  0
   -3.2635   52.1285   11.7012 N   0  0  0  0  0  0  0  0  0  0  0  0
   -4.0208   51.5057   11.6128 H   0  0  0  0  0  0  0  0  0  0  0  0
   -4.8616   53.5667   12.8787 C   0  0  0  0  0  0  0  0  0  0  0  0
   -5.3562   52.9396   14.0205 C   0  0  0  0  0  0  0  0  0  0  0  0
   -6.6748   53.1729   14.4103 C   0  0  0  0  0  0  0  0  0  0  0  0
   -7.4867   54.0487   13.6991 C   0  0  0  0  0  0  0  0  0  0  0  0
   -7.0212   54.5917   12.5013 C   0  0  0  0  0  0  0  0  0  0  0  0
   -5.7061   54.3675   12.1152 C   0  0  0  0  0  0  0  0  0  0  0  0
   -7.8929   55.5261   11.6779 C   0  0  0  0  0  0  0  0  0  0  0  0
   -8.0783   54.9165   10.3463 N   0  0  0  0  0  0  0  0  0  0  0  0
   -9.4975   54.5526   10.1926 C   0  0  0  0  0  0  0  0  0  0  0  0
   -7.7067   55.8499    9.2719 C   0  0  0  0  0  0  0  0  0  0  0  0
   -2.0330   51.7571   11.1122 C   0  0  0  0  0  0  0  0  0  0  0  0
   -1.2713   52.7593   10.5194 C   0  0  0  0  0  0  0  0  0  0  0  0
   -0.0372   52.4661    9.9480 C   0  0  0  0  0  0  0  0  0  0  0  0
    0.4533   51.1646    9.9612 C   0  0  0  0  0  0  0  0  0  0  0  0
   -0.2883   50.1652   10.5723 C   0  0  0  0  0  0  0  0  0  0  0  0
   -1.5439   50.4508   11.1258 C   0  0  0  0  0  0  0  0  0  0  0  0
    0.7603   53.5402    9.3118 C   0  0  0  0  0  0  0  0  0  0  0  0
    0.2591   54.6938    8.8259 N   0  0  0  0  0  0  0  0  0  0  0  0
    1.2987   55.4378    8.2815 N   0  0  0  0  0  0  0  0  0  0  0  0
    2.4639   54.6931    8.4686 N   0  0  0  0  0  0  0  0  0  0  0  0
    2.0976   53.5027    9.1000 N   0  0  0  0  0  0  0  0  0  0  0  0
   -0.6872   54.9643    8.8526 H   0  0  0  0  0  0  0  0  0  0  0  0
  7  8  2  0  0  0
  7  6  1  0  0  0
  8  9  1  0  0  0
  6  5  2  0  0  0
  9 11  1  0  0  0
  9 10  2  0  0  0
 12 14  1  0  0  0
 12 11  1  0  0  0
 12 13  1  0  0  0
  5 10  1  0  0  0
  5  2  1  0  0  0
 22 23  1  0  0  0
 22 21  1  0  0  0
 23 24  2  0  0  0
  3  2  1  0  0  0
  3 15  1  0  0  0
 16 15  2  0  0  0
 16 17  1  0  0  0
  2  1  2  0  0  0
 15 20  1  0  0  0
 21 17  1  0  0  0
 21 25  2  0  0  0
 24 25  1  0  0  0
 17 18  2  0  0  0
 20 19  2  0  0  0
 18 19  1  0  0  0
  3  4  1  0  0  0
 22 26  1  0  0  0
M  END
> <minimizedAffinity>
-6.74055

$$$$
4DE2_DN3_A_301


 26 28  0  0  0  0  0  0  0  0999 V2000
   -4.6812   51.3146   13.0526 O   0  0  0  0  0  0  0  0  0  0  0  0
   -4.0201   51.8361   12.1597 C   0  0  0  0  0  0  0  0  0  0  0  0
   -4.2695   53.0750   11.7166 N   0  0  0  0  0  0  0  0  0  0  0  0
   -3.6626   53.4503   11.0383 H   0  0  0  0  0  0  0  0  0  0  0  0
   -2.8779   51.0647   11.5392 C   0  0  0  0  0  0  0  0  0  0  0  0
   -2.7795   49.6834   11.6938 C   0  0  0  0  0  0  0  0  0  0  0  0
   -1.6672   49.0167   11.1806 C   0  0  0  0  0  0  0  0  0  0  0  0
   -0.6783   49.7043   10.4868 C   0  0  0  0  0  0  0  0  0  0  0  0
   -0.7297   51.0971   10.4254 C   0  0  0  0  0  0  0  0  0  0  0  0
   -1.8400   51.7625   10.9284 C   0  0  0  0  0  0  0  0  0  0  0  0
    0.3518   51.8863    9.7053 C   0  0  0  0  0  0  0  0  0  0  0  0
   -0.2578   53.1315    9.1983 N   0  0  0  0  0  0  0  0  0  0  0  0
    0.8073   54.1330    9.0169 C   0  0  0  0  0  0  0  0  0  0  0  0
   -0.9314   52.9134    7.9090 C   0  0  0  0  0  0  0  0  0  0  0  0
   -5.3449   53.8808   12.1562 C   0  0  0  0  0  0  0  0  0  0  0  0
   -6.6085   53.6099   11.6407 C   0  0  0  0  0  0  0  0  0  0  0  0
   -7.7142   54.3462   12.0539 C   0  0  0  0  0  0  0  0  0  0  0  0
   -7.5716   55.3654   12.9897 C   0  0  0  0  0  0  0  0  0  0  0  0
   -6.3199   55.6245   13.5267 C   0  0  0  0  0  0  0  0  0  0  0  0
   -5.1989   54.9031   13.0939 C   0  0  0  0  0  0  0  0  0  0  0  0
   -9.0531   54.0544   11.4910 C   0  0  0  0  0  0  0  0  0  0  0  0
   -9.7915   54.9147   10.7611 N   0  0  0  0  0  0  0  0  0  0  0  0
  -10.9952   54.3030   10.4335 N   0  0  0  0  0  0  0  0  0  0  0  0
  -10.9554   53.0215   10.9845 N   0  0  0  0  0  0  0  0  0  0  0  0
   -9.7370   52.8969   11.6553 N   0  0  0  0  0  0  0  0  0  0  0  0
   -9.5221   55.8258   10.5030 H   0  0  0  0  0  0  0  0  0  0  0  0
  7  8  2  0  0  0
  7  6  1  0  0  0
  8  9  1  0  0  0
  6  5  2  0  0  0
  9 11  1  0  0  0
  9 10  2  0  0  0
 12 14  1  0  0  0
 12 11  1  0  0  0
 12 13  1  0  0  0
  5 10  1  0  0  0
  5  2  1  0  0  0
 22 23  1  0  0  0
 22 21  1  0  0  0
 23 24  2  0  0  0
  3  2  1  0  0  0
  3 15  1  0  0  0
 16 15  2  0  0  0
 16 17  1  0  0  0
  2  1  2  0  0  0
 15 20  1  0  0  0
 21 17  1  0  0  0
 21 25  2  0  0  0
 24 25  1  0  0  0
 17 18  2  0  0  0
 20 19  2  0  0  0
 18 19  1  0  0  0
  3  4  1  0  0  0
 22 26  1  0  0  0
M  END
> <minimizedAffinity>
-6.73894

$$$$
4DE2_DN3_A_301


 26 28  0  0  0  0  0  0  0  0999 V2000
  -12.1519   56.3404   11.3895 O   0  0  0  0  0  0  0  0  0  0  0  0
  -11.9857   57.5300   11.1381 C   0  0  0  0  0  0  0  0  0  0  0  0
  -10.8425   57.9980   10.6209 N   0  0  0  0  0  0  0  0  0  0  0  0
  -10.8007   58.9544   10.3913 H   0  0  0  0  0  0  0  0  0  0  0  0
  -13.1071   58.5065   11.4098 C   0  0  0  0  0  0  0  0  0  0  0  0
  -13.1218   59.2739   12.5727 C   0  0  0  0  0  0  0  0  0  0  0  0
  -14.2149   60.1008   12.8310 C   0  0  0  0  0  0  0  0  0  0  0  0
  -15.2677   60.1972   11.9287 C   0  0  0  0  0  0  0  0  0  0  0  0
  -15.2968   59.3511   10.8199 C   0  0  0  0  0  0  0  0  0  0  0  0
  -14.2061   58.5329   10.5562 C   0  0  0  0  0  0  0  0  0  0  0  0
  -16.4489   59.4030    9.8294 C   0  0  0  0  0  0  0  0  0  0  0  0
  -15.8939   59.1928    8.4777 N   0  0  0  0  0  0  0  0  0  0  0  0
  -16.7824   58.2738    7.7455 C   0  0  0  0  0  0  0  0  0  0  0  0
  -15.7991   60.4580    7.7334 C   0  0  0  0  0  0  0  0  0  0  0  0
   -9.6916   57.2124   10.3820 C   0  0  0  0  0  0  0  0  0  0  0  0
   -8.9271   56.8346   11.4815 C   0  0  0  0  0  0  0  0  0  0  0  0
   -7.7989   56.0371   11.3188 C   0  0  0  0  0  0  0  0  0  0  0  0
   -7.4185   55.6056   10.0524 C   0  0  0  0  0  0  0  0  0  0  0  0
   -8.1895   55.9569    8.9549 C   0  0  0  0  0  0  0  0  0  0  0  0
   -9.3116   56.7819    9.1108 C   0  0  0  0  0  0  0  0  0  0  0  0
   -6.9879   55.6490   12.4962 C   0  0  0  0  0  0  0  0  0  0  0  0
   -5.7065   55.2317   12.4514 N   0  0  0  0  0  0  0  0  0  0  0  0
   -5.2898   54.9308   13.7423 N   0  0  0  0  0  0  0  0  0  0  0  0
   -6.3710   55.1966   14.5836 N   0  0  0  0  0  0  0  0  0  0  0  0
   -7.4264   55.6285   13.7776 N   0  0  0  0  0  0  0  0  0  0  0  0
   -5.1570   55.1531   11.6383 H   0  0  0  0  0  0  0  0  0  0  0  0
  7  8  2  0  0  0
  7  6  1  0  0  0
  8  9  1  0  0  0
  6  5  2  0  0  0
  9 11  1  0  0  0
  9 10  2  0  0  0
 12 14  1  0  0  0
 12 11  1  0  0  0
 12 13  1  0  0  0
  5 10  1  0  0  0
  5  2  1  0  0  0
 22 23  1  0  0  0
 22 21  1  0  0  0
 23 24  2  0  0  0
  3  2  1  0  0  0
  3 15  1  0  0  0
 16 15  2  0  0  0
 16 17  1  0  0  0
  2  1  2  0  0  0
 15 20  1  0  0  0
 21 17  1  0  0  0
 21 25  2  0  0  0
 24 25  1  0  0  0
 17 18  2  0  0  0
 20 19  2  0  0  0
 18 19  1  0  0  0
  3  4  1  0  0  0
 22 26  1  0  0  0
M  END
> <minimizedAffinity>
-6.61213

$$$$
4DE2_DN3_A_301


 26 28  0  0  0  0  0  0  0  0999 V2000
   -5.3482   54.8499   13.3648 O   0  0  0  0  0  0  0  0  0  0  0  0
   -5.9873   54.4607   12.3920 C   0  0  0  0  0  0  0  0  0  0  0  0
   -5.6803   53.3315   11.7408 N   0  0  0  0  0  0  0  0  0  0  0  0
   -6.2713   53.0513   11.0050 H   0  0  0  0  0  0  0  0  0  0  0  0
   -7.1681   55.2723   11.9106 C   0  0  0  0  0  0  0  0  0  0  0  0
   -8.1446   55.7130   12.8014 C   0  0  0  0  0  0  0  0  0  0  0  0
   -9.2635   56.3853   12.3100 C   0  0  0  0  0  0  0  0  0  0  0  0
   -9.3977   56.6534   10.9527 C   0  0  0  0  0  0  0  0  0  0  0  0
   -8.4712   56.1205   10.0562 C   0  0  0  0  0  0  0  0  0  0  0  0
   -7.3522   55.4579   10.5435 C   0  0  0  0  0  0  0  0  0  0  0  0
   -8.6040   56.3631    8.5613 C   0  0  0  0  0  0  0  0  0  0  0  0
   -9.2860   55.1941    7.9717 N   0  0  0  0  0  0  0  0  0  0  0  0
  -10.6042   55.6242    7.4741 C   0  0  0  0  0  0  0  0  0  0  0  0
   -8.5151   54.6305    6.8529 C   0  0  0  0  0  0  0  0  0  0  0  0
   -4.5654   52.5143   12.0377 C   0  0  0  0  0  0  0  0  0  0  0  0
   -3.4009   52.7179   11.3039 C   0  0  0  0  0  0  0  0  0  0  0  0
   -2.2589   51.9678   11.5660 C   0  0  0  0  0  0  0  0  0  0  0  0
   -2.2654   51.0019   12.5669 C   0  0  0  0  0  0  0  0  0  0  0  0
   -3.4142   50.8109   13.3193 C   0  0  0  0  0  0  0  0  0  0  0  0
   -4.5748   51.5456   13.0413 C   0  0  0  0  0  0  0  0  0  0  0  0
   -1.0278   52.1875   10.7717 C   0  0  0  0  0  0  0  0  0  0  0  0
   -0.7577   53.2943   10.0506 N   0  0  0  0  0  0  0  0  0  0  0  0
    0.4697   53.1281    9.4210 N   0  0  0  0  0  0  0  0  0  0  0  0
    0.9472   51.8731    9.8007 N   0  0  0  0  0  0  0  0  0  0  0  0
   -0.0160   51.2979   10.6323 N   0  0  0  0  0  0  0  0  0  0  0  0
   -1.3349   54.0889    9.9816 H   0  0  0  0  0  0  0  0  0  0  0  0
  7  8  2  0  0  0
  7  6  1  0  0  0
  8  9  1  0  0  0
  6  5  2  0  0  0
  9 11  1  0  0  0
  9 10  2  0  0  0
 12 14  1  0  0  0
 12 11  1  0  0  0
 12 13  1  0  0  0
  5 10  1  0  0  0
  5  2  1  0  0  0
 22 23  1  0  0  0
 22 21  1  0  0  0
 23 24  2  0  0  0
  3  2  1  0  0  0
  3 15  1  0  0  0
 16 15  2  0  0  0
 16 17  1  0  0  0
  2  1  2  0  0  0
 15 20  1  0  0  0
 21 17  1  0  0  0
 21 25  2  0  0  0
 24 25  1  0  0  0
 17 18  2  0  0  0
 20 19  2  0  0  0
 18 19  1  0  0  0
  3  4  1  0  0  0
 22 26  1  0  0  0
M  END
> <minimizedAffinity>
-6.60555

$$$$
