4DE2_DN3_A_301
  RCSB PDB12061712113D
Coordinates from PDB:4DE2:A:301 Model:1 without hydrogens
 24 26  0  0  0  0            999 V2000
   -9.2570   55.8220   13.5960   O 0  0  0  0  0  0  0  0  0  0  0  0
   -8.8590   55.9810   12.4460   C 0  0  0  0  0  0  0  0  0  0  0  0
   -9.6340   56.8840   11.5140   C 0  0  0  0  0  0  0  0  0  0  0  0
   -9.2810   56.9990   10.1710   C 0  0  0  0  0  0  0  0  0  0  0  0
   -9.9640   57.9060    9.3610   C 0  0  0  0  0  0  0  0  0  0  0  0
  -11.0130   58.6660    9.8650   C 0  0  0  0  0  0  0  0  0  0  0  0
  -11.2930   58.6230   11.2310   C 0  0  0  0  0  0  0  0  0  0  0  0
  -12.4100   59.4660   11.8250   C 0  0  0  0  0  0  0  0  0  0  0  0
  -13.6880   58.9840   11.2650   N 0  0  0  0  0  0  0  0  0  0  0  0
  -13.9840   57.6630   11.8460   C 0  0  0  0  0  0  0  0  0  0  0  0
  -14.7930   59.9020   11.5810   C 0  0  0  0  0  0  0  0  0  0  0  0
  -10.6200   57.7150   12.0380   C 0  0  0  0  0  0  0  0  0  0  0  0
   -7.7600   55.3740   11.9800   N 0  0  0  0  0  0  0  0  0  0  0  0
   -6.9040   54.5610   12.7580   C 0  0  0  0  0  0  0  0  0  0  0  0
   -5.5580   54.5190   12.4080   C 0  0  0  0  0  0  0  0  0  0  0  0
   -4.6570   53.7620   13.1500   C 0  0  0  0  0  0  0  0  0  0  0  0
   -5.0900   53.0350   14.2540   C 0  0  0  0  0  0  0  0  0  0  0  0
   -6.4250   53.0920   14.6240   C 0  0  0  0  0  0  0  0  0  0  0  0
   -7.3410   53.8320   13.8640   C 0  0  0  0  0  0  0  0  0  0  0  0
   -3.2280   53.7180   12.7620   C 0  0  0  0  0  0  0  0  0  0  0  0
   -2.7510   53.9830   11.5290   N 0  0  0  0  0  0  0  0  0  0  0  0
   -1.3720   53.8130   11.5380   N 0  0  0  0  0  0  0  0  0  0  0  0
   -1.0230   53.4450   12.8380   N 0  0  0  0  0  0  0  0  0  0  0  0
   -2.2040   53.3760   13.5800   N 0  0  0  0  0  0  0  0  0  0  0  0
  5  6  2  0  0  0  0
  5  4  1  0  0  0  0
  6  7  1  0  0  0  0
  4  3  2  0  0  0  0
  7  8  1  0  0  0  0
  7 12  2  0  0  0  0
  9 11  1  0  0  0  0
  9  8  1  0  0  0  0
  9 10  1  0  0  0  0
  3 12  1  0  0  0  0
  3  2  1  0  0  0  0
 21 22  1  0  0  0  0
 21 20  1  0  0  0  0
 22 23  2  0  0  0  0
 13  2  1  0  0  0  0
 13 14  1  0  0  0  0
 15 14  2  0  0  0  0
 15 16  1  0  0  0  0
  2  1  2  0  0  0  0
 14 19  1  0  0  0  0
 20 16  1  0  0  0  0
 20 24  2  0  0  0  0
 23 24  1  0  0  0  0
 16 17  2  0  0  0  0
 19 18  2  0  0  0  0
 17 18  1  0  0  0  0
A    1
O14
A    2
C13
A    3
C15
A    4
C16
A    5
C17
A    6
C18
A    7
C19
A    8
C21
A    9
N22
A   10
C23
A   11
C24
A   12
C20
A   13
N12
A   14
C10
A   15
C11
A   16
C6
A   17
C7
A   18
C8
A   19
C9
A   20
C2
A   21
N1
A   22
N5
A   23
N4
A   24
N3
M  END
>  <InstanceId>
4DE2_DN3_A_301

>  <ChemCompId>
DN3

>  <PdbId>
4DE2

>  <ChainId>
A

>  <ResidueNumber>
301

>  <InsertionCode>


>  <Model>
1

>  <AltIds>


>  <MissingHeavyAtoms>
0

>  <ObservedFormula>
C17 N6 O

>  <Name>
3-[(dimethylamino)methyl]-N-[3-(1H-tetrazol-5-yl)phenyl]benzamide

>  <SystematicName>
3-[(dimethylamino)methyl]-N-[3-(1H-1,2,3,4-tetrazol-5-yl)phenyl]benzamide

>  <Synonyms>


>  <Type>
NON-POLYMER

>  <Formula>
C17 H18 N6 O

>  <MolecularWeight>
322.364

>  <ModifiedDate>
2012-03-23

>  <Parent>


>  <OneLetterCode>


>  <SubcomponentList>


>  <AmbiguousFlag>
N

>  <InChI>
InChI=1S/C17H18N6O/c1-23(2)11-12-5-3-7-14(9-12)17(24)18-15-8-4-6-13(10-15)16-19-21-22-20-16/h3-10H,11H2,1-2H3,(H,18,24)(H,19,20,21,22)

>  <InChIKey>
YNFKRUNLXWQDEZ-UHFFFAOYSA-N

>  <SMILES>
CN(C)Cc1cccc(c1)C(=O)Nc2cccc(c2)c3[nH]nnn3

$$$$
