5ZAG_94I_U_301


 32 34  0  0  0  0  0  0  0  0999 V2000
  -28.6395  -16.0243   -2.1133 C   0  0  0  0  0  0  0  0  0  0  0  0
  -28.4614  -17.2480   -4.5803 C   0  0  0  0  0  0  0  0  0  0  0  0
  -27.5586  -16.3056   -4.2041 N   0  0  0  0  0  0  0  0  0  0  0  0
  -29.4743  -17.5746   -3.6964 C   0  0  0  0  0  0  0  0  0  0  0  0
  -29.5248  -16.9709   -2.4891 N   0  0  0  0  0  0  0  0  0  0  0  0
  -28.3619  -17.8258   -5.8068 N   0  0  0  0  0  0  0  0  0  0  0  0
  -27.5970  -15.6973   -2.9878 C   0  0  0  0  0  0  0  0  0  0  0  0
  -27.6289  -17.5714   -6.4128 H   0  0  0  0  0  0  0  0  0  0  0  0
  -29.0228  -18.4987   -6.0891 H   0  0  0  0  0  0  0  0  0  0  0  0
  -27.0379  -13.3244   -3.2080 C   0  0  0  0  0  0  0  0  0  0  0  0
  -26.1836  -12.2182   -2.5750 C   0  0  0  0  0  0  0  0  0  0  0  0
  -24.7328  -12.1268   -3.0575 C   0  0  0  0  0  0  0  0  0  0  0  0
  -25.3009  -14.9773   -2.2944 C   0  0  0  0  0  0  0  0  0  0  0  0
  -24.3632  -14.6896   -3.4665 C   0  0  0  0  0  0  0  0  0  0  0  0
  -26.6490  -14.6866   -2.7624 N   0  0  0  0  0  0  0  0  0  0  0  0
  -24.2592  -13.2422   -3.9890 C   0  0  0  0  0  0  0  0  0  0  0  0
  -29.3549  -14.2287   -0.5274 C   0  0  0  0  0  0  0  0  0  0  0  0
  -29.1108  -14.4457    1.7755 C   0  0  0  0  0  0  0  0  0  0  0  0
  -28.8332  -15.5136   -0.7211 C   0  0  0  0  0  0  0  0  0  0  0  0
  -29.4954  -13.7220    0.7105 N   0  0  0  0  0  0  0  0  0  0  0  0
  -28.5792  -15.6740    1.6217 N   0  0  0  0  0  0  0  0  0  0  0  0
  -28.4143  -16.2192    0.4060 C   0  0  0  0  0  0  0  0  0  0  0  0
  -30.9891  -19.1985   -2.8917 N   0  0  0  0  0  0  0  0  0  0  0  0
  -30.9814  -18.6998   -5.1141 O   0  0  0  0  0  0  0  0  0  0  0  0
  -30.5425  -18.5730   -3.9836 C   0  0  0  0  0  0  0  0  0  0  0  0
  -30.5733  -18.9291   -2.0410 H   0  0  0  0  0  0  0  0  0  0  0  0
  -31.9219  -20.1366   -2.8092 C   0  0  0  0  0  0  0  0  0  0  0  0
  -32.1411  -20.8919   -3.8696 N   0  0  0  0  0  0  0  0  0  0  0  0
  -32.6077  -20.3275   -1.6975 N   0  0  0  0  0  0  0  0  0  0  0  0
  -32.8276  -21.5969   -3.8383 H   0  0  0  0  0  0  0  0  0  0  0  0
  -31.6180  -20.7502   -4.6915 H   0  0  0  0  0  0  0  0  0  0  0  0
  -32.4384  -19.7600   -0.9110 H   0  0  0  0  0  0  0  0  0  0  0  0
  6  2  1  0  0  0
 24 25  2  0  0  0
 29 27  2  0  0  0
  2  3  2  0  0  0
  2  4  1  0  0  0
 25  4  1  0  0  0
 25 23  1  0  0  0
  3  7  1  0  0  0
  4  5  2  0  0  0
 27 23  1  0  0  0
 27 28  1  0  0  0
 14 13  1  0  0  0
 14 16  1  0  0  0
 13 15  1  0  0  0
  7 15  1  0  0  0
  7  1  2  0  0  0
 16 12  1  0  0  0
  5  1  1  0  0  0
 15 10  1  0  0  0
  1 19  1  0  0  0
 10 11  1  0  0  0
 12 11  1  0  0  0
 19 17  2  0  0  0
 19 22  1  0  0  0
 17 20  1  0  0  0
 22 21  2  0  0  0
 20 18  2  0  0  0
 21 18  1  0  0  0
 23 26  1  0  0  0
 28 30  1  0  0  0
 28 31  1  0  0  0
 29 32  1  0  0  0
  6  8  1  0  0  0
  6  9  1  0  0  0
M  END
> <minimizedAffinity>
-9.22585

$$$$
5ZAG_94I_U_301


 32 34  0  0  0  0  0  0  0  0999 V2000
  -28.1420  -16.9950   -1.0823 C   0  0  0  0  0  0  0  0  0  0  0  0
  -28.7446  -16.8041   -3.7685 C   0  0  0  0  0  0  0  0  0  0  0  0
  -27.9392  -15.8893   -3.1692 N   0  0  0  0  0  0  0  0  0  0  0  0
  -29.2580  -17.8307   -2.9962 C   0  0  0  0  0  0  0  0  0  0  0  0
  -28.9308  -17.9072   -1.6880 N   0  0  0  0  0  0  0  0  0  0  0  0
  -29.0394  -16.6802   -5.0899 N   0  0  0  0  0  0  0  0  0  0  0  0
  -27.5982  -15.9621   -1.8542 C   0  0  0  0  0  0  0  0  0  0  0  0
  -28.6577  -15.9380   -5.6119 H   0  0  0  0  0  0  0  0  0  0  0  0
  -29.6346  -17.3328   -5.5247 H   0  0  0  0  0  0  0  0  0  0  0  0
  -27.5491  -13.6380   -1.0873 C   0  0  0  0  0  0  0  0  0  0  0  0
  -26.7794  -12.6837   -0.1647 C   0  0  0  0  0  0  0  0  0  0  0  0
  -25.5337  -12.0242   -0.7643 C   0  0  0  0  0  0  0  0  0  0  0  0
  -25.3711  -14.9838   -1.2589 C   0  0  0  0  0  0  0  0  0  0  0  0
  -24.8197  -14.0189   -2.3080 C   0  0  0  0  0  0  0  0  0  0  0  0
  -26.8227  -14.9066   -1.3485 N   0  0  0  0  0  0  0  0  0  0  0  0
  -25.1112  -12.5126   -2.1495 C   0  0  0  0  0  0  0  0  0  0  0  0
  -26.6687  -17.9393    0.7033 C   0  0  0  0  0  0  0  0  0  0  0  0
  -27.2993  -17.9598    2.9420 C   0  0  0  0  0  0  0  0  0  0  0  0
  -27.8559  -17.2825    0.3571 C   0  0  0  0  0  0  0  0  0  0  0  0
  -26.4050  -18.2558    1.9836 N   0  0  0  0  0  0  0  0  0  0  0  0
  -28.4633  -17.3534    2.6386 N   0  0  0  0  0  0  0  0  0  0  0  0
  -28.7730  -17.0233    1.3746 C   0  0  0  0  0  0  0  0  0  0  0  0
  -31.0936  -19.2716   -2.6309 N   0  0  0  0  0  0  0  0  0  0  0  0
  -30.0794  -19.2693   -4.6704 O   0  0  0  0  0  0  0  0  0  0  0  0
  -30.1686  -18.8899   -3.5150 C   0  0  0  0  0  0  0  0  0  0  0  0
  -31.0704  -18.8145   -1.7593 H   0  0  0  0  0  0  0  0  0  0  0  0
  -32.0391  -20.1885   -2.7793 C   0  0  0  0  0  0  0  0  0  0  0  0
  -32.7877  -20.4863   -1.7334 N   0  0  0  0  0  0  0  0  0  0  0  0
  -32.2439  -20.7824   -3.9404 N   0  0  0  0  0  0  0  0  0  0  0  0
  -33.4979  -21.1634   -1.8132 H   0  0  0  0  0  0  0  0  0  0  0  0
  -32.6357  -20.0313   -0.8738 H   0  0  0  0  0  0  0  0  0  0  0  0
  -31.6814  -20.5548   -4.7157 H   0  0  0  0  0  0  0  0  0  0  0  0
  6  2  1  0  0  0
 24 25  2  0  0  0
 29 27  2  0  0  0
  2  3  2  0  0  0
  2  4  1  0  0  0
 25  4  1  0  0  0
 25 23  1  0  0  0
  3  7  1  0  0  0
  4  5  2  0  0  0
 27 23  1  0  0  0
 27 28  1  0  0  0
 14 13  1  0  0  0
 14 16  1  0  0  0
 13 15  1  0  0  0
  7 15  1  0  0  0
  7  1  2  0  0  0
 16 12  1  0  0  0
  5  1  1  0  0  0
 15 10  1  0  0  0
  1 19  1  0  0  0
 10 11  1  0  0  0
 12 11  1  0  0  0
 19 17  2  0  0  0
 19 22  1  0  0  0
 17 20  1  0  0  0
 22 21  2  0  0  0
 20 18  2  0  0  0
 21 18  1  0  0  0
 23 26  1  0  0  0
 28 30  1  0  0  0
 28 31  1  0  0  0
 29 32  1  0  0  0
  6  8  1  0  0  0
  6  9  1  0  0  0
M  END
> <minimizedAffinity>
-9.10566

$$$$
5ZAG_94I_U_301


 32 34  0  0  0  0  0  0  0  0999 V2000
  -28.1612  -16.9552   -1.0864 C   0  0  0  0  0  0  0  0  0  0  0  0
  -28.7853  -16.7787   -3.7686 C   0  0  0  0  0  0  0  0  0  0  0  0
  -27.9966  -15.8460   -3.1748 N   0  0  0  0  0  0  0  0  0  0  0  0
  -29.2707  -17.8162   -2.9928 C   0  0  0  0  0  0  0  0  0  0  0  0
  -28.9334  -17.8850   -1.6867 N   0  0  0  0  0  0  0  0  0  0  0  0
  -29.0913  -16.6619   -5.0880 N   0  0  0  0  0  0  0  0  0  0  0  0
  -27.6455  -15.9107   -1.8620 C   0  0  0  0  0  0  0  0  0  0  0  0
  -28.7296  -15.9115   -5.6127 H   0  0  0  0  0  0  0  0  0  0  0  0
  -29.6747  -17.3278   -5.5188 H   0  0  0  0  0  0  0  0  0  0  0  0
  -25.4192  -15.0385   -1.3380 C   0  0  0  0  0  0  0  0  0  0  0  0
  -24.6362  -13.7269   -1.1927 C   0  0  0  0  0  0  0  0  0  0  0  0
  -24.7174  -13.0407    0.1743 C   0  0  0  0  0  0  0  0  0  0  0  0
  -27.5099  -13.6789   -0.7340 C   0  0  0  0  0  0  0  0  0  0  0  0
  -27.1711  -13.7583    0.7541 C   0  0  0  0  0  0  0  0  0  0  0  0
  -26.8905  -14.8381   -1.3615 N   0  0  0  0  0  0  0  0  0  0  0  0
  -25.6926  -13.6518    1.1801 C   0  0  0  0  0  0  0  0  0  0  0  0
  -26.6339  -17.8199    0.6942 C   0  0  0  0  0  0  0  0  0  0  0  0
  -27.2647  -17.8976    2.9317 C   0  0  0  0  0  0  0  0  0  0  0  0
  -27.8594  -17.2358    0.3513 C   0  0  0  0  0  0  0  0  0  0  0  0
  -26.3525  -18.1296    1.9725 N   0  0  0  0  0  0  0  0  0  0  0  0
  -28.4639  -17.3626    2.6311 N   0  0  0  0  0  0  0  0  0  0  0  0
  -28.7921  -17.0423    1.3692 C   0  0  0  0  0  0  0  0  0  0  0  0
  -31.1087  -19.2563   -2.6370 N   0  0  0  0  0  0  0  0  0  0  0  0
  -30.0367  -19.3086   -4.6460 O   0  0  0  0  0  0  0  0  0  0  0  0
  -30.1608  -18.8956   -3.5054 C   0  0  0  0  0  0  0  0  0  0  0  0
  -31.1127  -18.7735   -1.7790 H   0  0  0  0  0  0  0  0  0  0  0  0
  -32.0451  -20.1828   -2.7848 C   0  0  0  0  0  0  0  0  0  0  0  0
  -32.7637  -20.5161   -1.7287 N   0  0  0  0  0  0  0  0  0  0  0  0
  -32.2701  -20.7515   -3.9547 N   0  0  0  0  0  0  0  0  0  0  0  0
  -33.4664  -21.2011   -1.8077 H   0  0  0  0  0  0  0  0  0  0  0  0
  -32.5969  -20.0797   -0.8621 H   0  0  0  0  0  0  0  0  0  0  0  0
  -31.7298  -20.4975   -4.7375 H   0  0  0  0  0  0  0  0  0  0  0  0
  6  2  1  0  0  0
 24 25  2  0  0  0
 29 27  2  0  0  0
  2  3  2  0  0  0
  2  4  1  0  0  0
 25  4  1  0  0  0
 25 23  1  0  0  0
  3  7  1  0  0  0
  4  5  2  0  0  0
 27 23  1  0  0  0
 27 28  1  0  0  0
 14 13  1  0  0  0
 14 16  1  0  0  0
 13 15  1  0  0  0
  7 15  1  0  0  0
  7  1  2  0  0  0
 16 12  1  0  0  0
  5  1  1  0  0  0
 15 10  1  0  0  0
  1 19  1  0  0  0
 10 11  1  0  0  0
 12 11  1  0  0  0
 19 17  2  0  0  0
 19 22  1  0  0  0
 17 20  1  0  0  0
 22 21  2  0  0  0
 20 18  2  0  0  0
 21 18  1  0  0  0
 23 26  1  0  0  0
 28 30  1  0  0  0
 28 31  1  0  0  0
 29 32  1  0  0  0
  6  8  1  0  0  0
  6  9  1  0  0  0
M  END
> <minimizedAffinity>
-9.01218

$$$$
5ZAG_94I_U_301


 32 34  0  0  0  0  0  0  0  0999 V2000
  -28.4779  -15.5082   -0.0582 C   0  0  0  0  0  0  0  0  0  0  0  0
  -28.4559  -15.0242   -2.7748 C   0  0  0  0  0  0  0  0  0  0  0  0
  -28.1412  -14.0426   -1.8905 N   0  0  0  0  0  0  0  0  0  0  0  0
  -28.7917  -16.2708   -2.2778 C   0  0  0  0  0  0  0  0  0  0  0  0
  -28.7764  -16.4818   -0.9437 N   0  0  0  0  0  0  0  0  0  0  0  0
  -28.4529  -14.7574   -4.1079 N   0  0  0  0  0  0  0  0  0  0  0  0
  -28.1161  -14.2473   -0.5458 C   0  0  0  0  0  0  0  0  0  0  0  0
  -28.2090  -13.8595   -4.4296 H   0  0  0  0  0  0  0  0  0  0  0  0
  -28.6946  -15.4621   -4.7515 H   0  0  0  0  0  0  0  0  0  0  0  0
  -29.0284  -12.2958    0.6166 C   0  0  0  0  0  0  0  0  0  0  0  0
  -28.7626  -11.3597    1.8029 C   0  0  0  0  0  0  0  0  0  0  0  0
  -27.8240  -10.1795    1.5338 C   0  0  0  0  0  0  0  0  0  0  0  0
  -26.4938  -12.6910    0.5575 C   0  0  0  0  0  0  0  0  0  0  0  0
  -26.2753  -11.3843   -0.2044 C   0  0  0  0  0  0  0  0  0  0  0  0
  -27.8507  -13.1246    0.2543 N   0  0  0  0  0  0  0  0  0  0  0  0
  -27.1367  -10.1606    0.1688 C   0  0  0  0  0  0  0  0  0  0  0  0
  -27.3865  -16.7078    1.8446 C   0  0  0  0  0  0  0  0  0  0  0  0
  -28.4084  -16.9136    3.9239 C   0  0  0  0  0  0  0  0  0  0  0  0
  -28.4659  -15.9528    1.3697 C   0  0  0  0  0  0  0  0  0  0  0  0
  -27.3690  -17.1642    3.1097 N   0  0  0  0  0  0  0  0  0  0  0  0
  -29.4747  -16.2143    3.4893 N   0  0  0  0  0  0  0  0  0  0  0  0
  -29.5397  -15.7433    2.2337 C   0  0  0  0  0  0  0  0  0  0  0  0
  -30.1668  -18.1625   -2.6087 N   0  0  0  0  0  0  0  0  0  0  0  0
  -28.6596  -17.5966   -4.2200 O   0  0  0  0  0  0  0  0  0  0  0  0
  -29.1772  -17.4320   -3.1283 C   0  0  0  0  0  0  0  0  0  0  0  0
  -30.5230  -17.8524   -1.7449 H   0  0  0  0  0  0  0  0  0  0  0  0
  -30.7299  -19.2528   -3.1099 C   0  0  0  0  0  0  0  0  0  0  0  0
  -31.2254  -20.1410   -2.2682 N   0  0  0  0  0  0  0  0  0  0  0  0
  -30.8109  -19.4471   -4.4131 N   0  0  0  0  0  0  0  0  0  0  0  0
  -31.6498  -20.9606   -2.6108 H   0  0  0  0  0  0  0  0  0  0  0  0
  -31.1706  -19.9837   -1.2978 H   0  0  0  0  0  0  0  0  0  0  0  0
  -30.4390  -18.7800   -5.0343 H   0  0  0  0  0  0  0  0  0  0  0  0
  6  2  1  0  0  0
 24 25  2  0  0  0
 29 27  2  0  0  0
  2  3  2  0  0  0
  2  4  1  0  0  0
 25  4  1  0  0  0
 25 23  1  0  0  0
  3  7  1  0  0  0
  4  5  2  0  0  0
 27 23  1  0  0  0
 27 28  1  0  0  0
 14 13  1  0  0  0
 14 16  1  0  0  0
 13 15  1  0  0  0
  7 15  1  0  0  0
  7  1  2  0  0  0
 16 12  1  0  0  0
  5  1  1  0  0  0
 15 10  1  0  0  0
  1 19  1  0  0  0
 10 11  1  0  0  0
 12 11  1  0  0  0
 19 17  2  0  0  0
 19 22  1  0  0  0
 17 20  1  0  0  0
 22 21  2  0  0  0
 20 18  2  0  0  0
 21 18  1  0  0  0
 23 26  1  0  0  0
 28 30  1  0  0  0
 28 31  1  0  0  0
 29 32  1  0  0  0
  6  8  1  0  0  0
  6  9  1  0  0  0
M  END
> <minimizedAffinity>
-7.84097

$$$$
5ZAG_94I_U_301


 32 34  0  0  0  0  0  0  0  0999 V2000
  -28.0855  -14.7912   -2.2651 C   0  0  0  0  0  0  0  0  0  0  0  0
  -27.3954  -16.5617   -4.2660 C   0  0  0  0  0  0  0  0  0  0  0  0
  -26.4963  -15.6596   -3.7945 N   0  0  0  0  0  0  0  0  0  0  0  0
  -28.6666  -16.5665   -3.7201 C   0  0  0  0  0  0  0  0  0  0  0  0
  -28.9691  -15.6993   -2.7298 N   0  0  0  0  0  0  0  0  0  0  0  0
  -27.0366  -17.4136   -5.2629 N   0  0  0  0  0  0  0  0  0  0  0  0
  -26.7893  -14.7871   -2.7926 C   0  0  0  0  0  0  0  0  0  0  0  0
  -26.1236  -17.3849   -5.6301 H   0  0  0  0  0  0  0  0  0  0  0  0
  -27.6898  -18.0592   -5.6177 H   0  0  0  0  0  0  0  0  0  0  0  0
  -24.8562  -14.2732   -1.3817 C   0  0  0  0  0  0  0  0  0  0  0  0
  -23.5685  -13.4395   -1.3495 C   0  0  0  0  0  0  0  0  0  0  0  0
  -23.7143  -11.9909   -0.8735 C   0  0  0  0  0  0  0  0  0  0  0  0
  -25.7793  -12.5046   -2.9954 C   0  0  0  0  0  0  0  0  0  0  0  0
  -26.1182  -11.5733   -1.8320 C   0  0  0  0  0  0  0  0  0  0  0  0
  -25.7910  -13.8583   -2.4584 N   0  0  0  0  0  0  0  0  0  0  0  0
  -25.1418  -11.4970   -0.6405 C   0  0  0  0  0  0  0  0  0  0  0  0
  -29.4364  -12.8713   -1.4049 C   0  0  0  0  0  0  0  0  0  0  0  0
  -29.4758  -12.3007    0.8496 C   0  0  0  0  0  0  0  0  0  0  0  0
  -28.5939  -13.9562   -1.1333 C   0  0  0  0  0  0  0  0  0  0  0  0
  -29.8709  -12.0720   -0.4143 N   0  0  0  0  0  0  0  0  0  0  0  0
  -28.6433  -13.3191    1.1406 N   0  0  0  0  0  0  0  0  0  0  0  0
  -28.1791  -14.1400    0.1850 C   0  0  0  0  0  0  0  0  0  0  0  0
  -30.1553  -18.3230   -3.1932 N   0  0  0  0  0  0  0  0  0  0  0  0
  -30.2525  -17.3754   -5.2622 O   0  0  0  0  0  0  0  0  0  0  0  0
  -29.7572  -17.4848   -4.1533 C   0  0  0  0  0  0  0  0  0  0  0  0
  -29.6954  -18.2351   -2.3272 H   0  0  0  0  0  0  0  0  0  0  0  0
  -31.0918  -19.2587   -3.2596 C   0  0  0  0  0  0  0  0  0  0  0  0
  -31.1982  -20.1059   -2.2528 N   0  0  0  0  0  0  0  0  0  0  0  0
  -31.9095  -19.3400   -4.2928 N   0  0  0  0  0  0  0  0  0  0  0  0
  -31.8844  -20.8116   -2.2737 H   0  0  0  0  0  0  0  0  0  0  0  0
  -30.5915  -20.0320   -1.4810 H   0  0  0  0  0  0  0  0  0  0  0  0
  -31.8237  -18.7044   -5.0397 H   0  0  0  0  0  0  0  0  0  0  0  0
  6  2  1  0  0  0
 24 25  2  0  0  0
 29 27  2  0  0  0
  2  3  2  0  0  0
  2  4  1  0  0  0
 25  4  1  0  0  0
 25 23  1  0  0  0
  3  7  1  0  0  0
  4  5  2  0  0  0
 27 23  1  0  0  0
 27 28  1  0  0  0
 14 13  1  0  0  0
 14 16  1  0  0  0
 13 15  1  0  0  0
  7 15  1  0  0  0
  7  1  2  0  0  0
 16 12  1  0  0  0
  5  1  1  0  0  0
 15 10  1  0  0  0
  1 19  1  0  0  0
 10 11  1  0  0  0
 12 11  1  0  0  0
 19 17  2  0  0  0
 19 22  1  0  0  0
 17 20  1  0  0  0
 22 21  2  0  0  0
 20 18  2  0  0  0
 21 18  1  0  0  0
 23 26  1  0  0  0
 28 30  1  0  0  0
 28 31  1  0  0  0
 29 32  1  0  0  0
  6  8  1  0  0  0
  6  9  1  0  0  0
M  END
> <minimizedAffinity>
-7.44188

$$$$
5ZAG_94I_U_301


 32 34  0  0  0  0  0  0  0  0999 V2000
  -28.2798  -16.8893    0.6888 C   0  0  0  0  0  0  0  0  0  0  0  0
  -28.7976  -15.8166   -1.8004 C   0  0  0  0  0  0  0  0  0  0  0  0
  -28.3315  -15.0376   -0.7901 N   0  0  0  0  0  0  0  0  0  0  0  0
  -29.0099  -17.1600   -1.5473 C   0  0  0  0  0  0  0  0  0  0  0  0
  -28.7305  -17.6592   -0.3237 N   0  0  0  0  0  0  0  0  0  0  0  0
  -29.0598  -15.2621   -3.0137 N   0  0  0  0  0  0  0  0  0  0  0  0
  -28.0405  -15.5325    0.4432 C   0  0  0  0  0  0  0  0  0  0  0  0
  -28.8978  -14.3024   -3.1616 H   0  0  0  0  0  0  0  0  0  0  0  0
  -29.4116  -15.8203   -3.7443 H   0  0  0  0  0  0  0  0  0  0  0  0
  -28.7105  -13.7109    1.9347 C   0  0  0  0  0  0  0  0  0  0  0  0
  -28.3334  -13.0268    3.2553 C   0  0  0  0  0  0  0  0  0  0  0  0
  -27.2595  -11.9380    3.1683 C   0  0  0  0  0  0  0  0  0  0  0  0
  -26.2420  -14.3886    1.7578 C   0  0  0  0  0  0  0  0  0  0  0  0
  -25.8679  -13.0074    1.2212 C   0  0  0  0  0  0  0  0  0  0  0  0
  -27.6414  -14.6005    1.4144 N   0  0  0  0  0  0  0  0  0  0  0  0
  -26.5755  -11.7707    1.8118 C   0  0  0  0  0  0  0  0  0  0  0  0
  -28.5350  -17.1948    3.1571 C   0  0  0  0  0  0  0  0  0  0  0  0
  -27.4007  -18.8599    4.3194 C   0  0  0  0  0  0  0  0  0  0  0  0
  -27.9816  -17.6370    1.9493 C   0  0  0  0  0  0  0  0  0  0  0  0
  -28.2469  -17.8159    4.3148 N   0  0  0  0  0  0  0  0  0  0  0  0
  -26.8295  -19.2925    3.1785 N   0  0  0  0  0  0  0  0  0  0  0  0
  -27.0822  -18.7010    2.0000 C   0  0  0  0  0  0  0  0  0  0  0  0
  -30.6010  -18.8076   -2.1245 N   0  0  0  0  0  0  0  0  0  0  0  0
  -29.0496  -18.1802   -3.6698 O   0  0  0  0  0  0  0  0  0  0  0  0
  -29.5360  -18.1255   -2.5530 C   0  0  0  0  0  0  0  0  0  0  0  0
  -30.9116  -18.5938   -1.2151 H   0  0  0  0  0  0  0  0  0  0  0  0
  -31.2925  -19.7362   -2.7698 C   0  0  0  0  0  0  0  0  0  0  0  0
  -31.8148  -20.7244   -2.0672 N   0  0  0  0  0  0  0  0  0  0  0  0
  -31.4717  -19.6754   -4.0763 N   0  0  0  0  0  0  0  0  0  0  0  0
  -32.3335  -21.4289   -2.5188 H   0  0  0  0  0  0  0  0  0  0  0  0
  -31.6855  -20.7569   -1.0918 H   0  0  0  0  0  0  0  0  0  0  0  0
  -31.0790  -18.9353   -4.5931 H   0  0  0  0  0  0  0  0  0  0  0  0
  6  2  1  0  0  0
 24 25  2  0  0  0
 29 27  2  0  0  0
  2  3  2  0  0  0
  2  4  1  0  0  0
 25  4  1  0  0  0
 25 23  1  0  0  0
  3  7  1  0  0  0
  4  5  2  0  0  0
 27 23  1  0  0  0
 27 28  1  0  0  0
 14 13  1  0  0  0
 14 16  1  0  0  0
 13 15  1  0  0  0
  7 15  1  0  0  0
  7  1  2  0  0  0
 16 12  1  0  0  0
  5  1  1  0  0  0
 15 10  1  0  0  0
  1 19  1  0  0  0
 10 11  1  0  0  0
 12 11  1  0  0  0
 19 17  2  0  0  0
 19 22  1  0  0  0
 17 20  1  0  0  0
 22 21  2  0  0  0
 20 18  2  0  0  0
 21 18  1  0  0  0
 23 26  1  0  0  0
 28 30  1  0  0  0
 28 31  1  0  0  0
 29 32  1  0  0  0
  6  8  1  0  0  0
  6  9  1  0  0  0
M  END
> <minimizedAffinity>
-7.36821

$$$$
5ZAG_94I_U_301


 32 34  0  0  0  0  0  0  0  0999 V2000
  -28.3822  -15.6324   -0.1950 C   0  0  0  0  0  0  0  0  0  0  0  0
  -29.6642  -13.3726   -1.1251 C   0  0  0  0  0  0  0  0  0  0  0  0
  -29.6109  -14.5020   -1.8776 N   0  0  0  0  0  0  0  0  0  0  0  0
  -29.0554  -13.3838    0.1172 C   0  0  0  0  0  0  0  0  0  0  0  0
  -28.4508  -14.5107    0.5521 N   0  0  0  0  0  0  0  0  0  0  0  0
  -30.2883  -12.2670   -1.6112 N   0  0  0  0  0  0  0  0  0  0  0  0
  -29.0107  -15.6437   -1.4453 C   0  0  0  0  0  0  0  0  0  0  0  0
  -30.7122  -12.2916   -2.4994 H   0  0  0  0  0  0  0  0  0  0  0  0
  -30.3164  -11.4418   -1.0750 H   0  0  0  0  0  0  0  0  0  0  0  0
  -29.0862  -16.3412   -3.7904 C   0  0  0  0  0  0  0  0  0  0  0  0
  -28.6117  -17.4494   -4.7397 C   0  0  0  0  0  0  0  0  0  0  0  0
  -29.5032  -18.6920   -4.8250 C   0  0  0  0  0  0  0  0  0  0  0  0
  -28.9748  -18.1011   -1.9264 C   0  0  0  0  0  0  0  0  0  0  0  0
  -30.3321  -18.6701   -2.3383 C   0  0  0  0  0  0  0  0  0  0  0  0
  -28.9616  -16.7100   -2.3573 N   0  0  0  0  0  0  0  0  0  0  0  0
  -30.6707  -18.7547   -3.8406 C   0  0  0  0  0  0  0  0  0  0  0  0
  -28.4178  -17.5101    1.4554 C   0  0  0  0  0  0  0  0  0  0  0  0
  -26.5486  -18.8335    1.8611 C   0  0  0  0  0  0  0  0  0  0  0  0
  -27.7163  -16.7874    0.4826 C   0  0  0  0  0  0  0  0  0  0  0  0
  -27.8307  -18.5229    2.1175 N   0  0  0  0  0  0  0  0  0  0  0  0
  -25.8374  -18.1397    0.9513 N   0  0  0  0  0  0  0  0  0  0  0  0
  -26.3787  -17.1176    0.2696 C   0  0  0  0  0  0  0  0  0  0  0  0
  -28.8174  -12.5512    2.3147 N   0  0  0  0  0  0  0  0  0  0  0  0
  -29.0862  -11.0784    0.5981 O   0  0  0  0  0  0  0  0  0  0  0  0
  -29.0180  -12.2134    1.0386 C   0  0  0  0  0  0  0  0  0  0  0  0
  -28.7142  -13.5137    2.4940 H   0  0  0  0  0  0  0  0  0  0  0  0
  -28.7398  -11.7535    3.3705 C   0  0  0  0  0  0  0  0  0  0  0  0
  -28.0366  -12.1629    4.4101 N   0  0  0  0  0  0  0  0  0  0  0  0
  -29.3335  -10.5745    3.3857 N   0  0  0  0  0  0  0  0  0  0  0  0
  -27.9608  -11.5922    5.2086 H   0  0  0  0  0  0  0  0  0  0  0  0
  -27.5880  -13.0390    4.3867 H   0  0  0  0  0  0  0  0  0  0  0  0
  -29.8561  -10.2764    2.6065 H   0  0  0  0  0  0  0  0  0  0  0  0
  6  2  1  0  0  0
 24 25  2  0  0  0
 29 27  2  0  0  0
  2  3  2  0  0  0
  2  4  1  0  0  0
 25  4  1  0  0  0
 25 23  1  0  0  0
  3  7  1  0  0  0
  4  5  2  0  0  0
 27 23  1  0  0  0
 27 28  1  0  0  0
 14 13  1  0  0  0
 14 16  1  0  0  0
 13 15  1  0  0  0
  7 15  1  0  0  0
  7  1  2  0  0  0
 16 12  1  0  0  0
  5  1  1  0  0  0
 15 10  1  0  0  0
  1 19  1  0  0  0
 10 11  1  0  0  0
 12 11  1  0  0  0
 19 17  2  0  0  0
 19 22  1  0  0  0
 17 20  1  0  0  0
 22 21  2  0  0  0
 20 18  2  0  0  0
 21 18  1  0  0  0
 23 26  1  0  0  0
 28 30  1  0  0  0
 28 31  1  0  0  0
 29 32  1  0  0  0
  6  8  1  0  0  0
  6  9  1  0  0  0
M  END
> <minimizedAffinity>
-7.11629

$$$$
5ZAG_94I_U_301


 32 34  0  0  0  0  0  0  0  0999 V2000
  -25.5000  -13.1861   -2.7461 C   0  0  0  0  0  0  0  0  0  0  0  0
  -24.2186  -14.4288   -4.8506 C   0  0  0  0  0  0  0  0  0  0  0  0
  -25.3451  -14.9608   -4.3098 N   0  0  0  0  0  0  0  0  0  0  0  0
  -23.7286  -13.2506   -4.3161 C   0  0  0  0  0  0  0  0  0  0  0  0
  -24.3878  -12.6568   -3.2976 N   0  0  0  0  0  0  0  0  0  0  0  0
  -23.5966  -15.0674   -5.8770 N   0  0  0  0  0  0  0  0  0  0  0  0
  -26.0199  -14.3666   -3.2888 C   0  0  0  0  0  0  0  0  0  0  0  0
  -23.9710  -15.9046   -6.2350 H   0  0  0  0  0  0  0  0  0  0  0  0
  -22.7716  -14.6928   -6.2622 H   0  0  0  0  0  0  0  0  0  0  0  0
  -26.8194  -16.0768   -1.7307 C   0  0  0  0  0  0  0  0  0  0  0  0
  -28.0543  -16.4952   -0.9217 C   0  0  0  0  0  0  0  0  0  0  0  0
  -29.0880  -17.3494   -1.6619 C   0  0  0  0  0  0  0  0  0  0  0  0
  -28.4547  -14.9484   -3.3544 C   0  0  0  0  0  0  0  0  0  0  0  0
  -28.7527  -16.2846   -4.0337 C   0  0  0  0  0  0  0  0  0  0  0  0
  -27.1235  -15.0665   -2.7757 N   0  0  0  0  0  0  0  0  0  0  0  0
  -28.8511  -17.5506   -3.1584 C   0  0  0  0  0  0  0  0  0  0  0  0
  -27.1322  -11.4514   -1.9861 C   0  0  0  0  0  0  0  0  0  0  0  0
  -27.2047  -10.7041    0.2154 C   0  0  0  0  0  0  0  0  0  0  0  0
  -26.1106  -12.3534   -1.6643 C   0  0  0  0  0  0  0  0  0  0  0  0
  -27.6680  -10.6537   -1.0451 N   0  0  0  0  0  0  0  0  0  0  0  0
  -26.2038  -11.5408    0.5516 N   0  0  0  0  0  0  0  0  0  0  0  0
  -25.6341  -12.3518   -0.3542 C   0  0  0  0  0  0  0  0  0  0  0  0
  -22.7324  -11.3796   -5.3583 N   0  0  0  0  0  0  0  0  0  0  0  0
  -21.3972  -13.0569   -4.5888 O   0  0  0  0  0  0  0  0  0  0  0  0
  -22.4945  -12.5668   -4.7953 C   0  0  0  0  0  0  0  0  0  0  0  0
  -23.6753  -11.0976   -5.3858 H   0  0  0  0  0  0  0  0  0  0  0  0
  -21.8588  -10.5332   -5.8848 C   0  0  0  0  0  0  0  0  0  0  0  0
  -20.9404  -11.0142   -6.7022 N   0  0  0  0  0  0  0  0  0  0  0  0
  -21.9066   -9.2414   -5.6168 N   0  0  0  0  0  0  0  0  0  0  0  0
  -20.2780  -10.4098   -7.1086 H   0  0  0  0  0  0  0  0  0  0  0  0
  -20.9180  -11.9772   -6.9053 H   0  0  0  0  0  0  0  0  0  0  0  0
  -22.5945   -8.8905   -5.0061 H   0  0  0  0  0  0  0  0  0  0  0  0
  6  2  1  0  0  0
 24 25  2  0  0  0
 29 27  2  0  0  0
  2  3  2  0  0  0
  2  4  1  0  0  0
 25  4  1  0  0  0
 25 23  1  0  0  0
  3  7  1  0  0  0
  4  5  2  0  0  0
 27 23  1  0  0  0
 27 28  1  0  0  0
 14 13  1  0  0  0
 14 16  1  0  0  0
 13 15  1  0  0  0
  7 15  1  0  0  0
  7  1  2  0  0  0
 16 12  1  0  0  0
  5  1  1  0  0  0
 15 10  1  0  0  0
  1 19  1  0  0  0
 10 11  1  0  0  0
 12 11  1  0  0  0
 19 17  2  0  0  0
 19 22  1  0  0  0
 17 20  1  0  0  0
 22 21  2  0  0  0
 20 18  2  0  0  0
 21 18  1  0  0  0
 23 26  1  0  0  0
 28 30  1  0  0  0
 28 31  1  0  0  0
 29 32  1  0  0  0
  6  8  1  0  0  0
  6  9  1  0  0  0
M  END
> <minimizedAffinity>
-7.10492

$$$$
5ZAG_94I_U_301


 32 34  0  0  0  0  0  0  0  0999 V2000
  -25.2721  -13.7999   -3.4627 C   0  0  0  0  0  0  0  0  0  0  0  0
  -27.9518  -13.4785   -2.8876 C   0  0  0  0  0  0  0  0  0  0  0  0
  -27.0684  -12.4692   -2.6744 N   0  0  0  0  0  0  0  0  0  0  0  0
  -27.4723  -14.6724   -3.3962 C   0  0  0  0  0  0  0  0  0  0  0  0
  -26.1582  -14.7933   -3.6841 N   0  0  0  0  0  0  0  0  0  0  0  0
  -29.2647  -13.3015   -2.5822 N   0  0  0  0  0  0  0  0  0  0  0  0
  -25.7446  -12.5791   -2.9678 C   0  0  0  0  0  0  0  0  0  0  0  0
  -29.5743  -12.4393   -2.2217 H   0  0  0  0  0  0  0  0  0  0  0  0
  -29.9058  -14.0355   -2.7215 H   0  0  0  0  0  0  0  0  0  0  0  0
  -24.6838  -11.2983   -1.1717 C   0  0  0  0  0  0  0  0  0  0  0  0
  -23.4864  -10.3840   -0.8810 C   0  0  0  0  0  0  0  0  0  0  0  0
  -23.6810   -8.8974   -1.1946 C   0  0  0  0  0  0  0  0  0  0  0  0
  -24.5148  -10.4916   -3.6016 C   0  0  0  0  0  0  0  0  0  0  0  0
  -25.2652   -9.2047   -3.2605 C   0  0  0  0  0  0  0  0  0  0  0  0
  -24.9335  -11.4861   -2.6234 N   0  0  0  0  0  0  0  0  0  0  0  0
  -24.9799   -8.5218   -1.9073 C   0  0  0  0  0  0  0  0  0  0  0  0
  -23.6546  -14.6751   -5.1563 C   0  0  0  0  0  0  0  0  0  0  0  0
  -21.3739  -14.8235   -4.7247 C   0  0  0  0  0  0  0  0  0  0  0  0
  -23.8742  -14.1100   -3.8941 C   0  0  0  0  0  0  0  0  0  0  0  0
  -22.4144  -15.0107   -5.5543 N   0  0  0  0  0  0  0  0  0  0  0  0
  -21.5548  -14.3080   -3.4933 N   0  0  0  0  0  0  0  0  0  0  0  0
  -22.7744  -13.9633   -3.0500 C   0  0  0  0  0  0  0  0  0  0  0  0
  -28.6044  -16.5691   -2.5596 N   0  0  0  0  0  0  0  0  0  0  0  0
  -28.7533  -16.0836   -4.7800 O   0  0  0  0  0  0  0  0  0  0  0  0
  -28.3217  -15.8679   -3.6602 C   0  0  0  0  0  0  0  0  0  0  0  0
  -28.2313  -16.2190   -1.7185 H   0  0  0  0  0  0  0  0  0  0  0  0
  -29.3244  -17.6773   -2.4572 C   0  0  0  0  0  0  0  0  0  0  0  0
  -29.8392  -17.9789   -1.2795 N   0  0  0  0  0  0  0  0  0  0  0  0
  -29.5385  -18.4563   -3.5012 N   0  0  0  0  0  0  0  0  0  0  0  0
  -30.3785  -18.7956   -1.1726 H   0  0  0  0  0  0  0  0  0  0  0  0
  -29.6839  -17.3872   -0.5082 H   0  0  0  0  0  0  0  0  0  0  0  0
  -29.1510  -18.2245   -4.3760 H   0  0  0  0  0  0  0  0  0  0  0  0
  6  2  1  0  0  0
 24 25  2  0  0  0
 29 27  2  0  0  0
  2  3  2  0  0  0
  2  4  1  0  0  0
 25  4  1  0  0  0
 25 23  1  0  0  0
  3  7  1  0  0  0
  4  5  2  0  0  0
 27 23  1  0  0  0
 27 28  1  0  0  0
 14 13  1  0  0  0
 14 16  1  0  0  0
 13 15  1  0  0  0
  7 15  1  0  0  0
  7  1  2  0  0  0
 16 12  1  0  0  0
  5  1  1  0  0  0
 15 10  1  0  0  0
  1 19  1  0  0  0
 10 11  1  0  0  0
 12 11  1  0  0  0
 19 17  2  0  0  0
 19 22  1  0  0  0
 17 20  1  0  0  0
 22 21  2  0  0  0
 20 18  2  0  0  0
 21 18  1  0  0  0
 23 26  1  0  0  0
 28 30  1  0  0  0
 28 31  1  0  0  0
 29 32  1  0  0  0
  6  8  1  0  0  0
  6  9  1  0  0  0
M  END
> <minimizedAffinity>
-6.86964

$$$$
5ZAG_94I_U_301


 32 34  0  0  0  0  0  0  0  0999 V2000
  -28.2821  -14.3483   -0.2656 C   0  0  0  0  0  0  0  0  0  0  0  0
  -28.5343  -15.0371   -2.9259 C   0  0  0  0  0  0  0  0  0  0  0  0
  -28.3926  -13.7387   -2.5536 N   0  0  0  0  0  0  0  0  0  0  0  0
  -28.5532  -16.0040   -1.9365 C   0  0  0  0  0  0  0  0  0  0  0  0
  -28.4099  -15.6372   -0.6445 N   0  0  0  0  0  0  0  0  0  0  0  0
  -28.6722  -15.3504   -4.2416 N   0  0  0  0  0  0  0  0  0  0  0  0
  -28.2406  -13.3602   -1.2558 C   0  0  0  0  0  0  0  0  0  0  0  0
  -28.6544  -14.6386   -4.9215 H   0  0  0  0  0  0  0  0  0  0  0  0
  -28.7898  -16.2889   -4.5144 H   0  0  0  0  0  0  0  0  0  0  0  0
  -26.8375  -11.3599   -1.1084 C   0  0  0  0  0  0  0  0  0  0  0  0
  -26.8877   -9.8328   -1.2494 C   0  0  0  0  0  0  0  0  0  0  0  0
  -27.3205   -9.0542   -0.0033 C   0  0  0  0  0  0  0  0  0  0  0  0
  -29.3282  -11.2331   -0.5050 C   0  0  0  0  0  0  0  0  0  0  0  0
  -28.9928  -10.8420    0.9339 C   0  0  0  0  0  0  0  0  0  0  0  0
  -28.1833  -11.9795   -1.0082 N   0  0  0  0  0  0  0  0  0  0  0  0
  -27.8049   -9.8899    1.1811 C   0  0  0  0  0  0  0  0  0  0  0  0
  -29.1721  -14.3128    2.0705 C   0  0  0  0  0  0  0  0  0  0  0  0
  -27.8537  -13.6976    3.8852 C   0  0  0  0  0  0  0  0  0  0  0  0
  -28.0842  -14.1519    1.2037 C   0  0  0  0  0  0  0  0  0  0  0  0
  -29.0383  -14.0956    3.3911 N   0  0  0  0  0  0  0  0  0  0  0  0
  -26.7949  -13.5065    3.0745 N   0  0  0  0  0  0  0  0  0  0  0  0
  -26.8817  -13.7053    1.7496 C   0  0  0  0  0  0  0  0  0  0  0  0
  -29.8012  -17.7460   -2.9298 N   0  0  0  0  0  0  0  0  0  0  0  0
  -27.8775  -18.2574   -1.8227 O   0  0  0  0  0  0  0  0  0  0  0  0
  -28.7218  -17.4613   -2.1973 C   0  0  0  0  0  0  0  0  0  0  0  0
  -30.3458  -16.9757   -3.2113 H   0  0  0  0  0  0  0  0  0  0  0  0
  -30.2317  -18.9355   -3.3258 C   0  0  0  0  0  0  0  0  0  0  0  0
  -30.7880  -19.7272   -2.4276 N   0  0  0  0  0  0  0  0  0  0  0  0
  -30.1249  -19.3209   -4.5839 N   0  0  0  0  0  0  0  0  0  0  0  0
  -31.1172  -20.6166   -2.6920 H   0  0  0  0  0  0  0  0  0  0  0  0
  -30.8735  -19.4282   -1.4935 H   0  0  0  0  0  0  0  0  0  0  0  0
  -29.7088  -18.7247   -5.2477 H   0  0  0  0  0  0  0  0  0  0  0  0
  6  2  1  0  0  0
 24 25  2  0  0  0
 29 27  2  0  0  0
  2  3  2  0  0  0
  2  4  1  0  0  0
 25  4  1  0  0  0
 25 23  1  0  0  0
  3  7  1  0  0  0
  4  5  2  0  0  0
 27 23  1  0  0  0
 27 28  1  0  0  0
 14 13  1  0  0  0
 14 16  1  0  0  0
 13 15  1  0  0  0
  7 15  1  0  0  0
  7  1  2  0  0  0
 16 12  1  0  0  0
  5  1  1  0  0  0
 15 10  1  0  0  0
  1 19  1  0  0  0
 10 11  1  0  0  0
 12 11  1  0  0  0
 19 17  2  0  0  0
 19 22  1  0  0  0
 17 20  1  0  0  0
 22 21  2  0  0  0
 20 18  2  0  0  0
 21 18  1  0  0  0
 23 26  1  0  0  0
 28 30  1  0  0  0
 28 31  1  0  0  0
 29 32  1  0  0  0
  6  8  1  0  0  0
  6  9  1  0  0  0
M  END
> <minimizedAffinity>
-6.85591

$$$$
