4XO8_KGM_A_501


 23 23  0  0  0  0  0  0  0  0999 V2000
  -21.0537   -5.6075  -12.8796 C   0  0  0  0  0  0  0  0  0  0  0  0
  -19.8469   -4.8978  -12.8319 O   0  0  0  0  0  0  0  0  0  0  0  0
  -21.0089   -6.7467  -11.8779 C   0  0  0  0  0  0  0  0  0  0  0  0
  -22.1620   -7.5257  -12.0052 O   0  0  0  0  0  0  0  0  0  0  0  0
  -19.7736   -7.6070  -12.1491 C   0  0  0  0  0  0  0  0  0  0  0  0
  -19.6603   -8.5940  -11.1621 O   0  0  0  0  0  0  0  0  0  0  0  0
  -18.5294   -6.7356  -12.1429 C   0  0  0  0  0  0  0  0  0  0  0  0
  -18.3249   -6.1878  -10.8648 O   0  0  0  0  0  0  0  0  0  0  0  0
  -18.6921   -5.6041  -13.1289 C   0  0  0  0  0  0  0  0  0  0  0  0
  -22.2113   -7.8857  -12.9045 H   0  0  0  0  0  0  0  0  0  0  0  0
  -19.5697   -8.1731  -10.2929 H   0  0  0  0  0  0  0  0  0  0  0  0
  -19.0867   -5.6383  -10.6228 H   0  0  0  0  0  0  0  0  0  0  0  0
  -22.2811   -4.4446  -11.1757 O   0  0  0  0  0  0  0  0  0  0  0  0
  -22.2132   -4.6855  -12.5633 C   0  0  0  0  0  0  0  0  0  0  0  0
  -23.0266   -3.8536  -10.9862 H   0  0  0  0  0  0  0  0  0  0  0  0
  -18.7828   -6.1590  -14.4328 O   0  0  0  0  0  0  0  0  0  0  0  0
  -18.6239   -5.2458  -15.4976 C   0  0  0  0  0  0  0  0  0  0  0  0
  -19.6908   -5.5505  -16.5292 C   0  0  0  0  0  0  0  0  0  0  0  0
  -20.8302   -4.5576  -16.4382 C   0  0  0  0  0  0  0  0  0  0  0  0
  -20.2738   -3.2374  -15.9473 C   0  0  0  0  0  0  0  0  0  0  0  0
  -20.7453   -2.0955  -16.8199 C   0  0  0  0  0  0  0  0  0  0  0  0
  -21.7213   -1.5788  -19.0436 C   0  0  0  0  0  0  0  0  0  0  0  0
  -21.0252   -2.6303  -18.2083 C   0  0  0  0  0  0  0  0  0  0  0  0
 22 23  1  0  0  0
 23 21  1  0  0  0
 21 20  1  0  0  0
 20 19  1  0  0  0
 19 18  1  0  0  0
 18 17  1  0  0  0
 17 16  1  0  0  0
 16  9  1  0  0  0
  9  7  1  0  0  0
  9  2  1  0  0  0
  7  8  1  0  0  0
  7  5  1  0  0  0
  5  6  1  0  0  0
  5  3  1  0  0  0
  3  4  1  0  0  0
  3  1  1  0  0  0
  1  2  1  0  0  0
  1 14  1  0  0  0
 14 13  1  0  0  0
 13 15  1  0  0  0
  4 10  1  0  0  0
  6 11  1  0  0  0
  8 12  1  0  0  0
M  END
> <minimizedAffinity>
-7.25259

$$$$
4XO8_KGM_A_501


 23 23  0  0  0  0  0  0  0  0999 V2000
  -20.9692   -5.5426  -12.8947 C   0  0  0  0  0  0  0  0  0  0  0  0
  -19.7309   -4.8931  -12.8107 O   0  0  0  0  0  0  0  0  0  0  0  0
  -21.0042   -6.6920  -11.9043 C   0  0  0  0  0  0  0  0  0  0  0  0
  -22.1903   -7.4125  -12.0672 O   0  0  0  0  0  0  0  0  0  0  0  0
  -19.8058   -7.6089  -12.1549 C   0  0  0  0  0  0  0  0  0  0  0  0
  -19.7647   -8.6094  -11.1760 O   0  0  0  0  0  0  0  0  0  0  0  0
  -18.5213   -6.7993  -12.1099 C   0  0  0  0  0  0  0  0  0  0  0  0
  -18.3216   -6.2742  -10.8216 O   0  0  0  0  0  0  0  0  0  0  0  0
  -18.6049   -5.6520  -13.0875 C   0  0  0  0  0  0  0  0  0  0  0  0
  -22.2351   -7.7613  -12.9712 H   0  0  0  0  0  0  0  0  0  0  0  0
  -19.6749   -8.2017  -10.3005 H   0  0  0  0  0  0  0  0  0  0  0  0
  -19.0616   -5.6905  -10.5921 H   0  0  0  0  0  0  0  0  0  0  0  0
  -22.2893   -4.4643  -11.2044 O   0  0  0  0  0  0  0  0  0  0  0  0
  -22.0900   -4.5681  -12.5965 C   0  0  0  0  0  0  0  0  0  0  0  0
  -23.0085   -3.8382  -11.0266 H   0  0  0  0  0  0  0  0  0  0  0  0
  -18.6907   -6.1897  -14.3990 O   0  0  0  0  0  0  0  0  0  0  0  0
  -17.6352   -7.0473  -14.7776 C   0  0  0  0  0  0  0  0  0  0  0  0
  -18.1132   -7.8753  -15.9529 C   0  0  0  0  0  0  0  0  0  0  0  0
  -19.6134   -7.7597  -16.1214 C   0  0  0  0  0  0  0  0  0  0  0  0
  -19.8947   -7.1485  -17.4782 C   0  0  0  0  0  0  0  0  0  0  0  0
  -21.0928   -6.2273  -17.4167 C   0  0  0  0  0  0  0  0  0  0  0  0
  -20.6413   -4.0193  -16.3752 C   0  0  0  0  0  0  0  0  0  0  0  0
  -20.6266   -4.8087  -17.6653 C   0  0  0  0  0  0  0  0  0  0  0  0
 22 23  1  0  0  0
 23 21  1  0  0  0
 21 20  1  0  0  0
 20 19  1  0  0  0
 19 18  1  0  0  0
 18 17  1  0  0  0
 17 16  1  0  0  0
 16  9  1  0  0  0
  9  7  1  0  0  0
  9  2  1  0  0  0
  7  8  1  0  0  0
  7  5  1  0  0  0
  5  6  1  0  0  0
  5  3  1  0  0  0
  3  4  1  0  0  0
  3  1  1  0  0  0
  1  2  1  0  0  0
  1 14  1  0  0  0
 14 13  1  0  0  0
 13 15  1  0  0  0
  4 10  1  0  0  0
  6 11  1  0  0  0
  8 12  1  0  0  0
M  END
> <minimizedAffinity>
-7.11578

$$$$
4XO8_KGM_A_501


 23 23  0  0  0  0  0  0  0  0999 V2000
  -21.0283   -5.5603  -12.8643 C   0  0  0  0  0  0  0  0  0  0  0  0
  -19.8037   -4.8826  -12.8043 O   0  0  0  0  0  0  0  0  0  0  0  0
  -21.0163   -6.7124  -11.8767 C   0  0  0  0  0  0  0  0  0  0  0  0
  -22.1887   -7.4596  -12.0170 O   0  0  0  0  0  0  0  0  0  0  0  0
  -19.8027   -7.6010  -12.1548 C   0  0  0  0  0  0  0  0  0  0  0  0
  -19.7182   -8.6026  -11.1798 O   0  0  0  0  0  0  0  0  0  0  0  0
  -18.5364   -6.7623  -12.1341 C   0  0  0  0  0  0  0  0  0  0  0  0
  -18.3220   -6.2357  -10.8488 O   0  0  0  0  0  0  0  0  0  0  0  0
  -18.6666   -5.6148  -13.1065 C   0  0  0  0  0  0  0  0  0  0  0  0
  -22.2443   -7.8072  -12.9208 H   0  0  0  0  0  0  0  0  0  0  0  0
  -19.6196   -8.1950  -10.3052 H   0  0  0  0  0  0  0  0  0  0  0  0
  -19.0702   -5.6697  -10.6023 H   0  0  0  0  0  0  0  0  0  0  0  0
  -22.2801   -4.4479  -11.1444 O   0  0  0  0  0  0  0  0  0  0  0  0
  -22.1646   -4.6124  -12.5401 C   0  0  0  0  0  0  0  0  0  0  0  0
  -23.0102   -3.8396  -10.9499 H   0  0  0  0  0  0  0  0  0  0  0  0
  -18.7674   -6.1512  -14.4174 O   0  0  0  0  0  0  0  0  0  0  0  0
  -18.2679   -5.3315  -15.4527 C   0  0  0  0  0  0  0  0  0  0  0  0
  -19.4542   -4.7787  -16.2158 C   0  0  0  0  0  0  0  0  0  0  0  0
  -20.4623   -5.8687  -16.5121 C   0  0  0  0  0  0  0  0  0  0  0  0
  -21.0038   -5.6500  -17.9095 C   0  0  0  0  0  0  0  0  0  0  0  0
  -20.6860   -4.2544  -18.3985 C   0  0  0  0  0  0  0  0  0  0  0  0
  -21.4253   -5.5245  -20.3997 C   0  0  0  0  0  0  0  0  0  0  0  0
  -21.0493   -4.1604  -19.8651 C   0  0  0  0  0  0  0  0  0  0  0  0
 22 23  1  0  0  0
 23 21  1  0  0  0
 21 20  1  0  0  0
 20 19  1  0  0  0
 19 18  1  0  0  0
 18 17  1  0  0  0
 17 16  1  0  0  0
 16  9  1  0  0  0
  9  7  1  0  0  0
  9  2  1  0  0  0
  7  8  1  0  0  0
  7  5  1  0  0  0
  5  6  1  0  0  0
  5  3  1  0  0  0
  3  4  1  0  0  0
  3  1  1  0  0  0
  1  2  1  0  0  0
  1 14  1  0  0  0
 14 13  1  0  0  0
 13 15  1  0  0  0
  4 10  1  0  0  0
  6 11  1  0  0  0
  8 12  1  0  0  0
M  END
> <minimizedAffinity>
-6.77804

$$$$
4XO8_KGM_A_501


 23 23  0  0  0  0  0  0  0  0999 V2000
  -18.7509   -6.8358  -11.9718 C   0  0  0  0  0  0  0  0  0  0  0  0
  -18.3714   -7.3315  -13.2259 O   0  0  0  0  0  0  0  0  0  0  0  0
  -20.1376   -7.3464  -11.6261 C   0  0  0  0  0  0  0  0  0  0  0  0
  -20.5661   -6.7612  -10.4318 O   0  0  0  0  0  0  0  0  0  0  0  0
  -21.1039   -6.9817  -12.7543 C   0  0  0  0  0  0  0  0  0  0  0  0
  -22.3604   -7.5453  -12.4997 O   0  0  0  0  0  0  0  0  0  0  0  0
  -20.5701   -7.5043  -14.0769 C   0  0  0  0  0  0  0  0  0  0  0  0
  -20.5295   -8.9091  -14.0648 O   0  0  0  0  0  0  0  0  0  0  0  0
  -19.1704   -6.9863  -14.3043 C   0  0  0  0  0  0  0  0  0  0  0  0
  -20.5915   -5.7971  -10.5351 H   0  0  0  0  0  0  0  0  0  0  0  0
  -22.2780   -8.5106  -12.4517 H   0  0  0  0  0  0  0  0  0  0  0  0
  -19.9407   -9.2095  -13.3549 H   0  0  0  0  0  0  0  0  0  0  0  0
  -17.8383   -6.4328   -9.7885 O   0  0  0  0  0  0  0  0  0  0  0  0
  -17.7587   -7.2766  -10.9154 C   0  0  0  0  0  0  0  0  0  0  0  0
  -17.1990   -6.7249   -9.1200 H   0  0  0  0  0  0  0  0  0  0  0  0
  -19.2333   -5.5734  -14.4308 O   0  0  0  0  0  0  0  0  0  0  0  0
  -18.5476   -5.0282  -15.5380 C   0  0  0  0  0  0  0  0  0  0  0  0
  -19.5317   -4.9278  -16.6856 C   0  0  0  0  0  0  0  0  0  0  0  0
  -20.6229   -3.9249  -16.3761 C   0  0  0  0  0  0  0  0  0  0  0  0
  -20.8450   -3.0681  -17.6050 C   0  0  0  0  0  0  0  0  0  0  0  0
  -21.0470   -1.6187  -17.2225 C   0  0  0  0  0  0  0  0  0  0  0  0
  -21.7590   -1.8097  -19.5934 C   0  0  0  0  0  0  0  0  0  0  0  0
  -21.6614   -0.8885  -18.3977 C   0  0  0  0  0  0  0  0  0  0  0  0
 22 23  1  0  0  0
 23 21  1  0  0  0
 21 20  1  0  0  0
 20 19  1  0  0  0
 19 18  1  0  0  0
 18 17  1  0  0  0
 17 16  1  0  0  0
 16  9  1  0  0  0
  9  7  1  0  0  0
  9  2  1  0  0  0
  7  8  1  0  0  0
  7  5  1  0  0  0
  5  6  1  0  0  0
  5  3  1  0  0  0
  3  4  1  0  0  0
  3  1  1  0  0  0
  1  2  1  0  0  0
  1 14  1  0  0  0
 14 13  1  0  0  0
 13 15  1  0  0  0
  4 10  1  0  0  0
  6 11  1  0  0  0
  8 12  1  0  0  0
M  END
> <minimizedAffinity>
-6.30926

$$$$
4XO8_KGM_A_501


 23 23  0  0  0  0  0  0  0  0999 V2000
  -18.7708   -6.7879  -11.9373 C   0  0  0  0  0  0  0  0  0  0  0  0
  -18.3663   -7.2734  -13.1875 O   0  0  0  0  0  0  0  0  0  0  0  0
  -20.1511   -7.3266  -11.6093 C   0  0  0  0  0  0  0  0  0  0  0  0
  -20.6057   -6.7523  -10.4193 O   0  0  0  0  0  0  0  0  0  0  0  0
  -21.1108   -6.9790  -12.7485 C   0  0  0  0  0  0  0  0  0  0  0  0
  -22.3587   -7.5680  -12.5102 O   0  0  0  0  0  0  0  0  0  0  0  0
  -20.5506   -7.4883  -14.0655 C   0  0  0  0  0  0  0  0  0  0  0  0
  -20.4823   -8.8920  -14.0553 O   0  0  0  0  0  0  0  0  0  0  0  0
  -19.1588   -6.9422  -14.2749 C   0  0  0  0  0  0  0  0  0  0  0  0
  -20.6490   -5.7887  -10.5213 H   0  0  0  0  0  0  0  0  0  0  0  0
  -22.2578   -8.5315  -12.4629 H   0  0  0  0  0  0  0  0  0  0  0  0
  -19.8962   -9.1820  -13.3388 H   0  0  0  0  0  0  0  0  0  0  0  0
  -17.6243   -6.1837   -9.9166 O   0  0  0  0  0  0  0  0  0  0  0  0
  -17.7829   -7.2109  -10.8696 C   0  0  0  0  0  0  0  0  0  0  0  0
  -16.9902   -6.4663   -9.2392 H   0  0  0  0  0  0  0  0  0  0  0  0
  -19.2484   -5.5305  -14.3998 O   0  0  0  0  0  0  0  0  0  0  0  0
  -19.9715   -5.0610  -15.5178 C   0  0  0  0  0  0  0  0  0  0  0  0
  -18.9787   -4.4492  -16.4850 C   0  0  0  0  0  0  0  0  0  0  0  0
  -19.4328   -4.6371  -17.9170 C   0  0  0  0  0  0  0  0  0  0  0  0
  -20.8985   -5.0183  -17.9060 C   0  0  0  0  0  0  0  0  0  0  0  0
  -21.1591   -6.1852  -18.8323 C   0  0  0  0  0  0  0  0  0  0  0  0
  -21.7711   -5.2307  -21.0411 C   0  0  0  0  0  0  0  0  0  0  0  0
  -20.6546   -5.8289  -20.2144 C   0  0  0  0  0  0  0  0  0  0  0  0
 22 23  1  0  0  0
 23 21  1  0  0  0
 21 20  1  0  0  0
 20 19  1  0  0  0
 19 18  1  0  0  0
 18 17  1  0  0  0
 17 16  1  0  0  0
 16  9  1  0  0  0
  9  7  1  0  0  0
  9  2  1  0  0  0
  7  8  1  0  0  0
  7  5  1  0  0  0
  5  6  1  0  0  0
  5  3  1  0  0  0
  3  4  1  0  0  0
  3  1  1  0  0  0
  1  2  1  0  0  0
  1 14  1  0  0  0
 14 13  1  0  0  0
 13 15  1  0  0  0
  4 10  1  0  0  0
  6 11  1  0  0  0
  8 12  1  0  0  0
M  END
> <minimizedAffinity>
-5.61568

$$$$
4XO8_KGM_A_501


 23 23  0  0  0  0  0  0  0  0999 V2000
  -18.8081   -6.8073  -12.0600 C   0  0  0  0  0  0  0  0  0  0  0  0
  -18.4529   -7.3098  -13.3184 O   0  0  0  0  0  0  0  0  0  0  0  0
  -20.1540   -7.3765  -11.6509 C   0  0  0  0  0  0  0  0  0  0  0  0
  -20.5648   -6.7881  -10.4520 O   0  0  0  0  0  0  0  0  0  0  0  0
  -21.1792   -7.0818  -12.7472 C   0  0  0  0  0  0  0  0  0  0  0  0
  -22.3961   -7.6996  -12.4333 O   0  0  0  0  0  0  0  0  0  0  0  0
  -20.6713   -7.6052  -14.0796 C   0  0  0  0  0  0  0  0  0  0  0  0
  -20.5620   -9.0059  -14.0429 O   0  0  0  0  0  0  0  0  0  0  0  0
  -19.3082   -7.0256  -14.3711 C   0  0  0  0  0  0  0  0  0  0  0  0
  -20.6410   -5.8286  -10.5722 H   0  0  0  0  0  0  0  0  0  0  0  0
  -22.2651   -8.6587  -12.3705 H   0  0  0  0  0  0  0  0  0  0  0  0
  -19.9327   -9.2631  -13.3511 H   0  0  0  0  0  0  0  0  0  0  0  0
  -17.7044   -6.2063  -10.0147 O   0  0  0  0  0  0  0  0  0  0  0  0
  -17.7561   -7.1782  -11.0350 C   0  0  0  0  0  0  0  0  0  0  0  0
  -17.0279   -6.4548   -9.3654 H   0  0  0  0  0  0  0  0  0  0  0  0
  -19.4446   -5.6202  -14.5214 O   0  0  0  0  0  0  0  0  0  0  0  0
  -20.1498   -5.1942  -15.6679 C   0  0  0  0  0  0  0  0  0  0  0  0
  -19.4483   -3.9659  -16.2105 C   0  0  0  0  0  0  0  0  0  0  0  0
  -18.2078   -3.6501  -15.4020 C   0  0  0  0  0  0  0  0  0  0  0  0
  -17.0051   -3.7474  -16.3173 C   0  0  0  0  0  0  0  0  0  0  0  0
  -15.8414   -4.4062  -15.6105 C   0  0  0  0  0  0  0  0  0  0  0  0
  -14.6850   -6.6028  -15.5656 C   0  0  0  0  0  0  0  0  0  0  0  0
  -16.0242   -5.9077  -15.6721 C   0  0  0  0  0  0  0  0  0  0  0  0
 22 23  1  0  0  0
 23 21  1  0  0  0
 21 20  1  0  0  0
 20 19  1  0  0  0
 19 18  1  0  0  0
 18 17  1  0  0  0
 17 16  1  0  0  0
 16  9  1  0  0  0
  9  7  1  0  0  0
  9  2  1  0  0  0
  7  8  1  0  0  0
  7  5  1  0  0  0
  5  6  1  0  0  0
  5  3  1  0  0  0
  3  4  1  0  0  0
  3  1  1  0  0  0
  1  2  1  0  0  0
  1 14  1  0  0  0
 14 13  1  0  0  0
 13 15  1  0  0  0
  4 10  1  0  0  0
  6 11  1  0  0  0
  8 12  1  0  0  0
M  END
> <minimizedAffinity>
-5.59313

$$$$
4XO8_KGM_A_501


 23 23  0  0  0  0  0  0  0  0999 V2000
  -19.3492   -6.8842  -14.0443 C   0  0  0  0  0  0  0  0  0  0  0  0
  -20.7332   -6.7329  -13.8898 O   0  0  0  0  0  0  0  0  0  0  0  0
  -18.7809   -7.5960  -12.8305 C   0  0  0  0  0  0  0  0  0  0  0  0
  -17.3878   -7.6443  -12.9275 O   0  0  0  0  0  0  0  0  0  0  0  0
  -19.1831   -6.8345  -11.5664 C   0  0  0  0  0  0  0  0  0  0  0  0
  -18.7609   -7.5428  -10.4346 O   0  0  0  0  0  0  0  0  0  0  0  0
  -20.6921   -6.6648  -11.5272 C   0  0  0  0  0  0  0  0  0  0  0  0
  -21.3203   -7.9174  -11.4195 O   0  0  0  0  0  0  0  0  0  0  0  0
  -21.1654   -5.9988  -12.7967 C   0  0  0  0  0  0  0  0  0  0  0  0
  -17.0351   -6.7417  -12.9694 H   0  0  0  0  0  0  0  0  0  0  0  0
  -19.1803   -8.4174  -10.4254 H   0  0  0  0  0  0  0  0  0  0  0  0
  -21.0916   -8.4612  -12.1895 H   0  0  0  0  0  0  0  0  0  0  0  0
  -20.1598   -8.4727  -15.6512 O   0  0  0  0  0  0  0  0  0  0  0  0
  -19.0489   -7.6793  -15.2983 C   0  0  0  0  0  0  0  0  0  0  0  0
  -19.9554   -8.9763  -16.4546 H   0  0  0  0  0  0  0  0  0  0  0  0
  -20.6187   -4.6891  -12.8431 O   0  0  0  0  0  0  0  0  0  0  0  0
  -20.8468   -3.9742  -14.0390 C   0  0  0  0  0  0  0  0  0  0  0  0
  -19.5212   -3.3958  -14.4900 C   0  0  0  0  0  0  0  0  0  0  0  0
  -19.4973   -3.2050  -15.9918 C   0  0  0  0  0  0  0  0  0  0  0  0
  -20.5427   -4.1138  -16.6042 C   0  0  0  0  0  0  0  0  0  0  0  0
  -20.8079   -3.7365  -18.0447 C   0  0  0  0  0  0  0  0  0  0  0  0
  -21.2733   -6.1749  -18.0889 C   0  0  0  0  0  0  0  0  0  0  0  0
  -20.7733   -4.9926  -18.8890 C   0  0  0  0  0  0  0  0  0  0  0  0
 22 23  1  0  0  0
 23 21  1  0  0  0
 21 20  1  0  0  0
 20 19  1  0  0  0
 19 18  1  0  0  0
 18 17  1  0  0  0
 17 16  1  0  0  0
 16  9  1  0  0  0
  9  7  1  0  0  0
  9  2  1  0  0  0
  7  8  1  0  0  0
  7  5  1  0  0  0
  5  6  1  0  0  0
  5  3  1  0  0  0
  3  4  1  0  0  0
  3  1  1  0  0  0
  1  2  1  0  0  0
  1 14  1  0  0  0
 14 13  1  0  0  0
 13 15  1  0  0  0
  4 10  1  0  0  0
  6 11  1  0  0  0
  8 12  1  0  0  0
M  END
> <minimizedAffinity>
-5.34866

$$$$
4XO8_KGM_A_501


 23 23  0  0  0  0  0  0  0  0999 V2000
  -20.8512   -6.5124  -12.9361 C   0  0  0  0  0  0  0  0  0  0  0  0
  -19.7296   -5.7794  -12.5274 O   0  0  0  0  0  0  0  0  0  0  0  0
  -20.3977   -7.7728  -13.6493 C   0  0  0  0  0  0  0  0  0  0  0  0
  -21.5105   -8.4463  -14.1599 O   0  0  0  0  0  0  0  0  0  0  0  0
  -19.4561   -7.3927  -14.7932 C   0  0  0  0  0  0  0  0  0  0  0  0
  -18.9426   -8.5525  -15.3866 O   0  0  0  0  0  0  0  0  0  0  0  0
  -18.3140   -6.5459  -14.2585 C   0  0  0  0  0  0  0  0  0  0  0  0
  -17.5280   -7.2956  -13.3666 O   0  0  0  0  0  0  0  0  0  0  0  0
  -18.8655   -5.3492  -13.5218 C   0  0  0  0  0  0  0  0  0  0  0  0
  -21.9786   -7.8703  -14.7844 H   0  0  0  0  0  0  0  0  0  0  0  0
  -18.4493   -9.0628  -14.7255 H   0  0  0  0  0  0  0  0  0  0  0  0
  -18.0739   -7.5840  -12.6185 H   0  0  0  0  0  0  0  0  0  0  0  0
  -21.3031   -8.1210  -11.2126 O   0  0  0  0  0  0  0  0  0  0  0  0
  -21.7025   -6.8743  -11.7364 C   0  0  0  0  0  0  0  0  0  0  0  0
  -21.8550   -8.3413  -10.4459 H   0  0  0  0  0  0  0  0  0  0  0  0
  -19.5624   -4.5350  -14.4533 O   0  0  0  0  0  0  0  0  0  0  0  0
  -18.7590   -3.6774  -15.2358 C   0  0  0  0  0  0  0  0  0  0  0  0
  -19.6644   -2.9744  -16.2264 C   0  0  0  0  0  0  0  0  0  0  0  0
  -20.5900   -3.9603  -16.9072 C   0  0  0  0  0  0  0  0  0  0  0  0
  -20.6648   -3.6063  -18.3779 C   0  0  0  0  0  0  0  0  0  0  0  0
  -20.6513   -2.1065  -18.5728 C   0  0  0  0  0  0  0  0  0  0  0  0
  -22.1725   -0.2479  -19.2022 C   0  0  0  0  0  0  0  0  0  0  0  0
  -21.8580   -1.7143  -19.3987 C   0  0  0  0  0  0  0  0  0  0  0  0
 22 23  1  0  0  0
 23 21  1  0  0  0
 21 20  1  0  0  0
 20 19  1  0  0  0
 19 18  1  0  0  0
 18 17  1  0  0  0
 17 16  1  0  0  0
 16  9  1  0  0  0
  9  7  1  0  0  0
  9  2  1  0  0  0
  7  8  1  0  0  0
  7  5  1  0  0  0
  5  6  1  0  0  0
  5  3  1  0  0  0
  3  4  1  0  0  0
  3  1  1  0  0  0
  1  2  1  0  0  0
  1 14  1  0  0  0
 14 13  1  0  0  0
 13 15  1  0  0  0
  4 10  1  0  0  0
  6 11  1  0  0  0
  8 12  1  0  0  0
M  END
> <minimizedAffinity>
-5.27166

$$$$
4XO8_KGM_A_501


 23 23  0  0  0  0  0  0  0  0999 V2000
  -21.0337   -6.6568  -13.1747 C   0  0  0  0  0  0  0  0  0  0  0  0
  -20.7053   -5.6150  -14.0516 O   0  0  0  0  0  0  0  0  0  0  0  0
  -19.8072   -7.0436  -12.3690 C   0  0  0  0  0  0  0  0  0  0  0  0
  -20.1003   -8.1580  -11.5786 O   0  0  0  0  0  0  0  0  0  0  0  0
  -18.6614   -7.3776  -13.3257 C   0  0  0  0  0  0  0  0  0  0  0  0
  -17.4934   -7.6260  -12.5942 O   0  0  0  0  0  0  0  0  0  0  0  0
  -18.4297   -6.2149  -14.2754 C   0  0  0  0  0  0  0  0  0  0  0  0
  -17.9982   -5.0828  -13.5630 O   0  0  0  0  0  0  0  0  0  0  0  0
  -19.7159   -5.8716  -14.9874 C   0  0  0  0  0  0  0  0  0  0  0  0
  -20.3616   -8.8986  -12.1481 H   0  0  0  0  0  0  0  0  0  0  0  0
  -17.2591   -6.8367  -12.0813 H   0  0  0  0  0  0  0  0  0  0  0  0
  -18.6789   -4.8255  -12.9217 H   0  0  0  0  0  0  0  0  0  0  0  0
  -21.6117   -5.6550  -11.0712 O   0  0  0  0  0  0  0  0  0  0  0  0
  -22.1483   -6.2233  -12.2448 C   0  0  0  0  0  0  0  0  0  0  0  0
  -22.3344   -5.3818  -10.4846 H   0  0  0  0  0  0  0  0  0  0  0  0
  -20.0864   -6.9784  -15.7962 O   0  0  0  0  0  0  0  0  0  0  0  0
  -20.1339   -6.7309  -17.1853 C   0  0  0  0  0  0  0  0  0  0  0  0
  -21.1305   -5.6143  -17.4206 C   0  0  0  0  0  0  0  0  0  0  0  0
  -20.7708   -4.8203  -18.6586 C   0  0  0  0  0  0  0  0  0  0  0  0
  -20.0890   -3.5403  -18.2221 C   0  0  0  0  0  0  0  0  0  0  0  0
  -20.9807   -2.3435  -18.4681 C   0  0  0  0  0  0  0  0  0  0  0  0
  -20.1209   -2.0347  -16.1595 C   0  0  0  0  0  0  0  0  0  0  0  0
  -21.1680   -1.6021  -17.1616 C   0  0  0  0  0  0  0  0  0  0  0  0
 22 23  1  0  0  0
 23 21  1  0  0  0
 21 20  1  0  0  0
 20 19  1  0  0  0
 19 18  1  0  0  0
 18 17  1  0  0  0
 17 16  1  0  0  0
 16  9  1  0  0  0
  9  7  1  0  0  0
  9  2  1  0  0  0
  7  8  1  0  0  0
  7  5  1  0  0  0
  5  6  1  0  0  0
  5  3  1  0  0  0
  3  4  1  0  0  0
  3  1  1  0  0  0
  1  2  1  0  0  0
  1 14  1  0  0  0
 14 13  1  0  0  0
 13 15  1  0  0  0
  4 10  1  0  0  0
  6 11  1  0  0  0
  8 12  1  0  0  0
M  END
> <minimizedAffinity>
-5.26882

$$$$
4XO8_KGM_A_501


 23 23  0  0  0  0  0  0  0  0999 V2000
  -21.4059   -5.5434  -13.2226 C   0  0  0  0  0  0  0  0  0  0  0  0
  -20.6719   -4.3648  -13.4084 O   0  0  0  0  0  0  0  0  0  0  0  0
  -20.4611   -6.7311  -13.2207 C   0  0  0  0  0  0  0  0  0  0  0  0
  -21.2000   -7.9151  -13.1530 O   0  0  0  0  0  0  0  0  0  0  0  0
  -19.6302   -6.7151  -14.5048 C   0  0  0  0  0  0  0  0  0  0  0  0
  -18.6772   -7.7403  -14.4627 O   0  0  0  0  0  0  0  0  0  0  0  0
  -18.9300   -5.3746  -14.6469 C   0  0  0  0  0  0  0  0  0  0  0  0
  -18.0036   -5.1963  -13.6052 O   0  0  0  0  0  0  0  0  0  0  0  0
  -19.9442   -4.2581  -14.5828 C   0  0  0  0  0  0  0  0  0  0  0  0
  -21.7912   -7.9716  -13.9199 H   0  0  0  0  0  0  0  0  0  0  0  0
  -18.0899   -7.6048  -13.7027 H   0  0  0  0  0  0  0  0  0  0  0  0
  -18.4677   -5.2124  -12.7535 H   0  0  0  0  0  0  0  0  0  0  0  0
  -22.2943   -4.1466  -11.4842 O   0  0  0  0  0  0  0  0  0  0  0  0
  -22.1647   -5.4836  -11.9128 C   0  0  0  0  0  0  0  0  0  0  0  0
  -22.7813   -4.1216  -10.6457 H   0  0  0  0  0  0  0  0  0  0  0  0
  -20.8083   -4.3765  -15.7033 O   0  0  0  0  0  0  0  0  0  0  0  0
  -20.5897   -3.4479  -16.7440 C   0  0  0  0  0  0  0  0  0  0  0  0
  -20.6076   -4.2102  -18.0532 C   0  0  0  0  0  0  0  0  0  0  0  0
  -21.0065   -5.6540  -17.8329 C   0  0  0  0  0  0  0  0  0  0  0  0
  -20.7462   -6.4208  -19.1128 C   0  0  0  0  0  0  0  0  0  0  0  0
  -19.3630   -7.0325  -19.1030 C   0  0  0  0  0  0  0  0  0  0  0  0
  -18.1695   -9.0171  -18.2077 C   0  0  0  0  0  0  0  0  0  0  0  0
  -19.2769   -8.0178  -17.9568 C   0  0  0  0  0  0  0  0  0  0  0  0
 22 23  1  0  0  0
 23 21  1  0  0  0
 21 20  1  0  0  0
 20 19  1  0  0  0
 19 18  1  0  0  0
 18 17  1  0  0  0
 17 16  1  0  0  0
 16  9  1  0  0  0
  9  7  1  0  0  0
  9  2  1  0  0  0
  7  8  1  0  0  0
  7  5  1  0  0  0
  5  6  1  0  0  0
  5  3  1  0  0  0
  3  4  1  0  0  0
  3  1  1  0  0  0
  1  2  1  0  0  0
  1 14  1  0  0  0
 14 13  1  0  0  0
 13 15  1  0  0  0
  4 10  1  0  0  0
  6 11  1  0  0  0
  8 12  1  0  0  0
M  END
> <minimizedAffinity>
-5.14626

$$$$
