1NDZ_FR5_A_1001


 41 45  0  0  0  0  0  0  0  0999 V2000
   48.1664   56.8935   19.5336 N   0  0  0  0  0  0  0  0  0  0  0  0
   47.7600   58.1707   19.3383 C   0  0  0  0  0  0  0  0  0  0  0  0
   47.1847   58.2537   18.1501 C   0  0  0  0  0  0  0  0  0  0  0  0
   47.2254   56.8993   17.6127 C   0  0  0  0  0  0  0  0  0  0  0  0
   47.9355   56.1064   18.4883 C   0  0  0  0  0  0  0  0  0  0  0  0
   46.9553   56.4186   16.3935 C   0  0  0  0  0  0  0  0  0  0  0  0
   47.2259   55.1655   16.1227 C   0  0  0  0  0  0  0  0  0  0  0  0
   47.8644   54.3838   17.0359 C   0  0  0  0  0  0  0  0  0  0  0  0
   48.1716   54.8506   18.2523 C   0  0  0  0  0  0  0  0  0  0  0  0
   48.1162   53.1375   16.8899 N   0  0  0  0  0  0  0  0  0  0  0  0
   47.3337   52.1675   16.8939 C   0  0  0  0  0  0  0  0  0  0  0  0
   46.1789   52.1976   17.2638 O   0  0  0  0  0  0  0  0  0  0  0  0
   49.0651   52.9127   16.7548 H   0  0  0  0  0  0  0  0  0  0  0  0
   47.9055   50.8720   16.2942 C   0  0  0  0  0  0  0  0  0  0  0  0
   48.6113   49.8949   17.2660 C   0  0  0  0  0  0  0  0  0  0  0  0
   43.6444   47.0874   19.4189 C   0  0  0  0  0  0  0  0  0  0  0  0
   44.2532   47.7161   18.3212 C   0  0  0  0  0  0  0  0  0  0  0  0
   45.5698   48.1310   18.3342 C   0  0  0  0  0  0  0  0  0  0  0  0
   46.3097   48.1794   19.5373 C   0  0  0  0  0  0  0  0  0  0  0  0
   45.7644   47.5526   20.6325 C   0  0  0  0  0  0  0  0  0  0  0  0
   44.4058   47.0700   20.5861 C   0  0  0  0  0  0  0  0  0  0  0  0
   46.3530   48.7346   17.3731 N   0  0  0  0  0  0  0  0  0  0  0  0
   47.5098   49.0775   17.9588 C   0  0  0  0  0  0  0  0  0  0  0  0
   47.5748   48.7092   19.2336 N   0  0  0  0  0  0  0  0  0  0  0  0
   48.6830   48.8713   20.1560 C   0  0  0  0  0  0  0  0  0  0  0  0
   48.8305   56.3663   20.8491 C   0  0  0  0  0  0  0  0  0  0  0  0
   50.1200   57.2112   21.2301 C   0  0  0  0  0  0  0  0  0  0  0  0
   51.3575   56.3386   21.4276 C   0  0  0  0  0  0  0  0  0  0  0  0
   51.0647   53.8179   21.1404 C   0  0  0  0  0  0  0  0  0  0  0  0
   51.3145   55.0793   20.6256 N   0  0  0  0  0  0  0  0  0  0  0  0
   51.6618   54.8837   19.3168 C   0  0  0  0  0  0  0  0  0  0  0  0
   51.7473   53.6587   19.0137 N   0  0  0  0  0  0  0  0  0  0  0  0
   51.4344   52.9680   20.2159 C   0  0  0  0  0  0  0  0  0  0  0  0
   51.4595   51.5159   20.3816 C   0  0  0  0  0  0  0  0  0  0  0  0
   51.4992   50.7209   19.4045 O   0  0  0  0  0  0  0  0  0  0  0  0
   51.3283   51.1266   21.6408 N   0  0  0  0  0  0  0  0  0  0  0  0
   51.3036   51.7955   22.3628 H   0  0  0  0  0  0  0  0  0  0  0  0
   51.2555   50.1684   21.8548 H   0  0  0  0  0  0  0  0  0  0  0  0
   52.5934   57.3140   21.1641 C   0  0  0  0  0  0  0  0  0  0  0  0
   53.2836   57.9411   22.2531 O   0  0  0  0  0  0  0  0  0  0  0  0
   52.6907   58.5714   22.6916 H   0  0  0  0  0  0  0  0  0  0  0  0
 29 30  1  0  0  0
 29 33  2  0  0  0
 30 31  1  0  0  0
 30 28  1  0  0  0
 31 32  2  0  0  0
 32 33  1  0  0  0
 33 34  1  0  0  0
 34 35  2  0  0  0
 34 36  1  0  0  0
 28 39  1  0  0  0
 28 27  1  0  0  0
 39 40  1  0  0  0
 27 26  1  0  0  0
 26  1  1  0  0  0
  1  2  1  0  0  0
  1  5  1  0  0  0
  2  3  2  0  0  0
  3  4  1  0  0  0
  4  5  2  0  0  0
  4  6  1  0  0  0
  5  9  1  0  0  0
  6  7  2  0  0  0
  7  8  1  0  0  0
  8  9  2  0  0  0
  8 10  1  0  0  0
 10 11  1  0  0  0
 11 12  2  0  0  0
 11 14  1  0  0  0
 14 15  1  0  0  0
 15 23  1  0  0  0
 16 17  2  0  0  0
 16 21  1  0  0  0
 17 18  1  0  0  0
 18 19  2  0  0  0
 18 22  1  0  0  0
 19 20  1  0  0  0
 19 24  1  0  0  0
 20 21  2  0  0  0
 22 23  2  0  0  0
 23 24  1  0  0  0
 24 25  1  0  0  0
 36 37  1  0  0  0
 36 38  1  0  0  0
 40 41  1  0  0  0
 10 13  1  0  0  0
M  END
> <minimizedAffinity>
-10.19339

$$$$
1NDZ_FR5_A_1001


 41 45  0  0  0  0  0  0  0  0999 V2000
   49.5509   51.2822   18.5280 N   0  0  0  0  0  0  0  0  0  0  0  0
   50.1006   50.0887   18.8567 C   0  0  0  0  0  0  0  0  0  0  0  0
   50.4826   50.1341   20.1224 C   0  0  0  0  0  0  0  0  0  0  0  0
   50.0928   51.4587   20.5897 C   0  0  0  0  0  0  0  0  0  0  0  0
   49.5941   52.1674   19.5180 C   0  0  0  0  0  0  0  0  0  0  0  0
   50.3773   52.1229   21.7159 C   0  0  0  0  0  0  0  0  0  0  0  0
   50.0279   53.3810   21.8253 C   0  0  0  0  0  0  0  0  0  0  0  0
   49.4694   54.0368   20.7715 C   0  0  0  0  0  0  0  0  0  0  0  0
   49.2020   53.4017   19.6239 C   0  0  0  0  0  0  0  0  0  0  0  0
   49.0398   55.2421   20.7989 N   0  0  0  0  0  0  0  0  0  0  0  0
   49.6823   56.3096   20.8275 C   0  0  0  0  0  0  0  0  0  0  0  0
   50.8684   56.4099   21.0606 O   0  0  0  0  0  0  0  0  0  0  0  0
   48.0602   55.3401   20.7971 H   0  0  0  0  0  0  0  0  0  0  0  0
   48.8743   57.5619   20.4484 C   0  0  0  0  0  0  0  0  0  0  0  0
   47.3340   57.4173   20.3870 C   0  0  0  0  0  0  0  0  0  0  0  0
   46.7472   56.7943   14.3493 C   0  0  0  0  0  0  0  0  0  0  0  0
   47.4870   56.4647   15.4960 C   0  0  0  0  0  0  0  0  0  0  0  0
   47.0913   56.8243   16.7687 C   0  0  0  0  0  0  0  0  0  0  0  0
   46.0548   57.7626   16.9748 C   0  0  0  0  0  0  0  0  0  0  0  0
   45.2861   58.0949   15.8847 C   0  0  0  0  0  0  0  0  0  0  0  0
   45.6785   57.6624   14.5656 C   0  0  0  0  0  0  0  0  0  0  0  0
   47.6488   56.5845   18.0069 N   0  0  0  0  0  0  0  0  0  0  0  0
   46.9533   57.3003   18.9028 C   0  0  0  0  0  0  0  0  0  0  0  0
   45.9428   57.9702   18.3596 N   0  0  0  0  0  0  0  0  0  0  0  0
   44.9594   58.8022   19.0275 C   0  0  0  0  0  0  0  0  0  0  0  0
   48.9112   51.6102   17.1378 C   0  0  0  0  0  0  0  0  0  0  0  0
   47.4790   50.9419   16.9829 C   0  0  0  0  0  0  0  0  0  0  0  0
   47.5146   49.6613   16.1520 C   0  0  0  0  0  0  0  0  0  0  0  0
   45.8571   48.6682   17.8220 C   0  0  0  0  0  0  0  0  0  0  0  0
   46.5138   48.6481   16.6026 N   0  0  0  0  0  0  0  0  0  0  0  0
   46.1756   47.4580   16.0187 C   0  0  0  0  0  0  0  0  0  0  0  0
   45.4810   46.7231   16.7783 N   0  0  0  0  0  0  0  0  0  0  0  0
   45.3386   47.4760   17.9755 C   0  0  0  0  0  0  0  0  0  0  0  0
   44.6574   47.0133   19.1832 C   0  0  0  0  0  0  0  0  0  0  0  0
   44.9923   47.3890   20.3386 O   0  0  0  0  0  0  0  0  0  0  0  0
   43.7378   46.0893   18.9486 N   0  0  0  0  0  0  0  0  0  0  0  0
   43.5185   45.8370   18.0226 H   0  0  0  0  0  0  0  0  0  0  0  0
   43.2736   45.6549   19.7003 H   0  0  0  0  0  0  0  0  0  0  0  0
   47.4047   50.1522   14.6370 C   0  0  0  0  0  0  0  0  0  0  0  0
   48.5784   50.3400   13.8353 O   0  0  0  0  0  0  0  0  0  0  0  0
   49.0981   51.0778   14.1908 H   0  0  0  0  0  0  0  0  0  0  0  0
 29 30  1  0  0  0
 29 33  2  0  0  0
 30 31  1  0  0  0
 30 28  1  0  0  0
 31 32  2  0  0  0
 32 33  1  0  0  0
 33 34  1  0  0  0
 34 35  2  0  0  0
 34 36  1  0  0  0
 28 39  1  0  0  0
 28 27  1  0  0  0
 39 40  1  0  0  0
 27 26  1  0  0  0
 26  1  1  0  0  0
  1  2  1  0  0  0
  1  5  1  0  0  0
  2  3  2  0  0  0
  3  4  1  0  0  0
  4  5  2  0  0  0
  4  6  1  0  0  0
  5  9  1  0  0  0
  6  7  2  0  0  0
  7  8  1  0  0  0
  8  9  2  0  0  0
  8 10  1  0  0  0
 10 11  1  0  0  0
 11 12  2  0  0  0
 11 14  1  0  0  0
 14 15  1  0  0  0
 15 23  1  0  0  0
 16 17  2  0  0  0
 16 21  1  0  0  0
 17 18  1  0  0  0
 18 19  2  0  0  0
 18 22  1  0  0  0
 19 20  1  0  0  0
 19 24  1  0  0  0
 20 21  2  0  0  0
 22 23  2  0  0  0
 23 24  1  0  0  0
 24 25  1  0  0  0
 36 37  1  0  0  0
 36 38  1  0  0  0
 40 41  1  0  0  0
 10 13  1  0  0  0
M  END
> <minimizedAffinity>
-9.61678

$$$$
1NDZ_FR5_A_1001


 41 45  0  0  0  0  0  0  0  0999 V2000
   48.4134   56.4731   19.3945 N   0  0  0  0  0  0  0  0  0  0  0  0
   47.9843   57.5833   20.0410 C   0  0  0  0  0  0  0  0  0  0  0  0
   48.6258   57.6747   21.1942 C   0  0  0  0  0  0  0  0  0  0  0  0
   49.5373   56.5374   21.2134 C   0  0  0  0  0  0  0  0  0  0  0  0
   49.2937   55.7674   20.0965 C   0  0  0  0  0  0  0  0  0  0  0  0
   50.2972   56.0240   22.1878 C   0  0  0  0  0  0  0  0  0  0  0  0
   50.9146   54.8856   21.9884 C   0  0  0  0  0  0  0  0  0  0  0  0
   50.7107   54.1807   20.8421 C   0  0  0  0  0  0  0  0  0  0  0  0
   49.9315   54.6594   19.8646 C   0  0  0  0  0  0  0  0  0  0  0  0
   51.3117   53.0949   20.5291 N   0  0  0  0  0  0  0  0  0  0  0  0
   51.0129   51.9176   20.8083 C   0  0  0  0  0  0  0  0  0  0  0  0
   50.1935   51.5778   21.6357 O   0  0  0  0  0  0  0  0  0  0  0  0
   52.1279   53.2057   19.9900 H   0  0  0  0  0  0  0  0  0  0  0  0
   51.7093   50.8512   19.9467 C   0  0  0  0  0  0  0  0  0  0  0  0
   51.2483   50.7207   18.4744 C   0  0  0  0  0  0  0  0  0  0  0  0
   45.8372   47.9094   18.5322 C   0  0  0  0  0  0  0  0  0  0  0  0
   47.2070   47.8231   18.8276 C   0  0  0  0  0  0  0  0  0  0  0  0
   48.0672   48.8953   18.7002 C   0  0  0  0  0  0  0  0  0  0  0  0
   47.6741   50.0722   18.0237 C   0  0  0  0  0  0  0  0  0  0  0  0
   46.3368   50.2123   17.7379 C   0  0  0  0  0  0  0  0  0  0  0  0
   45.4368   49.1017   17.9317 C   0  0  0  0  0  0  0  0  0  0  0  0
   49.4157   49.0274   18.9559 N   0  0  0  0  0  0  0  0  0  0  0  0
   49.7916   50.2322   18.5021 C   0  0  0  0  0  0  0  0  0  0  0  0
   48.7828   50.9345   17.9982 N   0  0  0  0  0  0  0  0  0  0  0  0
   48.8105   52.2838   17.4654 C   0  0  0  0  0  0  0  0  0  0  0  0
   47.9485   56.0464   17.9623 C   0  0  0  0  0  0  0  0  0  0  0  0
   47.6072   57.3080   17.0603 C   0  0  0  0  0  0  0  0  0  0  0  0
   46.1779   57.2779   16.5239 C   0  0  0  0  0  0  0  0  0  0  0  0
   44.6062   58.4452   18.1638 C   0  0  0  0  0  0  0  0  0  0  0  0
   45.3547   58.4303   16.9985 N   0  0  0  0  0  0  0  0  0  0  0  0
   45.0405   59.5883   16.3411 C   0  0  0  0  0  0  0  0  0  0  0  0
   44.1256   60.2432   16.9188 N   0  0  0  0  0  0  0  0  0  0  0  0
   43.7911   59.4643   18.0597 C   0  0  0  0  0  0  0  0  0  0  0  0
   42.7325   59.7851   19.0152 C   0  0  0  0  0  0  0  0  0  0  0  0
   42.2532   60.9445   19.1347 O   0  0  0  0  0  0  0  0  0  0  0  0
   42.4107   58.7719   19.8053 N   0  0  0  0  0  0  0  0  0  0  0  0
   42.8189   57.8875   19.6627 H   0  0  0  0  0  0  0  0  0  0  0  0
   41.7632   58.9033   20.5353 H   0  0  0  0  0  0  0  0  0  0  0  0
   46.3361   57.1130   14.9439 C   0  0  0  0  0  0  0  0  0  0  0  0
   47.5901   56.7301   14.3640 O   0  0  0  0  0  0  0  0  0  0  0  0
   48.2398   57.4368   14.5031 H   0  0  0  0  0  0  0  0  0  0  0  0
 29 30  1  0  0  0
 29 33  2  0  0  0
 30 31  1  0  0  0
 30 28  1  0  0  0
 31 32  2  0  0  0
 32 33  1  0  0  0
 33 34  1  0  0  0
 34 35  2  0  0  0
 34 36  1  0  0  0
 28 39  1  0  0  0
 28 27  1  0  0  0
 39 40  1  0  0  0
 27 26  1  0  0  0
 26  1  1  0  0  0
  1  2  1  0  0  0
  1  5  1  0  0  0
  2  3  2  0  0  0
  3  4  1  0  0  0
  4  5  2  0  0  0
  4  6  1  0  0  0
  5  9  1  0  0  0
  6  7  2  0  0  0
  7  8  1  0  0  0
  8  9  2  0  0  0
  8 10  1  0  0  0
 10 11  1  0  0  0
 11 12  2  0  0  0
 11 14  1  0  0  0
 14 15  1  0  0  0
 15 23  1  0  0  0
 16 17  2  0  0  0
 16 21  1  0  0  0
 17 18  1  0  0  0
 18 19  2  0  0  0
 18 22  1  0  0  0
 19 20  1  0  0  0
 19 24  1  0  0  0
 20 21  2  0  0  0
 22 23  2  0  0  0
 23 24  1  0  0  0
 24 25  1  0  0  0
 36 37  1  0  0  0
 36 38  1  0  0  0
 40 41  1  0  0  0
 10 13  1  0  0  0
M  END
> <minimizedAffinity>
-9.49181

$$$$
1NDZ_FR5_A_1001


 41 45  0  0  0  0  0  0  0  0999 V2000
   46.1605   47.8458   17.0219 N   0  0  0  0  0  0  0  0  0  0  0  0
   44.9648   47.2269   16.8734 C   0  0  0  0  0  0  0  0  0  0  0  0
   44.4507   47.0087   18.0725 C   0  0  0  0  0  0  0  0  0  0  0  0
   45.4119   47.5796   19.0079 C   0  0  0  0  0  0  0  0  0  0  0  0
   46.5091   48.0102   18.2935 C   0  0  0  0  0  0  0  0  0  0  0  0
   45.5099   47.5007   20.3400 C   0  0  0  0  0  0  0  0  0  0  0  0
   46.5735   47.9816   20.9354 C   0  0  0  0  0  0  0  0  0  0  0  0
   47.6135   48.4682   20.2045 C   0  0  0  0  0  0  0  0  0  0  0  0
   47.5516   48.5304   18.8688 C   0  0  0  0  0  0  0  0  0  0  0  0
   48.6640   49.0131   20.6919 N   0  0  0  0  0  0  0  0  0  0  0  0
   49.7868   48.5153   20.9033 C   0  0  0  0  0  0  0  0  0  0  0  0
   50.0439   47.3300   20.8901 O   0  0  0  0  0  0  0  0  0  0  0  0
   48.5718   49.9627   20.9348 H   0  0  0  0  0  0  0  0  0  0  0  0
   50.9186   49.5355   21.1113 C   0  0  0  0  0  0  0  0  0  0  0  0
   51.4440   50.2736   19.8558 C   0  0  0  0  0  0  0  0  0  0  0  0
   50.8420   56.0099   21.8355 C   0  0  0  0  0  0  0  0  0  0  0  0
   50.7372   54.6449   22.1462 C   0  0  0  0  0  0  0  0  0  0  0  0
   51.1293   53.6486   21.2747 C   0  0  0  0  0  0  0  0  0  0  0  0
   51.4213   53.9334   19.9216 C   0  0  0  0  0  0  0  0  0  0  0  0
   51.5601   55.2569   19.5770 C   0  0  0  0  0  0  0  0  0  0  0  0
   51.2028   56.2896   20.5186 C   0  0  0  0  0  0  0  0  0  0  0  0
   51.1334   52.2746   21.3911 N   0  0  0  0  0  0  0  0  0  0  0  0
   51.4569   51.7735   20.1898 C   0  0  0  0  0  0  0  0  0  0  0  0
   51.7111   52.7142   19.2868 N   0  0  0  0  0  0  0  0  0  0  0  0
   52.1339   52.5411   17.9097 C   0  0  0  0  0  0  0  0  0  0  0  0
   47.0557   48.3397   15.8369 C   0  0  0  0  0  0  0  0  0  0  0  0
   46.8390   49.8861   15.5479 C   0  0  0  0  0  0  0  0  0  0  0  0
   48.1244   50.6973   15.6938 C   0  0  0  0  0  0  0  0  0  0  0  0
   47.6462   53.0852   16.4628 C   0  0  0  0  0  0  0  0  0  0  0  0
   48.0172   51.7761   16.7214 N   0  0  0  0  0  0  0  0  0  0  0  0
   48.4049   51.7526   18.0332 C   0  0  0  0  0  0  0  0  0  0  0  0
   48.4066   52.9020   18.5609 N   0  0  0  0  0  0  0  0  0  0  0  0
   47.9877   53.7759   17.5212 C   0  0  0  0  0  0  0  0  0  0  0  0
   47.8908   55.2300   17.6337 C   0  0  0  0  0  0  0  0  0  0  0  0
   48.1235   55.8456   18.7085 O   0  0  0  0  0  0  0  0  0  0  0  0
   47.4346   55.8145   16.5361 N   0  0  0  0  0  0  0  0  0  0  0  0
   47.2716   55.2803   15.7254 H   0  0  0  0  0  0  0  0  0  0  0  0
   47.2585   56.7831   16.5311 H   0  0  0  0  0  0  0  0  0  0  0  0
   49.2727   49.6103   15.9133 C   0  0  0  0  0  0  0  0  0  0  0  0
   50.6558   49.9877   15.9121 O   0  0  0  0  0  0  0  0  0  0  0  0
   50.9078   50.2897   15.0254 H   0  0  0  0  0  0  0  0  0  0  0  0
 29 30  1  0  0  0
 29 33  2  0  0  0
 30 31  1  0  0  0
 30 28  1  0  0  0
 31 32  2  0  0  0
 32 33  1  0  0  0
 33 34  1  0  0  0
 34 35  2  0  0  0
 34 36  1  0  0  0
 28 39  1  0  0  0
 28 27  1  0  0  0
 39 40  1  0  0  0
 27 26  1  0  0  0
 26  1  1  0  0  0
  1  2  1  0  0  0
  1  5  1  0  0  0
  2  3  2  0  0  0
  3  4  1  0  0  0
  4  5  2  0  0  0
  4  6  1  0  0  0
  5  9  1  0  0  0
  6  7  2  0  0  0
  7  8  1  0  0  0
  8  9  2  0  0  0
  8 10  1  0  0  0
 10 11  1  0  0  0
 11 12  2  0  0  0
 11 14  1  0  0  0
 14 15  1  0  0  0
 15 23  1  0  0  0
 16 17  2  0  0  0
 16 21  1  0  0  0
 17 18  1  0  0  0
 18 19  2  0  0  0
 18 22  1  0  0  0
 19 20  1  0  0  0
 19 24  1  0  0  0
 20 21  2  0  0  0
 22 23  2  0  0  0
 23 24  1  0  0  0
 24 25  1  0  0  0
 36 37  1  0  0  0
 36 38  1  0  0  0
 40 41  1  0  0  0
 10 13  1  0  0  0
M  END
> <minimizedAffinity>
-9.42488

$$$$
1NDZ_FR5_A_1001


 41 45  0  0  0  0  0  0  0  0999 V2000
   50.1393   54.9595   19.9414 N   0  0  0  0  0  0  0  0  0  0  0  0
   51.1004   54.8456   20.8891 C   0  0  0  0  0  0  0  0  0  0  0  0
   50.8738   55.7468   21.8305 C   0  0  0  0  0  0  0  0  0  0  0  0
   49.6531   56.4284   21.4183 C   0  0  0  0  0  0  0  0  0  0  0  0
   49.2881   55.9521   20.1775 C   0  0  0  0  0  0  0  0  0  0  0  0
   49.0527   57.5320   21.8789 C   0  0  0  0  0  0  0  0  0  0  0  0
   48.0346   58.0310   21.2222 C   0  0  0  0  0  0  0  0  0  0  0  0
   47.6499   57.4937   20.0323 C   0  0  0  0  0  0  0  0  0  0  0  0
   48.2540   56.4072   19.5358 C   0  0  0  0  0  0  0  0  0  0  0  0
   46.6349   57.8693   19.3491 N   0  0  0  0  0  0  0  0  0  0  0  0
   45.4309   57.8928   19.6705 C   0  0  0  0  0  0  0  0  0  0  0  0
   44.9518   57.3457   20.6413 O   0  0  0  0  0  0  0  0  0  0  0  0
   46.8338   58.1852   18.4382 H   0  0  0  0  0  0  0  0  0  0  0  0
   44.5388   58.7687   18.7751 C   0  0  0  0  0  0  0  0  0  0  0  0
   45.2508   59.7485   17.8106 C   0  0  0  0  0  0  0  0  0  0  0  0
   45.5969   56.9533   12.4019 C   0  0  0  0  0  0  0  0  0  0  0  0
   45.9511   56.9278   13.7602 C   0  0  0  0  0  0  0  0  0  0  0  0
   45.4812   57.8518   14.6718 C   0  0  0  0  0  0  0  0  0  0  0  0
   44.8209   59.0272   14.2478 C   0  0  0  0  0  0  0  0  0  0  0  0
   44.4307   59.0849   12.9309 C   0  0  0  0  0  0  0  0  0  0  0  0
   44.8805   58.0792   11.9998 C   0  0  0  0  0  0  0  0  0  0  0  0
   45.6828   57.9887   16.0290 N   0  0  0  0  0  0  0  0  0  0  0  0
   45.1314   59.1542   16.3985 C   0  0  0  0  0  0  0  0  0  0  0  0
   44.5377   59.7888   15.3937 N   0  0  0  0  0  0  0  0  0  0  0  0
   43.8044   61.0401   15.4348 C   0  0  0  0  0  0  0  0  0  0  0  0
   50.0112   54.0247   18.6927 C   0  0  0  0  0  0  0  0  0  0  0  0
   48.6529   53.2024   18.7171 C   0  0  0  0  0  0  0  0  0  0  0  0
   48.6527   52.0380   17.7293 C   0  0  0  0  0  0  0  0  0  0  0  0
   49.2089   50.5212   19.7072 C   0  0  0  0  0  0  0  0  0  0  0  0
   48.8040   50.7100   18.3962 N   0  0  0  0  0  0  0  0  0  0  0  0
   48.7468   49.4605   17.8420 C   0  0  0  0  0  0  0  0  0  0  0  0
   49.1621   48.5602   18.6272 N   0  0  0  0  0  0  0  0  0  0  0  0
   49.5329   49.2569   19.8093 C   0  0  0  0  0  0  0  0  0  0  0  0
   50.1315   48.6436   20.9934 C   0  0  0  0  0  0  0  0  0  0  0  0
   50.3523   47.4058   21.0797 O   0  0  0  0  0  0  0  0  0  0  0  0
   50.3143   49.4940   21.9923 N   0  0  0  0  0  0  0  0  0  0  0  0
   50.1242   50.4515   21.8646 H   0  0  0  0  0  0  0  0  0  0  0  0
   50.6402   49.1686   22.8624 H   0  0  0  0  0  0  0  0  0  0  0  0
   47.3405   52.2504   16.8452 C   0  0  0  0  0  0  0  0  0  0  0  0
   47.2519   53.3276   15.9033 O   0  0  0  0  0  0  0  0  0  0  0  0
   47.2465   54.1731   16.3786 H   0  0  0  0  0  0  0  0  0  0  0  0
 29 30  1  0  0  0
 29 33  2  0  0  0
 30 31  1  0  0  0
 30 28  1  0  0  0
 31 32  2  0  0  0
 32 33  1  0  0  0
 33 34  1  0  0  0
 34 35  2  0  0  0
 34 36  1  0  0  0
 28 39  1  0  0  0
 28 27  1  0  0  0
 39 40  1  0  0  0
 27 26  1  0  0  0
 26  1  1  0  0  0
  1  2  1  0  0  0
  1  5  1  0  0  0
  2  3  2  0  0  0
  3  4  1  0  0  0
  4  5  2  0  0  0
  4  6  1  0  0  0
  5  9  1  0  0  0
  6  7  2  0  0  0
  7  8  1  0  0  0
  8  9  2  0  0  0
  8 10  1  0  0  0
 10 11  1  0  0  0
 11 12  2  0  0  0
 11 14  1  0  0  0
 14 15  1  0  0  0
 15 23  1  0  0  0
 16 17  2  0  0  0
 16 21  1  0  0  0
 17 18  1  0  0  0
 18 19  2  0  0  0
 18 22  1  0  0  0
 19 20  1  0  0  0
 19 24  1  0  0  0
 20 21  2  0  0  0
 22 23  2  0  0  0
 23 24  1  0  0  0
 24 25  1  0  0  0
 36 37  1  0  0  0
 36 38  1  0  0  0
 40 41  1  0  0  0
 10 13  1  0  0  0
M  END
> <minimizedAffinity>
-9.28742

$$$$
1NDZ_FR5_A_1001


 41 45  0  0  0  0  0  0  0  0999 V2000
   49.1742   50.4246   17.0832 N   0  0  0  0  0  0  0  0  0  0  0  0
   48.7494   49.5129   16.1761 C   0  0  0  0  0  0  0  0  0  0  0  0
   47.8321   50.0773   15.4080 C   0  0  0  0  0  0  0  0  0  0  0  0
   47.7327   51.4520   15.8824 C   0  0  0  0  0  0  0  0  0  0  0  0
   48.5343   51.5858   16.9956 C   0  0  0  0  0  0  0  0  0  0  0  0
   46.8578   52.4261   15.6065 C   0  0  0  0  0  0  0  0  0  0  0  0
   46.8974   53.5393   16.2964 C   0  0  0  0  0  0  0  0  0  0  0  0
   47.7520   53.6704   17.3476 C   0  0  0  0  0  0  0  0  0  0  0  0
   48.6168   52.6982   17.6620 C   0  0  0  0  0  0  0  0  0  0  0  0
   47.9080   54.7349   18.0408 N   0  0  0  0  0  0  0  0  0  0  0  0
   47.8588   55.9269   17.6804 C   0  0  0  0  0  0  0  0  0  0  0  0
   47.8693   56.3147   16.5311 O   0  0  0  0  0  0  0  0  0  0  0  0
   48.0938   54.5914   18.9969 H   0  0  0  0  0  0  0  0  0  0  0  0
   47.6886   56.9422   18.8227 C   0  0  0  0  0  0  0  0  0  0  0  0
   47.7489   58.4435   18.4487 C   0  0  0  0  0  0  0  0  0  0  0  0
   41.8089   59.7791   18.7937 C   0  0  0  0  0  0  0  0  0  0  0  0
   42.7942   58.7831   18.8832 C   0  0  0  0  0  0  0  0  0  0  0  0
   44.1447   59.0603   18.8118 C   0  0  0  0  0  0  0  0  0  0  0  0
   44.6104   60.3262   18.3899 C   0  0  0  0  0  0  0  0  0  0  0  0
   43.6847   61.3396   18.3140 C   0  0  0  0  0  0  0  0  0  0  0  0
   42.2790   61.0453   18.4496 C   0  0  0  0  0  0  0  0  0  0  0  0
   45.2557   58.2484   18.8999 N   0  0  0  0  0  0  0  0  0  0  0  0
   46.3241   59.0000   18.5959 C   0  0  0  0  0  0  0  0  0  0  0  0
   46.0134   60.2683   18.3513 N   0  0  0  0  0  0  0  0  0  0  0  0
   46.9109   61.3650   18.0401 C   0  0  0  0  0  0  0  0  0  0  0  0
   50.3092   50.1702   18.1304 C   0  0  0  0  0  0  0  0  0  0  0  0
   51.1803   51.4753   18.3746 C   0  0  0  0  0  0  0  0  0  0  0  0
   51.8464   51.4891   19.7485 C   0  0  0  0  0  0  0  0  0  0  0  0
   51.1601   53.8508   20.4366 C   0  0  0  0  0  0  0  0  0  0  0  0
   51.2408   52.4893   20.6780 N   0  0  0  0  0  0  0  0  0  0  0  0
   50.8155   52.3151   21.9666 C   0  0  0  0  0  0  0  0  0  0  0  0
   50.5865   53.4106   22.5558 N   0  0  0  0  0  0  0  0  0  0  0  0
   50.8828   54.4085   21.5881 C   0  0  0  0  0  0  0  0  0  0  0  0
   50.8258   55.8501   21.8230 C   0  0  0  0  0  0  0  0  0  0  0  0
   49.8048   56.5414   21.5626 O   0  0  0  0  0  0  0  0  0  0  0  0
   51.9771   56.3639   22.2291 N   0  0  0  0  0  0  0  0  0  0  0  0
   52.7411   55.7722   22.4174 H   0  0  0  0  0  0  0  0  0  0  0  0
   52.0688   57.3375   22.3426 H   0  0  0  0  0  0  0  0  0  0  0  0
   51.8319   49.9661   20.2267 C   0  0  0  0  0  0  0  0  0  0  0  0
   53.0292   49.1776   20.2147 O   0  0  0  0  0  0  0  0  0  0  0  0
   53.3170   49.0405   19.2986 H   0  0  0  0  0  0  0  0  0  0  0  0
 29 30  1  0  0  0
 29 33  2  0  0  0
 30 31  1  0  0  0
 30 28  1  0  0  0
 31 32  2  0  0  0
 32 33  1  0  0  0
 33 34  1  0  0  0
 34 35  2  0  0  0
 34 36  1  0  0  0
 28 39  1  0  0  0
 28 27  1  0  0  0
 39 40  1  0  0  0
 27 26  1  0  0  0
 26  1  1  0  0  0
  1  2  1  0  0  0
  1  5  1  0  0  0
  2  3  2  0  0  0
  3  4  1  0  0  0
  4  5  2  0  0  0
  4  6  1  0  0  0
  5  9  1  0  0  0
  6  7  2  0  0  0
  7  8  1  0  0  0
  8  9  2  0  0  0
  8 10  1  0  0  0
 10 11  1  0  0  0
 11 12  2  0  0  0
 11 14  1  0  0  0
 14 15  1  0  0  0
 15 23  1  0  0  0
 16 17  2  0  0  0
 16 21  1  0  0  0
 17 18  1  0  0  0
 18 19  2  0  0  0
 18 22  1  0  0  0
 19 20  1  0  0  0
 19 24  1  0  0  0
 20 21  2  0  0  0
 22 23  2  0  0  0
 23 24  1  0  0  0
 24 25  1  0  0  0
 36 37  1  0  0  0
 36 38  1  0  0  0
 40 41  1  0  0  0
 10 13  1  0  0  0
M  END
> <minimizedAffinity>
-9.25272

$$$$
1NDZ_FR5_A_1001


 41 45  0  0  0  0  0  0  0  0999 V2000
   47.1063   54.1552   16.3356 N   0  0  0  0  0  0  0  0  0  0  0  0
   46.3670   54.2123   15.2021 C   0  0  0  0  0  0  0  0  0  0  0  0
   46.0782   55.4783   14.9499 C   0  0  0  0  0  0  0  0  0  0  0  0
   46.7335   56.2359   16.0088 C   0  0  0  0  0  0  0  0  0  0  0  0
   47.2879   55.3437   16.9011 C   0  0  0  0  0  0  0  0  0  0  0  0
   46.6459   57.5226   16.3656 C   0  0  0  0  0  0  0  0  0  0  0  0
   47.2275   57.9241   17.4690 C   0  0  0  0  0  0  0  0  0  0  0  0
   47.8318   57.0284   18.2967 C   0  0  0  0  0  0  0  0  0  0  0  0
   47.9067   55.7309   17.9761 C   0  0  0  0  0  0  0  0  0  0  0  0
   48.4773   57.3286   19.3603 N   0  0  0  0  0  0  0  0  0  0  0  0
   48.0803   57.3679   20.5410 C   0  0  0  0  0  0  0  0  0  0  0  0
   46.9201   57.3396   20.8937 O   0  0  0  0  0  0  0  0  0  0  0  0
   49.4242   57.5622   19.2264 H   0  0  0  0  0  0  0  0  0  0  0  0
   49.1959   57.3688   21.5994 C   0  0  0  0  0  0  0  0  0  0  0  0
   50.6451   57.1531   21.0989 C   0  0  0  0  0  0  0  0  0  0  0  0
   50.8371   51.2908   19.4309 C   0  0  0  0  0  0  0  0  0  0  0  0
   50.7132   52.6255   19.0136 C   0  0  0  0  0  0  0  0  0  0  0  0
   50.8498   53.6935   19.8774 C   0  0  0  0  0  0  0  0  0  0  0  0
   50.8692   53.5040   21.2778 C   0  0  0  0  0  0  0  0  0  0  0  0
   51.0166   52.2151   21.7325 C   0  0  0  0  0  0  0  0  0  0  0  0
   50.9309   51.1097   20.8097 C   0  0  0  0  0  0  0  0  0  0  0  0
   50.7909   55.0557   19.6716 N   0  0  0  0  0  0  0  0  0  0  0  0
   50.8229   55.6430   20.8770 C   0  0  0  0  0  0  0  0  0  0  0  0
   50.9415   54.7736   21.8745 N   0  0  0  0  0  0  0  0  0  0  0  0
   51.0545   55.0513   23.2941 C   0  0  0  0  0  0  0  0  0  0  0  0
   47.7093   52.8410   16.9348 C   0  0  0  0  0  0  0  0  0  0  0  0
   46.6675   51.6437   16.8797 C   0  0  0  0  0  0  0  0  0  0  0  0
   47.2992   50.3360   16.4078 C   0  0  0  0  0  0  0  0  0  0  0  0
   45.7520   49.0123   17.9493 C   0  0  0  0  0  0  0  0  0  0  0  0
   46.4998   49.1335   16.7898 N   0  0  0  0  0  0  0  0  0  0  0  0
   46.4713   47.8996   16.1994 C   0  0  0  0  0  0  0  0  0  0  0  0
   45.8850   47.0333   16.9102 N   0  0  0  0  0  0  0  0  0  0  0  0
   45.4853   47.7372   18.0785 C   0  0  0  0  0  0  0  0  0  0  0  0
   44.8164   47.1390   19.2324 C   0  0  0  0  0  0  0  0  0  0  0  0
   45.1558   47.3895   20.4200 O   0  0  0  0  0  0  0  0  0  0  0  0
   43.9034   46.2375   18.9037 N   0  0  0  0  0  0  0  0  0  0  0  0
   43.6800   46.0857   17.9569 H   0  0  0  0  0  0  0  0  0  0  0  0
   43.4481   45.7193   19.6061 H   0  0  0  0  0  0  0  0  0  0  0  0
   47.5707   50.5505   14.8494 C   0  0  0  0  0  0  0  0  0  0  0  0
   48.8842   50.3841   14.2996 O   0  0  0  0  0  0  0  0  0  0  0  0
   49.4699   51.0752   14.6466 H   0  0  0  0  0  0  0  0  0  0  0  0
 29 30  1  0  0  0
 29 33  2  0  0  0
 30 31  1  0  0  0
 30 28  1  0  0  0
 31 32  2  0  0  0
 32 33  1  0  0  0
 33 34  1  0  0  0
 34 35  2  0  0  0
 34 36  1  0  0  0
 28 39  1  0  0  0
 28 27  1  0  0  0
 39 40  1  0  0  0
 27 26  1  0  0  0
 26  1  1  0  0  0
  1  2  1  0  0  0
  1  5  1  0  0  0
  2  3  2  0  0  0
  3  4  1  0  0  0
  4  5  2  0  0  0
  4  6  1  0  0  0
  5  9  1  0  0  0
  6  7  2  0  0  0
  7  8  1  0  0  0
  8  9  2  0  0  0
  8 10  1  0  0  0
 10 11  1  0  0  0
 11 12  2  0  0  0
 11 14  1  0  0  0
 14 15  1  0  0  0
 15 23  1  0  0  0
 16 17  2  0  0  0
 16 21  1  0  0  0
 17 18  1  0  0  0
 18 19  2  0  0  0
 18 22  1  0  0  0
 19 20  1  0  0  0
 19 24  1  0  0  0
 20 21  2  0  0  0
 22 23  2  0  0  0
 23 24  1  0  0  0
 24 25  1  0  0  0
 36 37  1  0  0  0
 36 38  1  0  0  0
 40 41  1  0  0  0
 10 13  1  0  0  0
M  END
> <minimizedAffinity>
-9.24343

$$$$
1NDZ_FR5_A_1001


 41 45  0  0  0  0  0  0  0  0999 V2000
   50.0505   54.7251   19.7777 N   0  0  0  0  0  0  0  0  0  0  0  0
   51.0304   54.5655   20.6990 C   0  0  0  0  0  0  0  0  0  0  0  0
   50.8709   55.4746   21.6467 C   0  0  0  0  0  0  0  0  0  0  0  0
   49.6722   56.2123   21.2678 C   0  0  0  0  0  0  0  0  0  0  0  0
   49.2525   55.7553   20.0371 C   0  0  0  0  0  0  0  0  0  0  0  0
   49.1358   57.3415   21.7450 C   0  0  0  0  0  0  0  0  0  0  0  0
   48.1244   57.8878   21.1161 C   0  0  0  0  0  0  0  0  0  0  0  0
   47.6836   57.3709   19.9368 C   0  0  0  0  0  0  0  0  0  0  0  0
   48.2235   56.2586   19.4237 C   0  0  0  0  0  0  0  0  0  0  0  0
   46.6689   57.7938   19.2814 N   0  0  0  0  0  0  0  0  0  0  0  0
   45.4767   57.8737   19.6357 C   0  0  0  0  0  0  0  0  0  0  0  0
   44.9993   57.3494   20.6199 O   0  0  0  0  0  0  0  0  0  0  0  0
   46.8573   58.1003   18.3651 H   0  0  0  0  0  0  0  0  0  0  0  0
   44.6023   58.7907   18.7643 C   0  0  0  0  0  0  0  0  0  0  0  0
   45.3330   59.7432   17.7865 C   0  0  0  0  0  0  0  0  0  0  0  0
   45.5286   56.9239   12.3827 C   0  0  0  0  0  0  0  0  0  0  0  0
   45.9057   56.8956   13.7347 C   0  0  0  0  0  0  0  0  0  0  0  0
   45.4705   57.8320   14.6510 C   0  0  0  0  0  0  0  0  0  0  0  0
   44.8269   59.0192   14.2342 C   0  0  0  0  0  0  0  0  0  0  0  0
   44.4152   59.0806   12.9241 C   0  0  0  0  0  0  0  0  0  0  0  0
   44.8283   58.0629   11.9890 C   0  0  0  0  0  0  0  0  0  0  0  0
   45.6982   57.9692   16.0040 N   0  0  0  0  0  0  0  0  0  0  0  0
   45.1771   59.1468   16.3788 C   0  0  0  0  0  0  0  0  0  0  0  0
   44.5791   59.7901   15.3821 N   0  0  0  0  0  0  0  0  0  0  0  0
   43.8722   61.0562   15.4314 C   0  0  0  0  0  0  0  0  0  0  0  0
   49.8459   53.7993   18.5324 C   0  0  0  0  0  0  0  0  0  0  0  0
   48.7965   52.6451   18.8303 C   0  0  0  0  0  0  0  0  0  0  0  0
   49.4135   51.2514   18.7384 C   0  0  0  0  0  0  0  0  0  0  0  0
   48.5533   48.8672   18.4264 C   0  0  0  0  0  0  0  0  0  0  0  0
   48.4657   50.2306   18.1992 N   0  0  0  0  0  0  0  0  0  0  0  0
   47.4665   50.3899   17.2784 C   0  0  0  0  0  0  0  0  0  0  0  0
   47.0154   49.2872   16.8540 N   0  0  0  0  0  0  0  0  0  0  0  0
   47.7722   48.3002   17.5420 C   0  0  0  0  0  0  0  0  0  0  0  0
   47.6533   46.8575   17.3391 C   0  0  0  0  0  0  0  0  0  0  0  0
   48.6478   46.0837   17.3615 O   0  0  0  0  0  0  0  0  0  0  0  0
   46.4265   46.4684   17.0262 N   0  0  0  0  0  0  0  0  0  0  0  0
   45.6884   47.1200   17.0260 H   0  0  0  0  0  0  0  0  0  0  0  0
   46.2527   45.5277   16.7937 H   0  0  0  0  0  0  0  0  0  0  0  0
   50.7769   51.4586   17.9343 C   0  0  0  0  0  0  0  0  0  0  0  0
   51.1216   50.6061   16.8344 O   0  0  0  0  0  0  0  0  0  0  0  0
   51.2791   49.7061   17.1599 H   0  0  0  0  0  0  0  0  0  0  0  0
 29 30  1  0  0  0
 29 33  2  0  0  0
 30 31  1  0  0  0
 30 28  1  0  0  0
 31 32  2  0  0  0
 32 33  1  0  0  0
 33 34  1  0  0  0
 34 35  2  0  0  0
 34 36  1  0  0  0
 28 39  1  0  0  0
 28 27  1  0  0  0
 39 40  1  0  0  0
 27 26  1  0  0  0
 26  1  1  0  0  0
  1  2  1  0  0  0
  1  5  1  0  0  0
  2  3  2  0  0  0
  3  4  1  0  0  0
  4  5  2  0  0  0
  4  6  1  0  0  0
  5  9  1  0  0  0
  6  7  2  0  0  0
  7  8  1  0  0  0
  8  9  2  0  0  0
  8 10  1  0  0  0
 10 11  1  0  0  0
 11 12  2  0  0  0
 11 14  1  0  0  0
 14 15  1  0  0  0
 15 23  1  0  0  0
 16 17  2  0  0  0
 16 21  1  0  0  0
 17 18  1  0  0  0
 18 19  2  0  0  0
 18 22  1  0  0  0
 19 20  1  0  0  0
 19 24  1  0  0  0
 20 21  2  0  0  0
 22 23  2  0  0  0
 23 24  1  0  0  0
 24 25  1  0  0  0
 36 37  1  0  0  0
 36 38  1  0  0  0
 40 41  1  0  0  0
 10 13  1  0  0  0
M  END
> <minimizedAffinity>
-9.23047

$$$$
1NDZ_FR5_A_1001


 41 45  0  0  0  0  0  0  0  0999 V2000
   48.0816   56.9512   19.8682 N   0  0  0  0  0  0  0  0  0  0  0  0
   48.1135   57.8600   20.8721 C   0  0  0  0  0  0  0  0  0  0  0  0
   49.0417   57.4961   21.7415 C   0  0  0  0  0  0  0  0  0  0  0  0
   49.6314   56.2854   21.1836 C   0  0  0  0  0  0  0  0  0  0  0  0
   48.9254   55.9412   20.0510 C   0  0  0  0  0  0  0  0  0  0  0  0
   50.4804   55.3904   21.7017 C   0  0  0  0  0  0  0  0  0  0  0  0
   50.7369   54.2897   21.0387 C   0  0  0  0  0  0  0  0  0  0  0  0
   50.0754   54.0098   19.8825 C   0  0  0  0  0  0  0  0  0  0  0  0
   49.1994   54.8761   19.3591 C   0  0  0  0  0  0  0  0  0  0  0  0
   50.2986   52.9959   19.1340 N   0  0  0  0  0  0  0  0  0  0  0  0
   51.3414   52.6712   18.5336 C   0  0  0  0  0  0  0  0  0  0  0  0
   52.3058   53.3867   18.3627 O   0  0  0  0  0  0  0  0  0  0  0  0
   49.5365   52.3841   19.0154 H   0  0  0  0  0  0  0  0  0  0  0  0
   51.3888   51.2077   18.0636 C   0  0  0  0  0  0  0  0  0  0  0  0
   51.2101   50.1126   19.1434 C   0  0  0  0  0  0  0  0  0  0  0  0
   45.4886   48.4973   17.7863 C   0  0  0  0  0  0  0  0  0  0  0  0
   46.6778   49.0919   17.3354 C   0  0  0  0  0  0  0  0  0  0  0  0
   47.8324   49.1190   18.0916 C   0  0  0  0  0  0  0  0  0  0  0  0
   47.8169   48.7774   19.4629 C   0  0  0  0  0  0  0  0  0  0  0  0
   46.6823   48.1675   19.9427 C   0  0  0  0  0  0  0  0  0  0  0  0
   45.4997   48.0928   19.1200 C   0  0  0  0  0  0  0  0  0  0  0  0
   49.0901   49.6207   17.8314 N   0  0  0  0  0  0  0  0  0  0  0  0
   49.7961   49.5368   18.9687 C   0  0  0  0  0  0  0  0  0  0  0  0
   49.1150   48.9759   19.9618 N   0  0  0  0  0  0  0  0  0  0  0  0
   49.5732   48.6829   21.3070 C   0  0  0  0  0  0  0  0  0  0  0  0
   47.1654   57.0595   18.6039 C   0  0  0  0  0  0  0  0  0  0  0  0
   47.2035   58.5193   17.9798 C   0  0  0  0  0  0  0  0  0  0  0  0
   45.8127   59.1322   17.8326 C   0  0  0  0  0  0  0  0  0  0  0  0
   45.6031   58.0146   15.5459 C   0  0  0  0  0  0  0  0  0  0  0  0
   45.2681   59.0117   16.4470 N   0  0  0  0  0  0  0  0  0  0  0  0
   44.4995   59.9012   15.7472 C   0  0  0  0  0  0  0  0  0  0  0  0
   44.4170   59.6121   14.5187 N   0  0  0  0  0  0  0  0  0  0  0  0
   45.1949   58.4314   14.3739 C   0  0  0  0  0  0  0  0  0  0  0  0
   45.4517   57.7439   13.1097 C   0  0  0  0  0  0  0  0  0  0  0  0
   44.6364   57.7613   12.1488 O   0  0  0  0  0  0  0  0  0  0  0  0
   46.5624   57.0224   13.1180 N   0  0  0  0  0  0  0  0  0  0  0  0
   47.1613   57.0498   13.8989 H   0  0  0  0  0  0  0  0  0  0  0  0
   46.7890   56.4587   12.3434 H   0  0  0  0  0  0  0  0  0  0  0  0
   44.9483   58.4734   19.0019 C   0  0  0  0  0  0  0  0  0  0  0  0
   43.5484   58.7537   19.1322 O   0  0  0  0  0  0  0  0  0  0  0  0
   43.4260   59.6867   19.3676 H   0  0  0  0  0  0  0  0  0  0  0  0
 29 30  1  0  0  0
 29 33  2  0  0  0
 30 31  1  0  0  0
 30 28  1  0  0  0
 31 32  2  0  0  0
 32 33  1  0  0  0
 33 34  1  0  0  0
 34 35  2  0  0  0
 34 36  1  0  0  0
 28 39  1  0  0  0
 28 27  1  0  0  0
 39 40  1  0  0  0
 27 26  1  0  0  0
 26  1  1  0  0  0
  1  2  1  0  0  0
  1  5  1  0  0  0
  2  3  2  0  0  0
  3  4  1  0  0  0
  4  5  2  0  0  0
  4  6  1  0  0  0
  5  9  1  0  0  0
  6  7  2  0  0  0
  7  8  1  0  0  0
  8  9  2  0  0  0
  8 10  1  0  0  0
 10 11  1  0  0  0
 11 12  2  0  0  0
 11 14  1  0  0  0
 14 15  1  0  0  0
 15 23  1  0  0  0
 16 17  2  0  0  0
 16 21  1  0  0  0
 17 18  1  0  0  0
 18 19  2  0  0  0
 18 22  1  0  0  0
 19 20  1  0  0  0
 19 24  1  0  0  0
 20 21  2  0  0  0
 22 23  2  0  0  0
 23 24  1  0  0  0
 24 25  1  0  0  0
 36 37  1  0  0  0
 36 38  1  0  0  0
 40 41  1  0  0  0
 10 13  1  0  0  0
M  END
> <minimizedAffinity>
-9.06603

$$$$
1NDZ_FR5_A_1001


 41 45  0  0  0  0  0  0  0  0999 V2000
   49.9830   55.7001   20.9266 N   0  0  0  0  0  0  0  0  0  0  0  0
   50.5518   55.9263   22.1348 C   0  0  0  0  0  0  0  0  0  0  0  0
   50.9846   54.7742   22.6199 C   0  0  0  0  0  0  0  0  0  0  0  0
   50.6738   53.7883   21.5922 C   0  0  0  0  0  0  0  0  0  0  0  0
   49.9631   54.4146   20.5911 C   0  0  0  0  0  0  0  0  0  0  0  0
   50.7177   52.4510   21.6015 C   0  0  0  0  0  0  0  0  0  0  0  0
   50.2292   51.7852   20.5842 C   0  0  0  0  0  0  0  0  0  0  0  0
   49.5951   52.4378   19.5720 C   0  0  0  0  0  0  0  0  0  0  0  0
   49.5121   53.7738   19.5546 C   0  0  0  0  0  0  0  0  0  0  0  0
   49.1411   51.8853   18.5106 N   0  0  0  0  0  0  0  0  0  0  0  0
   49.6641   51.0161   17.7866 C   0  0  0  0  0  0  0  0  0  0  0  0
   50.8273   50.6746   17.8270 O   0  0  0  0  0  0  0  0  0  0  0  0
   48.2500   52.1910   18.2248 H   0  0  0  0  0  0  0  0  0  0  0  0
   48.6926   50.2917   16.8399 C   0  0  0  0  0  0  0  0  0  0  0  0
   48.6673   48.7449   16.9015 C   0  0  0  0  0  0  0  0  0  0  0  0
   44.5176   47.0862   21.0507 C   0  0  0  0  0  0  0  0  0  0  0  0
   45.7656   47.6839   20.8141 C   0  0  0  0  0  0  0  0  0  0  0  0
   46.2478   47.9280   19.5437 C   0  0  0  0  0  0  0  0  0  0  0  0
   45.6304   47.3614   18.4056 C   0  0  0  0  0  0  0  0  0  0  0  0
   44.3937   46.7888   18.5849 C   0  0  0  0  0  0  0  0  0  0  0  0
   43.8747   46.5932   19.9166 C   0  0  0  0  0  0  0  0  0  0  0  0
   47.4138   48.5152   19.1001 N   0  0  0  0  0  0  0  0  0  0  0  0
   47.4625   48.3502   17.7700 C   0  0  0  0  0  0  0  0  0  0  0  0
   46.3920   47.7311   17.2846 N   0  0  0  0  0  0  0  0  0  0  0  0
   46.0851   47.4287   15.8991 C   0  0  0  0  0  0  0  0  0  0  0  0
   49.4110   56.8188   19.9932 C   0  0  0  0  0  0  0  0  0  0  0  0
   47.8456   56.6570   19.7811 C   0  0  0  0  0  0  0  0  0  0  0  0
   47.3057   57.5607   18.6750 C   0  0  0  0  0  0  0  0  0  0  0  0
   46.7049   57.4234   16.1966 C   0  0  0  0  0  0  0  0  0  0  0  0
   47.2798   56.8924   17.3394 N   0  0  0  0  0  0  0  0  0  0  0  0
   47.6425   55.6144   17.0127 C   0  0  0  0  0  0  0  0  0  0  0  0
   47.2668   55.2836   15.8512 N   0  0  0  0  0  0  0  0  0  0  0  0
   46.5926   56.4305   15.3509 C   0  0  0  0  0  0  0  0  0  0  0  0
   45.9239   56.5129   14.0537 C   0  0  0  0  0  0  0  0  0  0  0  0
   44.7997   55.9874   13.8339 O   0  0  0  0  0  0  0  0  0  0  0  0
   46.6590   57.0941   13.1176 N   0  0  0  0  0  0  0  0  0  0  0  0
   47.5308   57.4879   13.3502 H   0  0  0  0  0  0  0  0  0  0  0  0
   46.3336   57.1321   12.1892 H   0  0  0  0  0  0  0  0  0  0  0  0
   45.9113   58.1025   19.2322 C   0  0  0  0  0  0  0  0  0  0  0  0
   45.3248   59.3026   18.7112 O   0  0  0  0  0  0  0  0  0  0  0  0
   45.8809   60.0622   18.9451 H   0  0  0  0  0  0  0  0  0  0  0  0
 29 30  1  0  0  0
 29 33  2  0  0  0
 30 31  1  0  0  0
 30 28  1  0  0  0
 31 32  2  0  0  0
 32 33  1  0  0  0
 33 34  1  0  0  0
 34 35  2  0  0  0
 34 36  1  0  0  0
 28 39  1  0  0  0
 28 27  1  0  0  0
 39 40  1  0  0  0
 27 26  1  0  0  0
 26  1  1  0  0  0
  1  2  1  0  0  0
  1  5  1  0  0  0
  2  3  2  0  0  0
  3  4  1  0  0  0
  4  5  2  0  0  0
  4  6  1  0  0  0
  5  9  1  0  0  0
  6  7  2  0  0  0
  7  8  1  0  0  0
  8  9  2  0  0  0
  8 10  1  0  0  0
 10 11  1  0  0  0
 11 12  2  0  0  0
 11 14  1  0  0  0
 14 15  1  0  0  0
 15 23  1  0  0  0
 16 17  2  0  0  0
 16 21  1  0  0  0
 17 18  1  0  0  0
 18 19  2  0  0  0
 18 22  1  0  0  0
 19 20  1  0  0  0
 19 24  1  0  0  0
 20 21  2  0  0  0
 22 23  2  0  0  0
 23 24  1  0  0  0
 24 25  1  0  0  0
 36 37  1  0  0  0
 36 38  1  0  0  0
 40 41  1  0  0  0
 10 13  1  0  0  0
M  END
> <minimizedAffinity>
-9.01687

$$$$
