2HMU_ATP_A_601
  RCSB PDB12061705493D
Coordinates from PDB:2HMU:A:601 Model:1 without hydrogens
 31 33  0  0  0  0            999 V2000
  111.0310   47.5970   19.2990   P 0  0  0  0  0  0  0  0  0  0  0  0
  109.6470   47.0510   19.2510   O 0  0  0  0  0  0  0  0  0  0  0  0
  112.0650   46.3900   19.5740   O 0  0  0  0  0  0  0  0  0  0  0  0
  111.1460   48.6870   20.4810   O 0  0  0  0  0  0  0  0  0  0  0  0
  112.9660   48.5530   17.6890   P 0  0  0  0  0  0  0  0  0  0  0  0
  113.6670   48.5760   18.9990   O 0  0  0  0  0  0  0  0  0  0  0  0
  113.5790   47.3620   16.7910   O 0  0  0  0  0  0  0  0  0  0  0  0
  111.3620   48.3120   17.8740   O 0  0  0  0  0  0  0  0  0  0  0  0
  112.2660   51.1210   17.5340   P 0  0  0  0  0  0  0  0  0  0  0  0
  112.8760   52.4450   17.2360   O 0  0  0  0  0  0  0  0  0  0  0  0
  112.1150   50.9840   19.1350   O 0  0  0  0  0  0  0  0  0  0  0  0
  113.2290   49.9630   16.9270   O 0  0  0  0  0  0  0  0  0  0  0  0
  110.7910   50.9690   16.8580   O 0  0  0  0  0  0  0  0  0  0  0  0
  110.4240   52.1940   16.2280   C 0  0  0  0  0  0  0  0  0  0  0  0
  110.1510   51.9730   14.7360   C 0  0  0  0  0  0  0  0  0  0  0  0
  109.1950   52.9790   14.2930   O 0  0  0  0  0  0  0  0  0  0  0  0
  111.4300   52.1460   13.8570   C 0  0  0  0  0  0  0  0  0  0  0  0
  111.4480   51.1950   12.7780   O 0  0  0  0  0  0  0  0  0  0  0  0
  111.3280   53.5850   13.3660   C 0  0  0  0  0  0  0  0  0  0  0  0
  112.0180   53.8010   12.1300   O 0  0  0  0  0  0  0  0  0  0  0  0
  109.8140   53.7980   13.2620   C 0  0  0  0  0  0  0  0  0  0  0  0
  109.4630   55.2030   13.4600   N 0  0  0  0  0  0  0  0  0  0  0  0
  110.0340   56.0850   14.3490   C 0  0  0  0  0  0  0  0  0  0  0  0
  109.4720   57.2470   14.2470   N 0  0  0  0  0  0  0  0  0  0  0  0
  108.5070   57.1950   13.2910   C 0  0  0  0  0  0  0  0  0  0  0  0
  107.5800   58.1230   12.7420   C 0  0  0  0  0  0  0  0  0  0  0  0
  107.5440   59.4330   13.1970   N 0  0  0  0  0  0  0  0  0  0  0  0
  106.7350   57.7040   11.7650   N 0  0  0  0  0  0  0  0  0  0  0  0
  106.7570   56.4450   11.3120   C 0  0  0  0  0  0  0  0  0  0  0  0
  107.6150   55.5440   11.8030   N 0  0  0  0  0  0  0  0  0  0  0  0
  108.4930   55.8740   12.7780   C 0  0  0  0  0  0  0  0  0  0  0  0
  1  2  2  0  0  0  0
  1  3  1  0  0  0  0
  1  4  1  0  0  0  0
  1  8  1  0  0  0  0
  5  6  2  0  0  0  0
  5  7  1  0  0  0  0
  5  8  1  0  0  0  0
  5 12  1  0  0  0  0
  9 10  2  0  0  0  0
  9 11  1  0  0  0  0
  9 12  1  0  0  0  0
  9 13  1  0  0  0  0
 13 14  1  0  0  0  0
 14 15  1  0  0  0  0
 15 16  1  0  0  0  0
 15 17  1  0  0  0  0
 16 21  1  0  0  0  0
 17 18  1  0  0  0  0
 17 19  1  0  0  0  0
 19 20  1  0  0  0  0
 19 21  1  0  0  0  0
 21 22  1  0  0  0  0
 22 23  1  0  0  0  0
 22 31  1  0  0  0  0
 23 24  2  0  0  0  0
 24 25  1  0  0  0  0
 25 26  1  0  0  0  0
 25 31  2  0  0  0  0
 26 27  1  0  0  0  0
 26 28  2  0  0  0  0
 28 29  1  0  0  0  0
 29 30  2  0  0  0  0
 30 31  1  0  0  0  0
A    1
PG
A    2
O1G
A    3
O2G
A    4
O3G
A    5
PB
A    6
O1B
A    7
O2B
A    8
O3B
A    9
PA
A   10
O1A
A   11
O2A
A   12
O3A
A   13
O5'
A   14
C5'
A   15
C4'
A   16
O4'
A   17
C3'
A   18
O3'
A   19
C2'
A   20
O2'
A   21
C1'
A   22
N9
A   23
C8
A   24
N7
A   25
C5
A   26
C6
A   27
N6
A   28
N1
A   29
C2
A   30
N3
A   31
C4
M  END
>  <InstanceId>
2HMU_ATP_A_601

>  <ChemCompId>
ATP

>  <PdbId>
2HMU

>  <ChainId>
A

>  <ResidueNumber>
601

>  <InsertionCode>


>  <Model>
1

>  <AltIds>


>  <MissingHeavyAtoms>
0

>  <ObservedFormula>
C10 N5 O13 P3

>  <Name>
ADENOSINE-5'-TRIPHOSPHATE

>  <SystematicName>
[[(2R,3S,4R,5R)-5-(6-aminopurin-9-yl)-3,4-dihydroxy-oxolan-2-yl]methoxy-hydroxy-phosphoryl] phosphono hydrogen phosphate

>  <Synonyms>


>  <Type>
NON-POLYMER

>  <Formula>
C10 H16 N5 O13 P3

>  <MolecularWeight>
507.181

>  <ModifiedDate>
2011-06-04

>  <Parent>


>  <OneLetterCode>


>  <SubcomponentList>


>  <AmbiguousFlag>
N

>  <InChI>
InChI=1S/C10H16N5O13P3/c11-8-5-9(13-2-12-8)15(3-14-5)10-7(17)6(16)4(26-10)1-25-30(21,22)28-31(23,24)27-29(18,19)20/h2-4,6-7,10,16-17H,1H2,(H,21,22)(H,23,24)(H2,11,12,13)(H2,18,19,20)/t4-,6-,7-,10-/m1/s1

>  <InChIKey>
ZKHQWZAMYRWXGA-KQYNXXCUSA-N

>  <SMILES>
c1nc(c2c(n1)n(cn2)[C@H]3[C@@H]([C@@H]([C@H](O3)CO[P@@](=O)(O)O[P@](=O)(O)OP(=O)(O)O)O)O)N

$$$$
